
     RDKit          3D

 19 20  0  0  1  0  0  0  0  0999 V2000
   37.1480   27.9060   42.8630 C   0  0  1  0  0  0  0  0  0  0  0  0
   37.8250   29.2220   43.0610 C   0  0  0  0  0  0  0  0  0  0  0  0
   37.4260   28.8590   41.6790 C   0  0  2  0  0  0  0  0  0  0  0  0
   40.0000   25.7210   43.7210 C   0  0  0  0  0  0  0  0  0  0  0  0
   39.6430   24.5070   43.0760 C   0  0  0  0  0  0  0  0  0  0  0  0
   38.4240   24.4720   42.3520 C   0  0  0  0  0  0  0  0  0  0  0  0
   37.6570   25.5850   42.3050 N   0  0  0  0  0  0  0  0  0  0  0  0
   38.0350   26.7280   42.9370 C   0  0  0  0  0  0  0  0  0  0  0  0
   39.1900   26.7940   43.6340 N   0  0  0  0  0  0  0  0  0  0  0  0
   36.2550   29.6100   41.1490 C   0  0  0  0  0  0  0  0  0  0  0  0
   36.1690   30.8440   41.2080 O   0  0  0  0  0  0  0  0  0  0  0  0
   36.2632   27.4039   43.2814 H   0  0  0  0  0  0  0  0  0  0  0  0
   37.2951   30.0318   43.5840 H   0  0  0  0  0  0  0  0  0  0  0  0
   38.7739   29.5293   43.5249 H   0  0  0  0  0  0  0  0  0  0  0  0
   37.9315   28.7631   40.7067 H   0  0  0  0  0  0  0  0  0  0  0  0
   40.9381   25.7851   44.2918 H   0  0  0  0  0  0  0  0  0  0  0  0
   40.2921   23.6210   43.1362 H   0  0  0  0  0  0  0  0  0  0  0  0
   38.1071   23.5534   41.8364 H   0  0  0  0  0  0  0  0  0  0  0  0
   35.4322   29.0456   40.6859 H   0  0  0  0  0  0  0  0  0  0  0  0
  1  8  1  0
  1  2  1  0
  3  1  1  0
  3  2  1  0
  5  4  2  0
  6  5  1  0
  7  6  2  0
  7  8  1  0
  8  9  2  0
  9  4  1  0
 10 11  2  0
 10  3  1  0
  1 12  1  1
  2 13  1  0
  2 14  1  0
  3 15  1  6
  4 16  1  0
  5 17  1  0
  6 18  1  0
 10 19  1  0
M  ISO  8  12  13  13  13  14  13  15  13  16  14  17  14  18  14  19   6
M  END
>  <minimizedAffinity>  (1) 
-3.6462853

>  <minimizedRMSD>  (1) 
3.4289124

$$$$
