
     RDKit          3D

 18 19  0  0  1  0  0  0  0  0999 V2000
   38.5620   28.9920   43.0870 C   0  0  0  0  0  0  0  0  0  0  0  0
   37.9750   27.7080   43.2300 C   0  0  0  0  0  0  0  0  0  0  0  0
   36.7690   27.4450   42.5290 C   0  0  0  0  0  0  0  0  0  0  0  0
   36.2390   28.4250   41.7600 N   0  0  0  0  0  0  0  0  0  0  0  0
   36.8430   29.6400   41.6560 C   0  0  0  0  0  0  0  0  0  0  0  0
   37.9730   29.9190   42.2990 N   0  0  0  0  0  0  0  0  0  0  0  0
   36.2020   30.6750   40.8210 C   0  0  1  0  0  0  0  0  0  0  0  0
   37.0980   31.7930   40.3930 C   0  0  0  0  0  0  0  0  0  0  0  0
   36.7240   30.7870   39.3750 C   0  0  1  0  0  0  0  0  0  0  0  0
   37.8390   29.4640   38.8750 S   0  0  0  0  0  0  0  0  0  0  0  0
   39.4954   29.2327   43.6169 H   0  0  0  0  0  0  0  0  0  0  0  0
   38.4405   26.9397   43.8649 H   0  0  0  0  0  0  0  0  0  0  0  0
   36.2754   26.4652   42.6090 H   0  0  0  0  0  0  0  0  0  0  0  0
   35.2134   30.5891   41.2956 H   0  0  0  0  0  0  0  0  0  0  0  0
   36.6957   32.8143   40.3209 H   0  0  0  0  0  0  0  0  0  0  0  0
   38.0570   32.1862   40.7612 H   0  0  0  0  0  0  0  0  0  0  0  0
   36.3211   30.8831   38.3560 H   0  0  0  0  0  0  0  0  0  0  0  0
   38.3528   28.8543   39.9891 H   0  0  0  0  0  0  0  0  0  0  0  0
  1  2  2  0
  3  2  1  0
  4  3  2  0
  5  4  1  0
  5  6  2  0
  6  1  1  0
  7  5  1  0
  8  7  1  0
  9  8  1  0
  9  7  1  0
 10  9  1  0
  1 11  1  0
  2 12  1  0
  3 13  1  0
  7 14  1  6
  8 15  1  0
  8 16  1  0
  9 17  1  6
 10 18  1  0
M  ISO  8  11  14  12  14  13  14  14  13  15  13  16  13  17  13  18  11
M  END
>  <minimizedAffinity>  (1) 
-3.39282274

>  <minimizedRMSD>  (1) 
0.0402804725

$$$$
