
     RDKit          3D

 31 34  0  0  1  0  0  0  0  0999 V2000
   37.5400   27.3080   39.3960 C   0  0  1  0  0  0  0  0  0  0  0  0
   37.6250   26.2390   40.4370 C   0  0  0  0  0  0  0  0  0  0  0  0
   36.4170   26.2600   39.5790 C   0  0  2  0  0  0  0  0  0  0  0  0
   36.2330   25.4130   38.4030 C   0  0  0  0  0  0  0  0  0  0  0  0
   36.9530   24.2880   38.2180 N   0  0  0  0  0  0  0  0  0  0  0  0
   36.8310   23.4740   37.1680 C   0  0  0  0  0  0  0  0  0  0  0  0
   35.9230   23.7810   36.2000 N   0  0  0  0  0  0  0  0  0  0  0  0
   35.1610   24.8960   36.3100 C   0  0  0  0  0  0  0  0  0  0  0  0
   34.2460   25.1660   35.2950 C   0  0  0  0  0  0  0  0  0  0  0  0
   33.4650   26.3110   35.4140 C   0  0  0  0  0  0  0  0  0  0  0  0
   33.6040   27.1440   36.5120 C   0  0  0  0  0  0  0  0  0  0  0  0
   34.5320   26.8240   37.4930 C   0  0  0  0  0  0  0  0  0  0  0  0
   35.3190   25.7110   37.4180 C   0  0  0  0  0  0  0  0  0  0  0  0
   36.9910   30.1480   41.6900 C   0  0  0  0  0  0  0  0  0  0  0  0
   36.6970   31.2040   40.7900 C   0  0  0  0  0  0  0  0  0  0  0  0
   36.6860   30.9100   39.4040 C   0  0  0  0  0  0  0  0  0  0  0  0
   36.9550   29.6320   39.0020 N   0  0  0  0  0  0  0  0  0  0  0  0
   37.2290   28.6650   39.9060 C   0  0  0  0  0  0  0  0  0  0  0  0
   37.2470   28.9150   41.2340 N   0  0  0  0  0  0  0  0  0  0  0  0
   38.1715   27.6511   38.5633 H   0  0  0  0  0  0  0  0  0  0  0  0
   38.3580   25.4269   40.3222 H   0  0  0  0  0  0  0  0  0  0  0  0
   37.7872   26.2460   41.5250 H   0  0  0  0  0  0  0  0  0  0  0  0
   35.3499   26.1970   39.8386 H   0  0  0  0  0  0  0  0  0  0  0  0
   37.4529   22.5705   37.0853 H   0  0  0  0  0  0  0  0  0  0  0  0
   34.1444   24.4962   34.4284 H   0  0  0  0  0  0  0  0  0  0  0  0
   32.7323   26.5565   34.6311 H   0  0  0  0  0  0  0  0  0  0  0  0
   32.9857   28.0490   36.6053 H   0  0  0  0  0  0  0  0  0  0  0  0
   34.6371   27.4907   38.3616 H   0  0  0  0  0  0  0  0  0  0  0  0
   37.0089   30.3434   42.7723 H   0  0  0  0  0  0  0  0  0  0  0  0
   36.4843   32.2191   41.1564 H   0  0  0  0  0  0  0  0  0  0  0  0
   36.4652   31.6952   38.6660 H   0  0  0  0  0  0  0  0  0  0  0  0
  1  3  1  0
  1 18  1  0
  1  2  1  0
  3  2  1  0
  4  3  1  0
  5  4  2  0
  6  5  1  0
  7  8  1  0
  7  6  2  0
  8 13  2  0
  9 10  2  0
  9  8  1  0
 10 11  1  0
 11 12  2  0
 13 12  1  0
 13  4  1  0
 15 14  2  0
 16 15  1  0
 17 16  2  0
 17 18  1  0
 18 19  2  0
 19 14  1  0
  1 20  1  6
  2 21  1  0
  2 22  1  0
  3 23  1  1
  6 24  1  0
  9 25  1  0
 10 26  1  0
 11 27  1  0
 12 28  1  0
 14 29  1  0
 15 30  1  0
 16 31  1  0
M  ISO  8  20  13  21  13  22  13  23  13  24  14  25  14  26  14  27  14
M  ISO  4  28  14  29  14  30  14  31  14
M  END
>  <minimizedAffinity>  (1) 
-3.34690881

>  <minimizedRMSD>  (1) 
5.29278326

$$$$
