
     RDKit          3D

 43 46  0  0  1  0  0  0  0  0999 V2000
   37.0810   29.4040   40.7000 N   0  0  0  0  0  0  0  0  0  0  0  0
   35.6120   29.3350   40.4880 C   0  0  0  0  0  0  0  0  0  0  0  0
   35.2640   28.5390   39.2650 C   0  0  0  0  0  0  0  0  0  0  0  0
   36.0980   28.8520   38.2010 O   0  0  0  0  0  0  0  0  0  0  0  0
   36.6180   30.1130   38.4200 C   0  0  0  0  0  0  0  0  0  0  0  0
   37.6110   30.1050   39.6020 C   0  0  1  0  0  0  0  0  0  0  0  0
   37.6740   28.8550   43.1600 C   0  0  1  0  0  0  0  0  0  0  0  0
   38.6800   29.8190   42.6570 C   0  0  0  0  0  0  0  0  0  0  0  0
   37.3720   29.8290   41.9990 C   0  0  1  0  0  0  0  0  0  0  0  0
   39.3780   25.7110   42.3000 C   0  0  0  0  0  0  0  0  0  0  0  0
   38.2920   24.7930   42.1780 C   0  0  0  0  0  0  0  0  0  0  0  0
   36.9780   25.3050   42.3890 C   0  0  0  0  0  0  0  0  0  0  0  0
   36.8210   26.6470   42.6960 N   0  0  0  0  0  0  0  0  0  0  0  0
   37.8930   27.4340   42.7910 C   0  0  0  0  0  0  0  0  0  0  0  0
   39.1590   27.0010   42.6010 N   0  0  0  0  0  0  0  0  0  0  0  0
   39.1790   34.0690   40.1170 C   0  0  0  0  0  0  0  0  0  0  0  0
   37.8250   33.8650   40.0490 C   0  0  0  0  0  0  0  0  0  0  0  0
   37.3310   32.5780   39.8840 C   0  0  0  0  0  0  0  0  0  0  0  0
   38.1330   31.4450   39.7810 C   0  0  0  0  0  0  0  0  0  0  0  0
   39.5110   31.6940   39.8540 C   0  0  0  0  0  0  0  0  0  0  0  0
   40.0070   32.9680   40.0170 C   0  0  0  0  0  0  0  0  0  0  0  0
   39.9060   35.6240   40.3190 S   0  0  0  0  0  0  0  0  0  0  0  0
   41.0740   35.7850   39.3700 O   0  0  0  0  0  0  0  0  0  0  0  0
   38.9100   36.6930   39.9000 O   0  0  0  0  0  0  0  0  0  0  0  0
   35.1472   28.8617   41.3654 H   0  0  0  0  0  0  0  0  0  0  0  0
   35.2376   30.3598   40.3478 H   0  0  0  0  0  0  0  0  0  0  0  0
   35.3643   27.4680   39.4949 H   0  0  0  0  0  0  0  0  0  0  0  0
   34.2306   28.7822   38.9770 H   0  0  0  0  0  0  0  0  0  0  0  0
   37.1416   30.4486   37.5127 H   0  0  0  0  0  0  0  0  0  0  0  0
   35.7904   30.7958   38.6625 H   0  0  0  0  0  0  0  0  0  0  0  0
   38.5178   29.5122   39.4116 H   0  0  0  0  0  0  0  0  0  0  0  0
   37.2159   28.6200   44.1321 H   0  0  0  0  0  0  0  0  0  0  0  0
   38.9748   30.6711   43.2872 H   0  0  0  0  0  0  0  0  0  0  0  0
   39.7120   29.7156   42.2906 H   0  0  0  0  0  0  0  0  0  0  0  0
   36.6366   30.6151   41.7726 H   0  0  0  0  0  0  0  0  0  0  0  0
   40.4079   25.3570   42.1454 H   0  0  0  0  0  0  0  0  0  0  0  0
   38.4616   23.7345   41.9314 H   0  0  0  0  0  0  0  0  0  0  0  0
   36.1020   24.6444   42.3092 H   0  0  0  0  0  0  0  0  0  0  0  0
   37.1333   34.7169   40.1248 H   0  0  0  0  0  0  0  0  0  0  0  0
   36.2402   32.4457   39.8315 H   0  0  0  0  0  0  0  0  0  0  0  0
   40.2132   30.8506   39.7792 H   0  0  0  0  0  0  0  0  0  0  0  0
   41.0961   33.1135   40.0692 H   0  0  0  0  0  0  0  0  0  0  0  0
   40.2963   35.7395   41.6271 H   0  0  0  0  0  0  0  0  0  0  0  0
  1  2  1  0
  1  9  1  0
  3  2  1  0
  4  5  1  0
  4  3  1  0
  5  6  1  0
  6 19  1  0
  6  1  1  0
  8  7  1  0
  9  8  1  0
  9  7  1  0
 10 15  2  0
 11 10  1  0
 11 12  2  0
 12 13  1  0
 13 14  2  0
 14  7  1  0
 15 14  1  0
 16 22  1  0
 17 16  2  0
 18 17  1  0
 19 20  1  0
 19 18  2  0
 20 21  2  0
 21 16  1  0
 23 22  2  0
 24 22  2  0
  2 25  1  0
  2 26  1  0
  3 27  1  0
  3 28  1  0
  5 29  1  0
  5 30  1  0
  6 31  1  6
  7 32  1  1
  8 33  1  0
  8 34  1  0
  9 35  1  1
 10 36  1  0
 11 37  1  0
 12 38  1  0
 17 39  1  0
 18 40  1  0
 20 41  1  0
 21 42  1  0
 22 43  1  0
M  ISO  8  25  13  26  13  27  13  28  13  29  13  30  13  31  13  32  13
M  ISO  8  33  13  34  13  35  13  36  14  37  14  38  14  39  14  40  14
M  ISO  3  41  14  42  14  43  11
M  END
>  <minimizedAffinity>  (1) 
-6.11102295

>  <minimizedRMSD>  (1) 
2.65939474

$$$$
