
     RDKit          3D

 43 46  0  0  1  0  0  0  0  0999 V2000
   37.8850   30.0860   39.2930 N   0  0  0  0  0  0  0  0  0  0  0  0
   37.8440   29.5440   37.9050 C   0  0  0  0  0  0  0  0  0  0  0  0
   39.1320   28.8820   37.5360 C   0  0  0  0  0  0  0  0  0  0  0  0
   40.2260   29.6230   37.9700 O   0  0  0  0  0  0  0  0  0  0  0  0
   39.8190   30.9340   38.0850 C   0  0  0  0  0  0  0  0  0  0  0  0
   38.8460   31.1170   39.2810 C   0  0  2  0  0  0  0  0  0  0  0  0
   39.7460   31.2200   40.4010 N   0  0  0  0  0  0  0  0  0  0  0  0
   40.1280   30.0730   40.9900 C   0  0  0  0  0  0  0  0  0  0  0  0
   41.0120   30.0260   42.0720 C   0  0  0  0  0  0  0  0  0  0  0  0
   41.4710   28.8040   42.7610 C   0  0  0  0  0  0  0  0  0  0  0  0
   41.5380   31.2190   42.5840 C   0  0  0  0  0  0  0  0  0  0  0  0
   42.3280   31.2790   43.5400 O   0  0  0  0  0  0  0  0  0  0  0  0
   41.1180   32.3530   41.9500 N   0  0  0  0  0  0  0  0  0  0  0  0
   40.2760   32.3400   40.9260 C   0  0  0  0  0  0  0  0  0  0  0  0
   39.9300   33.4240   40.3870 O   0  0  0  0  0  0  0  0  0  0  0  0
   35.8520   29.5990   40.8170 C   0  0  1  0  0  0  0  0  0  0  0  0
   36.1820   31.0330   40.9610 C   0  0  0  0  0  0  0  0  0  0  0  0
   36.5750   30.3890   39.7040 C   0  0  1  0  0  0  0  0  0  0  0  0
   37.9700   28.2490   43.5010 C   0  0  0  0  0  0  0  0  0  0  0  0
   38.1670   26.9120   43.1060 C   0  0  0  0  0  0  0  0  0  0  0  0
   37.5680   26.4990   41.8990 C   0  0  0  0  0  0  0  0  0  0  0  0
   36.8220   27.4080   41.1640 N   0  0  0  0  0  0  0  0  0  0  0  0
   36.6830   28.6640   41.6100 C   0  0  0  0  0  0  0  0  0  0  0  0
   37.2440   29.0910   42.7600 N   0  0  0  0  0  0  0  0  0  0  0  0
   37.0303   28.8073   37.8331 H   0  0  0  0  0  0  0  0  0  0  0  0
   37.6766   30.3822   37.2126 H   0  0  0  0  0  0  0  0  0  0  0  0
   39.1680   27.8854   38.0001 H   0  0  0  0  0  0  0  0  0  0  0  0
   39.1796   28.8041   36.4398 H   0  0  0  0  0  0  0  0  0  0  0  0
   40.7019   31.5715   38.2400 H   0  0  0  0  0  0  0  0  0  0  0  0
   39.2930   31.2177   37.1615 H   0  0  0  0  0  0  0  0  0  0  0  0
   38.1961   32.0043   39.2631 H   0  0  0  0  0  0  0  0  0  0  0  0
   39.7254   29.1259   40.6016 H   0  0  0  0  0  0  0  0  0  0  0  0
   41.4148   28.9536   43.8493 H   0  0  0  0  0  0  0  0  0  0  0  0
   40.8293   27.9580   42.4736 H   0  0  0  0  0  0  0  0  0  0  0  0
   42.5109   28.5897   42.4736 H   0  0  0  0  0  0  0  0  0  0  0  0
   41.4719   33.2612   42.2829 H   0  0  0  0  0  0  0  0  0  0  0  0
   34.9434   28.9823   40.8807 H   0  0  0  0  0  0  0  0  0  0  0  0
   35.3720   31.7773   40.9571 H   0  0  0  0  0  0  0  0  0  0  0  0
   36.7290   31.6126   41.7192 H   0  0  0  0  0  0  0  0  0  0  0  0
   36.4135   30.6266   38.6422 H   0  0  0  0  0  0  0  0  0  0  0  0
   38.4224   28.6071   44.4375 H   0  0  0  0  0  0  0  0  0  0  0  0
   38.7645   26.2177   43.7150 H   0  0  0  0  0  0  0  0  0  0  0  0
   37.6911   25.4654   41.5433 H   0  0  0  0  0  0  0  0  0  0  0  0
  1  2  1  0
  1 18  1  0
  3  2  1  0
  3  4  1  0
  4  5  1  0
  5  6  1  0
  6  1  1  0
  6  7  1  0
  7 14  1  0
  7  8  1  0
  8  9  2  0
  9 11  1  0
  9 10  1  0
 11 12  2  0
 13 11  1  0
 14 13  1  0
 15 14  2  0
 16 17  1  0
 16 23  1  0
 18 16  1  0
 18 17  1  0
 20 19  2  0
 21 20  1  0
 22 23  1  0
 22 21  2  0
 23 24  2  0
 24 19  1  0
  2 25  1  0
  2 26  1  0
  3 27  1  0
  3 28  1  0
  5 29  1  0
  5 30  1  0
  6 31  1  6
  8 32  1  0
 10 33  1  0
 10 34  1  0
 10 35  1  0
 13 36  1  0
 16 37  1  6
 17 38  1  0
 17 39  1  0
 18 40  1  6
 19 41  1  0
 20 42  1  0
 21 43  1  0
M  ISO  8  25  13  26  13  27  13  28  13  29  13  30  13  31  13  32  14
M  ISO  8  33   8  34   8  35   8  36   9  37  13  38  13  39  13  40  13
M  ISO  3  41  14  42  14  43  14
M  END
>  <minimizedAffinity>  (1) 
-5.55666733

>  <minimizedRMSD>  (1) 
1.67841756

$$$$
