
     RDKit          3D

 46 50  0  0  1  0  0  0  0  0999 V2000
   37.9230   30.1790   39.2370 N   0  0  0  0  0  0  0  0  0  0  0  0
   37.8600   29.4410   37.9470 C   0  0  0  0  0  0  0  0  0  0  0  0
   39.1790   28.8250   37.6030 C   0  0  0  0  0  0  0  0  0  0  0  0
   40.2320   29.7140   37.8680 O   0  0  0  0  0  0  0  0  0  0  0  0
   39.7030   30.9800   37.7820 C   0  0  0  0  0  0  0  0  0  0  0  0
   38.8030   31.2760   39.0190 C   0  0  2  0  0  0  0  0  0  0  0  0
   39.8600   31.4780   40.0250 C   0  0  0  0  0  0  0  0  0  0  0  0
   40.0680   30.3540   40.8330 C   0  0  0  0  0  0  0  0  0  0  0  0
   41.0640   30.3690   41.8140 C   0  0  0  0  0  0  0  0  0  0  0  0
   41.8640   31.4980   42.0040 C   0  0  0  0  0  0  0  0  0  0  0  0
   41.6470   32.5970   41.2020 C   0  0  0  0  0  0  0  0  0  0  0  0
   42.4050   33.7650   41.3280 C   0  0  0  0  0  0  0  0  0  0  0  0
   42.1620   34.8590   40.5010 C   0  0  0  0  0  0  0  0  0  0  0  0
   41.1560   34.7910   39.5380 C   0  0  0  0  0  0  0  0  0  0  0  0
   40.4190   33.6300   39.4280 C   0  0  0  0  0  0  0  0  0  0  0  0
   40.6680   32.5540   40.2520 C   0  0  0  0  0  0  0  0  0  0  0  0
   35.9280   29.6890   40.8100 C   0  0  1  0  0  0  0  0  0  0  0  0
   36.2200   31.1340   40.9200 C   0  0  0  0  0  0  0  0  0  0  0  0
   36.6090   30.4750   39.6690 C   0  0  1  0  0  0  0  0  0  0  0  0
   38.1400   28.4810   43.4850 C   0  0  0  0  0  0  0  0  0  0  0  0
   38.3640   27.1240   43.1250 C   0  0  0  0  0  0  0  0  0  0  0  0
   37.7420   26.6570   41.9420 C   0  0  0  0  0  0  0  0  0  0  0  0
   36.9570   27.5300   41.2010 N   0  0  0  0  0  0  0  0  0  0  0  0
   36.7960   28.7910   41.6060 C   0  0  0  0  0  0  0  0  0  0  0  0
   37.3760   29.2640   42.7290 N   0  0  0  0  0  0  0  0  0  0  0  0
   37.1040   28.6459   38.0266 H   0  0  0  0  0  0  0  0  0  0  0  0
   37.5951   30.1551   37.1534 H   0  0  0  0  0  0  0  0  0  0  0  0
   39.1873   28.5655   36.5341 H   0  0  0  0  0  0  0  0  0  0  0  0
   39.3169   27.9239   38.2186 H   0  0  0  0  0  0  0  0  0  0  0  0
   40.5219   31.7136   37.7453 H   0  0  0  0  0  0  0  0  0  0  0  0
   39.0919   31.0509   36.8701 H   0  0  0  0  0  0  0  0  0  0  0  0
   38.1052   32.1252   38.9755 H   0  0  0  0  0  0  0  0  0  0  0  0
   39.4464   29.4569   40.6958 H   0  0  0  0  0  0  0  0  0  0  0  0
   41.2195   29.4807   42.4439 H   0  0  0  0  0  0  0  0  0  0  0  0
   42.6483   31.5094   42.7752 H   0  0  0  0  0  0  0  0  0  0  0  0
   43.1998   33.8204   42.0865 H   0  0  0  0  0  0  0  0  0  0  0  0
   42.7624   35.7746   40.6073 H   0  0  0  0  0  0  0  0  0  0  0  0
   40.9537   35.6474   38.8780 H   0  0  0  0  0  0  0  0  0  0  0  0
   39.6222   33.5623   38.6727 H   0  0  0  0  0  0  0  0  0  0  0  0
   35.0379   29.0493   40.9024 H   0  0  0  0  0  0  0  0  0  0  0  0
   35.3896   31.8554   40.9157 H   0  0  0  0  0  0  0  0  0  0  0  0
   36.7635   31.7438   41.6567 H   0  0  0  0  0  0  0  0  0  0  0  0
   36.4254   30.6969   38.6074 H   0  0  0  0  0  0  0  0  0  0  0  0
   38.6027   28.8867   44.3968 H   0  0  0  0  0  0  0  0  0  0  0  0
   38.9942   26.4645   43.7398 H   0  0  0  0  0  0  0  0  0  0  0  0
   37.8789   25.6159   41.6142 H   0  0  0  0  0  0  0  0  0  0  0  0
  1  2  1  0
  1 19  1  0
  3  4  1  0
  3  2  1  0
  5  4  1  0
  5  6  1  0
  6  1  1  0
  6  7  1  0
  7 16  1  0
  7  8  2  0
  8  9  1  0
  9 10  2  0
 11 12  2  0
 11 10  1  0
 13 12  1  0
 14 13  2  0
 15 14  1  0
 15 16  2  0
 16 11  1  0
 17 18  1  0
 17 24  1  0
 19 17  1  0
 19 18  1  0
 21 20  2  0
 22 21  1  0
 23 24  1  0
 23 22  2  0
 24 25  2  0
 25 20  1  0
  2 26  1  0
  2 27  1  0
  3 28  1  0
  3 29  1  0
  5 30  1  0
  5 31  1  0
  6 32  1  6
  8 33  1  0
  9 34  1  0
 10 35  1  0
 12 36  1  0
 13 37  1  0
 14 38  1  0
 15 39  1  0
 17 40  1  6
 18 41  1  0
 18 42  1  0
 19 43  1  6
 20 44  1  0
 21 45  1  0
 22 46  1  0
M  ISO  8  26  13  27  13  28  13  29  13  30  13  31  13  32  13  33  14
M  ISO  8  34  14  35  14  36  14  37  14  38  14  39  14  40  13  41  13
M  ISO  5  42  13  43  13  44  14  45  14  46  14
M  END
>  <minimizedAffinity>  (1) 
-5.54472685

>  <minimizedRMSD>  (1) 
3.5184896

$$$$
