
     RDKit          3D

 41 44  0  0  1  0  0  0  0  0999 V2000
   37.8730   29.9970   39.2220 N   0  0  0  0  0  0  0  0  0  0  0  0
   37.7490   29.2020   37.9670 C   0  0  0  0  0  0  0  0  0  0  0  0
   39.0280   28.4880   37.6480 C   0  0  0  0  0  0  0  0  0  0  0  0
   40.1240   29.3250   37.8370 O   0  0  0  0  0  0  0  0  0  0  0  0
   39.6890   30.6240   37.7250 C   0  0  0  0  0  0  0  0  0  0  0  0
   38.7900   31.0260   38.9270 C   0  0  2  0  0  0  0  0  0  0  0  0
   39.7570   31.3970   39.9290 N   0  0  0  0  0  0  0  0  0  0  0  0
   40.0770   30.4370   40.8370 C   0  0  0  0  0  0  0  0  0  0  0  0
   41.0080   30.6470   41.8450 C   0  0  0  0  0  0  0  0  0  0  0  0
   41.6490   31.8870   41.9400 C   0  0  0  0  0  0  0  0  0  0  0  0
   42.6210   32.2450   42.9150 N   0  0  0  0  0  0  0  0  0  0  0  0
   41.3020   32.8050   41.0210 N   0  0  0  0  0  0  0  0  0  0  0  0
   40.4080   32.5660   40.0750 C   0  0  0  0  0  0  0  0  0  0  0  0
   40.1130   33.4520   39.2340 O   0  0  0  0  0  0  0  0  0  0  0  0
   35.8890   29.6680   40.8520 C   0  0  1  0  0  0  0  0  0  0  0  0
   36.2580   31.0960   40.8870 C   0  0  0  0  0  0  0  0  0  0  0  0
   36.5840   30.3620   39.6600 C   0  0  1  0  0  0  0  0  0  0  0  0
   38.1330   28.4360   43.4870 C   0  0  0  0  0  0  0  0  0  0  0  0
   38.2360   27.0590   43.2070 C   0  0  0  0  0  0  0  0  0  0  0  0
   37.5250   26.5820   42.0890 C   0  0  0  0  0  0  0  0  0  0  0  0
   36.7700   27.4660   41.3280 N   0  0  0  0  0  0  0  0  0  0  0  0
   36.7280   28.7570   41.6660 C   0  0  0  0  0  0  0  0  0  0  0  0
   37.3970   29.2490   42.7300 N   0  0  0  0  0  0  0  0  0  0  0  0
   36.9455   28.4608   38.0899 H   0  0  0  0  0  0  0  0  0  0  0  0
   37.5192   29.8903   37.1403 H   0  0  0  0  0  0  0  0  0  0  0  0
   39.0040   28.1572   36.5992 H   0  0  0  0  0  0  0  0  0  0  0  0
   39.1255   27.6235   38.3211 H   0  0  0  0  0  0  0  0  0  0  0  0
   40.5621   31.2923   37.6917 H   0  0  0  0  0  0  0  0  0  0  0  0
   39.0949   30.7121   36.8034 H   0  0  0  0  0  0  0  0  0  0  0  0
   38.0996   31.8689   38.7759 H   0  0  0  0  0  0  0  0  0  0  0  0
   39.5799   29.4580   40.7704 H   0  0  0  0  0  0  0  0  0  0  0  0
   41.2396   29.8460   42.5624 H   0  0  0  0  0  0  0  0  0  0  0  0
   43.0388   33.1864   42.9042 H   0  0  0  0  0  0  0  0  0  0  0  0
   42.9070   31.5628   43.6317 H   0  0  0  0  0  0  0  0  0  0  0  0
   34.9680   29.0842   40.9966 H   0  0  0  0  0  0  0  0  0  0  0  0
   35.4664   31.8595   40.8660 H   0  0  0  0  0  0  0  0  0  0  0  0
   36.8495   31.7088   41.5831 H   0  0  0  0  0  0  0  0  0  0  0  0
   36.3846   30.5330   38.5918 H   0  0  0  0  0  0  0  0  0  0  0  0
   38.6731   28.8499   44.3513 H   0  0  0  0  0  0  0  0  0  0  0  0
   38.8433   26.3881   43.8323 H   0  0  0  0  0  0  0  0  0  0  0  0
   37.5671   25.5163   41.8198 H   0  0  0  0  0  0  0  0  0  0  0  0
  1  2  1  0
  1 17  1  0
  3  4  1  0
  3  2  1  0
  5  4  1  0
  5  6  1  0
  6  1  1  0
  6  7  1  0
  7 13  1  0
  7  8  1  0
  8  9  2  0
  9 10  1  0
 10 11  1  0
 12 10  2  0
 13 12  1  0
 14 13  2  0
 15 16  1  0
 15 22  1  0
 17 15  1  0
 17 16  1  0
 19 18  2  0
 20 19  1  0
 21 22  1  0
 21 20  2  0
 22 23  2  0
 23 18  1  0
  2 24  1  0
  2 25  1  0
  3 26  1  0
  3 27  1  0
  5 28  1  0
  5 29  1  0
  6 30  1  6
  8 31  1  0
  9 32  1  0
 11 33  1  0
 11 34  1  0
 15 35  1  6
 16 36  1  0
 16 37  1  0
 17 38  1  6
 18 39  1  0
 19 40  1  0
 20 41  1  0
M  ISO  8  24  13  25  13  26  13  27  13  28  13  29  13  30  13  31  14
M  ISO  8  32  14  35  13  36  13  37  13  38  13  39  14  40  14  41  14
M  END
>  <minimizedAffinity>  (1) 
-5.27952909

>  <minimizedRMSD>  (1) 
1.75260568

$$$$
