
     RDKit          3D

 46 49  0  0  1  0  0  0  0  0999 V2000
   37.8310   30.0460   39.4140 N   0  0  0  0  0  0  0  0  0  0  0  0
   37.8090   29.8010   37.9460 C   0  0  0  0  0  0  0  0  0  0  0  0
   39.0290   29.1190   37.4470 C   0  0  0  0  0  0  0  0  0  0  0  0
   40.1720   29.5450   38.0890 O   0  0  0  0  0  0  0  0  0  0  0  0
   39.9390   30.8310   38.5430 C   0  0  0  0  0  0  0  0  0  0  0  0
   38.8960   30.8870   39.6800 C   0  0  1  0  0  0  0  0  0  0  0  0
   35.6810   29.3450   40.6830 C   0  0  1  0  0  0  0  0  0  0  0  0
   36.1450   30.6360   41.2420 C   0  0  0  0  0  0  0  0  0  0  0  0
   36.5470   30.3430   39.8860 C   0  0  1  0  0  0  0  0  0  0  0  0
   37.3990   27.0020   42.9320 C   0  0  0  0  0  0  0  0  0  0  0  0
   37.5500   25.8410   42.1130 C   0  0  0  0  0  0  0  0  0  0  0  0
   37.0540   25.9170   40.7750 C   0  0  0  0  0  0  0  0  0  0  0  0
   36.4580   27.0960   40.3410 N   0  0  0  0  0  0  0  0  0  0  0  0
   36.3620   28.1230   41.1750 C   0  0  0  0  0  0  0  0  0  0  0  0
   36.8140   28.1090   42.4510 N   0  0  0  0  0  0  0  0  0  0  0  0
   38.7500   32.3460   39.8800 C   0  0  0  0  0  0  0  0  0  0  0  0
   37.7030   33.0550   39.0830 C   0  0  0  0  0  0  0  0  0  0  0  0
   37.5970   34.4720   39.6560 C   0  0  0  0  0  0  0  0  0  0  0  0
   38.7770   34.8800   40.4640 C   0  0  0  0  0  0  0  0  0  0  0  0
   40.0980   34.4580   39.9040 C   0  0  0  0  0  0  0  0  0  0  0  0
   40.0420   33.0290   39.3470 C   0  0  0  0  0  0  0  0  0  0  0  0
   36.9368   29.1738   37.7096 H   0  0  0  0  0  0  0  0  0  0  0  0
   37.7591   30.7827   37.4523 H   0  0  0  0  0  0  0  0  0  0  0  0
   38.9178   28.0362   37.6060 H   0  0  0  0  0  0  0  0  0  0  0  0
   39.1349   29.3623   36.3795 H   0  0  0  0  0  0  0  0  0  0  0  0
   40.8862   31.2490   38.9147 H   0  0  0  0  0  0  0  0  0  0  0  0
   39.5386   31.4116   37.6989 H   0  0  0  0  0  0  0  0  0  0  0  0
   39.1361   30.4627   40.6661 H   0  0  0  0  0  0  0  0  0  0  0  0
   34.7132   28.8412   40.5432 H   0  0  0  0  0  0  0  0  0  0  0  0
   35.4147   31.4375   41.4271 H   0  0  0  0  0  0  0  0  0  0  0  0
   36.6989   30.9100   42.1520 H   0  0  0  0  0  0  0  0  0  0  0  0
   36.4812   30.8987   38.9390 H   0  0  0  0  0  0  0  0  0  0  0  0
   37.7666   26.9878   43.9686 H   0  0  0  0  0  0  0  0  0  0  0  0
   38.0278   24.9273   42.4962 H   0  0  0  0  0  0  0  0  0  0  0  0
   37.1424   25.0548   40.0977 H   0  0  0  0  0  0  0  0  0  0  0  0
   38.5079   32.4227   40.9503 H   0  0  0  0  0  0  0  0  0  0  0  0
   36.7382   32.5350   39.1770 H   0  0  0  0  0  0  0  0  0  0  0  0
   37.9673   33.0789   38.0155 H   0  0  0  0  0  0  0  0  0  0  0  0
   37.4883   35.1777   38.8192 H   0  0  0  0  0  0  0  0  0  0  0  0
   36.7273   34.4822   40.3294 H   0  0  0  0  0  0  0  0  0  0  0  0
   38.7741   35.9771   40.5438 H   0  0  0  0  0  0  0  0  0  0  0  0
   38.6768   34.3734   41.4353 H   0  0  0  0  0  0  0  0  0  0  0  0
   40.3792   35.1467   39.0937 H   0  0  0  0  0  0  0  0  0  0  0  0
   40.8407   34.4835   40.7150 H   0  0  0  0  0  0  0  0  0  0  0  0
   40.9254   32.4650   39.6808 H   0  0  0  0  0  0  0  0  0  0  0  0
   40.0321   33.0515   38.2473 H   0  0  0  0  0  0  0  0  0  0  0  0
  1  2  1  0
  1  6  1  0
  1  9  1  0
  3  2  1  0
  3  4  1  0
  4  5  1  0
  5  6  1  0
  6 16  1  0
  7 14  1  0
  7  8  1  0
  9  7  1  0
  9  8  1  0
 11 10  2  0
 12 11  1  0
 13 12  2  0
 13 14  1  0
 14 15  2  0
 15 10  1  0
 17 18  1  0
 17 16  1  0
 18 19  1  0
 20 19  1  0
 21 16  1  0
 21 20  1  0
  2 22  1  0
  2 23  1  0
  3 24  1  0
  3 25  1  0
  5 26  1  0
  5 27  1  0
  6 28  1  1
  7 29  1  6
  8 30  1  0
  8 31  1  0
  9 32  1  6
 10 33  1  0
 11 34  1  0
 12 35  1  0
 16 36  1  0
 17 37  1  0
 17 38  1  0
 18 39  1  0
 18 40  1  0
 19 41  1  0
 19 42  1  0
 20 43  1  0
 20 44  1  0
 21 45  1  0
 21 46  1  0
M  ISO  8  22  13  23  13  24  13  25  13  26  13  27  13  28  13  29  13
M  ISO  8  30  13  31  13  32  13  33  14  34  14  35  14  36  13  37  13
M  ISO  8  38  13  39  13  40  13  41  13  42  13  43  13  44  13  45  13
M  ISO  1  46  13
M  END
>  <minimizedAffinity>  (1) 
-5.13977385

>  <minimizedRMSD>  (1) 
1.65438771

$$$$
