
     RDKit          3D

 40 43  0  0  1  0  0  0  0  0999 V2000
   37.9250   29.9630   39.2290 N   0  0  0  0  0  0  0  0  0  0  0  0
   37.9500   29.7740   37.7520 C   0  0  0  0  0  0  0  0  0  0  0  0
   39.1950   29.0680   37.3170 C   0  0  0  0  0  0  0  0  0  0  0  0
   40.3140   29.5560   37.9920 O   0  0  0  0  0  0  0  0  0  0  0  0
   40.0190   30.8450   38.3750 C   0  0  0  0  0  0  0  0  0  0  0  0
   38.9820   30.8480   39.5330 C   0  0  2  0  0  0  0  0  0  0  0  0
   39.8600   30.5020   40.6730 C   0  0  0  0  0  0  0  0  0  0  0  0
   40.3280   29.2040   40.7730 C   0  0  0  0  0  0  0  0  0  0  0  0
   41.1700   28.7350   41.7890 C   0  0  0  0  0  0  0  0  0  0  0  0
   41.5350   29.6890   42.7460 C   0  0  0  0  0  0  0  0  0  0  0  0
   41.0800   30.9880   42.6630 C   0  0  0  0  0  0  0  0  0  0  0  0
   40.2490   31.4070   41.6410 C   0  0  0  0  0  0  0  0  0  0  0  0
   35.8920   29.6390   40.8050 C   0  0  1  0  0  0  0  0  0  0  0  0
   36.2440   31.0720   40.8380 C   0  0  0  0  0  0  0  0  0  0  0  0
   36.6160   30.3280   39.6280 C   0  0  1  0  0  0  0  0  0  0  0  0
   37.9980   28.4620   43.5590 C   0  0  0  0  0  0  0  0  0  0  0  0
   38.1710   27.0760   43.2720 C   0  0  0  0  0  0  0  0  0  0  0  0
   37.5460   26.5950   42.1060 C   0  0  0  0  0  0  0  0  0  0  0  0
   36.8140   27.4600   41.3120 N   0  0  0  0  0  0  0  0  0  0  0  0
   36.7020   28.7450   41.6540 C   0  0  0  0  0  0  0  0  0  0  0  0
   37.2800   29.2420   42.7560 N   0  0  0  0  0  0  0  0  0  0  0  0
   37.0759   29.1774   37.4520 H   0  0  0  0  0  0  0  0  0  0  0  0
   37.9267   30.7645   37.2741 H   0  0  0  0  0  0  0  0  0  0  0  0
   39.0899   27.9933   37.5268 H   0  0  0  0  0  0  0  0  0  0  0  0
   39.3352   29.2412   36.2398 H   0  0  0  0  0  0  0  0  0  0  0  0
   40.9404   31.3414   38.7136 H   0  0  0  0  0  0  0  0  0  0  0  0
   39.5917   31.3815   37.5150 H   0  0  0  0  0  0  0  0  0  0  0  0
   38.4307   31.7776   39.7377 H   0  0  0  0  0  0  0  0  0  0  0  0
   40.0161   28.4883   39.9981 H   0  0  0  0  0  0  0  0  0  0  0  0
   41.5191   27.6928   41.8318 H   0  0  0  0  0  0  0  0  0  0  0  0
   42.1947   29.3981   43.5768 H   0  0  0  0  0  0  0  0  0  0  0  0
   41.3872   31.7117   43.4323 H   0  0  0  0  0  0  0  0  0  0  0  0
   39.9013   32.4498   41.5991 H   0  0  0  0  0  0  0  0  0  0  0  0
   34.9734   29.0460   40.9252 H   0  0  0  0  0  0  0  0  0  0  0  0
   35.4452   31.8264   40.7848 H   0  0  0  0  0  0  0  0  0  0  0  0
   36.8067   31.6983   41.5459 H   0  0  0  0  0  0  0  0  0  0  0  0
   36.4495   30.4905   38.5529 H   0  0  0  0  0  0  0  0  0  0  0  0
   38.4650   28.8921   44.4573 H   0  0  0  0  0  0  0  0  0  0  0  0
   38.7612   26.4179   43.9267 H   0  0  0  0  0  0  0  0  0  0  0  0
   37.6392   25.5351   41.8270 H   0  0  0  0  0  0  0  0  0  0  0  0
  1  2  1  0
  1  6  1  0
  1 15  1  0
  3  2  1  0
  3  4  1  0
  4  5  1  0
  5  6  1  0
  6  7  1  0
  7  8  2  0
  7 12  1  0
  8  9  1  0
  9 10  2  0
 11 10  1  0
 12 11  2  0
 13 14  1  0
 13 20  1  0
 15 13  1  0
 15 14  1  0
 17 16  2  0
 18 17  1  0
 19 20  1  0
 19 18  2  0
 20 21  2  0
 21 16  1  0
  2 22  1  0
  2 23  1  0
  3 24  1  0
  3 25  1  0
  5 26  1  0
  5 27  1  0
  6 28  1  1
  8 29  1  0
  9 30  1  0
 10 31  1  0
 11 32  1  0
 12 33  1  0
 13 34  1  6
 14 35  1  0
 14 36  1  0
 15 37  1  6
 16 38  1  0
 17 39  1  0
 18 40  1  0
M  ISO  8  22  13  23  13  24  13  25  13  26  13  27  13  28  13  29  14
M  ISO  8  30  14  31  14  32  14  33  14  34  13  35  13  36  13  37  13
M  ISO  3  38  14  39  14  40  14
M  END
>  <minimizedAffinity>  (1) 
-4.72026253

>  <minimizedRMSD>  (1) 
1.03201771

$$$$
