
     RDKit          3D

 37 40  0  0  1  0  0  0  0  0999 V2000
   37.7560   30.0080   39.3040 N   0  0  0  0  0  0  0  0  0  0  0  0
   37.6290   29.8450   37.8330 C   0  0  0  0  0  0  0  0  0  0  0  0
   38.7990   29.1020   37.2580 C   0  0  0  0  0  0  0  0  0  0  0  0
   39.9970   29.5520   37.7980 O   0  0  0  0  0  0  0  0  0  0  0  0
   39.8070   30.8250   38.2710 C   0  0  0  0  0  0  0  0  0  0  0  0
   38.8740   30.8580   39.5010 C   0  0  1  0  0  0  0  0  0  0  0  0
   35.6350   29.4090   40.6600 C   0  0  1  0  0  0  0  0  0  0  0  0
   36.2330   30.6100   41.2820 C   0  0  0  0  0  0  0  0  0  0  0  0
   36.5290   30.3870   39.8630 C   0  0  1  0  0  0  0  0  0  0  0  0
   37.1780   26.7430   42.6750 C   0  0  0  0  0  0  0  0  0  0  0  0
   37.3190   25.6840   41.7360 C   0  0  0  0  0  0  0  0  0  0  0  0
   36.8800   25.9340   40.4030 C   0  0  0  0  0  0  0  0  0  0  0  0
   36.3450   27.1750   40.0940 N   0  0  0  0  0  0  0  0  0  0  0  0
   36.2480   28.1120   41.0390 C   0  0  0  0  0  0  0  0  0  0  0  0
   36.6510   27.9240   42.3160 N   0  0  0  0  0  0  0  0  0  0  0  0
   38.5550   32.2520   39.7460 N   0  0  0  0  0  0  0  0  0  0  0  0
   39.1150   33.0100   40.7360 C   0  0  0  0  0  0  0  0  0  0  0  0
   38.6020   34.2760   40.6940 C   0  0  0  0  0  0  0  0  0  0  0  0
   37.7230   34.3160   39.6830 N   0  0  0  0  0  0  0  0  0  0  0  0
   37.7160   33.0890   39.1340 C   0  0  0  0  0  0  0  0  0  0  0  0
   36.7077   29.2854   37.6138 H   0  0  0  0  0  0  0  0  0  0  0  0
   37.5980   30.8454   37.3767 H   0  0  0  0  0  0  0  0  0  0  0  0
   38.8183   29.2519   36.1684 H   0  0  0  0  0  0  0  0  0  0  0  0
   38.6870   28.0353   37.5020 H   0  0  0  0  0  0  0  0  0  0  0  0
   40.7825   31.2464   38.5551 H   0  0  0  0  0  0  0  0  0  0  0  0
   39.3331   31.4144   37.4722 H   0  0  0  0  0  0  0  0  0  0  0  0
   39.3514   30.4561   40.4069 H   0  0  0  0  0  0  0  0  0  0  0  0
   34.6225   28.9951   40.5435 H   0  0  0  0  0  0  0  0  0  0  0  0
   35.5831   31.4483   41.5734 H   0  0  0  0  0  0  0  0  0  0  0  0
   36.8609   30.7699   42.1709 H   0  0  0  0  0  0  0  0  0  0  0  0
   36.4491   31.0119   38.9612 H   0  0  0  0  0  0  0  0  0  0  0  0
   37.5067   26.5914   43.7137 H   0  0  0  0  0  0  0  0  0  0  0  0
   37.7484   24.7137   42.0260 H   0  0  0  0  0  0  0  0  0  0  0  0
   36.9644   25.1544   39.6316 H   0  0  0  0  0  0  0  0  0  0  0  0
   39.8653   32.6547   41.4576 H   0  0  0  0  0  0  0  0  0  0  0  0
   38.8622   35.1077   41.3653 H   0  0  0  0  0  0  0  0  0  0  0  0
   37.0884   32.8067   38.2758 H   0  0  0  0  0  0  0  0  0  0  0  0
  1  2  1  0
  1  6  1  0
  1  9  1  0
  3  4  1  0
  3  2  1  0
  4  5  1  0
  5  6  1  0
  6 16  1  0
  7 14  1  0
  7  8  1  0
  9  7  1  0
  9  8  1  0
 11 10  2  0
 12 11  1  0
 13 12  2  0
 13 14  1  0
 14 15  2  0
 15 10  1  0
 16 17  1  0
 18 17  2  0
 19 18  1  0
 20 19  2  0
 20 16  1  0
  2 21  1  0
  2 22  1  0
  3 23  1  0
  3 24  1  0
  5 25  1  0
  5 26  1  0
  6 27  1  1
  7 28  1  6
  8 29  1  0
  8 30  1  0
  9 31  1  6
 10 32  1  0
 11 33  1  0
 12 34  1  0
 17 35  1  0
 18 36  1  0
 20 37  1  0
M  ISO  8  21  13  22  13  23  13  24  13  25  13  26  13  27  13  28  13
M  ISO  8  29  13  30  13  31  13  32  14  33  14  34  14  35  14  36  14
M  ISO  1  37  14
M  END
>  <minimizedAffinity>  (1) 
-4.66230965

>  <minimizedRMSD>  (1) 
1.66490459

$$$$
