
     RDKit          3D

 36 38  0  0  1  0  0  0  0  0999 V2000
   36.2490   30.7540   41.1120 C   0  0  1  0  0  0  0  0  0  0  0  0
   37.1460   31.7340   40.4620 C   0  0  0  0  0  0  0  0  0  0  0  0
   36.4280   30.8070   39.5800 C   0  0  1  0  0  0  0  0  0  0  0  0
   37.0060   29.7430   38.8480 N   0  0  0  0  0  0  0  0  0  0  0  0
   35.9040   28.9130   38.2710 C   0  0  0  0  0  0  0  0  0  0  0  0
   36.4050   27.5970   37.7700 C   0  0  0  0  0  0  0  0  0  0  0  0
   37.6260   27.7370   37.1130 O   0  0  0  0  0  0  0  0  0  0  0  0
   37.6630   29.0330   36.6430 C   0  0  0  0  0  0  0  0  0  0  0  0
   37.8700   30.0450   37.7970 C   0  0  2  0  0  0  0  0  0  0  0  0
   39.3280   30.0930   37.9380 C   0  0  0  0  0  0  0  0  0  0  0  0
   39.9050   31.4890   37.8530 C   0  0  0  0  0  0  0  0  0  0  0  0
   38.7490   28.8530   43.0210 C   0  0  0  0  0  0  0  0  0  0  0  0
   38.1350   27.5930   43.1720 C   0  0  0  0  0  0  0  0  0  0  0  0
   36.8620   27.4140   42.5990 C   0  0  0  0  0  0  0  0  0  0  0  0
   36.2810   28.4720   41.9240 N   0  0  0  0  0  0  0  0  0  0  0  0
   36.9220   29.6430   41.8190 C   0  0  0  0  0  0  0  0  0  0  0  0
   38.1250   29.8240   42.3550 N   0  0  0  0  0  0  0  0  0  0  0  0
   35.3949   30.7934   41.8040 H   0  0  0  0  0  0  0  0  0  0  0  0
   36.8742   32.7999   40.4630 H   0  0  0  0  0  0  0  0  0  0  0  0
   38.2079   31.9913   40.5891 H   0  0  0  0  0  0  0  0  0  0  0  0
   35.7859   30.9339   38.6959 H   0  0  0  0  0  0  0  0  0  0  0  0
   35.1483   28.7333   39.0498 H   0  0  0  0  0  0  0  0  0  0  0  0
   35.4723   29.4610   37.4205 H   0  0  0  0  0  0  0  0  0  0  0  0
   36.5332   26.9142   38.6228 H   0  0  0  0  0  0  0  0  0  0  0  0
   35.6708   27.1948   37.0564 H   0  0  0  0  0  0  0  0  0  0  0  0
   38.4927   29.1310   35.9275 H   0  0  0  0  0  0  0  0  0  0  0  0
   36.7012   29.2533   36.1567 H   0  0  0  0  0  0  0  0  0  0  0  0
   37.5677   31.0944   37.6651 H   0  0  0  0  0  0  0  0  0  0  0  0
   39.5959   29.6661   38.9158 H   0  0  0  0  0  0  0  0  0  0  0  0
   39.7496   29.5209   37.0984 H   0  0  0  0  0  0  0  0  0  0  0  0
   40.0671   31.8812   38.8679 H   0  0  0  0  0  0  0  0  0  0  0  0
   40.8637   31.4573   37.3147 H   0  0  0  0  0  0  0  0  0  0  0  0
   39.2037   32.1435   37.3147 H   0  0  0  0  0  0  0  0  0  0  0  0
   39.7440   29.0348   43.4533 H   0  0  0  0  0  0  0  0  0  0  0  0
   38.6332   26.7786   43.7183 H   0  0  0  0  0  0  0  0  0  0  0  0
   36.3388   26.4503   42.6865 H   0  0  0  0  0  0  0  0  0  0  0  0
  1 16  1  0
  2  1  1  0
  3  2  1  0
  3  1  1  0
  4  5  1  0
  4  3  1  0
  6  5  1  0
  7  6  1  0
  8  7  1  0
  8  9  1  0
  9 10  1  0
  9  4  1  0
 11 10  1  0
 12 13  2  0
 14 13  1  0
 15 14  2  0
 16 15  1  0
 16 17  2  0
 17 12  1  0
  1 18  1  6
  2 19  1  0
  2 20  1  0
  3 21  1  6
  5 22  1  0
  5 23  1  0
  6 24  1  0
  6 25  1  0
  8 26  1  0
  8 27  1  0
  9 28  1  6
 10 29  1  0
 10 30  1  0
 11 31  1  0
 11 32  1  0
 11 33  1  0
 12 34  1  0
 13 35  1  0
 14 36  1  0
M  ISO  8  18  13  19  13  20  13  21  13  22  13  23  13  24  13  25  13
M  ISO  8  26  13  27  13  28  13  29   8  30   8  31   8  32   8  33   8
M  ISO  3  34  14  35  14  36  14
M  END
>  <minimizedAffinity>  (1) 
-4.06814718

>  <minimizedRMSD>  (1) 
1.66696084

$$$$
