
     RDKit          3D

 24 26  0  0  0  0  0  0  0  0999 V2000
   37.5030   28.9320   42.2710 C   0  0  0  0  0  0  0  0  0  0  0  0
   37.5120   28.7020   43.6320 C   0  0  0  0  0  0  0  0  0  0  0  0
   37.3380   27.3860   43.8600 N   0  0  0  0  0  0  0  0  0  0  0  0
   37.2130   26.7320   42.6940 C   0  0  0  0  0  0  0  0  0  0  0  0
   37.0160   25.3920   42.3570 C   0  0  0  0  0  0  0  0  0  0  0  0
   36.9220   24.9900   41.0260 C   0  0  0  0  0  0  0  0  0  0  0  0
   37.0280   25.9740   40.0590 C   0  0  0  0  0  0  0  0  0  0  0  0
   37.2200   27.2890   40.3910 C   0  0  0  0  0  0  0  0  0  0  0  0
   37.3150   27.6920   41.7010 C   0  0  0  0  0  0  0  0  0  0  0  0
   39.0620   32.0640   40.9660 C   0  0  0  0  0  0  0  0  0  0  0  0
   38.9070   30.8300   41.6390 C   0  0  0  0  0  0  0  0  0  0  0  0
   37.6570   30.1920   41.5820 C   0  0  0  0  0  0  0  0  0  0  0  0
   36.6680   30.8120   40.8740 N   0  0  0  0  0  0  0  0  0  0  0  0
   36.8390   31.9850   40.2420 C   0  0  0  0  0  0  0  0  0  0  0  0
   38.0400   32.6160   40.2860 N   0  0  0  0  0  0  0  0  0  0  0  0
   37.6408   29.4715   44.4074 H   0  0  0  0  0  0  0  0  0  0  0  0
   37.3056   26.9464   44.7909 H   0  0  0  0  0  0  0  0  0  0  0  0
   36.9335   24.6403   43.1558 H   0  0  0  0  0  0  0  0  0  0  0  0
   36.7699   23.9347   40.7555 H   0  0  0  0  0  0  0  0  0  0  0  0
   36.9563   25.6934   38.9978 H   0  0  0  0  0  0  0  0  0  0  0  0
   37.2999   28.0393   39.5906 H   0  0  0  0  0  0  0  0  0  0  0  0
   40.0326   32.5806   40.9987 H   0  0  0  0  0  0  0  0  0  0  0  0
   39.7444   30.3810   42.1933 H   0  0  0  0  0  0  0  0  0  0  0  0
   36.0030   32.4356   39.6870 H   0  0  0  0  0  0  0  0  0  0  0  0
  1  2  2  0
  2  3  1  0
  4  3  1  0
  5  4  2  0
  6  5  1  0
  7  8  1  0
  7  6  2  0
  8  9  2  0
  9  1  1  0
  9  4  1  0
 10 11  2  0
 12 11  1  0
 12  1  1  0
 13 12  2  0
 14 15  2  0
 14 13  1  0
 15 10  1  0
  2 16  1  0
  3 17  1  0
  5 18  1  0
  6 19  1  0
  7 20  1  0
  8 21  1  0
 10 22  1  0
 11 23  1  0
 14 24  1  0
M  ISO  8  16  14  17   9  18  14  19  14  20  14  21  14  22  14  23  14
M  ISO  1  24  14
M  END
>  <minimizedAffinity>  (1) 
-4.64741325

>  <minimizedRMSD>  (1) 
3.35132194

$$$$
