
     RDKit          3D

 27 29  0  0  0  0  0  0  0  0999 V2000
   38.0830   29.2130   42.3110 C   0  0  0  0  0  0  0  0  0  0  0  0
   37.0240   28.4300   42.7480 C   0  0  0  0  0  0  0  0  0  0  0  0
   37.5060   27.3810   43.4410 N   0  0  0  0  0  0  0  0  0  0  0  0
   38.8490   27.4330   43.4850 C   0  0  0  0  0  0  0  0  0  0  0  0
   39.8320   26.6250   44.0540 C   0  0  0  0  0  0  0  0  0  0  0  0
   41.1920   26.9450   43.9280 C   0  0  0  0  0  0  0  0  0  0  0  0
   41.5070   28.0820   43.2240 C   0  0  0  0  0  0  0  0  0  0  0  0
   40.5400   28.8710   42.6680 C   0  0  0  0  0  0  0  0  0  0  0  0
   39.2110   28.5790   42.7780 C   0  0  0  0  0  0  0  0  0  0  0  0
   36.7660   31.9430   40.1470 C   0  0  0  0  0  0  0  0  0  0  0  0
   36.8110   30.7440   40.9050 C   0  0  0  0  0  0  0  0  0  0  0  0
   38.0200   30.4240   41.5390 C   0  0  0  0  0  0  0  0  0  0  0  0
   39.0740   31.2920   41.3820 N   0  0  0  0  0  0  0  0  0  0  0  0
   38.9900   32.4170   40.6560 C   0  0  0  0  0  0  0  0  0  0  0  0
   37.8420   32.7540   40.0330 N   0  0  0  0  0  0  0  0  0  0  0  0
   40.1600   33.3240   40.5170 C   0  0  0  0  0  0  0  0  0  0  0  0
   39.8020   34.6010   40.9560 F   0  0  0  0  0  0  0  0  0  0  0  0
   41.2420   32.8870   41.2570 F   0  0  0  0  0  0  0  0  0  0  0  0
   40.5340   33.3600   39.1910 F   0  0  0  0  0  0  0  0  0  0  0  0
   35.9598   28.6339   42.5584 H   0  0  0  0  0  0  0  0  0  0  0  0
   36.9297   26.6455   43.8745 H   0  0  0  0  0  0  0  0  0  0  0  0
   39.5369   25.7230   44.6101 H   0  0  0  0  0  0  0  0  0  0  0  0
   41.9734   26.3122   44.3741 H   0  0  0  0  0  0  0  0  0  0  0  0
   42.5636   28.3640   43.1051 H   0  0  0  0  0  0  0  0  0  0  0  0
   40.8424   29.7715   42.1133 H   0  0  0  0  0  0  0  0  0  0  0  0
   35.8307   32.2200   39.6386 H   0  0  0  0  0  0  0  0  0  0  0  0
   35.9306   30.0903   40.9919 H   0  0  0  0  0  0  0  0  0  0  0  0
  1  2  2  0
  1  9  1  0
  2  3  1  0
  3  4  1  0
  4  5  2  0
  6  5  1  0
  7  6  2  0
  8  9  2  0
  8  7  1  0
  9  4  1  0
 10 11  2  0
 11 12  1  0
 12  1  1  0
 13 12  2  0
 14 13  1  0
 15 10  1  0
 15 14  2  0
 16 14  1  0
 16 17  1  0
 16 18  1  0
 19 16  1  0
  2 20  1  0
  3 21  1  0
  5 22  1  0
  6 23  1  0
  7 24  1  0
  8 25  1  0
 10 26  1  0
 11 27  1  0
M  ISO  8  20  14  21   9  22  14  23  14  24  14  25  14  26  14  27  14
M  END
>  <minimizedAffinity>  (1) 
-5.36958981

>  <minimizedRMSD>  (1) 
3.63388038

$$$$
