
     RDKit          3D

 33 35  0  0  0  0  0  0  0  0999 V2000
   37.5910   28.9560   42.1900 C   0  0  0  0  0  0  0  0  0  0  0  0
   37.5790   28.7760   43.5500 C   0  0  0  0  0  0  0  0  0  0  0  0
   37.3740   27.4720   43.8240 N   0  0  0  0  0  0  0  0  0  0  0  0
   37.2490   26.7770   42.6850 C   0  0  0  0  0  0  0  0  0  0  0  0
   37.0310   25.4290   42.3910 C   0  0  0  0  0  0  0  0  0  0  0  0
   36.9430   24.9840   41.0820 C   0  0  0  0  0  0  0  0  0  0  0  0
   37.0800   25.9240   40.0880 C   0  0  0  0  0  0  0  0  0  0  0  0
   37.2950   27.2430   40.3650 C   0  0  0  0  0  0  0  0  0  0  0  0
   37.3820   27.6940   41.6670 C   0  0  0  0  0  0  0  0  0  0  0  0
   36.7920   32.0290   40.2110 C   0  0  0  0  0  0  0  0  0  0  0  0
   36.6320   30.8320   40.9410 C   0  0  0  0  0  0  0  0  0  0  0  0
   37.7760   30.1750   41.4480 C   0  0  0  0  0  0  0  0  0  0  0  0
   38.9730   30.7560   41.1900 N   0  0  0  0  0  0  0  0  0  0  0  0
   39.1060   31.9020   40.4900 C   0  0  0  0  0  0  0  0  0  0  0  0
   38.0240   32.5390   40.0000 N   0  0  0  0  0  0  0  0  0  0  0  0
   40.4580   32.4650   40.2550 C   0  0  0  0  0  0  0  0  0  0  0  0
   41.3940   32.0040   41.3790 C   0  0  0  0  0  0  0  0  0  0  0  0
   40.3530   33.9700   40.3800 C   0  0  0  0  0  0  0  0  0  0  0  0
   37.7152   29.5703   44.2987 H   0  0  0  0  0  0  0  0  0  0  0  0
   37.3212   27.0689   44.7704 H   0  0  0  0  0  0  0  0  0  0  0  0
   36.9272   24.7071   43.2144 H   0  0  0  0  0  0  0  0  0  0  0  0
   36.7707   23.9231   40.8477 H   0  0  0  0  0  0  0  0  0  0  0  0
   37.0143   25.6033   39.0378 H   0  0  0  0  0  0  0  0  0  0  0  0
   37.4008   27.9590   39.5367 H   0  0  0  0  0  0  0  0  0  0  0  0
   35.9086   32.5490   39.8120 H   0  0  0  0  0  0  0  0  0  0  0  0
   35.6287   30.4152   41.1134 H   0  0  0  0  0  0  0  0  0  0  0  0
   40.8325   32.1476   39.2706 H   0  0  0  0  0  0  0  0  0  0  0  0
   40.9359   32.2296   42.3533 H   0  0  0  0  0  0  0  0  0  0  0  0
   41.5619   30.9201   41.2950 H   0  0  0  0  0  0  0  0  0  0  0  0
   42.3556   32.5316   41.2950 H   0  0  0  0  0  0  0  0  0  0  0  0
   40.3335   34.2491   41.4438 H   0  0  0  0  0  0  0  0  0  0  0  0
   41.2206   34.4398   39.8935 H   0  0  0  0  0  0  0  0  0  0  0  0
   39.4286   34.3147   39.8935 H   0  0  0  0  0  0  0  0  0  0  0  0
  1  2  2  0
  2  3  1  0
  4  3  1  0
  5  4  2  0
  6  5  1  0
  7  8  1  0
  7  6  2  0
  8  9  2  0
  9  1  1  0
  9  4  1  0
 10 11  2  0
 11 12  1  0
 12  1  1  0
 13 12  2  0
 14 13  1  0
 15 10  1  0
 15 14  2  0
 16 18  1  0
 16 14  1  0
 16 17  1  0
  2 19  1  0
  3 20  1  0
  5 21  1  0
  6 22  1  0
  7 23  1  0
  8 24  1  0
 10 25  1  0
 11 26  1  0
 16 27  1  0
 17 28  1  0
 17 29  1  0
 17 30  1  0
 18 31  1  0
 18 32  1  0
 18 33  1  0
M  ISO  8  19  14  20   9  21  14  22  14  23  14  24  14  25  14  26  14
M  ISO  7  27   8  28   8  29   8  30   8  31   8  32   8  33   8
M  END
>  <minimizedAffinity>  (1) 
-4.99254608

>  <minimizedRMSD>  (1) 
2.48422265

$$$$
