
     RDKit          3D

 26 28  0  0  0  0  0  0  0  0999 V2000
   37.7540   28.8630   42.4430 C   0  0  0  0  0  0  0  0  0  0  0  0
   37.3800   28.6280   43.7600 C   0  0  0  0  0  0  0  0  0  0  0  0
   36.9930   27.3450   43.8850 N   0  0  0  0  0  0  0  0  0  0  0  0
   37.0960   26.7200   42.7060 C   0  0  0  0  0  0  0  0  0  0  0  0
   36.8330   25.4200   42.2850 C   0  0  0  0  0  0  0  0  0  0  0  0
   37.0390   25.0370   40.9540 C   0  0  0  0  0  0  0  0  0  0  0  0
   37.5100   26.0000   40.0910 C   0  0  0  0  0  0  0  0  0  0  0  0
   37.7710   27.2810   40.4970 C   0  0  0  0  0  0  0  0  0  0  0  0
   37.5690   27.6640   41.8090 C   0  0  0  0  0  0  0  0  0  0  0  0
   39.9900   31.7540   41.6820 C   0  0  0  0  0  0  0  0  0  0  0  0
   39.5130   30.5450   42.2410 C   0  0  0  0  0  0  0  0  0  0  0  0
   38.2310   30.0930   41.8700 C   0  0  0  0  0  0  0  0  0  0  0  0
   37.5350   30.8640   40.9880 N   0  0  0  0  0  0  0  0  0  0  0  0
   38.0120   32.0040   40.4750 C   0  0  0  0  0  0  0  0  0  0  0  0
   39.2340   32.4660   40.8090 N   0  0  0  0  0  0  0  0  0  0  0  0
   37.1910   32.7590   39.5380 C   0  0  0  0  0  0  0  0  0  0  0  0
   37.2460   34.0290   39.5720 O   0  0  0  0  0  0  0  0  0  0  0  0
   37.3973   29.3713   44.5707 H   0  0  0  0  0  0  0  0  0  0  0  0
   36.6659   26.9087   44.7588 H   0  0  0  0  0  0  0  0  0  0  0  0
   36.4575   24.6819   43.0090 H   0  0  0  0  0  0  0  0  0  0  0  0
   36.8334   24.0115   40.6132 H   0  0  0  0  0  0  0  0  0  0  0  0
   37.6827   25.7310   39.0385 H   0  0  0  0  0  0  0  0  0  0  0  0
   38.1465   28.0152   39.7690 H   0  0  0  0  0  0  0  0  0  0  0  0
   40.9888   32.1222   41.9594 H   0  0  0  0  0  0  0  0  0  0  0  0
   40.1288   29.9710   42.9490 H   0  0  0  0  0  0  0  0  0  0  0  0
   36.5389   32.2428   38.8181 H   0  0  0  0  0  0  0  0  0  0  0  0
  1  2  2  0
  2  3  1  0
  4  3  1  0
  5  4  2  0
  6  5  1  0
  7  8  1  0
  7  6  2  0
  8  9  2  0
  9  1  1  0
  9  4  1  0
 10 11  2  0
 12 11  1  0
 12  1  1  0
 13 12  2  0
 14 15  2  0
 14 13  1  0
 15 10  1  0
 16 17  2  0
 16 14  1  0
  2 18  1  0
  3 19  1  0
  5 20  1  0
  6 21  1  0
  7 22  1  0
  8 23  1  0
 10 24  1  0
 11 25  1  0
 16 26  1  0
M  ISO  8  18  14  19   9  20  14  21  14  22  14  23  14  24  14  25  14
M  ISO  1  26   6
M  END
>  <minimizedAffinity>  (1) 
-4.84338808

>  <minimizedRMSD>  (1) 
0.841057956

$$$$
