
     RDKit          3D

 22 24  0  0  0  0  0  0  0  0999 V2000
   36.9040   26.9120   41.5050 C   0  0  0  0  0  0  0  0  0  0  0  0
   36.8760   25.9860   40.4440 C   0  0  0  0  0  0  0  0  0  0  0  0
   37.0180   24.7720   41.1070 C   0  0  0  0  0  0  0  0  0  0  0  0
   37.1230   24.9370   42.4330 N   0  0  0  0  0  0  0  0  0  0  0  0
   37.0520   26.2370   42.6640 N   0  0  0  0  0  0  0  0  0  0  0  0
   37.8140   29.2430   41.6390 C   0  0  0  0  0  0  0  0  0  0  0  0
   36.7850   28.3430   41.2800 C   0  0  0  0  0  0  0  0  0  0  0  0
   35.6420   28.8590   40.7010 C   0  0  0  0  0  0  0  0  0  0  0  0
   35.5520   30.2110   40.4990 N   0  0  0  0  0  0  0  0  0  0  0  0
   36.5740   31.0450   40.8630 C   0  0  0  0  0  0  0  0  0  0  0  0
   37.6930   30.5500   41.4290 N   0  0  0  0  0  0  0  0  0  0  0  0
   37.0500   23.4730   40.4350 C   0  0  0  0  0  0  0  0  0  0  0  0
   36.1180   23.0090   39.5810 N   0  0  0  0  0  0  0  0  0  0  0  0
   36.4400   21.8260   39.1590 O   0  0  0  0  0  0  0  0  0  0  0  0
   37.5710   21.4760   39.7080 C   0  0  0  0  0  0  0  0  0  0  0  0
   37.9670   22.5040   40.5140 N   0  0  0  0  0  0  0  0  0  0  0  0
   36.7690   26.1750   39.3657 H   0  0  0  0  0  0  0  0  0  0  0  0
   37.2371   24.1938   43.1369 H   0  0  0  0  0  0  0  0  0  0  0  0
   38.7332   28.8541   42.1014 H   0  0  0  0  0  0  0  0  0  0  0  0
   34.8165   28.1944   40.4065 H   0  0  0  0  0  0  0  0  0  0  0  0
   36.4818   32.1278   40.6925 H   0  0  0  0  0  0  0  0  0  0  0  0
   38.1062   20.5280   39.5504 H   0  0  0  0  0  0  0  0  0  0  0  0
  1  5  2  0
  2  3  2  0
  2  1  1  0
  3  4  1  0
  4  5  1  0
  7  1  1  0
  7  6  2  0
  8  7  1  0
  9  8  2  0
  9 10  1  0
 10 11  2  0
 11  6  1  0
 12 16  1  0
 12  3  1  0
 13 12  2  0
 14 13  1  0
 14 15  1  0
 15 16  2  0
  2 17  1  0
  4 18  1  0
  6 19  1  0
  8 20  1  0
 10 21  1  0
 15 22  1  0
M  ISO  6  17  14  18   9  19  14  20  14  21  14  22  14
M  END
>  <minimizedAffinity>  (1) 
-3.98710656

>  <minimizedRMSD>  (1) 
0.487493396

$$$$
