
     RDKit          3D

 31 34  0  0  0  0  0  0  0  0999 V2000
   38.4750   28.0580   42.2410 C   0  0  0  0  0  0  0  0  0  0  0  0
   39.4050   27.9030   43.2590 C   0  0  0  0  0  0  0  0  0  0  0  0
   39.5520   26.5860   43.5260 N   0  0  0  0  0  0  0  0  0  0  0  0
   38.7530   25.8600   42.7220 C   0  0  0  0  0  0  0  0  0  0  0  0
   38.5040   24.4970   42.5650 C   0  0  0  0  0  0  0  0  0  0  0  0
   37.5970   24.0240   41.6230 C   0  0  0  0  0  0  0  0  0  0  0  0
   36.9510   24.9660   40.8480 C   0  0  0  0  0  0  0  0  0  0  0  0
   37.1850   26.3040   40.9900 C   0  0  0  0  0  0  0  0  0  0  0  0
   38.0860   26.7750   41.9260 C   0  0  0  0  0  0  0  0  0  0  0  0
   36.1980   30.7760   41.0970 C   0  0  0  0  0  0  0  0  0  0  0  0
   36.6460   29.5760   41.6770 C   0  0  0  0  0  0  0  0  0  0  0  0
   38.0190   29.2900   41.6460 C   0  0  0  0  0  0  0  0  0  0  0  0
   38.8370   30.2020   41.0490 N   0  0  0  0  0  0  0  0  0  0  0  0
   38.3850   31.3450   40.5000 C   0  0  0  0  0  0  0  0  0  0  0  0
   37.0520   31.6370   40.5230 N   0  0  0  0  0  0  0  0  0  0  0  0
   39.3450   32.3020   39.8590 C   0  0  0  0  0  0  0  0  0  0  0  0
   39.6310   33.5960   40.5880 C   0  0  0  0  0  0  0  0  0  0  0  0
   40.6660   32.5270   40.5490 C   0  0  0  0  0  0  0  0  0  0  0  0
   39.9372   28.7206   43.7672 H   0  0  0  0  0  0  0  0  0  0  0  0
   40.1830   26.1952   44.2401 H   0  0  0  0  0  0  0  0  0  0  0  0
   39.0387   23.7776   43.2026 H   0  0  0  0  0  0  0  0  0  0  0  0
   37.4032   22.9481   41.5010 H   0  0  0  0  0  0  0  0  0  0  0  0
   36.2256   24.6287   40.0930 H   0  0  0  0  0  0  0  0  0  0  0  0
   36.6476   27.0183   40.3490 H   0  0  0  0  0  0  0  0  0  0  0  0
   35.1242   31.0140   41.1142 H   0  0  0  0  0  0  0  0  0  0  0  0
   35.9362   28.8776   42.1443 H   0  0  0  0  0  0  0  0  0  0  0  0
   39.0285   32.0292   38.8415 H   0  0  0  0  0  0  0  0  0  0  0  0
   39.7799   34.5256   40.0190 H   0  0  0  0  0  0  0  0  0  0  0  0
   39.1312   34.1636   41.3868 H   0  0  0  0  0  0  0  0  0  0  0  0
   40.9094   31.9660   41.4634 H   0  0  0  0  0  0  0  0  0  0  0  0
   41.7199   32.4810   40.2371 H   0  0  0  0  0  0  0  0  0  0  0  0
  1  2  2  0
  2  3  1  0
  4  3  1  0
  5  4  2  0
  6  5  1  0
  7  8  1  0
  7  6  2  0
  8  9  2  0
  9  1  1  0
  9  4  1  0
 10 11  2  0
 12 11  1  0
 12  1  1  0
 13 12  2  0
 14 15  2  0
 14 13  1  0
 15 10  1  0
 16 14  1  0
 16 18  1  0
 16 17  1  0
 18 17  1  0
  2 19  1  0
  3 20  1  0
  5 21  1  0
  6 22  1  0
  7 23  1  0
  8 24  1  0
 10 25  1  0
 11 26  1  0
 16 27  1  0
 17 28  1  0
 17 29  1  0
 18 30  1  0
 18 31  1  0
M  ISO  8  19  14  20   9  21  14  22  14  23  14  24  14  25  14  26  14
M  ISO  5  27  13  28  13  29  13  30  13  31  13
M  END
>  <minimizedAffinity>  (1) 
-4.94578314

>  <minimizedRMSD>  (1) 
2.56916165

$$$$
