
     RDKit          3D

 37 40  0  0  1  0  0  0  0  0999 V2000
   36.0760   30.7190   41.0030 C   0  0  0  0  0  0  0  0  0  0  0  0
   36.7360   29.6200   41.5850 C   0  0  0  0  0  0  0  0  0  0  0  0
   38.1280   29.6040   41.5820 C   0  0  0  0  0  0  0  0  0  0  0  0
   38.7660   30.6560   41.0160 N   0  0  0  0  0  0  0  0  0  0  0  0
   38.1090   31.7050   40.4610 C   0  0  0  0  0  0  0  0  0  0  0  0
   36.7580   31.7290   40.4580 N   0  0  0  0  0  0  0  0  0  0  0  0
   38.8170   28.4670   42.1710 C   0  0  0  0  0  0  0  0  0  0  0  0
   39.9920   28.4670   42.8940 C   0  0  0  0  0  0  0  0  0  0  0  0
   40.2790   27.1860   43.2490 N   0  0  0  0  0  0  0  0  0  0  0  0
   39.3370   26.3460   42.7870 C   0  0  0  0  0  0  0  0  0  0  0  0
   39.1470   24.9740   42.8590 C   0  0  0  0  0  0  0  0  0  0  0  0
   38.0500   24.3630   42.2670 C   0  0  0  0  0  0  0  0  0  0  0  0
   37.1610   25.1730   41.6080 C   0  0  0  0  0  0  0  0  0  0  0  0
   37.3370   26.5290   41.5290 C   0  0  0  0  0  0  0  0  0  0  0  0
   38.4190   27.1390   42.1120 C   0  0  0  0  0  0  0  0  0  0  0  0
   38.8890   32.8330   39.8650 C   0  0  1  0  0  0  0  0  0  0  0  0
   38.9000   34.1580   40.6250 C   0  0  0  0  0  0  0  0  0  0  0  0
   40.1270   33.3000   40.5510 C   0  0  2  0  0  0  0  0  0  0  0  0
   41.3290   33.7800   39.8050 C   0  0  0  0  0  0  0  0  0  0  0  0
   41.1850   35.2560   39.4300 C   0  0  0  0  0  0  0  0  0  0  0  0
   34.9763   30.7460   40.9972 H   0  0  0  0  0  0  0  0  0  0  0  0
   36.1648   28.7929   42.0319 H   0  0  0  0  0  0  0  0  0  0  0  0
   40.5947   29.3533   43.1415 H   0  0  0  0  0  0  0  0  0  0  0  0
   41.1035   26.8994   43.7958 H   0  0  0  0  0  0  0  0  0  0  0  0
   39.8815   24.3566   43.3969 H   0  0  0  0  0  0  0  0  0  0  0  0
   37.9001   23.2748   42.3241 H   0  0  0  0  0  0  0  0  0  0  0  0
   36.2805   24.7203   41.1287 H   0  0  0  0  0  0  0  0  0  0  0  0
   36.5983   27.1395   40.9889 H   0  0  0  0  0  0  0  0  0  0  0  0
   38.6502   32.5110   38.8407 H   0  0  0  0  0  0  0  0  0  0  0  0
   38.8575   35.1104   40.0762 H   0  0  0  0  0  0  0  0  0  0  0  0
   38.3020   34.6022   41.4344 H   0  0  0  0  0  0  0  0  0  0  0  0
   40.8048   32.8343   41.2815 H   0  0  0  0  0  0  0  0  0  0  0  0
   42.2197   33.6545   40.4381 H   0  0  0  0  0  0  0  0  0  0  0  0
   41.4281   33.1907   38.8815 H   0  0  0  0  0  0  0  0  0  0  0  0
   41.1258   35.8628   40.3456 H   0  0  0  0  0  0  0  0  0  0  0  0
   42.0567   35.5705   38.8374 H   0  0  0  0  0  0  0  0  0  0  0  0
   40.2689   35.3961   38.8374 H   0  0  0  0  0  0  0  0  0  0  0  0
  1  2  2  0
  3  2  1  0
  3  7  1  0
  4  3  2  0
  5  4  1  0
  6  5  2  0
  6  1  1  0
  7  8  2  0
  8  9  1  0
 10 11  2  0
 10  9  1  0
 12 11  1  0
 13 12  2  0
 14 13  1  0
 14 15  2  0
 15  7  1  0
 15 10  1  0
 16  5  1  0
 16 18  1  0
 16 17  1  0
 18 17  1  0
 19 18  1  0
 20 19  1  0
  1 21  1  0
  2 22  1  0
  8 23  1  0
  9 24  1  0
 11 25  1  0
 12 26  1  0
 13 27  1  0
 14 28  1  0
 16 29  1  6
 17 30  1  0
 17 31  1  0
 18 32  1  1
 19 33  1  0
 19 34  1  0
 20 35  1  0
 20 36  1  0
 20 37  1  0
M  ISO  8  21  14  22  14  23  14  24   9  25  14  26  14  27  14  28  14
M  ISO  8  29  13  30  13  31  13  32  13  33   8  34   8  35   8  36   8
M  ISO  1  37   8
M  END
>  <minimizedAffinity>  (1) 
-5.35742712

>  <minimizedRMSD>  (1) 
0.761560142

$$$$
