
     RDKit          3D

 32 35  0  0  1  0  0  0  0  0999 V2000
   36.1970   30.7730   41.0930 C   0  0  0  0  0  0  0  0  0  0  0  0
   36.6460   29.5820   41.6910 C   0  0  0  0  0  0  0  0  0  0  0  0
   38.0070   29.3000   41.6760 C   0  0  0  0  0  0  0  0  0  0  0  0
   38.8220   30.2050   41.0770 N   0  0  0  0  0  0  0  0  0  0  0  0
   38.3740   31.3390   40.5110 C   0  0  0  0  0  0  0  0  0  0  0  0
   37.0490   31.6200   40.5220 N   0  0  0  0  0  0  0  0  0  0  0  0
   38.4820   28.0660   42.2780 C   0  0  0  0  0  0  0  0  0  0  0  0
   39.4230   27.9140   43.2730 C   0  0  0  0  0  0  0  0  0  0  0  0
   39.5700   26.5830   43.5200 N   0  0  0  0  0  0  0  0  0  0  0  0
   38.7680   25.8690   42.7310 C   0  0  0  0  0  0  0  0  0  0  0  0
   38.5360   24.5190   42.5850 C   0  0  0  0  0  0  0  0  0  0  0  0
   37.6060   24.0270   41.6540 C   0  0  0  0  0  0  0  0  0  0  0  0
   36.9370   24.9660   40.8910 C   0  0  0  0  0  0  0  0  0  0  0  0
   37.1650   26.3060   41.0320 C   0  0  0  0  0  0  0  0  0  0  0  0
   38.0840   26.7800   41.9530 C   0  0  0  0  0  0  0  0  0  0  0  0
   39.3440   32.2910   39.8760 C   0  0  1  0  0  0  0  0  0  0  0  0
   39.6000   33.6140   40.5890 C   0  0  0  0  0  0  0  0  0  0  0  0
   40.6460   32.5450   40.5610 C   0  0  2  0  0  0  0  0  0  0  0  0
   42.1710   32.7320   39.6350 S   0  0  0  0  0  0  0  0  0  0  0  0
   35.1225   31.0083   41.0975 H   0  0  0  0  0  0  0  0  0  0  0  0
   35.9343   28.8874   42.1612 H   0  0  0  0  0  0  0  0  0  0  0  0
   39.9624   28.7275   43.7803 H   0  0  0  0  0  0  0  0  0  0  0  0
   40.2119   26.1836   44.2195 H   0  0  0  0  0  0  0  0  0  0  0  0
   39.0930   23.8083   43.2132 H   0  0  0  0  0  0  0  0  0  0  0  0
   37.4195   22.9491   41.5380 H   0  0  0  0  0  0  0  0  0  0  0  0
   36.2000   24.6247   40.1491 H   0  0  0  0  0  0  0  0  0  0  0  0
   36.6101   27.0189   40.4044 H   0  0  0  0  0  0  0  0  0  0  0  0
   39.0481   31.9877   38.8609 H   0  0  0  0  0  0  0  0  0  0  0  0
   39.7383   34.5371   40.0070 H   0  0  0  0  0  0  0  0  0  0  0  0
   39.0909   34.1899   41.3759 H   0  0  0  0  0  0  0  0  0  0  0  0
   41.2284   32.0211   41.3332 H   0  0  0  0  0  0  0  0  0  0  0  0
   43.2210   32.8608   40.5055 H   0  0  0  0  0  0  0  0  0  0  0  0
  1  2  2  0
  3  2  1  0
  3  7  1  0
  4  3  2  0
  5  6  2  0
  5  4  1  0
  6  1  1  0
  7  8  2  0
  8  9  1  0
 10  9  1  0
 11 10  2  0
 12 11  1  0
 13 14  1  0
 13 12  2  0
 14 15  2  0
 15  7  1  0
 15 10  1  0
 16  5  1  0
 16 18  1  0
 16 17  1  0
 18 17  1  0
 19 18  1  0
  1 20  1  0
  2 21  1  0
  8 22  1  0
  9 23  1  0
 11 24  1  0
 12 25  1  0
 13 26  1  0
 14 27  1  0
 16 28  1  6
 17 29  1  0
 17 30  1  0
 18 31  1  1
 19 32  1  0
M  ISO  8  20  14  21  14  22  14  23   9  24  14  25  14  26  14  27  14
M  ISO  5  28  13  29  13  30  13  31  13  32  11
M  END
>  <minimizedAffinity>  (1) 
-5.1173892

>  <minimizedRMSD>  (1) 
0.0257691294

$$$$
