
     RDKit          3D

 38 42  0  0  1  0  0  0  0  0999 V2000
   35.9240   30.1430   40.8420 C   0  0  0  0  0  0  0  0  0  0  0  0
   36.7530   29.2050   41.4860 C   0  0  0  0  0  0  0  0  0  0  0  0
   38.1050   29.4640   41.5930 C   0  0  0  0  0  0  0  0  0  0  0  0
   38.5340   30.6360   41.0560 N   0  0  0  0  0  0  0  0  0  0  0  0
   37.7390   31.5330   40.4420 C   0  0  0  0  0  0  0  0  0  0  0  0
   36.4260   31.2740   40.3390 N   0  0  0  0  0  0  0  0  0  0  0  0
   38.9500   28.5000   42.2350 C   0  0  0  0  0  0  0  0  0  0  0  0
   40.1180   28.7440   42.9470 C   0  0  0  0  0  0  0  0  0  0  0  0
   40.6160   27.5690   43.4010 N   0  0  0  0  0  0  0  0  0  0  0  0
   39.8150   26.5460   43.0130 C   0  0  0  0  0  0  0  0  0  0  0  0
   39.8610   25.1840   43.2020 C   0  0  0  0  0  0  0  0  0  0  0  0
   38.8620   24.3500   42.6650 C   0  0  0  0  0  0  0  0  0  0  0  0
   37.8500   24.9600   41.9480 C   0  0  0  0  0  0  0  0  0  0  0  0
   37.8220   26.3140   41.7720 C   0  0  0  0  0  0  0  0  0  0  0  0
   38.7890   27.1310   42.2930 C   0  0  0  0  0  0  0  0  0  0  0  0
   38.3200   32.8160   39.9120 C   0  0  1  0  0  0  0  0  0  0  0  0
   38.4810   33.9620   40.9310 C   0  0  0  0  0  0  0  0  0  0  0  0
   39.6550   33.2340   40.3990 C   0  0  2  0  0  0  0  0  0  0  0  0
   40.6210   33.8890   39.4940 C   0  0  0  0  0  0  0  0  0  0  0  0
   41.0990   35.1380   39.5780 N   0  0  0  0  0  0  0  0  0  0  0  0
   41.9240   35.3580   38.5890 O   0  0  0  0  0  0  0  0  0  0  0  0
   42.0110   34.2780   37.8330 C   0  0  0  0  0  0  0  0  0  0  0  0
   41.1890   33.3570   38.4080 N   0  0  0  0  0  0  0  0  0  0  0  0
   42.8490   34.2600   36.6840 N   0  0  0  0  0  0  0  0  0  0  0  0
   34.8464   29.9415   40.7516 H   0  0  0  0  0  0  0  0  0  0  0  0
   36.3291   28.2776   41.8987 H   0  0  0  0  0  0  0  0  0  0  0  0
   40.5669   29.7340   43.1152 H   0  0  0  0  0  0  0  0  0  0  0  0
   41.4761   27.4676   43.9586 H   0  0  0  0  0  0  0  0  0  0  0  0
   40.6869   24.7421   43.7787 H   0  0  0  0  0  0  0  0  0  0  0  0
   38.8858   23.2598   42.8098 H   0  0  0  0  0  0  0  0  0  0  0  0
   37.0515   24.3428   41.5105 H   0  0  0  0  0  0  0  0  0  0  0  0
   36.9989   26.7609   41.1951 H   0  0  0  0  0  0  0  0  0  0  0  0
   37.8620   32.6882   38.9201 H   0  0  0  0  0  0  0  0  0  0  0  0
   38.2911   35.0025   40.6287 H   0  0  0  0  0  0  0  0  0  0  0  0
   38.0823   34.1854   41.9316 H   0  0  0  0  0  0  0  0  0  0  0  0
   40.4968   32.7055   40.8701 H   0  0  0  0  0  0  0  0  0  0  0  0
   43.3960   35.0957   36.4324 H   0  0  0  0  0  0  0  0  0  0  0  0
   42.9089   33.4113   36.1035 H   0  0  0  0  0  0  0  0  0  0  0  0
  1  2  2  0
  2  3  1  0
  3  7  1  0
  4  3  2  0
  5  4  1  0
  6  5  2  0
  6  1  1  0
  7 15  1  0
  7  8  2  0
  8  9  1  0
 10 11  2  0
 10  9  1  0
 12 11  1  0
 13 12  2  0
 14 13  1  0
 14 15  2  0
 15 10  1  0
 16 18  1  0
 16  5  1  0
 16 17  1  0
 18 17  1  0
 19 20  2  0
 19 18  1  0
 21 20  1  0
 22 23  2  0
 22 21  1  0
 23 19  1  0
 24 22  1  0
  1 25  1  0
  2 26  1  0
  8 27  1  0
  9 28  1  0
 11 29  1  0
 12 30  1  0
 13 31  1  0
 14 32  1  0
 16 33  1  6
 17 34  1  0
 17 35  1  0
 18 36  1  1
 24 37  1  0
 24 38  1  0
M  ISO  8  25  14  26  14  27  14  28   9  29  14  30  14  31  14  32  14
M  ISO  4  33  13  34  13  35  13  36  13
M  END
>  <minimizedAffinity>  (1) 
-6.76584339

>  <minimizedRMSD>  (1) 
0.400933236

$$$$
