
     RDKit          3D

 39 43  0  0  1  0  0  0  0  0999 V2000
   36.1530   30.7990   41.1050 C   0  0  0  0  0  0  0  0  0  0  0  0
   36.8090   29.6970   41.6820 C   0  0  0  0  0  0  0  0  0  0  0  0
   38.1830   29.6050   41.5810 C   0  0  0  0  0  0  0  0  0  0  0  0
   38.8080   30.6170   40.9180 N   0  0  0  0  0  0  0  0  0  0  0  0
   38.1750   31.6720   40.3680 C   0  0  0  0  0  0  0  0  0  0  0  0
   36.8350   31.7540   40.4670 N   0  0  0  0  0  0  0  0  0  0  0  0
   38.8550   28.4730   42.1520 C   0  0  0  0  0  0  0  0  0  0  0  0
   40.0400   28.4720   42.8810 C   0  0  0  0  0  0  0  0  0  0  0  0
   40.3270   27.1950   43.2440 N   0  0  0  0  0  0  0  0  0  0  0  0
   39.3780   26.3530   42.7830 C   0  0  0  0  0  0  0  0  0  0  0  0
   39.1900   24.9860   42.8650 C   0  0  0  0  0  0  0  0  0  0  0  0
   38.0880   24.3790   42.2750 C   0  0  0  0  0  0  0  0  0  0  0  0
   37.1900   25.1900   41.6030 C   0  0  0  0  0  0  0  0  0  0  0  0
   37.3930   26.5420   41.5300 C   0  0  0  0  0  0  0  0  0  0  0  0
   38.4750   27.1480   42.1100 C   0  0  0  0  0  0  0  0  0  0  0  0
   38.9630   32.7510   39.6810 C   0  0  1  0  0  0  0  0  0  0  0  0
   39.2060   34.0390   40.4920 C   0  0  0  0  0  0  0  0  0  0  0  0
   40.3030   33.0840   40.2180 C   0  0  2  0  0  0  0  0  0  0  0  0
   41.4140   33.4370   39.3180 C   0  0  0  0  0  0  0  0  0  0  0  0
   41.6370   34.6030   38.7000 N   0  0  0  0  0  0  0  0  0  0  0  0
   42.7250   34.5210   37.9710 O   0  0  0  0  0  0  0  0  0  0  0  0
   43.2420   33.3140   38.0860 C   0  0  0  0  0  0  0  0  0  0  0  0
   42.4140   32.6400   38.9320 N   0  0  0  0  0  0  0  0  0  0  0  0
   44.4500   32.6880   37.4880 C   0  0  0  0  0  0  0  0  0  0  0  0
   44.0930   31.7610   36.5220 F   0  0  0  0  0  0  0  0  0  0  0  0
   45.1590   32.0210   38.4490 F   0  0  0  0  0  0  0  0  0  0  0  0
   45.2930   33.6330   36.9350 F   0  0  0  0  0  0  0  0  0  0  0  0
   35.0583   30.8759   41.1805 H   0  0  0  0  0  0  0  0  0  0  0  0
   36.2353   28.9188   42.2067 H   0  0  0  0  0  0  0  0  0  0  0  0
   40.6444   29.3586   43.1233 H   0  0  0  0  0  0  0  0  0  0  0  0
   41.1509   26.9099   43.7925 H   0  0  0  0  0  0  0  0  0  0  0  0
   39.9236   24.3696   43.4053 H   0  0  0  0  0  0  0  0  0  0  0  0
   37.9347   23.2917   42.3398 H   0  0  0  0  0  0  0  0  0  0  0  0
   36.3058   24.7446   41.1236 H   0  0  0  0  0  0  0  0  0  0  0  0
   36.6632   27.1613   40.9879 H   0  0  0  0  0  0  0  0  0  0  0  0
   38.5659   32.4982   38.6868 H   0  0  0  0  0  0  0  0  0  0  0  0
   39.1877   35.0191   39.9930 H   0  0  0  0  0  0  0  0  0  0  0  0
   38.7679   34.4948   41.3922 H   0  0  0  0  0  0  0  0  0  0  0  0
   41.0235   32.5504   40.8553 H   0  0  0  0  0  0  0  0  0  0  0  0
  1  2  2  0
  3  2  1  0
  3  7  1  0
  4  3  2  0
  5  6  2  0
  5  4  1  0
  6  1  1  0
  7  8  2  0
  8  9  1  0
 10 11  2  0
 10  9  1  0
 12 11  1  0
 13 12  2  0
 14 13  1  0
 14 15  2  0
 15  7  1  0
 15 10  1  0
 16 18  1  0
 16  5  1  0
 16 17  1  0
 18 17  1  0
 19 18  1  0
 20 19  2  0
 21 22  1  0
 21 20  1  0
 22 23  2  0
 23 19  1  0
 24 22  1  0
 24 26  1  0
 25 24  1  0
 27 24  1  0
  1 28  1  0
  2 29  1  0
  8 30  1  0
  9 31  1  0
 11 32  1  0
 12 33  1  0
 13 34  1  0
 14 35  1  0
 16 36  1  6
 17 37  1  0
 17 38  1  0
 18 39  1  1
M  ISO  8  28  14  29  14  30  14  31   9  32  14  33  14  34  14  35  14
M  ISO  4  36  13  37  13  38  13  39  13
M  END
>  <minimizedAffinity>  (1) 
-6.12763023

>  <minimizedRMSD>  (1) 
0.996243477

$$$$
