
     RDKit          3D

 43 48  0  0  1  0  0  0  0  0999 V2000
   35.9690   30.5530   40.9290 C   0  0  0  0  0  0  0  0  0  0  0  0
   36.6810   29.4930   41.5240 C   0  0  0  0  0  0  0  0  0  0  0  0
   38.0610   29.5380   41.5430 C   0  0  0  0  0  0  0  0  0  0  0  0
   38.6310   30.6330   40.9730 N   0  0  0  0  0  0  0  0  0  0  0  0
   37.9460   31.6440   40.4070 C   0  0  0  0  0  0  0  0  0  0  0  0
   36.6040   31.5970   40.3870 N   0  0  0  0  0  0  0  0  0  0  0  0
   38.7880   28.4520   42.1340 C   0  0  0  0  0  0  0  0  0  0  0  0
   39.9680   28.5270   42.8670 C   0  0  0  0  0  0  0  0  0  0  0  0
   40.3210   27.2740   43.2550 N   0  0  0  0  0  0  0  0  0  0  0  0
   39.4170   26.3750   42.8080 C   0  0  0  0  0  0  0  0  0  0  0  0
   39.3060   25.0100   42.9210 C   0  0  0  0  0  0  0  0  0  0  0  0
   38.2250   24.3220   42.3330 C   0  0  0  0  0  0  0  0  0  0  0  0
   37.2950   25.0800   41.6440 C   0  0  0  0  0  0  0  0  0  0  0  0
   37.4310   26.4380   41.5460 C   0  0  0  0  0  0  0  0  0  0  0  0
   38.4780   27.1100   42.1180 C   0  0  0  0  0  0  0  0  0  0  0  0
   38.6830   32.8230   39.8310 C   0  0  1  0  0  0  0  0  0  0  0  0
   38.8570   34.0420   40.7610 C   0  0  0  0  0  0  0  0  0  0  0  0
   40.0030   33.1750   40.4080 C   0  0  2  0  0  0  0  0  0  0  0  0
   41.1040   33.6620   39.5480 C   0  0  0  0  0  0  0  0  0  0  0  0
   41.2400   34.8830   39.0170 N   0  0  0  0  0  0  0  0  0  0  0  0
   42.3350   34.9260   38.3040 O   0  0  0  0  0  0  0  0  0  0  0  0
   42.9430   33.7600   38.3420 C   0  0  0  0  0  0  0  0  0  0  0  0
   42.1630   32.9650   39.1280 N   0  0  0  0  0  0  0  0  0  0  0  0
   44.2090   33.3380   37.6890 C   0  0  0  0  0  0  0  0  0  0  0  0
   45.5270   33.8370   38.1690 C   0  0  0  0  0  0  0  0  0  0  0  0
   45.1240   32.4070   38.4070 C   0  0  0  0  0  0  0  0  0  0  0  0
   34.8696   30.5210   40.9100 H   0  0  0  0  0  0  0  0  0  0  0  0
   36.1449   28.6410   41.9675 H   0  0  0  0  0  0  0  0  0  0  0  0
   40.5234   29.4487   43.0948 H   0  0  0  0  0  0  0  0  0  0  0  0
   41.1573   27.0426   43.8100 H   0  0  0  0  0  0  0  0  0  0  0  0
   40.0701   24.4471   43.4772 H   0  0  0  0  0  0  0  0  0  0  0  0
   38.1253   23.2299   42.4183 H   0  0  0  0  0  0  0  0  0  0  0  0
   36.4354   24.5847   41.1690 H   0  0  0  0  0  0  0  0  0  0  0  0
   36.6737   27.0091   40.9889 H   0  0  0  0  0  0  0  0  0  0  0  0
   38.3035   32.6426   38.8144 H   0  0  0  0  0  0  0  0  0  0  0  0
   38.7890   35.0621   40.3551 H   0  0  0  0  0  0  0  0  0  0  0  0
   38.3934   34.3886   41.6964 H   0  0  0  0  0  0  0  0  0  0  0  0
   40.7490   32.6257   41.0011 H   0  0  0  0  0  0  0  0  0  0  0  0
   43.7012   33.3425   36.7132 H   0  0  0  0  0  0  0  0  0  0  0  0
   46.3231   34.0721   37.4472 H   0  0  0  0  0  0  0  0  0  0  0  0
   45.8605   34.6694   38.8061 H   0  0  0  0  0  0  0  0  0  0  0  0
   44.8768   32.0660   39.4232 H   0  0  0  0  0  0  0  0  0  0  0  0
   45.5673   31.4247   38.1868 H   0  0  0  0  0  0  0  0  0  0  0  0
  1  2  2  0
  2  3  1  0
  3  7  1  0
  4  3  2  0
  5  4  1  0
  6  5  2  0
  6  1  1  0
  7  8  2  0
  8  9  1  0
 10 11  2  0
 10  9  1  0
 12 11  1  0
 13 12  2  0
 14 13  1  0
 14 15  2  0
 15  7  1  0
 15 10  1  0
 16  5  1  0
 16 18  1  0
 16 17  1  0
 18 17  1  0
 19 18  1  0
 20 19  2  0
 21 22  1  0
 21 20  1  0
 22 23  2  0
 23 19  1  0
 24 25  1  0
 24 22  1  0
 24 26  1  0
 25 26  1  0
  1 27  1  0
  2 28  1  0
  8 29  1  0
  9 30  1  0
 11 31  1  0
 12 32  1  0
 13 33  1  0
 14 34  1  0
 16 35  1  6
 17 36  1  0
 17 37  1  0
 18 38  1  1
 24 39  1  0
 25 40  1  0
 25 41  1  0
 26 42  1  0
 26 43  1  0
M  ISO  8  27  14  28  14  29  14  30   9  31  14  32  14  33  14  34  14
M  ISO  8  35  13  36  13  37  13  38  13  39  13  40  13  41  13  42  13
M  ISO  1  43  13
M  END
>  <minimizedAffinity>  (1) 
-6.0345006

>  <minimizedRMSD>  (1) 
0.847264946

$$$$
