
     RDKit          3D

 24 26  0  0  1  0  0  0  0  0999 V2000
   38.9120   30.7310   41.0010 C   0  0  1  0  0  0  0  0  0  0  0  0
   40.1680   30.1840   41.4580 C   0  0  0  0  0  0  0  0  0  0  0  0
   39.1710   30.4910   42.5280 C   0  0  2  0  0  0  0  0  0  0  0  0
   38.7570   32.1830   40.6350 C   0  0  0  0  0  0  0  0  0  0  0  0
   37.5260   32.5380   40.0490 C   0  0  0  0  0  0  0  0  0  0  0  0
   37.3740   33.8770   39.6840 C   0  0  0  0  0  0  0  0  0  0  0  0
   38.4070   34.7470   39.9100 N   0  0  0  0  0  0  0  0  0  0  0  0
   39.5770   34.3610   40.4790 C   0  0  0  0  0  0  0  0  0  0  0  0
   39.7460   33.0610   40.8430 N   0  0  0  0  0  0  0  0  0  0  0  0
   38.5200   29.2760   43.0830 C   0  0  0  0  0  0  0  0  0  0  0  0
   39.1560   28.0540   43.1480 C   0  0  0  0  0  0  0  0  0  0  0  0
   38.2530   27.2130   43.7060 N   0  0  0  0  0  0  0  0  0  0  0  0
   37.1100   27.8990   43.9720 C   0  0  0  0  0  0  0  0  0  0  0  0
   37.2800   29.1850   43.5820 N   0  0  0  0  0  0  0  0  0  0  0  0
   38.2134   30.4067   40.2157 H   0  0  0  0  0  0  0  0  0  0  0  0
   40.4101   29.1346   41.2343 H   0  0  0  0  0  0  0  0  0  0  0  0
   41.2163   30.4784   41.3018 H   0  0  0  0  0  0  0  0  0  0  0  0
   39.1266   31.0969   43.4450 H   0  0  0  0  0  0  0  0  0  0  0  0
   36.7270   31.7994   39.8876 H   0  0  0  0  0  0  0  0  0  0  0  0
   36.4392   34.2275   39.2222 H   0  0  0  0  0  0  0  0  0  0  0  0
   40.3816   35.0927   40.6444 H   0  0  0  0  0  0  0  0  0  0  0  0
   40.1774   27.8140   42.8176 H   0  0  0  0  0  0  0  0  0  0  0  0
   36.2003   27.4804   44.4272 H   0  0  0  0  0  0  0  0  0  0  0  0
   36.5895   29.9458   43.6550 H   0  0  0  0  0  0  0  0  0  0  0  0
  1  2  1  0
  1  3  1  0
  2  3  1  0
  3 10  1  0
  4  9  1  0
  4  1  1  0
  5  4  2  0
  6  7  2  0
  6  5  1  0
  7  8  1  0
  8  9  2  0
 10 11  2  0
 10 14  1  0
 11 12  1  0
 12 13  2  0
 14 13  1  0
  1 15  1  6
  2 16  1  0
  2 17  1  0
  3 18  1  1
  5 19  1  0
  6 20  1  0
  8 21  1  0
 11 22  1  0
 13 23  1  0
 14 24  1  0
M  ISO  8  15  13  16  13  17  13  18  13  19  14  20  14  21  14  22  14
M  ISO  2  23  14  24   9
M  END
>  <minimizedAffinity>  (1) 
-4.51052189

>  <minimizedRMSD>  (1) 
4.51239443

$$$$
