
     RDKit          3D

 25 27  0  0  1  0  0  0  0  0999 V2000
   39.3900   30.5580   41.3410 C   0  0  1  0  0  0  0  0  0  0  0  0
   40.0130   30.5410   42.6470 C   0  0  0  0  0  0  0  0  0  0  0  0
   38.6290   29.9780   42.5860 C   0  0  2  0  0  0  0  0  0  0  0  0
   38.7550   31.8080   40.7760 C   0  0  0  0  0  0  0  0  0  0  0  0
   37.6810   31.5800   39.8890 C   0  0  0  0  0  0  0  0  0  0  0  0
   37.0860   32.7320   39.3460 C   0  0  0  0  0  0  0  0  0  0  0  0
   37.5720   33.9600   39.6990 N   0  0  0  0  0  0  0  0  0  0  0  0
   38.6140   34.1110   40.5610 C   0  0  0  0  0  0  0  0  0  0  0  0
   39.2060   33.0330   41.1000 N   0  0  0  0  0  0  0  0  0  0  0  0
   38.4820   28.5010   42.6410 C   0  0  0  0  0  0  0  0  0  0  0  0
   39.3830   27.6400   43.2340 C   0  0  0  0  0  0  0  0  0  0  0  0
   39.2400   26.2820   43.2800 C   0  0  0  0  0  0  0  0  0  0  0  0
   38.1300   25.7640   42.6990 N   0  0  0  0  0  0  0  0  0  0  0  0
   37.2190   26.5750   42.1060 C   0  0  0  0  0  0  0  0  0  0  0  0
   37.3980   27.8900   42.0840 N   0  0  0  0  0  0  0  0  0  0  0  0
   39.7441   30.2251   40.3542 H   0  0  0  0  0  0  0  0  0  0  0  0
   40.8607   29.8641   42.8290 H   0  0  0  0  0  0  0  0  0  0  0  0
   40.4791   31.3214   43.2664 H   0  0  0  0  0  0  0  0  0  0  0  0
   37.6764   30.1586   43.1055 H   0  0  0  0  0  0  0  0  0  0  0  0
   37.3324   30.5671   39.6390 H   0  0  0  0  0  0  0  0  0  0  0  0
   36.2411   32.6465   38.6468 H   0  0  0  0  0  0  0  0  0  0  0  0
   38.9724   35.1190   40.8170 H   0  0  0  0  0  0  0  0  0  0  0  0
   40.2776   28.0771   43.7017 H   0  0  0  0  0  0  0  0  0  0  0  0
   39.9896   25.6397   43.7652 H   0  0  0  0  0  0  0  0  0  0  0  0
   36.3236   26.1390   41.6390 H   0  0  0  0  0  0  0  0  0  0  0  0
  1  3  1  0
  1  2  1  0
  3 10  1  0
  3  2  1  0
  4  9  1  0
  4  1  1  0
  5  4  2  0
  6  7  2  0
  6  5  1  0
  7  8  1  0
  8  9  2  0
 10 11  2  0
 11 12  1  0
 13 12  2  0
 14 13  1  0
 15 14  2  0
 15 10  1  0
  1 16  1  6
  2 17  1  0
  2 18  1  0
  3 19  1  1
  5 20  1  0
  6 21  1  0
  8 22  1  0
 11 23  1  0
 12 24  1  0
 14 25  1  0
M  ISO  8  16  13  17  13  18  13  19  13  20  14  21  14  22  14  23  14
M  ISO  2  24  14  25  14
M  END
>  <minimizedAffinity>  (1) 
-4.22139978

>  <minimizedRMSD>  (1) 
4.17532301

$$$$
