
     RDKit          3D

 20 21  0  0  0  0  0  0  0  0999 V2000
   37.6590   29.0470   41.7990 C   0  0  0  0  0  0  0  0  0  0  0  0
   36.7450   28.1380   41.2500 C   0  0  0  0  0  0  0  0  0  0  0  0
   35.6620   28.6400   40.5490 C   0  0  0  0  0  0  0  0  0  0  0  0
   35.5210   29.9890   40.4160 N   0  0  0  0  0  0  0  0  0  0  0  0
   36.4370   30.8440   40.9690 C   0  0  0  0  0  0  0  0  0  0  0  0
   37.5120   30.3710   41.6640 N   0  0  0  0  0  0  0  0  0  0  0  0
   36.9040   26.6940   41.3970 C   0  0  0  0  0  0  0  0  0  0  0  0
   36.8440   25.8260   40.2990 C   0  0  0  0  0  0  0  0  0  0  0  0
   37.0420   24.5830   40.8930 C   0  0  0  0  0  0  0  0  0  0  0  0
   37.2050   24.6900   42.2180 N   0  0  0  0  0  0  0  0  0  0  0  0
   37.1200   25.9740   42.5150 N   0  0  0  0  0  0  0  0  0  0  0  0
   37.0660   23.2910   40.1230 C   0  0  0  0  0  0  0  0  0  0  0  0
   38.5241   28.6610   42.3582 H   0  0  0  0  0  0  0  0  0  0  0  0
   34.9231   27.9573   40.1040 H   0  0  0  0  0  0  0  0  0  0  0  0
   36.3040   31.9295   40.8510 H   0  0  0  0  0  0  0  0  0  0  0  0
   36.6817   26.0658   39.2378 H   0  0  0  0  0  0  0  0  0  0  0  0
   37.3661   23.9174   42.8799 H   0  0  0  0  0  0  0  0  0  0  0  0
   37.0817   22.4453   40.8262 H   0  0  0  0  0  0  0  0  0  0  0  0
   36.1689   23.2248   39.4898 H   0  0  0  0  0  0  0  0  0  0  0  0
   37.9649   23.2581   39.4898 H   0  0  0  0  0  0  0  0  0  0  0  0
  2  7  1  0
  2  1  2  0
  3  2  1  0
  4  3  2  0
  4  5  1  0
  5  6  2  0
  6  1  1  0
  7 11  2  0
  8  9  2  0
  8  7  1  0
  9 10  1  0
 10 11  1  0
 12  9  1  0
  1 13  1  0
  3 14  1  0
  5 15  1  0
  8 16  1  0
 10 17  1  0
 12 18  1  0
 12 19  1  0
 12 20  1  0
M  ISO  8  13  14  14  14  15  14  16  14  17   9  18   8  19   8  20   8
M  END
>  <minimizedAffinity>  (1) 
-3.53468966

>  <minimizedRMSD>  (1) 
0.079158552

$$$$
