
     RDKit          3D

 37 40  0  0  1  0  0  0  0  0999 V2000
   39.2900   26.0080   42.9600 C   0  0  0  0  0  0  0  0  0  0  0  0
   39.3470   24.6330   43.0530 C   0  0  0  0  0  0  0  0  0  0  0  0
   38.4770   23.7780   42.4630 C   0  0  0  0  0  0  0  0  0  0  0  0
   37.4610   24.3270   41.7140 C   0  0  0  0  0  0  0  0  0  0  0  0
   37.3710   25.6850   41.5950 C   0  0  0  0  0  0  0  0  0  0  0  0
   38.3130   26.5360   42.2380 C   0  0  0  0  0  0  0  0  0  0  0  0
   37.9020   27.8520   41.9100 N   0  0  0  0  0  0  0  0  0  0  0  0
   38.3360   28.3270   40.7240 C   0  0  0  0  0  0  0  0  0  0  0  0
   37.8930   29.6180   40.4290 C   0  0  0  0  0  0  0  0  0  0  0  0
   37.0790   30.2780   41.3400 C   0  0  0  0  0  0  0  0  0  0  0  0
   36.7100   31.4290   41.0310 O   0  0  0  0  0  0  0  0  0  0  0  0
   36.6930   29.7070   42.5190 N   0  0  0  0  0  0  0  0  0  0  0  0
   37.1140   28.4450   42.8300 C   0  0  0  0  0  0  0  0  0  0  0  0
   36.7900   27.8730   43.8980 O   0  0  0  0  0  0  0  0  0  0  0  0
   41.4810   27.3270   42.9420 C   0  0  1  0  0  0  0  0  0  0  0  0
   41.4820   26.4310   44.1200 C   0  0  0  0  0  0  0  0  0  0  0  0
   40.1570   26.9100   43.7240 C   0  0  2  0  0  0  0  0  0  0  0  0
   41.8470   28.7750   43.1170 C   0  0  0  0  0  0  0  0  0  0  0  0
   43.0070   29.0620   43.8340 C   0  0  0  0  0  0  0  0  0  0  0  0
   43.3470   30.3870   43.9690 C   0  0  0  0  0  0  0  0  0  0  0  0
   42.5750   31.3660   43.4240 N   0  0  0  0  0  0  0  0  0  0  0  0
   41.4480   31.0440   42.7320 C   0  0  0  0  0  0  0  0  0  0  0  0
   41.1270   29.7430   42.6060 N   0  0  0  0  0  0  0  0  0  0  0  0
   40.1606   24.1974   43.6516 H   0  0  0  0  0  0  0  0  0  0  0  0
   38.5786   22.6888   42.5780 H   0  0  0  0  0  0  0  0  0  0  0  0
   36.7270   23.6772   41.2150 H   0  0  0  0  0  0  0  0  0  0  0  0
   36.5610   26.1257   40.9952 H   0  0  0  0  0  0  0  0  0  0  0  0
   38.9825   27.7477   40.0483 H   0  0  0  0  0  0  0  0  0  0  0  0
   38.1850   30.1057   39.4873 H   0  0  0  0  0  0  0  0  0  0  0  0
   36.0871   30.2255   43.1709 H   0  0  0  0  0  0  0  0  0  0  0  0
   41.9047   27.2579   41.9292 H   0  0  0  0  0  0  0  0  0  0  0  0
   41.7287   25.3679   43.9822 H   0  0  0  0  0  0  0  0  0  0  0  0
   42.0280   26.4580   45.0745 H   0  0  0  0  0  0  0  0  0  0  0  0
   39.3309   27.4013   44.2590 H   0  0  0  0  0  0  0  0  0  0  0  0
   43.6234   28.2634   44.2726 H   0  0  0  0  0  0  0  0  0  0  0  0
   44.2559   30.6597   44.5254 H   0  0  0  0  0  0  0  0  0  0  0  0
   40.8159   31.8268   42.2873 H   0  0  0  0  0  0  0  0  0  0  0  0
  1  2  2  0
  1 17  1  0
  3  2  1  0
  4  3  2  0
  5  4  1  0
  5  6  2  0
  6  1  1  0
  7  6  1  0
  7 13  1  0
  8  7  1  0
  9  8  2  0
  9 10  1  0
 10 12  1  0
 11 10  2  0
 12 13  1  0
 13 14  2  0
 15 18  1  0
 15 17  1  0
 15 16  1  0
 17 16  1  0
 18 19  2  0
 19 20  1  0
 21 20  2  0
 22 21  1  0
 23 22  2  0
 23 18  1  0
  2 24  1  0
  3 25  1  0
  4 26  1  0
  5 27  1  0
  8 28  1  0
  9 29  1  0
 12 30  1  0
 15 31  1  6
 16 32  1  0
 16 33  1  0
 17 34  1  1
 19 35  1  0
 20 36  1  0
 22 37  1  0
M  ISO  8  24  14  25  14  26  14  27  14  28  14  29  14  30   9  31  13
M  ISO  6  32  13  33  13  34  13  35  14  36  14  37  14
M  END
>  <minimizedAffinity>  (1) 
-5.9345994

>  <minimizedRMSD>  (1) 
4.5089035

$$$$
