
     RDKit          3D

 40 44  0  0  1  0  0  0  0  0999 V2000
   37.0300   27.2180   41.5380 C   0  0  0  0  0  0  0  0  0  0  0  0
   36.9700   26.2100   42.4850 C   0  0  0  0  0  0  0  0  0  0  0  0
   36.9290   24.8860   42.2010 C   0  0  0  0  0  0  0  0  0  0  0  0
   36.9520   24.5220   40.8720 C   0  0  0  0  0  0  0  0  0  0  0  0
   37.0120   25.4900   39.9090 C   0  0  0  0  0  0  0  0  0  0  0  0
   37.0520   26.8730   40.2600 C   0  0  0  0  0  0  0  0  0  0  0  0
   37.0860   27.5550   39.0170 N   0  0  0  0  0  0  0  0  0  0  0  0
   38.2610   27.8440   38.3710 C   0  0  0  0  0  0  0  0  0  0  0  0
   37.9500   28.5200   37.2250 N   0  0  0  0  0  0  0  0  0  0  0  0
   36.6200   28.6410   37.1700 C   0  0  0  0  0  0  0  0  0  0  0  0
   35.6900   29.1990   36.3040 C   0  0  0  0  0  0  0  0  0  0  0  0
   34.3620   29.1740   36.5050 N   0  0  0  0  0  0  0  0  0  0  0  0
   33.8530   28.5840   37.5990 C   0  0  0  0  0  0  0  0  0  0  0  0
   34.7120   28.0210   38.4840 N   0  0  0  0  0  0  0  0  0  0  0  0
   36.0410   28.0480   38.2780 C   0  0  0  0  0  0  0  0  0  0  0  0
   36.1600   29.8410   35.1250 N   0  0  0  0  0  0  0  0  0  0  0  0
   38.3300   29.4130   41.7530 C   0  0  1  0  0  0  0  0  0  0  0  0
   37.6480   29.1400   43.0380 C   0  0  0  0  0  0  0  0  0  0  0  0
   36.9340   28.6470   41.8600 C   0  0  2  0  0  0  0  0  0  0  0  0
   38.2180   30.7760   41.1370 C   0  0  0  0  0  0  0  0  0  0  0  0
   37.2060   30.9740   40.2050 C   0  0  0  0  0  0  0  0  0  0  0  0
   37.0840   32.2340   39.6580 C   0  0  0  0  0  0  0  0  0  0  0  0
   37.9360   33.2300   40.0300 N   0  0  0  0  0  0  0  0  0  0  0  0
   38.9120   32.9980   40.9440 C   0  0  0  0  0  0  0  0  0  0  0  0
   39.0120   31.7650   41.4640 N   0  0  0  0  0  0  0  0  0  0  0  0
   36.9545   26.5054   43.5445 H   0  0  0  0  0  0  0  0  0  0  0  0
   36.8793   24.1313   42.9997 H   0  0  0  0  0  0  0  0  0  0  0  0
   36.9223   23.4597   40.5882 H   0  0  0  0  0  0  0  0  0  0  0  0
   37.0297   25.1991   38.8483 H   0  0  0  0  0  0  0  0  0  0  0  0
   39.2721   27.5791   38.7139 H   0  0  0  0  0  0  0  0  0  0  0  0
   32.7671   28.5583   37.7725 H   0  0  0  0  0  0  0  0  0  0  0  0
   37.1704   29.8841   34.9300 H   0  0  0  0  0  0  0  0  0  0  0  0
   35.4899   30.2628   34.4663 H   0  0  0  0  0  0  0  0  0  0  0  0
   39.3477   29.2367   41.3745 H   0  0  0  0  0  0  0  0  0  0  0  0
   38.0930   28.4144   43.7347 H   0  0  0  0  0  0  0  0  0  0  0  0
   37.3456   29.7910   43.8715 H   0  0  0  0  0  0  0  0  0  0  0  0
   35.9055   28.7597   41.4864 H   0  0  0  0  0  0  0  0  0  0  0  0
   36.5286   30.1573   39.9150 H   0  0  0  0  0  0  0  0  0  0  0  0
   36.2954   32.4358   38.9181 H   0  0  0  0  0  0  0  0  0  0  0  0
   39.6018   33.7983   41.2500 H   0  0  0  0  0  0  0  0  0  0  0  0
  1 19  1  0
  1  2  2  0
  3  2  1  0
  4  3  2  0
  5  6  2  0
  5  4  1  0
  6  1  1  0
  7  6  1  0
  8  7  1  0
  9  8  2  0
 10  9  1  0
 10 15  2  0
 11 12  2  0
 11 10  1  0
 12 13  1  0
 13 14  2  0
 15 14  1  0
 15  7  1  0
 16 11  1  0
 17 19  1  0
 17 18  1  0
 19 18  1  0
 20 25  1  0
 20 17  1  0
 21 20  2  0
 22 23  2  0
 22 21  1  0
 23 24  1  0
 24 25  2  0
  2 26  1  0
  3 27  1  0
  4 28  1  0
  5 29  1  0
  8 30  1  0
 13 31  1  0
 16 32  1  0
 16 33  1  0
 17 34  1  1
 18 35  1  0
 18 36  1  0
 19 37  1  6
 21 38  1  0
 22 39  1  0
 24 40  1  0
M  ISO  8  26  14  27  14  28  14  29  14  30  14  31  14  34  13  35  13
M  ISO  5  36  13  37  13  38  14  39  14  40  14
M  END
>  <minimizedAffinity>  (1) 
-5.82205629

>  <minimizedRMSD>  (1) 
1.3056016

$$$$
