
     RDKit          3D

 18 19  0  0  0  0  0  0  0  0999 V2000
   37.6600   29.0670   41.8120 C   0  0  0  0  0  0  0  0  0  0  0  0
   36.7590   28.1480   41.2530 C   0  0  0  0  0  0  0  0  0  0  0  0
   35.6600   28.6400   40.5420 C   0  0  0  0  0  0  0  0  0  0  0  0
   35.5150   30.0000   40.4230 N   0  0  0  0  0  0  0  0  0  0  0  0
   36.4080   30.8480   40.9770 C   0  0  0  0  0  0  0  0  0  0  0  0
   37.4750   30.3860   41.6680 N   0  0  0  0  0  0  0  0  0  0  0  0
   36.9240   26.7150   41.3870 C   0  0  0  0  0  0  0  0  0  0  0  0
   36.9290   25.8380   40.2830 C   0  0  0  0  0  0  0  0  0  0  0  0
   37.1060   24.6020   40.8510 C   0  0  0  0  0  0  0  0  0  0  0  0
   37.2040   24.6940   42.1960 N   0  0  0  0  0  0  0  0  0  0  0  0
   37.0920   25.9830   42.5150 N   0  0  0  0  0  0  0  0  0  0  0  0
   37.2030   23.0360   39.9920 S   0  0  0  0  0  0  0  0  0  0  0  0
   38.5299   28.6995   42.3760 H   0  0  0  0  0  0  0  0  0  0  0  0
   34.9293   27.9539   40.0890 H   0  0  0  0  0  0  0  0  0  0  0  0
   36.2653   31.9329   40.8644 H   0  0  0  0  0  0  0  0  0  0  0  0
   36.8173   26.0864   39.2173 H   0  0  0  0  0  0  0  0  0  0  0  0
   37.3401   23.9124   42.8528 H   0  0  0  0  0  0  0  0  0  0  0  0
   37.2661   22.0171   40.9057 H   0  0  0  0  0  0  0  0  0  0  0  0
  2  7  1  0
  2  1  2  0
  3  2  1  0
  4  3  2  0
  4  5  1  0
  5  6  2  0
  6  1  1  0
  7 11  2  0
  8  9  2  0
  8  7  1  0
  9 10  1  0
 10 11  1  0
 12  9  1  0
  1 13  1  0
  3 14  1  0
  5 15  1  0
  8 16  1  0
 10 17  1  0
 12 18  1  0
M  ISO  6  13  14  14  14  15  14  16  14  17   9  18  11
M  END
>  <minimizedAffinity>  (1) 
-3.47937608

>  <minimizedRMSD>  (1) 
0.0762839839

$$$$
