
     RDKit          3D

 33 36  0  0  1  0  0  0  0  0999 V2000
   39.4000   30.6780   41.2890 C   0  0  1  0  0  0  0  0  0  0  0  0
   39.8720   30.6850   42.6920 C   0  0  0  0  0  0  0  0  0  0  0  0
   38.5600   30.0760   42.4940 C   0  0  2  0  0  0  0  0  0  0  0  0
   38.4710   28.5950   42.4370 C   0  0  0  0  0  0  0  0  0  0  0  0
   39.3160   27.8350   43.2480 C   0  0  0  0  0  0  0  0  0  0  0  0
   39.1140   26.4870   43.3890 C   0  0  0  0  0  0  0  0  0  0  0  0
   38.0550   25.8890   42.7100 C   0  0  0  0  0  0  0  0  0  0  0  0
   37.2340   26.6400   41.9140 C   0  0  0  0  0  0  0  0  0  0  0  0
   37.4680   28.0220   41.7900 C   0  0  0  0  0  0  0  0  0  0  0  0
   36.4480   28.4680   40.8790 C   0  0  0  0  0  0  0  0  0  0  0  0
   37.0110   27.8340   39.5480 C   0  0  0  0  0  0  0  0  0  0  0  0
   35.6760   28.2300   38.3750 S   0  0  0  0  0  0  0  0  0  0  0  0
   34.6340   29.1200   39.7220 C   0  0  0  0  0  0  0  0  0  0  0  0
   35.2860   29.0440   40.7610 N   0  0  0  0  0  0  0  0  0  0  0  0
   38.7870   31.9370   40.7270 C   0  0  0  0  0  0  0  0  0  0  0  0
   37.7070   31.8010   39.8040 C   0  0  0  0  0  0  0  0  0  0  0  0
   37.1460   32.9470   39.2940 C   0  0  0  0  0  0  0  0  0  0  0  0
   37.6570   34.1650   39.7060 N   0  0  0  0  0  0  0  0  0  0  0  0
   38.6750   34.2530   40.5800 C   0  0  0  0  0  0  0  0  0  0  0  0
   39.2450   33.1130   41.0950 N   0  0  0  0  0  0  0  0  0  0  0  0
   39.8403   30.3495   40.3360 H   0  0  0  0  0  0  0  0  0  0  0  0
   40.7214   30.0452   42.9735 H   0  0  0  0  0  0  0  0  0  0  0  0
   40.2283   31.4879   43.3541 H   0  0  0  0  0  0  0  0  0  0  0  0
   37.5784   30.2203   42.9690 H   0  0  0  0  0  0  0  0  0  0  0  0
   40.1489   28.3212   43.7770 H   0  0  0  0  0  0  0  0  0  0  0  0
   39.7778   25.8866   44.0284 H   0  0  0  0  0  0  0  0  0  0  0  0
   37.8780   24.8083   42.8142 H   0  0  0  0  0  0  0  0  0  0  0  0
   36.3988   26.1679   41.3759 H   0  0  0  0  0  0  0  0  0  0  0  0
   37.9556   27.2974   39.3754 H   0  0  0  0  0  0  0  0  0  0  0  0
   33.6531   29.6000   39.5900 H   0  0  0  0  0  0  0  0  0  0  0  0
   37.3349   30.8086   39.5097 H   0  0  0  0  0  0  0  0  0  0  0  0
   36.3129   32.8974   38.5774 H   0  0  0  0  0  0  0  0  0  0  0  0
   39.0529   35.2403   40.8839 H   0  0  0  0  0  0  0  0  0  0  0  0
  1  3  1  0
  1  2  1  0
  3  2  1  0
  4  3  1  0
  4  5  2  0
  5  6  1  0
  7  6  2  0
  8  7  1  0
  9  8  2  0
  9  4  1  0
 10  9  1  0
 11 10  2  0
 12 11  1  0
 12 13  1  0
 13 14  2  0
 14 10  1  0
 15 20  1  0
 15  1  1  0
 16 15  2  0
 17 18  2  0
 17 16  1  0
 18 19  1  0
 19 20  2  0
  1 21  1  6
  2 22  1  0
  2 23  1  0
  3 24  1  1
  5 25  1  0
  6 26  1  0
  7 27  1  0
  8 28  1  0
 11 29  1  0
 13 30  1  0
 16 31  1  0
 17 32  1  0
 19 33  1  0
M  ISO  8  21  13  22  13  23  13  24  13  25  14  26  14  27  14  28  14
M  ISO  5  29  14  30  14  31  14  32  14  33  14
M  END
>  <minimizedAffinity>  (1) 
-5.42311764

>  <minimizedRMSD>  (1) 
1.72216773

$$$$
