
     RDKit          3D

 34 37  0  0  1  0  0  0  0  0999 V2000
   38.3310   29.1850   41.9110 C   0  0  1  0  0  0  0  0  0  0  0  0
   37.6480   28.8560   43.1720 C   0  0  0  0  0  0  0  0  0  0  0  0
   36.9520   28.4330   41.9580 C   0  0  2  0  0  0  0  0  0  0  0  0
   37.0350   27.0090   41.5360 C   0  0  0  0  0  0  0  0  0  0  0  0
   37.1520   26.0580   42.5560 C   0  0  0  0  0  0  0  0  0  0  0  0
   36.9780   24.7320   42.2810 C   0  0  0  0  0  0  0  0  0  0  0  0
   36.6850   24.3620   40.9860 C   0  0  0  0  0  0  0  0  0  0  0  0
   36.5780   25.3040   40.0020 C   0  0  0  0  0  0  0  0  0  0  0  0
   36.7590   26.6740   40.2730 C   0  0  0  0  0  0  0  0  0  0  0  0
   36.8270   27.3230   38.9800 C   0  0  0  0  0  0  0  0  0  0  0  0
   35.9710   27.3970   37.9040 C   0  0  0  0  0  0  0  0  0  0  0  0
   36.4060   28.1460   36.8400 C   0  0  0  0  0  0  0  0  0  0  0  0
   37.6200   28.5410   37.3450 C   0  0  0  0  0  0  0  0  0  0  0  0
   37.8210   28.0700   38.5270 O   0  0  0  0  0  0  0  0  0  0  0  0
   38.1940   30.5910   41.3480 C   0  0  0  0  0  0  0  0  0  0  0  0
   37.0320   30.9160   40.5730 C   0  0  0  0  0  0  0  0  0  0  0  0
   36.9610   32.1870   40.0780 C   0  0  0  0  0  0  0  0  0  0  0  0
   37.9780   33.0830   40.3400 N   0  0  0  0  0  0  0  0  0  0  0  0
   39.0610   32.7260   41.0850 C   0  0  0  0  0  0  0  0  0  0  0  0
   39.1640   31.4520   41.5960 N   0  0  0  0  0  0  0  0  0  0  0  0
   39.3548   29.0260   41.5415 H   0  0  0  0  0  0  0  0  0  0  0  0
   38.0830   28.0930   43.8342 H   0  0  0  0  0  0  0  0  0  0  0  0
   37.3421   29.4617   44.0377 H   0  0  0  0  0  0  0  0  0  0  0  0
   35.9274   28.5707   41.5823 H   0  0  0  0  0  0  0  0  0  0  0  0
   37.3847   26.3796   43.5819 H   0  0  0  0  0  0  0  0  0  0  0  0
   37.0696   23.9762   43.0749 H   0  0  0  0  0  0  0  0  0  0  0  0
   36.5361   23.2996   40.7426 H   0  0  0  0  0  0  0  0  0  0  0  0
   36.3453   24.9851   38.9753 H   0  0  0  0  0  0  0  0  0  0  0  0
   34.9968   26.8862   37.8979 H   0  0  0  0  0  0  0  0  0  0  0  0
   35.9269   28.3641   35.8742 H   0  0  0  0  0  0  0  0  0  0  0  0
   38.3338   29.1814   36.8061 H   0  0  0  0  0  0  0  0  0  0  0  0
   36.2375   30.1785   40.3865 H   0  0  0  0  0  0  0  0  0  0  0  0
   36.0961   32.4957   39.4724 H   0  0  0  0  0  0  0  0  0  0  0  0
   39.8574   33.4595   41.2793 H   0  0  0  0  0  0  0  0  0  0  0  0
  1  3  1  0
  1  2  1  0
  3  2  1  0
  4  3  1  0
  4  5  2  0
  6  5  1  0
  7  6  2  0
  8  9  2  0
  8  7  1  0
  9  4  1  0
 10  9  1  0
 11 10  2  0
 12 13  2  0
 12 11  1  0
 13 14  1  0
 14 10  1  0
 15 20  1  0
 15  1  1  0
 16 15  2  0
 17 18  2  0
 17 16  1  0
 18 19  1  0
 19 20  2  0
  1 21  1  1
  2 22  1  0
  2 23  1  0
  3 24  1  6
  5 25  1  0
  6 26  1  0
  7 27  1  0
  8 28  1  0
 11 29  1  0
 12 30  1  0
 13 31  1  0
 16 32  1  0
 17 33  1  0
 19 34  1  0
M  ISO  8  21  13  22  13  23  13  24  13  25  14  26  14  27  14  28  14
M  ISO  6  29  14  30  14  31  14  32  14  33  14  34  14
M  END
>  <minimizedAffinity>  (1) 
-5.25254488

>  <minimizedRMSD>  (1) 
0.898882627

$$$$
