
     RDKit          3D

 33 36  0  0  1  0  0  0  0  0999 V2000
   38.5600   29.8510   41.4680 C   0  0  1  0  0  0  0  0  0  0  0  0
   38.2020   29.5540   42.8680 C   0  0  0  0  0  0  0  0  0  0  0  0
   37.1910   29.1340   41.8920 C   0  0  2  0  0  0  0  0  0  0  0  0
   37.1470   27.7150   41.5150 C   0  0  0  0  0  0  0  0  0  0  0  0
   37.3730   26.6820   42.4100 C   0  0  0  0  0  0  0  0  0  0  0  0
   37.2250   25.3650   42.1320 C   0  0  0  0  0  0  0  0  0  0  0  0
   36.8200   25.0310   40.8610 C   0  0  0  0  0  0  0  0  0  0  0  0
   36.5850   26.0300   39.9390 C   0  0  0  0  0  0  0  0  0  0  0  0
   36.7570   27.4020   40.2920 C   0  0  0  0  0  0  0  0  0  0  0  0
   36.4060   28.1160   39.1230 N   0  0  0  0  0  0  0  0  0  0  0  0
   35.1620   28.6320   38.8640 C   0  0  0  0  0  0  0  0  0  0  0  0
   35.1400   29.2860   37.6780 N   0  0  0  0  0  0  0  0  0  0  0  0
   36.4080   29.1650   37.2030 C   0  0  0  0  0  0  0  0  0  0  0  0
   37.1810   28.4570   38.0730 N   0  0  0  0  0  0  0  0  0  0  0  0
   38.3660   31.2360   40.9370 C   0  0  0  0  0  0  0  0  0  0  0  0
   37.3560   31.4120   40.0060 C   0  0  0  0  0  0  0  0  0  0  0  0
   37.1390   32.6980   39.4980 C   0  0  0  0  0  0  0  0  0  0  0  0
   37.9330   33.7170   39.9430 N   0  0  0  0  0  0  0  0  0  0  0  0
   38.9010   33.5150   40.8420 C   0  0  0  0  0  0  0  0  0  0  0  0
   39.0780   32.2640   41.3070 N   0  0  0  0  0  0  0  0  0  0  0  0
   39.4461   29.6508   40.8477 H   0  0  0  0  0  0  0  0  0  0  0  0
   38.7700   28.7844   43.4112 H   0  0  0  0  0  0  0  0  0  0  0  0
   38.1460   30.1841   43.7679 H   0  0  0  0  0  0  0  0  0  0  0  0
   36.1085   29.3001   41.7889 H   0  0  0  0  0  0  0  0  0  0  0  0
   37.6979   26.9527   43.4255 H   0  0  0  0  0  0  0  0  0  0  0  0
   37.4207   24.5939   42.8917 H   0  0  0  0  0  0  0  0  0  0  0  0
   36.6845   23.9757   40.5817 H   0  0  0  0  0  0  0  0  0  0  0  0
   36.2617   25.7663   38.9212 H   0  0  0  0  0  0  0  0  0  0  0  0
   34.2947   28.5282   39.5326 H   0  0  0  0  0  0  0  0  0  0  0  0
   36.7611   29.5813   36.2480 H   0  0  0  0  0  0  0  0  0  0  0  0
   36.7402   30.5630   39.6743 H   0  0  0  0  0  0  0  0  0  0  0  0
   36.3473   32.8841   38.7574 H   0  0  0  0  0  0  0  0  0  0  0  0
   39.5332   34.3447   41.1910 H   0  0  0  0  0  0  0  0  0  0  0  0
  1  3  1  0
  1  2  1  0
  3  2  1  0
  4  3  1  0
  4  5  2  0
  6  5  1  0
  7  6  2  0
  8  9  2  0
  8  7  1  0
  9  4  1  0
 10  9  1  0
 11 10  1  0
 12 11  2  0
 13 12  1  0
 13 14  2  0
 14 10  1  0
 15 20  1  0
 15  1  1  0
 16 15  2  0
 17 18  2  0
 17 16  1  0
 18 19  1  0
 19 20  2  0
  1 21  1  6
  2 22  1  0
  2 23  1  0
  3 24  1  1
  5 25  1  0
  6 26  1  0
  7 27  1  0
  8 28  1  0
 11 29  1  0
 13 30  1  0
 16 31  1  0
 17 32  1  0
 19 33  1  0
M  ISO  8  21  13  22  13  23  13  24  13  25  14  26  14  27  14  28  14
M  ISO  5  29  14  30  14  31  14  32  14  33  14
M  END
>  <minimizedAffinity>  (1) 
-5.19237852

>  <minimizedRMSD>  (1) 
0.265413553

$$$$
