
     RDKit          3D

 32 35  0  0  1  0  0  0  0  0999 V2000
   38.4090   29.4010   41.5130 C   0  0  1  0  0  0  0  0  0  0  0  0
   37.8950   29.1070   42.8620 C   0  0  0  0  0  0  0  0  0  0  0  0
   37.0220   28.6650   41.7780 C   0  0  2  0  0  0  0  0  0  0  0  0
   37.0670   27.2280   41.3690 C   0  0  0  0  0  0  0  0  0  0  0  0
   37.1940   26.3210   42.4320 C   0  0  0  0  0  0  0  0  0  0  0  0
   36.9950   24.9840   42.2110 C   0  0  0  0  0  0  0  0  0  0  0  0
   36.6650   24.5610   40.9150 C   0  0  0  0  0  0  0  0  0  0  0  0
   36.5520   25.4660   39.8980 C   0  0  0  0  0  0  0  0  0  0  0  0
   36.7600   26.8270   40.1320 C   0  0  0  0  0  0  0  0  0  0  0  0
   36.6510   27.4670   38.8400 C   0  0  0  0  0  0  0  0  0  0  0  0
   35.4870   27.7620   38.2510 N   0  0  0  0  0  0  0  0  0  0  0  0
   35.6810   28.3050   37.1040 O   0  0  0  0  0  0  0  0  0  0  0  0
   36.9700   28.3830   36.9070 C   0  0  0  0  0  0  0  0  0  0  0  0
   37.5990   27.8670   37.9750 N   0  0  0  0  0  0  0  0  0  0  0  0
   38.1940   30.7960   40.9400 C   0  0  0  0  0  0  0  0  0  0  0  0
   37.2380   30.9640   39.8840 C   0  0  0  0  0  0  0  0  0  0  0  0
   37.0880   32.2280   39.3730 C   0  0  0  0  0  0  0  0  0  0  0  0
   37.8430   33.2540   39.8870 N   0  0  0  0  0  0  0  0  0  0  0  0
   38.7390   33.0500   40.8930 C   0  0  0  0  0  0  0  0  0  0  0  0
   38.9100   31.7890   41.4230 N   0  0  0  0  0  0  0  0  0  0  0  0
   39.3723   29.2212   41.0133 H   0  0  0  0  0  0  0  0  0  0  0  0
   38.4080   28.3516   43.4754 H   0  0  0  0  0  0  0  0  0  0  0  0
   37.7206   29.7403   43.7443 H   0  0  0  0  0  0  0  0  0  0  0  0
   35.9525   28.8052   41.5623 H   0  0  0  0  0  0  0  0  0  0  0  0
   37.4523   26.6821   43.4384 H   0  0  0  0  0  0  0  0  0  0  0  0
   37.0918   24.2580   43.0317 H   0  0  0  0  0  0  0  0  0  0  0  0
   36.4959   23.4924   40.7161 H   0  0  0  0  0  0  0  0  0  0  0  0
   36.2950   25.1198   38.8860 H   0  0  0  0  0  0  0  0  0  0  0  0
   37.4586   28.8017   36.0148 H   0  0  0  0  0  0  0  0  0  0  0  0
   36.6509   30.1164   39.5008 H   0  0  0  0  0  0  0  0  0  0  0  0
   36.3711   32.4180   38.5606 H   0  0  0  0  0  0  0  0  0  0  0  0
   39.3273   33.8936   41.2832 H   0  0  0  0  0  0  0  0  0  0  0  0
  1  3  1  0
  1  2  1  0
  3  2  1  0
  4  3  1  0
  4  5  2  0
  6  5  1  0
  7  6  2  0
  8  9  2  0
  8  7  1  0
  9  4  1  0
 10  9  1  0
 11 10  2  0
 12 11  1  0
 13 12  1  0
 13 14  2  0
 14 10  1  0
 15 20  1  0
 15  1  1  0
 16 15  2  0
 17 16  1  0
 17 18  2  0
 18 19  1  0
 19 20  2  0
  1 21  1  6
  2 22  1  0
  2 23  1  0
  3 24  1  1
  5 25  1  0
  6 26  1  0
  7 27  1  0
  8 28  1  0
 13 29  1  0
 16 30  1  0
 17 31  1  0
 19 32  1  0
M  ISO  8  21  13  22  13  23  13  24  13  25  14  26  14  27  14  28  14
M  ISO  4  29  14  30  14  31  14  32  14
M  END
>  <minimizedAffinity>  (1) 
-5.06552792

>  <minimizedRMSD>  (1) 
0.781457543

$$$$
