
     RDKit          3D

 17 18  0  0  0  0  0  0  0  0999 V2000
   37.4660   27.7660   43.6870 C   0  0  0  0  0  0  0  0  0  0  0  0
   38.8240   27.4480   43.8580 C   0  0  0  0  0  0  0  0  0  0  0  0
   39.3110   26.3100   43.2190 C   0  0  0  0  0  0  0  0  0  0  0  0
   38.4610   25.5610   42.4650 N   0  0  0  0  0  0  0  0  0  0  0  0
   37.1520   25.9020   42.3240 C   0  0  0  0  0  0  0  0  0  0  0  0
   36.6540   27.0030   42.9330 N   0  0  0  0  0  0  0  0  0  0  0  0
   40.6950   25.9270   43.3540 C   0  0  0  0  0  0  0  0  0  0  0  0
   41.6490   26.5620   44.1010 C   0  0  0  0  0  0  0  0  0  0  0  0
   42.8410   25.8770   43.9580 C   0  0  0  0  0  0  0  0  0  0  0  0
   42.5340   24.8490   43.1180 N   0  0  0  0  0  0  0  0  0  0  0  0
   41.2800   24.8760   42.7620 N   0  0  0  0  0  0  0  0  0  0  0  0
   37.0573   28.6597   44.1812 H   0  0  0  0  0  0  0  0  0  0  0  0
   39.4811   28.0772   44.4763 H   0  0  0  0  0  0  0  0  0  0  0  0
   36.4904   25.2755   41.7077 H   0  0  0  0  0  0  0  0  0  0  0  0
   41.4940   27.4639   44.7114 H   0  0  0  0  0  0  0  0  0  0  0  0
   43.8136   26.1085   44.4167 H   0  0  0  0  0  0  0  0  0  0  0  0
   43.2095   24.1381   42.8030 H   0  0  0  0  0  0  0  0  0  0  0  0
  1  2  2  0
  3  7  1  0
  3  2  1  0
  4  3  2  0
  5  4  1  0
  5  6  2  0
  6  1  1  0
  7  8  1  0
  9  8  2  0
 10  9  1  0
 11 10  1  0
 11  7  2  0
  1 12  1  0
  2 13  1  0
  5 14  1  0
  8 15  1  0
  9 16  1  0
 10 17  1  0
M  ISO  6  12  14  13  14  14  14  15  14  16  14  17   9
M  END
>  <minimizedAffinity>  (1) 
-3.68306923

>  <minimizedRMSD>  (1) 
4.94374037

$$$$
