
     RDKit          3D

 33 35  0  0  0  0  0  0  0  0999 V2000
   42.5330   27.6560   44.5130 C   0  0  0  0  0  0  0  0  0  0  0  0
   43.3750   28.7200   44.4190 C   0  0  0  0  0  0  0  0  0  0  0  0
   44.4610   28.4780   45.2350 C   0  0  0  0  0  0  0  0  0  0  0  0
   44.2140   27.2600   45.7920 N   0  0  0  0  0  0  0  0  0  0  0  0
   43.0770   26.7700   45.3670 N   0  0  0  0  0  0  0  0  0  0  0  0
   39.5640   28.2600   42.3330 C   0  0  0  0  0  0  0  0  0  0  0  0
   40.7880   28.4730   42.9730 C   0  0  0  0  0  0  0  0  0  0  0  0
   41.2770   27.4780   43.8340 C   0  0  0  0  0  0  0  0  0  0  0  0
   40.5370   26.3540   44.0070 N   0  0  0  0  0  0  0  0  0  0  0  0
   39.3500   26.1870   43.3620 C   0  0  0  0  0  0  0  0  0  0  0  0
   38.8580   27.1230   42.5330 N   0  0  0  0  0  0  0  0  0  0  0  0
   45.1520   26.6720   46.7170 C   0  0  0  0  0  0  0  0  0  0  0  0
   45.7560   27.6680   47.6720 C   0  0  0  0  0  0  0  0  0  0  0  0
   46.2970   26.8520   48.8360 C   0  0  0  0  0  0  0  0  0  0  0  0
   47.3020   25.8570   48.3460 C   0  0  0  0  0  0  0  0  0  0  0  0
   46.9070   25.0810   47.1440 C   0  0  0  0  0  0  0  0  0  0  0  0
   46.3280   25.9860   46.0550 C   0  0  0  0  0  0  0  0  0  0  0  0
   43.2178   29.6162   43.8009 H   0  0  0  0  0  0  0  0  0  0  0  0
   45.3343   29.1263   45.3995 H   0  0  0  0  0  0  0  0  0  0  0  0
   39.1676   29.0300   41.6548 H   0  0  0  0  0  0  0  0  0  0  0  0
   41.3558   29.4001   42.8057 H   0  0  0  0  0  0  0  0  0  0  0  0
   38.7784   25.2612   43.5237 H   0  0  0  0  0  0  0  0  0  0  0  0
   44.5243   25.9396   47.2457 H   0  0  0  0  0  0  0  0  0  0  0  0
   46.5699   28.2229   47.1824 H   0  0  0  0  0  0  0  0  0  0  0  0
   45.0144   28.4082   48.0070 H   0  0  0  0  0  0  0  0  0  0  0  0
   46.7767   27.5263   49.5607 H   0  0  0  0  0  0  0  0  0  0  0  0
   45.4651   26.3157   49.3160 H   0  0  0  0  0  0  0  0  0  0  0  0
   48.2277   26.4012   48.1076 H   0  0  0  0  0  0  0  0  0  0  0  0
   47.4131   25.1201   49.1551 H   0  0  0  0  0  0  0  0  0  0  0  0
   47.7927   24.5646   46.7455 H   0  0  0  0  0  0  0  0  0  0  0  0
   46.1315   24.3591   47.4399 H   0  0  0  0  0  0  0  0  0  0  0  0
   45.9954   25.3912   45.1915 H   0  0  0  0  0  0  0  0  0  0  0  0
   47.0680   26.7032   45.6704 H   0  0  0  0  0  0  0  0  0  0  0  0
  1  5  2  0
  2  1  1  0
  2  3  2  0
  3  4  1  0
  4 12  1  0
  5  4  1  0
  6 11  2  0
  6  7  1  0
  7  8  2  0
  8  9  1  0
  8  1  1  0
 10  9  2  0
 11 10  1  0
 12 13  1  0
 13 14  1  0
 15 14  1  0
 16 15  1  0
 17 12  1  0
 17 16  1  0
  2 18  1  0
  3 19  1  0
  6 20  1  0
  7 21  1  0
 10 22  1  0
 12 23  1  0
 13 24  1  0
 13 25  1  0
 14 26  1  0
 14 27  1  0
 15 28  1  0
 15 29  1  0
 16 30  1  0
 16 31  1  0
 17 32  1  0
 17 33  1  0
M  ISO  8  18  14  19  14  20  14  21  14  22  14  23  13  24  13  25  13
M  ISO  8  26  13  27  13  28  13  29  13  30  13  31  13  32  13  33  13
M  END
>  <minimizedAffinity>  (1) 
-4.03885174

>  <minimizedRMSD>  (1) 
4.37016106

$$$$
