
     RDKit          3D

 23 24  0  0  0  0  0  0  0  0999 V2000
   38.6900   28.1640   42.7270 C   0  0  0  0  0  0  0  0  0  0  0  0
   37.6000   27.3750   42.9280 C   0  0  0  0  0  0  0  0  0  0  0  0
   36.5140   27.9690   42.3210 C   0  0  0  0  0  0  0  0  0  0  0  0
   37.0260   29.1190   41.7710 N   0  0  0  0  0  0  0  0  0  0  0  0
   38.2970   29.2220   42.0150 N   0  0  0  0  0  0  0  0  0  0  0  0
   41.6300   26.5530   44.3810 C   0  0  0  0  0  0  0  0  0  0  0  0
   40.3180   26.7580   43.9480 C   0  0  0  0  0  0  0  0  0  0  0  0
   40.0260   27.8990   43.2010 C   0  0  0  0  0  0  0  0  0  0  0  0
   41.0250   28.7760   42.9150 N   0  0  0  0  0  0  0  0  0  0  0  0
   42.2980   28.5370   43.3590 C   0  0  0  0  0  0  0  0  0  0  0  0
   42.5910   27.4400   44.0800 N   0  0  0  0  0  0  0  0  0  0  0  0
   36.1290   30.0110   41.0370 C   0  0  0  0  0  0  0  0  0  0  0  0
   35.1140   29.2790   40.2280 C   0  0  0  0  0  0  0  0  0  0  0  0
   37.5874   26.4243   43.4811 H   0  0  0  0  0  0  0  0  0  0  0  0
   35.4763   27.6057   42.2853 H   0  0  0  0  0  0  0  0  0  0  0  0
   41.8771   25.6590   44.9724 H   0  0  0  0  0  0  0  0  0  0  0  0
   39.5285   26.0319   44.1920 H   0  0  0  0  0  0  0  0  0  0  0  0
   43.0962   29.2557   43.1216 H   0  0  0  0  0  0  0  0  0  0  0  0
   35.6044   30.6531   41.7599 H   0  0  0  0  0  0  0  0  0  0  0  0
   36.7457   30.5968   40.3395 H   0  0  0  0  0  0  0  0  0  0  0  0
   34.4076   28.7695   40.8999 H   0  0  0  0  0  0  0  0  0  0  0  0
   34.5672   29.9920   39.5935 H   0  0  0  0  0  0  0  0  0  0  0  0
   35.6179   28.5351   39.5935 H   0  0  0  0  0  0  0  0  0  0  0  0
  1  2  1  0
  1  8  1  0
  3  2  2  0
  4  5  1  0
  4  3  1  0
  5  1  2  0
  7  6  2  0
  8  7  1  0
  9  8  2  0
  9 10  1  0
 10 11  2  0
 11  6  1  0
 12  4  1  0
 13 12  1  0
  2 14  1  0
  3 15  1  0
  6 16  1  0
  7 17  1  0
 10 18  1  0
 12 19  1  0
 12 20  1  0
 13 21  1  0
 13 22  1  0
 13 23  1  0
M  ISO  8  14  14  15  14  16  14  17  14  18  14  19   8  20   8  21   8
M  ISO  2  22   8  23   8
M  END
>  <minimizedAffinity>  (1) 
-3.69812202

>  <minimizedRMSD>  (1) 
6.05528688

$$$$
