
     RDKit          3D

 33 35  0  0  0  0  0  0  0  0999 V2000
   38.6980   28.1420   42.7030 C   0  0  0  0  0  0  0  0  0  0  0  0
   37.5920   27.3880   42.9570 C   0  0  0  0  0  0  0  0  0  0  0  0
   36.5220   27.9660   42.3250 C   0  0  0  0  0  0  0  0  0  0  0  0
   37.0380   29.0660   41.7040 N   0  0  0  0  0  0  0  0  0  0  0  0
   38.3230   29.1570   41.9360 N   0  0  0  0  0  0  0  0  0  0  0  0
   41.6420   26.5740   44.3950 C   0  0  0  0  0  0  0  0  0  0  0  0
   40.3350   26.7660   43.9460 C   0  0  0  0  0  0  0  0  0  0  0  0
   40.0380   27.8960   43.1840 C   0  0  0  0  0  0  0  0  0  0  0  0
   41.0320   28.7770   42.9020 N   0  0  0  0  0  0  0  0  0  0  0  0
   42.3020   28.5470   43.3630 C   0  0  0  0  0  0  0  0  0  0  0  0
   42.5910   27.4620   44.0950 N   0  0  0  0  0  0  0  0  0  0  0  0
   36.1240   29.9010   40.9500 C   0  0  0  0  0  0  0  0  0  0  0  0
   34.9880   29.1800   40.3500 C   0  0  0  0  0  0  0  0  0  0  0  0
   34.9290   29.1210   38.8820 C   0  0  0  0  0  0  0  0  0  0  0  0
   33.9120   28.7460   38.0270 C   0  0  0  0  0  0  0  0  0  0  0  0
   34.0370   28.7460   36.6750 C   0  0  0  0  0  0  0  0  0  0  0  0
   35.1930   29.1210   36.0580 C   0  0  0  0  0  0  0  0  0  0  0  0
   36.2440   29.5060   36.8250 C   0  0  0  0  0  0  0  0  0  0  0  0
   36.0940   29.4990   38.1980 C   0  0  0  0  0  0  0  0  0  0  0  0
   37.5628   26.4720   43.5653 H   0  0  0  0  0  0  0  0  0  0  0  0
   35.4780   27.6197   42.3196 H   0  0  0  0  0  0  0  0  0  0  0  0
   41.8904   25.6881   44.9979 H   0  0  0  0  0  0  0  0  0  0  0  0
   39.5491   26.0359   44.1897 H   0  0  0  0  0  0  0  0  0  0  0  0
   43.0997   29.2669   43.1277 H   0  0  0  0  0  0  0  0  0  0  0  0
   35.7234   30.6697   41.6272 H   0  0  0  0  0  0  0  0  0  0  0  0
   36.7029   30.3215   40.1145 H   0  0  0  0  0  0  0  0  0  0  0  0
   35.0194   28.1452   40.7217 H   0  0  0  0  0  0  0  0  0  0  0  0
   34.0987   29.7555   40.6465 H   0  0  0  0  0  0  0  0  0  0  0  0
   32.9523   28.4314   38.4629 H   0  0  0  0  0  0  0  0  0  0  0  0
   33.1802   28.4342   36.0596 H   0  0  0  0  0  0  0  0  0  0  0  0
   35.2723   29.1117   34.9609 H   0  0  0  0  0  0  0  0  0  0  0  0
   37.1933   29.8164   36.3641 H   0  0  0  0  0  0  0  0  0  0  0  0
   36.9565   29.8149   38.8032 H   0  0  0  0  0  0  0  0  0  0  0  0
  1  2  1  0
  1  8  1  0
  3  2  2  0
  4  5  1  0
  4  3  1  0
  5  1  2  0
  7  6  2  0
  8  7  1  0
  9  8  2  0
  9 10  1  0
 10 11  2  0
 11  6  1  0
 12  4  1  0
 13 12  1  0
 14 13  1  0
 15 14  2  0
 16 15  1  0
 17 16  2  0
 17 18  1  0
 18 19  2  0
 19 14  1  0
  2 20  1  0
  3 21  1  0
  6 22  1  0
  7 23  1  0
 10 24  1  0
 12 25  1  0
 12 26  1  0
 13 27  1  0
 13 28  1  0
 15 29  1  0
 16 30  1  0
 17 31  1  0
 18 32  1  0
 19 33  1  0
M  ISO  8  20  14  21  14  22  14  23  14  24  14  25   8  26   8  27   8
M  ISO  6  28   8  29  14  30  14  31  14  32  14  33  14
M  END
>  <minimizedAffinity>  (1) 
-4.91340542

>  <minimizedRMSD>  (1) 
1.38860559

$$$$
