
     RDKit          3D

 33 35  0  0  0  0  0  0  0  0999 V2000
   38.7420   28.2410   42.7040 C   0  0  0  0  0  0  0  0  0  0  0  0
   37.6370   27.4350   42.7950 C   0  0  0  0  0  0  0  0  0  0  0  0
   36.5870   28.1170   42.2240 C   0  0  0  0  0  0  0  0  0  0  0  0
   37.1110   29.3070   41.8130 N   0  0  0  0  0  0  0  0  0  0  0  0
   38.3700   29.3660   42.0980 N   0  0  0  0  0  0  0  0  0  0  0  0
   41.6090   26.5090   44.3790 C   0  0  0  0  0  0  0  0  0  0  0  0
   40.3120   26.7650   43.9270 C   0  0  0  0  0  0  0  0  0  0  0  0
   40.0630   27.9180   43.1920 C   0  0  0  0  0  0  0  0  0  0  0  0
   41.0920   28.7710   42.9320 N   0  0  0  0  0  0  0  0  0  0  0  0
   42.3400   28.4780   43.3940 C   0  0  0  0  0  0  0  0  0  0  0  0
   42.5960   27.3710   44.1030 N   0  0  0  0  0  0  0  0  0  0  0  0
   36.2050   30.2350   41.1760 C   0  0  0  0  0  0  0  0  0  0  0  0
   35.3670   29.6650   40.1090 C   0  0  0  0  0  0  0  0  0  0  0  0
   35.8420   29.7620   38.7700 N   0  0  0  0  0  0  0  0  0  0  0  0
   36.9160   30.3330   38.2070 C   0  0  0  0  0  0  0  0  0  0  0  0
   37.1950   30.2980   36.8690 C   0  0  0  0  0  0  0  0  0  0  0  0
   36.3500   29.6450   35.9970 C   0  0  0  0  0  0  0  0  0  0  0  0
   36.5670   29.5880   34.7720 O   0  0  0  0  0  0  0  0  0  0  0  0
   35.2680   29.0680   36.5510 N   0  0  0  0  0  0  0  0  0  0  0  0
   35.0180   29.1200   37.8860 C   0  0  0  0  0  0  0  0  0  0  0  0
   33.9420   28.5100   38.2140 O   0  0  0  0  0  0  0  0  0  0  0  0
   37.5970   26.4304   43.2412 H   0  0  0  0  0  0  0  0  0  0  0  0
   35.5466   27.7751   42.1210 H   0  0  0  0  0  0  0  0  0  0  0  0
   41.8193   25.5998   44.9613 H   0  0  0  0  0  0  0  0  0  0  0  0
   39.4965   26.0614   44.1505 H   0  0  0  0  0  0  0  0  0  0  0  0
   43.1642   29.1735   43.1775 H   0  0  0  0  0  0  0  0  0  0  0  0
   35.5384   30.6440   41.9495 H   0  0  0  0  0  0  0  0  0  0  0  0
   36.8378   30.9939   40.6926 H   0  0  0  0  0  0  0  0  0  0  0  0
   35.2321   28.5965   40.3329 H   0  0  0  0  0  0  0  0  0  0  0  0
   34.4495   30.2716   40.1227 H   0  0  0  0  0  0  0  0  0  0  0  0
   37.6193   30.8648   38.8647 H   0  0  0  0  0  0  0  0  0  0  0  0
   38.0991   30.7938   36.4859 H   0  0  0  0  0  0  0  0  0  0  0  0
   34.6050   28.5687   35.9411 H   0  0  0  0  0  0  0  0  0  0  0  0
  1  2  1  0
  1  8  1  0
  3  2  2  0
  4  5  1  0
  4  3  1  0
  5  1  2  0
  7  6  2  0
  8  7  1  0
  9  8  2  0
  9 10  1  0
 10 11  2  0
 11  6  1  0
 12  4  1  0
 13 12  1  0
 14 13  1  0
 15 14  1  0
 16 15  2  0
 17 19  1  0
 17 16  1  0
 18 17  2  0
 19 20  1  0
 20 21  2  0
 20 14  1  0
  2 22  1  0
  3 23  1  0
  6 24  1  0
  7 25  1  0
 10 26  1  0
 12 27  1  0
 12 28  1  0
 13 29  1  0
 13 30  1  0
 15 31  1  0
 16 32  1  0
 19 33  1  0
M  ISO  8  22  14  23  14  24  14  25  14  26  14  27   8  28   8  29   8
M  ISO  4  30   8  31  14  32  14  33   9
M  END
>  <minimizedAffinity>  (1) 
-4.72604036

>  <minimizedRMSD>  (1) 
1.55486894

$$$$
