
     RDKit          3D

 30 32  0  0  0  0  0  0  0  0999 V2000
   38.7560   28.2390   42.7250 C   0  0  0  0  0  0  0  0  0  0  0  0
   37.6630   27.4290   42.7950 C   0  0  0  0  0  0  0  0  0  0  0  0
   36.6040   28.1400   42.2340 C   0  0  0  0  0  0  0  0  0  0  0  0
   37.1300   29.3370   41.8600 N   0  0  0  0  0  0  0  0  0  0  0  0
   38.3880   29.3940   42.1470 N   0  0  0  0  0  0  0  0  0  0  0  0
   41.6320   26.4970   44.3720 C   0  0  0  0  0  0  0  0  0  0  0  0
   40.3290   26.7580   43.9290 C   0  0  0  0  0  0  0  0  0  0  0  0
   40.0910   27.9330   43.1960 C   0  0  0  0  0  0  0  0  0  0  0  0
   41.1130   28.7760   42.9350 N   0  0  0  0  0  0  0  0  0  0  0  0
   42.3720   28.4850   43.3850 C   0  0  0  0  0  0  0  0  0  0  0  0
   42.6260   27.3680   44.0900 N   0  0  0  0  0  0  0  0  0  0  0  0
   36.2100   30.2660   41.2510 C   0  0  0  0  0  0  0  0  0  0  0  0
   35.5870   29.8050   39.9860 C   0  0  0  0  0  0  0  0  0  0  0  0
   36.3490   30.3310   38.8730 N   0  0  0  0  0  0  0  0  0  0  0  0
   36.3870   29.6870   37.6970 N   0  0  0  0  0  0  0  0  0  0  0  0
   37.1450   30.3390   36.8380 C   0  0  0  0  0  0  0  0  0  0  0  0
   37.6540   31.4760   37.4290 C   0  0  0  0  0  0  0  0  0  0  0  0
   37.1180   31.4130   38.6980 C   0  0  0  0  0  0  0  0  0  0  0  0
   37.6240   26.4122   43.2128 H   0  0  0  0  0  0  0  0  0  0  0  0
   35.5629   27.8041   42.1182 H   0  0  0  0  0  0  0  0  0  0  0  0
   41.8457   25.5848   44.9483 H   0  0  0  0  0  0  0  0  0  0  0  0
   39.5097   26.0582   44.1502 H   0  0  0  0  0  0  0  0  0  0  0  0
   43.1953   29.1805   43.1652 H   0  0  0  0  0  0  0  0  0  0  0  0
   35.4045   30.4686   41.9723 H   0  0  0  0  0  0  0  0  0  0  0  0
   36.8033   31.1551   40.9912 H   0  0  0  0  0  0  0  0  0  0  0  0
   35.5915   28.7056   39.9507 H   0  0  0  0  0  0  0  0  0  0  0  0
   34.5477   30.1609   39.9294 H   0  0  0  0  0  0  0  0  0  0  0  0
   37.3422   30.0229   35.8030 H   0  0  0  0  0  0  0  0  0  0  0  0
   38.3186   32.2392   36.9979 H   0  0  0  0  0  0  0  0  0  0  0  0
   37.3015   32.1664   39.4782 H   0  0  0  0  0  0  0  0  0  0  0  0
  1  2  1  0
  1  8  1  0
  3  2  2  0
  4  5  1  0
  4  3  1  0
  5  1  2  0
  7  6  2  0
  8  7  1  0
  9  8  2  0
  9 10  1  0
 10 11  2  0
 11  6  1  0
 12  4  1  0
 13 12  1  0
 14 13  1  0
 15 14  1  0
 16 17  1  0
 16 15  2  0
 17 18  2  0
 18 14  1  0
  2 19  1  0
  3 20  1  0
  6 21  1  0
  7 22  1  0
 10 23  1  0
 12 24  1  0
 12 25  1  0
 13 26  1  0
 13 27  1  0
 16 28  1  0
 17 29  1  0
 18 30  1  0
M  ISO  8  19  14  20  14  21  14  22  14  23  14  24   8  25   8  26   8
M  ISO  4  27   8  28  14  29  14  30  14
M  END
>  <minimizedAffinity>  (1) 
-4.34903288

>  <minimizedRMSD>  (1) 
1.67551386

$$$$
