
     RDKit          3D

 42 45  0  0  0  0  0  0  0  0999 V2000
   35.9530   30.0380   40.5610 C   0  0  0  0  0  0  0  0  0  0  0  0
   36.7470   30.6900   39.4960 C   0  0  0  0  0  0  0  0  0  0  0  0
   37.7030   31.6480   39.6440 C   0  0  0  0  0  0  0  0  0  0  0  0
   38.4010   32.2360   38.6240 C   0  0  0  0  0  0  0  0  0  0  0  0
   38.1500   31.8590   37.3210 C   0  0  0  0  0  0  0  0  0  0  0  0
   37.1870   30.8830   37.1060 C   0  0  0  0  0  0  0  0  0  0  0  0
   37.0620   30.5090   35.7770 C   0  0  0  0  0  0  0  0  0  0  0  0
   36.2060   29.5020   35.4930 C   0  0  0  0  0  0  0  0  0  0  0  0
   35.5070   28.9130   36.5320 C   0  0  0  0  0  0  0  0  0  0  0  0
   35.6320   29.2840   37.7850 C   0  0  0  0  0  0  0  0  0  0  0  0
   36.4960   30.3070   38.1660 C   0  0  0  0  0  0  0  0  0  0  0  0
   34.7960   28.6080   38.8050 C   0  0  0  0  0  0  0  0  0  0  0  0
   34.0830   27.6120   38.0160 F   0  0  0  0  0  0  0  0  0  0  0  0
   33.5370   29.1670   38.9790 F   0  0  0  0  0  0  0  0  0  0  0  0
   35.2230   27.5330   39.4670 F   0  0  0  0  0  0  0  0  0  0  0  0
   36.6700   30.0530   41.8960 C   0  0  0  0  0  0  0  0  0  0  0  0
   38.7220   27.3130   42.7350 C   0  0  0  0  0  0  0  0  0  0  0  0
   37.4910   26.7230   42.7810 C   0  0  0  0  0  0  0  0  0  0  0  0
   36.5760   27.7150   42.4510 C   0  0  0  0  0  0  0  0  0  0  0  0
   37.3160   28.8300   42.2300 N   0  0  0  0  0  0  0  0  0  0  0  0
   38.5730   28.6140   42.3900 N   0  0  0  0  0  0  0  0  0  0  0  0
   41.6450   25.0070   42.6140 C   0  0  0  0  0  0  0  0  0  0  0  0
   40.4150   25.5820   42.2760 C   0  0  0  0  0  0  0  0  0  0  0  0
   39.9900   26.6860   43.0240 C   0  0  0  0  0  0  0  0  0  0  0  0
   40.7560   27.1830   44.0490 N   0  0  0  0  0  0  0  0  0  0  0  0
   41.9540   26.5620   44.3190 C   0  0  0  0  0  0  0  0  0  0  0  0
   42.3860   25.5000   43.6170 N   0  0  0  0  0  0  0  0  0  0  0  0
   35.7622   28.9938   40.2725 H   0  0  0  0  0  0  0  0  0  0  0  0
   35.0133   30.5985   40.6746 H   0  0  0  0  0  0  0  0  0  0  0  0
   37.9335   31.9767   40.6681 H   0  0  0  0  0  0  0  0  0  0  0  0
   39.1574   33.0044   38.8419 H   0  0  0  0  0  0  0  0  0  0  0  0
   38.6943   32.3161   36.4815 H   0  0  0  0  0  0  0  0  0  0  0  0
   37.6365   31.0117   34.9850 H   0  0  0  0  0  0  0  0  0  0  0  0
   36.0679   29.1579   34.4574 H   0  0  0  0  0  0  0  0  0  0  0  0
   34.8123   28.0934   36.2963 H   0  0  0  0  0  0  0  0  0  0  0  0
   37.4303   30.8475   41.8693 H   0  0  0  0  0  0  0  0  0  0  0  0
   35.9005   30.2214   42.6638 H   0  0  0  0  0  0  0  0  0  0  0  0
   37.2690   25.6746   43.0291 H   0  0  0  0  0  0  0  0  0  0  0  0
   35.4825   27.6169   42.3833 H   0  0  0  0  0  0  0  0  0  0  0  0
   42.0098   24.1371   42.0482 H   0  0  0  0  0  0  0  0  0  0  0  0
   39.8048   25.1813   41.4531 H   0  0  0  0  0  0  0  0  0  0  0  0
   42.5796   26.9478   45.1374 H   0  0  0  0  0  0  0  0  0  0  0  0
  1 16  1  0
  2  3  2  0
  2  1  1  0
  4  3  1  0
  5  4  2  0
  6  5  1  0
  6 11  2  0
  7  6  1  0
  8  7  2  0
  8  9  1  0
  9 10  2  0
 10 11  1  0
 10 12  1  0
 11  2  1  0
 12 14  1  0
 12 15  1  0
 13 12  1  0
 16 20  1  0
 17 18  1  0
 17 24  1  0
 19 18  2  0
 20 21  1  0
 20 19  1  0
 21 17  2  0
 22 27  2  0
 23 22  1  0
 23 24  2  0
 24 25  1  0
 25 26  2  0
 27 26  1  0
  1 28  1  0
  1 29  1  0
  3 30  1  0
  4 31  1  0
  5 32  1  0
  7 33  1  0
  8 34  1  0
  9 35  1  0
 16 36  1  0
 16 37  1  0
 18 38  1  0
 19 39  1  0
 22 40  1  0
 23 41  1  0
 26 42  1  0
M  ISO  8  28   8  29   8  30  14  31  14  32  14  33  14  34  14  35  14
M  ISO  7  36   8  37   8  38  14  39  14  40  14  41  14  42  14
M  END
>  <minimizedAffinity>  (1) 
-5.80417299

>  <minimizedRMSD>  (1) 
1.9070102

$$$$
