
     RDKit          3D

 50 54  0  0  0  0  0  0  0  0999 V2000
   38.9000   30.6090   37.8830 C   0  0  0  0  0  0  0  0  0  0  0  0
   40.0730   31.3460   37.8630 C   0  0  0  0  0  0  0  0  0  0  0  0
   41.3150   30.8990   37.5020 C   0  0  0  0  0  0  0  0  0  0  0  0
   41.4600   29.5840   37.1110 C   0  0  0  0  0  0  0  0  0  0  0  0
   40.3380   28.7890   37.1050 C   0  0  0  0  0  0  0  0  0  0  0  0
   40.5500   27.5000   36.7110 C   0  0  0  0  0  0  0  0  0  0  0  0
   39.5110   26.6220   36.6700 C   0  0  0  0  0  0  0  0  0  0  0  0
   38.2490   27.0690   37.0330 C   0  0  0  0  0  0  0  0  0  0  0  0
   38.0960   28.3850   37.4220 C   0  0  0  0  0  0  0  0  0  0  0  0
   39.1090   29.2890   37.4780 C   0  0  0  0  0  0  0  0  0  0  0  0
   36.7210   28.5600   37.7140 N   0  0  0  0  0  0  0  0  0  0  0  0
   35.8830   28.4110   38.7680 C   0  0  0  0  0  0  0  0  0  0  0  0
   34.5260   28.5910   38.6790 C   0  0  0  0  0  0  0  0  0  0  0  0
   33.9280   28.9390   37.4890 C   0  0  0  0  0  0  0  0  0  0  0  0
   32.5160   29.0800   37.5930 N   0  0  0  0  0  0  0  0  0  0  0  0
   34.6850   29.1080   36.3850 N   0  0  0  0  0  0  0  0  0  0  0  0
   36.0290   28.9130   36.5490 C   0  0  0  0  0  0  0  0  0  0  0  0
   36.5930   29.1120   35.4140 O   0  0  0  0  0  0  0  0  0  0  0  0
   37.5570   31.0540   38.2590 C   0  0  0  0  0  0  0  0  0  0  0  0
   37.4860   31.6580   39.6500 C   0  0  0  0  0  0  0  0  0  0  0  0
   38.4380   29.2700   42.0850 C   0  0  0  0  0  0  0  0  0  0  0  0
   37.1110   29.4530   42.4070 C   0  0  0  0  0  0  0  0  0  0  0  0
   36.6310   30.3890   41.4910 C   0  0  0  0  0  0  0  0  0  0  0  0
   37.6840   30.7050   40.6880 N   0  0  0  0  0  0  0  0  0  0  0  0
   38.7250   30.0560   41.0360 N   0  0  0  0  0  0  0  0  0  0  0  0
   39.8340   26.4190   44.0440 C   0  0  0  0  0  0  0  0  0  0  0  0
   38.8990   27.2270   43.3930 C   0  0  0  0  0  0  0  0  0  0  0  0
   39.3690   28.4000   42.7620 C   0  0  0  0  0  0  0  0  0  0  0  0
   40.6840   28.7140   42.7960 N   0  0  0  0  0  0  0  0  0  0  0  0
   41.5550   27.8830   43.4510 C   0  0  0  0  0  0  0  0  0  0  0  0
   41.1360   26.7610   44.0610 N   0  0  0  0  0  0  0  0  0  0  0  0
   39.9982   32.3999   38.1691 H   0  0  0  0  0  0  0  0  0  0  0  0
   42.1819   31.5758   37.5232 H   0  0  0  0  0  0  0  0  0  0  0  0
   42.4409   29.1845   36.8138 H   0  0  0  0  0  0  0  0  0  0  0  0
   41.5603   27.1706   36.4266 H   0  0  0  0  0  0  0  0  0  0  0  0
   39.6686   25.5797   36.3556 H   0  0  0  0  0  0  0  0  0  0  0  0
   37.3858   26.3875   37.0114 H   0  0  0  0  0  0  0  0  0  0  0  0
   36.3114   28.1323   39.7421 H   0  0  0  0  0  0  0  0  0  0  0  0
   33.9038   28.4546   39.5758 H   0  0  0  0  0  0  0  0  0  0  0  0
   31.9618   29.3385   36.7642 H   0  0  0  0  0  0  0  0  0  0  0  0
   32.0480   28.9236   38.4971 H   0  0  0  0  0  0  0  0  0  0  0  0
   37.2253   31.8113   37.5334 H   0  0  0  0  0  0  0  0  0  0  0  0
   36.9099   30.1645   38.2593 H   0  0  0  0  0  0  0  0  0  0  0  0
   38.2624   32.4326   39.7344 H   0  0  0  0  0  0  0  0  0  0  0  0
   36.4739   32.0704   39.7749 H   0  0  0  0  0  0  0  0  0  0  0  0
   36.5485   28.9640   43.2160 H   0  0  0  0  0  0  0  0  0  0  0  0
   35.6087   30.7905   41.4298 H   0  0  0  0  0  0  0  0  0  0  0  0
   39.5044   25.4974   44.5460 H   0  0  0  0  0  0  0  0  0  0  0  0
   37.8324   26.9588   43.3724 H   0  0  0  0  0  0  0  0  0  0  0  0
   42.6240   28.1408   43.4782 H   0  0  0  0  0  0  0  0  0  0  0  0
  1 19  1  0
  2  1  2  0
  3  2  1  0
  4  3  2  0
  5  4  1  0
  5 10  2  0
  6  5  1  0
  7  6  2  0
  7  8  1  0
  8  9  2  0
  9 10  1  0
  9 11  1  0
 10  1  1  0
 11 12  1  0
 13 12  2  0
 14 15  1  0
 14 13  1  0
 16 17  1  0
 16 14  2  0
 17 11  1  0
 18 17  2  0
 19 20  1  0
 20 24  1  0
 21 22  1  0
 21 28  1  0
 23 22  2  0
 24 25  1  0
 24 23  1  0
 25 21  2  0
 26 31  2  0
 27 26  1  0
 28 29  1  0
 28 27  2  0
 29 30  2  0
 30 31  1  0
  2 32  1  0
  3 33  1  0
  4 34  1  0
  6 35  1  0
  7 36  1  0
  8 37  1  0
 12 38  1  0
 13 39  1  0
 15 40  1  0
 15 41  1  0
 19 42  1  0
 19 43  1  0
 20 44  1  0
 20 45  1  0
 22 46  1  0
 23 47  1  0
 26 48  1  0
 27 49  1  0
 30 50  1  0
M  ISO  8  32  14  33  14  34  14  35  14  36  14  37  14  38  14  39  14
M  ISO  8  42   8  43   8  44   8  45   8  46  14  47  14  48  14  49  14
M  ISO  1  50  14
M  END
>  <minimizedAffinity>  (1) 
-5.8021102

>  <minimizedRMSD>  (1) 
3.75861096

$$$$
