
     RDKit          3D

 40 43  0  0  0  0  0  0  0  0999 V2000
   35.2760   29.4570   40.0810 C   0  0  0  0  0  0  0  0  0  0  0  0
   35.8810   29.4320   38.7300 C   0  0  0  0  0  0  0  0  0  0  0  0
   37.2040   29.5760   38.3950 C   0  0  0  0  0  0  0  0  0  0  0  0
   37.7160   29.5630   37.1260 C   0  0  0  0  0  0  0  0  0  0  0  0
   36.8680   29.3930   36.0560 C   0  0  0  0  0  0  0  0  0  0  0  0
   35.5240   29.2400   36.3230 C   0  0  0  0  0  0  0  0  0  0  0  0
   34.7340   29.0710   35.2120 C   0  0  0  0  0  0  0  0  0  0  0  0
   33.3880   28.9090   35.3720 C   0  0  0  0  0  0  0  0  0  0  0  0
   32.8450   28.9170   36.6470 C   0  0  0  0  0  0  0  0  0  0  0  0
   33.6930   29.0900   37.7050 C   0  0  0  0  0  0  0  0  0  0  0  0
   35.0450   29.2590   37.6220 C   0  0  0  0  0  0  0  0  0  0  0  0
   33.0670   29.0830   38.9410 O   0  0  0  0  0  0  0  0  0  0  0  0
   36.1320   30.0540   41.1420 C   0  0  0  0  0  0  0  0  0  0  0  0
   38.6590   28.1560   42.7160 C   0  0  0  0  0  0  0  0  0  0  0  0
   37.5740   27.3260   42.8660 C   0  0  0  0  0  0  0  0  0  0  0  0
   36.4970   27.9820   42.2680 C   0  0  0  0  0  0  0  0  0  0  0  0
   37.0080   29.1420   41.8090 N   0  0  0  0  0  0  0  0  0  0  0  0
   38.2690   29.2720   42.0560 N   0  0  0  0  0  0  0  0  0  0  0  0
   41.5930   26.5540   44.3700 C   0  0  0  0  0  0  0  0  0  0  0  0
   40.2740   26.7480   43.9420 C   0  0  0  0  0  0  0  0  0  0  0  0
   40.0070   27.9060   43.1810 C   0  0  0  0  0  0  0  0  0  0  0  0
   41.0030   28.7760   42.8910 N   0  0  0  0  0  0  0  0  0  0  0  0
   42.2710   28.5280   43.3420 C   0  0  0  0  0  0  0  0  0  0  0  0
   42.5590   27.4390   44.0650 N   0  0  0  0  0  0  0  0  0  0  0  0
   35.0455   28.4213   40.3710 H   0  0  0  0  0  0  0  0  0  0  0  0
   34.3852   30.0982   40.0074 H   0  0  0  0  0  0  0  0  0  0  0  0
   37.9172   29.7143   39.2210 H   0  0  0  0  0  0  0  0  0  0  0  0
   38.7967   29.6874   36.9628 H   0  0  0  0  0  0  0  0  0  0  0  0
   37.2488   29.3796   35.0241 H   0  0  0  0  0  0  0  0  0  0  0  0
   35.1802   29.0663   34.2066 H   0  0  0  0  0  0  0  0  0  0  0  0
   32.7386   28.7730   34.4946 H   0  0  0  0  0  0  0  0  0  0  0  0
   31.7638   28.7880   36.8030 H   0  0  0  0  0  0  0  0  0  0  0  0
   33.6003   29.2014   39.7666 H   0  0  0  0  0  0  0  0  0  0  0  0
   36.7480   30.8391   40.6792 H   0  0  0  0  0  0  0  0  0  0  0  0
   35.4422   30.4296   41.9121 H   0  0  0  0  0  0  0  0  0  0  0  0
   37.5577   26.3425   43.3583 H   0  0  0  0  0  0  0  0  0  0  0  0
   35.4580   27.6295   42.1886 H   0  0  0  0  0  0  0  0  0  0  0  0
   41.8433   25.6635   44.9653 H   0  0  0  0  0  0  0  0  0  0  0  0
   39.4796   26.0282   44.1885 H   0  0  0  0  0  0  0  0  0  0  0  0
   43.0737   29.2415   43.1044 H   0  0  0  0  0  0  0  0  0  0  0  0
  1 13  1  0
  2  1  1  0
  3  2  2  0
  4  3  1  0
  5  6  1  0
  5  4  2  0
  6 11  2  0
  7  8  2  0
  7  6  1  0
  8  9  1  0
  9 10  2  0
 10 12  1  0
 11 10  1  0
 11  2  1  0
 13 17  1  0
 14 15  1  0
 14 21  1  0
 16 15  2  0
 17 18  1  0
 17 16  1  0
 18 14  2  0
 20 19  2  0
 21 20  1  0
 22 21  2  0
 22 23  1  0
 23 24  2  0
 24 19  1  0
  1 25  1  0
  1 26  1  0
  3 27  1  0
  4 28  1  0
  5 29  1  0
  7 30  1  0
  8 31  1  0
  9 32  1  0
 12 33  1  0
 13 34  1  0
 13 35  1  0
 15 36  1  0
 16 37  1  0
 19 38  1  0
 20 39  1  0
 23 40  1  0
M  ISO  8  25   8  26   8  27  14  28  14  29  14  30  14  31  14  32  14
M  ISO  8  33   3  34   8  35   8  36  14  37  14  38  14  39  14  40  14
M  END
>  <minimizedAffinity>  (1) 
-5.77477741

>  <minimizedRMSD>  (1) 
0.305620521

$$$$
