
     RDKit          3D

 52 56  0  0  0  0  0  0  0  0999 V2000
   36.1220   30.0650   41.0950 C   0  0  0  0  0  0  0  0  0  0  0  0
   38.6020   28.1610   42.6940 C   0  0  0  0  0  0  0  0  0  0  0  0
   37.5230   27.3140   42.7930 C   0  0  0  0  0  0  0  0  0  0  0  0
   36.4550   27.9730   42.1780 C   0  0  0  0  0  0  0  0  0  0  0  0
   36.9680   29.1410   41.7670 N   0  0  0  0  0  0  0  0  0  0  0  0
   38.2240   29.2920   42.0500 N   0  0  0  0  0  0  0  0  0  0  0  0
   41.5430   26.5080   44.2770 C   0  0  0  0  0  0  0  0  0  0  0  0
   40.2360   26.6870   43.8190 C   0  0  0  0  0  0  0  0  0  0  0  0
   39.9400   27.9190   43.1880 C   0  0  0  0  0  0  0  0  0  0  0  0
   40.9080   28.8650   43.0480 N   0  0  0  0  0  0  0  0  0  0  0  0
   42.1720   28.6090   43.5280 C   0  0  0  0  0  0  0  0  0  0  0  0
   42.4700   27.4590   44.1230 N   0  0  0  0  0  0  0  0  0  0  0  0
   43.1250   29.6490   43.3420 N   0  0  0  0  0  0  0  0  0  0  0  0
   44.4810   29.4600   42.8690 C   0  0  0  0  0  0  0  0  0  0  0  0
   45.0060   30.8630   42.6830 C   0  0  0  0  0  0  0  0  0  0  0  0
   44.1480   31.7700   43.5010 C   0  0  0  0  0  0  0  0  0  0  0  0
   42.8450   31.0530   43.6100 C   0  0  0  0  0  0  0  0  0  0  0  0
   35.2420   29.4950   40.0340 C   0  0  0  0  0  0  0  0  0  0  0  0
   35.8590   29.4160   38.6890 C   0  0  0  0  0  0  0  0  0  0  0  0
   37.1810   29.5520   38.3640 C   0  0  0  0  0  0  0  0  0  0  0  0
   37.6990   29.5380   37.1040 C   0  0  0  0  0  0  0  0  0  0  0  0
   36.8650   29.3770   36.0370 C   0  0  0  0  0  0  0  0  0  0  0  0
   35.5070   29.2320   36.2820 C   0  0  0  0  0  0  0  0  0  0  0  0
   34.7110   29.0830   35.1750 C   0  0  0  0  0  0  0  0  0  0  0  0
   33.3700   28.9390   35.3090 C   0  0  0  0  0  0  0  0  0  0  0  0
   32.8220   28.9410   36.5810 C   0  0  0  0  0  0  0  0  0  0  0  0
   33.6590   29.0920   37.6480 C   0  0  0  0  0  0  0  0  0  0  0  0
   35.0030   29.2470   37.5820 C   0  0  0  0  0  0  0  0  0  0  0  0
   33.0510   29.0670   38.8890 O   0  0  0  0  0  0  0  0  0  0  0  0
   35.4763   30.5394   41.8486 H   0  0  0  0  0  0  0  0  0  0  0  0
   36.7971   30.7620   40.5770 H   0  0  0  0  0  0  0  0  0  0  0  0
   37.5044   26.3190   43.2616 H   0  0  0  0  0  0  0  0  0  0  0  0
   35.4225   27.6130   42.0579 H   0  0  0  0  0  0  0  0  0  0  0  0
   41.8153   25.5655   44.7745 H   0  0  0  0  0  0  0  0  0  0  0  0
   39.4713   25.9061   43.9430 H   0  0  0  0  0  0  0  0  0  0  0  0
   45.0810   28.9140   43.6119 H   0  0  0  0  0  0  0  0  0  0  0  0
   44.5262   28.8666   41.9439 H   0  0  0  0  0  0  0  0  0  0  0  0
   46.0498   30.9227   43.0248 H   0  0  0  0  0  0  0  0  0  0  0  0
   44.9775   31.1520   41.6220 H   0  0  0  0  0  0  0  0  0  0  0  0
   44.5887   31.9293   44.4962 H   0  0  0  0  0  0  0  0  0  0  0  0
   44.0407   32.7663   43.0472 H   0  0  0  0  0  0  0  0  0  0  0  0
   42.1312   31.4464   42.8712 H   0  0  0  0  0  0  0  0  0  0  0  0
   42.3977   31.1876   44.6059 H   0  0  0  0  0  0  0  0  0  0  0  0
   34.9542   28.4779   40.3384 H   0  0  0  0  0  0  0  0  0  0  0  0
   34.3861   30.1798   39.9416 H   0  0  0  0  0  0  0  0  0  0  0  0
   37.8895   29.6846   39.1949 H   0  0  0  0  0  0  0  0  0  0  0  0
   38.7816   29.6556   36.9485 H   0  0  0  0  0  0  0  0  0  0  0  0
   37.2583   29.3625   35.0098 H   0  0  0  0  0  0  0  0  0  0  0  0
   35.1637   29.0804   34.1725 H   0  0  0  0  0  0  0  0  0  0  0  0
   32.7282   28.8226   34.4232 H   0  0  0  0  0  0  0  0  0  0  0  0
   31.7381   28.8237   36.7275 H   0  0  0  0  0  0  0  0  0  0  0  0
   33.5956   29.1705   39.7092 H   0  0  0  0  0  0  0  0  0  0  0  0
  1  5  1  0
  2  3  1  0
  2  9  1  0
  4  3  2  0
  5  6  1  0
  5  4  1  0
  6  2  2  0
  8  7  2  0
  9  8  1  0
 10  9  2  0
 10 11  1  0
 11 12  2  0
 12  7  1  0
 13 11  1  0
 13 17  1  0
 14 13  1  0
 15 14  1  0
 15 16  1  0
 16 17  1  0
 18  1  1  0
 19 18  1  0
 20 19  2  0
 21 20  1  0
 22 23  1  0
 22 21  2  0
 23 28  2  0
 24 25  2  0
 24 23  1  0
 25 26  1  0
 26 27  2  0
 27 29  1  0
 28 27  1  0
 28 19  1  0
  1 30  1  0
  1 31  1  0
  3 32  1  0
  4 33  1  0
  7 34  1  0
  8 35  1  0
 14 36  1  0
 14 37  1  0
 15 38  1  0
 15 39  1  0
 16 40  1  0
 16 41  1  0
 17 42  1  0
 17 43  1  0
 18 44  1  0
 18 45  1  0
 20 46  1  0
 21 47  1  0
 22 48  1  0
 24 49  1  0
 25 50  1  0
 26 51  1  0
 29 52  1  0
M  ISO  8  30   8  31   8  32  14  33  14  34  14  35  14  36  13  37  13
M  ISO  8  38  13  39  13  40  13  41  13  42  13  43  13  44   8  45   8
M  ISO  7  46  14  47  14  48  14  49  14  50  14  51  14  52   3
M  END
>  <minimizedAffinity>  (1) 
-6.25238514

>  <minimizedRMSD>  (1) 
0.257790208

$$$$
