
     RDKit          3D

 47 51  0  0  0  0  0  0  0  0999 V2000
   36.1630   30.0600   41.1190 C   0  0  0  0  0  0  0  0  0  0  0  0
   38.6500   28.1530   42.7030 C   0  0  0  0  0  0  0  0  0  0  0  0
   37.5730   27.3080   42.8020 C   0  0  0  0  0  0  0  0  0  0  0  0
   36.4990   27.9660   42.1940 C   0  0  0  0  0  0  0  0  0  0  0  0
   37.0140   29.1340   41.7870 N   0  0  0  0  0  0  0  0  0  0  0  0
   38.2690   29.2840   42.0640 N   0  0  0  0  0  0  0  0  0  0  0  0
   41.5910   26.5000   44.2920 C   0  0  0  0  0  0  0  0  0  0  0  0
   40.2820   26.6910   43.8310 C   0  0  0  0  0  0  0  0  0  0  0  0
   39.9890   27.9030   43.1950 C   0  0  0  0  0  0  0  0  0  0  0  0
   40.9600   28.8270   43.0500 N   0  0  0  0  0  0  0  0  0  0  0  0
   42.2200   28.5950   43.5150 C   0  0  0  0  0  0  0  0  0  0  0  0
   42.5230   27.4420   44.1280 N   0  0  0  0  0  0  0  0  0  0  0  0
   43.1010   29.7010   43.2610 N   0  0  0  0  0  0  0  0  0  0  0  0
   44.1670   29.6680   42.4750 N   0  0  0  0  0  0  0  0  0  0  0  0
   44.7660   30.8740   42.4620 C   0  0  0  0  0  0  0  0  0  0  0  0
   44.0480   31.7220   43.2800 C   0  0  0  0  0  0  0  0  0  0  0  0
   43.0140   30.9480   43.7610 C   0  0  0  0  0  0  0  0  0  0  0  0
   35.2740   29.4900   40.0640 C   0  0  0  0  0  0  0  0  0  0  0  0
   35.8880   29.4060   38.7210 C   0  0  0  0  0  0  0  0  0  0  0  0
   37.2070   29.5310   38.3940 C   0  0  0  0  0  0  0  0  0  0  0  0
   37.7280   29.5190   37.1350 C   0  0  0  0  0  0  0  0  0  0  0  0
   36.8760   29.3690   36.0550 C   0  0  0  0  0  0  0  0  0  0  0  0
   35.5230   29.2340   36.3170 C   0  0  0  0  0  0  0  0  0  0  0  0
   34.7380   29.0900   35.2040 C   0  0  0  0  0  0  0  0  0  0  0  0
   33.3830   28.9460   35.3500 C   0  0  0  0  0  0  0  0  0  0  0  0
   32.8420   28.9460   36.6200 C   0  0  0  0  0  0  0  0  0  0  0  0
   33.6840   29.0950   37.6820 C   0  0  0  0  0  0  0  0  0  0  0  0
   35.0330   29.2500   37.6190 C   0  0  0  0  0  0  0  0  0  0  0  0
   33.0760   29.0710   38.9310 O   0  0  0  0  0  0  0  0  0  0  0  0
   35.5233   30.5359   41.8768 H   0  0  0  0  0  0  0  0  0  0  0  0
   36.8354   30.7555   40.5955 H   0  0  0  0  0  0  0  0  0  0  0  0
   37.5576   26.3113   43.2671 H   0  0  0  0  0  0  0  0  0  0  0  0
   35.4661   27.6063   42.0766 H   0  0  0  0  0  0  0  0  0  0  0  0
   41.8552   25.5592   44.7970 H   0  0  0  0  0  0  0  0  0  0  0  0
   39.5123   25.9165   43.9640 H   0  0  0  0  0  0  0  0  0  0  0  0
   45.6719   31.1377   41.8965 H   0  0  0  0  0  0  0  0  0  0  0  0
   44.2547   32.7799   43.4993 H   0  0  0  0  0  0  0  0  0  0  0  0
   42.2326   31.2977   44.4518 H   0  0  0  0  0  0  0  0  0  0  0  0
   34.9828   28.4750   40.3723 H   0  0  0  0  0  0  0  0  0  0  0  0
   34.4185   30.1754   39.9734 H   0  0  0  0  0  0  0  0  0  0  0  0
   37.9168   29.6530   39.2255 H   0  0  0  0  0  0  0  0  0  0  0  0
   38.8115   29.6271   36.9792 H   0  0  0  0  0  0  0  0  0  0  0  0
   37.2601   29.3574   35.0243 H   0  0  0  0  0  0  0  0  0  0  0  0
   35.1912   29.0899   34.2017 H   0  0  0  0  0  0  0  0  0  0  0  0
   32.7358   28.8321   34.4679 H   0  0  0  0  0  0  0  0  0  0  0  0
   31.7588   28.8287   36.7714 H   0  0  0  0  0  0  0  0  0  0  0  0
   33.6230   29.1731   39.7498 H   0  0  0  0  0  0  0  0  0  0  0  0
  1  5  1  0
  2  3  1  0
  2  9  1  0
  4  3  2  0
  5  6  1  0
  5  4  1  0
  6  2  2  0
  8  7  2  0
  9  8  1  0
 10  9  2  0
 10 11  1  0
 11 12  2  0
 12  7  1  0
 13 11  1  0
 13 17  1  0
 14 13  1  0
 15 14  2  0
 15 16  1  0
 16 17  2  0
 18  1  1  0
 19 18  1  0
 20 19  2  0
 21 20  1  0
 22 23  1  0
 22 21  2  0
 23 28  2  0
 24 25  2  0
 24 23  1  0
 25 26  1  0
 26 27  2  0
 27 29  1  0
 28 27  1  0
 28 19  1  0
  1 30  1  0
  1 31  1  0
  3 32  1  0
  4 33  1  0
  7 34  1  0
  8 35  1  0
 15 36  1  0
 16 37  1  0
 17 38  1  0
 18 39  1  0
 18 40  1  0
 20 41  1  0
 21 42  1  0
 22 43  1  0
 24 44  1  0
 25 45  1  0
 26 46  1  0
 29 47  1  0
M  ISO  8  30   8  31   8  32  14  33  14  34  14  35  14  36  14  37  14
M  ISO  8  38  14  39   8  40   8  41  14  42  14  43  14  44  14  45  14
M  ISO  2  46  14  47   3
M  END
>  <minimizedAffinity>  (1) 
-6.22781754

>  <minimizedRMSD>  (1) 
0.254874766

$$$$
