
     RDKit          3D

 46 50  0  0  0  0  0  0  0  0999 V2000
   36.1230   30.0720   41.0950 C   0  0  0  0  0  0  0  0  0  0  0  0
   38.6100   28.1680   42.6890 C   0  0  0  0  0  0  0  0  0  0  0  0
   37.5310   27.3240   42.7990 C   0  0  0  0  0  0  0  0  0  0  0  0
   36.4560   27.9790   42.1890 C   0  0  0  0  0  0  0  0  0  0  0  0
   36.9660   29.1450   41.7670 N   0  0  0  0  0  0  0  0  0  0  0  0
   38.2280   29.2980   42.0390 N   0  0  0  0  0  0  0  0  0  0  0  0
   41.5410   26.5530   44.3350 C   0  0  0  0  0  0  0  0  0  0  0  0
   40.2310   26.7420   43.8780 C   0  0  0  0  0  0  0  0  0  0  0  0
   39.9500   27.9230   43.1780 C   0  0  0  0  0  0  0  0  0  0  0  0
   40.9360   28.8410   42.9640 N   0  0  0  0  0  0  0  0  0  0  0  0
   42.1960   28.5950   43.4380 C   0  0  0  0  0  0  0  0  0  0  0  0
   42.4860   27.4690   44.1100 N   0  0  0  0  0  0  0  0  0  0  0  0
   43.0950   29.6570   43.1220 N   0  0  0  0  0  0  0  0  0  0  0  0
   42.9240   30.8910   43.6270 C   0  0  0  0  0  0  0  0  0  0  0  0
   43.9140   31.6710   43.1590 N   0  0  0  0  0  0  0  0  0  0  0  0
   44.7030   30.9090   42.3570 C   0  0  0  0  0  0  0  0  0  0  0  0
   44.1670   29.6690   42.3570 N   0  0  0  0  0  0  0  0  0  0  0  0
   35.2420   29.4920   40.0350 C   0  0  0  0  0  0  0  0  0  0  0  0
   35.8640   29.4100   38.6860 C   0  0  0  0  0  0  0  0  0  0  0  0
   37.1850   29.5420   38.3670 C   0  0  0  0  0  0  0  0  0  0  0  0
   37.7060   29.5320   37.1120 C   0  0  0  0  0  0  0  0  0  0  0  0
   36.8670   29.3780   36.0340 C   0  0  0  0  0  0  0  0  0  0  0  0
   35.5220   29.2370   36.2890 C   0  0  0  0  0  0  0  0  0  0  0  0
   34.7220   29.0920   35.1720 C   0  0  0  0  0  0  0  0  0  0  0  0
   33.3740   28.9470   35.3070 C   0  0  0  0  0  0  0  0  0  0  0  0
   32.8240   28.9440   36.5790 C   0  0  0  0  0  0  0  0  0  0  0  0
   33.6640   29.0920   37.6500 C   0  0  0  0  0  0  0  0  0  0  0  0
   35.0080   29.2470   37.5810 C   0  0  0  0  0  0  0  0  0  0  0  0
   33.0550   29.0640   38.8900 O   0  0  0  0  0  0  0  0  0  0  0  0
   35.4781   30.5501   41.8470 H   0  0  0  0  0  0  0  0  0  0  0  0
   36.7962   30.7715   40.5778 H   0  0  0  0  0  0  0  0  0  0  0  0
   37.5157   26.3312   43.2724 H   0  0  0  0  0  0  0  0  0  0  0  0
   35.4227   27.6180   42.0799 H   0  0  0  0  0  0  0  0  0  0  0  0
   41.7953   25.6364   44.8875 H   0  0  0  0  0  0  0  0  0  0  0  0
   39.4498   25.9898   44.0620 H   0  0  0  0  0  0  0  0  0  0  0  0
   42.1165   31.2069   44.3038 H   0  0  0  0  0  0  0  0  0  0  0  0
   45.6017   31.2374   41.8143 H   0  0  0  0  0  0  0  0  0  0  0  0
   34.9582   28.4751   40.3439 H   0  0  0  0  0  0  0  0  0  0  0  0
   34.3820   30.1712   39.9398 H   0  0  0  0  0  0  0  0  0  0  0  0
   37.8911   29.6678   39.2010 H   0  0  0  0  0  0  0  0  0  0  0  0
   38.7895   29.6461   36.9601 H   0  0  0  0  0  0  0  0  0  0  0  0
   37.2564   29.3678   35.0053 H   0  0  0  0  0  0  0  0  0  0  0  0
   35.1751   29.0936   34.1697 H   0  0  0  0  0  0  0  0  0  0  0  0
   32.7325   28.8341   34.4206 H   0  0  0  0  0  0  0  0  0  0  0  0
   31.7401   28.8257   36.7245 H   0  0  0  0  0  0  0  0  0  0  0  0
   33.5989   29.1649   39.7110 H   0  0  0  0  0  0  0  0  0  0  0  0
  1  5  1  0
  2  3  1  0
  2  9  1  0
  4  3  2  0
  5  6  1  0
  5  4  1  0
  6  2  2  0
  8  7  2  0
  9  8  1  0
 10  9  2  0
 10 11  1  0
 11 12  2  0
 12  7  1  0
 13 11  1  0
 13 14  1  0
 15 14  2  0
 16 17  2  0
 16 15  1  0
 17 13  1  0
 18  1  1  0
 19 18  1  0
 20 19  2  0
 21 20  1  0
 22 23  1  0
 22 21  2  0
 23 28  2  0
 24 25  2  0
 24 23  1  0
 25 26  1  0
 26 27  2  0
 27 29  1  0
 28 27  1  0
 28 19  1  0
  1 30  1  0
  1 31  1  0
  3 32  1  0
  4 33  1  0
  7 34  1  0
  8 35  1  0
 14 36  1  0
 16 37  1  0
 18 38  1  0
 18 39  1  0
 20 40  1  0
 21 41  1  0
 22 42  1  0
 24 43  1  0
 25 44  1  0
 26 45  1  0
 29 46  1  0
M  ISO  8  30   8  31   8  32  14  33  14  34  14  35  14  36  14  37  14
M  ISO  8  38   8  39   8  40  14  41  14  42  14  43  14  44  14  45  14
M  ISO  1  46   3
M  END
>  <minimizedAffinity>  (1) 
-6.20551252

>  <minimizedRMSD>  (1) 
0.145669416

$$$$
