
     RDKit          3D

 29 31  0  0  0  0  0  0  0  0999 V2000
   36.9710   26.7170   41.4350 C   0  0  0  0  0  0  0  0  0  0  0  0
   37.2090   25.8660   40.3390 C   0  0  0  0  0  0  0  0  0  0  0  0
   37.3390   24.6160   40.9200 C   0  0  0  0  0  0  0  0  0  0  0  0
   37.1940   24.6920   42.2490 N   0  0  0  0  0  0  0  0  0  0  0  0
   36.9730   25.9630   42.5380 N   0  0  0  0  0  0  0  0  0  0  0  0
   37.6730   29.0860   41.8380 C   0  0  0  0  0  0  0  0  0  0  0  0
   36.7730   28.1520   41.2770 C   0  0  0  0  0  0  0  0  0  0  0  0
   35.6820   28.6030   40.5570 C   0  0  0  0  0  0  0  0  0  0  0  0
   35.5090   29.9610   40.4100 N   0  0  0  0  0  0  0  0  0  0  0  0
   36.3950   30.8360   40.9650 C   0  0  0  0  0  0  0  0  0  0  0  0
   37.4700   30.4040   41.6740 N   0  0  0  0  0  0  0  0  0  0  0  0
   37.5930   23.4940   40.0730 N   0  0  0  0  0  0  0  0  0  0  0  0
   37.0400   23.2310   38.7360 C   0  0  0  0  0  0  0  0  0  0  0  0
   36.3090   21.9210   39.0670 C   0  0  0  0  0  0  0  0  0  0  0  0
   37.5020   21.1620   39.6640 C   0  0  0  0  0  0  0  0  0  0  0  0
   38.3950   22.2840   40.1430 C   0  0  0  0  0  0  0  0  0  0  0  0
   37.2758   26.1313   39.2736 H   0  0  0  0  0  0  0  0  0  0  0  0
   37.2449   23.9103   42.9177 H   0  0  0  0  0  0  0  0  0  0  0  0
   38.5429   28.7327   42.4110 H   0  0  0  0  0  0  0  0  0  0  0  0
   34.9689   27.8934   40.1121 H   0  0  0  0  0  0  0  0  0  0  0  0
   36.2356   31.9167   40.8357 H   0  0  0  0  0  0  0  0  0  0  0  0
   37.8259   23.0909   37.9793 H   0  0  0  0  0  0  0  0  0  0  0  0
   36.4255   24.0321   38.2994 H   0  0  0  0  0  0  0  0  0  0  0  0
   35.4996   22.0676   39.7974 H   0  0  0  0  0  0  0  0  0  0  0  0
   35.7918   21.4296   38.2297 H   0  0  0  0  0  0  0  0  0  0  0  0
   37.1870   20.5199   40.4997 H   0  0  0  0  0  0  0  0  0  0  0  0
   37.9930   20.4842   38.9502 H   0  0  0  0  0  0  0  0  0  0  0  0
   39.2782   22.3731   39.4934 H   0  0  0  0  0  0  0  0  0  0  0  0
   38.7582   22.1007   41.1650 H   0  0  0  0  0  0  0  0  0  0  0  0
  1  5  2  0
  2  3  2  0
  2  1  1  0
  3  4  1  0
  4  5  1  0
  7  1  1  0
  7  6  2  0
  8  7  1  0
  9  8  2  0
  9 10  1  0
 10 11  2  0
 11  6  1  0
 12 16  1  0
 12  3  1  0
 13 14  1  0
 13 12  1  0
 14 15  1  0
 15 16  1  0
  2 17  1  0
  4 18  1  0
  6 19  1  0
  8 20  1  0
 10 21  1  0
 13 22  1  0
 13 23  1  0
 14 24  1  0
 14 25  1  0
 15 26  1  0
 15 27  1  0
 16 28  1  0
 16 29  1  0
M  ISO  8  17  14  18   9  19  14  20  14  21  14  22  13  23  13  24  13
M  ISO  5  25  13  26  13  27  13  28  13  29  13
M  END
>  <minimizedAffinity>  (1) 
-3.92936063

>  <minimizedRMSD>  (1) 
0.388089687

$$$$
