
     RDKit          3D

 47 51  0  0  0  0  0  0  0  0999 V2000
   36.1300   30.0860   41.0900 C   0  0  0  0  0  0  0  0  0  0  0  0
   38.6090   28.1730   42.6890 C   0  0  0  0  0  0  0  0  0  0  0  0
   37.5330   27.3360   42.7860 C   0  0  0  0  0  0  0  0  0  0  0  0
   36.4590   27.9830   42.1770 C   0  0  0  0  0  0  0  0  0  0  0  0
   36.9700   29.1560   41.7630 N   0  0  0  0  0  0  0  0  0  0  0  0
   38.2290   29.3070   42.0440 N   0  0  0  0  0  0  0  0  0  0  0  0
   41.5410   26.5530   44.3190 C   0  0  0  0  0  0  0  0  0  0  0  0
   40.2330   26.7430   43.8580 C   0  0  0  0  0  0  0  0  0  0  0  0
   39.9490   27.9360   43.1800 C   0  0  0  0  0  0  0  0  0  0  0  0
   40.9270   28.8530   42.9940 N   0  0  0  0  0  0  0  0  0  0  0  0
   42.1890   28.6120   43.4680 C   0  0  0  0  0  0  0  0  0  0  0  0
   42.4830   27.4800   44.1180 N   0  0  0  0  0  0  0  0  0  0  0  0
   43.2110   29.6260   43.2450 C   0  0  0  0  0  0  0  0  0  0  0  0
   42.9230   30.9260   43.6260 C   0  0  0  0  0  0  0  0  0  0  0  0
   44.0420   31.6870   43.3130 C   0  0  0  0  0  0  0  0  0  0  0  0
   44.9560   30.8580   42.7660 N   0  0  0  0  0  0  0  0  0  0  0  0
   44.4700   29.6270   42.7220 N   0  0  0  0  0  0  0  0  0  0  0  0
   35.2440   29.4980   40.0320 C   0  0  0  0  0  0  0  0  0  0  0  0
   35.8690   29.3960   38.6840 C   0  0  0  0  0  0  0  0  0  0  0  0
   37.1900   29.5220   38.3680 C   0  0  0  0  0  0  0  0  0  0  0  0
   37.7160   29.5150   37.1170 C   0  0  0  0  0  0  0  0  0  0  0  0
   36.8750   29.3710   36.0370 C   0  0  0  0  0  0  0  0  0  0  0  0
   35.5200   29.2370   36.2870 C   0  0  0  0  0  0  0  0  0  0  0  0
   34.7340   29.1040   35.1670 C   0  0  0  0  0  0  0  0  0  0  0  0
   33.3810   28.9650   35.3070 C   0  0  0  0  0  0  0  0  0  0  0  0
   32.8280   28.9570   36.5840 C   0  0  0  0  0  0  0  0  0  0  0  0
   33.6740   29.0950   37.6500 C   0  0  0  0  0  0  0  0  0  0  0  0
   35.0190   29.2460   37.5890 C   0  0  0  0  0  0  0  0  0  0  0  0
   33.0600   29.0590   38.8920 O   0  0  0  0  0  0  0  0  0  0  0  0
   35.4881   30.5699   41.8409 H   0  0  0  0  0  0  0  0  0  0  0  0
   36.8028   30.7844   40.5708 H   0  0  0  0  0  0  0  0  0  0  0  0
   37.5175   26.3412   43.2553 H   0  0  0  0  0  0  0  0  0  0  0  0
   35.4280   27.6173   42.0614 H   0  0  0  0  0  0  0  0  0  0  0  0
   41.7976   25.6271   44.8546 H   0  0  0  0  0  0  0  0  0  0  0  0
   39.4554   25.9825   44.0222 H   0  0  0  0  0  0  0  0  0  0  0  0
   41.9908   31.2854   44.0863 H   0  0  0  0  0  0  0  0  0  0  0  0
   44.1615   32.7676   43.4803 H   0  0  0  0  0  0  0  0  0  0  0  0
   45.8892   31.1399   42.4335 H   0  0  0  0  0  0  0  0  0  0  0  0
   34.9525   28.4868   40.3521 H   0  0  0  0  0  0  0  0  0  0  0  0
   34.3887   30.1817   39.9273 H   0  0  0  0  0  0  0  0  0  0  0  0
   37.8942   29.6402   39.2048 H   0  0  0  0  0  0  0  0  0  0  0  0
   38.8005   29.6230   36.9681 H   0  0  0  0  0  0  0  0  0  0  0  0
   37.2666   29.3627   35.0091 H   0  0  0  0  0  0  0  0  0  0  0  0
   35.1900   29.1094   34.1660 H   0  0  0  0  0  0  0  0  0  0  0  0
   32.7375   28.8608   34.4210 H   0  0  0  0  0  0  0  0  0  0  0  0
   31.7439   28.8432   36.7316 H   0  0  0  0  0  0  0  0  0  0  0  0
   33.6022   29.1519   39.7151 H   0  0  0  0  0  0  0  0  0  0  0  0
  1  5  1  0
  2  3  1  0
  2  9  1  0
  4  3  2  0
  5  6  1  0
  5  4  1  0
  6  2  2  0
  8  7  2  0
  9  8  1  0
 10  9  2  0
 10 11  1  0
 11 12  2  0
 12  7  1  0
 13 11  1  0
 13 14  1  0
 15 14  2  0
 16 15  1  0
 17 16  1  0
 17 13  2  0
 18  1  1  0
 19 18  1  0
 20 19  2  0
 21 20  1  0
 22 23  1  0
 22 21  2  0
 23 28  2  0
 24 25  2  0
 24 23  1  0
 25 26  1  0
 26 27  2  0
 27 29  1  0
 28 27  1  0
 28 19  1  0
  1 30  1  0
  1 31  1  0
  3 32  1  0
  4 33  1  0
  7 34  1  0
  8 35  1  0
 14 36  1  0
 15 37  1  0
 16 38  1  0
 18 39  1  0
 18 40  1  0
 20 41  1  0
 21 42  1  0
 22 43  1  0
 24 44  1  0
 25 45  1  0
 26 46  1  0
 29 47  1  0
M  ISO  8  30   8  31   8  32  14  33  14  34  14  35  14  36  14  37  14
M  ISO  8  38   9  39   8  40   8  41  14  42  14  43  14  44  14  45  14
M  ISO  2  46  14  47   3
M  END
>  <minimizedAffinity>  (1) 
-6.00220776

>  <minimizedRMSD>  (1) 
0.201021284

$$$$
