
     RDKit          3D

 45 49  0  0  0  0  0  0  0  0999 V2000
   35.9650   30.0050   40.9380 C   0  0  0  0  0  0  0  0  0  0  0  0
   38.4710   28.1960   42.6050 C   0  0  0  0  0  0  0  0  0  0  0  0
   37.4190   27.3240   42.7010 C   0  0  0  0  0  0  0  0  0  0  0  0
   36.3370   27.9330   42.0620 C   0  0  0  0  0  0  0  0  0  0  0  0
   36.8240   29.1160   41.6370 N   0  0  0  0  0  0  0  0  0  0  0  0
   38.0630   29.2960   41.9390 N   0  0  0  0  0  0  0  0  0  0  0  0
   41.4370   26.6750   44.2680 C   0  0  0  0  0  0  0  0  0  0  0  0
   40.1290   26.8090   43.7890 C   0  0  0  0  0  0  0  0  0  0  0  0
   39.8100   28.0000   43.1230 C   0  0  0  0  0  0  0  0  0  0  0  0
   40.7540   28.9680   42.9630 N   0  0  0  0  0  0  0  0  0  0  0  0
   42.0150   28.7750   43.4550 C   0  0  0  0  0  0  0  0  0  0  0  0
   42.3460   27.6390   44.0990 N   0  0  0  0  0  0  0  0  0  0  0  0
   42.9190   29.8930   43.2100 C   0  0  0  0  0  0  0  0  0  0  0  0
   42.3850   31.1180   43.3630 N   0  0  0  0  0  0  0  0  0  0  0  0
   43.2760   32.0260   43.1220 O   0  0  0  0  0  0  0  0  0  0  0  0
   44.3970   31.4330   42.8110 C   0  0  0  0  0  0  0  0  0  0  0  0
   44.2020   30.1000   42.8580 N   0  0  0  0  0  0  0  0  0  0  0  0
   35.1290   29.3900   39.8620 C   0  0  0  0  0  0  0  0  0  0  0  0
   35.7700   29.3490   38.5230 C   0  0  0  0  0  0  0  0  0  0  0  0
   37.0940   29.4840   38.2260 C   0  0  0  0  0  0  0  0  0  0  0  0
   37.6340   29.5210   36.9790 C   0  0  0  0  0  0  0  0  0  0  0  0
   36.8080   29.4160   35.8850 C   0  0  0  0  0  0  0  0  0  0  0  0
   35.4590   29.2770   36.1140 C   0  0  0  0  0  0  0  0  0  0  0  0
   34.6890   29.1830   34.9810 C   0  0  0  0  0  0  0  0  0  0  0  0
   33.3270   29.0390   35.0930 C   0  0  0  0  0  0  0  0  0  0  0  0
   32.7570   28.9900   36.3600 C   0  0  0  0  0  0  0  0  0  0  0  0
   33.5820   29.0880   37.4440 C   0  0  0  0  0  0  0  0  0  0  0  0
   34.9280   29.2380   37.4020 C   0  0  0  0  0  0  0  0  0  0  0  0
   32.9540   29.0140   38.6720 O   0  0  0  0  0  0  0  0  0  0  0  0
   35.2863   30.4651   41.6713 H   0  0  0  0  0  0  0  0  0  0  0  0
   36.6265   30.7219   40.4296 H   0  0  0  0  0  0  0  0  0  0  0  0
   37.4253   26.3370   43.1865 H   0  0  0  0  0  0  0  0  0  0  0  0
   35.3186   27.5373   41.9344 H   0  0  0  0  0  0  0  0  0  0  0  0
   41.7234   25.7537   44.7964 H   0  0  0  0  0  0  0  0  0  0  0  0
   39.3828   26.0131   43.9293 H   0  0  0  0  0  0  0  0  0  0  0  0
   45.3409   31.9361   42.5541 H   0  0  0  0  0  0  0  0  0  0  0  0
   34.8925   28.3579   40.1601 H   0  0  0  0  0  0  0  0  0  0  0  0
   34.2380   30.0268   39.7597 H   0  0  0  0  0  0  0  0  0  0  0  0
   37.7894   29.5710   39.0739 H   0  0  0  0  0  0  0  0  0  0  0  0
   38.7202   29.6337   36.8467 H   0  0  0  0  0  0  0  0  0  0  0  0
   37.2120   29.4422   34.8622 H   0  0  0  0  0  0  0  0  0  0  0  0
   35.1604   29.2228   33.9879 H   0  0  0  0  0  0  0  0  0  0  0  0
   32.6975   28.9637   34.1941 H   0  0  0  0  0  0  0  0  0  0  0  0
   31.6703   28.8753   36.4861 H   0  0  0  0  0  0  0  0  0  0  0  0
   33.4859   29.0772   39.5046 H   0  0  0  0  0  0  0  0  0  0  0  0
  1  5  1  0
  2  3  1  0
  2  9  1  0
  4  3  2  0
  5  6  1  0
  5  4  1  0
  6  2  2  0
  8  7  2  0
  9  8  1  0
 10  9  2  0
 10 11  1  0
 11 12  2  0
 12  7  1  0
 13 14  2  0
 13 11  1  0
 15 14  1  0
 16 17  2  0
 16 15  1  0
 17 13  1  0
 18  1  1  0
 19 18  1  0
 20 19  2  0
 21 20  1  0
 22 23  1  0
 22 21  2  0
 23 28  2  0
 24 25  2  0
 24 23  1  0
 25 26  1  0
 26 27  2  0
 27 29  1  0
 28 27  1  0
 28 19  1  0
  1 30  1  0
  1 31  1  0
  3 32  1  0
  4 33  1  0
  7 34  1  0
  8 35  1  0
 16 36  1  0
 18 37  1  0
 18 38  1  0
 20 39  1  0
 21 40  1  0
 22 41  1  0
 24 42  1  0
 25 43  1  0
 26 44  1  0
 29 45  1  0
M  ISO  8  30   8  31   8  32  14  33  14  34  14  35  14  36  14  37   8
M  ISO  8  38   8  39  14  40  14  41  14  42  14  43  14  44  14  45   3
M  END
>  <minimizedAffinity>  (1) 
-5.96417093

>  <minimizedRMSD>  (1) 
0.388999104

$$$$
