
     RDKit          3D

 42 45  0  0  0  0  0  0  0  0999 V2000
   35.2660   29.4960   40.0660 C   0  0  0  0  0  0  0  0  0  0  0  0
   35.8860   29.4100   38.7310 C   0  0  0  0  0  0  0  0  0  0  0  0
   37.2040   29.5380   38.4070 C   0  0  0  0  0  0  0  0  0  0  0  0
   37.7310   29.5270   37.1480 C   0  0  0  0  0  0  0  0  0  0  0  0
   36.8830   29.3740   36.0650 C   0  0  0  0  0  0  0  0  0  0  0  0
   35.5350   29.2360   36.3210 C   0  0  0  0  0  0  0  0  0  0  0  0
   34.7500   29.0900   35.2050 C   0  0  0  0  0  0  0  0  0  0  0  0
   33.3980   28.9440   35.3470 C   0  0  0  0  0  0  0  0  0  0  0  0
   32.8530   28.9450   36.6120 C   0  0  0  0  0  0  0  0  0  0  0  0
   33.6860   29.0950   37.6800 C   0  0  0  0  0  0  0  0  0  0  0  0
   35.0350   29.2510   37.6240 C   0  0  0  0  0  0  0  0  0  0  0  0
   33.0710   29.0710   38.9260 O   0  0  0  0  0  0  0  0  0  0  0  0
   36.1510   30.0650   41.1260 C   0  0  0  0  0  0  0  0  0  0  0  0
   38.6290   28.1450   42.7120 C   0  0  0  0  0  0  0  0  0  0  0  0
   37.5440   27.3320   42.8480 C   0  0  0  0  0  0  0  0  0  0  0  0
   36.4700   27.9930   42.2440 C   0  0  0  0  0  0  0  0  0  0  0  0
   36.9940   29.1370   41.8020 N   0  0  0  0  0  0  0  0  0  0  0  0
   38.2550   29.2710   42.0510 N   0  0  0  0  0  0  0  0  0  0  0  0
   41.5550   26.5330   44.3650 C   0  0  0  0  0  0  0  0  0  0  0  0
   40.2390   26.7360   43.9310 C   0  0  0  0  0  0  0  0  0  0  0  0
   39.9750   27.8920   43.1810 C   0  0  0  0  0  0  0  0  0  0  0  0
   40.9800   28.7640   42.9020 N   0  0  0  0  0  0  0  0  0  0  0  0
   42.2480   28.5090   43.3560 C   0  0  0  0  0  0  0  0  0  0  0  0
   42.5190   27.4090   44.0750 N   0  0  0  0  0  0  0  0  0  0  0  0
   43.2710   29.4450   43.0440 N   0  0  0  0  0  0  0  0  0  0  0  0
   34.9706   28.4819   40.3733 H   0  0  0  0  0  0  0  0  0  0  0  0
   34.4123   30.1831   39.9701 H   0  0  0  0  0  0  0  0  0  0  0  0
   37.9109   29.6621   39.2406 H   0  0  0  0  0  0  0  0  0  0  0  0
   38.8148   29.6382   36.9962 H   0  0  0  0  0  0  0  0  0  0  0  0
   37.2708   29.3629   35.0357 H   0  0  0  0  0  0  0  0  0  0  0  0
   35.2051   29.0904   34.2036 H   0  0  0  0  0  0  0  0  0  0  0  0
   32.7541   28.8273   34.4628 H   0  0  0  0  0  0  0  0  0  0  0  0
   31.7690   28.8273   36.7570 H   0  0  0  0  0  0  0  0  0  0  0  0
   33.6134   29.1741   39.7478 H   0  0  0  0  0  0  0  0  0  0  0  0
   36.7945   30.8230   40.6556 H   0  0  0  0  0  0  0  0  0  0  0  0
   35.4730   30.4635   41.8951 H   0  0  0  0  0  0  0  0  0  0  0  0
   37.5180   26.3473   43.3376 H   0  0  0  0  0  0  0  0  0  0  0  0
   35.4294   27.6479   42.1539 H   0  0  0  0  0  0  0  0  0  0  0  0
   41.7980   25.6367   44.9546 H   0  0  0  0  0  0  0  0  0  0  0  0
   39.4422   26.0161   44.1692 H   0  0  0  0  0  0  0  0  0  0  0  0
   44.2344   29.2828   43.3702 H   0  0  0  0  0  0  0  0  0  0  0  0
   43.0490   30.2856   42.4917 H   0  0  0  0  0  0  0  0  0  0  0  0
  1 13  1  0
  2  1  1  0
  3  2  2  0
  4  3  1  0
  5  6  1  0
  5  4  2  0
  6 11  2  0
  7  8  2  0
  7  6  1  0
  8  9  1  0
  9 10  2  0
 10 12  1  0
 11 10  1  0
 11  2  1  0
 13 17  1  0
 14 15  1  0
 14 21  1  0
 16 15  2  0
 17 18  1  0
 17 16  1  0
 18 14  2  0
 20 19  2  0
 21 20  1  0
 22 21  2  0
 22 23  1  0
 23 24  2  0
 24 19  1  0
 25 23  1  0
  1 26  1  0
  1 27  1  0
  3 28  1  0
  4 29  1  0
  5 30  1  0
  7 31  1  0
  8 32  1  0
  9 33  1  0
 12 34  1  0
 13 35  1  0
 13 36  1  0
 15 37  1  0
 16 38  1  0
 19 39  1  0
 20 40  1  0
 25 41  1  0
 25 42  1  0
M  ISO  8  26   8  27   8  28  14  29  14  30  14  31  14  32  14  33  14
M  ISO  7  34   3  35   8  36   8  37  14  38  14  39  14  40  14
M  END
>  <minimizedAffinity>  (1) 
-5.85162878

>  <minimizedRMSD>  (1) 
0.0386699848

$$$$
