
     RDKit          3D

 43 47  0  0  1  0  0  0  0  0999 V2000
   36.3190   22.9460   39.5280 N   0  0  0  0  0  0  0  0  0  0  0  0
   35.1210   23.4060   38.7650 C   0  0  0  0  0  0  0  0  0  0  0  0
   34.1580   22.3070   39.1740 C   0  0  0  0  0  0  0  0  0  0  0  0
   35.0160   21.1020   38.8040 C   0  0  0  0  0  0  0  0  0  0  0  0
   36.4100   21.7080   38.8260 C   0  0  2  0  0  0  0  0  0  0  0  0
   37.4390   20.7590   39.2090 C   0  0  0  0  0  0  0  0  0  0  0  0
   38.8110   20.7540   39.2480 C   0  0  0  0  0  0  0  0  0  0  0  0
   39.3520   19.6200   39.7250 N   0  0  0  0  0  0  0  0  0  0  0  0
   38.3260   18.8060   40.0300 C   0  0  0  0  0  0  0  0  0  0  0  0
   38.3030   17.5290   40.5510 C   0  0  0  0  0  0  0  0  0  0  0  0
   37.1090   16.8800   40.7840 C   0  0  0  0  0  0  0  0  0  0  0  0
   35.9290   17.5280   40.4890 C   0  0  0  0  0  0  0  0  0  0  0  0
   35.9660   18.8040   39.9690 C   0  0  0  0  0  0  0  0  0  0  0  0
   37.1690   19.4770   39.7250 C   0  0  0  0  0  0  0  0  0  0  0  0
   37.6430   25.4250   41.6940 C   0  0  0  0  0  0  0  0  0  0  0  0
   36.8770   25.0540   40.5850 C   0  0  0  0  0  0  0  0  0  0  0  0
   36.9850   23.6650   40.5520 C   0  0  0  0  0  0  0  0  0  0  0  0
   37.7470   23.2400   41.5490 N   0  0  0  0  0  0  0  0  0  0  0  0
   38.1400   24.2960   42.2330 N   0  0  0  0  0  0  0  0  0  0  0  0
   38.6270   27.7010   41.4010 C   0  0  0  0  0  0  0  0  0  0  0  0
   37.8140   26.8070   42.1150 C   0  0  0  0  0  0  0  0  0  0  0  0
   37.1500   27.2360   43.2610 C   0  0  0  0  0  0  0  0  0  0  0  0
   37.3190   28.5430   43.6570 N   0  0  0  0  0  0  0  0  0  0  0  0
   38.1220   29.3900   42.9330 C   0  0  0  0  0  0  0  0  0  0  0  0
   38.7620   28.9690   41.8230 N   0  0  0  0  0  0  0  0  0  0  0  0
   35.3001   23.4174   37.6797 H   0  0  0  0  0  0  0  0  0  0  0  0
   34.7885   24.4339   38.9722 H   0  0  0  0  0  0  0  0  0  0  0  0
   33.9280   22.3370   40.2493 H   0  0  0  0  0  0  0  0  0  0  0  0
   33.1634   22.3459   38.7057 H   0  0  0  0  0  0  0  0  0  0  0  0
   34.7602   20.7174   37.8057 H   0  0  0  0  0  0  0  0  0  0  0  0
   34.8906   20.2382   39.4735 H   0  0  0  0  0  0  0  0  0  0  0  0
   36.7785   21.9581   37.8202 H   0  0  0  0  0  0  0  0  0  0  0  0
   39.4184   21.6088   38.9158 H   0  0  0  0  0  0  0  0  0  0  0  0
   40.3553   19.4147   39.8353 H   0  0  0  0  0  0  0  0  0  0  0  0
   39.2506   17.0212   40.7839 H   0  0  0  0  0  0  0  0  0  0  0  0
   37.0984   15.8612   41.1987 H   0  0  0  0  0  0  0  0  0  0  0  0
   34.9643   17.0304   40.6673 H   0  0  0  0  0  0  0  0  0  0  0  0
   35.0175   19.3109   39.7378 H   0  0  0  0  0  0  0  0  0  0  0  0
   36.3187   25.7069   39.8980 H   0  0  0  0  0  0  0  0  0  0  0  0
   37.9890   22.2599   41.7531 H   0  0  0  0  0  0  0  0  0  0  0  0
   39.1534   27.3633   40.4961 H   0  0  0  0  0  0  0  0  0  0  0  0
   36.5086   26.5498   43.8335 H   0  0  0  0  0  0  0  0  0  0  0  0
   38.2455   30.4315   43.2648 H   0  0  0  0  0  0  0  0  0  0  0  0
  1 17  1  0
  2  3  1  0
  2  1  1  0
  4  5  1  0
  4  3  1  0
  5  6  1  0
  5  1  1  0
  6  7  2  0
  6 14  1  0
  7  8  1  0
  8  9  1  0
  9 10  2  0
 10 11  1  0
 12 11  2  0
 13 12  1  0
 14 13  2  0
 14  9  1  0
 15 21  1  0
 15 19  2  0
 16 15  1  0
 17 16  2  0
 17 18  1  0
 18 19  1  0
 20 25  2  0
 20 21  1  0
 21 22  2  0
 22 23  1  0
 24 23  2  0
 25 24  1  0
  2 26  1  0
  2 27  1  0
  3 28  1  0
  3 29  1  0
  4 30  1  0
  4 31  1  0
  5 32  1  6
  7 33  1  0
  8 34  1  0
 10 35  1  0
 11 36  1  0
 12 37  1  0
 13 38  1  0
 16 39  1  0
 18 40  1  0
 20 41  1  0
 22 42  1  0
 24 43  1  0
M  ISO  8  26  13  27  13  28  13  29  13  30  13  31  13  32  13  33  14
M  ISO  8  34   9  35  14  36  14  37  14  38  14  39  14  40   9  41  14
M  ISO  2  42  14  43  14
M  END
>  <minimizedAffinity>  (1) 
-5.10801554

>  <minimizedRMSD>  (1) 
3.12222028

$$$$
