
     RDKit          3D

 43 46  0  0  1  0  0  0  0  0999 V2000
   36.9490   27.5980   39.0490 N   0  0  0  0  0  0  0  0  0  0  0  0
   36.5300   27.6160   37.6210 C   0  0  0  0  0  0  0  0  0  0  0  0
   35.2980   26.7380   37.7280 C   0  0  0  0  0  0  0  0  0  0  0  0
   35.9610   25.5350   38.4400 C   0  0  0  0  0  0  0  0  0  0  0  0
   37.1430   26.1890   39.0780 C   0  0  2  0  0  0  0  0  0  0  0  0
   37.4720   30.8010   40.4920 C   0  0  0  0  0  0  0  0  0  0  0  0
   37.4950   29.9390   39.3820 C   0  0  0  0  0  0  0  0  0  0  0  0
   37.0530   28.7260   39.8980 C   0  0  0  0  0  0  0  0  0  0  0  0
   36.7900   28.8490   41.1930 N   0  0  0  0  0  0  0  0  0  0  0  0
   37.0410   30.0900   41.5430 N   0  0  0  0  0  0  0  0  0  0  0  0
   39.0430   32.6660   41.0540 C   0  0  0  0  0  0  0  0  0  0  0  0
   37.8720   32.2050   40.3890 C   0  0  0  0  0  0  0  0  0  0  0  0
   37.1150   33.0730   39.6480 C   0  0  0  0  0  0  0  0  0  0  0  0
   37.5150   34.3880   39.5650 N   0  0  0  0  0  0  0  0  0  0  0  0
   38.6310   34.8100   40.2030 C   0  0  0  0  0  0  0  0  0  0  0  0
   39.3970   33.9560   40.9470 N   0  0  0  0  0  0  0  0  0  0  0  0
   37.5720   25.5980   40.3020 N   0  0  0  0  0  0  0  0  0  0  0  0
   38.8590   24.9150   40.1560 C   0  0  0  0  0  0  0  0  0  0  0  0
   39.3090   24.5210   41.5470 C   0  0  0  0  0  0  0  0  0  0  0  0
   38.3230   23.8420   42.3230 N   0  0  0  0  0  0  0  0  0  0  0  0
   36.9910   24.4130   42.2490 C   0  0  0  0  0  0  0  0  0  0  0  0
   36.6690   24.5600   40.7800 C   0  0  0  0  0  0  0  0  0  0  0  0
   37.2933   27.1780   36.9610 H   0  0  0  0  0  0  0  0  0  0  0  0
   36.3655   28.6134   37.1874 H   0  0  0  0  0  0  0  0  0  0  0  0
   34.5073   27.2001   38.3373 H   0  0  0  0  0  0  0  0  0  0  0  0
   34.7764   26.5167   36.7852 H   0  0  0  0  0  0  0  0  0  0  0  0
   35.2909   25.0925   39.1917 H   0  0  0  0  0  0  0  0  0  0  0  0
   36.2145   24.6991   37.7714 H   0  0  0  0  0  0  0  0  0  0  0  0
   38.0474   25.9898   38.4843 H   0  0  0  0  0  0  0  0  0  0  0  0
   37.7926   30.1698   38.3485 H   0  0  0  0  0  0  0  0  0  0  0  0
   36.4488   28.1021   41.8148 H   0  0  0  0  0  0  0  0  0  0  0  0
   39.6524   31.9710   41.6503 H   0  0  0  0  0  0  0  0  0  0  0  0
   36.2078   32.7275   39.1307 H   0  0  0  0  0  0  0  0  0  0  0  0
   38.9293   35.8656   40.1212 H   0  0  0  0  0  0  0  0  0  0  0  0
   38.7426   24.0192   39.5283 H   0  0  0  0  0  0  0  0  0  0  0  0
   39.5995   25.5700   39.6737 H   0  0  0  0  0  0  0  0  0  0  0  0
   40.1832   23.8604   41.4500 H   0  0  0  0  0  0  0  0  0  0  0  0
   39.5313   25.4581   42.0785 H   0  0  0  0  0  0  0  0  0  0  0  0
   38.2724   22.8670   41.9947 H   0  0  0  0  0  0  0  0  0  0  0  0
   36.2635   23.7446   42.7326 H   0  0  0  0  0  0  0  0  0  0  0  0
   36.9444   25.3830   42.7657 H   0  0  0  0  0  0  0  0  0  0  0  0
   35.6211   24.8646   40.6418 H   0  0  0  0  0  0  0  0  0  0  0  0
   36.7956   23.6152   40.2311 H   0  0  0  0  0  0  0  0  0  0  0  0
  1  5  1  0
  1  8  1  0
  2  3  1  0
  2  1  1  0
  3  4  1  0
  4  5  1  0
  5 17  1  0
  6 10  2  0
  7  8  2  0
  7  6  1  0
  8  9  1  0
  9 10  1  0
 12  6  1  0
 12 11  2  0
 13 12  1  0
 14 13  2  0
 14 15  1  0
 15 16  2  0
 16 11  1  0
 17 22  1  0
 18 17  1  0
 18 19  1  0
 19 20  1  0
 21 20  1  0
 22 21  1  0
  2 23  1  0
  2 24  1  0
  3 25  1  0
  3 26  1  0
  4 27  1  0
  4 28  1  0
  5 29  1  6
  7 30  1  0
  9 31  1  0
 11 32  1  0
 13 33  1  0
 15 34  1  0
 18 35  1  0
 18 36  1  0
 19 37  1  0
 19 38  1  0
 20 39  1  0
 21 40  1  0
 21 41  1  0
 22 42  1  0
 22 43  1  0
M  ISO  8  23  13  24  13  25  13  26  13  27  13  28  13  29  13  30  14
M  ISO  8  31   9  32  14  33  14  34  14  35  13  36  13  37  13  38  13
M  ISO  5  39   5  40  13  41  13  42  13  43  13
M  END
>  <minimizedAffinity>  (1) 
-4.93231535

>  <minimizedRMSD>  (1) 
4.29300356

$$$$
