
     RDKit          3D

 39 42  0  0  1  0  0  0  0  0999 V2000
   35.1610   27.1440   36.6790 N   0  0  0  0  0  0  0  0  0  0  0  0
   34.5700   26.3150   35.6200 C   0  0  0  0  0  0  0  0  0  0  0  0
   35.5350   26.6530   34.5030 C   0  0  0  0  0  0  0  0  0  0  0  0
   35.4450   28.1890   34.5850 C   0  0  0  0  0  0  0  0  0  0  0  0
   34.9850   28.4140   35.9770 C   0  0  1  0  0  0  0  0  0  0  0  0
   33.6780   29.0050   36.1770 C   0  0  0  0  0  0  0  0  0  0  0  0
   32.9080   29.0800   37.3000 C   0  0  0  0  0  0  0  0  0  0  0  0
   31.6650   29.6820   37.3510 C   0  0  0  0  0  0  0  0  0  0  0  0
   31.1390   30.2520   36.2080 C   0  0  0  0  0  0  0  0  0  0  0  0
   31.8960   30.1910   35.0560 C   0  0  0  0  0  0  0  0  0  0  0  0
   33.1560   29.5810   35.0100 C   0  0  0  0  0  0  0  0  0  0  0  0
   36.4660   26.9520   39.9750 C   0  0  0  0  0  0  0  0  0  0  0  0
   35.9630   27.6860   38.8900 C   0  0  0  0  0  0  0  0  0  0  0  0
   35.6940   26.7240   37.9330 C   0  0  0  0  0  0  0  0  0  0  0  0
   36.0020   25.5120   38.3850 N   0  0  0  0  0  0  0  0  0  0  0  0
   36.4640   25.6690   39.6150 N   0  0  0  0  0  0  0  0  0  0  0  0
   37.0240   28.9820   41.3300 C   0  0  0  0  0  0  0  0  0  0  0  0
   36.8820   27.5890   41.2170 C   0  0  0  0  0  0  0  0  0  0  0  0
   37.1460   26.8050   42.3190 C   0  0  0  0  0  0  0  0  0  0  0  0
   37.5380   27.4150   43.4880 N   0  0  0  0  0  0  0  0  0  0  0  0
   37.6630   28.7610   43.5580 C   0  0  0  0  0  0  0  0  0  0  0  0
   37.4050   29.5490   42.4760 N   0  0  0  0  0  0  0  0  0  0  0  0
   34.5881   25.2447   35.8732 H   0  0  0  0  0  0  0  0  0  0  0  0
   33.5074   26.5016   35.4052 H   0  0  0  0  0  0  0  0  0  0  0  0
   35.1947   26.2687   33.5301 H   0  0  0  0  0  0  0  0  0  0  0  0
   36.5447   26.2267   34.5970 H   0  0  0  0  0  0  0  0  0  0  0  0
   36.4268   28.6538   34.4115 H   0  0  0  0  0  0  0  0  0  0  0  0
   34.7785   28.6285   33.8283 H   0  0  0  0  0  0  0  0  0  0  0  0
   35.6053   29.2191   36.3978 H   0  0  0  0  0  0  0  0  0  0  0  0
   33.3015   28.6326   38.2247 H   0  0  0  0  0  0  0  0  0  0  0  0
   31.0992   29.7070   38.2940 H   0  0  0  0  0  0  0  0  0  0  0  0
   30.1518   30.7372   36.2159 H   0  0  0  0  0  0  0  0  0  0  0  0
   31.4934   30.6399   34.1360 H   0  0  0  0  0  0  0  0  0  0  0  0
   33.7283   29.5542   34.0710 H   0  0  0  0  0  0  0  0  0  0  0  0
   35.8166   28.7738   38.8173 H   0  0  0  0  0  0  0  0  0  0  0  0
   35.9005   24.6224   37.8758 H   0  0  0  0  0  0  0  0  0  0  0  0
   36.8170   29.6177   40.4565 H   0  0  0  0  0  0  0  0  0  0  0  0
   37.0451   25.7110   42.2649 H   0  0  0  0  0  0  0  0  0  0  0  0
   37.9779   29.2266   44.5035 H   0  0  0  0  0  0  0  0  0  0  0  0
  1 14  1  0
  2  1  1  0
  3  4  1  0
  3  2  1  0
  4  5  1  0
  5  6  1  0
  5  1  1  0
  6  7  2  0
  7  8  1  0
  9  8  2  0
 10  9  1  0
 11 10  2  0
 11  6  1  0
 12 18  1  0
 13 12  1  0
 14 15  1  0
 14 13  2  0
 15 16  1  0
 16 12  2  0
 17 22  2  0
 18 17  1  0
 18 19  2  0
 19 20  1  0
 20 21  2  0
 22 21  1  0
  2 23  1  0
  2 24  1  0
  3 25  1  0
  3 26  1  0
  4 27  1  0
  4 28  1  0
  5 29  1  1
  7 30  1  0
  8 31  1  0
  9 32  1  0
 10 33  1  0
 11 34  1  0
 13 35  1  0
 15 36  1  0
 17 37  1  0
 19 38  1  0
 21 39  1  0
M  ISO  8  23  13  24  13  25  13  26  13  27  13  28  13  29  13  30  14
M  ISO  8  31  14  32  14  33  14  34  14  35  14  36   9  37  14  38  14
M  ISO  1  39  14
M  END
>  <minimizedAffinity>  (1) 
-4.80235577

>  <minimizedRMSD>  (1) 
7.25099182

$$$$
