
     RDKit          3D

 35 38  0  0  1  0  0  0  0  0999 V2000
   36.1930   28.8190   38.4680 N   0  0  0  0  0  0  0  0  0  0  0  0
   35.4740   28.8190   37.1760 C   0  0  0  0  0  0  0  0  0  0  0  0
   34.3860   27.8160   37.5360 C   0  0  0  0  0  0  0  0  0  0  0  0
   35.2920   26.6770   38.0480 C   0  0  0  0  0  0  0  0  0  0  0  0
   36.5520   27.4160   38.4190 C   0  0  2  0  0  0  0  0  0  0  0  0
   37.2680   31.7840   40.1100 C   0  0  0  0  0  0  0  0  0  0  0  0
   37.3600   30.8550   39.0490 C   0  0  0  0  0  0  0  0  0  0  0  0
   36.3820   29.9240   39.3500 C   0  0  0  0  0  0  0  0  0  0  0  0
   35.7530   30.2470   40.4770 N   0  0  0  0  0  0  0  0  0  0  0  0
   36.2970   31.3680   40.9230 N   0  0  0  0  0  0  0  0  0  0  0  0
   39.4620   32.8500   40.6330 C   0  0  0  0  0  0  0  0  0  0  0  0
   38.1310   32.9510   40.1960 C   0  0  0  0  0  0  0  0  0  0  0  0
   37.6230   34.1910   39.8330 C   0  0  0  0  0  0  0  0  0  0  0  0
   38.4460   35.2860   39.9170 N   0  0  0  0  0  0  0  0  0  0  0  0
   39.7250   35.1570   40.3420 C   0  0  0  0  0  0  0  0  0  0  0  0
   40.2440   33.9460   40.7030 N   0  0  0  0  0  0  0  0  0  0  0  0
   37.1940   26.9340   39.6070 N   0  0  0  0  0  0  0  0  0  0  0  0
   38.3790   26.3440   39.8160 C   0  0  0  0  0  0  0  0  0  0  0  0
   38.5680   26.0560   41.1330 N   0  0  0  0  0  0  0  0  0  0  0  0
   37.4370   26.4970   41.7390 C   0  0  0  0  0  0  0  0  0  0  0  0
   36.6340   27.0130   40.8200 N   0  0  0  0  0  0  0  0  0  0  0  0
   36.1066   28.4675   36.3476 H   0  0  0  0  0  0  0  0  0  0  0  0
   35.1263   29.7993   36.8181 H   0  0  0  0  0  0  0  0  0  0  0  0
   33.7138   28.1959   38.3195 H   0  0  0  0  0  0  0  0  0  0  0  0
   33.6925   27.5492   36.7249 H   0  0  0  0  0  0  0  0  0  0  0  0
   34.8498   26.1781   38.9229 H   0  0  0  0  0  0  0  0  0  0  0  0
   35.4507   25.8742   37.3129 H   0  0  0  0  0  0  0  0  0  0  0  0
   37.3321   27.2422   37.6632 H   0  0  0  0  0  0  0  0  0  0  0  0
   38.0457   30.8689   38.1890 H   0  0  0  0  0  0  0  0  0  0  0  0
   34.9854   29.7222   40.9200 H   0  0  0  0  0  0  0  0  0  0  0  0
   39.8694   31.8694   40.9203 H   0  0  0  0  0  0  0  0  0  0  0  0
   36.5842   34.2935   39.4859 H   0  0  0  0  0  0  0  0  0  0  0  0
   40.3632   36.0512   40.3981 H   0  0  0  0  0  0  0  0  0  0  0  0
   39.1076   26.1205   39.0228 H   0  0  0  0  0  0  0  0  0  0  0  0
   37.2221   26.4362   42.8161 H   0  0  0  0  0  0  0  0  0  0  0  0
  1  8  1  0
  2  3  1  0
  2  1  1  0
  3  4  1  0
  4  5  1  0
  5  1  1  0
  5 17  1  0
  6 12  1  0
  6 10  2  0
  7  8  2  0
  7  6  1  0
  8  9  1  0
  9 10  1  0
 11 16  2  0
 12 11  1  0
 13 14  1  0
 13 12  2  0
 14 15  2  0
 15 16  1  0
 17 18  1  0
 17 21  1  0
 18 19  2  0
 19 20  1  0
 21 20  2  0
  2 22  1  0
  2 23  1  0
  3 24  1  0
  3 25  1  0
  4 26  1  0
  4 27  1  0
  5 28  1  6
  7 29  1  0
  9 30  1  0
 11 31  1  0
 13 32  1  0
 15 33  1  0
 18 34  1  0
 20 35  1  0
M  ISO  8  22  13  23  13  24  13  25  13  26  13  27  13  28  13  29  14
M  ISO  6  30   9  31  14  32  14  33  14  34  14  35  14
M  END
>  <minimizedAffinity>  (1) 
-4.78741312

>  <minimizedRMSD>  (1) 
5.56967115

$$$$
