
     RDKit          3D

 42 46  0  0  1  0  0  0  0  0999 V2000
   36.8250   21.3690   39.1210 N   0  0  0  0  0  0  0  0  0  0  0  0
   35.6790   21.4670   38.1970 C   0  0  0  0  0  0  0  0  0  0  0  0
   34.7920   20.3960   38.8130 C   0  0  0  0  0  0  0  0  0  0  0  0
   35.8070   19.2540   38.8480 C   0  0  0  0  0  0  0  0  0  0  0  0
   37.1200   19.9990   38.7980 C   0  0  2  0  0  0  0  0  0  0  0  0
   38.1400   19.3930   39.5970 N   0  0  0  0  0  0  0  0  0  0  0  0
   38.0030   18.8270   40.8090 C   0  0  0  0  0  0  0  0  0  0  0  0
   39.2030   18.3930   41.1790 N   0  0  0  0  0  0  0  0  0  0  0  0
   40.1000   18.6770   40.2170 C   0  0  0  0  0  0  0  0  0  0  0  0
   41.4600   18.4030   40.1930 C   0  0  0  0  0  0  0  0  0  0  0  0
   42.1620   18.7870   39.1120 N   0  0  0  0  0  0  0  0  0  0  0  0
   41.5050   19.4210   38.0990 C   0  0  0  0  0  0  0  0  0  0  0  0
   40.1840   19.6850   38.1290 N   0  0  0  0  0  0  0  0  0  0  0  0
   39.4180   19.3280   39.1830 C   0  0  0  0  0  0  0  0  0  0  0  0
   42.0650   17.7330   41.3020 N   0  0  0  0  0  0  0  0  0  0  0  0
   37.4490   24.3590   40.9310 C   0  0  0  0  0  0  0  0  0  0  0  0
   36.6860   23.6200   40.0000 C   0  0  0  0  0  0  0  0  0  0  0  0
   37.3330   22.3920   39.9740 C   0  0  0  0  0  0  0  0  0  0  0  0
   38.3760   22.3870   40.8000 N   0  0  0  0  0  0  0  0  0  0  0  0
   38.4330   23.5750   41.3680 N   0  0  0  0  0  0  0  0  0  0  0  0
   37.1380   26.1940   42.6060 C   0  0  0  0  0  0  0  0  0  0  0  0
   37.1110   25.7460   41.2720 C   0  0  0  0  0  0  0  0  0  0  0  0
   36.7610   26.6220   40.2680 C   0  0  0  0  0  0  0  0  0  0  0  0
   36.4510   27.9100   40.6170 N   0  0  0  0  0  0  0  0  0  0  0  0
   36.4840   28.3160   41.9080 C   0  0  0  0  0  0  0  0  0  0  0  0
   36.8280   27.4620   42.9130 N   0  0  0  0  0  0  0  0  0  0  0  0
   35.9609   21.2251   37.1616 H   0  0  0  0  0  0  0  0  0  0  0  0
   35.2257   22.4651   38.1063 H   0  0  0  0  0  0  0  0  0  0  0  0
   34.4453   20.6734   39.8194 H   0  0  0  0  0  0  0  0  0  0  0  0
   33.8546   20.1857   38.2772 H   0  0  0  0  0  0  0  0  0  0  0  0
   35.7158   18.6665   39.7735 H   0  0  0  0  0  0  0  0  0  0  0  0
   35.6805   18.5233   38.0356 H   0  0  0  0  0  0  0  0  0  0  0  0
   37.5649   19.9550   37.7929 H   0  0  0  0  0  0  0  0  0  0  0  0
   37.0710   18.7396   41.3866 H   0  0  0  0  0  0  0  0  0  0  0  0
   42.0811   19.7318   37.2150 H   0  0  0  0  0  0  0  0  0  0  0  0
   43.0740   17.5265   41.2908 H   0  0  0  0  0  0  0  0  0  0  0  0
   41.4918   17.4569   42.1120 H   0  0  0  0  0  0  0  0  0  0  0  0
   35.7979   23.9389   39.4348 H   0  0  0  0  0  0  0  0  0  0  0  0
   39.0199   21.6002   40.9651 H   0  0  0  0  0  0  0  0  0  0  0  0
   37.4172   25.4944   43.4077 H   0  0  0  0  0  0  0  0  0  0  0  0
   36.7313   26.2970   39.2175 H   0  0  0  0  0  0  0  0  0  0  0  0
   36.2276   29.3577   42.1512 H   0  0  0  0  0  0  0  0  0  0  0  0
  1 18  1  0
  2  3  1  0
  2  1  1  0
  3  4  1  0
  5  4  1  0
  5  1  1  0
  5  6  1  0
  6  7  1  0
  7  8  2  0
  9  8  1  0
 10  9  2  0
 10 15  1  0
 11 10  1  0
 12 13  1  0
 12 11  2  0
 13 14  2  0
 14  6  1  0
 14  9  1  0
 16 22  1  0
 16 20  2  0
 17 16  1  0
 18 17  2  0
 18 19  1  0
 19 20  1  0
 21 26  2  0
 22 21  1  0
 23 24  1  0
 23 22  2  0
 24 25  2  0
 25 26  1  0
  2 27  1  0
  2 28  1  0
  3 29  1  0
  3 30  1  0
  4 31  1  0
  4 32  1  0
  5 33  1  6
  7 34  1  0
 12 35  1  0
 15 36  1  0
 15 37  1  0
 17 38  1  0
 19 39  1  0
 21 40  1  0
 23 41  1  0
 25 42  1  0
M  ISO  8  27  13  28  13  29  13  30  13  31  13  32  13  33  13  34  14
M  ISO  6  35  14  38  14  39   9  40  14  41  14  42  14
M  END
>  <minimizedAffinity>  (1) 
-4.62206841

>  <minimizedRMSD>  (1) 
3.0635767

$$$$
