
     RDKit          3D

 37 40  0  0  1  0  0  0  0  0999 V2000
   36.3320   23.0200   39.5270 N   0  0  0  0  0  0  0  0  0  0  0  0
   35.0790   23.4700   38.9270 C   0  0  0  0  0  0  0  0  0  0  0  0
   34.2000   22.2810   39.3020 C   0  0  0  0  0  0  0  0  0  0  0  0
   35.0980   21.1570   38.7350 C   0  0  0  0  0  0  0  0  0  0  0  0
   36.4440   21.8350   38.7030 C   0  0  2  0  0  0  0  0  0  0  0  0
   37.8170   25.2970   41.8170 C   0  0  0  0  0  0  0  0  0  0  0  0
   36.9610   25.0150   40.7300 C   0  0  0  0  0  0  0  0  0  0  0  0
   37.0880   23.6390   40.5710 C   0  0  0  0  0  0  0  0  0  0  0  0
   37.9330   23.1380   41.4670 N   0  0  0  0  0  0  0  0  0  0  0  0
   38.3570   24.1480   42.2040 N   0  0  0  0  0  0  0  0  0  0  0  0
   39.1710   27.3760   42.0980 C   0  0  0  0  0  0  0  0  0  0  0  0
   37.9880   26.6560   42.3290 C   0  0  0  0  0  0  0  0  0  0  0  0
   36.9740   27.2420   43.0490 C   0  0  0  0  0  0  0  0  0  0  0  0
   37.1450   28.5200   43.5260 N   0  0  0  0  0  0  0  0  0  0  0  0
   38.3030   29.1900   43.2840 C   0  0  0  0  0  0  0  0  0  0  0  0
   39.3240   28.6240   42.5700 N   0  0  0  0  0  0  0  0  0  0  0  0
   37.5840   20.9770   39.0010 C   0  0  0  0  0  0  0  0  0  0  0  0
   38.7860   20.8910   38.3240 C   0  0  0  0  0  0  0  0  0  0  0  0
   39.7580   20.0120   38.7560 C   0  0  0  0  0  0  0  0  0  0  0  0
   39.5560   19.2330   39.8310 N   0  0  0  0  0  0  0  0  0  0  0  0
   38.3770   19.3280   40.4830 C   0  0  0  0  0  0  0  0  0  0  0  0
   37.4100   20.1810   40.0800 N   0  0  0  0  0  0  0  0  0  0  0  0
   35.1637   23.5939   37.8373 H   0  0  0  0  0  0  0  0  0  0  0  0
   34.7173   24.4528   39.2636 H   0  0  0  0  0  0  0  0  0  0  0  0
   34.0606   22.1933   40.3896 H   0  0  0  0  0  0  0  0  0  0  0  0
   33.1671   22.3082   38.9248 H   0  0  0  0  0  0  0  0  0  0  0  0
   35.1066   20.2777   39.3959 H   0  0  0  0  0  0  0  0  0  0  0  0
   34.7683   20.7683   37.7602 H   0  0  0  0  0  0  0  0  0  0  0  0
   36.6887   22.1209   37.6694 H   0  0  0  0  0  0  0  0  0  0  0  0
   36.3426   25.7149   40.1489 H   0  0  0  0  0  0  0  0  0  0  0  0
   38.2051   22.1497   41.5671 H   0  0  0  0  0  0  0  0  0  0  0  0
   39.9846   26.9110   41.5219 H   0  0  0  0  0  0  0  0  0  0  0  0
   36.0387   26.6958   43.2408 H   0  0  0  0  0  0  0  0  0  0  0  0
   38.4222   30.2125   43.6718 H   0  0  0  0  0  0  0  0  0  0  0  0
   38.9675   21.5226   37.4419 H   0  0  0  0  0  0  0  0  0  0  0  0
   40.7120   19.9485   38.2120 H   0  0  0  0  0  0  0  0  0  0  0  0
   38.1996   18.6946   41.3647 H   0  0  0  0  0  0  0  0  0  0  0  0
  1  8  1  0
  2  3  1  0
  2  1  1  0
  4  3  1  0
  5  4  1  0
  5 17  1  0
  5  1  1  0
  6 10  2  0
  6 12  1  0
  7  6  1  0
  8  7  2  0
  8  9  1  0
  9 10  1  0
 11 12  2  0
 11 16  1  0
 12 13  1  0
 13 14  2  0
 15 14  1  0
 16 15  2  0
 17 22  2  0
 18 19  2  0
 18 17  1  0
 19 20  1  0
 20 21  2  0
 22 21  1  0
  2 23  1  0
  2 24  1  0
  3 25  1  0
  3 26  1  0
  4 27  1  0
  4 28  1  0
  5 29  1  6
  7 30  1  0
  9 31  1  0
 11 32  1  0
 13 33  1  0
 15 34  1  0
 18 35  1  0
 19 36  1  0
 21 37  1  0
M  ISO  8  23  13  24  13  25  13  26  13  27  13  28  13  29  13  30  14
M  ISO  7  31   9  32  14  33  14  34  14  35  14  36  14  37  14
M  END
>  <minimizedAffinity>  (1) 
-4.59573793

>  <minimizedRMSD>  (1) 
2.92885423

$$$$
