
     RDKit          3D

 38 41  0  0  1  0  0  0  0  0999 V2000
   36.0140   23.8830   38.9010 N   0  0  0  0  0  0  0  0  0  0  0  0
   35.2740   24.5660   37.8450 C   0  0  0  0  0  0  0  0  0  0  0  0
   34.0000   23.7030   37.8640 C   0  0  0  0  0  0  0  0  0  0  0  0
   34.6630   22.3220   37.7320 C   0  0  0  0  0  0  0  0  0  0  0  0
   36.0690   22.6260   38.1980 C   0  0  2  0  0  0  0  0  0  0  0  0
   37.2090   25.9270   41.5560 C   0  0  0  0  0  0  0  0  0  0  0  0
   36.8380   25.7430   40.2070 C   0  0  0  0  0  0  0  0  0  0  0  0
   36.4580   24.4180   40.1490 C   0  0  0  0  0  0  0  0  0  0  0  0
   36.5820   23.8360   41.3570 N   0  0  0  0  0  0  0  0  0  0  0  0
   37.0350   24.7580   42.1860 N   0  0  0  0  0  0  0  0  0  0  0  0
   38.9780   27.3310   42.6170 C   0  0  0  0  0  0  0  0  0  0  0  0
   37.6830   27.2100   42.0550 C   0  0  0  0  0  0  0  0  0  0  0  0
   36.8620   28.3130   41.9790 C   0  0  0  0  0  0  0  0  0  0  0  0
   37.3330   29.5080   42.4560 N   0  0  0  0  0  0  0  0  0  0  0  0
   38.5860   29.6020   42.9950 C   0  0  0  0  0  0  0  0  0  0  0  0
   39.4060   28.5210   43.0750 N   0  0  0  0  0  0  0  0  0  0  0  0
   36.7390   21.5430   38.9090 C   0  0  0  0  0  0  0  0  0  0  0  0
   36.0340   20.3560   38.9620 C   0  0  0  0  0  0  0  0  0  0  0  0
   36.5270   19.2410   39.5940 C   0  0  0  0  0  0  0  0  0  0  0  0
   37.7840   19.3950   40.1740 C   0  0  0  0  0  0  0  0  0  0  0  0
   38.4760   20.5900   40.1110 C   0  0  0  0  0  0  0  0  0  0  0  0
   37.9410   21.6510   39.4770 N   0  0  0  0  0  0  0  0  0  0  0  0
   35.7934   24.5169   36.8766 H   0  0  0  0  0  0  0  0  0  0  0  0
   35.1217   25.6457   37.9902 H   0  0  0  0  0  0  0  0  0  0  0  0
   33.4421   23.8072   38.8063 H   0  0  0  0  0  0  0  0  0  0  0  0
   33.2448   23.9467   37.1022 H   0  0  0  0  0  0  0  0  0  0  0  0
   34.1760   21.5775   38.3789 H   0  0  0  0  0  0  0  0  0  0  0  0
   34.6056   21.8880   36.7229 H   0  0  0  0  0  0  0  0  0  0  0  0
   36.7336   22.7193   37.3264 H   0  0  0  0  0  0  0  0  0  0  0  0
   36.8492   26.4825   39.3927 H   0  0  0  0  0  0  0  0  0  0  0  0
   36.3645   22.8566   41.5901 H   0  0  0  0  0  0  0  0  0  0  0  0
   39.6343   26.4504   42.6788 H   0  0  0  0  0  0  0  0  0  0  0  0
   35.8536   28.2366   41.5463 H   0  0  0  0  0  0  0  0  0  0  0  0
   38.9381   30.5735   43.3721 H   0  0  0  0  0  0  0  0  0  0  0  0
   35.0456   20.3023   38.4823 H   0  0  0  0  0  0  0  0  0  0  0  0
   35.9692   18.2940   39.6390 H   0  0  0  0  0  0  0  0  0  0  0  0
   38.2391   18.5411   40.6972 H   0  0  0  0  0  0  0  0  0  0  0  0
   39.4672   20.6747   40.5804 H   0  0  0  0  0  0  0  0  0  0  0  0
  1  8  1  0
  2  3  1  0
  2  1  1  0
  4  3  1  0
  4  5  1  0
  5  1  1  0
  5 17  1  0
  6 12  1  0
  6 10  2  0
  7  6  1  0
  8  7  2  0
  8  9  1  0
  9 10  1  0
 11 16  2  0
 12 11  1  0
 13 12  2  0
 13 14  1  0
 14 15  2  0
 15 16  1  0
 17 18  2  0
 17 22  1  0
 18 19  1  0
 19 20  2  0
 21 20  1  0
 22 21  2  0
  2 23  1  0
  2 24  1  0
  3 25  1  0
  3 26  1  0
  4 27  1  0
  4 28  1  0
  5 29  1  6
  7 30  1  0
  9 31  1  0
 11 32  1  0
 13 33  1  0
 15 34  1  0
 18 35  1  0
 19 36  1  0
 20 37  1  0
 21 38  1  0
M  ISO  8  23  13  24  13  25  13  26  13  27  13  28  13  29  13  30  14
M  ISO  8  31   9  32  14  33  14  34  14  35  14  36  14  37  14  38  14
M  END
>  <minimizedAffinity>  (1) 
-4.36585903

>  <minimizedRMSD>  (1) 
3.01388001

$$$$
