
     RDKit          3D

 39 42  0  0  1  0  0  0  0  0999 V2000
   37.3240   23.5200   39.8400 N   0  0  0  0  0  0  0  0  0  0  0  0
   36.5830   23.2490   38.6050 C   0  0  0  0  0  0  0  0  0  0  0  0
   35.9460   21.9140   39.0380 C   0  0  0  0  0  0  0  0  0  0  0  0
   37.2230   21.1840   39.4260 C   0  0  0  0  0  0  0  0  0  0  0  0
   38.1400   22.3410   39.7710 C   0  0  1  0  0  0  0  0  0  0  0  0
   39.2850   22.3930   38.9360 N   0  0  0  0  0  0  0  0  0  0  0  0
   39.8620   23.6330   38.9020 C   0  0  0  0  0  0  0  0  0  0  0  0
   41.0040   23.8220   38.1130 C   0  0  0  0  0  0  0  0  0  0  0  0
   41.5470   22.7850   37.3800 C   0  0  0  0  0  0  0  0  0  0  0  0
   42.5690   22.9100   36.6610 O   0  0  0  0  0  0  0  0  0  0  0  0
   40.9380   21.5760   37.4500 N   0  0  0  0  0  0  0  0  0  0  0  0
   39.8600   21.4350   38.2050 C   0  0  0  0  0  0  0  0  0  0  0  0
   39.3070   20.3310   38.2640 O   0  0  0  0  0  0  0  0  0  0  0  0
   36.9000   26.7090   41.3370 C   0  0  0  0  0  0  0  0  0  0  0  0
   37.0100   25.8990   40.1800 C   0  0  0  0  0  0  0  0  0  0  0  0
   37.1700   24.6310   40.7120 C   0  0  0  0  0  0  0  0  0  0  0  0
   37.1600   24.6620   42.0600 N   0  0  0  0  0  0  0  0  0  0  0  0
   36.9960   25.9230   42.4150 N   0  0  0  0  0  0  0  0  0  0  0  0
   37.6480   29.0410   41.8290 C   0  0  0  0  0  0  0  0  0  0  0  0
   36.7220   28.1570   41.2290 C   0  0  0  0  0  0  0  0  0  0  0  0
   35.6520   28.6620   40.5400 C   0  0  0  0  0  0  0  0  0  0  0  0
   35.5140   30.0330   40.4550 N   0  0  0  0  0  0  0  0  0  0  0  0
   36.4170   30.8530   41.0400 C   0  0  0  0  0  0  0  0  0  0  0  0
   37.4880   30.3710   41.7290 N   0  0  0  0  0  0  0  0  0  0  0  0
   37.2470   23.1331   37.7357 H   0  0  0  0  0  0  0  0  0  0  0  0
   35.8883   24.0342   38.2722 H   0  0  0  0  0  0  0  0  0  0  0  0
   35.2611   22.0364   39.8900 H   0  0  0  0  0  0  0  0  0  0  0  0
   35.3146   21.4154   38.2878 H   0  0  0  0  0  0  0  0  0  0  0  0
   37.0623   20.5264   40.2930 H   0  0  0  0  0  0  0  0  0  0  0  0
   37.6153   20.5193   38.6423 H   0  0  0  0  0  0  0  0  0  0  0  0
   38.6100   22.2192   40.7580 H   0  0  0  0  0  0  0  0  0  0  0  0
   39.4376   24.4652   39.4828 H   0  0  0  0  0  0  0  0  0  0  0  0
   41.4769   24.8145   38.0766 H   0  0  0  0  0  0  0  0  0  0  0  0
   41.3105   20.7747   36.9208 H   0  0  0  0  0  0  0  0  0  0  0  0
   36.9766   26.2019   39.1230 H   0  0  0  0  0  0  0  0  0  0  0  0
   37.2611   23.8553   42.6924 H   0  0  0  0  0  0  0  0  0  0  0  0
   38.5076   28.6358   42.3830 H   0  0  0  0  0  0  0  0  0  0  0  0
   34.9201   27.9916   40.0657 H   0  0  0  0  0  0  0  0  0  0  0  0
   36.2820   31.9415   40.9566 H   0  0  0  0  0  0  0  0  0  0  0  0
  1 16  1  0
  2  3  1  0
  2  1  1  0
  3  4  1  0
  4  5  1  0
  5  1  1  0
  6  5  1  0
  7  6  1  0
  8  7  2  0
  9 11  1  0
  9  8  1  0
 10  9  2  0
 11 12  1  0
 12 13  2  0
 12  6  1  0
 14 18  2  0
 15 16  2  0
 15 14  1  0
 16 17  1  0
 17 18  1  0
 20 14  1  0
 20 19  2  0
 21 20  1  0
 22 21  2  0
 22 23  1  0
 23 24  2  0
 24 19  1  0
  2 25  1  0
  2 26  1  0
  3 27  1  0
  3 28  1  0
  4 29  1  0
  4 30  1  0
  5 31  1  1
  7 32  1  0
  8 33  1  0
 11 34  1  0
 15 35  1  0
 17 36  1  0
 19 37  1  0
 21 38  1  0
 23 39  1  0
M  ISO  8  25  13  26  13  27  13  28  13  29  13  30  13  31  13  32  14
M  ISO  7  33  14  34   9  35  14  36   9  37  14  38  14  39  14
M  END
>  <minimizedAffinity>  (1) 
-4.35634232

>  <minimizedRMSD>  (1) 
0.632177413

$$$$
