
     RDKit          3D

 34 37  0  0  1  0  0  0  0  0999 V2000
   37.4040   23.5050   39.9410 N   0  0  0  0  0  0  0  0  0  0  0  0
   36.7910   23.2840   38.6210 C   0  0  0  0  0  0  0  0  0  0  0  0
   36.0260   22.0090   38.9390 C   0  0  0  0  0  0  0  0  0  0  0  0
   37.2040   21.1850   39.4900 C   0  0  0  0  0  0  0  0  0  0  0  0
   38.1590   22.2580   39.9370 C   0  0  1  0  0  0  0  0  0  0  0  0
   36.9270   26.7150   41.3820 C   0  0  0  0  0  0  0  0  0  0  0  0
   37.0770   25.8660   40.2630 C   0  0  0  0  0  0  0  0  0  0  0  0
   37.2260   24.6150   40.8190 C   0  0  0  0  0  0  0  0  0  0  0  0
   37.1750   24.6690   42.1480 N   0  0  0  0  0  0  0  0  0  0  0  0
   36.9940   25.9440   42.4650 N   0  0  0  0  0  0  0  0  0  0  0  0
   37.6640   29.0590   41.8320 C   0  0  0  0  0  0  0  0  0  0  0  0
   36.7390   28.1520   41.2450 C   0  0  0  0  0  0  0  0  0  0  0  0
   35.6630   28.6340   40.5470 C   0  0  0  0  0  0  0  0  0  0  0  0
   35.4990   29.9870   40.4280 N   0  0  0  0  0  0  0  0  0  0  0  0
   36.4030   30.8460   41.0010 C   0  0  0  0  0  0  0  0  0  0  0  0
   37.4660   30.3820   41.6900 N   0  0  0  0  0  0  0  0  0  0  0  0
   39.2830   22.3910   38.9510 C   0  0  0  0  0  0  0  0  0  0  0  0
   40.1160   23.3870   38.6730 N   0  0  0  0  0  0  0  0  0  0  0  0
   40.9190   23.0090   37.7310 O   0  0  0  0  0  0  0  0  0  0  0  0
   40.6650   21.7860   37.3550 C   0  0  0  0  0  0  0  0  0  0  0  0
   39.6200   21.3650   38.1210 N   0  0  0  0  0  0  0  0  0  0  0  0
   37.5445   23.1301   37.8345 H   0  0  0  0  0  0  0  0  0  0  0  0
   36.1894   24.1168   38.2280 H   0  0  0  0  0  0  0  0  0  0  0  0
   35.2417   22.1707   39.6931 H   0  0  0  0  0  0  0  0  0  0  0  0
   35.4701   21.5582   38.1037 H   0  0  0  0  0  0  0  0  0  0  0  0
   36.8893   20.5539   40.3342 H   0  0  0  0  0  0  0  0  0  0  0  0
   37.6353   20.4862   38.7581 H   0  0  0  0  0  0  0  0  0  0  0  0
   38.5786   22.0183   40.9252 H   0  0  0  0  0  0  0  0  0  0  0  0
   37.0752   26.1399   39.1976 H   0  0  0  0  0  0  0  0  0  0  0  0
   37.2594   23.8771   42.8011 H   0  0  0  0  0  0  0  0  0  0  0  0
   38.5309   28.6832   42.3953 H   0  0  0  0  0  0  0  0  0  0  0  0
   34.9408   27.9425   40.0885 H   0  0  0  0  0  0  0  0  0  0  0  0
   36.2584   31.9314   40.8967 H   0  0  0  0  0  0  0  0  0  0  0  0
   41.1886   21.2110   36.5770 H   0  0  0  0  0  0  0  0  0  0  0  0
  1  8  1  0
  2  3  1  0
  2  1  1  0
  3  4  1  0
  4  5  1  0
  5  1  1  0
  6 10  2  0
  7  8  2  0
  7  6  1  0
  8  9  1  0
  9 10  1  0
 12  6  1  0
 12 11  2  0
 13 12  1  0
 14 13  2  0
 14 15  1  0
 15 16  2  0
 16 11  1  0
 17  5  1  0
 18 17  2  0
 19 18  1  0
 20 19  1  0
 20 21  2  0
 21 17  1  0
  2 22  1  0
  2 23  1  0
  3 24  1  0
  3 25  1  0
  4 26  1  0
  4 27  1  0
  5 28  1  1
  7 29  1  0
  9 30  1  0
 11 31  1  0
 13 32  1  0
 15 33  1  0
 20 34  1  0
M  ISO  8  22  13  23  13  24  13  25  13  26  13  27  13  28  13  29  14
M  ISO  5  30   9  31  14  32  14  33  14  34  14
M  END
>  <minimizedAffinity>  (1) 
-4.13737059

>  <minimizedRMSD>  (1) 
0.32380262

$$$$
