
     RDKit          3D

 40 44  0  0  1  0  0  0  0  0999 V2000
   37.7440   24.0680   38.8890 N   0  0  0  0  0  0  0  0  0  0  0  0
   38.3100   22.8340   38.2990 C   0  0  0  0  0  0  0  0  0  0  0  0
   37.7710   21.8340   39.3180 C   0  0  0  0  0  0  0  0  0  0  0  0
   38.3030   22.5110   40.5930 C   0  0  0  0  0  0  0  0  0  0  0  0
   38.4590   23.9420   40.1430 C   0  0  2  0  0  0  0  0  0  0  0  0
   38.0030   24.8140   41.1810 N   0  0  0  0  0  0  0  0  0  0  0  0
   36.9080   24.8120   41.9660 C   0  0  0  0  0  0  0  0  0  0  0  0
   36.9100   25.8580   42.8170 N   0  0  0  0  0  0  0  0  0  0  0  0
   38.0330   26.5790   42.6000 C   0  0  0  0  0  0  0  0  0  0  0  0
   38.5360   27.7230   43.1730 C   0  0  0  0  0  0  0  0  0  0  0  0
   39.7210   28.2080   42.7180 N   0  0  0  0  0  0  0  0  0  0  0  0
   40.3850   27.5630   41.7150 C   0  0  0  0  0  0  0  0  0  0  0  0
   39.8830   26.4350   41.1550 N   0  0  0  0  0  0  0  0  0  0  0  0
   38.6960   25.9190   41.5850 C   0  0  0  0  0  0  0  0  0  0  0  0
   36.1590   26.6730   37.0860 C   0  0  0  0  0  0  0  0  0  0  0  0
   37.3190   26.0020   37.5160 C   0  0  0  0  0  0  0  0  0  0  0  0
   36.8210   24.9610   38.2890 C   0  0  0  0  0  0  0  0  0  0  0  0
   35.4920   24.9950   38.3240 N   0  0  0  0  0  0  0  0  0  0  0  0
   35.1000   26.0240   37.6030 N   0  0  0  0  0  0  0  0  0  0  0  0
   36.6900   29.0880   36.6910 C   0  0  0  0  0  0  0  0  0  0  0  0
   36.2000   27.8560   36.2330 C   0  0  0  0  0  0  0  0  0  0  0  0
   35.7400   27.7530   34.9370 C   0  0  0  0  0  0  0  0  0  0  0  0
   35.7760   28.8640   34.1290 N   0  0  0  0  0  0  0  0  0  0  0  0
   36.2610   30.0470   34.6140 C   0  0  0  0  0  0  0  0  0  0  0  0
   36.7160   30.1610   35.8870 N   0  0  0  0  0  0  0  0  0  0  0  0
   37.9249   22.6434   37.2864 H   0  0  0  0  0  0  0  0  0  0  0  0
   39.4002   22.8289   38.1526 H   0  0  0  0  0  0  0  0  0  0  0  0
   36.6725   21.7778   39.3045 H   0  0  0  0  0  0  0  0  0  0  0  0
   38.0716   20.7864   39.1688 H   0  0  0  0  0  0  0  0  0  0  0  0
   37.5829   22.4280   41.4204 H   0  0  0  0  0  0  0  0  0  0  0  0
   39.2300   22.0632   40.9805 H   0  0  0  0  0  0  0  0  0  0  0  0
   39.5050   24.2301   39.9617 H   0  0  0  0  0  0  0  0  0  0  0  0
   36.1130   24.0532   41.9187 H   0  0  0  0  0  0  0  0  0  0  0  0
   37.9918   28.2339   43.9810 H   0  0  0  0  0  0  0  0  0  0  0  0
   41.3435   27.9651   41.3550 H   0  0  0  0  0  0  0  0  0  0  0  0
   38.3687   26.2440   37.2932 H   0  0  0  0  0  0  0  0  0  0  0  0
   34.8799   24.3352   38.8249 H   0  0  0  0  0  0  0  0  0  0  0  0
   37.0580   29.1752   37.7239 H   0  0  0  0  0  0  0  0  0  0  0  0
   35.3507   26.7972   34.5563 H   0  0  0  0  0  0  0  0  0  0  0  0
   36.2828   30.9280   33.9557 H   0  0  0  0  0  0  0  0  0  0  0  0
  1  5  1  0
  2  1  1  0
  2  3  1  0
  3  4  1  0
  5  4  1  0
  5  6  1  0
  6 14  1  0
  6  7  1  0
  7  8  2  0
  9  8  1  0
  9 10  2  0
 11 10  1  0
 12 11  2  0
 13 14  2  0
 13 12  1  0
 14  9  1  0
 15 16  1  0
 15 19  2  0
 16 17  2  0
 17 18  1  0
 17  1  1  0
 19 18  1  0
 21 20  2  0
 21 15  1  0
 22 21  1  0
 23 24  1  0
 23 22  2  0
 24 25  2  0
 25 20  1  0
  2 26  1  0
  2 27  1  0
  3 28  1  0
  3 29  1  0
  4 30  1  0
  4 31  1  0
  5 32  1  6
  7 33  1  0
 10 34  1  0
 12 35  1  0
 16 36  1  0
 18 37  1  0
 20 38  1  0
 22 39  1  0
 24 40  1  0
M  ISO  8  26  13  27  13  28  13  29  13  30  13  31  13  32  13  33  14
M  ISO  7  34  14  35  14  36  14  37   9  38  14  39  14  40  14
M  END
>  <minimizedAffinity>  (1) 
-4.08330727

>  <minimizedRMSD>  (1) 
5.29865694

$$$$
