
     RDKit          3D

 36 39  0  0  1  0  0  0  0  0999 V2000
   36.9860   26.6650   41.3290 C   0  0  0  0  0  0  0  0  0  0  0  0
   37.2020   25.8730   40.1750 C   0  0  0  0  0  0  0  0  0  0  0  0
   37.3830   24.5950   40.6900 C   0  0  0  0  0  0  0  0  0  0  0  0
   37.2890   24.6020   42.0150 N   0  0  0  0  0  0  0  0  0  0  0  0
   37.0520   25.8500   42.3770 N   0  0  0  0  0  0  0  0  0  0  0  0
   37.6280   23.5280   39.7730 N   0  0  0  0  0  0  0  0  0  0  0  0
   36.6890   22.4590   39.3700 C   0  0  0  0  0  0  0  0  0  0  0  0
   37.4900   21.2650   39.8820 C   0  0  0  0  0  0  0  0  0  0  0  0
   38.8420   21.5930   39.2070 C   0  0  0  0  0  0  0  0  0  0  0  0
   38.7130   23.0610   38.9460 C   0  0  2  0  0  0  0  0  0  0  0  0
   39.9700   23.8390   39.0450 C   0  0  0  0  0  0  0  0  0  0  0  0
   40.2330   24.7400   37.8310 C   0  0  0  0  0  0  0  0  0  0  0  0
   41.1480   23.6250   38.1890 C   0  0  0  0  0  0  0  0  0  0  0  0
   37.6060   29.0200   41.9080 C   0  0  0  0  0  0  0  0  0  0  0  0
   36.7480   28.1040   41.2390 C   0  0  0  0  0  0  0  0  0  0  0  0
   35.6870   28.5680   40.5030 C   0  0  0  0  0  0  0  0  0  0  0  0
   35.4940   29.9330   40.4400 N   0  0  0  0  0  0  0  0  0  0  0  0
   36.3230   30.7860   41.0850 C   0  0  0  0  0  0  0  0  0  0  0  0
   37.3730   30.3310   41.8130 N   0  0  0  0  0  0  0  0  0  0  0  0
   37.2218   26.1929   39.1227 H   0  0  0  0  0  0  0  0  0  0  0  0
   37.3830   23.7893   42.6408 H   0  0  0  0  0  0  0  0  0  0  0  0
   35.7137   22.5513   39.8703 H   0  0  0  0  0  0  0  0  0  0  0  0
   36.4152   22.4345   38.3049 H   0  0  0  0  0  0  0  0  0  0  0  0
   37.5656   21.2559   40.9794 H   0  0  0  0  0  0  0  0  0  0  0  0
   37.0698   20.2740   39.6553 H   0  0  0  0  0  0  0  0  0  0  0  0
   39.6862   21.3795   39.8791 H   0  0  0  0  0  0  0  0  0  0  0  0
   39.0418   20.9983   38.3034 H   0  0  0  0  0  0  0  0  0  0  0  0
   38.4759   23.2327   37.8857 H   0  0  0  0  0  0  0  0  0  0  0  0
   39.8762   23.9024   40.1392 H   0  0  0  0  0  0  0  0  0  0  0  0
   40.5488   25.7841   37.9732 H   0  0  0  0  0  0  0  0  0  0  0  0
   39.6689   25.0395   36.9354 H   0  0  0  0  0  0  0  0  0  0  0  0
   41.1967   22.7345   37.5451 H   0  0  0  0  0  0  0  0  0  0  0  0
   42.2288   23.5571   38.3818 H   0  0  0  0  0  0  0  0  0  0  0  0
   38.4563   28.6505   42.5000 H   0  0  0  0  0  0  0  0  0  0  0  0
   35.0121   27.8744   39.9801 H   0  0  0  0  0  0  0  0  0  0  0  0
   36.1419   31.8689   41.0176 H   0  0  0  0  0  0  0  0  0  0  0  0
  1  5  2  0
  2  3  2  0
  2  1  1  0
  3  4  1  0
  4  5  1  0
  6  3  1  0
  7  6  1  0
  7  8  1  0
  9  8  1  0
 10 11  1  0
 10  9  1  0
 10  6  1  0
 12 13  1  0
 12 11  1  0
 13 11  1  0
 15  1  1  0
 15 14  2  0
 16 15  1  0
 17 16  2  0
 17 18  1  0
 18 19  2  0
 19 14  1  0
  2 20  1  0
  4 21  1  0
  7 22  1  0
  7 23  1  0
  8 24  1  0
  8 25  1  0
  9 26  1  0
  9 27  1  0
 10 28  1  6
 11 29  1  0
 12 30  1  0
 12 31  1  0
 13 32  1  0
 13 33  1  0
 14 34  1  0
 16 35  1  0
 18 36  1  0
M  ISO  8  20  14  21   9  22  13  23  13  24  13  25  13  26  13  27  13
M  ISO  8  28  13  29  13  30  13  31  13  32  13  33  13  34  14  35  14
M  ISO  1  36  14
M  END
>  <minimizedAffinity>  (1) 
-3.9670639

>  <minimizedRMSD>  (1) 
1.71090329

$$$$
