
     RDKit          3D

 32 34  0  0  1  0  0  0  0  0999 V2000
   36.8990   26.8840   41.1700 C   0  0  0  0  0  0  0  0  0  0  0  0
   36.6830   26.1290   40.0060 C   0  0  0  0  0  0  0  0  0  0  0  0
   36.7550   24.8140   40.4490 C   0  0  0  0  0  0  0  0  0  0  0  0
   36.9920   24.7780   41.7570 N   0  0  0  0  0  0  0  0  0  0  0  0
   37.0760   26.0270   42.1730 N   0  0  0  0  0  0  0  0  0  0  0  0
   36.5770   23.7590   39.5080 N   0  0  0  0  0  0  0  0  0  0  0  0
   35.4730   23.5880   38.5460 C   0  0  0  0  0  0  0  0  0  0  0  0
   34.9410   22.2470   39.0760 C   0  0  0  0  0  0  0  0  0  0  0  0
   36.2500   21.4650   38.9990 C   0  0  0  0  0  0  0  0  0  0  0  0
   37.2840   22.5580   39.1200 C   0  0  2  0  0  0  0  0  0  0  0  0
   38.2430   22.0910   40.2130 C   0  0  0  0  0  0  0  0  0  0  0  0
   38.0590   29.0680   41.5390 C   0  0  0  0  0  0  0  0  0  0  0  0
   36.9060   28.3390   41.1540 C   0  0  0  0  0  0  0  0  0  0  0  0
   35.7810   29.0210   40.7610 C   0  0  0  0  0  0  0  0  0  0  0  0
   35.7960   30.3930   40.7490 N   0  0  0  0  0  0  0  0  0  0  0  0
   36.9250   31.0630   41.1260 C   0  0  0  0  0  0  0  0  0  0  0  0
   38.0490   30.4160   41.5180 N   0  0  0  0  0  0  0  0  0  0  0  0
   36.4999   26.4928   38.9842 H   0  0  0  0  0  0  0  0  0  0  0  0
   37.0914   23.9327   42.3370 H   0  0  0  0  0  0  0  0  0  0  0  0
   35.8309   23.5145   37.5084 H   0  0  0  0  0  0  0  0  0  0  0  0
   34.7452   24.4110   38.4919 H   0  0  0  0  0  0  0  0  0  0  0  0
   34.5606   22.3254   40.1051 H   0  0  0  0  0  0  0  0  0  0  0  0
   34.0847   21.8161   38.5365 H   0  0  0  0  0  0  0  0  0  0  0  0
   36.3330   20.7445   39.8260 H   0  0  0  0  0  0  0  0  0  0  0  0
   36.3504   20.8624   38.0842 H   0  0  0  0  0  0  0  0  0  0  0  0
   37.8428   22.7624   38.1948 H   0  0  0  0  0  0  0  0  0  0  0  0
   37.8059   22.3038   41.1997 H   0  0  0  0  0  0  0  0  0  0  0  0
   38.4137   21.0089   40.1132 H   0  0  0  0  0  0  0  0  0  0  0  0
   39.2001   22.6239   40.1132 H   0  0  0  0  0  0  0  0  0  0  0  0
   38.9656   28.5318   41.8562 H   0  0  0  0  0  0  0  0  0  0  0  0
   34.8765   28.4728   40.4587 H   0  0  0  0  0  0  0  0  0  0  0  0
   36.9215   32.1629   41.1109 H   0  0  0  0  0  0  0  0  0  0  0  0
  1  5  2  0
  2  3  2  0
  2  1  1  0
  3  4  1  0
  4  5  1  0
  6  3  1  0
  7  8  1  0
  7  6  1  0
  9  8  1  0
  9 10  1  0
 10  6  1  0
 10 11  1  0
 13  1  1  0
 13 12  2  0
 14 13  1  0
 15 14  2  0
 15 16  1  0
 16 17  2  0
 17 12  1  0
  2 18  1  0
  4 19  1  0
  7 20  1  0
  7 21  1  0
  8 22  1  0
  8 23  1  0
  9 24  1  0
  9 25  1  0
 10 26  1  6
 11 27  1  0
 11 28  1  0
 11 29  1  0
 12 30  1  0
 14 31  1  0
 16 32  1  0
M  ISO  8  18  14  19   9  20  13  21  13  22  13  23  13  24  13  25  13
M  ISO  7  26  13  27   8  28   8  29   8  30  14  31  14  32  14
M  END
>  <minimizedAffinity>  (1) 
-3.94476366

>  <minimizedRMSD>  (1) 
0.968220651

$$$$
