
     RDKit          3D

 35 37  0  0  1  0  0  0  0  0999 V2000
   36.9120   26.6380   41.3660 C   0  0  0  0  0  0  0  0  0  0  0  0
   36.9380   25.8210   40.2090 C   0  0  0  0  0  0  0  0  0  0  0  0
   37.1240   24.5550   40.7210 C   0  0  0  0  0  0  0  0  0  0  0  0
   37.2040   24.5880   42.0670 N   0  0  0  0  0  0  0  0  0  0  0  0
   37.0740   25.8540   42.4240 N   0  0  0  0  0  0  0  0  0  0  0  0
   37.2040   23.4340   39.8400 N   0  0  0  0  0  0  0  0  0  0  0  0
   36.4280   23.2520   38.5960 C   0  0  0  0  0  0  0  0  0  0  0  0
   35.7320   21.9540   38.9780 C   0  0  0  0  0  0  0  0  0  0  0  0
   36.9850   21.1360   39.3440 C   0  0  0  0  0  0  0  0  0  0  0  0
   37.9420   22.2000   39.7790 C   0  0  1  0  0  0  0  0  0  0  0  0
   39.1650   22.2850   38.9040 C   0  0  0  0  0  0  0  0  0  0  0  0
   39.5290   20.9110   38.3850 C   0  0  0  0  0  0  0  0  0  0  0  0
   37.6000   28.9810   41.9170 C   0  0  0  0  0  0  0  0  0  0  0  0
   36.7310   28.0850   41.2650 C   0  0  0  0  0  0  0  0  0  0  0  0
   35.6770   28.5830   40.5060 C   0  0  0  0  0  0  0  0  0  0  0  0
   35.5280   29.9500   40.4250 N   0  0  0  0  0  0  0  0  0  0  0  0
   36.3860   30.7750   41.0690 C   0  0  0  0  0  0  0  0  0  0  0  0
   37.4150   30.3060   41.8090 N   0  0  0  0  0  0  0  0  0  0  0  0
   36.8347   26.1238   39.1565 H   0  0  0  0  0  0  0  0  0  0  0  0
   37.3400   23.7829   42.6949 H   0  0  0  0  0  0  0  0  0  0  0  0
   37.0743   23.1356   37.7135 H   0  0  0  0  0  0  0  0  0  0  0  0
   35.7733   24.0868   38.3055 H   0  0  0  0  0  0  0  0  0  0  0  0
   35.0535   22.0818   39.8343 H   0  0  0  0  0  0  0  0  0  0  0  0
   35.0767   21.5148   38.2114 H   0  0  0  0  0  0  0  0  0  0  0  0
   36.7755   20.4299   40.1610 H   0  0  0  0  0  0  0  0  0  0  0  0
   37.3622   20.5137   38.5191 H   0  0  0  0  0  0  0  0  0  0  0  0
   38.3496   21.9576   40.7715 H   0  0  0  0  0  0  0  0  0  0  0  0
   38.9587   22.9522   38.0541 H   0  0  0  0  0  0  0  0  0  0  0  0
   40.0040   22.6807   39.4951 H   0  0  0  0  0  0  0  0  0  0  0  0
   39.7083   20.2342   39.2334 H   0  0  0  0  0  0  0  0  0  0  0  0
   38.7035   20.5200   37.7721 H   0  0  0  0  0  0  0  0  0  0  0  0
   40.4399   20.9800   37.7721 H   0  0  0  0  0  0  0  0  0  0  0  0
   38.4353   28.5927   42.5183 H   0  0  0  0  0  0  0  0  0  0  0  0
   34.9835   27.9056   39.9862 H   0  0  0  0  0  0  0  0  0  0  0  0
   36.2412   31.8624   40.9875 H   0  0  0  0  0  0  0  0  0  0  0  0
  1  5  2  0
  2  3  2  0
  2  1  1  0
  3  4  1  0
  4  5  1  0
  6  3  1  0
  7  8  1  0
  7  6  1  0
  8  9  1  0
  9 10  1  0
 10  6  1  0
 11 10  1  0
 12 11  1  0
 14  1  1  0
 14 13  2  0
 15 14  1  0
 16 15  2  0
 16 17  1  0
 17 18  2  0
 18 13  1  0
  2 19  1  0
  4 20  1  0
  7 21  1  0
  7 22  1  0
  8 23  1  0
  8 24  1  0
  9 25  1  0
  9 26  1  0
 10 27  1  1
 11 28  1  0
 11 29  1  0
 12 30  1  0
 12 31  1  0
 12 32  1  0
 13 33  1  0
 15 34  1  0
 17 35  1  0
M  ISO  8  19  14  20   9  21  13  22  13  23  13  24  13  25  13  26  13
M  ISO  8  27  13  28   8  29   8  30   8  31   8  32   8  33  14  34  14
M  ISO  1  35  14
M  END
>  <minimizedAffinity>  (1) 
-3.94117045

>  <minimizedRMSD>  (1) 
0.52893573

$$$$
