
     RDKit          3D

 31 33  0  0  1  0  0  0  0  0999 V2000
   36.9050   26.7030   41.3470 C   0  0  0  0  0  0  0  0  0  0  0  0
   36.9940   25.8790   40.2000 C   0  0  0  0  0  0  0  0  0  0  0  0
   37.1520   24.6100   40.7460 C   0  0  0  0  0  0  0  0  0  0  0  0
   37.1600   24.6520   42.0750 N   0  0  0  0  0  0  0  0  0  0  0  0
   37.0100   25.9250   42.4150 N   0  0  0  0  0  0  0  0  0  0  0  0
   37.2760   23.5080   39.8320 N   0  0  0  0  0  0  0  0  0  0  0  0
   36.4920   23.2360   38.6280 C   0  0  0  0  0  0  0  0  0  0  0  0
   35.9110   21.8900   39.0520 C   0  0  0  0  0  0  0  0  0  0  0  0
   37.2270   21.1860   39.4130 C   0  0  0  0  0  0  0  0  0  0  0  0
   38.1410   22.3410   39.7440 C   0  0  1  0  0  0  0  0  0  0  0  0
   39.2380   22.5040   38.7850 C   0  0  0  0  0  0  0  0  0  0  0  0
   39.9960   23.4680   38.9590 O   0  0  0  0  0  0  0  0  0  0  0  0
   37.6560   29.0390   41.8030 C   0  0  0  0  0  0  0  0  0  0  0  0
   36.7300   28.1510   41.2280 C   0  0  0  0  0  0  0  0  0  0  0  0
   35.6490   28.6540   40.5480 C   0  0  0  0  0  0  0  0  0  0  0  0
   35.5080   30.0200   40.4530 N   0  0  0  0  0  0  0  0  0  0  0  0
   36.4200   30.8460   41.0180 C   0  0  0  0  0  0  0  0  0  0  0  0
   37.5020   30.3670   41.6980 N   0  0  0  0  0  0  0  0  0  0  0  0
   36.9493   26.1700   39.1401 H   0  0  0  0  0  0  0  0  0  0  0  0
   37.2627   23.8519   42.7155 H   0  0  0  0  0  0  0  0  0  0  0  0
   37.1223   23.1535   37.7303 H   0  0  0  0  0  0  0  0  0  0  0  0
   35.7624   24.0082   38.3425 H   0  0  0  0  0  0  0  0  0  0  0  0
   35.2379   21.9818   39.9171 H   0  0  0  0  0  0  0  0  0  0  0  0
   35.2831   21.3813   38.3057 H   0  0  0  0  0  0  0  0  0  0  0  0
   37.0968   20.5220   40.2803 H   0  0  0  0  0  0  0  0  0  0  0  0
   37.6119   20.5411   38.6093 H   0  0  0  0  0  0  0  0  0  0  0  0
   38.6686   22.1681   40.6936 H   0  0  0  0  0  0  0  0  0  0  0  0
   39.3812   21.8027   37.9497 H   0  0  0  0  0  0  0  0  0  0  0  0
   38.5224   28.6372   42.3488 H   0  0  0  0  0  0  0  0  0  0  0  0
   34.9110   27.9799   40.0887 H   0  0  0  0  0  0  0  0  0  0  0  0
   36.2850   31.9338   40.9264 H   0  0  0  0  0  0  0  0  0  0  0  0
  1  5  2  0
  2  3  2  0
  2  1  1  0
  3  4  1  0
  4  5  1  0
  6  3  1  0
  7  8  1  0
  7  6  1  0
  8  9  1  0
  9 10  1  0
 10  6  1  0
 11 12  2  0
 11 10  1  0
 14  1  1  0
 14 13  2  0
 15 14  1  0
 16 15  2  0
 16 17  1  0
 17 18  2  0
 18 13  1  0
  2 19  1  0
  4 20  1  0
  7 21  1  0
  7 22  1  0
  8 23  1  0
  8 24  1  0
  9 25  1  0
  9 26  1  0
 10 27  1  1
 11 28  1  0
 13 29  1  0
 15 30  1  0
 17 31  1  0
M  ISO  8  19  14  20   9  21  13  22  13  23  13  24  13  25  13  26  13
M  ISO  5  27  13  28   6  29  14  30  14  31  14
M  END
>  <minimizedAffinity>  (1) 
-3.91492438

>  <minimizedRMSD>  (1) 
0.386383981

$$$$
