
     RDKit          3D

 47 51  0  0  1  0  0  0  0  0999 V2000
   39.4470   33.6200   43.4210 O   0  0  0  0  0  0  0  0  0  0  0  0
   36.1930   30.1620   46.9480 C   0  0  0  0  0  0  0  0  0  0  0  0
   37.0300   30.6880   47.9020 C   0  0  0  0  0  0  0  0  0  0  0  0
   38.0350   31.6040   47.5470 C   0  0  0  0  0  0  0  0  0  0  0  0
   38.1400   31.9440   46.2180 C   0  0  0  0  0  0  0  0  0  0  0  0
   39.0230   32.8150   45.6410 N   0  0  0  0  0  0  0  0  0  0  0  0
   38.7290   32.8220   44.3270 C   0  0  0  0  0  0  0  0  0  0  0  0
   37.7240   32.0120   44.0690 N   0  0  0  0  0  0  0  0  0  0  0  0
   37.3170   31.4350   45.2320 C   0  0  0  0  0  0  0  0  0  0  0  0
   36.3260   30.5260   45.6140 C   0  0  0  0  0  0  0  0  0  0  0  0
   37.4230   30.0990   51.5990 C   0  0  0  0  0  0  0  0  0  0  0  0
   37.7430   30.5260   50.3220 C   0  0  0  0  0  0  0  0  0  0  0  0
   36.8670   30.3060   49.2920 C   0  0  0  0  0  0  0  0  0  0  0  0
   35.6900   29.6540   49.6010 N   0  0  0  0  0  0  0  0  0  0  0  0
   35.3770   29.2390   50.8380 C   0  0  0  0  0  0  0  0  0  0  0  0
   36.2310   29.4590   51.8210 N   0  0  0  0  0  0  0  0  0  0  0  0
   39.7640   31.8380   42.0350 N   0  0  0  0  0  0  0  0  0  0  0  0
   39.3370   33.2560   42.0480 C   0  0  1  0  0  0  0  0  0  0  0  0
   37.9730   33.3430   41.5580 C   0  0  0  0  0  0  0  0  0  0  0  0
   37.9600   32.9480   40.2080 O   0  0  0  0  0  0  0  0  0  0  0  0
   38.4750   31.7120   39.9570 C   0  0  0  0  0  0  0  0  0  0  0  0
   39.7980   31.4590   40.6420 C   0  0  2  0  0  0  0  0  0  0  0  0
   42.3500   30.4840   39.8870 F   0  0  0  0  0  0  0  0  0  0  0  0
   41.3450   29.6090   40.0870 C   0  0  0  0  0  0  0  0  0  0  0  0
   40.0600   30.0070   40.4590 C   0  0  0  0  0  0  0  0  0  0  0  0
   39.0970   29.0280   40.6400 C   0  0  0  0  0  0  0  0  0  0  0  0
   39.3460   27.6810   40.4690 C   0  0  0  0  0  0  0  0  0  0  0  0
   40.6420   27.3160   40.0970 C   0  0  0  0  0  0  0  0  0  0  0  0
   41.6130   28.2630   39.9110 C   0  0  0  0  0  0  0  0  0  0  0  0
   35.4111   29.4467   47.2429 H   0  0  0  0  0  0  0  0  0  0  0  0
   38.7109   32.0322   48.3018 H   0  0  0  0  0  0  0  0  0  0  0  0
   39.7614   33.3548   46.1146 H   0  0  0  0  0  0  0  0  0  0  0  0
   35.6511   30.0987   44.8578 H   0  0  0  0  0  0  0  0  0  0  0  0
   38.1212   30.2721   52.4312 H   0  0  0  0  0  0  0  0  0  0  0  0
   38.6973   31.0402   50.1348 H   0  0  0  0  0  0  0  0  0  0  0  0
   34.4243   28.7238   51.0302 H   0  0  0  0  0  0  0  0  0  0  0  0
   40.6979   31.7393   42.4580 H   0  0  0  0  0  0  0  0  0  0  0  0
   39.9327   33.9225   41.4070 H   0  0  0  0  0  0  0  0  0  0  0  0
   37.3239   32.6775   42.1460 H   0  0  0  0  0  0  0  0  0  0  0  0
   37.6022   34.3742   41.6536 H   0  0  0  0  0  0  0  0  0  0  0  0
   37.7536   30.9574   40.3037 H   0  0  0  0  0  0  0  0  0  0  0  0
   38.6550   31.6508   38.8736 H   0  0  0  0  0  0  0  0  0  0  0  0
   40.6044   32.0690   40.2088 H   0  0  0  0  0  0  0  0  0  0  0  0
   38.0839   29.3392   40.9345 H   0  0  0  0  0  0  0  0  0  0  0  0
   38.5583   26.9280   40.6191 H   0  0  0  0  0  0  0  0  0  0  0  0
   40.8857   26.2532   39.9515 H   0  0  0  0  0  0  0  0  0  0  0  0
   42.6249   27.9480   39.6162 H   0  0  0  0  0  0  0  0  0  0  0  0
  1  7  1  0
  2  3  2  0
  3 13  1  0
  4  3  1  0
  5  4  2  0
  6  5  1  0
  7  6  1  0
  8  7  2  0
  8  9  1  0
  9 10  2  0
  9  5  1  0
 10  2  1  0
 11 16  2  0
 12 11  1  0
 13 14  1  0
 13 12  2  0
 14 15  2  0
 15 16  1  0
 17 18  1  0
 18  1  1  0
 19 18  1  0
 20 19  1  0
 21 20  1  0
 21 22  1  0
 22 17  1  0
 23 24  1  0
 24 25  2  0
 25 26  1  0
 25 22  1  0
 27 26  2  0
 28 27  1  0
 29 24  1  0
 29 28  2  0
  2 30  1  0
  4 31  1  0
  6 32  1  0
 10 33  1  0
 11 34  1  0
 12 35  1  0
 15 36  1  0
 17 37  1  0
 18 38  1  6
 19 39  1  0
 19 40  1  0
 21 41  1  0
 21 42  1  0
 22 43  1  6
 26 44  1  0
 27 45  1  0
 28 46  1  0
 29 47  1  0
M  ISO  8  30  14  31  14  32   9  33  14  34  14  35  14  36  14  37   5
M  ISO  8  38  13  39  13  40  13  41  13  42  13  43  13  44  14  45  14
M  ISO  2  46  14  47  14
M  END
>  <minimizedAffinity>  (1) 
-6.19426394

>  <minimizedRMSD>  (1) 
0.51669383

$$$$
