
     RDKit          3D

 45 49  0  0  1  0  0  0  0  0999 V2000
   36.1620   30.2270   46.8710 C   0  0  0  0  0  0  0  0  0  0  0  0
   37.0550   30.7710   47.7930 C   0  0  0  0  0  0  0  0  0  0  0  0
   38.0630   31.6420   47.3920 C   0  0  0  0  0  0  0  0  0  0  0  0
   38.1240   31.9320   46.0330 C   0  0  0  0  0  0  0  0  0  0  0  0
   39.0180   32.7470   45.4010 N   0  0  0  0  0  0  0  0  0  0  0  0
   38.7010   32.7230   44.0990 C   0  0  0  0  0  0  0  0  0  0  0  0
   37.6640   31.9390   43.9030 N   0  0  0  0  0  0  0  0  0  0  0  0
   37.2660   31.4190   45.0900 C   0  0  0  0  0  0  0  0  0  0  0  0
   36.2600   30.5450   45.5200 C   0  0  0  0  0  0  0  0  0  0  0  0
   37.5470   30.1870   51.4670 C   0  0  0  0  0  0  0  0  0  0  0  0
   37.8080   30.6160   50.1790 C   0  0  0  0  0  0  0  0  0  0  0  0
   36.8780   30.3710   49.1750 C   0  0  0  0  0  0  0  0  0  0  0  0
   35.7310   29.7080   49.5140 N   0  0  0  0  0  0  0  0  0  0  0  0
   35.4900   29.2940   50.7840 C   0  0  0  0  0  0  0  0  0  0  0  0
   36.3760   29.5280   51.7290 N   0  0  0  0  0  0  0  0  0  0  0  0
   39.4250   33.4610   43.1480 O   0  0  0  0  0  0  0  0  0  0  0  0
   38.9280   31.6550   41.8420 N   0  0  0  0  0  0  0  0  0  0  0  0
   39.2020   33.1030   41.7900 C   0  0  1  0  0  0  0  0  0  0  0  0
   38.0460   33.7830   41.2200 C   0  0  0  0  0  0  0  0  0  0  0  0
   37.8940   33.3680   39.8850 O   0  0  0  0  0  0  0  0  0  0  0  0
   37.7960   32.0160   39.7050 C   0  0  0  0  0  0  0  0  0  0  0  0
   38.8260   31.2340   40.4590 C   0  0  1  0  0  0  0  0  0  0  0  0
   40.1300   31.1120   39.8050 C   0  0  0  0  0  0  0  0  0  0  0  0
   41.2930   30.5220   40.2060 C   0  0  0  0  0  0  0  0  0  0  0  0
   42.4220   30.5280   39.4120 C   0  0  0  0  0  0  0  0  0  0  0  0
   42.4230   31.1270   38.1870 N   0  0  0  0  0  0  0  0  0  0  0  0
   41.2620   31.7000   37.8180 C   0  0  0  0  0  0  0  0  0  0  0  0
   40.1270   31.7130   38.5780 N   0  0  0  0  0  0  0  0  0  0  0  0
   35.3737   29.5409   47.2143 H   0  0  0  0  0  0  0  0  0  0  0  0
   38.7730   32.0776   48.1105 H   0  0  0  0  0  0  0  0  0  0  0  0
   39.7855   33.2765   45.8387 H   0  0  0  0  0  0  0  0  0  0  0  0
   35.5532   30.1135   44.7959 H   0  0  0  0  0  0  0  0  0  0  0  0
   38.2724   30.3732   52.2727 H   0  0  0  0  0  0  0  0  0  0  0  0
   38.7439   31.1469   49.9504 H   0  0  0  0  0  0  0  0  0  0  0  0
   34.5562   28.7640   51.0230 H   0  0  0  0  0  0  0  0  0  0  0  0
   39.6975   31.1591   42.3140 H   0  0  0  0  0  0  0  0  0  0  0  0
   40.0626   33.3789   41.1629 H   0  0  0  0  0  0  0  0  0  0  0  0
   37.1438   33.5240   41.7935 H   0  0  0  0  0  0  0  0  0  0  0  0
   38.1935   34.8723   41.2602 H   0  0  0  0  0  0  0  0  0  0  0  0
   36.7996   31.6921   40.0400 H   0  0  0  0  0  0  0  0  0  0  0  0
   37.9623   31.8205   38.6354 H   0  0  0  0  0  0  0  0  0  0  0  0
   38.4404   30.2038   40.4536 H   0  0  0  0  0  0  0  0  0  0  0  0
   41.3319   30.0284   41.1883 H   0  0  0  0  0  0  0  0  0  0  0  0
   43.3388   30.0401   39.7745 H   0  0  0  0  0  0  0  0  0  0  0  0
   41.2247   32.1925   36.8351 H   0  0  0  0  0  0  0  0  0  0  0  0
  1  2  2  0
  2 12  1  0
  3  2  1  0
  4  3  2  0
  5  4  1  0
  6  5  1  0
  7  6  2  0
  7  8  1  0
  8  9  2  0
  8  4  1  0
  9  1  1  0
 10 15  2  0
 11 10  1  0
 12 13  1  0
 12 11  2  0
 13 14  2  0
 14 15  1  0
 16  6  1  0
 18 17  1  0
 18 16  1  0
 19 18  1  0
 20 19  1  0
 21 20  1  0
 21 22  1  0
 22 17  1  0
 23 24  2  0
 23 22  1  0
 25 24  1  0
 26 25  2  0
 27 26  1  0
 27 28  2  0
 28 23  1  0
  1 29  1  0
  3 30  1  0
  5 31  1  0
  9 32  1  0
 10 33  1  0
 11 34  1  0
 14 35  1  0
 17 36  1  0
 18 37  1  6
 19 38  1  0
 19 39  1  0
 21 40  1  0
 21 41  1  0
 22 42  1  1
 24 43  1  0
 25 44  1  0
 27 45  1  0
M  ISO  8  29  14  30  14  31   9  32  14  33  14  34  14  35  14  36   5
M  ISO  8  37  13  38  13  39  13  40  13  41  13  42  13  43  14  44  14
M  ISO  1  45  14
M  END
>  <minimizedAffinity>  (1) 
-5.98222446

>  <minimizedRMSD>  (1) 
0.862710476

$$$$
