
     RDKit          3D

 27 29  0  0  0  0  0  0  0  0999 V2000
   37.1530   31.3090   49.2280 C   0  0  0  0  0  0  0  0  0  0  0  0
   37.3520   32.5520   49.8280 C   0  0  0  0  0  0  0  0  0  0  0  0
   38.3050   33.3610   49.2300 C   0  0  0  0  0  0  0  0  0  0  0  0
   38.9790   32.9230   48.1260 N   0  0  0  0  0  0  0  0  0  0  0  0
   38.7560   31.6990   47.5660 C   0  0  0  0  0  0  0  0  0  0  0  0
   37.8180   30.8780   48.1390 N   0  0  0  0  0  0  0  0  0  0  0  0
   36.1020   30.4110   49.8240 C   0  0  0  0  0  0  0  0  0  0  0  0
   36.0980   28.9830   49.6250 C   0  0  0  0  0  0  0  0  0  0  0  0
   36.6480   29.5050   50.9320 C   0  0  0  0  0  0  0  0  0  0  0  0
   39.4450   31.1890   46.3860 C   0  0  0  0  0  0  0  0  0  0  0  0
   39.0760   31.9320   45.1400 C   0  0  0  0  0  0  0  0  0  0  0  0
   37.8590   32.3390   44.6380 C   0  0  0  0  0  0  0  0  0  0  0  0
   38.1390   32.9700   43.4730 N   0  0  0  0  0  0  0  0  0  0  0  0
   39.4560   32.9760   43.2320 C   0  0  0  0  0  0  0  0  0  0  0  0
   40.0350   32.3280   44.2740 N   0  0  0  0  0  0  0  0  0  0  0  0
   36.7891   32.8696   50.7181 H   0  0  0  0  0  0  0  0  0  0  0  0
   38.5188   34.3570   49.6450 H   0  0  0  0  0  0  0  0  0  0  0  0
   35.3061   31.1566   49.6807 H   0  0  0  0  0  0  0  0  0  0  0  0
   35.1423   28.4385   49.6168 H   0  0  0  0  0  0  0  0  0  0  0  0
   36.4935   28.3207   48.8408 H   0  0  0  0  0  0  0  0  0  0  0  0
   37.7273   29.4648   51.1405 H   0  0  0  0  0  0  0  0  0  0  0  0
   36.4485   29.3448   52.0018 H   0  0  0  0  0  0  0  0  0  0  0  0
   40.5297   31.2815   46.5435 H   0  0  0  0  0  0  0  0  0  0  0  0
   39.1436   30.1398   46.2508 H   0  0  0  0  0  0  0  0  0  0  0  0
   36.8678   32.1839   45.0891 H   0  0  0  0  0  0  0  0  0  0  0  0
   37.4315   33.3902   42.8535 H   0  0  0  0  0  0  0  0  0  0  0  0
   39.9663   33.4177   42.3634 H   0  0  0  0  0  0  0  0  0  0  0  0
  1  7  1  0
  1  2  2  0
  3  2  1  0
  4  3  2  0
  5  4  1  0
  5  6  2  0
  6  1  1  0
  7  9  1  0
  8  7  1  0
  8  9  1  0
 10  5  1  0
 11 10  1  0
 12 11  2  0
 13 12  1  0
 14 13  1  0
 14 15  2  0
 15 11  1  0
  2 16  1  0
  3 17  1  0
  7 18  1  0
  8 19  1  0
  8 20  1  0
  9 21  1  0
  9 22  1  0
 10 23  1  0
 10 24  1  0
 12 25  1  0
 13 26  1  0
 14 27  1  0
M  ISO  8  16  14  17  14  18  13  19  13  20  13  21  13  22  13  23   8
M  ISO  4  24   8  25  14  26   9  27  14
M  END
>  <minimizedAffinity>  (1) 
-5.32269907

>  <minimizedRMSD>  (1) 
1.21981633

$$$$
