
     RDKit          3D

 41 42  0  0  0  0  0  0  0  0999 V2000
   38.6840   32.8240   48.7400 C   0  0  0  0  0  0  0  0  0  0  0  0
   38.3140   31.9290   49.6800 C   0  0  0  0  0  0  0  0  0  0  0  0
   36.8560   31.8110   49.9460 C   0  0  0  0  0  0  0  0  0  0  0  0
   36.2410   30.1760   50.1650 S   0  0  0  0  0  0  0  0  0  0  0  0
   34.8960   29.6640   49.1210 C   0  0  0  0  0  0  0  0  0  0  0  0
   34.9330   30.2190   47.7150 C   0  0  0  0  0  0  0  0  0  0  0  0
   34.4020   29.1470   46.7880 C   0  0  0  0  0  0  0  0  0  0  0  0
   33.0610   28.7070   47.3520 C   0  0  0  0  0  0  0  0  0  0  0  0
   33.3900   27.7740   48.5060 C   0  0  0  0  0  0  0  0  0  0  0  0
   34.7240   28.1740   49.1370 C   0  0  0  0  0  0  0  0  0  0  0  0
   39.2230   32.0030   47.8010 O   0  0  0  0  0  0  0  0  0  0  0  0
   39.0450   32.3190   46.4720 C   0  0  0  0  0  0  0  0  0  0  0  0
   40.1910   32.7590   45.8660 C   0  0  0  0  0  0  0  0  0  0  0  0
   40.1600   33.1210   44.4990 C   0  0  0  0  0  0  0  0  0  0  0  0
   38.9470   33.0010   43.8580 N   0  0  0  0  0  0  0  0  0  0  0  0
   37.8270   32.5590   44.4950 C   0  0  0  0  0  0  0  0  0  0  0  0
   37.9050   32.2320   45.7800 N   0  0  0  0  0  0  0  0  0  0  0  0
   36.7450   32.9180   42.3890 C   0  0  0  0  0  0  0  0  0  0  0  0
   37.7940   33.3620   41.8390 O   0  0  0  0  0  0  0  0  0  0  0  0
   36.6150   32.4710   43.7440 N   0  0  0  0  0  0  0  0  0  0  0  0
   37.8188   33.3767   48.3452 H   0  0  0  0  0  0  0  0  0  0  0  0
   39.3648   33.6083   49.1025 H   0  0  0  0  0  0  0  0  0  0  0  0
   38.6767   30.9406   49.3615 H   0  0  0  0  0  0  0  0  0  0  0  0
   38.7527   32.2956   50.6198 H   0  0  0  0  0  0  0  0  0  0  0  0
   36.6338   32.3795   50.8611 H   0  0  0  0  0  0  0  0  0  0  0  0
   36.3580   32.1967   49.0442 H   0  0  0  0  0  0  0  0  0  0  0  0
   33.9997   30.1191   49.5676 H   0  0  0  0  0  0  0  0  0  0  0  0
   34.3025   31.1180   47.6495 H   0  0  0  0  0  0  0  0  0  0  0  0
   35.9597   30.4984   47.4359 H   0  0  0  0  0  0  0  0  0  0  0  0
   35.0975   28.2954   46.7555 H   0  0  0  0  0  0  0  0  0  0  0  0
   34.2937   29.5291   45.7622 H   0  0  0  0  0  0  0  0  0  0  0  0
   32.4915   29.5767   47.7116 H   0  0  0  0  0  0  0  0  0  0  0  0
   32.4420   28.2102   46.5904 H   0  0  0  0  0  0  0  0  0  0  0  0
   32.5950   27.8371   49.2637 H   0  0  0  0  0  0  0  0  0  0  0  0
   33.4636   26.7436   48.1279 H   0  0  0  0  0  0  0  0  0  0  0  0
   35.5445   27.7103   48.5698 H   0  0  0  0  0  0  0  0  0  0  0  0
   34.7372   27.8290   50.1814 H   0  0  0  0  0  0  0  0  0  0  0  0
   41.1282   32.8304   46.4375 H   0  0  0  0  0  0  0  0  0  0  0  0
   41.0582   33.4798   43.9750 H   0  0  0  0  0  0  0  0  0  0  0  0
   35.8412   32.8703   41.7638 H   0  0  0  0  0  0  0  0  0  0  0  0
   35.7312   32.1194   44.1393 H   0  0  0  0  0  0  0  0  0  0  0  0
  1  2  1  0
  2  3  1  0
  3  4  1  0
  5 10  1  0
  5  4  1  0
  6  5  1  0
  7  8  1  0
  7  6  1  0
  8  9  1  0
  9 10  1  0
 11  1  1  0
 12 11  1  0
 13 12  2  0
 14 13  1  0
 15 16  1  0
 15 14  2  0
 16 17  2  0
 17 12  1  0
 18 20  1  0
 19 18  2  0
 20 16  1  0
  1 21  1  0
  1 22  1  0
  2 23  1  0
  2 24  1  0
  3 25  1  0
  3 26  1  0
  5 27  1  0
  6 28  1  0
  6 29  1  0
  7 30  1  0
  7 31  1  0
  8 32  1  0
  8 33  1  0
  9 34  1  0
  9 35  1  0
 10 36  1  0
 10 37  1  0
 13 38  1  0
 14 39  1  0
 18 40  1  0
 20 41  1  0
M  ISO  8  21   8  22   8  23   8  24   8  25   8  26   8  27  13  28  13
M  ISO  8  29  13  30  13  31  13  32  13  33  13  34  13  35  13  36  13
M  ISO  4  37  13  38  14  39  14  40   6
M  END
>  <minimizedAffinity>  (1) 
-5.67130995

>  <minimizedRMSD>  (1) 
2.16947246

$$$$
