
     RDKit          3D

 39 41  0  0  0  0  0  0  0  0999 V2000
   37.1690   29.3000   51.5850 C   0  0  0  0  0  0  0  0  0  0  0  0
   37.4590   30.4920   51.0400 C   0  0  0  0  0  0  0  0  0  0  0  0
   37.4320   30.1390   49.7140 O   0  0  0  0  0  0  0  0  0  0  0  0
   38.0340   30.9760   48.8090 C   0  0  0  0  0  0  0  0  0  0  0  0
   38.3430   32.2140   49.3450 C   0  0  0  0  0  0  0  0  0  0  0  0
   38.9640   33.1840   48.5420 C   0  0  0  0  0  0  0  0  0  0  0  0
   39.2260   32.8210   47.2450 N   0  0  0  0  0  0  0  0  0  0  0  0
   38.9080   31.5880   46.7440 C   0  0  0  0  0  0  0  0  0  0  0  0
   38.3140   30.6770   47.5340 N   0  0  0  0  0  0  0  0  0  0  0  0
   39.8130   32.4110   44.6870 C   0  0  0  0  0  0  0  0  0  0  0  0
   40.0670   33.5560   45.1710 O   0  0  0  0  0  0  0  0  0  0  0  0
   39.2270   31.3270   45.3820 N   0  0  0  0  0  0  0  0  0  0  0  0
   38.1740   28.2020   51.3220 C   0  0  0  0  0  0  0  0  0  0  0  0
   38.6990   27.3290   52.7750 S   0  0  0  0  0  0  0  0  0  0  0  0
   40.3750   25.1100   53.4040 C   0  0  0  0  0  0  0  0  0  0  0  0
   39.8100   25.9950   52.4820 C   0  0  0  0  0  0  0  0  0  0  0  0
   40.1820   25.7920   51.1490 C   0  0  0  0  0  0  0  0  0  0  0  0
   41.0340   24.8090   50.7400 C   0  0  0  0  0  0  0  0  0  0  0  0
   41.5460   24.3940   49.5910 N   0  0  0  0  0  0  0  0  0  0  0  0
   42.3790   23.3240   49.7480 C   0  0  0  0  0  0  0  0  0  0  0  0
   42.3840   23.0500   51.1100 C   0  0  0  0  0  0  0  0  0  0  0  0
   41.5520   23.9730   51.7030 C   0  0  0  0  0  0  0  0  0  0  0  0
   41.2390   24.1050   53.0250 C   0  0  0  0  0  0  0  0  0  0  0  0
   37.0919   29.4351   52.6740 H   0  0  0  0  0  0  0  0  0  0  0  0
   36.2321   28.9715   51.1113 H   0  0  0  0  0  0  0  0  0  0  0  0
   36.6989   31.2502   51.2797 H   0  0  0  0  0  0  0  0  0  0  0  0
   38.3959   30.9530   51.3860 H   0  0  0  0  0  0  0  0  0  0  0  0
   38.1032   32.4370   50.3951 H   0  0  0  0  0  0  0  0  0  0  0  0
   39.2258   34.1791   48.9309 H   0  0  0  0  0  0  0  0  0  0  0  0
   40.0720   32.2461   43.6307 H   0  0  0  0  0  0  0  0  0  0  0  0
   39.0449   30.4169   44.9355 H   0  0  0  0  0  0  0  0  0  0  0  0
   37.7195   27.4775   50.6302 H   0  0  0  0  0  0  0  0  0  0  0  0
   39.0690   28.6874   50.9056 H   0  0  0  0  0  0  0  0  0  0  0  0
   40.1216   25.2190   54.4688 H   0  0  0  0  0  0  0  0  0  0  0  0
   39.7628   26.4645   50.3861 H   0  0  0  0  0  0  0  0  0  0  0  0
   41.3388   24.8298   48.6810 H   0  0  0  0  0  0  0  0  0  0  0  0
   42.9311   22.7901   48.9605 H   0  0  0  0  0  0  0  0  0  0  0  0
   42.9443   22.2504   51.6166 H   0  0  0  0  0  0  0  0  0  0  0  0
   41.6679   23.4226   53.7735 H   0  0  0  0  0  0  0  0  0  0  0  0
  2  1  1  0
  3  2  1  0
  4  5  2  0
  4  3  1  0
  6  5  1  0
  7  6  2  0
  8  7  1  0
  8  9  2  0
  9  4  1  0
 10 11  2  0
 10 12  1  0
 12  8  1  0
 13  1  1  0
 13 14  1  0
 16 14  1  0
 16 15  2  0
 17 16  1  0
 18 17  2  0
 18 22  1  0
 19 20  1  0
 19 18  1  0
 20 21  2  0
 21 22  1  0
 22 23  2  0
 23 15  1  0
  1 24  1  0
  1 25  1  0
  2 26  1  0
  2 27  1  0
  5 28  1  0
  6 29  1  0
 10 30  1  0
 12 31  1  0
 13 32  1  0
 13 33  1  0
 15 34  1  0
 17 35  1  0
 19 36  1  0
 20 37  1  0
 21 38  1  0
 23 39  1  0
M  ISO  8  24   8  25   8  26   8  27   8  28  14  29  14  30   6  32   8
M  ISO  7  33   8  34  14  35  14  36   9  37  14  38  14  39  14
M  END
>  <minimizedAffinity>  (1) 
-4.08888531

>  <minimizedRMSD>  (1) 
3.24433827

$$$$
