
     RDKit          3D

 43 45  0  0  0  0  0  0  0  0999 V2000
   38.1480   28.2250   51.3050 C   0  0  0  0  0  0  0  0  0  0  0  0
   37.1310   29.3160   51.5510 C   0  0  0  0  0  0  0  0  0  0  0  0
   37.4720   30.5210   51.0210 C   0  0  0  0  0  0  0  0  0  0  0  0
   37.4480   30.1740   49.6990 O   0  0  0  0  0  0  0  0  0  0  0  0
   38.0530   31.0030   48.7930 C   0  0  0  0  0  0  0  0  0  0  0  0
   38.3490   32.2430   49.3190 C   0  0  0  0  0  0  0  0  0  0  0  0
   38.9760   33.1960   48.4940 C   0  0  0  0  0  0  0  0  0  0  0  0
   39.2520   32.8220   47.2060 N   0  0  0  0  0  0  0  0  0  0  0  0
   38.9450   31.5880   46.7210 C   0  0  0  0  0  0  0  0  0  0  0  0
   38.3480   30.7030   47.5310 N   0  0  0  0  0  0  0  0  0  0  0  0
   39.8700   32.4010   44.6630 C   0  0  0  0  0  0  0  0  0  0  0  0
   40.1060   33.5420   45.1390 O   0  0  0  0  0  0  0  0  0  0  0  0
   39.2810   31.3150   45.3650 N   0  0  0  0  0  0  0  0  0  0  0  0
   38.6960   27.3760   52.7770 S   0  0  0  0  0  0  0  0  0  0  0  0
   40.2900   25.1010   53.3750 C   0  0  0  0  0  0  0  0  0  0  0  0
   39.7700   26.0140   52.4570 C   0  0  0  0  0  0  0  0  0  0  0  0
   40.1550   25.8110   51.1360 C   0  0  0  0  0  0  0  0  0  0  0  0
   40.9810   24.8010   50.7390 C   0  0  0  0  0  0  0  0  0  0  0  0
   41.4970   24.3830   49.5870 N   0  0  0  0  0  0  0  0  0  0  0  0
   42.2880   23.2870   49.7420 C   0  0  0  0  0  0  0  0  0  0  0  0
   42.2610   23.0020   51.1020 C   0  0  0  0  0  0  0  0  0  0  0  0
   41.4550   23.9410   51.6910 C   0  0  0  0  0  0  0  0  0  0  0  0
   41.1250   24.0700   53.0200 C   0  0  0  0  0  0  0  0  0  0  0  0
   42.7910   23.1250   54.7810 C   0  0  0  0  0  0  0  0  0  0  0  0
   43.6820   23.9970   54.6710 O   0  0  0  0  0  0  0  0  0  0  0  0
   41.6190   23.1740   54.0120 N   0  0  0  0  0  0  0  0  0  0  0  0
   37.6990   27.4834   50.6280 H   0  0  0  0  0  0  0  0  0  0  0  0
   39.0355   28.7157   50.8788 H   0  0  0  0  0  0  0  0  0  0  0  0
   36.1738   29.0024   51.1090 H   0  0  0  0  0  0  0  0  0  0  0  0
   37.0701   29.4539   52.6406 H   0  0  0  0  0  0  0  0  0  0  0  0
   36.7345   31.3019   51.2581 H   0  0  0  0  0  0  0  0  0  0  0  0
   38.4158   30.9533   51.3847 H   0  0  0  0  0  0  0  0  0  0  0  0
   38.0999   32.4829   50.3632 H   0  0  0  0  0  0  0  0  0  0  0  0
   39.2331   34.1980   48.8680 H   0  0  0  0  0  0  0  0  0  0  0  0
   40.1437   32.2295   43.6115 H   0  0  0  0  0  0  0  0  0  0  0  0
   39.1101   30.3992   44.9257 H   0  0  0  0  0  0  0  0  0  0  0  0
   40.0179   25.2124   54.4350 H   0  0  0  0  0  0  0  0  0  0  0  0
   39.7728   26.5022   50.3704 H   0  0  0  0  0  0  0  0  0  0  0  0
   41.3181   24.8374   48.6801 H   0  0  0  0  0  0  0  0  0  0  0  0
   42.8333   22.7420   48.9573 H   0  0  0  0  0  0  0  0  0  0  0  0
   42.7865   22.1794   51.6091 H   0  0  0  0  0  0  0  0  0  0  0  0
   42.9302   22.3016   55.4969 H   0  0  0  0  0  0  0  0  0  0  0  0
   40.9760   22.3932   54.2064 H   0  0  0  0  0  0  0  0  0  0  0  0
  1  2  1  0
  1 14  1  0
  3  2  1  0
  4  3  1  0
  5  6  2  0
  5  4  1  0
  7  6  1  0
  8  7  2  0
  9  8  1  0
  9 10  2  0
 10  5  1  0
 11 12  2  0
 11 13  1  0
 13  9  1  0
 16 14  1  0
 16 15  2  0
 17 16  1  0
 18 17  2  0
 18 22  1  0
 19 20  1  0
 19 18  1  0
 20 21  2  0
 21 22  1  0
 22 23  2  0
 23 15  1  0
 23 26  1  0
 25 24  2  0
 26 24  1  0
  1 27  1  0
  1 28  1  0
  2 29  1  0
  2 30  1  0
  3 31  1  0
  3 32  1  0
  6 33  1  0
  7 34  1  0
 11 35  1  0
 13 36  1  0
 15 37  1  0
 17 38  1  0
 19 39  1  0
 20 40  1  0
 21 41  1  0
 24 42  1  0
 26 43  1  0
M  ISO  8  27   8  28   8  29   8  30   8  31   8  32   8  33  14  34  14
M  ISO  7  35   6  37  14  38  14  39   9  40  14  41  14  42   6
M  END
>  <minimizedAffinity>  (1) 
-4.18776989

>  <minimizedRMSD>  (1) 
0.115556411

$$$$
