
     RDKit          3D

 41 43  0  0  0  0  0  0  0  0999 V2000
   38.2190   28.2160   51.3290 C   0  0  0  0  0  0  0  0  0  0  0  0
   37.1710   29.2680   51.5910 C   0  0  0  0  0  0  0  0  0  0  0  0
   37.4640   30.4870   51.0700 C   0  0  0  0  0  0  0  0  0  0  0  0
   37.4220   30.1510   49.7430 O   0  0  0  0  0  0  0  0  0  0  0  0
   38.0250   30.9770   48.8360 C   0  0  0  0  0  0  0  0  0  0  0  0
   38.3310   32.2140   49.3710 C   0  0  0  0  0  0  0  0  0  0  0  0
   38.9580   33.1730   48.5500 C   0  0  0  0  0  0  0  0  0  0  0  0
   39.2260   32.8060   47.2570 N   0  0  0  0  0  0  0  0  0  0  0  0
   38.9100   31.5760   46.7680 C   0  0  0  0  0  0  0  0  0  0  0  0
   38.3150   30.6880   47.5710 N   0  0  0  0  0  0  0  0  0  0  0  0
   39.8220   32.4030   44.7090 C   0  0  0  0  0  0  0  0  0  0  0  0
   40.0590   33.5430   45.1870 O   0  0  0  0  0  0  0  0  0  0  0  0
   39.2430   31.3190   45.4060 N   0  0  0  0  0  0  0  0  0  0  0  0
   38.6910   27.2570   52.7600 S   0  0  0  0  0  0  0  0  0  0  0  0
   40.5700   25.2090   53.3400 C   0  0  0  0  0  0  0  0  0  0  0  0
   39.8710   25.9870   52.4260 C   0  0  0  0  0  0  0  0  0  0  0  0
   40.1430   25.7240   51.0740 C   0  0  0  0  0  0  0  0  0  0  0  0
   41.0260   24.7770   50.6610 C   0  0  0  0  0  0  0  0  0  0  0  0
   41.4650   24.3270   49.5000 N   0  0  0  0  0  0  0  0  0  0  0  0
   42.3830   23.3300   49.6400 C   0  0  0  0  0  0  0  0  0  0  0  0
   42.5280   23.1430   51.0030 C   0  0  0  0  0  0  0  0  0  0  0  0
   41.6840   24.0420   51.6140 C   0  0  0  0  0  0  0  0  0  0  0  0
   41.4730   24.2400   52.9580 C   0  0  0  0  0  0  0  0  0  0  0  0
   42.1790   23.4520   53.9650 C   0  0  0  0  0  0  0  0  0  0  0  0
   43.2390   23.8930   54.4790 O   0  0  0  0  0  0  0  0  0  0  0  0
   37.8276   27.5250   50.5678 H   0  0  0  0  0  0  0  0  0  0  0  0
   39.1224   28.7528   51.0040 H   0  0  0  0  0  0  0  0  0  0  0  0
   36.2214   28.9253   51.1542 H   0  0  0  0  0  0  0  0  0  0  0  0
   37.1166   29.3953   52.6823 H   0  0  0  0  0  0  0  0  0  0  0  0
   36.7085   31.2427   51.3311 H   0  0  0  0  0  0  0  0  0  0  0  0
   38.4011   30.9451   51.4192 H   0  0  0  0  0  0  0  0  0  0  0  0
   38.0896   32.4460   50.4188 H   0  0  0  0  0  0  0  0  0  0  0  0
   39.2205   34.1713   48.9301 H   0  0  0  0  0  0  0  0  0  0  0  0
   40.0894   32.2359   43.6552 H   0  0  0  0  0  0  0  0  0  0  0  0
   39.0732   30.4059   44.9607 H   0  0  0  0  0  0  0  0  0  0  0  0
   40.3957   25.3730   54.4137 H   0  0  0  0  0  0  0  0  0  0  0  0
   39.6149   26.3141   50.3106 H   0  0  0  0  0  0  0  0  0  0  0  0
   41.1485   24.6895   48.5893 H   0  0  0  0  0  0  0  0  0  0  0  0
   42.9012   22.7866   48.8362 H   0  0  0  0  0  0  0  0  0  0  0  0
   43.1885   22.4178   51.5009 H   0  0  0  0  0  0  0  0  0  0  0  0
   41.7838   22.4730   54.2739 H   0  0  0  0  0  0  0  0  0  0  0  0
  1  2  1  0
  1 14  1  0
  3  2  1  0
  4  3  1  0
  5  6  2  0
  5  4  1  0
  7  6  1  0
  8  7  2  0
  9  8  1  0
  9 10  2  0
 10  5  1  0
 11 12  2  0
 11 13  1  0
 13  9  1  0
 16 14  1  0
 16 15  2  0
 17 16  1  0
 18 17  2  0
 18 22  1  0
 19 20  1  0
 19 18  1  0
 20 21  2  0
 21 22  1  0
 22 23  2  0
 23 15  1  0
 23 24  1  0
 24 25  2  0
  1 26  1  0
  1 27  1  0
  2 28  1  0
  2 29  1  0
  3 30  1  0
  3 31  1  0
  6 32  1  0
  7 33  1  0
 11 34  1  0
 13 35  1  0
 15 36  1  0
 17 37  1  0
 19 38  1  0
 20 39  1  0
 21 40  1  0
 24 41  1  0
M  ISO  8  26   8  27   8  28   8  29   8  30   8  31   8  32  14  33  14
M  ISO  7  34   6  36  14  37  14  38   9  39  14  40  14  41   6
M  END
>  <minimizedAffinity>  (1) 
-4.10804462

>  <minimizedRMSD>  (1) 
0.231990114

$$$$
