
     RDKit          3D

 44 46  0  0  0  0  0  0  0  0999 V2000
   35.2680   30.3340   49.4090 C   0  0  0  0  0  0  0  0  0  0  0  0
   38.1720   31.5020   48.9750 Br  0  0  0  0  0  0  0  0  0  0  0  0
   36.9440   30.8970   47.6230 C   0  0  0  0  0  0  0  0  0  0  0  0
   37.2880   30.9430   46.2850 C   0  0  0  0  0  0  0  0  0  0  0  0
   36.3700   30.5050   45.3670 C   0  0  0  0  0  0  0  0  0  0  0  0
   35.1250   30.0240   45.7460 C   0  0  0  0  0  0  0  0  0  0  0  0
   34.8110   29.9920   47.1020 C   0  0  0  0  0  0  0  0  0  0  0  0
   35.7230   30.4280   48.0230 C   0  0  0  0  0  0  0  0  0  0  0  0
   39.8300   33.2580   45.0650 C   0  0  0  0  0  0  0  0  0  0  0  0
   41.0150   32.4810   45.0390 C   0  0  0  0  0  0  0  0  0  0  0  0
   40.9040   31.1720   45.4460 C   0  0  0  0  0  0  0  0  0  0  0  0
   39.6870   30.6690   45.8530 N   0  0  0  0  0  0  0  0  0  0  0  0
   38.5920   31.4540   45.8570 C   0  0  0  0  0  0  0  0  0  0  0  0
   38.6780   32.7340   45.4630 N   0  0  0  0  0  0  0  0  0  0  0  0
   34.1700   29.3760   49.6910 C   0  0  0  0  0  0  0  0  0  0  0  0
   34.5880   28.0690   49.3470 N   0  0  0  0  0  0  0  0  0  0  0  0
   33.7350   27.3020   48.5170 C   0  0  0  0  0  0  0  0  0  0  0  0
   32.3220   27.6950   48.8040 C   0  0  0  0  0  0  0  0  0  0  0  0
   33.4780   25.0960   47.4880 Cl  0  0  0  0  0  0  0  0  0  0  0  0
   31.8730   25.6900   47.2230 C   0  0  0  0  0  0  0  0  0  0  0  0
   31.4940   26.8300   47.8540 C   0  0  0  0  0  0  0  0  0  0  0  0
   30.1750   27.2080   47.5620 C   0  0  0  0  0  0  0  0  0  0  0  0
   29.3030   26.5570   46.7450 C   0  0  0  0  0  0  0  0  0  0  0  0
   29.7850   25.4090   46.1520 C   0  0  0  0  0  0  0  0  0  0  0  0
   31.0670   24.9640   46.3820 C   0  0  0  0  0  0  0  0  0  0  0  0
   34.9241   31.3332   49.7145 H   0  0  0  0  0  0  0  0  0  0  0  0
   36.1336   29.9519   49.9700 H   0  0  0  0  0  0  0  0  0  0  0  0
   36.6276   30.5356   44.2980 H   0  0  0  0  0  0  0  0  0  0  0  0
   34.4029   29.6761   44.9927 H   0  0  0  0  0  0  0  0  0  0  0  0
   33.8311   29.6167   47.4319 H   0  0  0  0  0  0  0  0  0  0  0  0
   39.8660   34.3114   44.7504 H   0  0  0  0  0  0  0  0  0  0  0  0
   41.9756   32.9038   44.7097 H   0  0  0  0  0  0  0  0  0  0  0  0
   41.7918   30.5226   45.4467 H   0  0  0  0  0  0  0  0  0  0  0  0
   33.9179   29.4111   50.7611 H   0  0  0  0  0  0  0  0  0  0  0  0
   33.2841   29.6469   49.0979 H   0  0  0  0  0  0  0  0  0  0  0  0
   35.4935   28.1530   48.8634 H   0  0  0  0  0  0  0  0  0  0  0  0
   33.8737   26.2316   48.7294 H   0  0  0  0  0  0  0  0  0  0  0  0
   33.9715   27.4855   47.4585 H   0  0  0  0  0  0  0  0  0  0  0  0
   32.0627   27.4825   49.8517 H   0  0  0  0  0  0  0  0  0  0  0  0
   32.1451   28.7708   48.6578 H   0  0  0  0  0  0  0  0  0  0  0  0
   29.8074   28.1261   48.0436 H   0  0  0  0  0  0  0  0  0  0  0  0
   28.2805   26.9225   46.5691 H   0  0  0  0  0  0  0  0  0  0  0  0
   29.1298   24.8357   45.4797 H   0  0  0  0  0  0  0  0  0  0  0  0
   31.4377   24.0462   45.9021 H   0  0  0  0  0  0  0  0  0  0  0  0
  1 15  1  0
  3  8  2  0
  3  2  1  0
  4  3  1  0
  5  6  1  0
  5  4  2  0
  6  7  2  0
  7  8  1  0
  8  1  1  0
  9 14  2  0
 10  9  1  0
 10 11  2  0
 11 12  1  0
 12 13  2  0
 13  4  1  0
 14 13  1  0
 16 15  1  0
 17 18  1  0
 17 16  1  0
 20 19  1  0
 20 21  2  0
 21 18  1  0
 22 21  1  0
 23 22  2  0
 24 25  2  0
 24 23  1  0
 25 20  1  0
  1 26  1  0
  1 27  1  0
  5 28  1  0
  6 29  1  0
  7 30  1  0
  9 31  1  0
 10 32  1  0
 11 33  1  0
 15 34  1  0
 15 35  1  0
 16 36  1  0
 17 37  1  0
 17 38  1  0
 18 39  1  0
 18 40  1  0
 22 41  1  0
 23 42  1  0
 24 43  1  0
 25 44  1  0
M  ISO  8  26   8  27   8  28  14  29  14  30  14  31  14  32  14  33  14
M  ISO  8  34   8  35   8  36   5  37   8  38   8  39   8  40   8  41  14
M  ISO  3  42  14  43  14  44  14
M  END
>  <minimizedAffinity>  (1) 
-5.5242033

>  <minimizedRMSD>  (1) 
0.415909171

$$$$
