
     RDKit          3D

 32 34  0  0  1  0  0  0  0  0999 V2000
   38.0380   31.3200   45.2940 N   0  0  0  0  0  0  0  0  0  0  0  0
   39.1390   30.3930   45.2690 C   0  0  0  0  0  0  0  0  0  0  0  0
   40.2710   31.1990   45.9000 C   0  0  0  0  0  0  0  0  0  0  0  0
   39.6830   32.5410   46.2420 C   0  0  0  0  0  0  0  0  0  0  0  0
   38.2370   32.1900   46.4470 C   0  0  2  0  0  0  0  0  0  0  0  0
   36.9450   31.3950   44.3770 C   0  0  0  0  0  0  0  0  0  0  0  0
   36.9850   32.4310   43.4460 C   0  0  0  0  0  0  0  0  0  0  0  0
   35.9230   32.5250   42.5330 C   0  0  0  0  0  0  0  0  0  0  0  0
   34.9130   31.5810   42.6250 N   0  0  0  0  0  0  0  0  0  0  0  0
   34.9210   30.5960   43.5460 C   0  0  0  0  0  0  0  0  0  0  0  0
   35.9530   30.5160   44.4240 N   0  0  0  0  0  0  0  0  0  0  0  0
   37.9380   31.4920   47.7010 C   0  0  0  0  0  0  0  0  0  0  0  0
   38.5580   31.9210   48.8730 C   0  0  0  0  0  0  0  0  0  0  0  0
   38.3370   31.3260   50.0930 C   0  0  0  0  0  0  0  0  0  0  0  0
   37.4800   30.2580   50.2140 C   0  0  0  0  0  0  0  0  0  0  0  0
   36.8440   29.7990   49.0780 C   0  0  0  0  0  0  0  0  0  0  0  0
   37.1000   30.4320   47.8800 C   0  0  0  0  0  0  0  0  0  0  0  0
   38.9141   29.4940   45.8616 H   0  0  0  0  0  0  0  0  0  0  0  0
   39.3758   30.0238   44.2602 H   0  0  0  0  0  0  0  0  0  0  0  0
   40.6360   30.6986   46.8091 H   0  0  0  0  0  0  0  0  0  0  0  0
   41.1267   31.2963   45.2157 H   0  0  0  0  0  0  0  0  0  0  0  0
   40.1302   32.9541   47.1582 H   0  0  0  0  0  0  0  0  0  0  0  0
   39.8533   33.3136   45.4777 H   0  0  0  0  0  0  0  0  0  0  0  0
   37.5833   33.0715   46.5225 H   0  0  0  0  0  0  0  0  0  0  0  0
   37.8183   33.1488   43.4272 H   0  0  0  0  0  0  0  0  0  0  0  0
   35.8937   33.3190   41.7723 H   0  0  0  0  0  0  0  0  0  0  0  0
   34.0999   29.8651   43.5853 H   0  0  0  0  0  0  0  0  0  0  0  0
   39.2536   32.7715   48.8200 H   0  0  0  0  0  0  0  0  0  0  0  0
   38.8535   31.7103   50.9850 H   0  0  0  0  0  0  0  0  0  0  0  0
   37.3056   29.7818   51.1901 H   0  0  0  0  0  0  0  0  0  0  0  0
   36.1490   28.9478   49.1273 H   0  0  0  0  0  0  0  0  0  0  0  0
   36.5817   30.0472   46.9893 H   0  0  0  0  0  0  0  0  0  0  0  0
  1  5  1  0
  2  1  1  0
  2  3  1  0
  3  4  1  0
  4  5  1  0
  5 12  1  0
  6 11  1  0
  6  1  1  0
  7  6  2  0
  8  9  2  0
  8  7  1  0
  9 10  1  0
 10 11  2  0
 12 17  1  0
 12 13  2  0
 13 14  1  0
 14 15  2  0
 16 15  1  0
 17 16  2  0
  2 18  1  0
  2 19  1  0
  3 20  1  0
  3 21  1  0
  4 22  1  0
  4 23  1  0
  5 24  1  6
  7 25  1  0
  8 26  1  0
 10 27  1  0
 13 28  1  0
 14 29  1  0
 15 30  1  0
 16 31  1  0
 17 32  1  0
M  ISO  8  18  13  19  13  20  13  21  13  22  13  23  13  24  13  25  14
M  ISO  7  26  14  27  14  28  14  29  14  30  14  31  14  32  14
M  END
>  <minimizedAffinity>  (1) 
-5.56502008

>  <minimizedRMSD>  (1) 
5.14670563

$$$$
