
     RDKit          3D

 29 31  0  0  1  0  0  0  0  0999 V2000
   37.5100   31.3610   47.9570 N   0  0  0  0  0  0  0  0  0  0  0  0
   38.4060   32.5040   47.9720 C   0  0  0  0  0  0  0  0  0  0  0  0
   38.1070   33.1240   49.3250 C   0  0  0  0  0  0  0  0  0  0  0  0
   37.0820   32.2430   49.9880 C   0  0  0  0  0  0  0  0  0  0  0  0
   37.3500   30.9030   49.3180 C   0  0  1  0  0  0  0  0  0  0  0  0
   36.8970   30.7940   46.7920 C   0  0  0  0  0  0  0  0  0  0  0  0
   37.6940   30.5840   45.6550 C   0  0  0  0  0  0  0  0  0  0  0  0
   37.0550   30.0350   44.5450 C   0  0  0  0  0  0  0  0  0  0  0  0
   35.7230   29.7420   44.6310 N   0  0  0  0  0  0  0  0  0  0  0  0
   34.9970   29.9580   45.7350 C   0  0  0  0  0  0  0  0  0  0  0  0
   35.6040   30.4920   46.8270 N   0  0  0  0  0  0  0  0  0  0  0  0
   36.0650   30.1520   49.4270 C   0  0  0  0  0  0  0  0  0  0  0  0
   35.9220   28.7820   49.4570 C   0  0  0  0  0  0  0  0  0  0  0  0
   34.5990   28.4530   49.5640 C   0  0  0  0  0  0  0  0  0  0  0  0
   33.9450   29.6350   49.6000 N   0  0  0  0  0  0  0  0  0  0  0  0
   34.8130   30.6240   49.5200 N   0  0  0  0  0  0  0  0  0  0  0  0
   39.4573   32.1883   47.9009 H   0  0  0  0  0  0  0  0  0  0  0  0
   38.2592   33.1929   47.1271 H   0  0  0  0  0  0  0  0  0  0  0  0
   39.0223   33.1649   49.9338 H   0  0  0  0  0  0  0  0  0  0  0  0
   37.7326   34.1524   49.2147 H   0  0  0  0  0  0  0  0  0  0  0  0
   37.2431   32.1876   51.0747 H   0  0  0  0  0  0  0  0  0  0  0  0
   36.0472   32.5994   49.8773 H   0  0  0  0  0  0  0  0  0  0  0  0
   38.1755   30.2844   49.7000 H   0  0  0  0  0  0  0  0  0  0  0  0
   38.7640   30.8389   45.6413 H   0  0  0  0  0  0  0  0  0  0  0  0
   37.6124   29.8411   43.6168 H   0  0  0  0  0  0  0  0  0  0  0  0
   33.9262   29.7072   45.7576 H   0  0  0  0  0  0  0  0  0  0  0  0
   36.7498   28.0596   49.4029 H   0  0  0  0  0  0  0  0  0  0  0  0
   34.1619   27.4447   49.6107 H   0  0  0  0  0  0  0  0  0  0  0  0
   32.9240   29.7463   49.6780 H   0  0  0  0  0  0  0  0  0  0  0  0
  1  2  1  0
  1  5  1  0
  2  3  1  0
  3  4  1  0
  5 12  1  0
  5  4  1  0
  6 11  1  0
  6  1  1  0
  7  6  2  0
  8  9  2  0
  8  7  1  0
  9 10  1  0
 10 11  2  0
 12 13  1  0
 12 16  2  0
 13 14  2  0
 14 15  1  0
 16 15  1  0
  2 17  1  0
  2 18  1  0
  3 19  1  0
  3 20  1  0
  4 21  1  0
  4 22  1  0
  5 23  1  1
  7 24  1  0
  8 25  1  0
 10 26  1  0
 13 27  1  0
 14 28  1  0
 15 29  1  0
M  ISO  8  17  13  18  13  19  13  20  13  21  13  22  13  23  13  24  14
M  ISO  5  25  14  26  14  27  14  28  14  29   9
M  END
>  <minimizedAffinity>  (1) 
-5.02538824

>  <minimizedRMSD>  (1) 
3.05203724

$$$$
