
     RDKit          3D

 28 29  0  0  1  0  0  0  0  0999 V2000
   37.9800   31.4520   47.8590 N   0  0  0  0  0  0  0  0  0  0  0  0
   38.5110   31.6590   49.1770 C   0  0  0  0  0  0  0  0  0  0  0  0
   37.3060   31.4210   50.0700 C   0  0  0  0  0  0  0  0  0  0  0  0
   36.1270   31.2090   49.1450 C   0  0  0  0  0  0  0  0  0  0  0  0
   36.8580   30.5200   47.9910 C   0  0  1  0  0  0  0  0  0  0  0  0
   38.4290   32.0220   46.6440 C   0  0  0  0  0  0  0  0  0  0  0  0
   39.6790   32.6320   46.6580 C   0  0  0  0  0  0  0  0  0  0  0  0
   40.1870   33.2160   45.4920 C   0  0  0  0  0  0  0  0  0  0  0  0
   39.3880   33.1430   44.3820 N   0  0  0  0  0  0  0  0  0  0  0  0
   38.1860   32.5500   44.3940 C   0  0  0  0  0  0  0  0  0  0  0  0
   37.7020   31.9840   45.5350 N   0  0  0  0  0  0  0  0  0  0  0  0
   36.0800   30.5500   46.8630 O   0  0  0  0  0  0  0  0  0  0  0  0
   34.6390   28.7610   48.1860 O   0  0  0  0  0  0  0  0  0  0  0  0
   34.6280   29.7130   47.0250 P   0  0  0  0  0  0  0  0  0  0  0  0
   33.3160   30.7510   47.2450 O   0  0  0  0  0  0  0  0  0  0  0  0
   34.3600   28.8600   45.5890 O   0  0  0  0  0  0  0  0  0  0  0  0
   39.3146   30.9408   49.3971 H   0  0  0  0  0  0  0  0  0  0  0  0
   38.9621   32.6531   49.3122 H   0  0  0  0  0  0  0  0  0  0  0  0
   37.4650   30.5297   50.6947 H   0  0  0  0  0  0  0  0  0  0  0  0
   37.1355   32.2715   50.7465 H   0  0  0  0  0  0  0  0  0  0  0  0
   35.3601   30.5610   49.5944 H   0  0  0  0  0  0  0  0  0  0  0  0
   35.5633   32.1150   48.8776 H   0  0  0  0  0  0  0  0  0  0  0  0
   37.1242   29.4635   48.1424 H   0  0  0  0  0  0  0  0  0  0  0  0
   40.2687   32.6554   47.5863 H   0  0  0  0  0  0  0  0  0  0  0  0
   41.1717   33.7057   45.4684 H   0  0  0  0  0  0  0  0  0  0  0  0
   37.5844   32.5200   43.4736 H   0  0  0  0  0  0  0  0  0  0  0  0
   33.1549   30.8785   48.2134 H   0  0  0  0  0  0  0  0  0  0  0  0
   34.0702   27.9377   45.8022 H   0  0  0  0  0  0  0  0  0  0  0  0
  1  5  1  0
  1  2  1  0
  2  3  1  0
  4  3  1  0
  5  4  1  0
  6  7  2  0
  6  1  1  0
  8  7  1  0
  9 10  1  0
  9  8  2  0
 10 11  2  0
 11  6  1  0
 12 14  1  0
 12  5  1  0
 14 15  1  0
 14 13  2  0
 16 14  1  0
  2 17  1  0
  2 18  1  0
  3 19  1  0
  3 20  1  0
  4 21  1  0
  4 22  1  0
  5 23  1  1
  7 24  1  0
  8 25  1  0
 10 26  1  0
 15 27  1  0
 16 28  1  0
M  ISO  8  17  13  18  13  19  13  20  13  21  13  22  13  23  13  24  14
M  ISO  4  25  14  26  14  27   3  28   3
M  END
>  <minimizedAffinity>  (1) 
-4.96114731

>  <minimizedRMSD>  (1) 
5.0974474

$$$$
