
     RDKit          3D

 26 27  0  0  1  0  0  0  0  0999 V2000
   37.4930   31.4450   48.2650 N   0  0  0  0  0  0  0  0  0  0  0  0
   38.7680   32.0630   48.0250 C   0  0  0  0  0  0  0  0  0  0  0  0
   38.8290   33.1640   49.0850 C   0  0  0  0  0  0  0  0  0  0  0  0
   37.4990   33.0920   49.8390 C   0  0  0  0  0  0  0  0  0  0  0  0
   37.2520   31.5910   49.6820 C   0  0  2  0  0  0  0  0  0  0  0  0
   36.6370   30.8170   47.3210 C   0  0  0  0  0  0  0  0  0  0  0  0
   37.0580   30.8300   45.9870 C   0  0  0  0  0  0  0  0  0  0  0  0
   36.2290   30.2200   45.0330 C   0  0  0  0  0  0  0  0  0  0  0  0
   35.0520   29.6510   45.4890 N   0  0  0  0  0  0  0  0  0  0  0  0
   34.6960   29.6680   46.7930 C   0  0  0  0  0  0  0  0  0  0  0  0
   35.4820   30.2500   47.7180 N   0  0  0  0  0  0  0  0  0  0  0  0
   37.4750   29.7690   51.2970 C   0  0  0  0  0  0  0  0  0  0  0  0
   36.2200   29.6130   51.2130 O   0  0  0  0  0  0  0  0  0  0  0  0
   38.0970   30.7980   50.5170 N   0  0  0  0  0  0  0  0  0  0  0  0
   39.5873   31.3413   48.1586 H   0  0  0  0  0  0  0  0  0  0  0  0
   38.8751   32.4458   46.9993 H   0  0  0  0  0  0  0  0  0  0  0  0
   39.6691   32.9873   49.7727 H   0  0  0  0  0  0  0  0  0  0  0  0
   38.9839   34.1541   48.6315 H   0  0  0  0  0  0  0  0  0  0  0  0
   37.5999   33.3904   50.8929 H   0  0  0  0  0  0  0  0  0  0  0  0
   36.6998   33.7551   49.4762 H   0  0  0  0  0  0  0  0  0  0  0  0
   36.2589   31.2399   49.9989 H   0  0  0  0  0  0  0  0  0  0  0  0
   38.0075   31.3027   45.6954 H   0  0  0  0  0  0  0  0  0  0  0  0
   36.5027   30.1950   43.9679 H   0  0  0  0  0  0  0  0  0  0  0  0
   33.7502   29.1994   47.1028 H   0  0  0  0  0  0  0  0  0  0  0  0
   38.0761   29.1261   51.9568 H   0  0  0  0  0  0  0  0  0  0  0  0
   39.1135   30.9593   50.5570 H   0  0  0  0  0  0  0  0  0  0  0  0
  1  5  1  0
  2  1  1  0
  2  3  1  0
  3  4  1  0
  5  4  1  0
  5 14  1  0
  6 11  1  0
  6  1  1  0
  7  6  2  0
  8  9  2  0
  8  7  1  0
  9 10  1  0
 10 11  2  0
 13 12  2  0
 14 12  1  0
  2 15  1  0
  2 16  1  0
  3 17  1  0
  3 18  1  0
  4 19  1  0
  4 20  1  0
  5 21  1  6
  7 22  1  0
  8 23  1  0
 10 24  1  0
 12 25  1  0
 14 26  1  0
M  ISO  8  15  13  16  13  17  13  18  13  19  13  20  13  21  13  22  14
M  ISO  3  23  14  24  14  25   6
M  END
>  <minimizedAffinity>  (1) 
-4.7511692

>  <minimizedRMSD>  (1) 
2.77512169

$$$$
