
     RDKit          3D

 24 25  0  0  1  0  0  0  0  0999 V2000
   37.3590   30.5050   48.5370 N   0  0  0  0  0  0  0  0  0  0  0  0
   38.0200   31.1110   47.4140 C   0  0  0  0  0  0  0  0  0  0  0  0
   38.7250   32.3070   48.0740 C   0  0  0  0  0  0  0  0  0  0  0  0
   38.4400   32.2280   49.5550 C   0  0  0  0  0  0  0  0  0  0  0  0
   38.2180   30.7230   49.7010 C   0  0  1  0  0  0  0  0  0  0  0  0
   36.1040   29.8130   48.5550 C   0  0  0  0  0  0  0  0  0  0  0  0
   35.0990   30.3180   47.7020 C   0  0  0  0  0  0  0  0  0  0  0  0
   33.8710   29.6490   47.7210 C   0  0  0  0  0  0  0  0  0  0  0  0
   33.7410   28.5710   48.5520 N   0  0  0  0  0  0  0  0  0  0  0  0
   34.7210   28.1230   49.3470 C   0  0  0  0  0  0  0  0  0  0  0  0
   35.9080   28.7560   49.3400 N   0  0  0  0  0  0  0  0  0  0  0  0
   37.5080   30.4610   50.9610 C   0  0  0  0  0  0  0  0  0  0  0  0
   37.1700   30.1270   52.0740 O   0  0  0  0  0  0  0  0  0  0  0  0
   37.2969   31.4416   46.6539 H   0  0  0  0  0  0  0  0  0  0  0  0
   38.7000   30.4329   46.8775 H   0  0  0  0  0  0  0  0  0  0  0  0
   39.8089   32.2520   47.8948 H   0  0  0  0  0  0  0  0  0  0  0  0
   38.3604   33.2565   47.6551 H   0  0  0  0  0  0  0  0  0  0  0  0
   39.2946   32.5749   50.1545 H   0  0  0  0  0  0  0  0  0  0  0  0
   37.6056   32.8557   49.9010 H   0  0  0  0  0  0  0  0  0  0  0  0
   39.1142   30.0860   49.7339 H   0  0  0  0  0  0  0  0  0  0  0  0
   35.2726   31.1916   47.0564 H   0  0  0  0  0  0  0  0  0  0  0  0
   33.0353   29.9799   47.0868 H   0  0  0  0  0  0  0  0  0  0  0  0
   34.5578   27.2502   49.9963 H   0  0  0  0  0  0  0  0  0  0  0  0
   36.5520   30.9195   50.6681 H   0  0  0  0  0  0  0  0  0  0  0  0
  1  6  1  0
  1  5  1  0
  2  3  1  0
  2  1  1  0
  3  4  1  0
  4  5  1  0
  5 12  1  0
  6 11  2  0
  7  8  2  0
  7  6  1  0
  8  9  1  0
  9 10  2  0
 11 10  1  0
 12 13  2  0
  2 14  1  0
  2 15  1  0
  3 16  1  0
  3 17  1  0
  4 18  1  0
  4 19  1  0
  5 20  1  6
  7 21  1  0
  8 22  1  0
 10 23  1  0
 12 24  1  0
M  ISO  8  14  13  15  13  16  13  17  13  18  13  19  13  20  13  21  14
M  ISO  3  22  14  23  14  24   6
M  END
>  <minimizedAffinity>  (1) 
-4.61928272

>  <minimizedRMSD>  (1) 
1.83395493

$$$$
