
     RDKit          3D

 28 30  0  0  1  0  0  0  0  0999 V2000
   38.9220   32.2310   47.7850 N   0  0  0  0  0  0  0  0  0  0  0  0
   39.7740   33.4170   47.7760 C   0  0  0  0  0  0  0  0  0  0  0  0
   39.2490   34.1950   48.9670 C   0  0  0  0  0  0  0  0  0  0  0  0
   38.0940   33.3960   49.5240 C   0  0  0  0  0  0  0  0  0  0  0  0
   38.5490   31.9830   49.1500 C   0  0  1  0  0  0  0  0  0  0  0  0
   38.5510   31.4710   46.6370 C   0  0  0  0  0  0  0  0  0  0  0  0
   39.5350   30.7530   45.9630 C   0  0  0  0  0  0  0  0  0  0  0  0
   39.1730   30.0080   44.8350 C   0  0  0  0  0  0  0  0  0  0  0  0
   37.8520   30.0410   44.4680 N   0  0  0  0  0  0  0  0  0  0  0  0
   36.9220   30.7520   45.1500 C   0  0  0  0  0  0  0  0  0  0  0  0
   37.2880   31.4610   46.2310 N   0  0  0  0  0  0  0  0  0  0  0  0
   37.4360   31.0220   49.3330 C   0  0  0  0  0  0  0  0  0  0  0  0
   37.6790   29.6010   49.4630 C   0  0  0  0  0  0  0  0  0  0  0  0
   36.0280   28.9330   49.6810 S   0  0  0  0  0  0  0  0  0  0  0  0
   35.2450   30.6650   49.5640 C   0  0  0  0  0  0  0  0  0  0  0  0
   36.2290   31.5730   49.3790 N   0  0  0  0  0  0  0  0  0  0  0  0
   40.8325   33.1491   47.9094 H   0  0  0  0  0  0  0  0  0  0  0  0
   39.7402   33.9788   46.8309 H   0  0  0  0  0  0  0  0  0  0  0  0
   40.0369   34.3048   49.7267 H   0  0  0  0  0  0  0  0  0  0  0  0
   38.9293   35.2057   48.6731 H   0  0  0  0  0  0  0  0  0  0  0  0
   37.9984   33.5200   50.6128 H   0  0  0  0  0  0  0  0  0  0  0  0
   37.1033   33.6820   49.1410 H   0  0  0  0  0  0  0  0  0  0  0  0
   39.3541   31.5266   49.7445 H   0  0  0  0  0  0  0  0  0  0  0  0
   40.5784   30.7709   46.3109 H   0  0  0  0  0  0  0  0  0  0  0  0
   39.9133   29.4233   44.2692 H   0  0  0  0  0  0  0  0  0  0  0  0
   35.8726   30.7488   44.8204 H   0  0  0  0  0  0  0  0  0  0  0  0
   38.6384   29.0636   49.4351 H   0  0  0  0  0  0  0  0  0  0  0  0
   34.1705   30.8892   49.6352 H   0  0  0  0  0  0  0  0  0  0  0  0
  1  5  1  0
  2  1  1  0
  2  3  1  0
  3  4  1  0
  5 12  1  0
  5  4  1  0
  6  1  1  0
  7  6  2  0
  8  7  1  0
  9  8  2  0
  9 10  1  0
 10 11  2  0
 11  6  1  0
 12 16  1  0
 12 13  2  0
 13 14  1  0
 15 14  1  0
 16 15  2  0
  2 17  1  0
  2 18  1  0
  3 19  1  0
  3 20  1  0
  4 21  1  0
  4 22  1  0
  5 23  1  1
  7 24  1  0
  8 25  1  0
 10 26  1  0
 13 27  1  0
 15 28  1  0
M  ISO  8  17  13  18  13  19  13  20  13  21  13  22  13  23  13  24  14
M  ISO  4  25  14  26  14  27  14  28  14
M  END
>  <minimizedAffinity>  (1) 
-4.45216846

>  <minimizedRMSD>  (1) 
4.3956809

$$$$
