
     RDKit          3D

 32 34  0  0  1  0  0  0  0  0999 V2000
   36.4300   30.1910   48.6940 N   0  0  0  0  0  0  0  0  0  0  0  0
   37.7970   30.4130   48.3410 C   0  0  0  0  0  0  0  0  0  0  0  0
   38.1690   31.6450   49.1510 C   0  0  0  0  0  0  0  0  0  0  0  0
   36.9380   32.0030   49.9390 C   0  0  0  0  0  0  0  0  0  0  0  0
   36.2580   30.6680   50.0580 C   0  0  2  0  0  0  0  0  0  0  0  0
   35.4020   29.6170   47.8900 C   0  0  0  0  0  0  0  0  0  0  0  0
   35.2730   30.1120   46.5990 C   0  0  0  0  0  0  0  0  0  0  0  0
   34.2820   29.5910   45.7550 C   0  0  0  0  0  0  0  0  0  0  0  0
   33.4900   28.6100   46.2690 N   0  0  0  0  0  0  0  0  0  0  0  0
   33.6500   28.1520   47.5380 C   0  0  0  0  0  0  0  0  0  0  0  0
   34.6050   28.6530   48.3530 N   0  0  0  0  0  0  0  0  0  0  0  0
   32.7330   27.0710   48.0130 C   0  0  0  0  0  0  0  0  0  0  0  0
   31.4100   26.8880   47.4040 C   0  0  0  0  0  0  0  0  0  0  0  0
   31.4520   27.6370   48.7000 C   0  0  0  0  0  0  0  0  0  0  0  0
   36.8540   29.7670   51.0990 C   0  0  0  0  0  0  0  0  0  0  0  0
   37.4610   28.6580   50.4840 F   0  0  0  0  0  0  0  0  0  0  0  0
   35.9680   29.3770   52.0410 F   0  0  0  0  0  0  0  0  0  0  0  0
   37.8690   30.4510   51.7850 F   0  0  0  0  0  0  0  0  0  0  0  0
   38.4218   29.5525   48.6223 H   0  0  0  0  0  0  0  0  0  0  0  0
   37.9472   30.5461   47.2595 H   0  0  0  0  0  0  0  0  0  0  0  0
   39.0058   31.4199   49.8286 H   0  0  0  0  0  0  0  0  0  0  0  0
   38.4911   32.4738   48.5035 H   0  0  0  0  0  0  0  0  0  0  0  0
   37.1981   32.4107   50.9270 H   0  0  0  0  0  0  0  0  0  0  0  0
   36.3175   32.7817   49.4714 H   0  0  0  0  0  0  0  0  0  0  0  0
   35.2152   30.7112   50.4056 H   0  0  0  0  0  0  0  0  0  0  0  0
   35.9435   30.9072   46.2411 H   0  0  0  0  0  0  0  0  0  0  0  0
   34.1506   29.9575   44.7262 H   0  0  0  0  0  0  0  0  0  0  0  0
   33.5483   26.3644   48.2278 H   0  0  0  0  0  0  0  0  0  0  0  0
   31.1630   27.4261   46.4769 H   0  0  0  0  0  0  0  0  0  0  0  0
   30.8518   26.0058   47.0575 H   0  0  0  0  0  0  0  0  0  0  0  0
   31.0649   27.1780   49.6217 H   0  0  0  0  0  0  0  0  0  0  0  0
   31.1132   28.6199   49.0593 H   0  0  0  0  0  0  0  0  0  0  0  0
  1  5  1  0
  2  1  1  0
  2  3  1  0
  3  4  1  0
  4  5  1  0
  5 15  1  0
  6 11  1  0
  6  1  1  0
  7  6  2  0
  8  9  2  0
  8  7  1  0
  9 10  1  0
 10 12  1  0
 10 11  2  0
 12 14  1  0
 13 12  1  0
 13 14  1  0
 15 18  1  0
 15 17  1  0
 16 15  1  0
  2 19  1  0
  2 20  1  0
  3 21  1  0
  3 22  1  0
  4 23  1  0
  4 24  1  0
  5 25  1  1
  7 26  1  0
  8 27  1  0
 12 28  1  0
 13 29  1  0
 13 30  1  0
 14 31  1  0
 14 32  1  0
M  ISO  8  19  13  20  13  21  13  22  13  23  13  24  13  25  13  26  14
M  ISO  6  27  14  28  13  29  13  30  13  31  13  32  13
M  END
>  <minimizedAffinity>  (1) 
-5.59531164

>  <minimizedRMSD>  (1) 
1.16771817

$$$$
