
     RDKit          3D

 23 24  0  0  1  0  0  0  0  0999 V2000
   35.3720   29.2090   50.9830 C   0  0  0  0  0  0  0  0  0  0  0  0
   36.6730   29.5610   50.5560 C   0  0  0  0  0  0  0  0  0  0  0  0
   36.8020   30.2890   49.3700 C   0  0  0  0  0  0  0  0  0  0  0  0
   35.6610   30.6240   48.6880 N   0  0  0  0  0  0  0  0  0  0  0  0
   34.4360   30.2700   49.1280 C   0  0  0  0  0  0  0  0  0  0  0  0
   34.2990   29.5720   50.2620 N   0  0  0  0  0  0  0  0  0  0  0  0
   38.4420   32.1420   48.9980 C   0  0  1  0  0  0  0  0  0  0  0  0
   38.1120   30.6980   48.8490 C   0  0  2  0  0  0  0  0  0  0  0  0
   38.2310   30.3610   47.5030 O   0  0  0  0  0  0  0  0  0  0  0  0
   39.0900   31.2940   46.9330 C   0  0  0  0  0  0  0  0  0  0  0  0
   38.5690   32.5790   47.5570 C   0  0  2  0  0  0  0  0  0  0  0  0
   37.5430   32.8770   49.7140 O   0  0  0  0  0  0  0  0  0  0  0  0
   39.4090   33.6420   47.3700 O   0  0  0  0  0  0  0  0  0  0  0  0
   35.2380   28.6344   51.9114 H   0  0  0  0  0  0  0  0  0  0  0  0
   37.5583   29.2702   51.1405 H   0  0  0  0  0  0  0  0  0  0  0  0
   33.5442   30.5567   48.5514 H   0  0  0  0  0  0  0  0  0  0  0  0
   39.3485   32.3036   49.5998 H   0  0  0  0  0  0  0  0  0  0  0  0
   38.8291   30.1475   49.4757 H   0  0  0  0  0  0  0  0  0  0  0  0
   40.1369   31.1039   47.2120 H   0  0  0  0  0  0  0  0  0  0  0  0
   39.0989   31.2927   45.8330 H   0  0  0  0  0  0  0  0  0  0  0  0
   37.6341   32.9615   47.1216 H   0  0  0  0  0  0  0  0  0  0  0  0
   37.7048   32.7447   50.6817 H   0  0  0  0  0  0  0  0  0  0  0  0
   39.6908   33.9986   48.2495 H   0  0  0  0  0  0  0  0  0  0  0  0
  2  1  2  0
  3  2  1  0
  4  5  1  0
  4  3  2  0
  5  6  2  0
  6  1  1  0
  7 12  1  0
  8  7  1  0
  8  3  1  0
  9  8  1  0
 10  9  1  0
 10 11  1  0
 11 13  1  0
 11  7  1  0
  1 14  1  0
  2 15  1  0
  5 16  1  0
  7 17  1  1
  8 18  1  1
 10 19  1  0
 10 20  1  0
 11 21  1  6
 12 22  1  0
 13 23  1  0
M  ISO  8  14  14  15  14  16  14  17  13  18  13  19  13  20  13  21  13
M  ISO  2  22   3  23   3
M  END
>  <minimizedAffinity>  (1) 
-4.68885183

>  <minimizedRMSD>  (1) 
1.67922616

$$$$
