
     RDKit          3D

 33 35  0  0  1  0  0  0  0  0999 V2000
   38.7050   31.6890   46.6890 C   0  0  1  0  0  0  0  0  0  0  0  0
   37.9040   30.4640   47.0200 C   0  0  2  0  0  0  0  0  0  0  0  0
   36.9570   30.2880   46.0330 O   0  0  0  0  0  0  0  0  0  0  0  0
   37.4240   30.9410   44.9020 C   0  0  0  0  0  0  0  0  0  0  0  0
   37.9510   32.2440   45.5040 C   0  0  2  0  0  0  0  0  0  0  0  0
   37.3750   30.3020   50.7550 C   0  0  0  0  0  0  0  0  0  0  0  0
   38.0500   30.2770   49.5210 C   0  0  0  0  0  0  0  0  0  0  0  0
   37.2790   30.4830   48.3610 C   0  0  0  0  0  0  0  0  0  0  0  0
   35.9380   30.6920   48.4780 N   0  0  0  0  0  0  0  0  0  0  0  0
   35.3300   30.7080   49.6840 C   0  0  0  0  0  0  0  0  0  0  0  0
   36.0420   30.5140   50.8070 N   0  0  0  0  0  0  0  0  0  0  0  0
   38.8800   32.5650   47.7070 O   0  0  0  0  0  0  0  0  0  0  0  0
   38.7290   32.9310   44.6320 O   0  0  0  0  0  0  0  0  0  0  0  0
   40.9840   31.1330   44.2910 Cl  0  0  0  0  0  0  0  0  0  0  0  0
   39.8940   31.7610   43.0730 C   0  0  0  0  0  0  0  0  0  0  0  0
   38.8200   32.6280   43.2950 C   0  0  0  0  0  0  0  0  0  0  0  0
   38.0750   33.0140   42.2130 C   0  0  0  0  0  0  0  0  0  0  0  0
   38.3710   32.5660   40.9510 C   0  0  0  0  0  0  0  0  0  0  0  0
   39.4210   31.7150   40.7160 C   0  0  0  0  0  0  0  0  0  0  0  0
   40.1920   31.3070   41.7860 C   0  0  0  0  0  0  0  0  0  0  0  0
   39.7581   31.4584   46.4705 H   0  0  0  0  0  0  0  0  0  0  0  0
   38.6011   29.6139   47.0563 H   0  0  0  0  0  0  0  0  0  0  0  0
   36.6137   31.1288   44.1822 H   0  0  0  0  0  0  0  0  0  0  0  0
   38.1735   30.3731   44.3313 H   0  0  0  0  0  0  0  0  0  0  0  0
   37.1878   32.9908   45.7683 H   0  0  0  0  0  0  0  0  0  0  0  0
   37.9384   30.1473   51.6870 H   0  0  0  0  0  0  0  0  0  0  0  0
   39.1348   30.1038   49.4647 H   0  0  0  0  0  0  0  0  0  0  0  0
   34.2455   30.8809   49.7473 H   0  0  0  0  0  0  0  0  0  0  0  0
   38.7852   32.0905   48.5707 H   0  0  0  0  0  0  0  0  0  0  0  0
   37.2239   33.6955   42.3585 H   0  0  0  0  0  0  0  0  0  0  0  0
   37.7505   32.8976   40.1054 H   0  0  0  0  0  0  0  0  0  0  0  0
   39.6438   31.3653   39.6971 H   0  0  0  0  0  0  0  0  0  0  0  0
   41.0401   30.6251   41.6253 H   0  0  0  0  0  0  0  0  0  0  0  0
  1  2  1  0
  1 12  1  0
  2  8  1  0
  3  2  1  0
  4  5  1  0
  4  3  1  0
  5  1  1  0
  6 11  2  0
  7  6  1  0
  8  9  1  0
  8  7  2  0
  9 10  2  0
 10 11  1  0
 13  5  1  0
 15 16  2  0
 15 14  1  0
 16 13  1  0
 17 16  1  0
 18 17  2  0
 19 18  1  0
 19 20  2  0
 20 15  1  0
  1 21  1  6
  2 22  1  1
  4 23  1  0
  4 24  1  0
  5 25  1  1
  6 26  1  0
  7 27  1  0
 10 28  1  0
 12 29  1  0
 17 30  1  0
 18 31  1  0
 19 32  1  0
 20 33  1  0
M  ISO  8  21  13  22  13  23  13  24  13  25  13  26  14  27  14  28  14
M  ISO  5  29   3  30  14  31  14  32  14  33  14
M  END
>  <minimizedAffinity>  (1) 
-4.87878704

>  <minimizedRMSD>  (1) 
4.10551929

$$$$
