
     RDKit          3D

 25 26  0  0  1  0  0  0  0  0999 V2000
   38.1080   31.6770   49.0450 C   0  0  1  0  0  0  0  0  0  0  0  0
   37.8180   30.3460   48.4130 C   0  0  2  0  0  0  0  0  0  0  0  0
   38.1900   30.3960   47.0850 O   0  0  0  0  0  0  0  0  0  0  0  0
   39.1630   31.3970   46.9980 C   0  0  0  0  0  0  0  0  0  0  0  0
   38.5360   32.4790   47.8530 C   0  0  2  0  0  0  0  0  0  0  0  0
   34.6920   28.5460   49.5450 C   0  0  0  0  0  0  0  0  0  0  0  0
   36.0510   28.9300   49.4950 C   0  0  0  0  0  0  0  0  0  0  0  0
   36.4140   29.8980   48.5410 C   0  0  0  0  0  0  0  0  0  0  0  0
   35.4590   30.4140   47.7200 N   0  0  0  0  0  0  0  0  0  0  0  0
   34.1690   30.0210   47.7990 C   0  0  0  0  0  0  0  0  0  0  0  0
   33.8010   29.0970   48.7060 N   0  0  0  0  0  0  0  0  0  0  0  0
   37.0960   32.2130   49.7710 O   0  0  0  0  0  0  0  0  0  0  0  0
   39.3960   33.5010   48.1410 O   0  0  0  0  0  0  0  0  0  0  0  0
   39.2960   34.3010   49.2670 C   0  0  0  0  0  0  0  0  0  0  0  0
   39.9640   34.1930   50.3440 O   0  0  0  0  0  0  0  0  0  0  0  0
   38.8693   31.6258   49.8373 H   0  0  0  0  0  0  0  0  0  0  0  0
   38.4062   29.5967   48.9631 H   0  0  0  0  0  0  0  0  0  0  0  0
   40.1260   31.0622   47.4110 H   0  0  0  0  0  0  0  0  0  0  0  0
   39.4029   31.7103   45.9712 H   0  0  0  0  0  0  0  0  0  0  0  0
   37.7108   33.0249   47.3722 H   0  0  0  0  0  0  0  0  0  0  0  0
   34.3628   27.7919   50.2750 H   0  0  0  0  0  0  0  0  0  0  0  0
   36.7952   28.4896   50.1748 H   0  0  0  0  0  0  0  0  0  0  0  0
   33.4191   30.4562   47.1220 H   0  0  0  0  0  0  0  0  0  0  0  0
   37.2913   32.1095   50.7360 H   0  0  0  0  0  0  0  0  0  0  0  0
   38.5599   35.1174   49.2255 H   0  0  0  0  0  0  0  0  0  0  0  0
  1 12  1  0
  2  8  1  0
  2  1  1  0
  3  2  1  0
  4  3  1  0
  4  5  1  0
  5 13  1  0
  5  1  1  0
  7  6  2  0
  8  7  1  0
  9 10  1  0
  9  8  2  0
 10 11  2  0
 11  6  1  0
 13 14  1  0
 14 15  2  0
  1 16  1  1
  2 17  1  1
  4 18  1  0
  4 19  1  0
  5 20  1  6
  6 21  1  0
  7 22  1  0
 10 23  1  0
 12 24  1  0
 14 25  1  0
M  ISO  8  16  13  17  13  18  13  19  13  20  13  21  14  22  14  23  14
M  ISO  2  24   3  25   6
M  END
>  <minimizedAffinity>  (1) 
-4.55748367

>  <minimizedRMSD>  (1) 
1.52909648

$$$$
