
     RDKit          3D

 35 37  0  0  1  0  0  0  0  0999 V2000
   38.2890   30.8780   47.5820 C   0  0  1  0  0  0  0  0  0  0  0  0
   37.2470   29.8160   47.7750 C   0  0  2  0  0  0  0  0  0  0  0  0
   36.2000   30.0620   46.9110 O   0  0  0  0  0  0  0  0  0  0  0  0
   36.7210   30.8310   45.8660 C   0  0  0  0  0  0  0  0  0  0  0  0
   37.5890   31.8100   46.6250 C   0  0  2  0  0  0  0  0  0  0  0  0
   37.0860   29.5800   51.5450 C   0  0  0  0  0  0  0  0  0  0  0  0
   37.6500   29.7240   50.2510 C   0  0  0  0  0  0  0  0  0  0  0  0
   36.7580   29.6840   49.1640 C   0  0  0  0  0  0  0  0  0  0  0  0
   35.4080   29.5100   49.3930 N   0  0  0  0  0  0  0  0  0  0  0  0
   34.9450   29.3800   50.6580 C   0  0  0  0  0  0  0  0  0  0  0  0
   35.7680   29.4140   51.7130 N   0  0  0  0  0  0  0  0  0  0  0  0
   38.7610   31.4550   48.7120 O   0  0  0  0  0  0  0  0  0  0  0  0
   38.4490   32.5040   45.8240 O   0  0  0  0  0  0  0  0  0  0  0  0
   38.6980   32.6320   43.4280 C   0  0  1  0  0  0  0  0  0  0  0  0
   38.9130   31.8710   44.7070 C   0  0  1  0  0  0  0  0  0  0  0  0
   40.4380   31.8820   44.7750 C   0  0  0  0  0  0  0  0  0  0  0  0
   40.7490   33.1900   44.3940 O   0  0  0  0  0  0  0  0  0  0  0  0
   39.8840   33.5650   43.3910 C   0  0  0  0  0  0  0  0  0  0  0  0
   38.6920   31.7190   42.3760 O   0  0  0  0  0  0  0  0  0  0  0  0
   39.2403   30.4830   47.1959 H   0  0  0  0  0  0  0  0  0  0  0  0
   37.7255   28.8511   47.5515 H   0  0  0  0  0  0  0  0  0  0  0  0
   35.9246   31.3463   45.3090 H   0  0  0  0  0  0  0  0  0  0  0  0
   37.2584   30.2495   45.1024 H   0  0  0  0  0  0  0  0  0  0  0  0
   37.0303   32.6225   47.1125 H   0  0  0  0  0  0  0  0  0  0  0  0
   37.7436   29.6052   52.4264 H   0  0  0  0  0  0  0  0  0  0  0  0
   38.7317   29.8602   50.1050 H   0  0  0  0  0  0  0  0  0  0  0  0
   33.8661   29.2431   50.8232 H   0  0  0  0  0  0  0  0  0  0  0  0
   38.3827   30.9926   49.5014 H   0  0  0  0  0  0  0  0  0  0  0  0
   37.7518   33.1883   43.3555 H   0  0  0  0  0  0  0  0  0  0  0  0
   38.3992   30.8984   44.6948 H   0  0  0  0  0  0  0  0  0  0  0  0
   40.7919   31.6704   45.7948 H   0  0  0  0  0  0  0  0  0  0  0  0
   40.9104   31.1169   44.1414 H   0  0  0  0  0  0  0  0  0  0  0  0
   40.3877   33.4907   42.4159 H   0  0  0  0  0  0  0  0  0  0  0  0
   39.5576   34.6054   43.5357 H   0  0  0  0  0  0  0  0  0  0  0  0
   38.6859   30.7978   42.7386 H   0  0  0  0  0  0  0  0  0  0  0  0
  1  2  1  0
  1 12  1  0
  2  8  1  0
  3  2  1  0
  4  5  1  0
  4  3  1  0
  5  1  1  0
  6 11  2  0
  7  6  1  0
  8  9  1  0
  8  7  2  0
  9 10  2  0
 10 11  1  0
 13  5  1  0
 14 19  1  0
 14 15  1  0
 15 16  1  0
 15 13  1  0
 17 16  1  0
 18 14  1  0
 18 17  1  0
  1 20  1  6
  2 21  1  6
  4 22  1  0
  4 23  1  0
  5 24  1  1
  6 25  1  0
  7 26  1  0
 10 27  1  0
 12 28  1  0
 14 29  1  1
 15 30  1  6
 16 31  1  0
 16 32  1  0
 18 33  1  0
 18 34  1  0
 19 35  1  0
M  ISO  8  20  13  21  13  22  13  23  13  24  13  25  14  26  14  27  14
M  ISO  8  28   3  29  13  30  13  31  13  32  13  33  13  34  13  35   3
M  END
>  <minimizedAffinity>  (1) 
-4.23478222

>  <minimizedRMSD>  (1) 
2.99640489

$$$$
