
     RDKit          3D

 27 29  0  0  1  0  0  0  0  0999 V2000
   39.2740   31.7710   47.4560 C   0  0  1  0  0  0  0  0  0  0  0  0
   38.8760   32.9050   48.2590 C   0  0  0  0  0  0  0  0  0  0  0  0
   37.7910   31.8900   47.8630 C   0  0  2  0  0  0  0  0  0  0  0  0
   39.7950   30.7590   43.8880 C   0  0  0  0  0  0  0  0  0  0  0  0
   39.5880   30.6420   45.2880 C   0  0  0  0  0  0  0  0  0  0  0  0
   39.4720   31.8330   45.9990 C   0  0  0  0  0  0  0  0  0  0  0  0
   39.5620   33.0230   45.3150 N   0  0  0  0  0  0  0  0  0  0  0  0
   39.7570   33.0870   43.9920 C   0  0  0  0  0  0  0  0  0  0  0  0
   39.8750   31.9500   43.2680 N   0  0  0  0  0  0  0  0  0  0  0  0
   38.8250   31.4110   50.5480 F   0  0  0  0  0  0  0  0  0  0  0  0
   37.7710   30.6490   50.1850 C   0  0  0  0  0  0  0  0  0  0  0  0
   37.3530   30.9330   48.9040 C   0  0  0  0  0  0  0  0  0  0  0  0
   36.2680   30.2020   48.4010 C   0  0  0  0  0  0  0  0  0  0  0  0
   35.6380   29.2210   49.1780 C   0  0  0  0  0  0  0  0  0  0  0  0
   36.0700   28.9490   50.4600 C   0  0  0  0  0  0  0  0  0  0  0  0
   37.1390   29.6820   50.9330 C   0  0  0  0  0  0  0  0  0  0  0  0
   40.1186   31.0785   47.5867 H   0  0  0  0  0  0  0  0  0  0  0  0
   39.2028   32.9706   49.3073 H   0  0  0  0  0  0  0  0  0  0  0  0
   38.9808   33.9945   48.1490 H   0  0  0  0  0  0  0  0  0  0  0  0
   36.8112   31.9354   47.3650 H   0  0  0  0  0  0  0  0  0  0  0  0
   39.8935   29.8420   43.2885 H   0  0  0  0  0  0  0  0  0  0  0  0
   39.5228   29.6624   45.7841 H   0  0  0  0  0  0  0  0  0  0  0  0
   39.8214   34.0652   43.4929 H   0  0  0  0  0  0  0  0  0  0  0  0
   35.9059   30.4014   47.3816 H   0  0  0  0  0  0  0  0  0  0  0  0
   34.7883   28.6606   48.7608 H   0  0  0  0  0  0  0  0  0  0  0  0
   35.5830   28.1807   51.0784 H   0  0  0  0  0  0  0  0  0  0  0  0
   37.5020   29.4848   51.9525 H   0  0  0  0  0  0  0  0  0  0  0  0
  1  3  1  0
  1  2  1  0
  3  2  1  0
  3 12  1  0
  4  5  2  0
  5  6  1  0
  6  1  1  0
  7  6  2  0
  8  7  1  0
  9  4  1  0
  9  8  2  0
 11 10  1  0
 11 16  2  0
 12 11  1  0
 13 12  2  0
 13 14  1  0
 14 15  2  0
 15 16  1  0
  1 17  1  1
  2 18  1  0
  2 19  1  0
  3 20  1  6
  4 21  1  0
  5 22  1  0
  8 23  1  0
 13 24  1  0
 14 25  1  0
 15 26  1  0
 16 27  1  0
M  ISO  8  17  13  18  13  19  13  20  13  21  14  22  14  23  14  24  14
M  ISO  3  25  14  26  14  27  14
M  END
>  <minimizedAffinity>  (1) 
-6.19424486

>  <minimizedRMSD>  (1) 
5.94866467

$$$$
