
     RDKit          3D

 31 33  0  0  1  0  0  0  0  0999 V2000
   38.1670   30.5260   47.3940 C   0  0  1  0  0  0  0  0  0  0  0  0
   37.5510   31.3780   46.4060 C   0  0  0  0  0  0  0  0  0  0  0  0
   38.6690   31.9700   47.2730 C   0  0  2  0  0  0  0  0  0  0  0  0
   39.9020   32.2670   46.5030 C   0  0  0  0  0  0  0  0  0  0  0  0
   39.7220   33.3640   45.4840 C   0  0  0  0  0  0  0  0  0  0  0  0
   38.9390   32.9040   44.2980 C   0  0  0  0  0  0  0  0  0  0  0  0
   39.5270   31.8640   43.6110 O   0  0  0  0  0  0  0  0  0  0  0  0
   40.5870   31.2860   44.2920 C   0  0  0  0  0  0  0  0  0  0  0  0
   40.2860   31.0160   45.7330 C   0  0  0  0  0  0  0  0  0  0  0  0
   37.5080   30.5200   51.0770 C   0  0  0  0  0  0  0  0  0  0  0  0
   38.1170   30.7970   49.8420 C   0  0  0  0  0  0  0  0  0  0  0  0
   37.5230   30.2480   48.6950 C   0  0  0  0  0  0  0  0  0  0  0  0
   36.3890   29.4770   48.8530 N   0  0  0  0  0  0  0  0  0  0  0  0
   35.8480   29.2440   50.0520 C   0  0  0  0  0  0  0  0  0  0  0  0
   36.4030   29.7620   51.1630 N   0  0  0  0  0  0  0  0  0  0  0  0
   38.5727   29.5074   47.3057 H   0  0  0  0  0  0  0  0  0  0  0  0
   36.5141   31.7162   46.5489 H   0  0  0  0  0  0  0  0  0  0  0  0
   37.3834   31.2972   45.3218 H   0  0  0  0  0  0  0  0  0  0  0  0
   38.8313   32.7820   47.9971 H   0  0  0  0  0  0  0  0  0  0  0  0
   40.6635   32.5909   47.2278 H   0  0  0  0  0  0  0  0  0  0  0  0
   39.1908   34.2035   45.9562 H   0  0  0  0  0  0  0  0  0  0  0  0
   40.7192   33.6697   45.1346 H   0  0  0  0  0  0  0  0  0  0  0  0
   37.9480   32.5746   44.6436 H   0  0  0  0  0  0  0  0  0  0  0  0
   38.8821   33.7547   43.6029 H   0  0  0  0  0  0  0  0  0  0  0  0
   40.8386   30.3333   43.8031 H   0  0  0  0  0  0  0  0  0  0  0  0
   41.4231   32.0001   44.2613 H   0  0  0  0  0  0  0  0  0  0  0  0
   39.4526   30.3002   45.7889 H   0  0  0  0  0  0  0  0  0  0  0  0
   41.2023   30.6157   46.1913 H   0  0  0  0  0  0  0  0  0  0  0  0
   37.9472   30.9343   51.9965 H   0  0  0  0  0  0  0  0  0  0  0  0
   39.0222   31.4186   49.7765 H   0  0  0  0  0  0  0  0  0  0  0  0
   34.9426   28.6244   50.1316 H   0  0  0  0  0  0  0  0  0  0  0  0
  1 12  1  0
  2  3  1  0
  2  1  1  0
  3  1  1  0
  4  3  1  0
  5  4  1  0
  6  5  1  0
  7  8  1  0
  7  6  1  0
  8  9  1  0
  9  4  1  0
 10 15  2  0
 11 10  1  0
 12 13  1  0
 12 11  2  0
 13 14  2  0
 14 15  1  0
  1 16  1  6
  2 17  1  0
  2 18  1  0
  3 19  1  1
  4 20  1  0
  5 21  1  0
  5 22  1  0
  6 23  1  0
  6 24  1  0
  8 25  1  0
  8 26  1  0
  9 27  1  0
  9 28  1  0
 10 29  1  0
 11 30  1  0
 14 31  1  0
M  ISO  8  16  13  17  13  18  13  19  13  20  13  21  13  22  13  23  13
M  ISO  8  24  13  25  13  26  13  27  13  28  13  29  14  30  14  31  14
M  END
>  <minimizedAffinity>  (1) 
-5.43611526

>  <minimizedRMSD>  (1) 
1.35417581

$$$$
