
     RDKit          3D

 20 21  0  0  1  0  0  0  0  0999 V2000
   37.9680   30.4530   47.6490 C   0  0  1  0  0  0  0  0  0  0  0  0
   37.2410   30.9480   46.5040 C   0  0  0  0  0  0  0  0  0  0  0  0
   37.9940   31.9650   47.3380 C   0  0  2  0  0  0  0  0  0  0  0  0
   37.3750   30.1700   51.3340 C   0  0  0  0  0  0  0  0  0  0  0  0
   38.0070   30.5000   50.1310 C   0  0  0  0  0  0  0  0  0  0  0  0
   37.3510   30.1490   48.9510 C   0  0  0  0  0  0  0  0  0  0  0  0
   36.1360   29.5070   49.0320 N   0  0  0  0  0  0  0  0  0  0  0  0
   35.5650   29.2080   50.2270 C   0  0  0  0  0  0  0  0  0  0  0  0
   36.1860   29.5410   51.3740 N   0  0  0  0  0  0  0  0  0  0  0  0
   39.2600   32.4680   46.6840 C   0  0  0  0  0  0  0  0  0  0  0  0
   39.8180   33.4980   47.4140 F   0  0  0  0  0  0  0  0  0  0  0  0
   38.9630   33.0380   45.4370 F   0  0  0  0  0  0  0  0  0  0  0  0
   40.1520   31.4370   46.5320 F   0  0  0  0  0  0  0  0  0  0  0  0
   38.6592   29.6015   47.7332 H   0  0  0  0  0  0  0  0  0  0  0  0
   36.1411   30.9439   46.5172 H   0  0  0  0  0  0  0  0  0  0  0  0
   37.2406   30.6919   45.4342 H   0  0  0  0  0  0  0  0  0  0  0  0
   37.7663   32.8906   47.8871 H   0  0  0  0  0  0  0  0  0  0  0  0
   37.8674   30.4340   52.2815 H   0  0  0  0  0  0  0  0  0  0  0  0
   38.9793   31.0141   50.1158 H   0  0  0  0  0  0  0  0  0  0  0  0
   34.5935   28.6929   50.2579 H   0  0  0  0  0  0  0  0  0  0  0  0
  1  6  1  0
  2  3  1  0
  2  1  1  0
  3  1  1  0
  4  9  2  0
  5  4  1  0
  6  7  1  0
  6  5  2  0
  7  8  2  0
  8  9  1  0
 10  3  1  0
 10 11  1  0
 12 10  1  0
 13 10  1  0
  1 14  1  6
  2 15  1  0
  2 16  1  0
  3 17  1  1
  4 18  1  0
  5 19  1  0
  8 20  1  0
M  ISO  7  14  13  15  13  16  13  17  13  18  14  19  14  20  14
M  END
>  <minimizedAffinity>  (1) 
-5.00651121

>  <minimizedRMSD>  (1) 
0.848844826

$$$$
