
     RDKit          3D

 19 20  0  0  1  0  0  0  0  0999 V2000
   38.5150   31.1950   47.8740 C   0  0  1  0  0  0  0  0  0  0  0  0
   38.2780   32.1090   46.7800 C   0  0  0  0  0  0  0  0  0  0  0  0
   38.8610   32.6820   48.0760 C   0  0  1  0  0  0  0  0  0  0  0  0
   36.7880   29.6020   50.7900 C   0  0  0  0  0  0  0  0  0  0  0  0
   37.8340   30.0510   49.9730 C   0  0  0  0  0  0  0  0  0  0  0  0
   37.4770   30.7120   48.7960 C   0  0  0  0  0  0  0  0  0  0  0  0
   36.1630   30.8840   48.5060 N   0  0  0  0  0  0  0  0  0  0  0  0
   35.1710   30.4330   49.3250 C   0  0  0  0  0  0  0  0  0  0  0  0
   35.4900   29.7830   50.4820 N   0  0  0  0  0  0  0  0  0  0  0  0
   38.0460   33.4610   48.9470 N   0  0  0  0  0  0  0  0  0  0  0  0
   39.0136   30.2145   47.8729 H   0  0  0  0  0  0  0  0  0  0  0  0
   38.9065   32.0533   45.8790 H   0  0  0  0  0  0  0  0  0  0  0  0
   37.4001   32.3522   46.1634 H   0  0  0  0  0  0  0  0  0  0  0  0
   39.7446   33.2770   48.3504 H   0  0  0  0  0  0  0  0  0  0  0  0
   37.0385   29.0784   51.7244 H   0  0  0  0  0  0  0  0  0  0  0  0
   38.8874   29.8903   50.2461 H   0  0  0  0  0  0  0  0  0  0  0  0
   34.1168   30.5924   49.0543 H   0  0  0  0  0  0  0  0  0  0  0  0
   38.2788   33.2385   49.9254 H   0  0  0  0  0  0  0  0  0  0  0  0
   38.2161   34.4618   48.7727 H   0  0  0  0  0  0  0  0  0  0  0  0
  1  3  1  0
  1  6  1  0
  2  1  1  0
  2  3  1  0
  3 10  1  0
  5  4  2  0
  6  5  1  0
  7  6  2  0
  7  8  1  0
  8  9  2  0
  9  4  1  0
  1 11  1  6
  2 12  1  0
  2 13  1  0
  3 14  1  6
  4 15  1  0
  5 16  1  0
  8 17  1  0
 10 18  1  0
 10 19  1  0
M  ISO  8  11  13  12  13  13  13  14  13  15  14  16  14  17  14  18   5
M  ISO  1  19   5
M  END
>  <minimizedAffinity>  (1) 
-4.08273983

>  <minimizedRMSD>  (1) 
0.950510502

$$$$
