
     RDKit          3D

 24 26  0  0  1  0  0  0  0  0999 V2000
   37.6980   30.2520   46.9520 C   0  0  1  0  0  0  0  0  0  0  0  0
   37.6290   31.3580   46.0260 C   0  0  0  0  0  0  0  0  0  0  0  0
   38.8130   31.3090   46.9650 C   0  0  1  0  0  0  0  0  0  0  0  0
   36.7170   29.4020   50.4640 C   0  0  0  0  0  0  0  0  0  0  0  0
   37.4860   29.4420   49.2940 C   0  0  0  0  0  0  0  0  0  0  0  0
   36.9630   30.1700   48.2250 C   0  0  0  0  0  0  0  0  0  0  0  0
   35.7460   30.7990   48.3650 N   0  0  0  0  0  0  0  0  0  0  0  0
   35.0400   30.7270   49.5260 C   0  0  0  0  0  0  0  0  0  0  0  0
   35.5300   30.0280   50.5720 N   0  0  0  0  0  0  0  0  0  0  0  0
   38.9090   32.2710   48.0620 C   0  0  0  0  0  0  0  0  0  0  0  0
   38.6170   32.2660   49.4110 C   0  0  0  0  0  0  0  0  0  0  0  0
   38.8990   33.4400   49.9980 N   0  0  0  0  0  0  0  0  0  0  0  0
   39.3810   34.2260   49.0210 C   0  0  0  0  0  0  0  0  0  0  0  0
   39.3870   33.5390   47.8820 N   0  0  0  0  0  0  0  0  0  0  0  0
   37.5604   29.1754   46.7734 H   0  0  0  0  0  0  0  0  0  0  0  0
   37.7805   31.1766   44.9517 H   0  0  0  0  0  0  0  0  0  0  0  0
   36.8655   32.1172   45.8009 H   0  0  0  0  0  0  0  0  0  0  0  0
   39.9092   31.3072   46.8733 H   0  0  0  0  0  0  0  0  0  0  0  0
   37.0976   28.8373   51.3279 H   0  0  0  0  0  0  0  0  0  0  0  0
   38.4543   28.9251   49.2216 H   0  0  0  0  0  0  0  0  0  0  0  0
   34.0699   31.2384   49.6123 H   0  0  0  0  0  0  0  0  0  0  0  0
   38.2006   31.3988   49.9444 H   0  0  0  0  0  0  0  0  0  0  0  0
   38.7723   33.6865   50.9900 H   0  0  0  0  0  0  0  0  0  0  0  0
   39.7157   35.2667   49.1429 H   0  0  0  0  0  0  0  0  0  0  0  0
  1  3  1  0
  1  6  1  0
  2  1  1  0
  2  3  1  0
  3 10  1  0
  4  9  2  0
  5  4  1  0
  6  7  1  0
  6  5  2  0
  7  8  2  0
  8  9  1  0
 10 11  2  0
 11 12  1  0
 13 12  1  0
 14 10  1  0
 14 13  2  0
  1 15  1  6
  2 16  1  0
  2 17  1  0
  3 18  1  6
  4 19  1  0
  5 20  1  0
  8 21  1  0
 11 22  1  0
 12 23  1  0
 13 24  1  0
M  ISO  8  15  13  16  13  17  13  18  13  19  14  20  14  21  14  22  14
M  ISO  2  23   9  24  14
M  END
>  <minimizedAffinity>  (1) 
-3.92437673

>  <minimizedRMSD>  (1) 
1.96491444

$$$$
