
     RDKit          3D

 42 46  0  0  1  0  0  0  0  0999 V2000
   38.3960   31.4500   45.3540 C   0  0  1  0  0  0  0  0  0  0  0  0
   38.7660   32.4250   46.3910 C   0  0  2  0  0  0  0  0  0  0  0  0
   40.2070   32.7910   46.0140 C   0  0  0  0  0  0  0  0  0  0  0  0
   40.7070   31.5740   45.6450 O   0  0  0  0  0  0  0  0  0  0  0  0
   39.7390   30.8380   44.9870 C   0  0  0  0  0  0  0  0  0  0  0  0
   37.5580   32.3750   48.7110 C   0  0  1  0  0  0  0  0  0  0  0  0
   38.7910   33.1040   48.8300 C   0  0  0  0  0  0  0  0  0  0  0  0
   38.7300   31.9370   47.8290 C   0  0  2  0  0  0  0  0  0  0  0  0
   35.5280   29.7580   50.4510 C   0  0  0  0  0  0  0  0  0  0  0  0
   35.8930   30.7280   49.5290 C   0  0  0  0  0  0  0  0  0  0  0  0
   37.1330   31.3260   49.6600 C   0  0  0  0  0  0  0  0  0  0  0  0
   37.9430   30.9270   50.7000 N   0  0  0  0  0  0  0  0  0  0  0  0
   37.5670   29.9790   51.5900 C   0  0  0  0  0  0  0  0  0  0  0  0
   36.3400   29.3800   51.4680 N   0  0  0  0  0  0  0  0  0  0  0  0
   37.5280   30.4480   45.7860 O   0  0  0  0  0  0  0  0  0  0  0  0
   35.5070   30.8260   44.3770 N   0  0  0  0  0  0  0  0  0  0  0  0
   36.1780   30.4190   45.4710 C   0  0  0  0  0  0  0  0  0  0  0  0
   35.2400   29.9180   46.3270 N   0  0  0  0  0  0  0  0  0  0  0  0
   34.0450   30.0360   45.7300 C   0  0  0  0  0  0  0  0  0  0  0  0
   32.7420   29.7060   46.1010 C   0  0  0  0  0  0  0  0  0  0  0  0
   31.7050   29.9510   45.2630 N   0  0  0  0  0  0  0  0  0  0  0  0
   31.8990   30.5200   44.0470 C   0  0  0  0  0  0  0  0  0  0  0  0
   33.1450   30.8420   43.6820 N   0  0  0  0  0  0  0  0  0  0  0  0
   34.1970   30.6160   44.4790 C   0  0  0  0  0  0  0  0  0  0  0  0
   32.5300   29.1080   47.3750 N   0  0  0  0  0  0  0  0  0  0  0  0
   37.8516   31.9370   44.5316 H   0  0  0  0  0  0  0  0  0  0  0  0
   38.0343   33.2464   46.3956 H   0  0  0  0  0  0  0  0  0  0  0  0
   40.2350   33.5072   45.1795 H   0  0  0  0  0  0  0  0  0  0  0  0
   40.7713   33.2832   46.8198 H   0  0  0  0  0  0  0  0  0  0  0  0
   39.7773   29.7873   45.3103 H   0  0  0  0  0  0  0  0  0  0  0  0
   39.8984   30.8600   43.8988 H   0  0  0  0  0  0  0  0  0  0  0  0
   36.5307   32.7512   48.5963 H   0  0  0  0  0  0  0  0  0  0  0  0
   38.8509   34.1378   48.4588 H   0  0  0  0  0  0  0  0  0  0  0  0
   39.4528   33.3598   49.6706 H   0  0  0  0  0  0  0  0  0  0  0  0
   39.2248   30.9746   47.6317 H   0  0  0  0  0  0  0  0  0  0  0  0
   34.5432   29.2779   50.3530 H   0  0  0  0  0  0  0  0  0  0  0  0
   35.2127   31.0146   48.7135 H   0  0  0  0  0  0  0  0  0  0  0  0
   38.2434   29.6904   52.4080 H   0  0  0  0  0  0  0  0  0  0  0  0
   35.9569   31.2518   43.5541 H   0  0  0  0  0  0  0  0  0  0  0  0
   31.0496   30.7126   43.3752 H   0  0  0  0  0  0  0  0  0  0  0  0
   31.5771   28.8547   47.6729 H   0  0  0  0  0  0  0  0  0  0  0  0
   33.3295   28.9285   47.9991 H   0  0  0  0  0  0  0  0  0  0  0  0
  1 15  1  0
  1  2  1  0
  2  8  1  0
  3  2  1  0
  4  3  1  0
  5  1  1  0
  5  4  1  0
  6  7  1  0
  6 11  1  0
  8  6  1  0
  8  7  1  0
  9 14  2  0
 10 11  2  0
 10  9  1  0
 11 12  1  0
 12 13  2  0
 14 13  1  0
 16 24  1  0
 16 17  1  0
 17 15  1  0
 17 18  2  0
 19 20  2  0
 19 18  1  0
 20 25  1  0
 21 20  1  0
 22 21  2  0
 23 22  1  0
 23 24  2  0
 24 19  1  0
  1 26  1  6
  2 27  1  1
  3 28  1  0
  3 29  1  0
  5 30  1  0
  5 31  1  0
  6 32  1  6
  7 33  1  0
  7 34  1  0
  8 35  1  1
  9 36  1  0
 10 37  1  0
 13 38  1  0
 16 39  1  0
 22 40  1  0
 25 41  1  0
 25 42  1  0
M  ISO  8  26  13  27  13  28  13  29  13  30  13  31  13  32  13  33  13
M  ISO  7  34  13  35  13  36  14  37  14  38  14  39   9  40  14
M  END
>  <minimizedAffinity>  (1) 
-6.23123789

>  <minimizedRMSD>  (1) 
1.28031313

$$$$
