
     RDKit          3D

 40 44  0  0  1  0  0  0  0  0999 V2000
   38.3990   31.4260   45.3690 C   0  0  1  0  0  0  0  0  0  0  0  0
   38.7670   32.4060   46.4100 C   0  0  2  0  0  0  0  0  0  0  0  0
   40.2100   32.7810   46.0290 C   0  0  0  0  0  0  0  0  0  0  0  0
   40.7070   31.5660   45.6530 O   0  0  0  0  0  0  0  0  0  0  0  0
   39.7390   30.8190   45.0060 C   0  0  0  0  0  0  0  0  0  0  0  0
   37.5520   32.3470   48.7090 C   0  0  1  0  0  0  0  0  0  0  0  0
   38.7670   33.1030   48.8400 C   0  0  0  0  0  0  0  0  0  0  0  0
   38.7430   31.9260   47.8450 C   0  0  2  0  0  0  0  0  0  0  0  0
   35.5540   29.6920   50.4300 C   0  0  0  0  0  0  0  0  0  0  0  0
   35.9120   30.6610   49.4960 C   0  0  0  0  0  0  0  0  0  0  0  0
   37.1290   31.3010   49.6620 C   0  0  0  0  0  0  0  0  0  0  0  0
   37.9170   30.9490   50.7360 N   0  0  0  0  0  0  0  0  0  0  0  0
   37.5470   30.0070   51.6270 C   0  0  0  0  0  0  0  0  0  0  0  0
   36.3460   29.3630   51.4770 N   0  0  0  0  0  0  0  0  0  0  0  0
   37.5230   30.4480   45.8020 O   0  0  0  0  0  0  0  0  0  0  0  0
   35.6050   30.8950   44.2720 N   0  0  0  0  0  0  0  0  0  0  0  0
   36.1740   30.4270   45.3970 C   0  0  0  0  0  0  0  0  0  0  0  0
   35.1640   29.8950   46.1310 N   0  0  0  0  0  0  0  0  0  0  0  0
   33.9940   30.0360   45.4620 C   0  0  0  0  0  0  0  0  0  0  0  0
   32.7170   29.6660   45.7810 C   0  0  0  0  0  0  0  0  0  0  0  0
   31.7350   29.9350   44.9170 N   0  0  0  0  0  0  0  0  0  0  0  0
   31.9900   30.5630   43.7430 C   0  0  0  0  0  0  0  0  0  0  0  0
   33.2640   30.9250   43.4370 N   0  0  0  0  0  0  0  0  0  0  0  0
   34.2910   30.6740   44.2780 C   0  0  0  0  0  0  0  0  0  0  0  0
   37.8632   31.9020   44.5345 H   0  0  0  0  0  0  0  0  0  0  0  0
   38.0257   33.2187   46.4149 H   0  0  0  0  0  0  0  0  0  0  0  0
   40.2337   33.5013   45.1980 H   0  0  0  0  0  0  0  0  0  0  0  0
   40.7771   33.2725   46.8333 H   0  0  0  0  0  0  0  0  0  0  0  0
   39.7830   29.7719   45.3403 H   0  0  0  0  0  0  0  0  0  0  0  0
   39.8947   30.8311   43.9171 H   0  0  0  0  0  0  0  0  0  0  0  0
   36.5188   32.7003   48.5762 H   0  0  0  0  0  0  0  0  0  0  0  0
   38.8102   34.1353   48.4624 H   0  0  0  0  0  0  0  0  0  0  0  0
   39.4119   33.3786   49.6874 H   0  0  0  0  0  0  0  0  0  0  0  0
   39.2663   30.9760   47.6615 H   0  0  0  0  0  0  0  0  0  0  0  0
   34.5907   29.1742   50.3123 H   0  0  0  0  0  0  0  0  0  0  0  0
   35.2497   30.9100   48.6538 H   0  0  0  0  0  0  0  0  0  0  0  0
   38.2063   29.7562   52.4711 H   0  0  0  0  0  0  0  0  0  0  0  0
   36.1159   31.3613   43.5088 H   0  0  0  0  0  0  0  0  0  0  0  0
   32.5025   29.1561   46.7318 H   0  0  0  0  0  0  0  0  0  0  0  0
   31.1704   30.7785   43.0418 H   0  0  0  0  0  0  0  0  0  0  0  0
  1 15  1  0
  1  2  1  0
  2  8  1  0
  3  2  1  0
  4  3  1  0
  5  1  1  0
  5  4  1  0
  6  7  1  0
  6 11  1  0
  8  6  1  0
  8  7  1  0
  9 14  2  0
 10 11  2  0
 10  9  1  0
 11 12  1  0
 12 13  2  0
 14 13  1  0
 16 24  1  0
 16 17  1  0
 17 15  1  0
 17 18  2  0
 19 20  2  0
 19 18  1  0
 21 20  1  0
 22 21  2  0
 23 22  1  0
 23 24  2  0
 24 19  1  0
  1 25  1  6
  2 26  1  1
  3 27  1  0
  3 28  1  0
  5 29  1  0
  5 30  1  0
  6 31  1  6
  7 32  1  0
  7 33  1  0
  8 34  1  1
  9 35  1  0
 10 36  1  0
 13 37  1  0
 16 38  1  0
 20 39  1  0
 22 40  1  0
M  ISO  8  25  13  26  13  27  13  28  13  29  13  30  13  31  13  32  13
M  ISO  8  33  13  34  13  35  14  36  14  37  14  38   9  39  14  40  14
M  END
>  <minimizedAffinity>  (1) 
-5.83065271

>  <minimizedRMSD>  (1) 
1.28709805

$$$$
