
     RDKit          3D

 44 47  0  0  1  0  0  0  0  0999 V2000
   38.4890   31.4720   45.3520 C   0  0  1  0  0  0  0  0  0  0  0  0
   38.8100   32.4510   46.3830 C   0  0  2  0  0  0  0  0  0  0  0  0
   40.2710   32.8250   46.0520 C   0  0  0  0  0  0  0  0  0  0  0  0
   40.7920   31.6170   45.6890 O   0  0  0  0  0  0  0  0  0  0  0  0
   39.8550   30.8660   45.0200 C   0  0  0  0  0  0  0  0  0  0  0  0
   37.5650   32.3700   48.6830 C   0  0  1  0  0  0  0  0  0  0  0  0
   38.7810   33.1270   48.8290 C   0  0  0  0  0  0  0  0  0  0  0  0
   38.7590   31.9610   47.8180 C   0  0  2  0  0  0  0  0  0  0  0  0
   35.5720   29.6690   50.3570 C   0  0  0  0  0  0  0  0  0  0  0  0
   35.9560   30.6450   49.4420 C   0  0  0  0  0  0  0  0  0  0  0  0
   37.1510   31.3170   49.6240 C   0  0  0  0  0  0  0  0  0  0  0  0
   37.8960   30.9730   50.7110 N   0  0  0  0  0  0  0  0  0  0  0  0
   37.5160   30.0240   51.5970 C   0  0  0  0  0  0  0  0  0  0  0  0
   36.3390   29.3610   51.4190 N   0  0  0  0  0  0  0  0  0  0  0  0
   37.5870   30.4840   45.7540 O   0  0  0  0  0  0  0  0  0  0  0  0
   34.2570   29.9930   43.4420 N   0  0  0  0  0  0  0  0  0  0  0  0
   35.3470   29.0770   43.2450 C   0  0  0  0  0  0  0  0  0  0  0  0
   36.6690   29.6310   43.7690 C   0  0  0  0  0  0  0  0  0  0  0  0
   36.4450   30.5100   44.9740 C   0  0  0  0  0  0  0  0  0  0  0  0
   35.2330   29.9700   45.6850 C   0  0  0  0  0  0  0  0  0  0  0  0
   33.9950   30.2890   44.8160 C   0  0  0  0  0  0  0  0  0  0  0  0
   37.9780   31.9443   44.5001 H   0  0  0  0  0  0  0  0  0  0  0  0
   38.0653   33.2602   46.3571 H   0  0  0  0  0  0  0  0  0  0  0  0
   40.3219   33.5482   45.2247 H   0  0  0  0  0  0  0  0  0  0  0  0
   40.8060   33.3101   46.8817 H   0  0  0  0  0  0  0  0  0  0  0  0
   39.8975   29.8194   45.3559 H   0  0  0  0  0  0  0  0  0  0  0  0
   40.0399   30.8759   43.9357 H   0  0  0  0  0  0  0  0  0  0  0  0
   36.5315   32.7216   48.5480 H   0  0  0  0  0  0  0  0  0  0  0  0
   38.8251   34.1640   48.4648 H   0  0  0  0  0  0  0  0  0  0  0  0
   39.4231   33.3924   49.6818 H   0  0  0  0  0  0  0  0  0  0  0  0
   39.2766   31.0100   47.6240 H   0  0  0  0  0  0  0  0  0  0  0  0
   34.6204   29.1376   50.2088 H   0  0  0  0  0  0  0  0  0  0  0  0
   35.3138   30.8801   48.5805 H   0  0  0  0  0  0  0  0  0  0  0  0
   38.1562   29.7879   52.4598 H   0  0  0  0  0  0  0  0  0  0  0  0
   33.4075   29.5806   43.0307 H   0  0  0  0  0  0  0  0  0  0  0  0
   35.1215   28.1393   43.7741 H   0  0  0  0  0  0  0  0  0  0  0  0
   35.4563   28.9106   42.1632 H   0  0  0  0  0  0  0  0  0  0  0  0
   37.3238   28.7934   44.0511 H   0  0  0  0  0  0  0  0  0  0  0  0
   37.1359   30.2340   42.9763 H   0  0  0  0  0  0  0  0  0  0  0  0
   36.2597   31.5626   44.7139 H   0  0  0  0  0  0  0  0  0  0  0  0
   35.3290   28.8819   45.8147 H   0  0  0  0  0  0  0  0  0  0  0  0
   35.1337   30.4300   46.6792 H   0  0  0  0  0  0  0  0  0  0  0  0
   33.7483   31.3564   44.9155 H   0  0  0  0  0  0  0  0  0  0  0  0
   33.1518   29.6710   45.1582 H   0  0  0  0  0  0  0  0  0  0  0  0
  1 15  1  0
  1  2  1  0
  2  8  1  0
  3  2  1  0
  4  3  1  0
  5  1  1  0
  5  4  1  0
  6  7  1  0
  6 11  1  0
  8  6  1  0
  8  7  1  0
  9 14  2  0
 10 11  2  0
 10  9  1  0
 11 12  1  0
 12 13  2  0
 14 13  1  0
 16 21  1  0
 17 16  1  0
 17 18  1  0
 18 19  1  0
 19 20  1  0
 19 15  1  0
 21 20  1  0
  1 22  1  6
  2 23  1  1
  3 24  1  0
  3 25  1  0
  5 26  1  0
  5 27  1  0
  6 28  1  6
  7 29  1  0
  7 30  1  0
  8 31  1  1
  9 32  1  0
 10 33  1  0
 13 34  1  0
 16 35  1  0
 17 36  1  0
 17 37  1  0
 18 38  1  0
 18 39  1  0
 19 40  1  0
 20 41  1  0
 20 42  1  0
 21 43  1  0
 21 44  1  0
M  ISO  8  22  13  23  13  24  13  25  13  26  13  27  13  28  13  29  13
M  ISO  8  30  13  31  13  32  14  33  14  34  14  35   5  36  13  37  13
M  ISO  7  38  13  39  13  40  13  41  13  42  13  43  13  44  13
M  END
>  <minimizedAffinity>  (1) 
-5.45004368

>  <minimizedRMSD>  (1) 
1.07104659

$$$$
