
     RDKit          3D

 35 36  0  0  0  0  0  0  0  0999 V2000
   38.2100   31.5670   48.8690 Br  0  0  0  0  0  0  0  0  0  0  0  0
   37.0460   30.9300   47.4770 C   0  0  0  0  0  0  0  0  0  0  0  0
   37.4330   30.9890   46.1540 C   0  0  0  0  0  0  0  0  0  0  0  0
   36.5590   30.5320   45.2140 C   0  0  0  0  0  0  0  0  0  0  0  0
   35.3140   30.0180   45.5340 C   0  0  0  0  0  0  0  0  0  0  0  0
   34.9550   29.9750   46.8890 C   0  0  0  0  0  0  0  0  0  0  0  0
   35.8270   30.4300   47.8400 C   0  0  0  0  0  0  0  0  0  0  0  0
   39.9540   33.3790   45.0400 C   0  0  0  0  0  0  0  0  0  0  0  0
   41.1670   32.6300   45.0570 C   0  0  0  0  0  0  0  0  0  0  0  0
   41.0760   31.3170   45.4550 C   0  0  0  0  0  0  0  0  0  0  0  0
   39.8580   30.7800   45.8120 N   0  0  0  0  0  0  0  0  0  0  0  0
   38.7440   31.5320   45.7770 C   0  0  0  0  0  0  0  0  0  0  0  0
   38.8070   32.8170   45.3930 N   0  0  0  0  0  0  0  0  0  0  0  0
   35.3310   30.3120   49.2080 C   0  0  0  0  0  0  0  0  0  0  0  0
   34.0460   29.5880   49.3990 C   0  0  0  0  0  0  0  0  0  0  0  0
   34.2860   28.2010   49.5170 N   0  0  0  0  0  0  0  0  0  0  0  0
   33.5620   27.3310   48.6530 C   0  0  0  0  0  0  0  0  0  0  0  0
   32.2980   28.0210   48.2650 C   0  0  0  0  0  0  0  0  0  0  0  0
   31.2830   27.8540   49.2170 O   0  0  0  0  0  0  0  0  0  0  0  0
   36.8553   30.5732   44.1555 H   0  0  0  0  0  0  0  0  0  0  0  0
   34.6300   29.6558   44.7524 H   0  0  0  0  0  0  0  0  0  0  0  0
   33.9740   29.5761   47.1867 H   0  0  0  0  0  0  0  0  0  0  0  0
   39.9704   34.4345   44.7306 H   0  0  0  0  0  0  0  0  0  0  0  0
   42.1277   33.0800   44.7662 H   0  0  0  0  0  0  0  0  0  0  0  0
   41.9804   30.6917   45.4886 H   0  0  0  0  0  0  0  0  0  0  0  0
   36.0986   29.7868   49.7954 H   0  0  0  0  0  0  0  0  0  0  0  0
   35.1282   31.3444   49.5290 H   0  0  0  0  0  0  0  0  0  0  0  0
   33.5553   29.9519   50.3138 H   0  0  0  0  0  0  0  0  0  0  0  0
   33.3966   29.7695   48.5299 H   0  0  0  0  0  0  0  0  0  0  0  0
   35.2889   28.0457   49.3409 H   0  0  0  0  0  0  0  0  0  0  0  0
   34.1596   27.1126   47.7557 H   0  0  0  0  0  0  0  0  0  0  0  0
   33.3404   26.3814   49.1621 H   0  0  0  0  0  0  0  0  0  0  0  0
   32.5028   29.0959   48.1521 H   0  0  0  0  0  0  0  0  0  0  0  0
   31.9491   27.5754   47.3218 H   0  0  0  0  0  0  0  0  0  0  0  0
   31.6696   27.9176   50.1262 H   0  0  0  0  0  0  0  0  0  0  0  0
  2  7  2  0
  2  1  1  0
  3  2  1  0
  4  5  1  0
  4  3  2  0
  5  6  2  0
  6  7  1  0
  7 14  1  0
  8  9  2  0
  8 13  1  0
  9 10  1  0
 10 11  2  0
 12 11  1  0
 12  3  1  0
 13 12  2  0
 14 15  1  0
 15 16  1  0
 17 16  1  0
 18 17  1  0
 18 19  1  0
  4 20  1  0
  5 21  1  0
  6 22  1  0
  8 23  1  0
  9 24  1  0
 10 25  1  0
 14 26  1  0
 14 27  1  0
 15 28  1  0
 15 29  1  0
 16 30  1  0
 17 31  1  0
 17 32  1  0
 18 33  1  0
 18 34  1  0
 19 35  1  0
M  ISO  8  20  14  21  14  22  14  23  14  24  14  25  14  26   8  27   8
M  ISO  8  28   8  29   8  30   5  31   8  32   8  33   8  34   8  35   3
M  END
>  <minimizedAffinity>  (1) 
-4.66772604

>  <minimizedRMSD>  (1) 
0.312652767

$$$$
