
     RDKit          3D

 41 44  0  0  1  0  0  0  0  0999 V2000
   38.4380   31.4230   45.3610 C   0  0  1  0  0  0  0  0  0  0  0  0
   38.7900   32.3980   46.3930 C   0  0  2  0  0  0  0  0  0  0  0  0
   40.2500   32.7490   46.0460 C   0  0  0  0  0  0  0  0  0  0  0  0
   40.7470   31.5260   45.6840 O   0  0  0  0  0  0  0  0  0  0  0  0
   39.7950   30.7880   45.0250 C   0  0  0  0  0  0  0  0  0  0  0  0
   37.5460   32.3370   48.6930 C   0  0  1  0  0  0  0  0  0  0  0  0
   38.7710   33.0790   48.8350 C   0  0  0  0  0  0  0  0  0  0  0  0
   38.7350   31.9110   47.8290 C   0  0  2  0  0  0  0  0  0  0  0  0
   35.5480   29.6530   50.3720 C   0  0  0  0  0  0  0  0  0  0  0  0
   35.9220   30.6180   49.4480 C   0  0  0  0  0  0  0  0  0  0  0  0
   37.1160   31.2900   49.6390 C   0  0  0  0  0  0  0  0  0  0  0  0
   37.8660   30.9630   50.7340 N   0  0  0  0  0  0  0  0  0  0  0  0
   37.4900   30.0170   51.6340 C   0  0  0  0  0  0  0  0  0  0  0  0
   36.3200   29.3590   51.4460 N   0  0  0  0  0  0  0  0  0  0  0  0
   37.5360   30.4370   45.7700 O   0  0  0  0  0  0  0  0  0  0  0  0
   35.1620   29.8890   45.8440 C   0  0  2  0  0  0  0  0  0  0  0  0
   36.2490   30.7940   45.3930 C   0  0  2  0  0  0  0  0  0  0  0  0
   36.1510   30.6400   43.8680 C   0  0  0  0  0  0  0  0  0  0  0  0
   34.9440   30.0360   43.6030 O   0  0  0  0  0  0  0  0  0  0  0  0
   34.9040   29.0350   44.5930 C   0  0  0  0  0  0  0  0  0  0  0  0
   33.9840   30.6620   45.9640 O   0  0  0  0  0  0  0  0  0  0  0  0
   37.9217   31.9107   44.5210 H   0  0  0  0  0  0  0  0  0  0  0  0
   38.0623   33.2227   46.3759 H   0  0  0  0  0  0  0  0  0  0  0  0
   40.3037   33.4666   45.2141 H   0  0  0  0  0  0  0  0  0  0  0  0
   40.8017   33.2321   46.8659 H   0  0  0  0  0  0  0  0  0  0  0  0
   39.8204   29.7430   45.3677 H   0  0  0  0  0  0  0  0  0  0  0  0
   39.9748   30.7868   43.9398 H   0  0  0  0  0  0  0  0  0  0  0  0
   36.5168   32.7009   48.5580 H   0  0  0  0  0  0  0  0  0  0  0  0
   38.8274   34.1141   48.4671 H   0  0  0  0  0  0  0  0  0  0  0  0
   39.4168   33.3395   49.6866 H   0  0  0  0  0  0  0  0  0  0  0  0
   39.2413   30.9533   47.6380 H   0  0  0  0  0  0  0  0  0  0  0  0
   34.6005   29.1128   50.2290 H   0  0  0  0  0  0  0  0  0  0  0  0
   35.2826   30.8440   48.5819 H   0  0  0  0  0  0  0  0  0  0  0  0
   38.1256   29.7886   52.5022 H   0  0  0  0  0  0  0  0  0  0  0  0
   35.4034   29.3497   46.7719 H   0  0  0  0  0  0  0  0  0  0  0  0
   36.1129   31.7962   45.8256 H   0  0  0  0  0  0  0  0  0  0  0  0
   36.1939   31.6273   43.3848 H   0  0  0  0  0  0  0  0  0  0  0  0
   36.9856   30.0382   43.4791 H   0  0  0  0  0  0  0  0  0  0  0  0
   33.9232   28.5385   44.6325 H   0  0  0  0  0  0  0  0  0  0  0  0
   35.6112   28.2059   44.4433 H   0  0  0  0  0  0  0  0  0  0  0  0
   33.7753   30.7989   46.9220 H   0  0  0  0  0  0  0  0  0  0  0  0
  1 15  1  0
  1  2  1  0
  2  8  1  0
  3  2  1  0
  4  3  1  0
  5  1  1  0
  5  4  1  0
  6  7  1  0
  6 11  1  0
  8  6  1  0
  8  7  1  0
  9 14  2  0
 10 11  2  0
 10  9  1  0
 11 12  1  0
 12 13  2  0
 14 13  1  0
 16 21  1  0
 17 15  1  0
 17 16  1  0
 18 17  1  0
 19 18  1  0
 19 20  1  0
 20 16  1  0
  1 22  1  6
  2 23  1  1
  3 24  1  0
  3 25  1  0
  5 26  1  0
  5 27  1  0
  6 28  1  6
  7 29  1  0
  7 30  1  0
  8 31  1  1
  9 32  1  0
 10 33  1  0
 13 34  1  0
 16 35  1  1
 17 36  1  6
 18 37  1  0
 18 38  1  0
 20 39  1  0
 20 40  1  0
 21 41  1  0
M  ISO  8  22  13  23  13  24  13  25  13  26  13  27  13  28  13  29  13
M  ISO  8  30  13  31  13  32  14  33  14  34  14  35  13  36  13  37  13
M  ISO  4  38  13  39  13  40  13  41   3
M  END
>  <minimizedAffinity>  (1) 
-5.4493618

>  <minimizedRMSD>  (1) 
0.80264163

$$$$
