
     RDKit          3D

 33 35  0  0  1  0  0  0  0  0999 V2000
   38.1920   31.4120   45.4560 C   0  0  1  0  0  0  0  0  0  0  0  0
   38.7790   32.3040   46.4800 C   0  0  2  0  0  0  0  0  0  0  0  0
   40.2490   32.3930   46.0540 C   0  0  0  0  0  0  0  0  0  0  0  0
   40.4950   31.1050   45.6640 O   0  0  0  0  0  0  0  0  0  0  0  0
   39.3790   30.5710   45.0430 C   0  0  0  0  0  0  0  0  0  0  0  0
   37.5050   32.2840   48.7570 C   0  0  1  0  0  0  0  0  0  0  0  0
   38.7410   33.0070   48.9080 C   0  0  0  0  0  0  0  0  0  0  0  0
   38.6990   31.8320   47.9180 C   0  0  2  0  0  0  0  0  0  0  0  0
   35.4370   29.6500   50.4270 C   0  0  0  0  0  0  0  0  0  0  0  0
   35.8360   30.6010   49.4960 C   0  0  0  0  0  0  0  0  0  0  0  0
   37.0400   31.2510   49.7050 C   0  0  0  0  0  0  0  0  0  0  0  0
   37.7750   30.9210   50.8200 N   0  0  0  0  0  0  0  0  0  0  0  0
   37.3690   29.9910   51.7140 C   0  0  0  0  0  0  0  0  0  0  0  0
   36.1780   29.3450   51.5130 N   0  0  0  0  0  0  0  0  0  0  0  0
   37.1670   30.6070   45.9210 O   0  0  0  0  0  0  0  0  0  0  0  0
   36.0100   30.4910   45.1360 C   0  0  0  0  0  0  0  0  0  0  0  0
   35.1570   29.6210   45.4100 O   0  0  0  0  0  0  0  0  0  0  0  0
   35.7830   31.3370   44.0360 N   0  0  0  0  0  0  0  0  0  0  0  0
   37.7188   31.9861   44.6457 H   0  0  0  0  0  0  0  0  0  0  0  0
   38.2168   33.2492   46.5034 H   0  0  0  0  0  0  0  0  0  0  0  0
   40.3846   33.0985   45.2210 H   0  0  0  0  0  0  0  0  0  0  0  0
   40.9238   32.7615   46.8406 H   0  0  0  0  0  0  0  0  0  0  0  0
   39.2321   29.5289   45.3630 H   0  0  0  0  0  0  0  0  0  0  0  0
   39.5002   30.5769   43.9497 H   0  0  0  0  0  0  0  0  0  0  0  0
   36.4840   32.6639   48.6049 H   0  0  0  0  0  0  0  0  0  0  0  0
   38.8203   34.0367   48.5293 H   0  0  0  0  0  0  0  0  0  0  0  0
   39.3792   33.2662   49.7656 H   0  0  0  0  0  0  0  0  0  0  0  0
   39.1936   30.8647   47.7456 H   0  0  0  0  0  0  0  0  0  0  0  0
   34.4819   29.1263   50.2733 H   0  0  0  0  0  0  0  0  0  0  0  0
   35.2134   30.8306   48.6187 H   0  0  0  0  0  0  0  0  0  0  0  0
   37.9881   29.7561   52.5924 H   0  0  0  0  0  0  0  0  0  0  0  0
   36.4735   32.0614   43.7923 H   0  0  0  0  0  0  0  0  0  0  0  0
   34.9262   31.2323   43.4740 H   0  0  0  0  0  0  0  0  0  0  0  0
  1 15  1  0
  1  2  1  0
  2  8  1  0
  3  2  1  0
  4  3  1  0
  5  1  1  0
  5  4  1  0
  6  7  1  0
  6 11  1  0
  8  6  1  0
  8  7  1  0
  9 14  2  0
 10 11  2  0
 10  9  1  0
 11 12  1  0
 12 13  2  0
 14 13  1  0
 16 17  2  0
 16 15  1  0
 18 16  1  0
  1 19  1  6
  2 20  1  1
  3 21  1  0
  3 22  1  0
  5 23  1  0
  5 24  1  0
  6 25  1  6
  7 26  1  0
  7 27  1  0
  8 28  1  1
  9 29  1  0
 10 30  1  0
 13 31  1  0
 18 32  1  0
 18 33  1  0
M  ISO  8  19  13  20  13  21  13  22  13  23  13  24  13  25  13  26  13
M  ISO  5  27  13  28  13  29  14  30  14  31  14
M  END
>  <minimizedAffinity>  (1) 
-5.27572346

>  <minimizedRMSD>  (1) 
0.684329152

$$$$
