
     RDKit          3D

 30 32  0  0  0  0  0  0  0  0999 V2000
   38.1130   30.6890   47.2330 F   0  0  0  0  0  0  0  0  0  0  0  0
   38.6060   31.8670   47.7610 C   0  0  0  0  0  0  0  0  0  0  0  0
   39.3560   32.7600   47.0010 C   0  0  0  0  0  0  0  0  0  0  0  0
   39.8260   33.9210   47.5770 C   0  0  0  0  0  0  0  0  0  0  0  0
   39.5480   34.1990   48.9180 C   0  0  0  0  0  0  0  0  0  0  0  0
   38.8000   33.2770   49.6270 C   0  0  0  0  0  0  0  0  0  0  0  0
   38.3200   32.1180   49.0900 C   0  0  0  0  0  0  0  0  0  0  0  0
   40.5700   31.4040   45.4570 C   0  0  0  0  0  0  0  0  0  0  0  0
   39.5910   32.3870   45.6280 C   0  0  0  0  0  0  0  0  0  0  0  0
   38.9650   32.8850   44.4930 C   0  0  0  0  0  0  0  0  0  0  0  0
   39.3410   32.3860   43.2710 N   0  0  0  0  0  0  0  0  0  0  0  0
   40.2840   31.4440   43.1440 C   0  0  0  0  0  0  0  0  0  0  0  0
   40.9020   30.9490   44.2330 N   0  0  0  0  0  0  0  0  0  0  0  0
   37.5280   31.1600   49.8630 C   0  0  0  0  0  0  0  0  0  0  0  0
   37.9720   30.4090   50.9340 C   0  0  0  0  0  0  0  0  0  0  0  0
   37.0620   29.5610   51.5280 C   0  0  0  0  0  0  0  0  0  0  0  0
   35.7640   29.4440   51.0980 C   0  0  0  0  0  0  0  0  0  0  0  0
   35.3260   30.2030   50.0210 C   0  0  0  0  0  0  0  0  0  0  0  0
   36.2360   31.0650   49.4100 C   0  0  0  0  0  0  0  0  0  0  0  0
   40.4202   34.6290   46.9806 H   0  0  0  0  0  0  0  0  0  0  0  0
   39.9123   35.1213   49.3941 H   0  0  0  0  0  0  0  0  0  0  0  0
   38.5795   33.4899   50.6834 H   0  0  0  0  0  0  0  0  0  0  0  0
   41.0803   30.9931   46.3406 H   0  0  0  0  0  0  0  0  0  0  0  0
   38.1878   33.6595   44.5713 H   0  0  0  0  0  0  0  0  0  0  0  0
   40.5552   31.0726   42.1448 H   0  0  0  0  0  0  0  0  0  0  0  0
   39.0075   30.4845   51.2973 H   0  0  0  0  0  0  0  0  0  0  0  0
   37.3902   28.9520   52.3832 H   0  0  0  0  0  0  0  0  0  0  0  0
   35.0742   28.7525   51.6040 H   0  0  0  0  0  0  0  0  0  0  0  0
   34.2898   30.1264   49.6597 H   0  0  0  0  0  0  0  0  0  0  0  0
   35.9142   31.6765   48.5541 H   0  0  0  0  0  0  0  0  0  0  0  0
  1  2  1  0
  2  7  2  0
  3  4  2  0
  3  2  1  0
  4  5  1  0
  5  6  2  0
  7  6  1  0
  7 14  1  0
  8  9  2  0
  9  3  1  0
 10  9  1  0
 11 10  2  0
 12 11  1  0
 12 13  2  0
 13  8  1  0
 14 15  2  0
 15 16  1  0
 17 16  2  0
 18 17  1  0
 19 14  1  0
 19 18  2  0
  4 20  1  0
  5 21  1  0
  6 22  1  0
  8 23  1  0
 10 24  1  0
 12 25  1  0
 15 26  1  0
 16 27  1  0
 17 28  1  0
 18 29  1  0
 19 30  1  0
M  ISO  8  20  14  21  14  22  14  23  14  24  14  25  14  26  14  27  14
M  ISO  3  28  14  29  14  30  14
M  END
>  <minimizedAffinity>  (1) 
-7.50770664

>  <minimizedRMSD>  (1) 
5.40331268

$$$$
