
     RDKit          3D

 22 23  0  0  0  0  0  0  0  0999 V2000
   36.6530   32.0380   49.8820 F   0  0  0  0  0  0  0  0  0  0  0  0
   37.3880   31.7840   48.7580 C   0  0  0  0  0  0  0  0  0  0  0  0
   37.0590   30.7710   47.8760 C   0  0  0  0  0  0  0  0  0  0  0  0
   37.8410   30.5530   46.7450 C   0  0  0  0  0  0  0  0  0  0  0  0
   38.9620   31.3540   46.4930 C   0  0  0  0  0  0  0  0  0  0  0  0
   39.2460   32.3530   47.4090 C   0  0  0  0  0  0  0  0  0  0  0  0
   38.4930   32.5810   48.5190 C   0  0  0  0  0  0  0  0  0  0  0  0
   36.0770   29.1020   49.2680 C   0  0  0  0  0  0  0  0  0  0  0  0
   35.8960   29.9940   48.2040 C   0  0  0  0  0  0  0  0  0  0  0  0
   34.6500   30.0320   47.5980 C   0  0  0  0  0  0  0  0  0  0  0  0
   33.6650   29.2090   48.0570 N   0  0  0  0  0  0  0  0  0  0  0  0
   33.8720   28.3650   49.0790 C   0  0  0  0  0  0  0  0  0  0  0  0
   35.0670   28.3080   49.6830 N   0  0  0  0  0  0  0  0  0  0  0  0
   38.8510   33.6510   49.4420 C   0  0  0  0  0  0  0  0  0  0  0  0
   39.7050   34.5160   49.1090 O   0  0  0  0  0  0  0  0  0  0  0  0
   37.5768   29.7467   46.0449 H   0  0  0  0  0  0  0  0  0  0  0  0
   39.5907   31.1961   45.6043 H   0  0  0  0  0  0  0  0  0  0  0  0
   40.1226   32.9930   47.2306 H   0  0  0  0  0  0  0  0  0  0  0  0
   37.0534   29.0475   49.7716 H   0  0  0  0  0  0  0  0  0  0  0  0
   34.4587   30.7166   46.7585 H   0  0  0  0  0  0  0  0  0  0  0  0
   33.0546   27.7147   49.4239 H   0  0  0  0  0  0  0  0  0  0  0  0
   38.3744   33.7036   50.4320 H   0  0  0  0  0  0  0  0  0  0  0  0
  2  1  1  0
  3  9  1  0
  3  2  2  0
  4  3  1  0
  5  4  2  0
  5  6  1  0
  6  7  2  0
  7  2  1  0
  7 14  1  0
  8 13  2  0
  9  8  1  0
 10 11  1  0
 10  9  2  0
 11 12  2  0
 12 13  1  0
 15 14  2  0
  4 16  1  0
  5 17  1  0
  6 18  1  0
  8 19  1  0
 10 20  1  0
 12 21  1  0
 14 22  1  0
M  ISO  7  16  14  17  14  18  14  19  14  20  14  21  14  22   6
M  END
>  <minimizedAffinity>  (1) 
-5.51211452

>  <minimizedRMSD>  (1) 
0.862018287

$$$$
