
     RDKit          3D

 37 40  0  0  0  0  0  0  0  0999 V2000
   33.6710   29.1000   48.5370 F   0  0  0  0  0  0  0  0  0  0  0  0
   34.0470   29.4720   47.2600 C   0  0  0  0  0  0  0  0  0  0  0  0
   33.1390   29.4810   46.2060 C   0  0  0  0  0  0  0  0  0  0  0  0
   33.5620   29.8610   44.9420 C   0  0  0  0  0  0  0  0  0  0  0  0
   34.8880   30.2300   44.7320 C   0  0  0  0  0  0  0  0  0  0  0  0
   35.7540   30.2040   45.8130 C   0  0  0  0  0  0  0  0  0  0  0  0
   35.3610   29.8330   47.0690 C   0  0  0  0  0  0  0  0  0  0  0  0
   31.6760   27.8800   47.1710 C   0  0  0  0  0  0  0  0  0  0  0  0
   31.8040   29.0870   46.5180 C   0  0  0  0  0  0  0  0  0  0  0  0
   30.6180   29.7880   46.2350 C   0  0  0  0  0  0  0  0  0  0  0  0
   29.4380   29.2220   46.6260 N   0  0  0  0  0  0  0  0  0  0  0  0
   29.3670   28.0500   47.2560 C   0  0  0  0  0  0  0  0  0  0  0  0
   30.4830   27.3580   47.5400 N   0  0  0  0  0  0  0  0  0  0  0  0
   36.5060   29.8090   48.4520 S   0  0  0  0  0  0  0  0  0  0  0  0
   37.5220   31.2740   48.4080 C   0  0  0  0  0  0  0  0  0  0  0  0
   37.2780   32.1870   49.4350 C   0  0  0  0  0  0  0  0  0  0  0  0
   37.9720   33.3740   49.5560 C   0  0  0  0  0  0  0  0  0  0  0  0
   38.9420   33.6570   48.6160 C   0  0  0  0  0  0  0  0  0  0  0  0
   39.1790   32.7550   47.6050 C   0  0  0  0  0  0  0  0  0  0  0  0
   40.1480   33.0030   46.6390 C   0  0  0  0  0  0  0  0  0  0  0  0
   40.3720   32.0720   45.6210 C   0  0  0  0  0  0  0  0  0  0  0  0
   39.6500   30.8920   45.5400 C   0  0  0  0  0  0  0  0  0  0  0  0
   38.6810   30.6290   46.4950 C   0  0  0  0  0  0  0  0  0  0  0  0
   38.4970   31.5670   47.4700 C   0  0  0  0  0  0  0  0  0  0  0  0
   32.8495   29.8711   44.1040 H   0  0  0  0  0  0  0  0  0  0  0  0
   35.2385   30.5340   43.7346 H   0  0  0  0  0  0  0  0  0  0  0  0
   36.8030   30.4943   45.6541 H   0  0  0  0  0  0  0  0  0  0  0  0
   32.5891   27.3125   47.4039 H   0  0  0  0  0  0  0  0  0  0  0  0
   30.6399   30.7581   45.7169 H   0  0  0  0  0  0  0  0  0  0  0  0
   28.3861   27.6455   47.5461 H   0  0  0  0  0  0  0  0  0  0  0  0
   36.5016   31.9512   50.1777 H   0  0  0  0  0  0  0  0  0  0  0  0
   37.7582   34.0737   50.3774 H   0  0  0  0  0  0  0  0  0  0  0  0
   39.5183   34.5921   48.6746 H   0  0  0  0  0  0  0  0  0  0  0  0
   40.7376   33.9309   46.6760 H   0  0  0  0  0  0  0  0  0  0  0  0
   41.1420   32.2815   44.8639 H   0  0  0  0  0  0  0  0  0  0  0  0
   39.8433   30.1743   44.7291 H   0  0  0  0  0  0  0  0  0  0  0  0
   38.0857   29.7044   46.4688 H   0  0  0  0  0  0  0  0  0  0  0  0
  2  1  1  0
  3  9  1  0
  3  2  2  0
  4  3  1  0
  5  4  2  0
  5  6  1  0
  6  7  2  0
  7  2  1  0
  7 14  1  0
  8 13  2  0
  9  8  1  0
 10  9  2  0
 10 11  1  0
 11 12  2  0
 12 13  1  0
 15 14  1  0
 15 16  2  0
 16 17  1  0
 18 17  2  0
 19 18  1  0
 20 19  2  0
 21 20  1  0
 22 21  2  0
 22 23  1  0
 23 24  2  0
 24 19  1  0
 24 15  1  0
  4 25  1  0
  5 26  1  0
  6 27  1  0
  8 28  1  0
 10 29  1  0
 12 30  1  0
 16 31  1  0
 17 32  1  0
 18 33  1  0
 20 34  1  0
 21 35  1  0
 22 36  1  0
 23 37  1  0
M  ISO  8  25  14  26  14  27  14  28  14  29  14  30  14  31  14  32  14
M  ISO  5  33  14  34  14  35  14  36  14  37  14
M  END
>  <minimizedAffinity>  (1) 
-6.08703995

>  <minimizedRMSD>  (1) 
5.40345383

$$$$
