
     RDKit          3D

 35 38  0  0  0  0  0  0  0  0999 V2000
   33.7610   29.2010   48.7040 F   0  0  0  0  0  0  0  0  0  0  0  0
   33.8680   29.2830   47.3400 C   0  0  0  0  0  0  0  0  0  0  0  0
   32.8380   28.8590   46.5190 C   0  0  0  0  0  0  0  0  0  0  0  0
   32.9940   28.9620   45.1340 C   0  0  0  0  0  0  0  0  0  0  0  0
   34.1630   29.4820   44.5860 C   0  0  0  0  0  0  0  0  0  0  0  0
   35.1490   29.8870   45.4520 C   0  0  0  0  0  0  0  0  0  0  0  0
   35.0310   29.7990   46.8290 C   0  0  0  0  0  0  0  0  0  0  0  0
   31.8800   27.1820   47.8940 C   0  0  0  0  0  0  0  0  0  0  0  0
   31.6730   28.3370   47.1450 C   0  0  0  0  0  0  0  0  0  0  0  0
   30.3730   28.8430   47.0930 C   0  0  0  0  0  0  0  0  0  0  0  0
   29.3900   28.1790   47.7740 N   0  0  0  0  0  0  0  0  0  0  0  0
   29.6360   27.0780   48.4770 C   0  0  0  0  0  0  0  0  0  0  0  0
   30.8730   26.5560   48.5540 N   0  0  0  0  0  0  0  0  0  0  0  0
   36.3400   30.3340   47.9360 S   0  0  0  0  0  0  0  0  0  0  0  0
   37.7130   31.0010   47.0260 C   0  0  0  0  0  0  0  0  0  0  0  0
   38.1940   30.5640   45.8280 N   0  0  0  0  0  0  0  0  0  0  0  0
   39.2470   31.1830   45.2690 C   0  0  0  0  0  0  0  0  0  0  0  0
   39.8750   32.2280   45.8200 N   0  0  0  0  0  0  0  0  0  0  0  0
   39.4450   32.7060   47.0030 C   0  0  0  0  0  0  0  0  0  0  0  0
   40.0880   33.7760   47.5670 C   0  0  0  0  0  0  0  0  0  0  0  0
   39.6520   34.2780   48.7880 C   0  0  0  0  0  0  0  0  0  0  0  0
   38.5620   33.6860   49.4310 C   0  0  0  0  0  0  0  0  0  0  0  0
   37.9650   32.6140   48.8060 C   0  0  0  0  0  0  0  0  0  0  0  0
   38.3620   32.0900   47.6040 C   0  0  0  0  0  0  0  0  0  0  0  0
   32.1836   28.6283   44.4693 H   0  0  0  0  0  0  0  0  0  0  0  0
   34.2927   29.5657   43.4969 H   0  0  0  0  0  0  0  0  0  0  0  0
   36.0772   30.3013   45.0316 H   0  0  0  0  0  0  0  0  0  0  0  0
   32.8950   26.7622   47.9529 H   0  0  0  0  0  0  0  0  0  0  0  0
   30.1448   29.7530   46.5187 H   0  0  0  0  0  0  0  0  0  0  0  0
   28.8094   26.5828   49.0076 H   0  0  0  0  0  0  0  0  0  0  0  0
   39.6143   30.8089   44.3020 H   0  0  0  0  0  0  0  0  0  0  0  0
   40.9462   34.2364   47.0557 H   0  0  0  0  0  0  0  0  0  0  0  0
   40.1631   35.1377   49.2459 H   0  0  0  0  0  0  0  0  0  0  0  0
   38.1954   34.0612   50.3978 H   0  0  0  0  0  0  0  0  0  0  0  0
   37.1067   32.1441   49.3085 H   0  0  0  0  0  0  0  0  0  0  0  0
  2  1  1  0
  3  9  1  0
  3  2  2  0
  4  3  1  0
  5  4  2  0
  5  6  1  0
  6  7  2  0
  7  2  1  0
  7 14  1  0
  8 13  2  0
  9  8  1  0
 10  9  2  0
 10 11  1  0
 11 12  2  0
 12 13  1  0
 15 24  1  0
 15 14  1  0
 16 15  2  0
 17 18  2  0
 17 16  1  0
 18 19  1  0
 19 20  1  0
 19 24  2  0
 20 21  2  0
 21 22  1  0
 23 22  2  0
 24 23  1  0
  4 25  1  0
  5 26  1  0
  6 27  1  0
  8 28  1  0
 10 29  1  0
 12 30  1  0
 17 31  1  0
 20 32  1  0
 21 33  1  0
 22 34  1  0
 23 35  1  0
M  ISO  8  25  14  26  14  27  14  28  14  29  14  30  14  31  14  32  14
M  ISO  3  33  14  34  14  35  14
M  END
>  <minimizedAffinity>  (1) 
-5.73783636

>  <minimizedRMSD>  (1) 
5.08618212

$$$$
