
     RDKit          3D

 42 46  0  0  0  0  0  0  0  0999 V2000
   31.9890   29.0840   50.1120 F   0  0  0  0  0  0  0  0  0  0  0  0
   32.0320   28.0510   49.2140 C   0  0  0  0  0  0  0  0  0  0  0  0
   30.8980   27.3290   48.9020 C   0  0  0  0  0  0  0  0  0  0  0  0
   30.9940   26.2770   47.9690 C   0  0  0  0  0  0  0  0  0  0  0  0
   32.2140   25.9700   47.3680 C   0  0  0  0  0  0  0  0  0  0  0  0
   33.3030   26.7280   47.7230 C   0  0  0  0  0  0  0  0  0  0  0  0
   33.2480   27.7690   48.6360 C   0  0  0  0  0  0  0  0  0  0  0  0
   29.3530   26.9000   50.6430 C   0  0  0  0  0  0  0  0  0  0  0  0
   29.6890   27.6920   49.5500 C   0  0  0  0  0  0  0  0  0  0  0  0
   28.8250   28.7240   49.2250 C   0  0  0  0  0  0  0  0  0  0  0  0
   27.7010   28.8920   50.0020 N   0  0  0  0  0  0  0  0  0  0  0  0
   27.4230   28.1140   51.0310 C   0  0  0  0  0  0  0  0  0  0  0  0
   28.2310   27.1090   51.3760 N   0  0  0  0  0  0  0  0  0  0  0  0
   34.7030   28.7270   49.0680 S   0  0  0  0  0  0  0  0  0  0  0  0
   35.3940   29.5450   47.6750 C   0  0  0  0  0  0  0  0  0  0  0  0
   34.9370   29.4740   46.3940 N   0  0  0  0  0  0  0  0  0  0  0  0
   35.5610   30.1650   45.4130 C   0  0  0  0  0  0  0  0  0  0  0  0
   36.6280   30.9350   45.6270 N   0  0  0  0  0  0  0  0  0  0  0  0
   37.1140   31.0350   46.8760 C   0  0  0  0  0  0  0  0  0  0  0  0
   38.2210   31.8350   47.0860 C   0  0  0  0  0  0  0  0  0  0  0  0
   38.7390   31.9460   48.3850 C   0  0  0  0  0  0  0  0  0  0  0  0
   38.1370   31.2560   49.4260 C   0  0  0  0  0  0  0  0  0  0  0  0
   37.0550   30.4920   49.1460 C   0  0  0  0  0  0  0  0  0  0  0  0
   36.5090   30.3460   47.9130 C   0  0  0  0  0  0  0  0  0  0  0  0
   36.4970   29.8180   50.3700 C   0  0  0  0  0  0  0  0  0  0  0  0
   37.0440   30.0690   51.7050 C   0  0  0  0  0  0  0  0  0  0  0  0
   37.3910   28.7880   51.0910 C   0  0  0  0  0  0  0  0  0  0  0  0
   30.0980   25.6927   47.7126 H   0  0  0  0  0  0  0  0  0  0  0  0
   32.3011   25.1521   46.6376 H   0  0  0  0  0  0  0  0  0  0  0  0
   34.2720   26.4960   47.2570 H   0  0  0  0  0  0  0  0  0  0  0  0
   30.0222   26.0733   50.9234 H   0  0  0  0  0  0  0  0  0  0  0  0
   29.0302   29.3887   48.3729 H   0  0  0  0  0  0  0  0  0  0  0  0
   26.5089   28.2969   51.6150 H   0  0  0  0  0  0  0  0  0  0  0  0
   35.1688   30.0879   44.3882 H   0  0  0  0  0  0  0  0  0  0  0  0
   38.6879   32.3753   46.2493 H   0  0  0  0  0  0  0  0  0  0  0  0
   39.6189   32.5777   48.5768 H   0  0  0  0  0  0  0  0  0  0  0  0
   38.5279   31.3274   50.4517 H   0  0  0  0  0  0  0  0  0  0  0  0
   35.4860   29.8549   49.9382 H   0  0  0  0  0  0  0  0  0  0  0  0
   37.8234   30.8345   51.8337 H   0  0  0  0  0  0  0  0  0  0  0  0
   36.5904   30.3476   52.6676 H   0  0  0  0  0  0  0  0  0  0  0  0
   36.9594   27.8527   51.4771 H   0  0  0  0  0  0  0  0  0  0  0  0
   38.3234   28.2533   50.8570 H   0  0  0  0  0  0  0  0  0  0  0  0
  2  1  1  0
  3  2  2  0
  3  9  1  0
  4  3  1  0
  5  6  1  0
  5  4  2  0
  6  7  2  0
  7 14  1  0
  7  2  1  0
  8 13  2  0
  9  8  1  0
 10  9  2  0
 10 11  1  0
 11 12  2  0
 12 13  1  0
 15 24  1  0
 15 14  1  0
 16 15  2  0
 17 18  2  0
 17 16  1  0
 18 19  1  0
 19 20  1  0
 19 24  2  0
 20 21  2  0
 21 22  1  0
 23 22  2  0
 23 25  1  0
 24 23  1  0
 25 27  1  0
 25 26  1  0
 27 26  1  0
  4 28  1  0
  5 29  1  0
  6 30  1  0
  8 31  1  0
 10 32  1  0
 12 33  1  0
 17 34  1  0
 20 35  1  0
 21 36  1  0
 22 37  1  0
 25 38  1  0
 26 39  1  0
 26 40  1  0
 27 41  1  0
 27 42  1  0
M  ISO  8  28  14  29  14  30  14  31  14  32  14  33  14  34  14  35  14
M  ISO  7  36  14  37  14  38  13  39  13  40  13  41  13  42  13
M  END
>  <minimizedAffinity>  (1) 
-7.18808603

>  <minimizedRMSD>  (1) 
3.18103051

$$$$
