
     RDKit          3D

 36 39  0  0  0  0  0  0  0  0999 V2000
   33.6960   29.1160   48.7730 F   0  0  0  0  0  0  0  0  0  0  0  0
   33.7970   29.2180   47.4020 C   0  0  0  0  0  0  0  0  0  0  0  0
   32.7520   28.8160   46.5960 C   0  0  0  0  0  0  0  0  0  0  0  0
   32.8980   28.9370   45.2110 C   0  0  0  0  0  0  0  0  0  0  0  0
   34.0740   29.4550   44.6500 C   0  0  0  0  0  0  0  0  0  0  0  0
   35.0630   29.8310   45.5110 C   0  0  0  0  0  0  0  0  0  0  0  0
   34.9560   29.7260   46.8970 C   0  0  0  0  0  0  0  0  0  0  0  0
   31.7870   27.1770   47.9950 C   0  0  0  0  0  0  0  0  0  0  0  0
   31.5890   28.3010   47.2210 C   0  0  0  0  0  0  0  0  0  0  0  0
   30.2800   28.8080   47.1360 C   0  0  0  0  0  0  0  0  0  0  0  0
   29.2970   28.1560   47.8220 N   0  0  0  0  0  0  0  0  0  0  0  0
   29.5350   27.0800   48.5530 C   0  0  0  0  0  0  0  0  0  0  0  0
   30.7800   26.5570   48.6630 N   0  0  0  0  0  0  0  0  0  0  0  0
   36.2760   30.2320   47.9880 S   0  0  0  0  0  0  0  0  0  0  0  0
   37.6340   30.9300   47.1020 C   0  0  0  0  0  0  0  0  0  0  0  0
   38.1250   30.5180   45.8950 N   0  0  0  0  0  0  0  0  0  0  0  0
   39.1640   31.1510   45.3450 C   0  0  0  0  0  0  0  0  0  0  0  0
   39.7840   32.1970   45.9100 N   0  0  0  0  0  0  0  0  0  0  0  0
   39.3470   32.6540   47.1060 C   0  0  0  0  0  0  0  0  0  0  0  0
   39.9730   33.7160   47.6870 C   0  0  0  0  0  0  0  0  0  0  0  0
   39.5360   34.1970   48.9180 C   0  0  0  0  0  0  0  0  0  0  0  0
   38.4600   33.5900   49.5510 C   0  0  0  0  0  0  0  0  0  0  0  0
   37.8720   32.5180   48.9070 C   0  0  0  0  0  0  0  0  0  0  0  0
   38.2730   32.0200   47.7020 C   0  0  0  0  0  0  0  0  0  0  0  0
   36.8010   31.9460   49.5810 O   0  0  0  0  0  0  0  0  0  0  0  0
   32.0771   28.6207   44.5506 H   0  0  0  0  0  0  0  0  0  0  0  0
   34.1941   29.5540   43.5611 H   0  0  0  0  0  0  0  0  0  0  0  0
   35.9938   30.2384   45.0896 H   0  0  0  0  0  0  0  0  0  0  0  0
   32.8038   26.7650   48.0748 H   0  0  0  0  0  0  0  0  0  0  0  0
   30.0556   29.7019   46.5355 H   0  0  0  0  0  0  0  0  0  0  0  0
   28.7016   26.5977   49.0849 H   0  0  0  0  0  0  0  0  0  0  0  0
   39.5326   30.7937   44.3721 H   0  0  0  0  0  0  0  0  0  0  0  0
   40.8254   34.1941   47.1821 H   0  0  0  0  0  0  0  0  0  0  0  0
   40.0411   35.0543   49.3871 H   0  0  0  0  0  0  0  0  0  0  0  0
   38.0911   33.9471   50.5238 H   0  0  0  0  0  0  0  0  0  0  0  0
   36.3243   31.1728   49.1872 H   0  0  0  0  0  0  0  0  0  0  0  0
  2  1  1  0
  3  9  1  0
  3  2  2  0
  4  3  1  0
  5  4  2  0
  5  6  1  0
  6  7  2  0
  7  2  1  0
  7 14  1  0
  8 13  2  0
  9  8  1  0
 10  9  2  0
 10 11  1  0
 11 12  2  0
 12 13  1  0
 15 24  1  0
 15 14  1  0
 16 15  2  0
 17 16  1  0
 17 18  2  0
 18 19  1  0
 19 20  1  0
 19 24  2  0
 20 21  2  0
 21 22  1  0
 23 22  2  0
 23 25  1  0
 24 23  1  0
  4 26  1  0
  5 27  1  0
  6 28  1  0
  8 29  1  0
 10 30  1  0
 12 31  1  0
 17 32  1  0
 20 33  1  0
 21 34  1  0
 22 35  1  0
 25 36  1  0
M  ISO  8  26  14  27  14  28  14  29  14  30  14  31  14  32  14  33  14
M  ISO  3  34  14  35  14  36   3
M  END
>  <minimizedAffinity>  (1) 
-5.97227764

>  <minimizedRMSD>  (1) 
0.139643669

$$$$
