
     RDKit          3D

 38 41  0  0  1  0  0  0  0  0999 V2000
   37.5730   30.0100   44.4940 C   0  0  1  0  0  0  0  0  0  0  0  0
   36.4250   29.5600   43.5780 C   0  0  2  0  0  0  0  0  0  0  0  0
   36.8780   30.3390   42.3660 C   0  0  0  0  0  0  0  0  0  0  0  0
   38.2460   30.1250   42.2790 O   0  0  0  0  0  0  0  0  0  0  0  0
   38.7260   29.7960   43.5120 C   0  0  0  0  0  0  0  0  0  0  0  0
   35.1120   29.9460   44.1000 C   0  0  0  0  0  0  0  0  0  0  0  0
   34.6320   29.3800   45.2890 C   0  0  0  0  0  0  0  0  0  0  0  0
   33.3620   29.7770   45.7200 C   0  0  0  0  0  0  0  0  0  0  0  0
   32.6650   30.6840   44.9670 N   0  0  0  0  0  0  0  0  0  0  0  0
   33.1670   31.2150   43.8090 C   0  0  0  0  0  0  0  0  0  0  0  0
   34.3960   30.8360   43.3890 N   0  0  0  0  0  0  0  0  0  0  0  0
   37.5400   31.3330   44.7800 O   0  0  0  0  0  0  0  0  0  0  0  0
   38.3170   32.0300   45.6950 C   0  0  0  0  0  0  0  0  0  0  0  0
   39.3660   32.8500   45.3340 C   0  0  0  0  0  0  0  0  0  0  0  0
   40.1380   33.5430   46.2380 C   0  0  0  0  0  0  0  0  0  0  0  0
   39.8650   33.4250   47.5900 C   0  0  0  0  0  0  0  0  0  0  0  0
   38.8040   32.5970   47.9680 C   0  0  0  0  0  0  0  0  0  0  0  0
   38.5340   32.4810   49.3020 C   0  0  0  0  0  0  0  0  0  0  0  0
   37.5000   31.6820   49.7750 C   0  0  0  0  0  0  0  0  0  0  0  0
   36.7260   30.9880   48.8770 C   0  0  0  0  0  0  0  0  0  0  0  0
   36.9880   31.0960   47.5250 C   0  0  0  0  0  0  0  0  0  0  0  0
   38.0250   31.8970   47.0490 C   0  0  0  0  0  0  0  0  0  0  0  0
   37.5900   29.4950   45.4659 H   0  0  0  0  0  0  0  0  0  0  0  0
   36.2732   28.4811   43.4268 H   0  0  0  0  0  0  0  0  0  0  0  0
   36.3728   29.9705   41.4610 H   0  0  0  0  0  0  0  0  0  0  0  0
   36.6367   31.4086   42.4542 H   0  0  0  0  0  0  0  0  0  0  0  0
   39.0484   28.7444   43.5268 H   0  0  0  0  0  0  0  0  0  0  0  0
   39.5973   30.4122   43.7788 H   0  0  0  0  0  0  0  0  0  0  0  0
   35.2294   28.6536   45.8596 H   0  0  0  0  0  0  0  0  0  0  0  0
   32.9313   29.3685   46.6461 H   0  0  0  0  0  0  0  0  0  0  0  0
   32.5787   31.9403   43.2278 H   0  0  0  0  0  0  0  0  0  0  0  0
   39.5982   32.9557   44.2640 H   0  0  0  0  0  0  0  0  0  0  0  0
   40.9623   34.1831   45.8905 H   0  0  0  0  0  0  0  0  0  0  0  0
   40.4620   33.9638   48.3405 H   0  0  0  0  0  0  0  0  0  0  0  0
   39.1528   33.0359   50.0225 H   0  0  0  0  0  0  0  0  0  0  0  0
   37.3038   31.6062   50.8547 H   0  0  0  0  0  0  0  0  0  0  0  0
   35.9030   30.3505   49.2322 H   0  0  0  0  0  0  0  0  0  0  0  0
   36.3657   30.5386   46.8094 H   0  0  0  0  0  0  0  0  0  0  0  0
  1 12  1  0
  2  6  1  0
  2  1  1  0
  3  2  1  0
  4  3  1  0
  4  5  1  0
  5  1  1  0
  6  7  2  0
  7  8  1  0
  9  8  2  0
 10  9  1  0
 11 10  2  0
 11  6  1  0
 12 13  1  0
 13 22  1  0
 14 13  2  0
 14 15  1  0
 15 16  2  0
 16 17  1  0
 17 18  2  0
 18 19  1  0
 20 19  2  0
 21 20  1  0
 22 21  2  0
 22 17  1  0
  1 23  1  1
  2 24  1  6
  3 25  1  0
  3 26  1  0
  5 27  1  0
  5 28  1  0
  7 29  1  0
  8 30  1  0
 10 31  1  0
 14 32  1  0
 15 33  1  0
 16 34  1  0
 18 35  1  0
 19 36  1  0
 20 37  1  0
 21 38  1  0
M  ISO  8  23  13  24  13  25  13  26  13  27  13  28  13  29  14  30  14
M  ISO  8  31  14  32  14  33  14  34  14  35  14  36  14  37  14  38  14
M  END
>  <minimizedAffinity>  (1) 
-5.2446394

>  <minimizedRMSD>  (1) 
4.96288586

$$$$
