
     RDKit          3D

 36 38  0  0  1  0  0  0  0  0999 V2000
   36.9900   30.2620   46.7610 C   0  0  1  0  0  0  0  0  0  0  0  0
   36.1010   29.5130   47.7510 C   0  0  2  0  0  0  0  0  0  0  0  0
   34.8140   30.2160   47.3720 C   0  0  0  0  0  0  0  0  0  0  0  0
   34.7990   30.2450   45.9900 O   0  0  0  0  0  0  0  0  0  0  0  0
   36.0790   30.1620   45.5280 C   0  0  0  0  0  0  0  0  0  0  0  0
   36.5100   29.7240   49.1450 C   0  0  0  0  0  0  0  0  0  0  0  0
   37.7720   30.2630   49.4320 C   0  0  0  0  0  0  0  0  0  0  0  0
   38.1130   30.4170   50.7790 C   0  0  0  0  0  0  0  0  0  0  0  0
   37.2090   30.0380   51.7290 N   0  0  0  0  0  0  0  0  0  0  0  0
   35.9820   29.5140   51.4180 C   0  0  0  0  0  0  0  0  0  0  0  0
   35.6470   29.3640   50.1120 N   0  0  0  0  0  0  0  0  0  0  0  0
   37.1030   31.5920   47.0390 O   0  0  0  0  0  0  0  0  0  0  0  0
   37.8550   32.8640   45.2350 N   0  0  0  0  0  0  0  0  0  0  0  0
   38.2360   32.0510   46.3890 C   0  0  1  0  0  0  0  0  0  0  0  0
   39.1460   32.8980   47.2330 C   0  0  0  0  0  0  0  0  0  0  0  0
   40.1150   33.5090   46.3610 N   0  0  0  0  0  0  0  0  0  0  0  0
   40.2880   32.8100   45.1010 C   0  0  0  0  0  0  0  0  0  0  0  0
   38.9980   32.7390   44.3190 C   0  0  0  0  0  0  0  0  0  0  0  0
   38.0158   29.8677   46.7143 H   0  0  0  0  0  0  0  0  0  0  0  0
   36.0899   28.4142   47.7000 H   0  0  0  0  0  0  0  0  0  0  0  0
   33.9456   29.6592   47.7538 H   0  0  0  0  0  0  0  0  0  0  0  0
   34.7614   31.2276   47.8008 H   0  0  0  0  0  0  0  0  0  0  0  0
   36.2371   29.2021   45.0145 H   0  0  0  0  0  0  0  0  0  0  0  0
   36.2957   30.9622   44.8050 H   0  0  0  0  0  0  0  0  0  0  0  0
   38.4661   30.5531   48.6294 H   0  0  0  0  0  0  0  0  0  0  0  0
   39.0890   30.8347   51.0672 H   0  0  0  0  0  0  0  0  0  0  0  0
   35.2809   29.2201   52.2131 H   0  0  0  0  0  0  0  0  0  0  0  0
   36.9952   32.5010   44.7992 H   0  0  0  0  0  0  0  0  0  0  0  0
   38.7836   31.1390   46.1091 H   0  0  0  0  0  0  0  0  0  0  0  0
   38.5625   33.6760   47.7471 H   0  0  0  0  0  0  0  0  0  0  0  0
   39.6486   32.2815   47.9928 H   0  0  0  0  0  0  0  0  0  0  0  0
   39.8098   34.4719   46.1595 H   0  0  0  0  0  0  0  0  0  0  0  0
   41.0406   33.3408   44.4995 H   0  0  0  0  0  0  0  0  0  0  0  0
   40.6121   31.7822   45.3212 H   0  0  0  0  0  0  0  0  0  0  0  0
   38.9697   33.5581   43.5853 H   0  0  0  0  0  0  0  0  0  0  0  0
   38.9418   31.7726   43.7966 H   0  0  0  0  0  0  0  0  0  0  0  0
  1 12  1  0
  1  2  1  0
  2  6  1  0
  3  2  1  0
  4  3  1  0
  5  4  1  0
  5  1  1  0
  6  7  2  0
  6 11  1  0
  7  8  1  0
  8  9  2  0
 10  9  1  0
 11 10  2  0
 13 14  1  0
 14 12  1  0
 14 15  1  0
 16 15  1  0
 17 16  1  0
 18 17  1  0
 18 13  1  0
  1 19  1  6
  2 20  1  6
  3 21  1  0
  3 22  1  0
  5 23  1  0
  5 24  1  0
  7 25  1  0
  8 26  1  0
 10 27  1  0
 13 28  1  0
 14 29  1  6
 15 30  1  0
 15 31  1  0
 16 32  1  0
 17 33  1  0
 17 34  1  0
 18 35  1  0
 18 36  1  0
M  ISO  8  19  13  20  13  21  13  22  13  23  13  24  13  25  14  26  14
M  ISO  8  27  14  28   5  29  13  30  13  31  13  32   5  33  13  34  13
M  ISO  2  35  13  36  13
M  END
>  <minimizedAffinity>  (1) 
-4.91772556

>  <minimizedRMSD>  (1) 
3.81254911

$$$$
