
     RDKit          3D

 50 53  0  0  1  0  0  0  0  0999 V2000
   37.9290   30.5610   45.1690 C   0  0  2  0  0  0  0  0  0  0  0  0
   38.5240   31.2290   46.3930 C   0  0  2  0  0  0  0  0  0  0  0  0
   40.0070   31.2400   46.2270 C   0  0  0  0  0  0  0  0  0  0  0  0
   40.3660   31.3930   44.9190 O   0  0  0  0  0  0  0  0  0  0  0  0
   39.5080   32.2730   44.2920 C   0  0  0  0  0  0  0  0  0  0  0  0
   38.2160   31.5470   44.0090 C   0  0  2  0  0  0  0  0  0  0  0  0
   36.5850   30.3820   45.1580 O   0  0  0  0  0  0  0  0  0  0  0  0
   38.1150   30.7550   47.6000 O   0  0  0  0  0  0  0  0  0  0  0  0
   37.4280   31.6650   48.2940 C   0  0  1  0  0  0  0  0  0  0  0  0
   36.5830   31.1070   49.4080 C   0  0  2  0  0  0  0  0  0  0  0  0
   37.7200   30.4880   50.2370 C   0  0  0  0  0  0  0  0  0  0  0  0
   38.7430   31.4060   50.2380 O   0  0  0  0  0  0  0  0  0  0  0  0
   38.4950   32.2830   49.2570 C   0  0  0  0  0  0  0  0  0  0  0  0
   35.6400   30.0860   48.9350 C   0  0  0  0  0  0  0  0  0  0  0  0
   34.7520   30.4450   47.9160 C   0  0  0  0  0  0  0  0  0  0  0  0
   33.8390   29.4410   47.4900 C   0  0  0  0  0  0  0  0  0  0  0  0
   33.8830   28.2060   48.0920 N   0  0  0  0  0  0  0  0  0  0  0  0
   34.7630   27.9130   49.0730 C   0  0  0  0  0  0  0  0  0  0  0  0
   35.6340   28.8570   49.4850 N   0  0  0  0  0  0  0  0  0  0  0  0
   37.2220   32.5560   44.0020 O   0  0  0  0  0  0  0  0  0  0  0  0
   35.2860   33.2650   43.0500 N   0  0  0  0  0  0  0  0  0  0  0  0
   35.1300   34.2220   41.9730 C   0  0  0  0  0  0  0  0  0  0  0  0
   36.0290   33.7170   40.8470 C   0  0  0  0  0  0  0  0  0  0  0  0
   37.2310   33.2540   41.6800 C   0  0  0  0  0  0  0  0  0  0  0  0
   36.5210   32.5490   42.8180 C   0  0  1  0  0  0  0  0  0  0  0  0
   38.3694   29.5544   45.1152 H   0  0  0  0  0  0  0  0  0  0  0  0
   38.1296   32.2551   46.4336 H   0  0  0  0  0  0  0  0  0  0  0  0
   40.4253   32.0727   46.8115 H   0  0  0  0  0  0  0  0  0  0  0  0
   40.3995   30.2751   46.5804 H   0  0  0  0  0  0  0  0  0  0  0  0
   39.3152   33.1358   44.9465 H   0  0  0  0  0  0  0  0  0  0  0  0
   39.9537   32.6370   43.3545 H   0  0  0  0  0  0  0  0  0  0  0  0
   38.2471   30.9826   43.0654 H   0  0  0  0  0  0  0  0  0  0  0  0
   36.2504   30.3374   46.0887 H   0  0  0  0  0  0  0  0  0  0  0  0
   36.8637   32.2488   47.5519 H   0  0  0  0  0  0  0  0  0  0  0  0
   35.9314   31.8267   49.9253 H   0  0  0  0  0  0  0  0  0  0  0  0
   37.3801   30.2959   51.2654 H   0  0  0  0  0  0  0  0  0  0  0  0
   38.0464   29.5273   49.8120 H   0  0  0  0  0  0  0  0  0  0  0  0
   39.4214   32.4888   48.7008 H   0  0  0  0  0  0  0  0  0  0  0  0
   38.1178   33.2252   49.6813 H   0  0  0  0  0  0  0  0  0  0  0  0
   34.7592   31.4497   47.4681 H   0  0  0  0  0  0  0  0  0  0  0  0
   33.1104   29.6492   46.6927 H   0  0  0  0  0  0  0  0  0  0  0  0
   34.7697   26.9135   49.5322 H   0  0  0  0  0  0  0  0  0  0  0  0
   35.3287   33.7566   43.9541 H   0  0  0  0  0  0  0  0  0  0  0  0
   34.0820   34.2599   41.6409 H   0  0  0  0  0  0  0  0  0  0  0  0
   35.4027   35.2400   42.2882 H   0  0  0  0  0  0  0  0  0  0  0  0
   36.2995   34.5197   40.1452 H   0  0  0  0  0  0  0  0  0  0  0  0
   35.5832   32.9496   40.1971 H   0  0  0  0  0  0  0  0  0  0  0  0
   37.8761   32.5653   41.1147 H   0  0  0  0  0  0  0  0  0  0  0  0
   37.9109   34.0603   41.9925 H   0  0  0  0  0  0  0  0  0  0  0  0
   36.3859   31.4976   42.5241 H   0  0  0  0  0  0  0  0  0  0  0  0
  1  2  1  0
  2  8  1  0
  3  2  1  0
  4  3  1  0
  5  4  1  0
  6  5  1  0
  6  1  1  0
  7  1  1  0
  8  9  1  0
  9 13  1  0
  9 10  1  0
 10 11  1  0
 11 12  1  0
 13 12  1  0
 14 10  1  0
 14 19  1  0
 15 14  2  0
 16 15  1  0
 16 17  2  0
 17 18  1  0
 18 19  2  0
 20  6  1  0
 22 21  1  0
 23 24  1  0
 23 22  1  0
 24 25  1  0
 25 21  1  0
 25 20  1  0
  1 26  1  6
  2 27  1  1
  3 28  1  0
  3 29  1  0
  5 30  1  0
  5 31  1  0
  6 32  1  6
  7 33  1  0
  9 34  1  6
 10 35  1  1
 11 36  1  0
 11 37  1  0
 13 38  1  0
 13 39  1  0
 15 40  1  0
 16 41  1  0
 18 42  1  0
 21 43  1  0
 22 44  1  0
 22 45  1  0
 23 46  1  0
 23 47  1  0
 24 48  1  0
 24 49  1  0
 25 50  1  6
M  ISO  8  26  13  27  13  28  13  29  13  30  13  31  13  32  13  33   3
M  ISO  8  34  13  35  13  36  13  37  13  38  13  39  13  40  14  41  14
M  ISO  8  42  14  43   5  44  13  45  13  46  13  47  13  48  13  49  13
M  ISO  1  50  13
M  END
>  <minimizedAffinity>  (1) 
-5.90852594

>  <minimizedRMSD>  (1) 
2.55133128

$$$$
