
     RDKit          3D

 23 24  0  0  0  0  0  0  0  0999 V2000
   38.1480   30.6510   47.2360 C   0  0  0  0  0  0  0  0  0  0  0  0
   39.0540   31.3170   46.2940 C   0  0  0  0  0  0  0  0  0  0  0  0
   39.3890   32.6590   46.3740 C   0  0  0  0  0  0  0  0  0  0  0  0
   40.2550   33.2120   45.4410 C   0  0  0  0  0  0  0  0  0  0  0  0
   40.7300   32.3750   44.4850 N   0  0  0  0  0  0  0  0  0  0  0  0
   40.4030   31.0590   44.4040 C   0  0  0  0  0  0  0  0  0  0  0  0
   39.5680   30.5650   45.3180 N   0  0  0  0  0  0  0  0  0  0  0  0
   37.5980   31.5150   48.3070 C   0  0  0  0  0  0  0  0  0  0  0  0
   37.1250   30.7870   49.4710 C   0  0  0  0  0  0  0  0  0  0  0  0
   37.7400   30.5710   50.7020 C   0  0  0  0  0  0  0  0  0  0  0  0
   37.0620   29.8410   51.6300 C   0  0  0  0  0  0  0  0  0  0  0  0
   35.7270   29.3250   51.2820 C   0  0  0  0  0  0  0  0  0  0  0  0
   35.5920   30.0040   49.5220 S   0  0  0  0  0  0  0  0  0  0  0  0
   38.7000   29.8281   47.7136 H   0  0  0  0  0  0  0  0  0  0  0  0
   37.2844   30.3175   46.6419 H   0  0  0  0  0  0  0  0  0  0  0  0
   38.9694   33.2849   47.1754 H   0  0  0  0  0  0  0  0  0  0  0  0
   40.5412   34.2736   45.4750 H   0  0  0  0  0  0  0  0  0  0  0  0
   40.8147   30.4206   43.6085 H   0  0  0  0  0  0  0  0  0  0  0  0
   38.3877   32.2089   48.6308 H   0  0  0  0  0  0  0  0  0  0  0  0
   36.7262   32.0330   47.8807 H   0  0  0  0  0  0  0  0  0  0  0  0
   38.7396   30.9765   50.9171 H   0  0  0  0  0  0  0  0  0  0  0  0
   37.5017   29.6409   52.6182 H   0  0  0  0  0  0  0  0  0  0  0  0
   35.0189   28.7234   51.8708 H   0  0  0  0  0  0  0  0  0  0  0  0
  1  8  1  0
  2  3  2  0
  2  1  1  0
  4  3  1  0
  5  4  2  0
  6  5  1  0
  6  7  2  0
  7  2  1  0
  8  9  1  0
  9 13  1  0
  9 10  2  0
 10 11  1  0
 12 11  2  0
 13 12  1  0
  1 14  1  0
  1 15  1  0
  3 16  1  0
  4 17  1  0
  6 18  1  0
  8 19  1  0
  8 20  1  0
 10 21  1  0
 11 22  1  0
 12 23  1  0
M  ISO  8  14   8  15   8  16  14  17  14  18  14  19   8  20   8  21  14
M  ISO  2  22  14  23  14
M  END
>  <minimizedAffinity>  (1) 
-4.65135479

>  <minimizedRMSD>  (1) 
3.52272701

$$$$
