
     RDKit          3D

 17 17  0  0  0  0  0  0  0  0999 V2000
   37.4970   31.3960   49.3680 C   0  0  0  0  0  0  0  0  0  0  0  0
   38.1070   32.6340   49.4340 C   0  0  0  0  0  0  0  0  0  0  0  0
   38.9220   33.0830   48.3980 C   0  0  0  0  0  0  0  0  0  0  0  0
   39.0750   32.2330   47.3360 N   0  0  0  0  0  0  0  0  0  0  0  0
   38.4750   31.0260   47.2820 C   0  0  0  0  0  0  0  0  0  0  0  0
   37.6870   30.6170   48.3060 N   0  0  0  0  0  0  0  0  0  0  0  0
   36.6080   30.8400   50.3870 C   0  0  0  0  0  0  0  0  0  0  0  0
   37.3110   30.0590   51.4470 C   0  0  0  0  0  0  0  0  0  0  0  0
   38.1190   29.0730   50.9370 O   0  0  0  0  0  0  0  0  0  0  0  0
   37.9469   33.2725   50.3153 H   0  0  0  0  0  0  0  0  0  0  0  0
   39.4152   34.0657   48.4312 H   0  0  0  0  0  0  0  0  0  0  0  0
   38.6251   30.3748   46.4083 H   0  0  0  0  0  0  0  0  0  0  0  0
   36.0715   31.6710   50.8683 H   0  0  0  0  0  0  0  0  0  0  0  0
   35.9328   30.1407   49.8722 H   0  0  0  0  0  0  0  0  0  0  0  0
   37.9303   30.7490   52.0389 H   0  0  0  0  0  0  0  0  0  0  0  0
   36.5412   29.5698   52.0619 H   0  0  0  0  0  0  0  0  0  0  0  0
   38.5330   28.5679   51.6810 H   0  0  0  0  0  0  0  0  0  0  0  0
  1  2  2  0
  1  7  1  0
  3  2  1  0
  4  3  2  0
  5  4  1  0
  5  6  2  0
  6  1  1  0
  7  8  1  0
  9  8  1  0
  2 10  1  0
  3 11  1  0
  5 12  1  0
  7 13  1  0
  7 14  1  0
  8 15  1  0
  8 16  1  0
  9 17  1  0
M  ISO  8  10  14  11  14  12  14  13   8  14   8  15   8  16   8  17   3
M  END
>  <minimizedAffinity>  (1) 
-3.7583642

>  <minimizedRMSD>  (1) 
0.395920217

$$$$
