
     RDKit          3D

 35 37  0  0  0  0  0  0  0  0999 V2000
   34.7010   30.6000   49.1530 O   0  0  0  0  0  0  0  0  0  0  0  0
   34.4430   29.4420   50.1220 P   0  0  2  0  0  0  0  0  0  0  0  0
   33.0060   29.7880   50.8990 O   0  0  0  0  0  0  0  0  0  0  0  0
   35.7360   29.3570   51.1940 O   0  0  0  0  0  0  0  0  0  0  0  0
   36.9640   29.2400   50.5260 C   0  0  0  0  0  0  0  0  0  0  0  0
   37.7480   30.4920   50.7710 C   0  0  0  0  0  0  0  0  0  0  0  0
   38.1270   31.2040   49.5520 C   0  0  0  0  0  0  0  0  0  0  0  0
   38.5490   32.5330   49.5620 C   0  0  0  0  0  0  0  0  0  0  0  0
   38.8900   33.1240   48.3390 C   0  0  0  0  0  0  0  0  0  0  0  0
   38.7890   32.3620   47.1920 N   0  0  0  0  0  0  0  0  0  0  0  0
   38.3730   31.0690   47.2340 C   0  0  0  0  0  0  0  0  0  0  0  0
   38.0450   30.5070   48.4290 N   0  0  0  0  0  0  0  0  0  0  0  0
   34.2790   27.9950   49.2610 O   0  0  0  0  0  0  0  0  0  0  0  0
   31.9750   28.0310   48.9810 N   0  0  0  0  0  0  0  0  0  0  0  0
   33.1810   27.6480   48.5070 C   0  0  0  0  0  0  0  0  0  0  0  0
   32.9700   26.9820   47.3340 N   0  0  0  0  0  0  0  0  0  0  0  0
   31.6500   26.9440   47.0750 C   0  0  0  0  0  0  0  0  0  0  0  0
   30.9820   26.3790   46.0090 C   0  0  0  0  0  0  0  0  0  0  0  0
   29.6450   26.5100   46.0340 N   0  0  0  0  0  0  0  0  0  0  0  0
   28.9960   27.1480   47.0290 C   0  0  0  0  0  0  0  0  0  0  0  0
   29.7020   27.6770   48.0380 N   0  0  0  0  0  0  0  0  0  0  0  0
   31.0350   27.6080   48.1170 C   0  0  0  0  0  0  0  0  0  0  0  0
   31.6680   25.7060   44.9590 N   0  0  0  0  0  0  0  0  0  0  0  0
   33.1443   29.7547   51.8787 H   0  0  0  0  0  0  0  0  0  0  0  0
   36.7910   29.1136   49.4471 H   0  0  0  0  0  0  0  0  0  0  0  0
   37.5177   28.3649   50.8969 H   0  0  0  0  0  0  0  0  0  0  0  0
   37.1382   31.1664   51.3901 H   0  0  0  0  0  0  0  0  0  0  0  0
   38.6823   30.1906   51.2672 H   0  0  0  0  0  0  0  0  0  0  0  0
   38.6122   33.1002   50.5024 H   0  0  0  0  0  0  0  0  0  0  0  0
   39.2298   34.1692   48.2933 H   0  0  0  0  0  0  0  0  0  0  0  0
   38.3019   30.4803   46.3075 H   0  0  0  0  0  0  0  0  0  0  0  0
   31.8053   28.5550   49.8514 H   0  0  0  0  0  0  0  0  0  0  0  0
   27.8994   27.2333   47.0128 H   0  0  0  0  0  0  0  0  0  0  0  0
   32.6949   25.6294   44.9809 H   0  0  0  0  0  0  0  0  0  0  0  0
   31.1375   25.2956   44.1773 H   0  0  0  0  0  0  0  0  0  0  0  0
  2  1  2  0
  2  3  1  0
  2  4  1  0
  5  6  1  0
  5  4  1  0
  7  8  2  0
  7  6  1  0
  9  8  1  0
 10 11  1  0
 10  9  2  0
 11 12  2  0
 12  7  1  0
 13  2  1  0
 15 14  1  0
 15 13  1  0
 16 15  2  0
 17 16  1  0
 17 22  2  0
 18 19  2  0
 18 17  1  0
 19 20  1  0
 20 21  2  0
 21 22  1  0
 22 14  1  0
 23 18  1  0
  3 24  1  0
  5 25  1  0
  5 26  1  0
  6 27  1  0
  6 28  1  0
  8 29  1  0
  9 30  1  0
 11 31  1  0
 14 32  1  0
 20 33  1  0
 23 34  1  0
 23 35  1  0
M  ISO  8  24   3  25   8  26   8  27   8  28   8  29  14  30  14  31  14
M  ISO  2  32   9  33  14
M  END
>  <minimizedAffinity>  (1) 
-5.68100691

>  <minimizedRMSD>  (1) 
0.890771806

$$$$
