
     RDKit          3D

 30 31  0  0  0  0  0  0  0  0999 V2000
   36.9750   29.2660   50.7090 C   0  0  0  0  0  0  0  0  0  0  0  0
   37.7650   30.5190   50.8580 C   0  0  0  0  0  0  0  0  0  0  0  0
   38.1130   31.1770   49.6130 C   0  0  0  0  0  0  0  0  0  0  0  0
   38.5520   32.4840   49.5450 C   0  0  0  0  0  0  0  0  0  0  0  0
   38.8690   33.0400   48.2830 C   0  0  0  0  0  0  0  0  0  0  0  0
   38.7180   32.2310   47.1920 N   0  0  0  0  0  0  0  0  0  0  0  0
   38.2820   30.9370   47.2860 C   0  0  0  0  0  0  0  0  0  0  0  0
   37.9870   30.4420   48.5140 N   0  0  0  0  0  0  0  0  0  0  0  0
   35.7220   29.4510   51.2910 O   0  0  0  0  0  0  0  0  0  0  0  0
   34.6950   30.5340   49.1500 O   0  0  0  0  0  0  0  0  0  0  0  0
   34.4910   29.3840   50.1250 P   0  0  2  0  0  0  0  0  0  0  0  0
   32.9750   29.6390   50.8120 O   0  0  0  0  0  0  0  0  0  0  0  0
   34.4970   27.9090   49.3310 O   0  0  0  0  0  0  0  0  0  0  0  0
   33.4530   27.6460   48.4490 C   0  0  0  0  0  0  0  0  0  0  0  0
   33.7650   27.1570   47.1740 C   0  0  0  0  0  0  0  0  0  0  0  0
   32.7830   26.8670   46.2290 C   0  0  0  0  0  0  0  0  0  0  0  0
   31.5230   27.0910   46.6290 N   0  0  0  0  0  0  0  0  0  0  0  0
   31.1720   27.5600   47.8410 C   0  0  0  0  0  0  0  0  0  0  0  0
   32.1370   27.8380   48.7530 N   0  0  0  0  0  0  0  0  0  0  0  0
   36.8551   29.0297   49.6414 H   0  0  0  0  0  0  0  0  0  0  0  0
   37.4974   28.4346   51.2048 H   0  0  0  0  0  0  0  0  0  0  0  0
   37.1758   31.2237   51.4631 H   0  0  0  0  0  0  0  0  0  0  0  0
   38.7161   30.2282   51.3279 H   0  0  0  0  0  0  0  0  0  0  0  0
   38.6541   33.0856   50.4602 H   0  0  0  0  0  0  0  0  0  0  0  0
   39.2213   34.0774   48.1845 H   0  0  0  0  0  0  0  0  0  0  0  0
   38.1733   30.3130   46.3867 H   0  0  0  0  0  0  0  0  0  0  0  0
   33.0534   29.6258   51.7988 H   0  0  0  0  0  0  0  0  0  0  0  0
   34.8207   26.9965   46.9099 H   0  0  0  0  0  0  0  0  0  0  0  0
   33.0240   26.4821   45.2271 H   0  0  0  0  0  0  0  0  0  0  0  0
   30.1120   27.7165   48.0897 H   0  0  0  0  0  0  0  0  0  0  0  0
  1  2  1  0
  1  9  1  0
  3  2  1  0
  4  3  2  0
  5  4  1  0
  6  7  1  0
  6  5  2  0
  7  8  2  0
  8  3  1  0
 11 10  2  0
 11 12  1  0
 11  9  1  0
 13 11  1  0
 14 19  1  0
 14 13  1  0
 15 14  2  0
 16 17  2  0
 16 15  1  0
 17 18  1  0
 18 19  2  0
  1 20  1  0
  1 21  1  0
  2 22  1  0
  2 23  1  0
  4 24  1  0
  5 25  1  0
  7 26  1  0
 12 27  1  0
 15 28  1  0
 16 29  1  0
 18 30  1  0
M  ISO  8  20   8  21   8  22   8  23   8  24  14  25  14  26  14  27   3
M  ISO  3  28  14  29  14  30  14
M  END
>  <minimizedAffinity>  (1) 
-5.21784925

>  <minimizedRMSD>  (1) 
1.13327706

$$$$
