
     RDKit          3D

 16 16  0  0  0  0  0  0  0  0999 V2000
   37.3370   30.1510   51.3610 C   0  0  0  0  0  0  0  0  0  0  0  0
   38.0050   30.5120   50.1790 C   0  0  0  0  0  0  0  0  0  0  0  0
   37.4260   30.1520   48.9620 C   0  0  0  0  0  0  0  0  0  0  0  0
   36.2400   29.4680   48.9950 N   0  0  0  0  0  0  0  0  0  0  0  0
   35.6350   29.1420   50.1510 C   0  0  0  0  0  0  0  0  0  0  0  0
   36.1800   29.4820   51.3260 N   0  0  0  0  0  0  0  0  0  0  0  0
   37.8570   30.3730   47.6880 O   0  0  0  0  0  0  0  0  0  0  0  0
   39.0610   32.7330   48.1370 O   0  0  0  0  0  0  0  0  0  0  0  0
   38.6930   31.7180   47.1020 P   0  0  0  0  0  0  0  0  0  0  0  0
   37.8270   32.4620   45.8450 O   0  0  0  0  0  0  0  0  0  0  0  0
   40.1590   31.1790   46.4070 O   0  0  0  0  0  0  0  0  0  0  0  0
   37.7739   30.4237   52.3330 H   0  0  0  0  0  0  0  0  0  0  0  0
   38.9568   31.0624   50.2122 H   0  0  0  0  0  0  0  0  0  0  0  0
   34.6833   28.5908   50.1312 H   0  0  0  0  0  0  0  0  0  0  0  0
   37.1346   33.0568   46.2283 H   0  0  0  0  0  0  0  0  0  0  0  0
   40.7981   30.9440   47.1256 H   0  0  0  0  0  0  0  0  0  0  0  0
  2  1  2  0
  3  4  2  0
  3  2  1  0
  4  5  1  0
  5  6  2  0
  6  1  1  0
  7  3  1  0
  9  7  1  0
  9  8  2  0
 10  9  1  0
 11  9  1  0
  1 12  1  0
  2 13  1  0
  5 14  1  0
 10 15  1  0
 11 16  1  0
M  ISO  5  12  14  13  14  14  14  15   3  16   3
M  END
>  <minimizedAffinity>  (1) 
-4.55499983

>  <minimizedRMSD>  (1) 
1.14043641

$$$$
