
     RDKit          3D

 37 40  0  0  1  0  0  0  0  0999 V2000
   37.2230   29.6730   50.6010 C   0  0  0  0  0  0  0  0  0  0  0  0
   37.5390   30.9900   50.2820 C   0  0  0  0  0  0  0  0  0  0  0  0
   36.8830   31.5620   49.1830 C   0  0  0  0  0  0  0  0  0  0  0  0
   35.9860   30.8020   48.4990 N   0  0  0  0  0  0  0  0  0  0  0  0
   35.7090   29.5390   48.8370 C   0  0  0  0  0  0  0  0  0  0  0  0
   36.3360   28.9710   49.9000 N   0  0  0  0  0  0  0  0  0  0  0  0
   34.7780   28.7920   48.1020 N   0  0  0  0  0  0  0  0  0  0  0  0
   33.9640   27.7420   48.7140 C   0  0  0  0  0  0  0  0  0  0  0  0
   32.5300   28.0090   48.4870 C   0  0  0  0  0  0  0  0  0  0  0  0
   32.2030   28.8960   47.4600 N   0  0  0  0  0  0  0  0  0  0  0  0
   33.1080   29.2130   46.4300 C   0  0  0  0  0  0  0  0  0  0  0  0
   34.5590   28.9950   46.6930 C   0  0  1  0  0  0  0  0  0  0  0  0
   36.7830   30.2290   46.3030 C   0  0  0  0  0  0  0  0  0  0  0  0
   35.5020   29.8440   45.9930 C   0  0  0  0  0  0  0  0  0  0  0  0
   35.0050   30.3720   44.7940 C   0  0  0  0  0  0  0  0  0  0  0  0
   35.7750   31.2110   44.0150 C   0  0  0  0  0  0  0  0  0  0  0  0
   37.0430   31.5740   44.3530 C   0  0  0  0  0  0  0  0  0  0  0  0
   37.5460   31.0670   45.5230 C   0  0  0  0  0  0  0  0  0  0  0  0
   37.5370   32.4220   43.3630 O   0  0  0  0  0  0  0  0  0  0  0  0
   36.4480   32.9160   42.6050 C   0  0  0  0  0  0  0  0  0  0  0  0
   35.5010   31.8560   42.7930 O   0  0  0  0  0  0  0  0  0  0  0  0
   37.7215   29.1977   51.4587 H   0  0  0  0  0  0  0  0  0  0  0  0
   38.2744   31.5598   50.8689 H   0  0  0  0  0  0  0  0  0  0  0  0
   37.0886   32.5997   48.8813 H   0  0  0  0  0  0  0  0  0  0  0  0
   34.2277   26.7717   48.2678 H   0  0  0  0  0  0  0  0  0  0  0  0
   34.1580   27.7236   49.7966 H   0  0  0  0  0  0  0  0  0  0  0  0
   32.0457   27.0475   48.2612 H   0  0  0  0  0  0  0  0  0  0  0  0
   32.1827   28.4998   49.4081 H   0  0  0  0  0  0  0  0  0  0  0  0
   31.3672   28.5081   46.9997 H   0  0  0  0  0  0  0  0  0  0  0  0
   32.9736   30.2782   46.1905 H   0  0  0  0  0  0  0  0  0  0  0  0
   32.8634   28.5118   45.6186 H   0  0  0  0  0  0  0  0  0  0  0  0
   34.8298   28.0566   46.1869 H   0  0  0  0  0  0  0  0  0  0  0  0
   37.2268   29.8435   47.2328 H   0  0  0  0  0  0  0  0  0  0  0  0
   33.9863   30.1139   44.4691 H   0  0  0  0  0  0  0  0  0  0  0  0
   38.5655   31.3317   45.8401 H   0  0  0  0  0  0  0  0  0  0  0  0
   36.7137   33.0407   41.5449 H   0  0  0  0  0  0  0  0  0  0  0  0
   36.0905   33.9111   42.9084 H   0  0  0  0  0  0  0  0  0  0  0  0
  2  1  2  0
  3  2  1  0
  4  5  1  0
  4  3  2  0
  5  6  2  0
  6  1  1  0
  7  8  1  0
  7  5  1  0
  9  8  1  0
 10  9  1  0
 11 12  1  0
 11 10  1  0
 12  7  1  0
 14 13  2  0
 14 12  1  0
 15 14  1  0
 16 17  1  0
 16 15  2  0
 17 18  2  0
 18 13  1  0
 19 17  1  0
 20 21  1  0
 20 19  1  0
 21 16  1  0
  1 22  1  0
  2 23  1  0
  3 24  1  0
  8 25  1  0
  8 26  1  0
  9 27  1  0
  9 28  1  0
 10 29  1  0
 11 30  1  0
 11 31  1  0
 12 32  1  6
 13 33  1  0
 15 34  1  0
 18 35  1  0
 20 36  1  0
 20 37  1  0
M  ISO  8  22  14  23  14  24  14  25  13  26  13  27  13  28  13  29   5
M  ISO  8  30  13  31  13  32  13  33  14  34  14  35  14  36  13  37  13
M  END
>  <minimizedAffinity>  (1) 
-5.1602788

>  <minimizedRMSD>  (1) 
0.761466801

$$$$
