
     RDKit          3D

 27 28  0  0  1  0  0  0  0  0999 V2000
   37.2510   29.2680   50.3900 C   0  0  0  0  0  0  0  0  0  0  0  0
   37.3390   30.6010   50.7840 C   0  0  0  0  0  0  0  0  0  0  0  0
   36.5280   31.5440   50.1160 C   0  0  0  0  0  0  0  0  0  0  0  0
   35.7150   31.0900   49.1290 N   0  0  0  0  0  0  0  0  0  0  0  0
   35.6640   29.7860   48.7800 C   0  0  0  0  0  0  0  0  0  0  0  0
   36.4320   28.8880   49.4150 N   0  0  0  0  0  0  0  0  0  0  0  0
   34.7960   29.3650   47.7430 N   0  0  0  0  0  0  0  0  0  0  0  0
   34.1850   28.0340   47.7570 C   0  0  0  0  0  0  0  0  0  0  0  0
   32.7240   28.1680   47.6050 C   0  0  0  0  0  0  0  0  0  0  0  0
   32.2130   29.3860   47.1700 N   0  0  0  0  0  0  0  0  0  0  0  0
   33.0220   30.2750   46.4350 C   0  0  0  0  0  0  0  0  0  0  0  0
   34.4890   30.2570   46.6300 C   0  0  2  0  0  0  0  0  0  0  0  0
   35.2100   29.8140   45.3620 C   0  0  0  0  0  0  0  0  0  0  0  0
   36.5910   29.8590   45.5180 F   0  0  0  0  0  0  0  0  0  0  0  0
   34.8620   28.5510   44.9880 F   0  0  0  0  0  0  0  0  0  0  0  0
   34.9430   30.7210   44.3340 F   0  0  0  0  0  0  0  0  0  0  0  0
   37.8721   28.5144   50.8963 H   0  0  0  0  0  0  0  0  0  0  0  0
   38.0197   30.9097   51.5911 H   0  0  0  0  0  0  0  0  0  0  0  0
   36.5543   32.6099   50.3863 H   0  0  0  0  0  0  0  0  0  0  0  0
   34.5877   27.4358   46.9264 H   0  0  0  0  0  0  0  0  0  0  0  0
   34.4125   27.5335   48.7098 H   0  0  0  0  0  0  0  0  0  0  0  0
   32.4007   27.4034   46.8833 H   0  0  0  0  0  0  0  0  0  0  0  0
   32.3350   28.0617   48.6284 H   0  0  0  0  0  0  0  0  0  0  0  0
   31.3974   29.1706   46.5790 H   0  0  0  0  0  0  0  0  0  0  0  0
   32.6798   31.2923   46.6757 H   0  0  0  0  0  0  0  0  0  0  0  0
   32.8957   29.9392   45.3951 H   0  0  0  0  0  0  0  0  0  0  0  0
   34.8407   31.2737   46.8593 H   0  0  0  0  0  0  0  0  0  0  0  0
  1  2  2  0
  3  2  1  0
  4  3  2  0
  5  4  1  0
  5  6  2  0
  6  1  1  0
  7  8  1  0
  7  5  1  0
  9  8  1  0
 10  9  1  0
 11 12  1  0
 11 10  1  0
 12  7  1  0
 13 14  1  0
 13 12  1  0
 15 13  1  0
 16 13  1  0
  1 17  1  0
  2 18  1  0
  3 19  1  0
  8 20  1  0
  8 21  1  0
  9 22  1  0
  9 23  1  0
 10 24  1  0
 11 25  1  0
 11 26  1  0
 12 27  1  1
M  ISO  8  17  14  18  14  19  14  20  13  21  13  22  13  23  13  24   5
M  ISO  3  25  13  26  13  27  13
M  END
>  <minimizedAffinity>  (1) 
-4.22863293

>  <minimizedRMSD>  (1) 
0.88017875

$$$$
