
     RDKit          3D

 30 31  0  0  1  0  0  0  0  0999 V2000
   37.2340   29.2430   50.5290 C   0  0  0  0  0  0  0  0  0  0  0  0
   37.3740   30.5930   50.8670 C   0  0  0  0  0  0  0  0  0  0  0  0
   36.6160   31.5210   50.1310 C   0  0  0  0  0  0  0  0  0  0  0  0
   35.8080   31.0330   49.1520 N   0  0  0  0  0  0  0  0  0  0  0  0
   35.7000   29.7300   48.8560 C   0  0  0  0  0  0  0  0  0  0  0  0
   36.4190   28.8370   49.5510 N   0  0  0  0  0  0  0  0  0  0  0  0
   34.8420   29.3070   47.8270 N   0  0  0  0  0  0  0  0  0  0  0  0
   34.2000   27.9890   47.8540 C   0  0  0  0  0  0  0  0  0  0  0  0
   32.7290   28.1590   47.6980 C   0  0  0  0  0  0  0  0  0  0  0  0
   32.2640   29.3870   47.2070 N   0  0  0  0  0  0  0  0  0  0  0  0
   33.1170   30.2150   46.4380 C   0  0  0  0  0  0  0  0  0  0  0  0
   34.5600   30.1630   46.6990 C   0  0  2  0  0  0  0  0  0  0  0  0
   35.3930   29.6850   45.5330 C   0  0  0  0  0  0  0  0  0  0  0  0
   36.6320   30.5050   45.3270 C   0  0  0  0  0  0  0  0  0  0  0  0
   37.8132   28.4917   51.0859 H   0  0  0  0  0  0  0  0  0  0  0  0
   38.0483   30.9151   51.6742 H   0  0  0  0  0  0  0  0  0  0  0  0
   36.6743   32.5996   50.3390 H   0  0  0  0  0  0  0  0  0  0  0  0
   34.5889   27.3731   47.0297 H   0  0  0  0  0  0  0  0  0  0  0  0
   34.4156   27.4918   48.8113 H   0  0  0  0  0  0  0  0  0  0  0  0
   32.3788   27.3759   47.0094 H   0  0  0  0  0  0  0  0  0  0  0  0
   32.3319   28.1004   48.7221 H   0  0  0  0  0  0  0  0  0  0  0  0
   31.4434   29.1801   46.6199 H   0  0  0  0  0  0  0  0  0  0  0  0
   32.7943   31.2541   46.5999 H   0  0  0  0  0  0  0  0  0  0  0  0
   33.0135   29.8317   45.4121 H   0  0  0  0  0  0  0  0  0  0  0  0
   34.8427   31.2068   46.9003 H   0  0  0  0  0  0  0  0  0  0  0  0
   35.6890   28.6417   45.7172 H   0  0  0  0  0  0  0  0  0  0  0  0
   34.7782   29.7815   44.6260 H   0  0  0  0  0  0  0  0  0  0  0  0
   37.0536   30.7841   46.3039 H   0  0  0  0  0  0  0  0  0  0  0  0
   37.3712   29.9172   44.7630 H   0  0  0  0  0  0  0  0  0  0  0  0
   36.3798   31.4151   44.7630 H   0  0  0  0  0  0  0  0  0  0  0  0
  1  2  2  0
  3  2  1  0
  4  3  2  0
  5  4  1  0
  5  6  2  0
  6  1  1  0
  7  8  1  0
  7  5  1  0
  9  8  1  0
 10  9  1  0
 11 12  1  0
 11 10  1  0
 12  7  1  0
 13 12  1  0
 14 13  1  0
  1 15  1  0
  2 16  1  0
  3 17  1  0
  8 18  1  0
  8 19  1  0
  9 20  1  0
  9 21  1  0
 10 22  1  0
 11 23  1  0
 11 24  1  0
 12 25  1  1
 13 26  1  0
 13 27  1  0
 14 28  1  0
 14 29  1  0
 14 30  1  0
M  ISO  8  15  14  16  14  17  14  18  13  19  13  20  13  21  13  22   5
M  ISO  8  23  13  24  13  25  13  26   8  27   8  28   8  29   8  30   8
M  END
>  <minimizedAffinity>  (1) 
-4.2027421

>  <minimizedRMSD>  (1) 
0.62320447

$$$$
