
     RDKit          3D

 25 26  0  0  1  0  0  0  0  0999 V2000
   37.0820   30.2380   50.8470 S   0  0  0  0  0  0  0  0  0  0  0  0
   37.7790   30.9270   49.3510 C   0  0  0  0  0  0  0  0  0  0  0  0
   38.2550   32.2400   49.5670 C   0  0  0  0  0  0  0  0  0  0  0  0
   38.8270   32.9000   48.4770 C   0  0  0  0  0  0  0  0  0  0  0  0
   38.8960   32.2500   47.2780 N   0  0  0  0  0  0  0  0  0  0  0  0
   38.4270   30.9980   47.1250 C   0  0  0  0  0  0  0  0  0  0  0  0
   37.8720   30.3450   48.1620 N   0  0  0  0  0  0  0  0  0  0  0  0
   35.7930   28.4330   49.4480 N   0  0  0  0  0  0  0  0  0  0  0  0
   35.5260   29.3470   50.5130 C   0  0  2  0  0  0  0  0  0  0  0  0
   34.4060   30.2970   50.2580 C   0  0  0  0  0  0  0  0  0  0  0  0
   34.1920   30.6380   48.8890 N   0  0  0  0  0  0  0  0  0  0  0  0
   34.3480   29.5640   47.9570 C   0  0  0  0  0  0  0  0  0  0  0  0
   34.6540   28.2420   48.6050 C   0  0  0  0  0  0  0  0  0  0  0  0
   38.1782   32.7222   50.5527 H   0  0  0  0  0  0  0  0  0  0  0  0
   39.2146   33.9240   48.5824 H   0  0  0  0  0  0  0  0  0  0  0  0
   38.4980   30.5047   46.1444 H   0  0  0  0  0  0  0  0  0  0  0  0
   36.5685   28.8025   48.8798 H   0  0  0  0  0  0  0  0  0  0  0  0
   35.1831   28.7696   51.3842 H   0  0  0  0  0  0  0  0  0  0  0  0
   33.4812   29.8425   50.6430 H   0  0  0  0  0  0  0  0  0  0  0  0
   34.6822   31.2339   50.7640 H   0  0  0  0  0  0  0  0  0  0  0  0
   33.2322   31.0005   48.7982 H   0  0  0  0  0  0  0  0  0  0  0  0
   35.1721   29.8146   47.2729 H   0  0  0  0  0  0  0  0  0  0  0  0
   33.3876   29.4508   47.4328 H   0  0  0  0  0  0  0  0  0  0  0  0
   33.7940   27.9091   49.2046 H   0  0  0  0  0  0  0  0  0  0  0  0
   34.8581   27.4743   47.8441 H   0  0  0  0  0  0  0  0  0  0  0  0
  2  3  2  0
  2  1  1  0
  4  3  1  0
  5  4  2  0
  6  5  1  0
  6  7  2  0
  7  2  1  0
  8  9  1  0
  9  1  1  0
 10  9  1  0
 11 10  1  0
 12 13  1  0
 12 11  1  0
 13  8  1  0
  3 14  1  0
  4 15  1  0
  6 16  1  0
  8 17  1  0
  9 18  1  1
 10 19  1  0
 10 20  1  0
 11 21  1  0
 12 22  1  0
 12 23  1  0
 13 24  1  0
 13 25  1  0
M  ISO  8  14  14  15  14  16  14  17   5  18  13  19  13  20  13  21   5
M  ISO  4  22  13  23  13  24  13  25  13
M  END
>  <minimizedAffinity>  (1) 
-4.20451546

>  <minimizedRMSD>  (1) 
2.73353601

$$$$
