
     RDKit          3D

 14 14  0  0  0  0  0  0  0  0999 V2000
   36.1890   29.6790   48.2940 C   0  0  0  0  0  0  0  0  0  0  0  0
   37.2650   30.3520   47.6630 C   0  0  0  0  0  0  0  0  0  0  0  0
   37.0730   30.7760   46.3440 C   0  0  0  0  0  0  0  0  0  0  0  0
   35.8700   30.5150   45.7500 N   0  0  0  0  0  0  0  0  0  0  0  0
   34.8900   29.8760   46.3940 C   0  0  0  0  0  0  0  0  0  0  0  0
   35.0340   29.4580   47.6520 N   0  0  0  0  0  0  0  0  0  0  0  0
   36.6110   29.2120   49.9610 S   0  0  0  0  0  0  0  0  0  0  0  0
   37.3270   30.6410   50.8440 C   0  0  0  0  0  0  0  0  0  0  0  0
   38.6370   30.8640   50.4620 F   0  0  0  0  0  0  0  0  0  0  0  0
   36.6210   31.8050   50.5940 F   0  0  0  0  0  0  0  0  0  0  0  0
   37.3100   30.4360   52.2020 F   0  0  0  0  0  0  0  0  0  0  0  0
   38.2135   30.5337   48.1897 H   0  0  0  0  0  0  0  0  0  0  0  0
   37.8688   31.3053   45.7994 H   0  0  0  0  0  0  0  0  0  0  0  0
   33.9392   29.6896   45.8731 H   0  0  0  0  0  0  0  0  0  0  0  0
  1  7  1  0
  2  1  2  0
  3  2  1  0
  4  3  2  0
  4  5  1  0
  5  6  2  0
  6  1  1  0
  7  8  1  0
  8 11  1  0
  9  8  1  0
 10  8  1  0
  2 12  1  0
  3 13  1  0
  5 14  1  0
M  ISO  3  12  14  13  14  14  14
M  END
>  <minimizedAffinity>  (1) 
-3.84793663

>  <minimizedRMSD>  (1) 
1.80386674

$$$$
