
     RDKit          3D

 17 17  0  0  0  0  0  0  0  0999 V2000
   37.8410   30.6200   49.2310 C   0  0  0  0  0  0  0  0  0  0  0  0
   38.2420   31.8930   49.7160 C   0  0  0  0  0  0  0  0  0  0  0  0
   38.6990   32.8320   48.7960 C   0  0  0  0  0  0  0  0  0  0  0  0
   38.7350   32.4680   47.4630 N   0  0  0  0  0  0  0  0  0  0  0  0
   38.3480   31.2610   47.0480 C   0  0  0  0  0  0  0  0  0  0  0  0
   37.9100   30.3600   47.9240 N   0  0  0  0  0  0  0  0  0  0  0  0
   37.2910   29.5460   50.5340 S   0  0  0  0  0  0  0  0  0  0  0  0
   35.5090   29.3490   50.5430 C   0  0  0  0  0  0  0  0  0  0  0  0
   34.9980   28.4660   49.4230 C   0  0  0  0  0  0  0  0  0  0  0  0
   38.1928   32.1303   50.7890 H   0  0  0  0  0  0  0  0  0  0  0  0
   39.0215   33.8326   49.1196 H   0  0  0  0  0  0  0  0  0  0  0  0
   38.3910   31.0094   45.9780 H   0  0  0  0  0  0  0  0  0  0  0  0
   35.2120   28.9020   51.5032 H   0  0  0  0  0  0  0  0  0  0  0  0
   35.0702   30.3471   50.3970 H   0  0  0  0  0  0  0  0  0  0  0  0
   34.4903   27.5887   49.8503 H   0  0  0  0  0  0  0  0  0  0  0  0
   34.2890   29.0339   48.8027 H   0  0  0  0  0  0  0  0  0  0  0  0
   35.8437   28.1342   48.8027 H   0  0  0  0  0  0  0  0  0  0  0  0
  1  2  2  0
  1  7  1  0
  3  2  1  0
  4  3  2  0
  5  4  1  0
  5  6  2  0
  6  1  1  0
  7  8  1  0
  9  8  1  0
  2 10  1  0
  3 11  1  0
  5 12  1  0
  8 13  1  0
  8 14  1  0
  9 15  1  0
  9 16  1  0
  9 17  1  0
M  ISO  8  10  14  11  14  12  14  13   8  14   8  15   8  16   8  17   8
M  END
>  <minimizedAffinity>  (1) 
-3.54988527

>  <minimizedRMSD>  (1) 
2.38426685

$$$$
