
     RDKit          3D

 26 27  0  0  0  0  0  0  0  0999 V2000
   37.2890   30.5930   50.5290 S   0  0  0  0  0  0  0  0  0  0  0  0
   38.1290   31.5210   49.2350 C   0  0  0  0  0  0  0  0  0  0  0  0
   38.4720   32.8120   49.6540 C   0  0  0  0  0  0  0  0  0  0  0  0
   39.1280   33.6250   48.7310 C   0  0  0  0  0  0  0  0  0  0  0  0
   39.4050   33.1370   47.4770 N   0  0  0  0  0  0  0  0  0  0  0  0
   39.0450   31.8860   47.1460 C   0  0  0  0  0  0  0  0  0  0  0  0
   38.4170   31.0820   48.0010 N   0  0  0  0  0  0  0  0  0  0  0  0
   36.4730   29.2010   49.7220 C   0  0  0  0  0  0  0  0  0  0  0  0
   35.0910   29.5030   49.4400 N   0  0  0  0  0  0  0  0  0  0  0  0
   34.2150   28.3600   49.5230 C   0  0  0  0  0  0  0  0  0  0  0  0
   34.1230   27.9350   48.0700 C   0  0  0  0  0  0  0  0  0  0  0  0
   33.8410   29.2940   47.4390 C   0  0  0  0  0  0  0  0  0  0  0  0
   34.9500   30.0910   48.1330 C   0  0  0  0  0  0  0  0  0  0  0  0
   38.2343   33.1691   50.6669 H   0  0  0  0  0  0  0  0  0  0  0  0
   39.4215   34.6492   49.0046 H   0  0  0  0  0  0  0  0  0  0  0  0
   39.2764   31.5143   46.1369 H   0  0  0  0  0  0  0  0  0  0  0  0
   36.9921   28.9780   48.7781 H   0  0  0  0  0  0  0  0  0  0  0  0
   36.5108   28.3337   50.3976 H   0  0  0  0  0  0  0  0  0  0  0  0
   34.6511   27.5653   50.1461 H   0  0  0  0  0  0  0  0  0  0  0  0
   33.2414   28.5771   49.9866 H   0  0  0  0  0  0  0  0  0  0  0  0
   35.0660   27.5000   47.7074 H   0  0  0  0  0  0  0  0  0  0  0  0
   33.3825   27.1510   47.8533 H   0  0  0  0  0  0  0  0  0  0  0  0
   33.9621   29.2781   46.3458 H   0  0  0  0  0  0  0  0  0  0  0  0
   32.8191   29.6806   47.5663 H   0  0  0  0  0  0  0  0  0  0  0  0
   35.8919   30.0075   47.5710 H   0  0  0  0  0  0  0  0  0  0  0  0
   34.7046   31.1616   48.1931 H   0  0  0  0  0  0  0  0  0  0  0  0
  2  3  2  0
  2  1  1  0
  4  3  1  0
  5  4  2  0
  6  5  1  0
  6  7  2  0
  7  2  1  0
  8  1  1  0
  9 10  1  0
  9  8  1  0
 11 10  1  0
 12 11  1  0
 12 13  1  0
 13  9  1  0
  3 14  1  0
  4 15  1  0
  6 16  1  0
  8 17  1  0
  8 18  1  0
 10 19  1  0
 10 20  1  0
 11 21  1  0
 11 22  1  0
 12 23  1  0
 12 24  1  0
 13 25  1  0
 13 26  1  0
M  ISO  8  14  14  15  14  16  14  17   8  18   8  19  13  20  13  21  13
M  ISO  5  22  13  23  13  24  13  25  13  26  13
M  END
>  <minimizedAffinity>  (1) 
-4.1408143

>  <minimizedRMSD>  (1) 
2.45409894

$$$$
