
     RDKit          3D

 21 22  0  0  0  0  0  0  0  0999 V2000
   37.8420   30.6160   49.2970 C   0  0  0  0  0  0  0  0  0  0  0  0
   38.2400   31.8660   49.7810 C   0  0  0  0  0  0  0  0  0  0  0  0
   38.6750   32.7970   48.8080 C   0  0  0  0  0  0  0  0  0  0  0  0
   38.6840   32.4480   47.4990 N   0  0  0  0  0  0  0  0  0  0  0  0
   38.2860   31.2260   47.1030 C   0  0  0  0  0  0  0  0  0  0  0  0
   37.8750   30.3410   48.0020 N   0  0  0  0  0  0  0  0  0  0  0  0
   37.3190   29.5350   50.6250 S   0  0  0  0  0  0  0  0  0  0  0  0
   35.5260   29.3880   50.5060 C   0  0  0  0  0  0  0  0  0  0  0  0
   35.0900   28.4510   49.4300 C   0  0  0  0  0  0  0  0  0  0  0  0
   33.6340   28.2840   49.1270 C   0  0  0  0  0  0  0  0  0  0  0  0
   34.4700   29.1050   48.2130 C   0  0  0  0  0  0  0  0  0  0  0  0
   38.2164   32.1109   50.8531 H   0  0  0  0  0  0  0  0  0  0  0  0
   39.0048   33.8009   49.1136 H   0  0  0  0  0  0  0  0  0  0  0  0
   38.3012   30.9606   46.0356 H   0  0  0  0  0  0  0  0  0  0  0  0
   35.1393   29.0215   51.4684 H   0  0  0  0  0  0  0  0  0  0  0  0
   35.1292   30.3834   50.2574 H   0  0  0  0  0  0  0  0  0  0  0  0
   35.9042   27.7427   49.6428 H   0  0  0  0  0  0  0  0  0  0  0  0
   33.2534   27.3080   48.7917 H   0  0  0  0  0  0  0  0  0  0  0  0
   32.7040   28.4586   49.6879 H   0  0  0  0  0  0  0  0  0  0  0  0
   34.7114   28.7343   47.2059 H   0  0  0  0  0  0  0  0  0  0  0  0
   34.4185   30.1319   47.8220 H   0  0  0  0  0  0  0  0  0  0  0  0
  1  2  2  0
  1  7  1  0
  3  2  1  0
  4  3  2  0
  5  4  1  0
  5  6  2  0
  6  1  1  0
  8  7  1  0
  9  8  1  0
 10  9  1  0
 11 10  1  0
 11  9  1  0
  2 12  1  0
  3 13  1  0
  5 14  1  0
  8 15  1  0
  8 16  1  0
  9 17  1  0
 10 18  1  0
 10 19  1  0
 11 20  1  0
 11 21  1  0
M  ISO  8  12  14  13  14  14  14  15   8  16   8  17  13  18  13  19  13
M  ISO  2  20  13  21  13
M  END
>  <minimizedAffinity>  (1) 
-4.08456898

>  <minimizedRMSD>  (1) 
1.90214896

$$$$
