
     RDKit          3D

 16 16  0  0  0  0  0  0  0  0999 V2000
   37.3310   30.8150   49.2360 C   0  0  0  0  0  0  0  0  0  0  0  0
   38.1850   31.8760   49.5490 C   0  0  0  0  0  0  0  0  0  0  0  0
   38.7000   32.6310   48.4810 C   0  0  0  0  0  0  0  0  0  0  0  0
   38.3510   32.3070   47.2080 N   0  0  0  0  0  0  0  0  0  0  0  0
   37.5170   31.2620   46.9850 C   0  0  0  0  0  0  0  0  0  0  0  0
   37.0080   30.5200   47.9700 N   0  0  0  0  0  0  0  0  0  0  0  0
   36.7860   29.9710   50.7190 S   0  0  0  0  0  0  0  0  0  0  0  0
   35.0980   29.4220   50.4060 C   0  0  0  0  0  0  0  0  0  0  0  0
   34.3600   30.4300   49.6570 N   0  0  0  0  0  0  0  0  0  0  0  0
   38.4444   32.1114   50.5917 H   0  0  0  0  0  0  0  0  0  0  0  0
   39.3784   33.4752   48.6735 H   0  0  0  0  0  0  0  0  0  0  0  0
   37.2483   31.0151   45.9473 H   0  0  0  0  0  0  0  0  0  0  0  0
   35.1237   28.4878   49.8259 H   0  0  0  0  0  0  0  0  0  0  0  0
   34.5945   29.2583   51.3702 H   0  0  0  0  0  0  0  0  0  0  0  0
   33.8911   31.0705   50.3133 H   0  0  0  0  0  0  0  0  0  0  0  0
   35.0121   30.9629   49.0640 H   0  0  0  0  0  0  0  0  0  0  0  0
  1  2  2  0
  1  7  1  0
  3  2  1  0
  4  3  2  0
  5  4  1  0
  5  6  2  0
  6  1  1  0
  8  7  1  0
  9  8  1  0
  2 10  1  0
  3 11  1  0
  5 12  1  0
  8 13  1  0
  8 14  1  0
  9 15  1  0
  9 16  1  0
M  ISO  7  10  14  11  14  12  14  13   8  14   8  15   5  16   5
M  END
>  <minimizedAffinity>  (1) 
-3.36152768

>  <minimizedRMSD>  (1) 
1.523211

$$$$
