
     RDKit          3D

 12 12  0  0  0  0  0  0  0  0999 V2000
   37.3000   30.2220   51.4490 C   0  0  0  0  0  0  0  0  0  0  0  0
   38.1150   30.7510   50.4280 C   0  0  0  0  0  0  0  0  0  0  0  0
   37.7960   30.4110   49.1130 C   0  0  0  0  0  0  0  0  0  0  0  0
   36.7310   29.5960   48.8810 N   0  0  0  0  0  0  0  0  0  0  0  0
   35.9760   29.1110   49.8860 C   0  0  0  0  0  0  0  0  0  0  0  0
   36.2610   29.4220   51.1580 N   0  0  0  0  0  0  0  0  0  0  0  0
   38.6300   30.9540   48.0990 N   0  0  0  0  0  0  0  0  0  0  0  0
   37.5179   30.4677   52.4988 H   0  0  0  0  0  0  0  0  0  0  0  0
   38.9683   31.4057   50.6587 H   0  0  0  0  0  0  0  0  0  0  0  0
   35.1211   28.4563   49.6612 H   0  0  0  0  0  0  0  0  0  0  0  0
   38.4441   30.7385   47.1091 H   0  0  0  0  0  0  0  0  0  0  0  0
   39.4205   31.5632   48.3538 H   0  0  0  0  0  0  0  0  0  0  0  0
  2  1  2  0
  3  2  1  0
  4  3  2  0
  4  5  1  0
  5  6  2  0
  6  1  1  0
  7  3  1  0
  1  8  1  0
  2  9  1  0
  5 10  1  0
  7 11  1  0
  7 12  1  0
M  ISO  3   8  14   9  14  10  14
M  END
>  <minimizedAffinity>  (1) 
-3.41245246

>  <minimizedRMSD>  (1) 
0.140805498

$$$$
