
     RDKit          3D

 25 26  0  0  0  0  0  0  0  0999 V2000
   34.0240   30.2790   47.3770 C   0  0  0  0  0  0  0  0  0  0  0  0
   35.8230   30.2080   47.2260 S   0  0  0  0  0  0  0  0  0  0  0  0
   36.5100   30.2270   48.8720 C   0  0  0  0  0  0  0  0  0  0  0  0
   35.7890   29.5030   49.8260 C   0  0  0  0  0  0  0  0  0  0  0  0
   36.2840   29.4860   51.1240 C   0  0  0  0  0  0  0  0  0  0  0  0
   37.4520   30.1740   51.4190 N   0  0  0  0  0  0  0  0  0  0  0  0
   38.0940   30.8560   50.4340 C   0  0  0  0  0  0  0  0  0  0  0  0
   37.6390   30.8820   49.1980 N   0  0  0  0  0  0  0  0  0  0  0  0
   33.2070   29.2080   46.1430 S   0  0  0  0  0  0  0  0  0  0  0  0
   33.8200   26.7700   47.9310 Cl  0  0  0  0  0  0  0  0  0  0  0  0
   32.1870   27.3550   47.7240 C   0  0  0  0  0  0  0  0  0  0  0  0
   31.7850   28.4420   46.9440 C   0  0  0  0  0  0  0  0  0  0  0  0
   30.4610   28.8080   46.8630 C   0  0  0  0  0  0  0  0  0  0  0  0
   29.5200   28.0850   47.5620 C   0  0  0  0  0  0  0  0  0  0  0  0
   29.8810   27.0020   48.3450 C   0  0  0  0  0  0  0  0  0  0  0  0
   31.2210   26.6300   48.4310 C   0  0  0  0  0  0  0  0  0  0  0  0
   33.7364   29.9466   48.3854 H   0  0  0  0  0  0  0  0  0  0  0  0
   33.7031   31.3163   47.2008 H   0  0  0  0  0  0  0  0  0  0  0  0
   34.8658   28.9677   49.5594 H   0  0  0  0  0  0  0  0  0  0  0  0
   35.7537   28.9311   51.9120 H   0  0  0  0  0  0  0  0  0  0  0  0
   39.0185   31.4010   50.6755 H   0  0  0  0  0  0  0  0  0  0  0  0
   30.1578   29.6677   46.2474 H   0  0  0  0  0  0  0  0  0  0  0  0
   28.4606   28.3738   47.4968 H   0  0  0  0  0  0  0  0  0  0  0  0
   29.1141   26.4382   48.8963 H   0  0  0  0  0  0  0  0  0  0  0  0
   31.5179   25.7713   49.0511 H   0  0  0  0  0  0  0  0  0  0  0  0
  2  1  1  0
  2  3  1  0
  3  8  1  0
  3  4  2  0
  4  5  1  0
  5  6  2  0
  7  6  1  0
  8  7  2  0
  9 12  1  0
  9  1  1  0
 11 10  1  0
 11 16  2  0
 12 11  1  0
 13 12  2  0
 13 14  1  0
 14 15  2  0
 15 16  1  0
  1 17  1  0
  1 18  1  0
  4 19  1  0
  5 20  1  0
  7 21  1  0
 13 22  1  0
 14 23  1  0
 15 24  1  0
 16 25  1  0
M  ISO  8  17   8  18   8  19  14  20  14  21  14  22  14  23  14  24  14
M  ISO  1  25  14
M  END
>  <minimizedAffinity>  (1) 
-4.116961

>  <minimizedRMSD>  (1) 
4.45024729

$$$$
