
     RDKit          3D

 30 31  0  0  0  0  0  0  0  0999 V2000
   35.5260   29.3800   50.6230 C   0  0  0  0  0  0  0  0  0  0  0  0
   37.3080   29.5250   50.6310 S   0  0  0  0  0  0  0  0  0  0  0  0
   37.8110   30.6170   49.3180 C   0  0  0  0  0  0  0  0  0  0  0  0
   38.2650   31.8740   49.7430 C   0  0  0  0  0  0  0  0  0  0  0  0
   38.6760   32.7820   48.7710 C   0  0  0  0  0  0  0  0  0  0  0  0
   38.6150   32.3970   47.4420 N   0  0  0  0  0  0  0  0  0  0  0  0
   38.1690   31.1730   47.1060 C   0  0  0  0  0  0  0  0  0  0  0  0
   37.7750   30.3010   48.0190 N   0  0  0  0  0  0  0  0  0  0  0  0
   34.9140   28.2330   49.3570 S   0  0  0  0  0  0  0  0  0  0  0  0
   33.8850   26.6850   46.8610 N   0  0  0  0  0  0  0  0  0  0  0  0
   33.8700   27.9260   46.1220 C   0  0  0  0  0  0  0  0  0  0  0  0
   34.0780   29.1420   46.9960 C   0  0  0  0  0  0  0  0  0  0  0  0
   33.5520   28.9020   48.4080 C   0  0  0  0  0  0  0  0  0  0  0  0
   32.3840   27.9500   48.3010 C   0  0  0  0  0  0  0  0  0  0  0  0
   32.8060   26.5810   47.8220 C   0  0  0  0  0  0  0  0  0  0  0  0
   35.1991   29.0200   51.6097 H   0  0  0  0  0  0  0  0  0  0  0  0
   35.1159   30.3743   50.3923 H   0  0  0  0  0  0  0  0  0  0  0  0
   38.2954   32.1344   50.8113 H   0  0  0  0  0  0  0  0  0  0  0  0
   39.0404   33.7812   49.0518 H   0  0  0  0  0  0  0  0  0  0  0  0
   38.1310   30.8900   46.0437 H   0  0  0  0  0  0  0  0  0  0  0  0
   34.7805   26.6148   47.3651 H   0  0  0  0  0  0  0  0  0  0  0  0
   34.6720   27.8947   45.3698 H   0  0  0  0  0  0  0  0  0  0  0  0
   32.8754   28.0204   45.6617 H   0  0  0  0  0  0  0  0  0  0  0  0
   35.1534   29.3677   47.0471 H   0  0  0  0  0  0  0  0  0  0  0  0
   33.5255   29.9857   46.5568 H   0  0  0  0  0  0  0  0  0  0  0  0
   33.1941   29.8132   48.9095 H   0  0  0  0  0  0  0  0  0  0  0  0
   31.9164   27.8502   49.2917 H   0  0  0  0  0  0  0  0  0  0  0  0
   31.6782   28.3626   47.5651 H   0  0  0  0  0  0  0  0  0  0  0  0
   31.9470   26.0836   47.3480 H   0  0  0  0  0  0  0  0  0  0  0  0
   33.1565   25.9966   48.6855 H   0  0  0  0  0  0  0  0  0  0  0  0
  1  2  1  0
  3  4  2  0
  3  2  1  0
  5  4  1  0
  6  5  2  0
  7  6  1  0
  7  8  2  0
  8  3  1  0
  9  1  1  0
 10 15  1  0
 11 10  1  0
 11 12  1  0
 12 13  1  0
 13  9  1  0
 14 13  1  0
 15 14  1  0
  1 16  1  0
  1 17  1  0
  4 18  1  0
  5 19  1  0
  7 20  1  0
 10 21  1  0
 11 22  1  0
 11 23  1  0
 12 24  1  0
 12 25  1  0
 13 26  1  0
 14 27  1  0
 14 28  1  0
 15 29  1  0
 15 30  1  0
M  ISO  8  16   8  17   8  18  14  19  14  20  14  21   5  22  13  23  13
M  ISO  7  24  13  25  13  26  13  27  13  28  13  29  13  30  13
M  END
>  <minimizedAffinity>  (1) 
-3.97819376

>  <minimizedRMSD>  (1) 
1.32251525

$$$$
