
     RDKit          3D

 25 26  0  0  0  0  0  0  0  0999 V2000
   35.1020   29.6780   49.4120 C   0  0  0  0  0  0  0  0  0  0  0  0
   36.8360   29.5330   49.9080 S   0  0  0  0  0  0  0  0  0  0  0  0
   37.7660   30.8000   49.0500 C   0  0  0  0  0  0  0  0  0  0  0  0
   37.9600   31.9730   49.7780 C   0  0  0  0  0  0  0  0  0  0  0  0
   38.6770   32.9740   49.1370 C   0  0  0  0  0  0  0  0  0  0  0  0
   39.1580   32.7990   47.8650 N   0  0  0  0  0  0  0  0  0  0  0  0
   38.9280   31.6300   47.2220 C   0  0  0  0  0  0  0  0  0  0  0  0
   38.2420   30.6500   47.8140 N   0  0  0  0  0  0  0  0  0  0  0  0
   34.9540   29.9410   47.6080 S   0  0  0  0  0  0  0  0  0  0  0  0
   31.2610   29.3530   46.0290 N   0  0  0  0  0  0  0  0  0  0  0  0
   32.3630   30.0410   46.3670 C   0  0  0  0  0  0  0  0  0  0  0  0
   33.3840   29.3660   47.0120 C   0  0  0  0  0  0  0  0  0  0  0  0
   33.2180   28.0030   47.2790 C   0  0  0  0  0  0  0  0  0  0  0  0
   34.0390   27.2320   47.8560 O   0  0  0  0  0  0  0  0  0  0  0  0
   32.0860   27.3380   46.9230 N   0  0  0  0  0  0  0  0  0  0  0  0
   31.1160   28.0460   46.2930 C   0  0  0  0  0  0  0  0  0  0  0  0
   30.0430   27.4760   45.9400 O   0  0  0  0  0  0  0  0  0  0  0  0
   34.5715   28.7539   49.6852 H   0  0  0  0  0  0  0  0  0  0  0  0
   34.6616   30.5433   49.9289 H   0  0  0  0  0  0  0  0  0  0  0  0
   37.5687   32.0978   50.7984 H   0  0  0  0  0  0  0  0  0  0  0  0
   38.8626   33.9244   49.6588 H   0  0  0  0  0  0  0  0  0  0  0  0
   39.3106   31.4863   46.2007 H   0  0  0  0  0  0  0  0  0  0  0  0
   30.4967   29.8483   45.5480 H   0  0  0  0  0  0  0  0  0  0  0  0
   32.4519   31.1131   46.1372 H   0  0  0  0  0  0  0  0  0  0  0  0
   31.9700   26.3346   47.1243 H   0  0  0  0  0  0  0  0  0  0  0  0
  1  2  1  0
  3  4  2  0
  3  2  1  0
  5  4  1  0
  6  5  2  0
  7  8  2  0
  7  6  1  0
  8  3  1  0
  9  1  1  0
 10 16  1  0
 10 11  1  0
 11 12  2  0
 12 13  1  0
 12  9  1  0
 13 14  2  0
 15 13  1  0
 16 15  1  0
 17 16  2  0
  1 18  1  0
  1 19  1  0
  4 20  1  0
  5 21  1  0
  7 22  1  0
 10 23  1  0
 11 24  1  0
 15 25  1  0
M  ISO  8  18   8  19   8  20  14  21  14  22  14  23   9  24  14  25   9
M  END
>  <minimizedAffinity>  (1) 
-3.94562435

>  <minimizedRMSD>  (1) 
4.33024931

$$$$
