
     RDKit          3D

 41 43  0  0  1  0  0  0  0  0999 V2000
   31.8390   26.8610   48.3470 C   0  0  1  0  0  0  0  0  0  0  0  0
   32.5600   28.1780   48.2510 C   0  0  2  0  0  0  0  0  0  0  0  0
   32.4980   28.6270   46.8290 C   0  0  0  0  0  0  0  0  0  0  0  0
   31.8330   27.7420   45.9950 O   0  0  0  0  0  0  0  0  0  0  0  0
   30.5220   27.5420   46.4090 C   0  0  0  0  0  0  0  0  0  0  0  0
   30.4160   27.0880   47.8450 C   0  0  2  0  0  0  0  0  0  0  0  0
   32.4050   25.9030   47.4850 O   0  0  0  0  0  0  0  0  0  0  0  0
   34.2630   28.0550   48.8450 S   0  0  0  0  0  0  0  0  0  0  0  0
   34.5840   29.3490   50.0710 C   0  0  0  0  0  0  0  0  0  0  0  0
   36.2870   29.4550   50.5900 S   0  0  0  0  0  0  0  0  0  0  0  0
   37.1440   30.6070   49.5300 C   0  0  0  0  0  0  0  0  0  0  0  0
   37.1990   31.9020   50.0190 C   0  0  0  0  0  0  0  0  0  0  0  0
   37.8510   32.8740   49.2550 C   0  0  0  0  0  0  0  0  0  0  0  0
   38.4010   32.4780   48.0570 N   0  0  0  0  0  0  0  0  0  0  0  0
   38.3100   31.1940   47.6410 C   0  0  0  0  0  0  0  0  0  0  0  0
   37.7020   30.2790   48.3480 N   0  0  0  0  0  0  0  0  0  0  0  0
   29.9210   28.1220   48.6200 O   0  0  0  0  0  0  0  0  0  0  0  0
   28.9820   27.8820   49.5960 C   0  0  0  0  0  0  0  0  0  0  0  0
   27.8020   28.5800   49.3150 C   0  0  0  0  0  0  0  0  0  0  0  0
   26.6950   28.4950   50.1670 C   0  0  0  0  0  0  0  0  0  0  0  0
   26.7590   27.7150   51.3030 C   0  0  0  0  0  0  0  0  0  0  0  0
   27.9310   27.0300   51.5660 C   0  0  0  0  0  0  0  0  0  0  0  0
   29.0250   27.1100   50.7300 C   0  0  0  0  0  0  0  0  0  0  0  0
   31.8920   26.5057   49.3867 H   0  0  0  0  0  0  0  0  0  0  0  0
   32.0727   28.9213   48.8992 H   0  0  0  0  0  0  0  0  0  0  0  0
   31.9783   29.5958   46.7928 H   0  0  0  0  0  0  0  0  0  0  0  0
   33.5345   28.6937   46.4669 H   0  0  0  0  0  0  0  0  0  0  0  0
   29.9723   28.4886   46.2998 H   0  0  0  0  0  0  0  0  0  0  0  0
   30.0983   26.7443   45.7812 H   0  0  0  0  0  0  0  0  0  0  0  0
   29.7758   26.1956   47.9066 H   0  0  0  0  0  0  0  0  0  0  0  0
   32.8285   25.1863   48.0208 H   0  0  0  0  0  0  0  0  0  0  0  0
   34.2949   30.3168   49.6354 H   0  0  0  0  0  0  0  0  0  0  0  0
   33.9958   29.0921   50.9643 H   0  0  0  0  0  0  0  0  0  0  0  0
   36.7406   32.1591   50.9853 H   0  0  0  0  0  0  0  0  0  0  0  0
   37.9219   33.9166   49.5984 H   0  0  0  0  0  0  0  0  0  0  0  0
   38.7615   30.9118   46.6784 H   0  0  0  0  0  0  0  0  0  0  0  0
   27.7438   29.2045   48.4113 H   0  0  0  0  0  0  0  0  0  0  0  0
   25.7748   29.0496   49.9311 H   0  0  0  0  0  0  0  0  0  0  0  0
   25.8981   27.6397   51.9835 H   0  0  0  0  0  0  0  0  0  0  0  0
   27.9926   26.4033   52.4679 H   0  0  0  0  0  0  0  0  0  0  0  0
   29.9399   26.5503   50.9742 H   0  0  0  0  0  0  0  0  0  0  0  0
  2  1  1  0
  2  8  1  0
  3  2  1  0
  4  5  1  0
  4  3  1  0
  5  6  1  0
  6  1  1  0
  6 17  1  0
  7  1  1  0
  8  9  1  0
  9 10  1  0
 11 12  2  0
 11 10  1  0
 13 12  1  0
 14 13  2  0
 15 14  1  0
 15 16  2  0
 16 11  1  0
 17 18  1  0
 18 23  1  0
 19 18  2  0
 19 20  1  0
 20 21  2  0
 21 22  1  0
 23 22  2  0
  1 24  1  1
  2 25  1  1
  3 26  1  0
  3 27  1  0
  5 28  1  0
  5 29  1  0
  6 30  1  6
  7 31  1  0
  9 32  1  0
  9 33  1  0
 12 34  1  0
 13 35  1  0
 15 36  1  0
 19 37  1  0
 20 38  1  0
 21 39  1  0
 22 40  1  0
 23 41  1  0
M  ISO  8  24  13  25  13  26  13  27  13  28  13  29  13  30  13  31   3
M  ISO  8  32   8  33   8  34  14  35  14  36  14  37  14  38  14  39  14
M  ISO  2  40  14  41  14
M  END
>  <minimizedAffinity>  (1) 
-5.88005447

>  <minimizedRMSD>  (1) 
1.36219215

$$$$
