
     RDKit          3D

 37 39  0  0  1  0  0  0  0  0999 V2000
   31.8900   26.8490   48.2940 C   0  0  1  0  0  0  0  0  0  0  0  0
   32.5900   28.1840   48.2680 C   0  0  2  0  0  0  0  0  0  0  0  0
   32.5300   28.7080   46.8710 C   0  0  0  0  0  0  0  0  0  0  0  0
   31.8880   27.8500   45.9910 O   0  0  0  0  0  0  0  0  0  0  0  0
   30.5750   27.6090   46.3810 C   0  0  0  0  0  0  0  0  0  0  0  0
   30.4710   27.0830   47.7920 C   0  0  2  0  0  0  0  0  0  0  0  0
   32.4830   25.9470   47.4010 O   0  0  0  0  0  0  0  0  0  0  0  0
   34.2940   28.0560   48.8640 S   0  0  0  0  0  0  0  0  0  0  0  0
   34.6560   29.4270   49.9900 C   0  0  0  0  0  0  0  0  0  0  0  0
   36.3690   29.5250   50.4900 S   0  0  0  0  0  0  0  0  0  0  0  0
   37.2330   30.6330   49.3810 C   0  0  0  0  0  0  0  0  0  0  0  0
   37.3810   31.9130   49.8760 C   0  0  0  0  0  0  0  0  0  0  0  0
   38.0540   32.8480   49.0590 C   0  0  0  0  0  0  0  0  0  0  0  0
   38.5160   32.4310   47.8310 N   0  0  0  0  0  0  0  0  0  0  0  0
   38.3260   31.1650   47.4330 C   0  0  0  0  0  0  0  0  0  0  0  0
   37.7010   30.2850   48.1840 N   0  0  0  0  0  0  0  0  0  0  0  0
   29.9520   28.0710   48.6140 O   0  0  0  0  0  0  0  0  0  0  0  0
   28.9690   27.8120   49.5800 C   0  0  0  0  0  0  0  0  0  0  0  0
   29.0090   26.9980   50.6980 C   0  0  0  0  0  0  0  0  0  0  0  0
   27.3270   27.2180   51.4190 S   0  0  0  0  0  0  0  0  0  0  0  0
   26.8670   28.4170   50.0200 C   0  0  0  0  0  0  0  0  0  0  0  0
   27.8230   28.4370   49.4060 N   0  0  0  0  0  0  0  0  0  0  0  0
   31.9356   26.4394   49.3139 H   0  0  0  0  0  0  0  0  0  0  0  0
   32.0844   28.8842   48.9493 H   0  0  0  0  0  0  0  0  0  0  0  0
   31.9904   29.6665   46.8804 H   0  0  0  0  0  0  0  0  0  0  0  0
   33.5665   28.8196   46.5198 H   0  0  0  0  0  0  0  0  0  0  0  0
   30.0102   28.5506   46.3144 H   0  0  0  0  0  0  0  0  0  0  0  0
   30.1661   26.8394   45.7097 H   0  0  0  0  0  0  0  0  0  0  0  0
   29.8465   26.1775   47.8042 H   0  0  0  0  0  0  0  0  0  0  0  0
   32.9495   25.2374   47.9098 H   0  0  0  0  0  0  0  0  0  0  0  0
   34.3884   30.3677   49.4866 H   0  0  0  0  0  0  0  0  0  0  0  0
   34.0678   29.2525   50.9030 H   0  0  0  0  0  0  0  0  0  0  0  0
   36.9910   32.1932   50.8656 H   0  0  0  0  0  0  0  0  0  0  0  0
   38.2054   33.8842   49.3957 H   0  0  0  0  0  0  0  0  0  0  0  0
   38.7044   30.8529   46.4484 H   0  0  0  0  0  0  0  0  0  0  0  0
   29.8379   26.3749   51.0651 H   0  0  0  0  0  0  0  0  0  0  0  0
   25.9216   28.9526   49.8487 H   0  0  0  0  0  0  0  0  0  0  0  0
  2  1  1  0
  2  8  1  0
  3  2  1  0
  4  5  1  0
  4  3  1  0
  5  6  1  0
  6  1  1  0
  6 17  1  0
  7  1  1  0
  8  9  1  0
  9 10  1  0
 11 12  2  0
 11 10  1  0
 13 12  1  0
 14 13  2  0
 15 14  1  0
 15 16  2  0
 16 11  1  0
 17 18  1  0
 18 19  2  0
 19 20  1  0
 21 20  1  0
 22 18  1  0
 22 21  2  0
  1 23  1  1
  2 24  1  1
  3 25  1  0
  3 26  1  0
  5 27  1  0
  5 28  1  0
  6 29  1  6
  7 30  1  0
  9 31  1  0
  9 32  1  0
 12 33  1  0
 13 34  1  0
 15 35  1  0
 19 36  1  0
 21 37  1  0
M  ISO  8  23  13  24  13  25  13  26  13  27  13  28  13  29  13  30   3
M  ISO  7  31   8  32   8  33  14  34  14  35  14  36  14  37  14
M  END
>  <minimizedAffinity>  (1) 
-5.18539429

>  <minimizedRMSD>  (1) 
1.26098967

$$$$
