
     RDKit          3D

 34 35  0  0  1  0  0  0  0  0999 V2000
   31.2670   26.6120   48.4570 C   0  0  1  0  0  0  0  0  0  0  0  0
   32.0070   27.9110   48.3040 C   0  0  2  0  0  0  0  0  0  0  0  0
   31.6500   28.4800   46.9590 C   0  0  0  0  0  0  0  0  0  0  0  0
   30.7890   27.6850   46.2360 O   0  0  0  0  0  0  0  0  0  0  0  0
   29.5890   27.4650   46.9100 C   0  0  0  0  0  0  0  0  0  0  0  0
   29.7920   26.9190   48.2990 C   0  0  2  0  0  0  0  0  0  0  0  0
   31.6140   25.7220   47.4420 O   0  0  0  0  0  0  0  0  0  0  0  0
   33.7990   27.7200   48.4790 S   0  0  0  0  0  0  0  0  0  0  0  0
   34.5530   29.2920   48.9660 C   0  0  0  0  0  0  0  0  0  0  0  0
   36.2210   29.1460   49.5710 S   0  0  0  0  0  0  0  0  0  0  0  0
   37.1740   30.5510   49.0270 C   0  0  0  0  0  0  0  0  0  0  0  0
   37.0260   31.6800   49.8020 C   0  0  0  0  0  0  0  0  0  0  0  0
   37.7500   32.8370   49.4360 C   0  0  0  0  0  0  0  0  0  0  0  0
   38.5540   32.7640   48.3350 N   0  0  0  0  0  0  0  0  0  0  0  0
   38.6550   31.6210   47.6170 C   0  0  0  0  0  0  0  0  0  0  0  0
   37.9830   30.5490   47.9570 N   0  0  0  0  0  0  0  0  0  0  0  0
   29.5140   27.9010   49.2460 O   0  0  0  0  0  0  0  0  0  0  0  0
   28.5900   27.3890   50.1820 C   0  0  0  0  0  0  0  0  0  0  0  0
   27.9200   28.4230   50.8240 F   0  0  0  0  0  0  0  0  0  0  0  0
   29.2290   26.6590   51.1580 F   0  0  0  0  0  0  0  0  0  0  0  0
   27.6390   26.6400   49.5180 F   0  0  0  0  0  0  0  0  0  0  0  0
   31.5095   26.1647   49.4323 H   0  0  0  0  0  0  0  0  0  0  0  0
   31.7060   28.5960   49.1104 H   0  0  0  0  0  0  0  0  0  0  0  0
   31.1740   29.4599   47.1110 H   0  0  0  0  0  0  0  0  0  0  0  0
   32.5833   28.5539   46.3815 H   0  0  0  0  0  0  0  0  0  0  0  0
   29.0468   28.4193   46.9831 H   0  0  0  0  0  0  0  0  0  0  0  0
   29.0207   26.7159   46.3392 H   0  0  0  0  0  0  0  0  0  0  0  0
   29.1436   26.0414   48.4387 H   0  0  0  0  0  0  0  0  0  0  0  0
   31.9431   24.8780   47.8414 H   0  0  0  0  0  0  0  0  0  0  0  0
   34.5610   29.9567   48.0896 H   0  0  0  0  0  0  0  0  0  0  0  0
   33.9496   29.6878   49.7962 H   0  0  0  0  0  0  0  0  0  0  0  0
   36.3636   31.6810   50.6802 H   0  0  0  0  0  0  0  0  0  0  0  0
   37.6685   33.7661   50.0191 H   0  0  0  0  0  0  0  0  0  0  0  0
   39.3112   31.5918   46.7347 H   0  0  0  0  0  0  0  0  0  0  0  0
  2  1  1  0
  2  8  1  0
  3  2  1  0
  4  5  1  0
  4  3  1  0
  5  6  1  0
  6  1  1  0
  6 17  1  0
  7  1  1  0
  8  9  1  0
  9 10  1  0
 11 10  1  0
 11 12  2  0
 13 12  1  0
 14 13  2  0
 15 16  2  0
 15 14  1  0
 16 11  1  0
 17 18  1  0
 18 19  1  0
 18 20  1  0
 21 18  1  0
  1 22  1  1
  2 23  1  1
  3 24  1  0
  3 25  1  0
  5 26  1  0
  5 27  1  0
  6 28  1  1
  7 29  1  0
  9 30  1  0
  9 31  1  0
 12 32  1  0
 13 33  1  0
 15 34  1  0
M  ISO  8  22  13  23  13  24  13  25  13  26  13  27  13  28  13  29   3
M  ISO  5  30   8  31   8  32  14  33  14  34  14
M  END
>  <minimizedAffinity>  (1) 
-5.05683088

>  <minimizedRMSD>  (1) 
1.93682194

$$$$
