
     RDKit          3D

 37 38  0  0  1  0  0  0  0  0999 V2000
   33.2010   27.1120   48.2020 C   0  0  1  0  0  0  0  0  0  0  0  0
   33.6460   28.4850   48.6720 C   0  0  2  0  0  0  0  0  0  0  0  0
   33.5720   29.4110   47.5040 C   0  0  0  0  0  0  0  0  0  0  0  0
   33.1570   28.8020   46.3430 O   0  0  0  0  0  0  0  0  0  0  0  0
   31.8880   28.2250   46.4790 C   0  0  0  0  0  0  0  0  0  0  0  0
   31.8000   27.2920   47.6530 C   0  0  2  0  0  0  0  0  0  0  0  0
   34.0070   26.6570   47.1600 O   0  0  0  0  0  0  0  0  0  0  0  0
   35.3060   28.4530   49.3830 S   0  0  0  0  0  0  0  0  0  0  0  0
   35.5340   29.8610   50.4900 C   0  0  0  0  0  0  0  0  0  0  0  0
   37.2500   30.2500   50.8130 S   0  0  0  0  0  0  0  0  0  0  0  0
   37.9370   31.0870   49.3970 C   0  0  0  0  0  0  0  0  0  0  0  0
   38.3400   32.3860   49.6340 C   0  0  0  0  0  0  0  0  0  0  0  0
   38.8930   33.1210   48.5720 C   0  0  0  0  0  0  0  0  0  0  0  0
   39.0010   32.4970   47.3530 N   0  0  0  0  0  0  0  0  0  0  0  0
   38.5880   31.2260   47.1900 C   0  0  0  0  0  0  0  0  0  0  0  0
   38.0700   30.5440   48.1880 N   0  0  0  0  0  0  0  0  0  0  0  0
   31.0540   27.8600   48.6660 O   0  0  0  0  0  0  0  0  0  0  0  0
   30.1110   27.0420   49.2280 C   0  0  0  0  0  0  0  0  0  0  0  0
   29.2600   27.6100   50.2990 C   0  0  0  0  0  0  0  0  0  0  0  0
   33.2559   26.3905   49.0305 H   0  0  0  0  0  0  0  0  0  0  0  0
   32.9819   28.8327   49.4770 H   0  0  0  0  0  0  0  0  0  0  0  0
   32.8649   30.2185   47.7449 H   0  0  0  0  0  0  0  0  0  0  0  0
   34.5906   29.7857   47.3249 H   0  0  0  0  0  0  0  0  0  0  0  0
   31.1482   29.0282   46.6112 H   0  0  0  0  0  0  0  0  0  0  0  0
   31.6906   27.6368   45.5707 H   0  0  0  0  0  0  0  0  0  0  0  0
   31.3420   26.3464   47.3274 H   0  0  0  0  0  0  0  0  0  0  0  0
   34.8055   26.2062   47.5331 H   0  0  0  0  0  0  0  0  0  0  0  0
   35.0579   30.7418   50.0345 H   0  0  0  0  0  0  0  0  0  0  0  0
   35.0785   29.5897   51.4538 H   0  0  0  0  0  0  0  0  0  0  0  0
   38.2306   32.8355   50.6320 H   0  0  0  0  0  0  0  0  0  0  0  0
   39.2277   34.1595   48.7117 H   0  0  0  0  0  0  0  0  0  0  0  0
   38.6857   30.7491   46.2036 H   0  0  0  0  0  0  0  0  0  0  0  0
   29.4435   26.7063   48.4207 H   0  0  0  0  0  0  0  0  0  0  0  0
   30.6896   26.2481   49.7229 H   0  0  0  0  0  0  0  0  0  0  0  0
   29.6731   27.3343   51.2805 H   0  0  0  0  0  0  0  0  0  0  0  0
   29.2361   28.7058   50.2059 H   0  0  0  0  0  0  0  0  0  0  0  0
   28.2389   27.2117   50.2059 H   0  0  0  0  0  0  0  0  0  0  0  0
  1  2  1  0
  2  8  1  0
  3  2  1  0
  4  5  1  0
  4  3  1  0
  5  6  1  0
  6  1  1  0
  6 17  1  0
  7  1  1  0
  8  9  1  0
  9 10  1  0
 11 12  2  0
 11 10  1  0
 13 12  1  0
 14 13  2  0
 15 14  1  0
 15 16  2  0
 16 11  1  0
 17 18  1  0
 18 19  1  0
  1 20  1  1
  2 21  1  1
  3 22  1  0
  3 23  1  0
  5 24  1  0
  5 25  1  0
  6 26  1  6
  7 27  1  0
  9 28  1  0
  9 29  1  0
 12 30  1  0
 13 31  1  0
 15 32  1  0
 18 33  1  0
 18 34  1  0
 19 35  1  0
 19 36  1  0
 19 37  1  0
M  ISO  8  20  13  21  13  22  13  23  13  24  13  25  13  26  13  27   3
M  ISO  8  28   8  29   8  30  14  31  14  32  14  33   8  34   8  35   8
M  ISO  2  36   8  37   8
M  END
>  <minimizedAffinity>  (1) 
-4.365273

>  <minimizedRMSD>  (1) 
0.605617166

$$$$
