
     RDKit          3D

 34 35  0  0  1  0  0  0  0  0999 V2000
   33.0380   27.0870   48.1540 C   0  0  1  0  0  0  0  0  0  0  0  0
   33.5320   28.4680   48.5240 C   0  0  2  0  0  0  0  0  0  0  0  0
   33.5200   29.3020   47.2960 C   0  0  0  0  0  0  0  0  0  0  0  0
   33.0960   28.6150   46.1660 O   0  0  0  0  0  0  0  0  0  0  0  0
   31.7990   28.1060   46.3260 C   0  0  0  0  0  0  0  0  0  0  0  0
   31.6500   27.2760   47.5540 C   0  0  2  0  0  0  0  0  0  0  0  0
   33.8340   26.5130   47.1680 O   0  0  0  0  0  0  0  0  0  0  0  0
   35.1840   28.4070   49.2750 S   0  0  0  0  0  0  0  0  0  0  0  0
   35.4290   29.8520   50.3370 C   0  0  0  0  0  0  0  0  0  0  0  0
   37.1390   30.2080   50.6960 S   0  0  0  0  0  0  0  0  0  0  0  0
   37.8690   31.0330   49.3000 C   0  0  0  0  0  0  0  0  0  0  0  0
   38.2940   32.3180   49.5490 C   0  0  0  0  0  0  0  0  0  0  0  0
   38.8840   33.0480   48.5020 C   0  0  0  0  0  0  0  0  0  0  0  0
   39.0020   32.4330   47.2880 N   0  0  0  0  0  0  0  0  0  0  0  0
   38.5670   31.1700   47.1040 C   0  0  0  0  0  0  0  0  0  0  0  0
   38.0140   30.4900   48.0860 N   0  0  0  0  0  0  0  0  0  0  0  0
   30.9210   27.9410   48.5360 O   0  0  0  0  0  0  0  0  0  0  0  0
   30.0780   27.1170   49.2630 C   0  0  0  0  0  0  0  0  0  0  0  0
   33.0505   26.4397   49.0433 H   0  0  0  0  0  0  0  0  0  0  0  0
   32.8695   28.9112   49.2821 H   0  0  0  0  0  0  0  0  0  0  0  0
   32.8439   30.1541   47.4600 H   0  0  0  0  0  0  0  0  0  0  0  0
   34.5560   29.6223   47.1112 H   0  0  0  0  0  0  0  0  0  0  0  0
   31.0956   28.9496   46.3849 H   0  0  0  0  0  0  0  0  0  0  0  0
   31.5894   27.4582   45.4620 H   0  0  0  0  0  0  0  0  0  0  0  0
   31.1486   26.3386   47.2712 H   0  0  0  0  0  0  0  0  0  0  0  0
   34.5594   25.9899   47.5926 H   0  0  0  0  0  0  0  0  0  0  0  0
   34.9914   30.7278   49.8355 H   0  0  0  0  0  0  0  0  0  0  0  0
   34.9428   29.6265   51.2976 H   0  0  0  0  0  0  0  0  0  0  0  0
   38.1746   32.7650   50.5469 H   0  0  0  0  0  0  0  0  0  0  0  0
   39.2381   34.0781   48.6552 H   0  0  0  0  0  0  0  0  0  0  0  0
   38.6762   30.6996   46.1157 H   0  0  0  0  0  0  0  0  0  0  0  0
   30.2441   27.2794   50.3382 H   0  0  0  0  0  0  0  0  0  0  0  0
   29.0324   27.3509   49.0141 H   0  0  0  0  0  0  0  0  0  0  0  0
   30.2880   26.0663   49.0141 H   0  0  0  0  0  0  0  0  0  0  0  0
  1  2  1  0
  2  8  1  0
  3  2  1  0
  4  5  1  0
  4  3  1  0
  5  6  1  0
  6  1  1  0
  6 17  1  0
  7  1  1  0
  8  9  1  0
  9 10  1  0
 11 12  2  0
 11 10  1  0
 13 12  1  0
 14 13  2  0
 15 14  1  0
 15 16  2  0
 16 11  1  0
 17 18  1  0
  1 19  1  1
  2 20  1  1
  3 21  1  0
  3 22  1  0
  5 23  1  0
  5 24  1  0
  6 25  1  6
  7 26  1  0
  9 27  1  0
  9 28  1  0
 12 29  1  0
 13 30  1  0
 15 31  1  0
 18 32  1  0
 18 33  1  0
 18 34  1  0
M  ISO  8  19  13  20  13  21  13  22  13  23  13  24  13  25  13  26   3
M  ISO  8  27   8  28   8  29  14  30  14  31  14  32   8  33   8  34   8
M  END
>  <minimizedAffinity>  (1) 
-4.15286589

>  <minimizedRMSD>  (1) 
0.36991334

$$$$
