
     RDKit          3D

 25 26  0  0  0  0  0  0  0  0999 V2000
   35.2020   29.2880   48.3840 C   0  0  0  0  0  0  0  0  0  0  0  0
   34.6360   29.8580   47.2340 C   0  0  0  0  0  0  0  0  0  0  0  0
   33.3550   29.4390   46.8740 C   0  0  0  0  0  0  0  0  0  0  0  0
   32.7240   28.5060   47.6520 N   0  0  0  0  0  0  0  0  0  0  0  0
   33.3080   27.9900   48.7450 C   0  0  0  0  0  0  0  0  0  0  0  0
   34.5350   28.3800   49.1030 N   0  0  0  0  0  0  0  0  0  0  0  0
   36.4980   29.6000   48.8930 N   0  0  0  0  0  0  0  0  0  0  0  0
   36.9840   29.3070   50.2050 C   0  0  0  0  0  0  0  0  0  0  0  0
   37.6430   30.3810   50.9590 C   0  0  0  0  0  0  0  0  0  0  0  0
   38.3340   31.4450   50.1890 C   0  0  0  0  0  0  0  0  0  0  0  0
   37.7900   31.6460   48.8000 C   0  0  0  0  0  0  0  0  0  0  0  0
   37.5490   30.2690   48.1660 C   0  0  0  0  0  0  0  0  0  0  0  0
   35.1809   30.6060   46.6394 H   0  0  0  0  0  0  0  0  0  0  0  0
   32.8611   29.8507   45.9815 H   0  0  0  0  0  0  0  0  0  0  0  0
   32.7737   27.2421   49.3492 H   0  0  0  0  0  0  0  0  0  0  0  0
   36.1246   28.9693   50.8028 H   0  0  0  0  0  0  0  0  0  0  0  0
   37.7781   28.5638   50.0407 H   0  0  0  0  0  0  0  0  0  0  0  0
   36.8733   30.8692   51.5749 H   0  0  0  0  0  0  0  0  0  0  0  0
   38.4465   29.8758   51.5149 H   0  0  0  0  0  0  0  0  0  0  0  0
   38.2338   32.3916   50.7402 H   0  0  0  0  0  0  0  0  0  0  0  0
   39.3817   31.1287   50.0781 H   0  0  0  0  0  0  0  0  0  0  0  0
   36.8424   32.2023   48.8498 H   0  0  0  0  0  0  0  0  0  0  0  0
   38.5073   32.2190   48.1941 H   0  0  0  0  0  0  0  0  0  0  0  0
   37.2501   30.3932   47.1147 H   0  0  0  0  0  0  0  0  0  0  0  0
   38.4716   29.6714   48.2083 H   0  0  0  0  0  0  0  0  0  0  0  0
  1  7  1  0
  1  6  1  0
  2  1  2  0
  3  2  1  0
  3  4  2  0
  4  5  1  0
  5  6  2  0
  7  8  1  0
  8  9  1  0
 10  9  1  0
 11 10  1  0
 12 11  1  0
 12  7  1  0
  2 13  1  0
  3 14  1  0
  5 15  1  0
  8 16  1  0
  8 17  1  0
  9 18  1  0
  9 19  1  0
 10 20  1  0
 10 21  1  0
 11 22  1  0
 11 23  1  0
 12 24  1  0
 12 25  1  0
M  ISO  8  13  14  14  14  15  14  16  13  17  13  18  13  19  13  20  13
M  ISO  5  21  13  22  13  23  13  24  13  25  13
M  END
>  <minimizedAffinity>  (1) 
-4.36530447

>  <minimizedRMSD>  (1) 
4.54493046

$$$$
