
     RDKit          3D

 37 39  0  0  1  0  0  0  0  0999 V2000
   35.9380   29.7870   48.7980 N   0  0  0  0  0  0  0  0  0  0  0  0
   36.7130   28.9280   49.6540 C   0  0  0  0  0  0  0  0  0  0  0  0
   37.2310   29.4900   50.8950 C   0  0  0  0  0  0  0  0  0  0  0  0
   37.3900   30.9570   51.0150 C   0  0  0  0  0  0  0  0  0  0  0  0
   36.5890   31.7500   50.0350 C   0  0  0  0  0  0  0  0  0  0  0  0
   36.6000   31.0600   48.6640 C   0  0  1  0  0  0  0  0  0  0  0  0
   34.7020   29.4110   48.1840 C   0  0  0  0  0  0  0  0  0  0  0  0
   34.1430   30.0480   47.0740 C   0  0  0  0  0  0  0  0  0  0  0  0
   32.9380   29.5900   46.5710 C   0  0  0  0  0  0  0  0  0  0  0  0
   32.3520   28.5290   47.1870 N   0  0  0  0  0  0  0  0  0  0  0  0
   32.9190   27.9380   48.2550 C   0  0  0  0  0  0  0  0  0  0  0  0
   34.0770   28.3780   48.7400 N   0  0  0  0  0  0  0  0  0  0  0  0
   37.9250   30.9600   48.1190 N   0  0  0  0  0  0  0  0  0  0  0  0
   37.8030   30.5410   46.7340 C   0  0  0  0  0  0  0  0  0  0  0  0
   38.7750   31.3760   45.9290 C   0  0  0  0  0  0  0  0  0  0  0  0
   39.3870   32.3530   46.9090 C   0  0  0  0  0  0  0  0  0  0  0  0
   38.5010   32.2860   48.1210 C   0  0  0  0  0  0  0  0  0  0  0  0
   36.0762   28.0722   49.9225 H   0  0  0  0  0  0  0  0  0  0  0  0
   37.6099   28.6873   49.0645 H   0  0  0  0  0  0  0  0  0  0  0  0
   36.5501   29.1741   51.6992 H   0  0  0  0  0  0  0  0  0  0  0  0
   38.2627   29.1114   50.9418 H   0  0  0  0  0  0  0  0  0  0  0  0
   37.0836   31.2538   52.0289 H   0  0  0  0  0  0  0  0  0  0  0  0
   38.4472   31.1750   50.8034 H   0  0  0  0  0  0  0  0  0  0  0  0
   35.5521   31.8308   50.3933 H   0  0  0  0  0  0  0  0  0  0  0  0
   37.0303   32.7528   49.9370 H   0  0  0  0  0  0  0  0  0  0  0  0
   36.0492   31.6680   47.9312 H   0  0  0  0  0  0  0  0  0  0  0  0
   34.6538   30.9024   46.6058 H   0  0  0  0  0  0  0  0  0  0  0  0
   32.4686   30.0696   45.6995 H   0  0  0  0  0  0  0  0  0  0  0  0
   32.4195   27.0819   48.7320 H   0  0  0  0  0  0  0  0  0  0  0  0
   38.0536   29.4741   46.6391 H   0  0  0  0  0  0  0  0  0  0  0  0
   36.7737   30.6808   46.3720 H   0  0  0  0  0  0  0  0  0  0  0  0
   39.5542   30.7376   45.4871 H   0  0  0  0  0  0  0  0  0  0  0  0
   38.2730   31.8950   45.0991 H   0  0  0  0  0  0  0  0  0  0  0  0
   40.4147   32.0545   47.1632 H   0  0  0  0  0  0  0  0  0  0  0  0
   39.4502   33.3707   46.4964 H   0  0  0  0  0  0  0  0  0  0  0  0
   37.7092   33.0470   48.0585 H   0  0  0  0  0  0  0  0  0  0  0  0
   39.0659   32.4792   49.0449 H   0  0  0  0  0  0  0  0  0  0  0  0
  1  2  1  0
  2  3  1  0
  3  4  1  0
  5  4  1  0
  6  1  1  0
  6  5  1  0
  7 12  1  0
  7  1  1  0
  8  7  2  0
  9  8  1  0
  9 10  2  0
 10 11  1  0
 11 12  2  0
 13 14  1  0
 13 17  1  0
 13  6  1  0
 15 14  1  0
 15 16  1  0
 16 17  1  0
  2 18  1  0
  2 19  1  0
  3 20  1  0
  3 21  1  0
  4 22  1  0
  4 23  1  0
  5 24  1  0
  5 25  1  0
  6 26  1  6
  8 27  1  0
  9 28  1  0
 11 29  1  0
 14 30  1  0
 14 31  1  0
 15 32  1  0
 15 33  1  0
 16 34  1  0
 16 35  1  0
 17 36  1  0
 17 37  1  0
M  ISO  8  18  13  19  13  20  13  21  13  22  13  23  13  24  13  25  13
M  ISO  8  26  13  27  14  28  14  29  14  30  13  31  13  32  13  33  13
M  ISO  4  34  13  35  13  36  13  37  13
M  END
>  <minimizedAffinity>  (1) 
-5.29896355

>  <minimizedRMSD>  (1) 
1.50314152

$$$$
