
     RDKit          3D

 28 29  0  0  1  0  0  0  0  0999 V2000
   35.9000   29.8050   48.8260 N   0  0  0  0  0  0  0  0  0  0  0  0
   36.7730   28.9650   49.5840 C   0  0  0  0  0  0  0  0  0  0  0  0
   37.2610   29.4690   50.8830 C   0  0  0  0  0  0  0  0  0  0  0  0
   37.3490   30.9420   51.0760 C   0  0  0  0  0  0  0  0  0  0  0  0
   36.4650   31.7440   50.1530 C   0  0  0  0  0  0  0  0  0  0  0  0
   36.4810   31.0970   48.7620 C   0  0  1  0  0  0  0  0  0  0  0  0
   34.6630   29.3790   48.2500 C   0  0  0  0  0  0  0  0  0  0  0  0
   34.1240   29.9210   47.0720 C   0  0  0  0  0  0  0  0  0  0  0  0
   32.9150   29.4240   46.6140 C   0  0  0  0  0  0  0  0  0  0  0  0
   32.3180   28.4270   47.3430 N   0  0  0  0  0  0  0  0  0  0  0  0
   32.8580   27.9340   48.4580 C   0  0  0  0  0  0  0  0  0  0  0  0
   34.0200   28.4160   48.8960 N   0  0  0  0  0  0  0  0  0  0  0  0
   37.8600   31.1920   48.1820 C   0  0  0  0  0  0  0  0  0  0  0  0
   37.8070   32.2390   47.2470 F   0  0  0  0  0  0  0  0  0  0  0  0
   38.1370   30.0720   47.4250 F   0  0  0  0  0  0  0  0  0  0  0  0
   38.8420   31.5280   49.0550 F   0  0  0  0  0  0  0  0  0  0  0  0
   36.2360   28.0249   49.7782 H   0  0  0  0  0  0  0  0  0  0  0  0
   37.6778   28.8773   48.9647 H   0  0  0  0  0  0  0  0  0  0  0  0
   36.5868   29.0778   51.6591 H   0  0  0  0  0  0  0  0  0  0  0  0
   38.3041   29.1237   50.9357 H   0  0  0  0  0  0  0  0  0  0  0  0
   37.0620   31.1712   52.1129 H   0  0  0  0  0  0  0  0  0  0  0  0
   38.3859   31.2281   50.8457 H   0  0  0  0  0  0  0  0  0  0  0  0
   35.4367   31.7544   50.5435 H   0  0  0  0  0  0  0  0  0  0  0  0
   36.8357   32.7776   50.0873 H   0  0  0  0  0  0  0  0  0  0  0  0
   35.8463   31.6380   48.0447 H   0  0  0  0  0  0  0  0  0  0  0  0
   34.6484   30.7197   46.5270 H   0  0  0  0  0  0  0  0  0  0  0  0
   32.4496   29.8153   45.6973 H   0  0  0  0  0  0  0  0  0  0  0  0
   32.3468   27.1337   49.0131 H   0  0  0  0  0  0  0  0  0  0  0  0
  1  2  1  0
  2  3  1  0
  3  4  1  0
  5  4  1  0
  6  1  1  0
  6  5  1  0
  7  1  1  0
  7 12  1  0
  8  7  2  0
  9  8  1  0
  9 10  2  0
 10 11  1  0
 11 12  2  0
 13  6  1  0
 13 16  1  0
 14 13  1  0
 15 13  1  0
  2 17  1  0
  2 18  1  0
  3 19  1  0
  3 20  1  0
  4 21  1  0
  4 22  1  0
  5 23  1  0
  5 24  1  0
  6 25  1  6
  8 26  1  0
  9 27  1  0
 11 28  1  0
M  ISO  8  17  13  18  13  19  13  20  13  21  13  22  13  23  13  24  13
M  ISO  4  25  13  26  14  27  14  28  14
M  END
>  <minimizedAffinity>  (1) 
-5.04113579

>  <minimizedRMSD>  (1) 
1.62773395

$$$$
