
     RDKit          3D

 29 30  0  0  1  0  0  0  0  0999 V2000
   36.0170   29.6650   48.8840 N   0  0  0  0  0  0  0  0  0  0  0  0
   36.7650   28.9170   49.8400 C   0  0  0  0  0  0  0  0  0  0  0  0
   37.3090   29.6200   50.9970 C   0  0  0  0  0  0  0  0  0  0  0  0
   37.5430   31.0800   50.9020 C   0  0  0  0  0  0  0  0  0  0  0  0
   36.7510   31.7730   49.8170 C   0  0  0  0  0  0  0  0  0  0  0  0
   36.7400   30.8840   48.5800 C   0  0  1  0  0  0  0  0  0  0  0  0
   34.7590   29.2900   48.3090 C   0  0  0  0  0  0  0  0  0  0  0  0
   34.2140   29.8270   47.1440 C   0  0  0  0  0  0  0  0  0  0  0  0
   32.9840   29.3500   46.7260 C   0  0  0  0  0  0  0  0  0  0  0  0
   32.3640   28.3830   47.4700 N   0  0  0  0  0  0  0  0  0  0  0  0
   32.9250   27.8970   48.5830 C   0  0  0  0  0  0  0  0  0  0  0  0
   34.1120   28.3550   48.9890 N   0  0  0  0  0  0  0  0  0  0  0  0
   38.8160   31.3620   47.2990 C   0  0  0  0  0  0  0  0  0  0  0  0
   38.4100   32.3590   46.6830 O   0  0  0  0  0  0  0  0  0  0  0  0
   38.0990   30.5820   48.2310 N   0  0  0  0  0  0  0  0  0  0  0  0
   36.1049   28.1241   50.2216 H   0  0  0  0  0  0  0  0  0  0  0  0
   37.6531   28.5796   49.2855 H   0  0  0  0  0  0  0  0  0  0  0  0
   36.6101   29.4585   51.8310 H   0  0  0  0  0  0  0  0  0  0  0  0
   38.3175   29.1968   51.1144 H   0  0  0  0  0  0  0  0  0  0  0  0
   37.2742   31.5344   51.8670 H   0  0  0  0  0  0  0  0  0  0  0  0
   38.6048   31.2104   50.6457 H   0  0  0  0  0  0  0  0  0  0  0  0
   35.7200   31.9418   50.1612 H   0  0  0  0  0  0  0  0  0  0  0  0
   37.2103   32.7435   49.5781 H   0  0  0  0  0  0  0  0  0  0  0  0
   36.2471   31.3905   47.7371 H   0  0  0  0  0  0  0  0  0  0  0  0
   34.7444   30.6049   46.5752 H   0  0  0  0  0  0  0  0  0  0  0  0
   32.5131   29.7411   45.8121 H   0  0  0  0  0  0  0  0  0  0  0  0
   32.4081   27.1193   49.1644 H   0  0  0  0  0  0  0  0  0  0  0  0
   39.8514   31.0509   47.0960 H   0  0  0  0  0  0  0  0  0  0  0  0
   38.5629   29.7751   48.6722 H   0  0  0  0  0  0  0  0  0  0  0  0
  1  2  1  0
  2  3  1  0
  4  3  1  0
  5  4  1  0
  6  1  1  0
  6  5  1  0
  7  1  1  0
  7 12  1  0
  8  7  2  0
  9  8  1  0
  9 10  2  0
 10 11  1  0
 11 12  2  0
 13 15  1  0
 14 13  2  0
 15  6  1  0
  2 16  1  0
  2 17  1  0
  3 18  1  0
  3 19  1  0
  4 20  1  0
  4 21  1  0
  5 22  1  0
  5 23  1  0
  6 24  1  6
  8 25  1  0
  9 26  1  0
 11 27  1  0
 13 28  1  0
 15 29  1  0
M  ISO  8  16  13  17  13  18  13  19  13  20  13  21  13  22  13  23  13
M  ISO  5  24  13  25  14  26  14  27  14  28   6
M  END
>  <minimizedAffinity>  (1) 
-4.89872313

>  <minimizedRMSD>  (1) 
1.05299008

$$$$
