
     RDKit          3D

 31 32  0  0  1  0  0  0  0  0999 V2000
   35.8440   29.6470   48.7910 N   0  0  0  0  0  0  0  0  0  0  0  0
   36.5780   28.8590   49.7470 C   0  0  0  0  0  0  0  0  0  0  0  0
   37.1080   29.5210   50.9340 C   0  0  0  0  0  0  0  0  0  0  0  0
   37.3050   30.9820   50.9130 C   0  0  0  0  0  0  0  0  0  0  0  0
   36.5990   31.6990   49.7990 C   0  0  0  0  0  0  0  0  0  0  0  0
   36.5890   30.8450   48.5360 C   0  0  1  0  0  0  0  0  0  0  0  0
   34.5970   29.2940   48.2060 C   0  0  0  0  0  0  0  0  0  0  0  0
   34.0680   29.8670   47.0360 C   0  0  0  0  0  0  0  0  0  0  0  0
   32.8360   29.4100   46.5950 C   0  0  0  0  0  0  0  0  0  0  0  0
   32.1990   28.4360   47.3100 N   0  0  0  0  0  0  0  0  0  0  0  0
   32.7330   27.9180   48.4160 C   0  0  0  0  0  0  0  0  0  0  0  0
   33.9250   28.3360   48.8700 N   0  0  0  0  0  0  0  0  0  0  0  0
   37.9960   30.5670   48.0580 C   0  0  0  0  0  0  0  0  0  0  0  0
   38.6010   31.8350   47.5470 C   0  0  0  0  0  0  0  0  0  0  0  0
   35.9060   28.0600   50.0935 H   0  0  0  0  0  0  0  0  0  0  0  0
   37.4737   28.5341   49.1972 H   0  0  0  0  0  0  0  0  0  0  0  0
   36.4164   29.3014   51.7607 H   0  0  0  0  0  0  0  0  0  0  0  0
   38.1282   29.1199   51.0248 H   0  0  0  0  0  0  0  0  0  0  0  0
   36.9400   31.3898   51.8672 H   0  0  0  0  0  0  0  0  0  0  0  0
   38.3808   31.1460   50.7525 H   0  0  0  0  0  0  0  0  0  0  0  0
   35.5627   31.9083   50.1027 H   0  0  0  0  0  0  0  0  0  0  0  0
   37.1297   32.6392   49.5885 H   0  0  0  0  0  0  0  0  0  0  0  0
   36.0941   31.3894   47.7183 H   0  0  0  0  0  0  0  0  0  0  0  0
   34.6130   30.6508   46.4896 H   0  0  0  0  0  0  0  0  0  0  0  0
   32.3789   29.8248   45.6845 H   0  0  0  0  0  0  0  0  0  0  0  0
   32.1884   27.1358   48.9652 H   0  0  0  0  0  0  0  0  0  0  0  0
   38.5991   30.1822   48.8935 H   0  0  0  0  0  0  0  0  0  0  0  0
   37.9715   29.8183   47.2525 H   0  0  0  0  0  0  0  0  0  0  0  0
   38.9020   32.4659   48.3963 H   0  0  0  0  0  0  0  0  0  0  0  0
   39.4837   31.5993   46.9344 H   0  0  0  0  0  0  0  0  0  0  0  0
   37.8625   32.3728   46.9344 H   0  0  0  0  0  0  0  0  0  0  0  0
  1  2  1  0
  2  3  1  0
  4  3  1  0
  5  4  1  0
  6  1  1  0
  6  5  1  0
  7  1  1  0
  7 12  1  0
  8  7  2  0
  9  8  1  0
  9 10  2  0
 10 11  1  0
 11 12  2  0
 13  6  1  0
 14 13  1  0
  2 15  1  0
  2 16  1  0
  3 17  1  0
  3 18  1  0
  4 19  1  0
  4 20  1  0
  5 21  1  0
  5 22  1  0
  6 23  1  6
  8 24  1  0
  9 25  1  0
 11 26  1  0
 13 27  1  0
 13 28  1  0
 14 29  1  0
 14 30  1  0
 14 31  1  0
M  ISO  8  15  13  16  13  17  13  18  13  19  13  20  13  21  13  22  13
M  ISO  8  23  13  24  14  25  14  26  14  27   8  28   8  29   8  30   8
M  ISO  1  31   8
M  END
>  <minimizedAffinity>  (1) 
-4.72455215

>  <minimizedRMSD>  (1) 
1.08989024

$$$$
