
     RDKit          3D

 27 28  0  0  1  0  0  0  0  0999 V2000
   35.8240   29.6490   48.7980 N   0  0  0  0  0  0  0  0  0  0  0  0
   36.5480   28.8650   49.7650 C   0  0  0  0  0  0  0  0  0  0  0  0
   37.0680   29.5250   50.9590 C   0  0  0  0  0  0  0  0  0  0  0  0
   37.3250   30.9870   50.9010 C   0  0  0  0  0  0  0  0  0  0  0  0
   36.5970   31.7000   49.8090 C   0  0  0  0  0  0  0  0  0  0  0  0
   36.5890   30.8370   48.5550 C   0  0  1  0  0  0  0  0  0  0  0  0
   34.5770   29.2960   48.2030 C   0  0  0  0  0  0  0  0  0  0  0  0
   34.0680   29.8730   47.0410 C   0  0  0  0  0  0  0  0  0  0  0  0
   32.8390   29.4220   46.5820 C   0  0  0  0  0  0  0  0  0  0  0  0
   32.1940   28.4400   47.2930 N   0  0  0  0  0  0  0  0  0  0  0  0
   32.7290   27.9120   48.4120 C   0  0  0  0  0  0  0  0  0  0  0  0
   33.9110   28.3370   48.8630 N   0  0  0  0  0  0  0  0  0  0  0  0
   37.9710   30.5800   48.1080 C   0  0  0  0  0  0  0  0  0  0  0  0
   38.6380   31.5270   47.7240 O   0  0  0  0  0  0  0  0  0  0  0  0
   35.8719   28.0669   50.1054 H   0  0  0  0  0  0  0  0  0  0  0  0
   37.4506   28.5438   49.2245 H   0  0  0  0  0  0  0  0  0  0  0  0
   36.3422   29.3539   51.7677 H   0  0  0  0  0  0  0  0  0  0  0  0
   38.0637   29.0802   51.1027 H   0  0  0  0  0  0  0  0  0  0  0  0
   37.0209   31.4279   51.8618 H   0  0  0  0  0  0  0  0  0  0  0  0
   38.3984   31.1084   50.6932 H   0  0  0  0  0  0  0  0  0  0  0  0
   35.5619   31.8958   50.1257 H   0  0  0  0  0  0  0  0  0  0  0  0
   37.1019   32.6534   49.5941 H   0  0  0  0  0  0  0  0  0  0  0  0
   36.0966   31.3623   47.7233 H   0  0  0  0  0  0  0  0  0  0  0  0
   34.6216   30.6589   46.5063 H   0  0  0  0  0  0  0  0  0  0  0  0
   32.3912   29.8415   45.6691 H   0  0  0  0  0  0  0  0  0  0  0  0
   32.1874   27.1251   48.9574 H   0  0  0  0  0  0  0  0  0  0  0  0
   38.3889   29.5626   48.1205 H   0  0  0  0  0  0  0  0  0  0  0  0
  1  2  1  0
  2  3  1  0
  4  3  1  0
  5  4  1  0
  6  1  1  0
  6  5  1  0
  7  1  1  0
  7 12  1  0
  8  7  2  0
  9  8  1  0
  9 10  2  0
 10 11  1  0
 11 12  2  0
 13  6  1  0
 14 13  2  0
  2 15  1  0
  2 16  1  0
  3 17  1  0
  3 18  1  0
  4 19  1  0
  4 20  1  0
  5 21  1  0
  5 22  1  0
  6 23  1  6
  8 24  1  0
  9 25  1  0
 11 26  1  0
 13 27  1  0
M  ISO  8  15  13  16  13  17  13  18  13  19  13  20  13  21  13  22  13
M  ISO  5  23  13  24  14  25  14  26  14  27   6
M  END
>  <minimizedAffinity>  (1) 
-4.47214746

>  <minimizedRMSD>  (1) 
1.13337851

$$$$
