
     RDKit          3D

 13 13  0  0  0  0  0  0  0  0999 V2000
   37.9470   30.9200   49.3130 C   0  0  0  0  0  0  0  0  0  0  0  0
   38.3390   32.2040   49.6900 C   0  0  0  0  0  0  0  0  0  0  0  0
   38.8380   33.0160   48.6720 C   0  0  0  0  0  0  0  0  0  0  0  0
   38.9080   32.5140   47.4070 N   0  0  0  0  0  0  0  0  0  0  0  0
   38.5210   31.2760   47.0940 C   0  0  0  0  0  0  0  0  0  0  0  0
   38.0360   30.4760   48.0650 N   0  0  0  0  0  0  0  0  0  0  0  0
   37.4230   30.0500   50.3530 C   0  0  0  0  0  0  0  0  0  0  0  0
   37.5330   30.2840   51.5810 O   0  0  0  0  0  0  0  0  0  0  0  0
   36.7400   28.8600   50.1150 O   0  0  0  0  0  0  0  0  0  0  0  0
   38.2593   32.5557   50.7292 H   0  0  0  0  0  0  0  0  0  0  0  0
   39.1690   34.0429   48.8862 H   0  0  0  0  0  0  0  0  0  0  0  0
   38.5966   30.9131   46.0583 H   0  0  0  0  0  0  0  0  0  0  0  0
   36.4110   28.3176   50.8750 H   0  0  0  0  0  0  0  0  0  0  0  0
  1  2  2  0
  1  7  1  0
  3  2  1  0
  4  3  2  0
  5  4  1  0
  5  6  2  0
  6  1  1  0
  7  8  2  0
  9  7  1  0
  2 10  1  0
  3 11  1  0
  5 12  1  0
  9 13  1  0
M  ISO  4  10  14  11  14  12  14  13   3
M  END
>  <minimizedAffinity>  (1) 
-3.60199475

>  <minimizedRMSD>  (1) 
0.861500263

$$$$
