
     RDKit          3D

 31 33  0  0  1  0  0  0  0  0999 V2000
   34.5380   29.0640   48.7240 C   0  0  0  0  0  0  0  0  0  0  0  0
   35.1840   28.3630   49.8720 C   0  0  0  0  0  0  0  0  0  0  0  0
   36.3310   29.1390   50.3040 N   0  0  0  0  0  0  0  0  0  0  0  0
   37.2630   29.8740   51.0920 C   0  0  0  0  0  0  0  0  0  0  0  0
   37.4940   30.0920   52.3090 O   0  0  0  0  0  0  0  0  0  0  0  0
   37.9920   30.3870   49.9010 C   0  0  1  0  0  0  0  0  0  0  0  0
   37.1980   29.3740   49.1620 C   0  0  2  0  0  0  0  0  0  0  0  0
   35.9110   30.0750   48.0540 S   0  0  0  0  0  0  0  0  0  0  0  0
   37.7370   31.8180   49.6030 C   0  0  0  0  0  0  0  0  0  0  0  0
   36.7470   32.3120   50.1930 O   0  0  0  0  0  0  0  0  0  0  0  0
   38.5860   32.5630   48.6910 C   0  0  0  0  0  0  0  0  0  0  0  0
   39.1150   33.7610   49.1750 C   0  0  0  0  0  0  0  0  0  0  0  0
   39.9470   34.5110   48.3130 C   0  0  0  0  0  0  0  0  0  0  0  0
   40.1770   34.0090   47.0630 N   0  0  0  0  0  0  0  0  0  0  0  0
   39.6500   32.8570   46.6420 C   0  0  0  0  0  0  0  0  0  0  0  0
   38.8540   32.1330   47.4580 N   0  0  0  0  0  0  0  0  0  0  0  0
   33.3290   29.8710   49.0630 C   0  0  0  0  0  0  0  0  0  0  0  0
   34.2290   28.0510   47.6120 C   0  0  0  0  0  0  0  0  0  0  0  0
   34.4664   28.2703   50.7005 H   0  0  0  0  0  0  0  0  0  0  0  0
   35.5060   27.3572   49.5642 H   0  0  0  0  0  0  0  0  0  0  0  0
   39.0865   30.4446   49.8079 H   0  0  0  0  0  0  0  0  0  0  0  0
   37.8130   28.6460   48.6127 H   0  0  0  0  0  0  0  0  0  0  0  0
   38.8915   34.1098   50.1940 H   0  0  0  0  0  0  0  0  0  0  0  0
   40.3927   35.4633   48.6363 H   0  0  0  0  0  0  0  0  0  0  0  0
   39.8652   32.4958   45.6255 H   0  0  0  0  0  0  0  0  0  0  0  0
   33.2279   29.9385   50.1563 H   0  0  0  0  0  0  0  0  0  0  0  0
   33.4327   30.8816   48.6413 H   0  0  0  0  0  0  0  0  0  0  0  0
   32.4354   29.3876   48.6413 H   0  0  0  0  0  0  0  0  0  0  0  0
   33.9361   27.0908   48.0617 H   0  0  0  0  0  0  0  0  0  0  0  0
   33.4057   28.4303   46.9889 H   0  0  0  0  0  0  0  0  0  0  0  0
   35.1238   27.9062   46.9889 H   0  0  0  0  0  0  0  0  0  0  0  0
  1 17  1  0
  1  2  1  0
  2  3  1  0
  3  4  1  0
  4  5  2  0
  6  9  1  0
  6  4  1  0
  7  8  1  0
  7  6  1  0
  7  3  1  0
  8  1  1  0
  9 10  2  0
 11 12  2  0
 11  9  1  0
 13 12  1  0
 14 13  2  0
 15 14  1  0
 15 16  2  0
 16 11  1  0
 18  1  1  0
  2 19  1  0
  2 20  1  0
  6 21  1  1
  7 22  1  6
 12 23  1  0
 13 24  1  0
 15 25  1  0
 17 26  1  0
 17 27  1  0
 17 28  1  0
 18 29  1  0
 18 30  1  0
 18 31  1  0
M  ISO  8  19  13  20  13  21  13  22  13  23  14  24  14  25  14  26   8
M  ISO  5  27   8  28   8  29   8  30   8  31   8
M  END
>  <minimizedAffinity>  (1) 
-4.67639923

>  <minimizedRMSD>  (1) 
2.43853879

$$$$
