
     RDKit          3D

 41 44  0  0  1  0  0  0  0  0999 V2000
   34.4740   29.1690   48.8320 C   0  0  2  0  0  0  0  0  0  0  0  0
   35.1650   28.4220   49.9470 C   0  0  0  0  0  0  0  0  0  0  0  0
   36.3350   29.1620   50.3460 N   0  0  0  0  0  0  0  0  0  0  0  0
   37.3350   29.8700   51.0930 C   0  0  0  0  0  0  0  0  0  0  0  0
   37.6250   30.0520   52.3030 O   0  0  0  0  0  0  0  0  0  0  0  0
   38.0110   30.3870   49.9070 C   0  0  1  0  0  0  0  0  0  0  0  0
   37.1370   29.4020   49.1700 C   0  0  2  0  0  0  0  0  0  0  0  0
   35.8300   30.1600   48.1480 S   0  0  0  0  0  0  0  0  0  0  0  0
   33.3030   29.9930   49.2710 C   0  0  0  0  0  0  0  0  0  0  0  0
   34.0730   28.1730   47.7640 C   0  0  0  0  0  0  0  0  0  0  0  0
   32.3430   29.9390   45.7750 Cl  0  0  0  0  0  0  0  0  0  0  0  0
   31.7040   28.6900   46.8100 C   0  0  0  0  0  0  0  0  0  0  0  0
   32.6180   28.0210   47.5800 C   0  0  0  0  0  0  0  0  0  0  0  0
   32.0180   27.0140   48.3520 C   0  0  0  0  0  0  0  0  0  0  0  0
   30.6840   26.6750   48.3920 C   0  0  0  0  0  0  0  0  0  0  0  0
   29.8310   27.3990   47.5870 C   0  0  0  0  0  0  0  0  0  0  0  0
   28.1190   27.0450   47.5670 Cl  0  0  0  0  0  0  0  0  0  0  0  0
   30.3610   28.4020   46.8040 C   0  0  0  0  0  0  0  0  0  0  0  0
   37.7910   31.8170   49.6150 C   0  0  0  0  0  0  0  0  0  0  0  0
   36.8130   32.3300   50.2380 O   0  0  0  0  0  0  0  0  0  0  0  0
   38.6210   32.5660   48.7020 C   0  0  0  0  0  0  0  0  0  0  0  0
   39.1410   33.7640   49.1630 C   0  0  0  0  0  0  0  0  0  0  0  0
   39.9560   34.5160   48.2810 C   0  0  0  0  0  0  0  0  0  0  0  0
   40.1710   33.9990   47.0230 N   0  0  0  0  0  0  0  0  0  0  0  0
   39.6490   32.8480   46.6310 C   0  0  0  0  0  0  0  0  0  0  0  0
   38.8710   32.1180   47.4590 N   0  0  0  0  0  0  0  0  0  0  0  0
   34.4818   28.3207   50.8031 H   0  0  0  0  0  0  0  0  0  0  0  0
   35.4568   27.4196   49.6007 H   0  0  0  0  0  0  0  0  0  0  0  0
   39.1043   30.4219   49.7911 H   0  0  0  0  0  0  0  0  0  0  0  0
   37.6981   28.6716   48.5686 H   0  0  0  0  0  0  0  0  0  0  0  0
   33.2649   30.0198   50.3700 H   0  0  0  0  0  0  0  0  0  0  0  0
   33.4089   31.0167   48.8827 H   0  0  0  0  0  0  0  0  0  0  0  0
   32.3751   29.5477   48.8827 H   0  0  0  0  0  0  0  0  0  0  0  0
   34.5070   28.5019   46.8082 H   0  0  0  0  0  0  0  0  0  0  0  0
   34.4488   27.1936   48.0950 H   0  0  0  0  0  0  0  0  0  0  0  0
   32.6894   26.4295   48.9982 H   0  0  0  0  0  0  0  0  0  0  0  0
   30.3159   25.8635   49.0369 H   0  0  0  0  0  0  0  0  0  0  0  0
   29.6907   28.9872   46.1573 H   0  0  0  0  0  0  0  0  0  0  0  0
   38.9280   34.1204   50.1816 H   0  0  0  0  0  0  0  0  0  0  0  0
   40.3992   35.4745   48.5889 H   0  0  0  0  0  0  0  0  0  0  0  0
   39.8520   32.4799   45.6145 H   0  0  0  0  0  0  0  0  0  0  0  0
  1 10  1  6
  1  9  1  0
  1  2  1  0
  2  3  1  0
  3  4  1  0
  4  5  2  0
  6  4  1  0
  7  6  1  0
  7  3  1  0
  8  1  1  0
  8  7  1  0
 11 12  1  0
 12 13  2  0
 13 10  1  0
 13 14  1  0
 14 15  2  0
 16 15  1  0
 17 16  1  0
 18 12  1  0
 18 16  2  0
 19  6  1  0
 19 20  2  0
 21 22  2  0
 21 19  1  0
 23 22  1  0
 24 23  2  0
 25 24  1  0
 25 26  2  0
 26 21  1  0
  2 27  1  0
  2 28  1  0
  6 29  1  1
  7 30  1  6
  9 31  1  0
  9 32  1  0
  9 33  1  0
 10 34  1  0
 10 35  1  0
 14 36  1  0
 15 37  1  0
 18 38  1  0
 22 39  1  0
 23 40  1  0
 25 41  1  0
M  ISO  8  27  13  28  13  29  13  30  13  31   8  32   8  33   8  34   8
M  ISO  7  35   8  36  14  37  14  38  14  39  14  40  14  41  14
M  END
>  <minimizedAffinity>  (1) 
-5.72467279

>  <minimizedRMSD>  (1) 
2.23199677

$$$$
