
     RDKit          3D

 41 44  0  0  1  0  0  0  0  0999 V2000
   34.4760   29.1330   48.8510 C   0  0  2  0  0  0  0  0  0  0  0  0
   35.1730   28.4110   49.9730 C   0  0  0  0  0  0  0  0  0  0  0  0
   36.3430   29.1580   50.3640 N   0  0  0  0  0  0  0  0  0  0  0  0
   37.3330   29.8730   51.1080 C   0  0  0  0  0  0  0  0  0  0  0  0
   37.6280   30.0640   52.3120 O   0  0  0  0  0  0  0  0  0  0  0  0
   38.0030   30.3960   49.9230 C   0  0  1  0  0  0  0  0  0  0  0  0
   37.1450   29.3930   49.1930 C   0  0  2  0  0  0  0  0  0  0  0  0
   35.8430   30.1190   48.1440 S   0  0  0  0  0  0  0  0  0  0  0  0
   33.3070   29.9600   49.2800 C   0  0  0  0  0  0  0  0  0  0  0  0
   34.1130   28.1210   47.7710 C   0  0  0  0  0  0  0  0  0  0  0  0
   32.4130   29.6970   45.9760 F   0  0  0  0  0  0  0  0  0  0  0  0
   31.8390   28.7560   46.7450 C   0  0  0  0  0  0  0  0  0  0  0  0
   32.6560   28.0530   47.5960 C   0  0  0  0  0  0  0  0  0  0  0  0
   31.9720   27.1170   48.3820 C   0  0  0  0  0  0  0  0  0  0  0  0
   30.5980   26.9430   48.2860 C   0  0  0  0  0  0  0  0  0  0  0  0
   29.8380   27.6820   47.4110 C   0  0  0  0  0  0  0  0  0  0  0  0
   30.4880   28.5970   46.6380 C   0  0  0  0  0  0  0  0  0  0  0  0
   37.7760   31.8190   49.6180 C   0  0  0  0  0  0  0  0  0  0  0  0
   36.7910   32.3200   50.2300 O   0  0  0  0  0  0  0  0  0  0  0  0
   38.6080   32.5640   48.7080 C   0  0  0  0  0  0  0  0  0  0  0  0
   39.1350   33.7630   49.1680 C   0  0  0  0  0  0  0  0  0  0  0  0
   39.9550   34.5050   48.2800 C   0  0  0  0  0  0  0  0  0  0  0  0
   40.1750   33.9910   47.0230 N   0  0  0  0  0  0  0  0  0  0  0  0
   39.6450   32.8380   46.6380 C   0  0  0  0  0  0  0  0  0  0  0  0
   38.8650   32.1190   47.4650 N   0  0  0  0  0  0  0  0  0  0  0  0
   34.4911   28.3197   50.8313 H   0  0  0  0  0  0  0  0  0  0  0  0
   35.4712   27.4069   49.6370 H   0  0  0  0  0  0  0  0  0  0  0  0
   39.0960   30.4491   49.8107 H   0  0  0  0  0  0  0  0  0  0  0  0
   37.7172   28.6604   48.6049 H   0  0  0  0  0  0  0  0  0  0  0  0
   33.2632   29.9910   50.3787 H   0  0  0  0  0  0  0  0  0  0  0  0
   33.4175   30.9820   48.8885 H   0  0  0  0  0  0  0  0  0  0  0  0
   32.3801   29.5156   48.8885 H   0  0  0  0  0  0  0  0  0  0  0  0
   34.5776   28.4236   46.8210 H   0  0  0  0  0  0  0  0  0  0  0  0
   34.4806   27.1299   48.0752 H   0  0  0  0  0  0  0  0  0  0  0  0
   32.5398   26.5021   49.0958 H   0  0  0  0  0  0  0  0  0  0  0  0
   30.1056   26.1957   48.9256 H   0  0  0  0  0  0  0  0  0  0  0  0
   28.7496   27.5406   47.3377 H   0  0  0  0  0  0  0  0  0  0  0  0
   29.9201   29.2111   45.9235 H   0  0  0  0  0  0  0  0  0  0  0  0
   38.9241   34.1248   50.1852 H   0  0  0  0  0  0  0  0  0  0  0  0
   40.4015   35.4623   48.5870 H   0  0  0  0  0  0  0  0  0  0  0  0
   39.8469   32.4627   45.6239 H   0  0  0  0  0  0  0  0  0  0  0  0
  1 10  1  6
  1  9  1  0
  1  2  1  0
  2  3  1  0
  3  4  1  0
  4  5  2  0
  6  4  1  0
  7  6  1  0
  7  3  1  0
  8  1  1  0
  8  7  1  0
 11 12  1  0
 12 13  2  0
 13 10  1  0
 13 14  1  0
 15 14  2  0
 16 15  1  0
 17 12  1  0
 17 16  2  0
 18  6  1  0
 18 19  2  0
 20 21  2  0
 20 18  1  0
 22 21  1  0
 23 22  2  0
 24 23  1  0
 24 25  2  0
 25 20  1  0
  2 26  1  0
  2 27  1  0
  6 28  1  1
  7 29  1  6
  9 30  1  0
  9 31  1  0
  9 32  1  0
 10 33  1  0
 10 34  1  0
 14 35  1  0
 15 36  1  0
 16 37  1  0
 17 38  1  0
 21 39  1  0
 22 40  1  0
 24 41  1  0
M  ISO  8  26  13  27  13  28  13  29  13  30   8  31   8  32   8  33   8
M  ISO  8  34   8  35  14  36  14  37  14  38  14  39  14  40  14  41  14
M  END
>  <minimizedAffinity>  (1) 
-5.49309826

>  <minimizedRMSD>  (1) 
1.8688159

$$$$
