
     RDKit          3D

 38 41  0  0  1  0  0  0  0  0999 V2000
   34.4760   29.0470   48.9520 C   0  0  2  0  0  0  0  0  0  0  0  0
   35.1890   28.3390   50.0550 C   0  0  0  0  0  0  0  0  0  0  0  0
   36.3610   29.1160   50.4300 N   0  0  0  0  0  0  0  0  0  0  0  0
   37.3560   29.8560   51.1510 C   0  0  0  0  0  0  0  0  0  0  0  0
   37.6600   30.0660   52.3440 O   0  0  0  0  0  0  0  0  0  0  0  0
   38.0000   30.3660   49.9400 C   0  0  1  0  0  0  0  0  0  0  0  0
   37.1380   29.3470   49.2400 C   0  0  2  0  0  0  0  0  0  0  0  0
   35.8120   30.0510   48.2030 S   0  0  0  0  0  0  0  0  0  0  0  0
   33.2940   29.8640   49.3580 C   0  0  0  0  0  0  0  0  0  0  0  0
   34.0960   28.0280   47.8700 C   0  0  0  0  0  0  0  0  0  0  0  0
   32.7360   28.4350   47.3650 C   0  0  0  0  0  0  0  0  0  0  0  0
   31.5100   27.8470   47.6540 C   0  0  0  0  0  0  0  0  0  0  0  0
   30.5190   28.5420   46.9770 C   0  0  0  0  0  0  0  0  0  0  0  0
   31.1580   29.5250   46.3000 N   0  0  0  0  0  0  0  0  0  0  0  0
   32.4570   29.4670   46.5260 N   0  0  0  0  0  0  0  0  0  0  0  0
   37.7480   31.7840   49.6240 C   0  0  0  0  0  0  0  0  0  0  0  0
   36.7440   32.2710   50.2190 O   0  0  0  0  0  0  0  0  0  0  0  0
   38.5770   32.5410   48.7210 C   0  0  0  0  0  0  0  0  0  0  0  0
   39.0990   33.7350   49.1930 C   0  0  0  0  0  0  0  0  0  0  0  0
   39.9200   34.4890   48.3070 C   0  0  0  0  0  0  0  0  0  0  0  0
   40.1370   33.9780   47.0470 N   0  0  0  0  0  0  0  0  0  0  0  0
   39.6110   32.8290   46.6480 C   0  0  0  0  0  0  0  0  0  0  0  0
   38.8340   32.1060   47.4740 N   0  0  0  0  0  0  0  0  0  0  0  0
   34.5200   28.2370   50.9222 H   0  0  0  0  0  0  0  0  0  0  0  0
   35.4961   27.3374   49.7194 H   0  0  0  0  0  0  0  0  0  0  0  0
   39.0899   30.4240   49.8029 H   0  0  0  0  0  0  0  0  0  0  0  0
   37.7047   28.6113   48.6503 H   0  0  0  0  0  0  0  0  0  0  0  0
   33.2357   29.9043   50.4557 H   0  0  0  0  0  0  0  0  0  0  0  0
   33.3984   30.8836   48.9587 H   0  0  0  0  0  0  0  0  0  0  0  0
   32.3771   29.4060   48.9587 H   0  0  0  0  0  0  0  0  0  0  0  0
   34.8293   28.0513   47.0504 H   0  0  0  0  0  0  0  0  0  0  0  0
   34.0834   27.0041   48.2718 H   0  0  0  0  0  0  0  0  0  0  0  0
   31.3525   26.9774   48.3090 H   0  0  0  0  0  0  0  0  0  0  0  0
   29.4383   28.3371   46.9878 H   0  0  0  0  0  0  0  0  0  0  0  0
   30.6963   30.2190   45.6950 H   0  0  0  0  0  0  0  0  0  0  0  0
   38.8871   34.0868   50.2134 H   0  0  0  0  0  0  0  0  0  0  0  0
   40.3650   35.4456   48.6181 H   0  0  0  0  0  0  0  0  0  0  0  0
   39.8120   32.4627   45.6304 H   0  0  0  0  0  0  0  0  0  0  0  0
  1 10  1  6
  1  9  1  0
  1  2  1  0
  2  3  1  0
  3  4  1  0
  4  5  2  0
  6  4  1  0
  7  6  1  0
  7  3  1  0
  8  1  1  0
  8  7  1  0
 11 12  1  0
 11 10  1  0
 13 12  2  0
 14 15  1  0
 14 13  1  0
 15 11  2  0
 16  6  1  0
 16 17  2  0
 18 19  2  0
 18 16  1  0
 20 19  1  0
 21 20  2  0
 22 21  1  0
 22 23  2  0
 23 18  1  0
  2 24  1  0
  2 25  1  0
  6 26  1  1
  7 27  1  6
  9 28  1  0
  9 29  1  0
  9 30  1  0
 10 31  1  0
 10 32  1  0
 12 33  1  0
 13 34  1  0
 14 35  1  0
 19 36  1  0
 20 37  1  0
 22 38  1  0
M  ISO  8  24  13  25  13  26  13  27  13  28   8  29   8  30   8  31   8
M  ISO  7  32   8  33  14  34  14  35   9  36  14  37  14  38  14
M  END
>  <minimizedAffinity>  (1) 
-5.16580772

>  <minimizedRMSD>  (1) 
1.05867755

$$$$
