
     RDKit          3D

 40 43  0  0  1  0  0  0  0  0999 V2000
   34.5420   29.1130   48.6620 C   0  0  2  0  0  0  0  0  0  0  0  0
   35.1780   28.3800   49.7910 C   0  0  0  0  0  0  0  0  0  0  0  0
   36.3070   29.1570   50.2930 N   0  0  0  0  0  0  0  0  0  0  0  0
   37.2580   29.8900   51.0900 C   0  0  0  0  0  0  0  0  0  0  0  0
   37.4650   30.0660   52.3020 O   0  0  0  0  0  0  0  0  0  0  0  0
   37.9780   30.4230   49.9690 C   0  0  1  0  0  0  0  0  0  0  0  0
   37.1570   29.4200   49.1660 C   0  0  2  0  0  0  0  0  0  0  0  0
   35.9470   30.1320   48.0290 S   0  0  0  0  0  0  0  0  0  0  0  0
   33.3320   29.9170   48.9890 C   0  0  0  0  0  0  0  0  0  0  0  0
   34.2690   28.1070   47.5270 C   0  0  0  0  0  0  0  0  0  0  0  0
   34.3140   28.7910   46.3110 O   0  0  0  0  0  0  0  0  0  0  0  0
   37.7540   31.8440   49.6410 C   0  0  0  0  0  0  0  0  0  0  0  0
   36.7370   32.3400   50.2280 O   0  0  0  0  0  0  0  0  0  0  0  0
   38.5820   32.6100   48.7630 C   0  0  0  0  0  0  0  0  0  0  0  0
   39.1540   33.7660   49.2390 C   0  0  0  0  0  0  0  0  0  0  0  0
   39.9660   34.5180   48.3590 C   0  0  0  0  0  0  0  0  0  0  0  0
   40.1330   34.0500   47.0860 N   0  0  0  0  0  0  0  0  0  0  0  0
   39.5670   32.9260   46.6520 C   0  0  0  0  0  0  0  0  0  0  0  0
   38.7890   32.2010   47.4880 N   0  0  0  0  0  0  0  0  0  0  0  0
   39.7710   32.4600   45.2840 C   0  0  0  0  0  0  0  0  0  0  0  0
   40.4520   31.2860   45.0390 C   0  0  0  0  0  0  0  0  0  0  0  0
   40.6250   30.8780   43.7280 C   0  0  0  0  0  0  0  0  0  0  0  0
   40.1420   31.6070   42.7050 N   0  0  0  0  0  0  0  0  0  0  0  0
   39.4770   32.7590   42.9770 C   0  0  0  0  0  0  0  0  0  0  0  0
   39.3020   33.1670   44.2500 N   0  0  0  0  0  0  0  0  0  0  0  0
   34.4431   28.2364   50.5968 H   0  0  0  0  0  0  0  0  0  0  0  0
   35.5312   27.3985   49.4418 H   0  0  0  0  0  0  0  0  0  0  0  0
   39.0759   30.4839   49.9393 H   0  0  0  0  0  0  0  0  0  0  0  0
   37.7596   28.6962   48.5977 H   0  0  0  0  0  0  0  0  0  0  0  0
   33.2237   29.9889   50.0813 H   0  0  0  0  0  0  0  0  0  0  0  0
   33.4363   30.9261   48.5636 H   0  0  0  0  0  0  0  0  0  0  0  0
   32.4422   29.4299   48.5636 H   0  0  0  0  0  0  0  0  0  0  0  0
   35.0353   27.3179   47.5378 H   0  0  0  0  0  0  0  0  0  0  0  0
   33.2810   27.6430   47.6630 H   0  0  0  0  0  0  0  0  0  0  0  0
   34.3780   29.7640   46.4819 H   0  0  0  0  0  0  0  0  0  0  0  0
   38.9849   34.0963   50.2745 H   0  0  0  0  0  0  0  0  0  0  0  0
   40.4480   35.4502   48.6886 H   0  0  0  0  0  0  0  0  0  0  0  0
   40.8501   30.6853   45.8700 H   0  0  0  0  0  0  0  0  0  0  0  0
   41.1658   29.9432   43.5188 H   0  0  0  0  0  0  0  0  0  0  0  0
   39.0772   33.3653   42.1508 H   0  0  0  0  0  0  0  0  0  0  0  0
  1 10  1  6
  1  9  1  0
  1  2  1  0
  2  3  1  0
  3  4  1  0
  4  5  2  0
  6  4  1  0
  7  6  1  0
  7  3  1  0
  8  1  1  0
  8  7  1  0
 11 10  1  0
 12  6  1  0
 12 13  2  0
 14 15  2  0
 14 12  1  0
 16 15  1  0
 17 16  2  0
 18 17  1  0
 18 19  2  0
 19 14  1  0
 20 18  1  0
 21 20  2  0
 22 21  1  0
 23 24  1  0
 23 22  2  0
 24 25  2  0
 25 20  1  0
  2 26  1  0
  2 27  1  0
  6 28  1  1
  7 29  1  6
  9 30  1  0
  9 31  1  0
  9 32  1  0
 10 33  1  0
 10 34  1  0
 11 35  1  0
 15 36  1  0
 16 37  1  0
 21 38  1  0
 22 39  1  0
 24 40  1  0
M  ISO  8  26  13  27  13  28  13  29  13  30   8  31   8  32   8  33   8
M  ISO  7  34   8  35   3  36  14  37  14  38  14  39  14  40  14
M  END
>  <minimizedAffinity>  (1) 
-6.02089834

>  <minimizedRMSD>  (1) 
0.207587227

$$$$
