
     RDKit          3D

 41 44  0  0  1  0  0  0  0  0999 V2000
   34.4990   29.0800   48.7320 C   0  0  2  0  0  0  0  0  0  0  0  0
   35.1340   28.3570   49.8700 C   0  0  0  0  0  0  0  0  0  0  0  0
   36.2730   29.1390   50.3590 N   0  0  0  0  0  0  0  0  0  0  0  0
   37.2230   29.8770   51.1440 C   0  0  0  0  0  0  0  0  0  0  0  0
   37.4340   30.0700   52.3520 O   0  0  0  0  0  0  0  0  0  0  0  0
   37.9450   30.3910   50.0110 C   0  0  1  0  0  0  0  0  0  0  0  0
   37.1190   29.3770   49.2270 C   0  0  2  0  0  0  0  0  0  0  0  0
   35.9080   30.0770   48.0820 S   0  0  0  0  0  0  0  0  0  0  0  0
   33.2940   29.8970   49.0510 C   0  0  0  0  0  0  0  0  0  0  0  0
   34.2150   28.0610   47.6120 C   0  0  0  0  0  0  0  0  0  0  0  0
   34.2340   28.7320   46.3900 O   0  0  0  0  0  0  0  0  0  0  0  0
   37.7280   31.8060   49.6640 C   0  0  0  0  0  0  0  0  0  0  0  0
   36.7220   32.3180   50.2570 O   0  0  0  0  0  0  0  0  0  0  0  0
   38.5510   32.5510   48.7620 C   0  0  0  0  0  0  0  0  0  0  0  0
   39.1340   33.7120   49.2140 C   0  0  0  0  0  0  0  0  0  0  0  0
   39.9450   34.4410   48.3020 C   0  0  0  0  0  0  0  0  0  0  0  0
   40.0940   33.9450   47.0320 N   0  0  0  0  0  0  0  0  0  0  0  0
   39.5140   32.8250   46.6430 C   0  0  0  0  0  0  0  0  0  0  0  0
   38.7430   32.1190   47.4910 N   0  0  0  0  0  0  0  0  0  0  0  0
   39.7330   32.3740   45.2720 C   0  0  0  0  0  0  0  0  0  0  0  0
   40.4160   31.2200   44.9480 C   0  0  0  0  0  0  0  0  0  0  0  0
   40.6260   30.7890   43.6530 C   0  0  0  0  0  0  0  0  0  0  0  0
   40.0930   31.6050   42.6490 C   0  0  0  0  0  0  0  0  0  0  0  0
   39.4060   32.7630   42.9720 C   0  0  0  0  0  0  0  0  0  0  0  0
   39.2430   33.1170   44.2610 N   0  0  0  0  0  0  0  0  0  0  0  0
   34.4007   28.2282   50.6798 H   0  0  0  0  0  0  0  0  0  0  0  0
   35.4800   27.3683   49.5342 H   0  0  0  0  0  0  0  0  0  0  0  0
   39.0430   30.4479   49.9760 H   0  0  0  0  0  0  0  0  0  0  0  0
   37.7163   28.6404   48.6696 H   0  0  0  0  0  0  0  0  0  0  0  0
   33.1813   29.9734   50.1425 H   0  0  0  0  0  0  0  0  0  0  0  0
   33.4097   30.9037   48.6230 H   0  0  0  0  0  0  0  0  0  0  0  0
   32.4017   29.4169   48.6230 H   0  0  0  0  0  0  0  0  0  0  0  0
   34.9876   27.2780   47.6177 H   0  0  0  0  0  0  0  0  0  0  0  0
   33.2330   27.5910   47.7694 H   0  0  0  0  0  0  0  0  0  0  0  0
   34.2617   29.7086   46.5502 H   0  0  0  0  0  0  0  0  0  0  0  0
   38.9782   34.0638   50.2445 H   0  0  0  0  0  0  0  0  0  0  0  0
   40.4387   35.3758   48.6061 H   0  0  0  0  0  0  0  0  0  0  0  0
   40.8167   30.6075   45.7691 H   0  0  0  0  0  0  0  0  0  0  0  0
   41.1765   29.8643   43.4255 H   0  0  0  0  0  0  0  0  0  0  0  0
   40.2210   31.3239   41.5932 H   0  0  0  0  0  0  0  0  0  0  0  0
   38.9921   33.3958   42.1731 H   0  0  0  0  0  0  0  0  0  0  0  0
  1 10  1  6
  1  9  1  0
  1  2  1  0
  2  3  1  0
  3  4  1  0
  4  5  2  0
  6  4  1  0
  7  6  1  0
  7  3  1  0
  8  1  1  0
  8  7  1  0
 11 10  1  0
 12  6  1  0
 12 13  2  0
 14 15  2  0
 14 12  1  0
 16 15  1  0
 17 16  2  0
 18 17  1  0
 18 19  2  0
 19 14  1  0
 20 18  1  0
 21 20  2  0
 22 21  1  0
 23 24  1  0
 23 22  2  0
 24 25  2  0
 25 20  1  0
  2 26  1  0
  2 27  1  0
  6 28  1  1
  7 29  1  6
  9 30  1  0
  9 31  1  0
  9 32  1  0
 10 33  1  0
 10 34  1  0
 11 35  1  0
 15 36  1  0
 16 37  1  0
 21 38  1  0
 22 39  1  0
 23 40  1  0
 24 41  1  0
M  ISO  8  26  13  27  13  28  13  29  13  30   8  31   8  32   8  33   8
M  ISO  8  34   8  35   3  36  14  37  14  38  14  39  14  40  14  41  14
M  END
>  <minimizedAffinity>  (1) 
-6.00280142

>  <minimizedRMSD>  (1) 
0.347134292

$$$$
