
     RDKit          3D

 39 42  0  0  1  0  0  0  0  0999 V2000
   34.5170   29.0790   48.6830 C   0  0  2  0  0  0  0  0  0  0  0  0
   35.1290   28.3490   49.8280 C   0  0  0  0  0  0  0  0  0  0  0  0
   36.2570   29.1260   50.3460 N   0  0  0  0  0  0  0  0  0  0  0  0
   37.1910   29.8560   51.1580 C   0  0  0  0  0  0  0  0  0  0  0  0
   37.3810   30.0350   52.3720 O   0  0  0  0  0  0  0  0  0  0  0  0
   37.9300   30.3850   50.0480 C   0  0  1  0  0  0  0  0  0  0  0  0
   37.1200   29.3810   49.2330 C   0  0  2  0  0  0  0  0  0  0  0  0
   35.9230   30.0960   48.0800 S   0  0  0  0  0  0  0  0  0  0  0  0
   33.3010   29.8850   48.9960 C   0  0  0  0  0  0  0  0  0  0  0  0
   34.2570   28.0740   47.5490 C   0  0  0  0  0  0  0  0  0  0  0  0
   34.2830   28.7610   46.3360 O   0  0  0  0  0  0  0  0  0  0  0  0
   37.7190   31.8050   49.7110 C   0  0  0  0  0  0  0  0  0  0  0  0
   36.6880   32.3020   50.2730 O   0  0  0  0  0  0  0  0  0  0  0  0
   38.5720   32.5640   48.8480 C   0  0  0  0  0  0  0  0  0  0  0  0
   39.0100   33.7950   49.2800 C   0  0  0  0  0  0  0  0  0  0  0  0
   39.8530   34.5340   48.4110 C   0  0  0  0  0  0  0  0  0  0  0  0
   40.1780   33.9870   47.2070 N   0  0  0  0  0  0  0  0  0  0  0  0
   39.7370   32.7970   46.8220 C   0  0  0  0  0  0  0  0  0  0  0  0
   38.9310   32.0740   47.6380 N   0  0  0  0  0  0  0  0  0  0  0  0
   40.0550   32.1640   45.5420 C   0  0  0  0  0  0  0  0  0  0  0  0
   39.7240   32.6330   44.2860 C   0  0  0  0  0  0  0  0  0  0  0  0
   40.1980   31.7600   43.3270 C   0  0  0  0  0  0  0  0  0  0  0  0
   40.8040   30.7820   44.0150 N   0  0  0  0  0  0  0  0  0  0  0  0
   40.7190   31.0220   45.3220 N   0  0  0  0  0  0  0  0  0  0  0  0
   34.3794   28.2145   50.6217 H   0  0  0  0  0  0  0  0  0  0  0  0
   35.4824   27.3631   49.4916 H   0  0  0  0  0  0  0  0  0  0  0  0
   39.0284   30.4439   50.0378 H   0  0  0  0  0  0  0  0  0  0  0  0
   37.7286   28.6553   48.6736 H   0  0  0  0  0  0  0  0  0  0  0  0
   33.1835   29.9629   50.0869 H   0  0  0  0  0  0  0  0  0  0  0  0
   33.4077   30.8918   48.5659 H   0  0  0  0  0  0  0  0  0  0  0  0
   32.4153   29.3945   48.5659 H   0  0  0  0  0  0  0  0  0  0  0  0
   35.0376   27.2990   47.5535 H   0  0  0  0  0  0  0  0  0  0  0  0
   33.2782   27.5920   47.6889 H   0  0  0  0  0  0  0  0  0  0  0  0
   34.3199   29.7350   46.5091 H   0  0  0  0  0  0  0  0  0  0  0  0
   38.7170   34.1914   50.2634 H   0  0  0  0  0  0  0  0  0  0  0  0
   40.2345   35.5238   48.7022 H   0  0  0  0  0  0  0  0  0  0  0  0
   39.1681   33.5598   44.0810 H   0  0  0  0  0  0  0  0  0  0  0  0
   40.0997   31.8480   42.2349 H   0  0  0  0  0  0  0  0  0  0  0  0
   41.2677   29.9643   43.5941 H   0  0  0  0  0  0  0  0  0  0  0  0
  1 10  1  6
  1  9  1  0
  1  2  1  0
  2  3  1  0
  3  4  1  0
  4  5  2  0
  6  4  1  0
  7  6  1  0
  7  3  1  0
  8  1  1  0
  8  7  1  0
 11 10  1  0
 12  6  1  0
 12 13  2  0
 14 15  2  0
 14 12  1  0
 16 15  1  0
 17 16  2  0
 18 17  1  0
 18 19  2  0
 19 14  1  0
 20 18  1  0
 21 20  1  0
 22 23  1  0
 22 21  2  0
 23 24  1  0
 24 20  2  0
  2 25  1  0
  2 26  1  0
  6 27  1  1
  7 28  1  6
  9 29  1  0
  9 30  1  0
  9 31  1  0
 10 32  1  0
 10 33  1  0
 11 34  1  0
 15 35  1  0
 16 36  1  0
 21 37  1  0
 22 38  1  0
 23 39  1  0
M  ISO  8  25  13  26  13  27  13  28  13  29   8  30   8  31   8  32   8
M  ISO  7  33   8  34   3  35  14  36  14  37  14  38  14  39   9
M  END
>  <minimizedAffinity>  (1) 
-5.79657459

>  <minimizedRMSD>  (1) 
0.322226793

$$$$
