
     RDKit          3D

 12 12  0  0  0  0  0  0  0  0999 V2000
   37.8420   30.7690   50.5750 C   0  0  0  0  0  0  0  0  0  0  0  0
   37.5540   31.5680   49.4380 C   0  0  0  0  0  0  0  0  0  0  0  0
   36.6910   31.0400   48.4770 C   0  0  0  0  0  0  0  0  0  0  0  0
   36.1720   29.8010   48.6740 N   0  0  0  0  0  0  0  0  0  0  0  0
   36.4670   29.0660   49.7670 C   0  0  0  0  0  0  0  0  0  0  0  0
   37.2900   29.5380   50.7100 N   0  0  0  0  0  0  0  0  0  0  0  0
   38.1780   32.9000   49.3370 C   0  0  0  0  0  0  0  0  0  0  0  0
   38.9610   33.0490   48.3890 O   0  0  0  0  0  0  0  0  0  0  0  0
   38.5187   31.1516   51.3532 H   0  0  0  0  0  0  0  0  0  0  0  0
   36.4358   31.6172   47.5761 H   0  0  0  0  0  0  0  0  0  0  0  0
   36.0248   28.0656   49.8838 H   0  0  0  0  0  0  0  0  0  0  0  0
   37.9630   33.7059   50.0542 H   0  0  0  0  0  0  0  0  0  0  0  0
  1  6  2  0
  2  1  1  0
  3  4  1  0
  3  2  2  0
  4  5  2  0
  5  6  1  0
  7  2  1  0
  8  7  2  0
  1  9  1  0
  3 10  1  0
  5 11  1  0
  7 12  1  0
M  ISO  4   9  14  10  14  11  14  12   6
M  END
>  <minimizedAffinity>  (1) 
-3.22803259

>  <minimizedRMSD>  (1) 
1.72829068

$$$$
