
     RDKit          3D

 22 23  0  0  0  0  0  0  0  0999 V2000
   37.1110   30.9400   47.6890 C   0  0  0  0  0  0  0  0  0  0  0  0
   36.9790   30.6310   46.5070 O   0  0  0  0  0  0  0  0  0  0  0  0
   37.8370   32.7820   49.1420 C   0  0  0  0  0  0  0  0  0  0  0  0
   38.0290   32.0480   47.9550 C   0  0  0  0  0  0  0  0  0  0  0  0
   39.0730   32.4240   47.1270 C   0  0  0  0  0  0  0  0  0  0  0  0
   39.8620   33.4780   47.4920 N   0  0  0  0  0  0  0  0  0  0  0  0
   39.6560   34.1660   48.6380 C   0  0  0  0  0  0  0  0  0  0  0  0
   38.6500   33.8300   49.4700 N   0  0  0  0  0  0  0  0  0  0  0  0
   38.5230   29.7100   49.8320 F   0  0  0  0  0  0  0  0  0  0  0  0
   37.1790   29.7590   49.9030 C   0  0  0  0  0  0  0  0  0  0  0  0
   36.4750   30.3510   48.8740 C   0  0  0  0  0  0  0  0  0  0  0  0
   35.0880   30.4180   48.9170 C   0  0  0  0  0  0  0  0  0  0  0  0
   34.3500   29.9040   49.9730 C   0  0  0  0  0  0  0  0  0  0  0  0
   35.0760   29.3170   50.9910 C   0  0  0  0  0  0  0  0  0  0  0  0
   36.4620   29.2420   50.9630 C   0  0  0  0  0  0  0  0  0  0  0  0
   37.0153   32.5056   49.8190 H   0  0  0  0  0  0  0  0  0  0  0  0
   39.2644   31.8821   46.1891 H   0  0  0  0  0  0  0  0  0  0  0  0
   40.3159   35.0081   48.8937 H   0  0  0  0  0  0  0  0  0  0  0  0
   34.5550   30.8967   48.0822 H   0  0  0  0  0  0  0  0  0  0  0  0
   33.2517   29.9605   49.9983 H   0  0  0  0  0  0  0  0  0  0  0  0
   34.5380   28.8949   51.8526 H   0  0  0  0  0  0  0  0  0  0  0  0
   36.9962   28.7639   51.7973 H   0  0  0  0  0  0  0  0  0  0  0  0
  1  4  1  0
  1 11  1  0
  2  1  2  0
  3  8  2  0
  4  3  1  0
  5  6  1  0
  5  4  2  0
  6  7  2  0
  7  8  1  0
  9 10  1  0
 10 15  2  0
 11 12  2  0
 11 10  1  0
 12 13  1  0
 13 14  2  0
 15 14  1  0
  3 16  1  0
  5 17  1  0
  7 18  1  0
 12 19  1  0
 13 20  1  0
 14 21  1  0
 15 22  1  0
M  ISO  7  16  14  17  14  18  14  19  14  20  14  21  14  22  14
M  END
>  <minimizedAffinity>  (1) 
-5.19272709

>  <minimizedRMSD>  (1) 
4.6479969

$$$$
