
     RDKit          3D

 26 27  0  0  0  0  0  0  0  0999 V2000
   37.6010   30.4400   50.9620 C   0  0  0  0  0  0  0  0  0  0  0  0
   38.3570   31.3510   50.1860 C   0  0  0  0  0  0  0  0  0  0  0  0
   37.8690   31.6820   48.9010 C   0  0  0  0  0  0  0  0  0  0  0  0
   36.7030   31.1010   48.4980 N   0  0  0  0  0  0  0  0  0  0  0  0
   36.0080   30.2360   49.2700 C   0  0  0  0  0  0  0  0  0  0  0  0
   36.4650   29.9120   50.4990 N   0  0  0  0  0  0  0  0  0  0  0  0
   34.7430   29.6430   48.7570 C   0  0  0  0  0  0  0  0  0  0  0  0
   34.7120   29.9040   47.2730 C   0  0  0  0  0  0  0  0  0  0  0  0
   33.7260   29.0880   46.5120 C   0  0  0  0  0  0  0  0  0  0  0  0
   32.8080   28.4180   47.5180 C   0  0  0  0  0  0  0  0  0  0  0  0
   33.6700   27.4300   48.2790 C   0  0  0  0  0  0  0  0  0  0  0  0
   34.6510   28.2040   49.1240 C   0  0  0  0  0  0  0  0  0  0  0  0
   37.9559   30.1617   51.9653 H   0  0  0  0  0  0  0  0  0  0  0  0
   39.2916   31.7863   50.5694 H   0  0  0  0  0  0  0  0  0  0  0  0
   38.4107   32.3834   48.2494 H   0  0  0  0  0  0  0  0  0  0  0  0
   33.8532   30.1015   49.2130 H   0  0  0  0  0  0  0  0  0  0  0  0
   34.4687   30.9655   47.1180 H   0  0  0  0  0  0  0  0  0  0  0  0
   35.7044   29.6236   46.8903 H   0  0  0  0  0  0  0  0  0  0  0  0
   33.1401   29.7358   45.8434 H   0  0  0  0  0  0  0  0  0  0  0  0
   34.2412   28.3342   45.8985 H   0  0  0  0  0  0  0  0  0  0  0  0
   32.3851   29.1650   48.2059 H   0  0  0  0  0  0  0  0  0  0  0  0
   31.9643   27.9167   47.0212 H   0  0  0  0  0  0  0  0  0  0  0  0
   33.0361   26.8048   48.9249 H   0  0  0  0  0  0  0  0  0  0  0  0
   34.2095   26.7794   47.5750 H   0  0  0  0  0  0  0  0  0  0  0  0
   35.6461   27.7502   49.0063 H   0  0  0  0  0  0  0  0  0  0  0  0
   34.2917   28.1569   50.1626 H   0  0  0  0  0  0  0  0  0  0  0  0
  2  1  2  0
  3  2  1  0
  4  3  2  0
  4  5  1  0
  5  6  2  0
  6  1  1  0
  7 12  1  0
  7  5  1  0
  8  7  1  0
  9  8  1  0
  9 10  1  0
 10 11  1  0
 11 12  1  0
  1 13  1  0
  2 14  1  0
  3 15  1  0
  7 16  1  0
  8 17  1  0
  8 18  1  0
  9 19  1  0
  9 20  1  0
 10 21  1  0
 10 22  1  0
 11 23  1  0
 11 24  1  0
 12 25  1  0
 12 26  1  0
M  ISO  8  13  14  14  14  15  14  16  13  17  13  18  13  19  13  20  13
M  ISO  6  21  13  22  13  23  13  24  13  25  13  26  13
M  END
>  <minimizedAffinity>  (1) 
-4.47312164

>  <minimizedRMSD>  (1) 
1.57671535

$$$$
