
     RDKit          3D

 19 20  0  0  0  0  0  0  0  0999 V2000
   37.5310   31.2480   47.9700 C   0  0  0  0  0  0  0  0  0  0  0  0
   37.3810   30.7830   46.8340 O   0  0  0  0  0  0  0  0  0  0  0  0
   37.5430   29.9140   50.0940 C   0  0  0  0  0  0  0  0  0  0  0  0
   36.8170   30.5530   49.0450 C   0  0  0  0  0  0  0  0  0  0  0  0
   35.4250   30.4850   49.0950 C   0  0  0  0  0  0  0  0  0  0  0  0
   34.8190   29.8240   50.1210 N   0  0  0  0  0  0  0  0  0  0  0  0
   35.5530   29.2340   51.0910 C   0  0  0  0  0  0  0  0  0  0  0  0
   36.8820   29.2730   51.0860 N   0  0  0  0  0  0  0  0  0  0  0  0
   38.3680   32.4100   48.1890 C   0  0  0  0  0  0  0  0  0  0  0  0
   39.2250   32.8840   47.2210 C   0  0  0  0  0  0  0  0  0  0  0  0
   39.8190   33.9650   47.8010 N   0  0  0  0  0  0  0  0  0  0  0  0
   39.3630   34.1550   49.0520 C   0  0  0  0  0  0  0  0  0  0  0  0
   38.4470   33.1760   49.3020 N   0  0  0  0  0  0  0  0  0  0  0  0
   38.6426   29.9424   50.0965 H   0  0  0  0  0  0  0  0  0  0  0  0
   34.8195   30.9624   48.3105 H   0  0  0  0  0  0  0  0  0  0  0  0
   35.0365   28.7072   51.9069 H   0  0  0  0  0  0  0  0  0  0  0  0
   39.3920   32.4822   46.2107 H   0  0  0  0  0  0  0  0  0  0  0  0
   40.5244   34.5585   47.3416 H   0  0  0  0  0  0  0  0  0  0  0  0
   39.6715   34.9519   49.7447 H   0  0  0  0  0  0  0  0  0  0  0  0
  1  9  1  0
  1  4  1  0
  2  1  2  0
  3  8  2  0
  4  5  2  0
  4  3  1  0
  5  6  1  0
  6  7  2  0
  8  7  1  0
  9 13  1  0
 10 11  1  0
 10  9  2  0
 11 12  1  0
 12 13  2  0
  3 14  1  0
  5 15  1  0
  7 16  1  0
 10 17  1  0
 11 18  1  0
 12 19  1  0
M  ISO  6  14  14  15  14  16  14  17  14  18   9  19  14
M  END
>  <minimizedAffinity>  (1) 
-4.50397968

>  <minimizedRMSD>  (1) 
2.63216257

$$$$
