
     RDKit          3D

 19 20  0  0  0  0  0  0  0  0999 V2000
   38.3240   31.3430   50.1350 C   0  0  0  0  0  0  0  0  0  0  0  0
   38.1060   31.3410   48.7270 C   0  0  0  0  0  0  0  0  0  0  0  0
   37.2550   30.3640   48.1840 C   0  0  0  0  0  0  0  0  0  0  0  0
   36.6910   29.4810   49.0340 N   0  0  0  0  0  0  0  0  0  0  0  0
   36.9160   29.5080   50.3560 C   0  0  0  0  0  0  0  0  0  0  0  0
   37.7150   30.4160   50.9130 N   0  0  0  0  0  0  0  0  0  0  0  0
   38.7970   32.3770   47.9230 C   0  0  0  0  0  0  0  0  0  0  0  0
   39.1540   33.3730   48.5820 O   0  0  0  0  0  0  0  0  0  0  0  0
   39.0340   32.2290   46.4700 C   0  0  0  0  0  0  0  0  0  0  0  0
   40.2060   32.8930   45.8310 C   0  0  0  0  0  0  0  0  0  0  0  0
   40.1280   31.3810   45.9530 C   0  0  0  0  0  0  0  0  0  0  0  0
   38.9853   32.0955   50.5893 H   0  0  0  0  0  0  0  0  0  0  0  0
   37.0554   30.3204   47.1031 H   0  0  0  0  0  0  0  0  0  0  0  0
   36.4273   28.7598   50.9974 H   0  0  0  0  0  0  0  0  0  0  0  0
   37.9462   32.2517   46.3080 H   0  0  0  0  0  0  0  0  0  0  0  0
   40.9217   33.4613   46.4432 H   0  0  0  0  0  0  0  0  0  0  0  0
   40.3504   33.6075   45.0072 H   0  0  0  0  0  0  0  0  0  0  0  0
   39.9698   30.7634   45.0566 H   0  0  0  0  0  0  0  0  0  0  0  0
   40.7747   30.5984   46.3764 H   0  0  0  0  0  0  0  0  0  0  0  0
  1  6  2  0
  2  1  1  0
  3  2  2  0
  3  4  1  0
  4  5  2  0
  5  6  1  0
  7  8  2  0
  7  2  1  0
  9  7  1  0
 10 11  1  0
 10  9  1  0
 11  9  1  0
  1 12  1  0
  3 13  1  0
  5 14  1  0
  9 15  1  0
 10 16  1  0
 10 17  1  0
 11 18  1  0
 11 19  1  0
M  ISO  8  12  14  13  14  14  14  15  13  16  13  17  13  18  13  19  13
M  END
>  <minimizedAffinity>  (1) 
-4.36282444

>  <minimizedRMSD>  (1) 
3.15661645

$$$$
