
     RDKit          3D

 18 18  0  0  0  0  0  0  0  0999 V2000
   36.5090   29.3350   49.1070 C   0  0  0  0  0  0  0  0  0  0  0  0
   36.3380   30.1790   47.9650 C   0  0  0  0  0  0  0  0  0  0  0  0
   35.0520   30.2800   47.4060 C   0  0  0  0  0  0  0  0  0  0  0  0
   34.0470   29.5730   47.9790 N   0  0  0  0  0  0  0  0  0  0  0  0
   34.2510   28.7930   49.0510 C   0  0  0  0  0  0  0  0  0  0  0  0
   35.4500   28.6700   49.6080 N   0  0  0  0  0  0  0  0  0  0  0  0
   37.5210   30.8930   47.4420 C   0  0  0  0  0  0  0  0  0  0  0  0
   38.2240   30.2350   46.6700 O   0  0  0  0  0  0  0  0  0  0  0  0
   37.7860   32.2140   47.8190 O   0  0  0  0  0  0  0  0  0  0  0  0
   39.1510   33.8030   49.3550 O   0  0  0  0  0  0  0  0  0  0  0  0
   38.1930   32.6160   49.4320 P   0  0  0  0  0  0  0  0  0  0  0  0
   38.9200   31.3500   50.2410 O   0  0  0  0  0  0  0  0  0  0  0  0
   36.7710   33.1230   50.1920 O   0  0  0  0  0  0  0  0  0  0  0  0
   37.4996   29.2295   49.5735 H   0  0  0  0  0  0  0  0  0  0  0  0
   34.8662   30.9154   46.5275 H   0  0  0  0  0  0  0  0  0  0  0  0
   33.4022   28.2404   49.4802 H   0  0  0  0  0  0  0  0  0  0  0  0
   38.8384   31.4920   51.2174 H   0  0  0  0  0  0  0  0  0  0  0  0
   36.8887   33.0810   51.1741 H   0  0  0  0  0  0  0  0  0  0  0  0
  1  6  2  0
  2  1  1  0
  3  2  2  0
  3  4  1  0
  4  5  2  0
  5  6  1  0
  7  9  1  0
  7  2  1  0
  8  7  2  0
  9 11  1  0
 10 11  2  0
 11 13  1  0
 11 12  1  0
  1 14  1  0
  3 15  1  0
  5 16  1  0
 12 17  1  0
 13 18  1  0
M  ISO  5  14  14  15  14  16  14  17   3  18   3
M  END
>  <minimizedAffinity>  (1) 
-4.00389957

>  <minimizedRMSD>  (1) 
2.80135608

$$$$
