
     RDKit          3D

 37 39  0  0  0  0  0  0  0  0999 V2000
   35.4480   29.9870   48.2150 C   0  0  0  0  0  0  0  0  0  0  0  0
   35.5280   29.7770   49.5670 C   0  0  0  0  0  0  0  0  0  0  0  0
   36.7240   29.9810   50.2250 C   0  0  0  0  0  0  0  0  0  0  0  0
   37.7940   30.3970   49.4420 C   0  0  0  0  0  0  0  0  0  0  0  0
   37.6970   30.6030   48.0900 C   0  0  0  0  0  0  0  0  0  0  0  0
   36.5070   30.3950   47.4610 N   0  0  0  0  0  0  0  0  0  0  0  0
   38.8400   31.0470   47.2530 C   0  0  0  0  0  0  0  0  0  0  0  0
   38.5700   30.5690   45.8480 C   0  0  0  0  0  0  0  0  0  0  0  0
   39.6020   31.1350   44.8720 C   0  0  0  0  0  0  0  0  0  0  0  0
   39.3650   32.6480   44.9070 C   0  0  0  0  0  0  0  0  0  0  0  0
   39.8680   33.1080   46.2640 C   0  0  0  0  0  0  0  0  0  0  0  0
   39.0450   32.5170   47.3530 C   0  0  0  0  0  0  0  0  0  0  0  0
   34.1480   29.7520   47.5760 C   0  0  0  0  0  0  0  0  0  0  0  0
   33.5220   30.6650   47.0310 O   0  0  0  0  0  0  0  0  0  0  0  0
   33.9760   27.4780   46.6290 C   0  0  0  0  0  0  0  0  0  0  0  0
   33.5300   28.4250   47.5570 C   0  0  0  0  0  0  0  0  0  0  0  0
   32.5070   28.0620   48.4280 C   0  0  0  0  0  0  0  0  0  0  0  0
   31.9800   26.8010   48.3490 N   0  0  0  0  0  0  0  0  0  0  0  0
   32.4430   25.9120   47.4320 C   0  0  0  0  0  0  0  0  0  0  0  0
   33.4170   26.2410   46.5930 N   0  0  0  0  0  0  0  0  0  0  0  0
   34.6406   29.4465   50.1267 H   0  0  0  0  0  0  0  0  0  0  0  0
   36.8246   29.8231   51.3089 H   0  0  0  0  0  0  0  0  0  0  0  0
   38.7647   30.5692   49.9300 H   0  0  0  0  0  0  0  0  0  0  0  0
   39.7875   30.6122   47.6040 H   0  0  0  0  0  0  0  0  0  0  0  0
   38.6179   29.4703   45.8258 H   0  0  0  0  0  0  0  0  0  0  0  0
   37.5713   30.9160   45.5443 H   0  0  0  0  0  0  0  0  0  0  0  0
   39.4391   30.7383   43.8590 H   0  0  0  0  0  0  0  0  0  0  0  0
   40.6324   30.8643   45.1457 H   0  0  0  0  0  0  0  0  0  0  0  0
   39.9263   33.1435   44.1011 H   0  0  0  0  0  0  0  0  0  0  0  0
   38.3039   32.8976   44.7599 H   0  0  0  0  0  0  0  0  0  0  0  0
   40.9141   32.7915   46.3885 H   0  0  0  0  0  0  0  0  0  0  0  0
   39.7942   34.2042   46.3176 H   0  0  0  0  0  0  0  0  0  0  0  0
   38.0578   33.0019   47.3374 H   0  0  0  0  0  0  0  0  0  0  0  0
   39.5988   32.6893   48.2877 H   0  0  0  0  0  0  0  0  0  0  0  0
   34.7820   27.7362   45.9263 H   0  0  0  0  0  0  0  0  0  0  0  0
   32.1268   28.7791   49.1704 H   0  0  0  0  0  0  0  0  0  0  0  0
   32.0040   24.9045   47.3843 H   0  0  0  0  0  0  0  0  0  0  0  0
  1  2  2  0
  2  3  1  0
  4  3  2  0
  5  4  1  0
  6  5  2  0
  6  1  1  0
  7 12  1  0
  7  5  1  0
  8  7  1  0
  9 10  1  0
  9  8  1  0
 10 11  1  0
 11 12  1  0
 13  1  1  0
 14 13  2  0
 15 16  2  0
 16 13  1  0
 16 17  1  0
 18 17  2  0
 19 18  1  0
 20 15  1  0
 20 19  2  0
  2 21  1  0
  3 22  1  0
  4 23  1  0
  7 24  1  0
  8 25  1  0
  8 26  1  0
  9 27  1  0
  9 28  1  0
 10 29  1  0
 10 30  1  0
 11 31  1  0
 11 32  1  0
 12 33  1  0
 12 34  1  0
 15 35  1  0
 17 36  1  0
 19 37  1  0
M  ISO  8  21  14  22  14  23  14  24  13  25  13  26  13  27  13  28  13
M  ISO  8  29  13  30  13  31  13  32  13  33  13  34  13  35  14  36  14
M  ISO  1  37  14
M  END
>  <minimizedAffinity>  (1) 
-5.6315093

>  <minimizedRMSD>  (1) 
4.44364548

$$$$
