
     RDKit          3D

 30 32  0  0  0  0  0  0  0  0999 V2000
   35.4560   29.9190   47.9150 C   0  0  0  0  0  0  0  0  0  0  0  0
   35.7070   29.5390   49.2080 C   0  0  0  0  0  0  0  0  0  0  0  0
   36.9490   29.7390   49.7780 C   0  0  0  0  0  0  0  0  0  0  0  0
   37.8970   30.3370   48.9620 C   0  0  0  0  0  0  0  0  0  0  0  0
   37.6350   30.7150   47.6590 C   0  0  0  0  0  0  0  0  0  0  0  0
   36.3940   30.5060   47.1170 N   0  0  0  0  0  0  0  0  0  0  0  0
   38.6840   31.3400   46.8600 C   0  0  0  0  0  0  0  0  0  0  0  0
   39.0780   32.6340   47.1480 C   0  0  0  0  0  0  0  0  0  0  0  0
   40.0840   33.1890   46.3570 C   0  0  0  0  0  0  0  0  0  0  0  0
   40.5870   32.3800   45.3590 C   0  0  0  0  0  0  0  0  0  0  0  0
   40.2030   31.0880   45.0620 C   0  0  0  0  0  0  0  0  0  0  0  0
   39.2210   30.6090   45.8690 N   0  0  0  0  0  0  0  0  0  0  0  0
   34.1230   29.6670   47.3980 C   0  0  0  0  0  0  0  0  0  0  0  0
   33.4550   30.5650   46.8790 O   0  0  0  0  0  0  0  0  0  0  0  0
   33.9610   27.3200   46.5900 C   0  0  0  0  0  0  0  0  0  0  0  0
   33.4950   28.3360   47.4630 C   0  0  0  0  0  0  0  0  0  0  0  0
   32.4760   28.0440   48.3380 C   0  0  0  0  0  0  0  0  0  0  0  0
   31.9450   26.7820   48.3360 N   0  0  0  0  0  0  0  0  0  0  0  0
   32.4040   25.8210   47.4930 C   0  0  0  0  0  0  0  0  0  0  0  0
   33.3820   26.0900   46.6500 N   0  0  0  0  0  0  0  0  0  0  0  0
   34.9081   29.0683   49.7998 H   0  0  0  0  0  0  0  0  0  0  0  0
   37.1719   29.4427   50.8136 H   0  0  0  0  0  0  0  0  0  0  0  0
   38.9023   30.5186   49.3699 H   0  0  0  0  0  0  0  0  0  0  0  0
   38.6163   33.2031   47.9684 H   0  0  0  0  0  0  0  0  0  0  0  0
   40.4546   34.2119   46.5194 H   0  0  0  0  0  0  0  0  0  0  0  0
   41.3807   32.8118   44.7316 H   0  0  0  0  0  0  0  0  0  0  0  0
   40.6509   30.5004   44.2470 H   0  0  0  0  0  0  0  0  0  0  0  0
   34.7748   27.5224   45.8781 H   0  0  0  0  0  0  0  0  0  0  0  0
   32.0938   28.8108   49.0278 H   0  0  0  0  0  0  0  0  0  0  0  0
   31.9587   24.8154   47.5134 H   0  0  0  0  0  0  0  0  0  0  0  0
  1  2  2  0
  2  3  1  0
  4  3  2  0
  5  4  1  0
  6  5  2  0
  6  1  1  0
  7  8  2  0
  7  5  1  0
  9  8  1  0
 10  9  2  0
 11 10  1  0
 11 12  2  0
 12  7  1  0
 13 16  1  0
 13  1  1  0
 14 13  2  0
 15 20  2  0
 15 16  1  0
 16 17  2  0
 18 17  1  0
 19 18  2  0
 20 19  1  0
  2 21  1  0
  3 22  1  0
  4 23  1  0
  8 24  1  0
  9 25  1  0
 10 26  1  0
 11 27  1  0
 15 28  1  0
 17 29  1  0
 19 30  1  0
M  ISO  8  21  14  22  14  23  14  24  14  25  14  26  14  27  14  28  14
M  ISO  2  29  14  30  14
M  END
>  <minimizedAffinity>  (1) 
-5.56675673

>  <minimizedRMSD>  (1) 
4.50363255

$$$$
