
     RDKit          3D

 31 33  0  0  0  0  0  0  0  0999 V2000
   38.4270   31.4950   46.2460 C   0  0  0  0  0  0  0  0  0  0  0  0
   39.1140   32.5260   46.8710 C   0  0  0  0  0  0  0  0  0  0  0  0
   40.2110   33.0810   46.2400 C   0  0  0  0  0  0  0  0  0  0  0  0
   40.5470   32.5470   45.0010 C   0  0  0  0  0  0  0  0  0  0  0  0
   39.8590   31.5270   44.3990 C   0  0  0  0  0  0  0  0  0  0  0  0
   38.7720   30.9850   45.0340 N   0  0  0  0  0  0  0  0  0  0  0  0
   38.8160   33.0610   42.0740 Cl  0  0  0  0  0  0  0  0  0  0  0  0
   39.8250   31.6170   41.9380 C   0  0  0  0  0  0  0  0  0  0  0  0
   40.2430   30.9970   43.1020 C   0  0  0  0  0  0  0  0  0  0  0  0
   41.0220   29.8860   42.9220 C   0  0  0  0  0  0  0  0  0  0  0  0
   41.3790   29.3940   41.6730 C   0  0  0  0  0  0  0  0  0  0  0  0
   40.9130   30.0810   40.5670 C   0  0  0  0  0  0  0  0  0  0  0  0
   41.3540   29.4760   38.9810 Cl  0  0  0  0  0  0  0  0  0  0  0  0
   40.1240   31.2100   40.6550 C   0  0  0  0  0  0  0  0  0  0  0  0
   37.2820   30.9470   46.9620 C   0  0  0  0  0  0  0  0  0  0  0  0
   36.2730   30.5730   46.3640 O   0  0  0  0  0  0  0  0  0  0  0  0
   37.4780   29.5330   49.0020 C   0  0  0  0  0  0  0  0  0  0  0  0
   37.2650   30.8100   48.4270 C   0  0  0  0  0  0  0  0  0  0  0  0
   37.0500   31.8790   49.2640 C   0  0  0  0  0  0  0  0  0  0  0  0
   37.0530   31.6520   50.6180 N   0  0  0  0  0  0  0  0  0  0  0  0
   37.2600   30.4250   51.1380 C   0  0  0  0  0  0  0  0  0  0  0  0
   37.4710   29.3710   50.3430 N   0  0  0  0  0  0  0  0  0  0  0  0
   38.7899   32.8963   47.8548 H   0  0  0  0  0  0  0  0  0  0  0  0
   40.7873   33.9009   46.6934 H   0  0  0  0  0  0  0  0  0  0  0  0
   41.4157   32.9681   44.4737 H   0  0  0  0  0  0  0  0  0  0  0  0
   41.3847   29.3544   43.8141 H   0  0  0  0  0  0  0  0  0  0  0  0
   42.0057   28.4961   41.5681 H   0  0  0  0  0  0  0  0  0  0  0  0
   39.7601   31.7462   39.7661 H   0  0  0  0  0  0  0  0  0  0  0  0
   37.6509   28.6643   48.3497 H   0  0  0  0  0  0  0  0  0  0  0  0
   36.8803   32.8881   48.8602 H   0  0  0  0  0  0  0  0  0  0  0  0
   37.2552   30.2897   52.2296 H   0  0  0  0  0  0  0  0  0  0  0  0
  1  2  2  0
  1 15  1  0
  3  2  1  0
  4  3  2  0
  5  4  1  0
  5  6  2  0
  6  1  1  0
  8  7  1  0
  8  9  2  0
  9  5  1  0
 10  9  1  0
 11 10  2  0
 12 14  2  0
 12 11  1  0
 13 12  1  0
 14  8  1  0
 15 18  1  0
 16 15  2  0
 17 22  2  0
 18 17  1  0
 18 19  2  0
 19 20  1  0
 20 21  2  0
 22 21  1  0
  2 23  1  0
  3 24  1  0
  4 25  1  0
 10 26  1  0
 11 27  1  0
 14 28  1  0
 17 29  1  0
 19 30  1  0
 21 31  1  0
M  ISO  8  23  14  24  14  25  14  26  14  27  14  28  14  29  14  30  14
M  ISO  1  31  14
M  END
>  <minimizedAffinity>  (1) 
-5.51195145

>  <minimizedRMSD>  (1) 
4.03371716

$$$$
