
     RDKit          3D

 34 36  0  0  0  0  0  0  0  0999 V2000
   38.1830   31.7540   46.1870 C   0  0  0  0  0  0  0  0  0  0  0  0
   39.1170   32.4490   46.9230 C   0  0  0  0  0  0  0  0  0  0  0  0
   40.1130   33.1660   46.2640 C   0  0  0  0  0  0  0  0  0  0  0  0
   40.0820   33.1190   44.8780 C   0  0  0  0  0  0  0  0  0  0  0  0
   39.1490   32.4240   44.1570 C   0  0  0  0  0  0  0  0  0  0  0  0
   38.2040   31.7440   44.8370 N   0  0  0  0  0  0  0  0  0  0  0  0
   39.7770   31.3680   42.0170 C   0  0  0  0  0  0  0  0  0  0  0  0
   39.1640   32.4080   42.6980 C   0  0  0  0  0  0  0  0  0  0  0  0
   38.5760   33.4130   41.9600 C   0  0  0  0  0  0  0  0  0  0  0  0
   38.5630   33.4440   40.5770 C   0  0  0  0  0  0  0  0  0  0  0  0
   39.1610   32.4300   39.8760 C   0  0  0  0  0  0  0  0  0  0  0  0
   39.7430   31.4350   40.6330 C   0  0  0  0  0  0  0  0  0  0  0  0
   40.5530   30.0400   42.8030 S   0  0  0  0  0  0  0  0  0  0  0  0
   41.5930   29.4720   41.8450 O   0  0  0  0  0  0  0  0  0  0  0  0
   39.6190   28.9280   43.1750 O   0  0  0  0  0  0  0  0  0  0  0  0
   37.1720   31.0250   46.9350 C   0  0  0  0  0  0  0  0  0  0  0  0
   36.2240   30.4860   46.3630 O   0  0  0  0  0  0  0  0  0  0  0  0
   37.5310   29.6220   48.9560 C   0  0  0  0  0  0  0  0  0  0  0  0
   37.2290   30.8920   48.4010 C   0  0  0  0  0  0  0  0  0  0  0  0
   37.0020   31.9490   49.2500 C   0  0  0  0  0  0  0  0  0  0  0  0
   37.0730   31.7440   50.6010 N   0  0  0  0  0  0  0  0  0  0  0  0
   37.3670   30.5060   51.1080 C   0  0  0  0  0  0  0  0  0  0  0  0
   37.5890   29.4810   50.3070 N   0  0  0  0  0  0  0  0  0  0  0  0
   39.0767   32.4379   48.0222 H   0  0  0  0  0  0  0  0  0  0  0  0
   40.8789   33.7359   46.8105 H   0  0  0  0  0  0  0  0  0  0  0  0
   40.8540   33.6739   44.3248 H   0  0  0  0  0  0  0  0  0  0  0  0
   38.0893   34.2374   42.5018 H   0  0  0  0  0  0  0  0  0  0  0  0
   38.0770   34.2751   40.0450 H   0  0  0  0  0  0  0  0  0  0  0  0
   39.1760   32.4107   38.7763 H   0  0  0  0  0  0  0  0  0  0  0  0
   40.2278   30.6139   40.0846 H   0  0  0  0  0  0  0  0  0  0  0  0
   41.0953   30.5210   43.9655 H   0  0  0  0  0  0  0  0  0  0  0  0
   37.7166   28.7592   48.2994 H   0  0  0  0  0  0  0  0  0  0  0  0
   36.7665   32.9458   48.8489 H   0  0  0  0  0  0  0  0  0  0  0  0
   37.4188   30.3642   52.1976 H   0  0  0  0  0  0  0  0  0  0  0  0
  1  2  2  0
  1 16  1  0
  3  2  1  0
  4  3  2  0
  5  6  2  0
  5  4  1  0
  6  1  1  0
  7  8  2  0
  7 13  1  0
  8  5  1  0
  9  8  1  0
 10  9  2  0
 11 10  1  0
 11 12  2  0
 12  7  1  0
 13 15  2  0
 14 13  2  0
 16 19  1  0
 17 16  2  0
 18 23  2  0
 19 18  1  0
 19 20  2  0
 20 21  1  0
 21 22  2  0
 23 22  1  0
  2 24  1  0
  3 25  1  0
  4 26  1  0
  9 27  1  0
 10 28  1  0
 11 29  1  0
 12 30  1  0
 13 31  1  0
 18 32  1  0
 20 33  1  0
 22 34  1  0
M  ISO  8  24  14  25  14  26  14  27  14  28  14  29  14  30  14  31  11
M  ISO  3  32  14  33  14  34  14
M  END
>  <minimizedAffinity>  (1) 
-5.37767363

>  <minimizedRMSD>  (1) 
3.42823315

$$$$
