
     RDKit          3D

 28 30  0  0  0  0  0  0  0  0999 V2000
   35.1260   29.5160   48.1460 C   0  0  0  0  0  0  0  0  0  0  0  0
   35.3470   29.0170   49.4200 C   0  0  0  0  0  0  0  0  0  0  0  0
   36.5640   29.2290   50.0340 C   0  0  0  0  0  0  0  0  0  0  0  0
   37.5080   29.9510   49.3060 C   0  0  0  0  0  0  0  0  0  0  0  0
   37.2670   30.4370   48.0470 C   0  0  0  0  0  0  0  0  0  0  0  0
   36.0650   30.2150   47.4670 N   0  0  0  0  0  0  0  0  0  0  0  0
   38.3170   31.1820   47.3630 C   0  0  0  0  0  0  0  0  0  0  0  0
   38.7260   32.4830   47.5710 C   0  0  0  0  0  0  0  0  0  0  0  0
   39.7630   32.7260   46.6660 C   0  0  0  0  0  0  0  0  0  0  0  0
   39.9120   31.5450   45.9630 C   0  0  0  0  0  0  0  0  0  0  0  0
   39.0460   30.6620   46.4010 O   0  0  0  0  0  0  0  0  0  0  0  0
   33.8130   29.2550   47.5540 C   0  0  0  0  0  0  0  0  0  0  0  0
   33.2130   30.1350   46.9410 O   0  0  0  0  0  0  0  0  0  0  0  0
   33.7370   26.8330   47.0600 C   0  0  0  0  0  0  0  0  0  0  0  0
   33.1620   27.9580   47.6600 C   0  0  0  0  0  0  0  0  0  0  0  0
   31.9780   27.7600   48.3360 C   0  0  0  0  0  0  0  0  0  0  0  0
   31.4210   26.5140   48.3970 N   0  0  0  0  0  0  0  0  0  0  0  0
   32.0120   25.4550   47.8020 C   0  0  0  0  0  0  0  0  0  0  0  0
   33.1590   25.6110   47.1390 N   0  0  0  0  0  0  0  0  0  0  0  0
   34.5563   28.4550   49.9387 H   0  0  0  0  0  0  0  0  0  0  0  0
   36.7778   28.8487   51.0438 H   0  0  0  0  0  0  0  0  0  0  0  0
   38.4910   30.1394   49.7623 H   0  0  0  0  0  0  0  0  0  0  0  0
   38.3158   33.1912   48.3060 H   0  0  0  0  0  0  0  0  0  0  0  0
   40.3367   33.6561   46.5403 H   0  0  0  0  0  0  0  0  0  0  0  0
   40.6438   31.3722   45.1601 H   0  0  0  0  0  0  0  0  0  0  0  0
   34.6831   26.9438   46.5098 H   0  0  0  0  0  0  0  0  0  0  0  0
   31.4794   28.6080   48.8283 H   0  0  0  0  0  0  0  0  0  0  0  0
   31.5458   24.4606   47.8644 H   0  0  0  0  0  0  0  0  0  0  0  0
  1  2  2  0
  2  3  1  0
  4  3  2  0
  5  4  1  0
  6  5  2  0
  6  1  1  0
  7  8  2  0
  7  5  1  0
  9  8  1  0
 10 11  1  0
 10  9  2  0
 11  7  1  0
 12 15  1  0
 12  1  1  0
 13 12  2  0
 14 19  2  0
 14 15  1  0
 15 16  2  0
 16 17  1  0
 18 17  2  0
 19 18  1  0
  2 20  1  0
  3 21  1  0
  4 22  1  0
  8 23  1  0
  9 24  1  0
 10 25  1  0
 14 26  1  0
 16 27  1  0
 18 28  1  0
M  ISO  8  20  14  21  14  22  14  23  14  24  14  25  14  26  14  27  14
M  ISO  1  28  14
M  END
>  <minimizedAffinity>  (1) 
-5.29063988

>  <minimizedRMSD>  (1) 
4.95286274

$$$$
