
     RDKit          3D

 24 25  0  0  0  0  0  0  0  0999 V2000
   36.8050   30.8060   47.3700 C   0  0  0  0  0  0  0  0  0  0  0  0
   36.2820   30.4110   46.3190 O   0  0  0  0  0  0  0  0  0  0  0  0
   37.1220   29.6290   49.5220 C   0  0  0  0  0  0  0  0  0  0  0  0
   36.2670   30.2740   48.6150 C   0  0  0  0  0  0  0  0  0  0  0  0
   34.9390   30.3710   48.9630 C   0  0  0  0  0  0  0  0  0  0  0  0
   34.5010   29.8500   50.1480 N   0  0  0  0  0  0  0  0  0  0  0  0
   35.3700   29.2320   50.9970 C   0  0  0  0  0  0  0  0  0  0  0  0
   36.6470   29.1260   50.6880 N   0  0  0  0  0  0  0  0  0  0  0  0
   37.9140   31.7630   47.3410 C   0  0  0  0  0  0  0  0  0  0  0  0
   38.0870   32.5410   48.4770 C   0  0  0  0  0  0  0  0  0  0  0  0
   39.1120   33.4630   48.5170 C   0  0  0  0  0  0  0  0  0  0  0  0
   39.9130   33.5320   47.3660 C   0  0  0  0  0  0  0  0  0  0  0  0
   39.7220   32.7520   46.2540 C   0  0  0  0  0  0  0  0  0  0  0  0
   38.7030   31.8490   46.2410 N   0  0  0  0  0  0  0  0  0  0  0  0
   40.6120   32.8980   45.1000 C   0  0  0  0  0  0  0  0  0  0  0  0
   38.1914   29.5303   49.2838 H   0  0  0  0  0  0  0  0  0  0  0  0
   34.2290   30.8687   48.2862 H   0  0  0  0  0  0  0  0  0  0  0  0
   35.0026   28.8184   51.9478 H   0  0  0  0  0  0  0  0  0  0  0  0
   37.4126   32.4234   49.3380 H   0  0  0  0  0  0  0  0  0  0  0  0
   39.2903   34.1028   49.3938 H   0  0  0  0  0  0  0  0  0  0  0  0
   40.7427   34.2542   47.3554 H   0  0  0  0  0  0  0  0  0  0  0  0
   41.6412   33.0668   45.4497 H   0  0  0  0  0  0  0  0  0  0  0  0
   40.5770   31.9821   44.4918 H   0  0  0  0  0  0  0  0  0  0  0  0
   40.2862   33.7547   44.4918 H   0  0  0  0  0  0  0  0  0  0  0  0
  1  4  1  0
  2  1  2  0
  3  8  2  0
  4  5  2  0
  4  3  1  0
  5  6  1  0
  6  7  2  0
  8  7  1  0
  9  1  1  0
  9 10  2  0
 10 11  1  0
 12 11  2  0
 13 12  1  0
 14 13  2  0
 14  9  1  0
 15 13  1  0
  3 16  1  0
  5 17  1  0
  7 18  1  0
 10 19  1  0
 11 20  1  0
 12 21  1  0
 15 22  1  0
 15 23  1  0
 15 24  1  0
M  ISO  8  16  14  17  14  18  14  19  14  20  14  21  14  22   8  23   8
M  ISO  1  24   8
M  END
>  <minimizedAffinity>  (1) 
-4.88112116

>  <minimizedRMSD>  (1) 
1.12929881

$$$$
