
     RDKit          3D

 20 21  0  0  0  0  0  0  0  0999 V2000
   37.4930   29.4270   50.8730 C   0  0  0  0  0  0  0  0  0  0  0  0
   38.0390   30.6950   50.5820 C   0  0  0  0  0  0  0  0  0  0  0  0
   37.4350   31.4710   49.5910 C   0  0  0  0  0  0  0  0  0  0  0  0
   36.3450   30.9550   48.9580 N   0  0  0  0  0  0  0  0  0  0  0  0
   35.8400   29.7420   49.2520 C   0  0  0  0  0  0  0  0  0  0  0  0
   36.4110   28.9930   50.1990 N   0  0  0  0  0  0  0  0  0  0  0  0
   34.6450   29.2480   48.5170 C   0  0  0  0  0  0  0  0  0  0  0  0
   33.8700   28.1620   48.8970 C   0  0  0  0  0  0  0  0  0  0  0  0
   32.8030   27.8020   48.1500 C   0  0  0  0  0  0  0  0  0  0  0  0
   32.5080   28.5730   46.9630 C   0  0  0  0  0  0  0  0  0  0  0  0
   33.8220   29.8640   46.9340 S   0  0  0  0  0  0  0  0  0  0  0  0
   38.0000   32.8130   49.2710 C   0  0  0  0  0  0  0  0  0  0  0  0
   39.1880   32.8860   49.9580 F   0  0  0  0  0  0  0  0  0  0  0  0
   38.2400   32.9800   47.9310 F   0  0  0  0  0  0  0  0  0  0  0  0
   37.1610   33.8340   49.7250 F   0  0  0  0  0  0  0  0  0  0  0  0
   37.9500   28.7946   51.6484 H   0  0  0  0  0  0  0  0  0  0  0  0
   38.9218   31.0643   51.1244 H   0  0  0  0  0  0  0  0  0  0  0  0
   34.1236   27.5949   49.8048 H   0  0  0  0  0  0  0  0  0  0  0  0
   32.1757   26.9453   48.4373 H   0  0  0  0  0  0  0  0  0  0  0  0
   31.6890   28.4235   46.2440 H   0  0  0  0  0  0  0  0  0  0  0  0
  2  1  2  0
  3  2  1  0
  4  5  1  0
  4  3  2  0
  5  6  2  0
  6  1  1  0
  7  8  2  0
  7  5  1  0
  9  8  1  0
 10  9  2  0
 11 10  1  0
 11  7  1  0
 12  3  1  0
 12 15  1  0
 12 13  1  0
 14 12  1  0
  1 16  1  0
  2 17  1  0
  8 18  1  0
  9 19  1  0
 10 20  1  0
M  ISO  5  16  14  17  14  18  14  19  14  20  14
M  END
>  <minimizedAffinity>  (1) 
-5.26947069

>  <minimizedRMSD>  (1) 
1.11301172

$$$$
