
     RDKit          3D

 22 23  0  0  0  0  0  0  0  0999 V2000
   36.6370   30.7260   47.5390 C   0  0  0  0  0  0  0  0  0  0  0  0
   36.0700   30.3410   46.5060 O   0  0  0  0  0  0  0  0  0  0  0  0
   36.9980   29.6370   49.7220 C   0  0  0  0  0  0  0  0  0  0  0  0
   36.1170   30.2070   48.7980 C   0  0  0  0  0  0  0  0  0  0  0  0
   34.7680   30.2460   49.1390 C   0  0  0  0  0  0  0  0  0  0  0  0
   34.3520   29.7390   50.3360 N   0  0  0  0  0  0  0  0  0  0  0  0
   35.2530   29.1930   51.2060 C   0  0  0  0  0  0  0  0  0  0  0  0
   36.5390   29.1460   50.9010 N   0  0  0  0  0  0  0  0  0  0  0  0
   37.7570   31.6470   47.4790 C   0  0  0  0  0  0  0  0  0  0  0  0
   37.9500   32.4620   48.5900 C   0  0  0  0  0  0  0  0  0  0  0  0
   38.9960   33.3670   48.6000 C   0  0  0  0  0  0  0  0  0  0  0  0
   39.7950   33.3900   47.4650 C   0  0  0  0  0  0  0  0  0  0  0  0
   39.5910   32.5770   46.3800 C   0  0  0  0  0  0  0  0  0  0  0  0
   38.5570   31.6910   46.3820 N   0  0  0  0  0  0  0  0  0  0  0  0
   40.6380   32.6280   44.9290 S   0  0  0  0  0  0  0  0  0  0  0  0
   38.0723   29.5861   49.4914 H   0  0  0  0  0  0  0  0  0  0  0  0
   34.0374   30.6853   48.4439 H   0  0  0  0  0  0  0  0  0  0  0  0
   34.9058   28.7890   52.1684 H   0  0  0  0  0  0  0  0  0  0  0  0
   37.2748   32.3871   49.4552 H   0  0  0  0  0  0  0  0  0  0  0  0
   39.1838   34.0299   49.4575 H   0  0  0  0  0  0  0  0  0  0  0  0
   40.6363   34.0980   47.4345 H   0  0  0  0  0  0  0  0  0  0  0  0
   41.9509   32.6920   45.3152 H   0  0  0  0  0  0  0  0  0  0  0  0
  1  4  1  0
  2  1  2  0
  3  8  2  0
  4  5  2  0
  4  3  1  0
  5  6  1  0
  6  7  2  0
  8  7  1  0
  9  1  1  0
  9 10  2  0
 10 11  1  0
 12 11  2  0
 13 14  2  0
 13 12  1  0
 14  9  1  0
 15 13  1  0
  3 16  1  0
  5 17  1  0
  7 18  1  0
 10 19  1  0
 11 20  1  0
 12 21  1  0
 15 22  1  0
M  ISO  7  16  14  17  14  18  14  19  14  20  14  21  14  22  11
M  END
>  <minimizedAffinity>  (1) 
-4.70529985

>  <minimizedRMSD>  (1) 
1.2483201

$$$$
