
     RDKit          3D

 35 37  0  0  1  0  0  0  0  0999 V2000
   37.7980   31.6910   47.5440 C   0  0  0  0  0  0  0  0  0  0  0  0
   37.9040   32.5510   48.6270 C   0  0  0  0  0  0  0  0  0  0  0  0
   38.9410   33.4700   48.6690 C   0  0  0  0  0  0  0  0  0  0  0  0
   39.8080   33.4500   47.5960 C   0  0  0  0  0  0  0  0  0  0  0  0
   39.6960   32.5940   46.5270 C   0  0  0  0  0  0  0  0  0  0  0  0
   38.6720   31.6990   46.5010 N   0  0  0  0  0  0  0  0  0  0  0  0
   36.6830   30.7520   47.5720 C   0  0  0  0  0  0  0  0  0  0  0  0
   36.1450   30.3740   46.5280 O   0  0  0  0  0  0  0  0  0  0  0  0
   37.0200   29.6450   49.7590 C   0  0  0  0  0  0  0  0  0  0  0  0
   36.1510   30.2150   48.8270 C   0  0  0  0  0  0  0  0  0  0  0  0
   34.7940   30.2470   49.1410 C   0  0  0  0  0  0  0  0  0  0  0  0
   34.3500   29.7350   50.3230 N   0  0  0  0  0  0  0  0  0  0  0  0
   35.2550   29.1860   51.2020 C   0  0  0  0  0  0  0  0  0  0  0  0
   36.5370   29.1450   50.9260 N   0  0  0  0  0  0  0  0  0  0  0  0
   40.8250   32.5780   45.1530 S   0  0  0  0  0  0  0  0  0  0  0  0
   39.8480   30.2360   44.1800 N   0  0  0  0  0  0  0  0  0  0  0  0
   40.2830   31.5640   43.7820 C   0  0  1  0  0  0  0  0  0  0  0  0
   39.1580   32.1810   42.9880 C   0  0  0  0  0  0  0  0  0  0  0  0
   38.4020   31.2040   42.3260 O   0  0  0  0  0  0  0  0  0  0  0  0
   39.3080   30.2650   41.7980 C   0  0  0  0  0  0  0  0  0  0  0  0
   39.8680   29.4420   42.9480 C   0  0  0  0  0  0  0  0  0  0  0  0
   37.1711   32.5042   49.4460 H   0  0  0  0  0  0  0  0  0  0  0  0
   39.0650   34.1722   49.5066 H   0  0  0  0  0  0  0  0  0  0  0  0
   40.6432   34.1658   47.5963 H   0  0  0  0  0  0  0  0  0  0  0  0
   38.0986   29.6006   49.5478 H   0  0  0  0  0  0  0  0  0  0  0  0
   34.0780   30.6875   48.4316 H   0  0  0  0  0  0  0  0  0  0  0  0
   34.8962   28.7728   52.1562 H   0  0  0  0  0  0  0  0  0  0  0  0
   40.4933   29.8380   44.8771 H   0  0  0  0  0  0  0  0  0  0  0  0
   41.1852   31.4891   43.1572 H   0  0  0  0  0  0  0  0  0  0  0  0
   38.5014   32.7387   43.6720 H   0  0  0  0  0  0  0  0  0  0  0  0
   39.5948   32.8507   42.2326 H   0  0  0  0  0  0  0  0  0  0  0  0
   38.7882   29.6056   41.0874 H   0  0  0  0  0  0  0  0  0  0  0  0
   40.1231   30.7809   41.2693 H   0  0  0  0  0  0  0  0  0  0  0  0
   39.2540   28.5396   43.0847 H   0  0  0  0  0  0  0  0  0  0  0  0
   40.9041   29.1528   42.7180 H   0  0  0  0  0  0  0  0  0  0  0  0
  1  7  1  0
  1  2  2  0
  2  3  1  0
  4  3  2  0
  5  4  1  0
  6  5  2  0
  6  1  1  0
  7 10  1  0
  8  7  2  0
  9 14  2  0
 10 11  2  0
 10  9  1  0
 11 12  1  0
 12 13  2  0
 14 13  1  0
 15  5  1  0
 17 16  1  0
 17 15  1  0
 18 17  1  0
 19 18  1  0
 20 19  1  0
 20 21  1  0
 21 16  1  0
  2 22  1  0
  3 23  1  0
  4 24  1  0
  9 25  1  0
 11 26  1  0
 13 27  1  0
 16 28  1  0
 17 29  1  6
 18 30  1  0
 18 31  1  0
 20 32  1  0
 20 33  1  0
 21 34  1  0
 21 35  1  0
M  ISO  8  22  14  23  14  24  14  25  14  26  14  27  14  28   5  29  13
M  ISO  6  30  13  31  13  32  13  33  13  34  13  35  13
M  END
>  <minimizedAffinity>  (1) 
-5.42539835

>  <minimizedRMSD>  (1) 
2.29638171

$$$$
