
     RDKit          3D

 19 19  0  0  0  0  0  0  0  0999 V2000
   37.5250   29.5850   50.5010 C   0  0  0  0  0  0  0  0  0  0  0  0
   38.1690   30.8410   50.3510 C   0  0  0  0  0  0  0  0  0  0  0  0
   37.8060   31.6400   49.2590 C   0  0  0  0  0  0  0  0  0  0  0  0
   36.8540   31.1640   48.4020 N   0  0  0  0  0  0  0  0  0  0  0  0
   36.2680   29.9670   48.5800 C   0  0  0  0  0  0  0  0  0  0  0  0
   36.5960   29.1900   49.6110 N   0  0  0  0  0  0  0  0  0  0  0  0
   38.4750   32.9590   49.0920 C   0  0  0  0  0  0  0  0  0  0  0  0
   39.3520   33.0700   50.1290 F   0  0  0  0  0  0  0  0  0  0  0  0
   39.1740   33.0420   47.9020 F   0  0  0  0  0  0  0  0  0  0  0  0
   37.5580   34.0040   49.1500 F   0  0  0  0  0  0  0  0  0  0  0  0
   35.3030   29.5140   47.6880 O   0  0  0  0  0  0  0  0  0  0  0  0
   34.0920   27.2430   48.3710 O   0  0  0  0  0  0  0  0  0  0  0  0
   33.9320   28.7500   48.3750 P   0  0  0  0  0  0  0  0  0  0  0  0
   33.6740   29.3800   49.9010 O   0  0  0  0  0  0  0  0  0  0  0  0
   32.6100   29.2320   47.4020 O   0  0  0  0  0  0  0  0  0  0  0  0
   37.7860   28.9325   51.3473 H   0  0  0  0  0  0  0  0  0  0  0  0
   38.9302   31.1769   51.0705 H   0  0  0  0  0  0  0  0  0  0  0  0
   33.9461   28.7156   50.5826 H   0  0  0  0  0  0  0  0  0  0  0  0
   31.8562   29.5068   47.9820 H   0  0  0  0  0  0  0  0  0  0  0  0
  2  1  2  0
  3  2  1  0
  4  5  1  0
  4  3  2  0
  5  6  2  0
  6  1  1  0
  7 10  1  0
  7  3  1  0
  7  8  1  0
  9  7  1  0
 11 13  1  0
 11  5  1  0
 12 13  2  0
 13 14  1  0
 15 13  1  0
  1 16  1  0
  2 17  1  0
 14 18  1  0
 15 19  1  0
M  ISO  4  16  14  17  14  18   3  19   3
M  END
>  <minimizedAffinity>  (1) 
-5.21920109

>  <minimizedRMSD>  (1) 
1.69806504

$$$$
