
     RDKit          3D

 25 26  0  0  0  0  0  0  0  0999 V2000
   37.7410   31.6290   47.4750 C   0  0  0  0  0  0  0  0  0  0  0  0
   37.9460   32.4620   48.5850 C   0  0  0  0  0  0  0  0  0  0  0  0
   38.9900   33.3650   48.6050 C   0  0  0  0  0  0  0  0  0  0  0  0
   39.7910   33.3850   47.4850 C   0  0  0  0  0  0  0  0  0  0  0  0
   39.5800   32.5700   46.4150 C   0  0  0  0  0  0  0  0  0  0  0  0
   38.5530   31.6750   46.3860 N   0  0  0  0  0  0  0  0  0  0  0  0
   36.6270   30.7170   47.5400 C   0  0  0  0  0  0  0  0  0  0  0  0
   36.0620   30.3350   46.5090 O   0  0  0  0  0  0  0  0  0  0  0  0
   37.0130   29.6370   49.7210 C   0  0  0  0  0  0  0  0  0  0  0  0
   36.1050   30.1970   48.8060 C   0  0  0  0  0  0  0  0  0  0  0  0
   34.7430   30.2370   49.1370 C   0  0  0  0  0  0  0  0  0  0  0  0
   34.3580   29.7240   50.3490 N   0  0  0  0  0  0  0  0  0  0  0  0
   35.2620   29.1900   51.2100 C   0  0  0  0  0  0  0  0  0  0  0  0
   36.5530   29.1490   50.9000 N   0  0  0  0  0  0  0  0  0  0  0  0
   40.6320   32.6270   44.9460 S   0  0  0  0  0  0  0  0  0  0  0  0
   39.5020   32.9630   43.5490 C   0  0  0  0  0  0  0  0  0  0  0  0
   37.2678   32.3949   49.4484 H   0  0  0  0  0  0  0  0  0  0  0  0
   39.1711   34.0284   49.4636 H   0  0  0  0  0  0  0  0  0  0  0  0
   40.6361   34.0884   47.4536 H   0  0  0  0  0  0  0  0  0  0  0  0
   38.0862   29.5949   49.4833 H   0  0  0  0  0  0  0  0  0  0  0  0
   34.0047   30.6675   48.4444 H   0  0  0  0  0  0  0  0  0  0  0  0
   34.9214   28.7868   52.1751 H   0  0  0  0  0  0  0  0  0  0  0  0
   38.5156   33.2563   43.9376 H   0  0  0  0  0  0  0  0  0  0  0  0
   39.9112   33.7783   42.9344 H   0  0  0  0  0  0  0  0  0  0  0  0
   39.3992   32.0566   42.9344 H   0  0  0  0  0  0  0  0  0  0  0  0
  1  7  1  0
  1  2  2  0
  2  3  1  0
  4  3  2  0
  5  4  1  0
  6  5  2  0
  6  1  1  0
  7 10  1  0
  8  7  2  0
  9 14  2  0
 10 11  2  0
 10  9  1  0
 11 12  1  0
 12 13  2  0
 14 13  1  0
 15  5  1  0
 16 15  1  0
  2 17  1  0
  3 18  1  0
  4 19  1  0
  9 20  1  0
 11 21  1  0
 13 22  1  0
 16 23  1  0
 16 24  1  0
 16 25  1  0
M  ISO  8  17  14  18  14  19  14  20  14  21  14  22  14  23   8  24   8
M  ISO  1  25   8
M  END
>  <minimizedAffinity>  (1) 
-4.74564123

>  <minimizedRMSD>  (1) 
0.257050037

$$$$
