
     RDKit          3D

 37 39  0  0  0  0  0  0  0  0999 V2000
   37.7250   31.7550   47.6680 C   0  0  0  0  0  0  0  0  0  0  0  0
   37.9330   32.4790   48.8410 C   0  0  0  0  0  0  0  0  0  0  0  0
   38.9260   33.4270   48.9260 C   0  0  0  0  0  0  0  0  0  0  0  0
   39.6890   33.6160   47.8010 C   0  0  0  0  0  0  0  0  0  0  0  0
   39.4790   32.9070   46.6610 C   0  0  0  0  0  0  0  0  0  0  0  0
   38.4940   31.9630   46.5730 N   0  0  0  0  0  0  0  0  0  0  0  0
   36.6620   30.7830   47.6740 C   0  0  0  0  0  0  0  0  0  0  0  0
   36.1790   30.3750   46.6120 O   0  0  0  0  0  0  0  0  0  0  0  0
   36.9820   29.6210   49.8240 C   0  0  0  0  0  0  0  0  0  0  0  0
   36.1010   30.2300   48.9090 C   0  0  0  0  0  0  0  0  0  0  0  0
   34.7360   30.2860   49.2060 C   0  0  0  0  0  0  0  0  0  0  0  0
   34.3090   29.7400   50.3870 N   0  0  0  0  0  0  0  0  0  0  0  0
   35.1820   29.1590   51.2480 C   0  0  0  0  0  0  0  0  0  0  0  0
   36.4760   29.1030   50.9720 N   0  0  0  0  0  0  0  0  0  0  0  0
   40.4750   33.1410   45.1640 S   0  0  0  0  0  0  0  0  0  0  0  0
   39.3370   32.7890   43.7660 C   0  0  0  0  0  0  0  0  0  0  0  0
   40.0410   31.8480   42.8930 N   0  0  0  0  0  0  0  0  0  0  0  0
   40.5260   30.7120   43.6130 C   0  0  0  0  0  0  0  0  0  0  0  0
   39.2840   29.8630   43.7640 C   0  0  0  0  0  0  0  0  0  0  0  0
   38.6710   29.9840   42.3810 C   0  0  0  0  0  0  0  0  0  0  0  0
   39.1620   31.3050   41.8870 C   0  0  0  0  0  0  0  0  0  0  0  0
   37.2916   32.2888   49.7142 H   0  0  0  0  0  0  0  0  0  0  0  0
   39.0994   34.0031   49.8469 H   0  0  0  0  0  0  0  0  0  0  0  0
   40.4951   34.3642   47.8228 H   0  0  0  0  0  0  0  0  0  0  0  0
   38.0600   29.5663   49.6121 H   0  0  0  0  0  0  0  0  0  0  0  0
   34.0249   30.7555   48.5104 H   0  0  0  0  0  0  0  0  0  0  0  0
   34.8095   28.7282   52.1891 H   0  0  0  0  0  0  0  0  0  0  0  0
   38.4042   32.3397   44.1375 H   0  0  0  0  0  0  0  0  0  0  0  0
   39.0666   33.7095   43.2278 H   0  0  0  0  0  0  0  0  0  0  0  0
   41.3025   30.1818   43.0421 H   0  0  0  0  0  0  0  0  0  0  0  0
   40.9986   30.9707   44.5720 H   0  0  0  0  0  0  0  0  0  0  0  0
   39.5363   28.8193   44.0027 H   0  0  0  0  0  0  0  0  0  0  0  0
   38.6187   30.1794   44.5808 H   0  0  0  0  0  0  0  0  0  0  0  0
   39.0150   29.1689   41.7274 H   0  0  0  0  0  0  0  0  0  0  0  0
   37.5731   29.9170   42.3954 H   0  0  0  0  0  0  0  0  0  0  0  0
   39.7099   31.1721   40.9425 H   0  0  0  0  0  0  0  0  0  0  0  0
   38.3182   31.9863   41.7031 H   0  0  0  0  0  0  0  0  0  0  0  0
  1  7  1  0
  1  2  2  0
  2  3  1  0
  4  3  2  0
  5  4  1  0
  6  5  2  0
  6  1  1  0
  7 10  1  0
  8  7  2  0
  9 14  2  0
 10 11  2  0
 10  9  1  0
 11 12  1  0
 12 13  2  0
 14 13  1  0
 15  5  1  0
 16 15  1  0
 17 18  1  0
 17 16  1  0
 18 19  1  0
 20 19  1  0
 21 20  1  0
 21 17  1  0
  2 22  1  0
  3 23  1  0
  4 24  1  0
  9 25  1  0
 11 26  1  0
 13 27  1  0
 16 28  1  0
 16 29  1  0
 18 30  1  0
 18 31  1  0
 19 32  1  0
 19 33  1  0
 20 34  1  0
 20 35  1  0
 21 36  1  0
 21 37  1  0
M  ISO  8  22  14  23  14  24  14  25  14  26  14  27  14  28   8  29   8
M  ISO  8  30  13  31  13  32  13  33  13  34  13  35  13  36  13  37  13
M  END
>  <minimizedAffinity>  (1) 
-5.25811672

>  <minimizedRMSD>  (1) 
1.07376719

$$$$
