
     RDKit          3D

 29 30  0  0  0  0  0  0  0  0999 V2000
   37.7380   31.6700   47.4910 C   0  0  0  0  0  0  0  0  0  0  0  0
   37.9570   32.4530   48.6350 C   0  0  0  0  0  0  0  0  0  0  0  0
   38.9960   33.3690   48.6610 C   0  0  0  0  0  0  0  0  0  0  0  0
   39.7650   33.4450   47.5160 C   0  0  0  0  0  0  0  0  0  0  0  0
   39.5290   32.6720   46.4230 C   0  0  0  0  0  0  0  0  0  0  0  0
   38.5200   31.7710   46.3780 N   0  0  0  0  0  0  0  0  0  0  0  0
   36.6370   30.7350   47.5360 C   0  0  0  0  0  0  0  0  0  0  0  0
   36.0900   30.3400   46.5070 O   0  0  0  0  0  0  0  0  0  0  0  0
   37.0250   29.6330   49.7080 C   0  0  0  0  0  0  0  0  0  0  0  0
   36.1140   30.2110   48.7930 C   0  0  0  0  0  0  0  0  0  0  0  0
   34.7490   30.2550   49.1410 C   0  0  0  0  0  0  0  0  0  0  0  0
   34.3610   29.7370   50.3460 N   0  0  0  0  0  0  0  0  0  0  0  0
   35.2690   29.1860   51.2030 C   0  0  0  0  0  0  0  0  0  0  0  0
   36.5560   29.1390   50.8890 N   0  0  0  0  0  0  0  0  0  0  0  0
   40.5610   32.8020   44.9470 S   0  0  0  0  0  0  0  0  0  0  0  0
   40.6090   31.0970   44.2610 C   0  0  0  0  0  0  0  0  0  0  0  0
   39.2840   31.0940   42.2420 C   0  0  0  0  0  0  0  0  0  0  0  0
   40.2740   31.3770   41.5190 O   0  0  0  0  0  0  0  0  0  0  0  0
   39.2750   30.9130   43.6660 N   0  0  0  0  0  0  0  0  0  0  0  0
   37.3029   32.3392   49.5120 H   0  0  0  0  0  0  0  0  0  0  0  0
   39.1966   33.9981   49.5408 H   0  0  0  0  0  0  0  0  0  0  0  0
   40.6012   34.1591   47.4876 H   0  0  0  0  0  0  0  0  0  0  0  0
   38.0977   29.5828   49.4697 H   0  0  0  0  0  0  0  0  0  0  0  0
   34.0100   30.6974   48.4568 H   0  0  0  0  0  0  0  0  0  0  0  0
   34.9289   28.7761   52.1655 H   0  0  0  0  0  0  0  0  0  0  0  0
   41.3940   31.0056   43.4959 H   0  0  0  0  0  0  0  0  0  0  0  0
   40.8389   30.3401   45.0254 H   0  0  0  0  0  0  0  0  0  0  0  0
   38.3199   30.9719   41.7266 H   0  0  0  0  0  0  0  0  0  0  0  0
   38.4314   30.6809   44.2095 H   0  0  0  0  0  0  0  0  0  0  0  0
  1  7  1  0
  1  2  2  0
  2  3  1  0
  4  3  2  0
  5  4  1  0
  6  5  2  0
  6  1  1  0
  7 10  1  0
  8  7  2  0
  9 14  2  0
 10 11  2  0
 10  9  1  0
 11 12  1  0
 12 13  2  0
 14 13  1  0
 15  5  1  0
 16 15  1  0
 17 19  1  0
 18 17  2  0
 19 16  1  0
  2 20  1  0
  3 21  1  0
  4 22  1  0
  9 23  1  0
 11 24  1  0
 13 25  1  0
 16 26  1  0
 16 27  1  0
 17 28  1  0
 19 29  1  0
M  ISO  8  20  14  21  14  22  14  23  14  24  14  25  14  26   8  27   8
M  ISO  1  28   6
M  END
>  <minimizedAffinity>  (1) 
-4.87192535

>  <minimizedRMSD>  (1) 
1.88432825

$$$$
