
     RDKit          3D

 44 47  0  0  1  0  0  0  0  0999 V2000
   40.4420   33.4290   45.2810 S   0  0  0  0  0  0  0  0  0  0  0  0
   37.7580   31.8280   47.7340 C   0  0  0  0  0  0  0  0  0  0  0  0
   37.9610   32.5170   48.9430 C   0  0  0  0  0  0  0  0  0  0  0  0
   38.9210   33.4960   49.0590 C   0  0  0  0  0  0  0  0  0  0  0  0
   39.6600   33.7540   47.9340 C   0  0  0  0  0  0  0  0  0  0  0  0
   39.4540   33.0810   46.7750 C   0  0  0  0  0  0  0  0  0  0  0  0
   38.5090   32.1120   46.6450 N   0  0  0  0  0  0  0  0  0  0  0  0
   36.7360   30.8240   47.7030 C   0  0  0  0  0  0  0  0  0  0  0  0
   36.2950   30.4020   46.6280 O   0  0  0  0  0  0  0  0  0  0  0  0
   37.0220   29.6030   49.8310 C   0  0  0  0  0  0  0  0  0  0  0  0
   36.1600   30.2460   48.9300 C   0  0  0  0  0  0  0  0  0  0  0  0
   34.7930   30.3170   49.2200 C   0  0  0  0  0  0  0  0  0  0  0  0
   34.3350   29.7560   50.3780 N   0  0  0  0  0  0  0  0  0  0  0  0
   35.1920   29.1420   51.2290 C   0  0  0  0  0  0  0  0  0  0  0  0
   36.5070   29.0670   50.9620 N   0  0  0  0  0  0  0  0  0  0  0  0
   39.3820   32.9980   43.8800 C   0  0  0  0  0  0  0  0  0  0  0  0
   39.1530   29.6830   42.6680 C   0  0  1  0  0  0  0  0  0  0  0  0
   38.9970   31.1370   42.2740 C   0  0  0  0  0  0  0  0  0  0  0  0
   39.9920   31.7970   43.1970 C   0  0  2  0  0  0  0  0  0  0  0  0
   40.4470   30.8600   44.0870 O   0  0  0  0  0  0  0  0  0  0  0  0
   39.5250   29.8240   44.1370 C   0  0  0  0  0  0  0  0  0  0  0  0
   37.9940   28.9600   42.5000 O   0  0  0  0  0  0  0  0  0  0  0  0
   37.6550   27.7360   42.6930 C   0  0  0  0  0  0  0  0  0  0  0  0
   36.4940   26.9090   42.8550 C   0  0  0  0  0  0  0  0  0  0  0  0
   36.6310   25.5630   43.0490 C   0  0  0  0  0  0  0  0  0  0  0  0
   37.9510   24.9770   43.0900 C   0  0  0  0  0  0  0  0  0  0  0  0
   39.0300   26.4890   42.8290 S   0  0  0  0  0  0  0  0  0  0  0  0
   37.3387   32.2679   49.8151 H   0  0  0  0  0  0  0  0  0  0  0  0
   39.0858   34.0403   50.0006 H   0  0  0  0  0  0  0  0  0  0  0  0
   40.4410   34.5276   47.9723 H   0  0  0  0  0  0  0  0  0  0  0  0
   38.0997   29.5355   49.6214 H   0  0  0  0  0  0  0  0  0  0  0  0
   34.0992   30.8160   48.5274 H   0  0  0  0  0  0  0  0  0  0  0  0
   34.8039   28.6961   52.1567 H   0  0  0  0  0  0  0  0  0  0  0  0
   38.3706   32.7530   44.2365 H   0  0  0  0  0  0  0  0  0  0  0  0
   39.3057   33.8428   43.1796 H   0  0  0  0  0  0  0  0  0  0  0  0
   39.8849   29.1321   42.0590 H   0  0  0  0  0  0  0  0  0  0  0  0
   39.2576   31.2990   41.2176 H   0  0  0  0  0  0  0  0  0  0  0  0
   37.9708   31.5226   42.3650 H   0  0  0  0  0  0  0  0  0  0  0  0
   40.8487   32.1791   42.6225 H   0  0  0  0  0  0  0  0  0  0  0  0
   38.6514   30.0919   44.7495 H   0  0  0  0  0  0  0  0  0  0  0  0
   39.9100   28.9006   44.5943 H   0  0  0  0  0  0  0  0  0  0  0  0
   35.4909   27.3593   42.8230 H   0  0  0  0  0  0  0  0  0  0  0  0
   35.7407   24.9290   43.1733 H   0  0  0  0  0  0  0  0  0  0  0  0
   38.2443   23.9268   43.2352 H   0  0  0  0  0  0  0  0  0  0  0  0
  1  6  1  0
  2  3  2  0
  3  4  1  0
  5  4  2  0
  6  5  1  0
  7  6  2  0
  7  2  1  0
  8  2  1  0
  8 11  1  0
  9  8  2  0
 10 15  2  0
 11 12  2  0
 11 10  1  0
 12 13  1  0
 13 14  2  0
 15 14  1  0
 16  1  1  0
 17 21  1  0
 18 17  1  0
 18 19  1  0
 19 16  1  0
 19 20  1  0
 20 21  1  0
 22 17  1  0
 22 23  1  0
 23 27  1  0
 23 24  2  0
 24 25  1  0
 25 26  2  0
 27 26  1  0
  3 28  1  0
  4 29  1  0
  5 30  1  0
 10 31  1  0
 12 32  1  0
 14 33  1  0
 16 34  1  0
 16 35  1  0
 17 36  1  6
 18 37  1  0
 18 38  1  0
 19 39  1  6
 21 40  1  0
 21 41  1  0
 24 42  1  0
 25 43  1  0
 26 44  1  0
M  ISO  8  28  14  29  14  30  14  31  14  32  14  33  14  34   8  35   8
M  ISO  8  36  13  37  13  38  13  39  13  40  13  41  13  42  14  43  14
M  ISO  1  44  14
M  END
>  <minimizedAffinity>  (1) 
-5.37505722

>  <minimizedRMSD>  (1) 
1.11032057

$$$$
