
     RDKit          3D

 26 27  0  0  0  0  0  0  0  0999 V2000
   38.4860   33.0870   49.2940 O   0  0  0  0  0  0  0  0  0  0  0  0
   38.0830   31.6340   49.1580 P   0  0  1  0  0  0  0  0  0  0  0  0
   38.6920   30.7660   50.4820 O   0  0  0  0  0  0  0  0  0  0  0  0
   36.4000   31.5360   49.2580 O   0  0  0  0  0  0  0  0  0  0  0  0
   35.7690   29.3130   49.8940 C   0  0  0  0  0  0  0  0  0  0  0  0
   35.6150   30.4310   49.0610 C   0  0  0  0  0  0  0  0  0  0  0  0
   34.6480   30.3380   48.0600 C   0  0  0  0  0  0  0  0  0  0  0  0
   33.9170   29.1960   47.9430 N   0  0  0  0  0  0  0  0  0  0  0  0
   34.1080   28.1480   48.7760 C   0  0  0  0  0  0  0  0  0  0  0  0
   35.0410   28.2050   49.7600 N   0  0  0  0  0  0  0  0  0  0  0  0
   38.7000   31.0710   47.7080 O   0  0  0  0  0  0  0  0  0  0  0  0
   36.7800   31.4830   44.5880 N   0  0  0  0  0  0  0  0  0  0  0  0
   37.1100   30.9690   45.7880 C   0  0  0  0  0  0  0  0  0  0  0  0
   38.2020   31.4620   46.4730 C   0  0  0  0  0  0  0  0  0  0  0  0
   38.9330   32.4970   45.8790 C   0  0  0  0  0  0  0  0  0  0  0  0
   39.9500   33.0510   46.3770 O   0  0  0  0  0  0  0  0  0  0  0  0
   38.5740   32.9900   44.6740 N   0  0  0  0  0  0  0  0  0  0  0  0
   37.5120   32.4850   44.0440 C   0  0  0  0  0  0  0  0  0  0  0  0
   37.1060   32.8730   42.9340 O   0  0  0  0  0  0  0  0  0  0  0  0
   38.3920   31.1935   51.3230 H   0  0  0  0  0  0  0  0  0  0  0  0
   36.5240   29.3527   50.6930 H   0  0  0  0  0  0  0  0  0  0  0  0
   34.4780   31.1793   47.3720 H   0  0  0  0  0  0  0  0  0  0  0  0
   33.5004   27.2391   48.6547 H   0  0  0  0  0  0  0  0  0  0  0  0
   35.9648   31.1116   44.0797 H   0  0  0  0  0  0  0  0  0  0  0  0
   36.5093   30.1563   46.2223 H   0  0  0  0  0  0  0  0  0  0  0  0
   39.1173   33.7519   44.2436 H   0  0  0  0  0  0  0  0  0  0  0  0
  2  4  1  0
  2  1  2  0
  2  3  1  0
  6  4  1  0
  6  5  2  0
  7  6  1  0
  8  7  2  0
  8  9  1  0
  9 10  2  0
 10  5  1  0
 11  2  1  0
 12 13  1  0
 13 14  2  0
 14 11  1  0
 15 16  2  0
 15 14  1  0
 17 15  1  0
 18 12  1  0
 18 17  1  0
 19 18  2  0
  3 20  1  0
  5 21  1  0
  7 22  1  0
  9 23  1  0
 12 24  1  0
 13 25  1  0
 17 26  1  0
M  ISO  7  20   3  21  14  22  14  23  14  24   9  25  14  26   9
M  END
>  <minimizedAffinity>  (1) 
-5.65905571

>  <minimizedRMSD>  (1) 
3.51042008

$$$$
