
     RDKit          3D

 23 24  0  0  0  0  0  0  0  0999 V2000
   36.9030   32.3590   49.5930 O   0  0  0  0  0  0  0  0  0  0  0  0
   37.9320   31.5080   48.8530 P   0  0  1  0  0  0  0  0  0  0  0  0
   38.7880   30.6040   50.0180 O   0  0  0  0  0  0  0  0  0  0  0  0
   37.0780   30.3790   47.9120 O   0  0  0  0  0  0  0  0  0  0  0  0
   35.8460   28.9530   49.3680 C   0  0  0  0  0  0  0  0  0  0  0  0
   35.9100   29.7630   48.2220 C   0  0  0  0  0  0  0  0  0  0  0  0
   34.7290   29.8750   47.4700 C   0  0  0  0  0  0  0  0  0  0  0  0
   33.6060   29.2130   47.8670 N   0  0  0  0  0  0  0  0  0  0  0  0
   33.6120   28.4440   48.9870 C   0  0  0  0  0  0  0  0  0  0  0  0
   34.7240   28.3110   49.7370 N   0  0  0  0  0  0  0  0  0  0  0  0
   38.9310   32.5110   47.9920 O   0  0  0  0  0  0  0  0  0  0  0  0
   39.5760   32.2050   46.8010 C   0  0  0  0  0  0  0  0  0  0  0  0
   40.0540   33.2780   46.0590 C   0  0  0  0  0  0  0  0  0  0  0  0
   40.6390   32.7450   44.9500 N   0  0  0  0  0  0  0  0  0  0  0  0
   40.5320   31.3850   44.9910 C   0  0  0  0  0  0  0  0  0  0  0  0
   39.8800   31.0770   46.1290 N   0  0  0  0  0  0  0  0  0  0  0  0
   38.5152   30.8921   50.9250 H   0  0  0  0  0  0  0  0  0  0  0  0
   36.7483   28.8398   49.9869 H   0  0  0  0  0  0  0  0  0  0  0  0
   34.7106   30.4960   46.5622 H   0  0  0  0  0  0  0  0  0  0  0  0
   32.6924   27.9203   49.2873 H   0  0  0  0  0  0  0  0  0  0  0  0
   39.9758   34.3448   46.3157 H   0  0  0  0  0  0  0  0  0  0  0  0
   41.0914   33.2842   44.1980 H   0  0  0  0  0  0  0  0  0  0  0  0
   40.9067   30.6756   44.2384 H   0  0  0  0  0  0  0  0  0  0  0  0
  2  1  2  0
  2  3  1  0
  4  6  1  0
  4  2  1  0
  5 10  2  0
  6  5  1  0
  7  8  1  0
  7  6  2  0
  8  9  2  0
  9 10  1  0
 11  2  1  0
 12 11  1  0
 13 12  2  0
 14 15  1  0
 14 13  1  0
 15 16  2  0
 16 12  1  0
  3 17  1  0
  5 18  1  0
  7 19  1  0
  9 20  1  0
 13 21  1  0
 14 22  1  0
 15 23  1  0
M  ISO  7  17   3  18  14  19  14  20  14  21  14  22   9  23  14
M  END
>  <minimizedAffinity>  (1) 
-4.8474803

>  <minimizedRMSD>  (1) 
2.35469031

$$$$
