
     RDKit          3D

 30 31  0  0  1  0  0  0  0  0999 V2000
   36.4770   31.5660   49.7520 O   0  0  0  0  0  0  0  0  0  0  0  0
   37.3120   30.3560   49.3200 P   0  0  1  0  0  0  0  0  0  0  0  0
   38.4450   30.0710   50.5670 O   0  0  0  0  0  0  0  0  0  0  0  0
   36.2830   29.0170   49.3060 O   0  0  0  0  0  0  0  0  0  0  0  0
   34.1140   28.0180   49.1520 C   0  0  0  0  0  0  0  0  0  0  0  0
   35.0930   28.8880   48.6300 C   0  0  0  0  0  0  0  0  0  0  0  0
   34.7760   29.5630   47.4470 C   0  0  0  0  0  0  0  0  0  0  0  0
   33.5620   29.3380   46.8900 N   0  0  0  0  0  0  0  0  0  0  0  0
   32.6550   28.5030   47.4140 C   0  0  0  0  0  0  0  0  0  0  0  0
   32.9330   27.8350   48.5580 N   0  0  0  0  0  0  0  0  0  0  0  0
   38.0290   30.7420   47.8760 O   0  0  0  0  0  0  0  0  0  0  0  0
   38.9570   32.4390   49.2260 N   0  0  0  0  0  0  0  0  0  0  0  0
   38.4920   32.0350   47.9380 C   0  0  1  0  0  0  0  0  0  0  0  0
   39.6340   32.2310   46.9450 C   0  0  0  0  0  0  0  0  0  0  0  0
   39.7010   33.6820   46.7640 N   0  0  0  0  0  0  0  0  0  0  0  0
   39.9920   34.3370   48.0140 C   0  0  0  0  0  0  0  0  0  0  0  0
   39.2160   33.8600   49.1860 C   0  0  0  0  0  0  0  0  0  0  0  0
   38.0032   30.1821   51.4460 H   0  0  0  0  0  0  0  0  0  0  0  0
   34.3312   27.4710   50.0813 H   0  0  0  0  0  0  0  0  0  0  0  0
   35.4920   30.2567   46.9822 H   0  0  0  0  0  0  0  0  0  0  0  0
   31.6851   28.3603   46.9150 H   0  0  0  0  0  0  0  0  0  0  0  0
   38.2391   32.2351   49.9359 H   0  0  0  0  0  0  0  0  0  0  0  0
   37.6205   32.6604   47.6941 H   0  0  0  0  0  0  0  0  0  0  0  0
   40.5788   31.8440   47.3544 H   0  0  0  0  0  0  0  0  0  0  0  0
   39.4696   31.6936   45.9994 H   0  0  0  0  0  0  0  0  0  0  0  0
   40.4427   33.9043   46.0848 H   0  0  0  0  0  0  0  0  0  0  0  0
   41.0598   34.1890   48.2326 H   0  0  0  0  0  0  0  0  0  0  0  0
   39.7074   35.3903   47.8742 H   0  0  0  0  0  0  0  0  0  0  0  0
   39.7756   34.1279   50.0943 H   0  0  0  0  0  0  0  0  0  0  0  0
   38.2309   34.3438   49.1122 H   0  0  0  0  0  0  0  0  0  0  0  0
  2  1  2  0
  2  3  1  0
  4  2  1  0
  6  5  2  0
  6  4  1  0
  7  6  1  0
  8  9  1  0
  8  7  2  0
  9 10  2  0
 10  5  1  0
 11  2  1  0
 13 11  1  0
 13 12  1  0
 14 13  1  0
 15 14  1  0
 15 16  1  0
 16 17  1  0
 17 12  1  0
  3 18  1  0
  5 19  1  0
  7 20  1  0
  9 21  1  0
 12 22  1  0
 13 23  1  6
 14 24  1  0
 14 25  1  0
 15 26  1  0
 16 27  1  0
 16 28  1  0
 17 29  1  0
 17 30  1  0
M  ISO  8  18   3  19  14  20  14  21  14  22   5  23  13  24  13  25  13
M  ISO  5  26   5  27  13  28  13  29  13  30  13
M  END
>  <minimizedAffinity>  (1) 
-4.81131029

>  <minimizedRMSD>  (1) 
3.36666346

$$$$
