
     RDKit          3D

 24 25  0  0  0  0  0  0  0  0999 V2000
   37.1760   33.6230   49.8420 O   0  0  0  0  0  0  0  0  0  0  0  0
   38.3800   32.9610   49.1640 P   0  0  1  0  0  0  0  0  0  0  0  0
   39.7700   33.8150   49.6820 O   0  0  0  0  0  0  0  0  0  0  0  0
   38.5320   31.3980   49.7690 O   0  0  0  0  0  0  0  0  0  0  0  0
   37.0860   30.2210   51.2800 C   0  0  0  0  0  0  0  0  0  0  0  0
   37.5210   30.4860   49.9590 C   0  0  0  0  0  0  0  0  0  0  0  0
   36.8800   29.7900   48.9340 C   0  0  0  0  0  0  0  0  0  0  0  0
   35.8900   28.9070   49.2490 N   0  0  0  0  0  0  0  0  0  0  0  0
   35.5150   28.6930   50.5200 C   0  0  0  0  0  0  0  0  0  0  0  0
   36.1130   29.3520   51.5570 N   0  0  0  0  0  0  0  0  0  0  0  0
   38.1590   33.0700   47.5250 O   0  0  0  0  0  0  0  0  0  0  0  0
   39.0390   32.4560   46.6380 C   0  0  0  0  0  0  0  0  0  0  0  0
   40.1210   33.0930   46.0660 C   0  0  0  0  0  0  0  0  0  0  0  0
   40.9760   32.4560   45.1890 C   0  0  0  0  0  0  0  0  0  0  0  0
   40.7290   31.1750   44.8980 N   0  0  0  0  0  0  0  0  0  0  0  0
   39.6710   30.5160   45.4440 C   0  0  0  0  0  0  0  0  0  0  0  0
   38.8310   31.1520   46.3100 N   0  0  0  0  0  0  0  0  0  0  0  0
   39.7973   33.8318   50.6715 H   0  0  0  0  0  0  0  0  0  0  0  0
   37.5703   30.7536   52.1118 H   0  0  0  0  0  0  0  0  0  0  0  0
   37.1695   29.9515   47.8851 H   0  0  0  0  0  0  0  0  0  0  0  0
   34.7105   27.9730   50.7309 H   0  0  0  0  0  0  0  0  0  0  0  0
   40.3093   34.1471   46.3180 H   0  0  0  0  0  0  0  0  0  0  0  0
   41.8319   32.9850   44.7445 H   0  0  0  0  0  0  0  0  0  0  0  0
   39.4919   29.4621   45.1849 H   0  0  0  0  0  0  0  0  0  0  0  0
  2  3  1  0
  2  4  1  0
  2  1  2  0
  4  6  1  0
  5 10  2  0
  6  5  1  0
  7  8  1  0
  7  6  2  0
  8  9  2  0
  9 10  1  0
 11  2  1  0
 12 11  1  0
 13 12  2  0
 14 13  1  0
 15 14  2  0
 15 16  1  0
 16 17  2  0
 17 12  1  0
  3 18  1  0
  5 19  1  0
  7 20  1  0
  9 21  1  0
 13 22  1  0
 14 23  1  0
 16 24  1  0
M  ISO  7  18   3  19  14  20  14  21  14  22  14  23  14  24  14
M  END
>  <minimizedAffinity>  (1) 
-4.5429492

>  <minimizedRMSD>  (1) 
0.97881943

$$$$
