
     RDKit          3D

 14 14  0  0  0  0  0  0  0  0999 V2000
   36.6780   29.4960   51.4430 C   0  0  0  0  0  0  0  0  0  0  0  0
   37.4730   30.5760   50.9640 C   0  0  0  0  0  0  0  0  0  0  0  0
   36.9470   31.3440   49.9020 C   0  0  0  0  0  0  0  0  0  0  0  0
   35.7330   30.9900   49.4300 N   0  0  0  0  0  0  0  0  0  0  0  0
   34.9980   29.9690   49.8940 C   0  0  0  0  0  0  0  0  0  0  0  0
   35.4930   29.2280   50.9100 N   0  0  0  0  0  0  0  0  0  0  0  0
   37.7450   32.4720   49.3800 C   0  0  0  0  0  0  0  0  0  0  0  0
   38.9900   32.3470   49.9440 F   0  0  0  0  0  0  0  0  0  0  0  0
   37.8790   32.4200   48.0030 F   0  0  0  0  0  0  0  0  0  0  0  0
   37.2230   33.6970   49.7470 F   0  0  0  0  0  0  0  0  0  0  0  0
   33.7530   29.6420   49.3760 O   0  0  0  0  0  0  0  0  0  0  0  0
   37.0527   28.8735   52.2688 H   0  0  0  0  0  0  0  0  0  0  0  0
   38.4559   30.8026   51.4029 H   0  0  0  0  0  0  0  0  0  0  0  0
   33.2459   28.8788   49.7508 H   0  0  0  0  0  0  0  0  0  0  0  0
  2  1  2  0
  3  2  1  0
  4  5  1  0
  4  3  2  0
  5  6  2  0
  6  1  1  0
  7 10  1  0
  7  3  1  0
  7  8  1  0
  9  7  1  0
 11  5  1  0
  1 12  1  0
  2 13  1  0
 11 14  1  0
M  ISO  3  12  14  13  14  14   3
M  END
>  <minimizedAffinity>  (1) 
-4.67242098

>  <minimizedRMSD>  (1) 
0.0221400298

$$$$
