
     RDKit          3D

 11 11  0  0  0  0  0  0  0  0999 V2000
   36.8880   29.8900   51.3210 C   0  0  0  0  0  0  0  0  0  0  0  0
   37.5850   30.2220   50.1340 C   0  0  0  0  0  0  0  0  0  0  0  0
   37.0060   29.8770   48.9140 C   0  0  0  0  0  0  0  0  0  0  0  0
   35.8070   29.2430   48.9320 N   0  0  0  0  0  0  0  0  0  0  0  0
   35.1650   28.9390   50.0740 C   0  0  0  0  0  0  0  0  0  0  0  0
   35.6970   29.2580   51.2760 N   0  0  0  0  0  0  0  0  0  0  0  0
   38.7910   30.8680   50.3560 O   0  0  0  0  0  0  0  0  0  0  0  0
   37.3249   30.1518   52.2960 H   0  0  0  0  0  0  0  0  0  0  0  0
   37.5072   30.1122   47.9635 H   0  0  0  0  0  0  0  0  0  0  0  0
   34.1940   28.4239   50.0299 H   0  0  0  0  0  0  0  0  0  0  0  0
   39.3541   31.1423   49.5893 H   0  0  0  0  0  0  0  0  0  0  0  0
  2  7  1  0
  2  1  2  0
  3  4  2  0
  3  2  1  0
  4  5  1  0
  5  6  2  0
  6  1  1  0
  1  8  1  0
  3  9  1  0
  5 10  1  0
  7 11  1  0
M  ISO  4   8  14   9  14  10  14  11   3
M  END
>  <minimizedAffinity>  (1) 
-3.19740748

>  <minimizedRMSD>  (1) 
0.712384343

$$$$
