
     RDKit          3D

 26 27  0  0  0  0  0  0  0  0999 V2000
   35.5660   29.0640   49.3240 C   0  0  0  0  0  0  0  0  0  0  0  0
   35.4440   30.1270   48.3930 C   0  0  0  0  0  0  0  0  0  0  0  0
   34.3580   30.0870   47.5300 C   0  0  0  0  0  0  0  0  0  0  0  0
   33.4850   29.0630   47.6090 N   0  0  0  0  0  0  0  0  0  0  0  0
   33.6180   28.0690   48.4970 C   0  0  0  0  0  0  0  0  0  0  0  0
   34.6650   28.0600   49.3670 N   0  0  0  0  0  0  0  0  0  0  0  0
   36.4470   31.0590   48.4920 O   0  0  0  0  0  0  0  0  0  0  0  0
   39.0810   33.2190   47.7320 N   0  0  0  0  0  0  0  0  0  0  0  0
   38.4120   32.3280   46.8150 C   0  0  0  0  0  0  0  0  0  0  0  0
   38.5830   30.9230   47.3550 C   0  0  0  0  0  0  0  0  0  0  0  0
   37.8110   30.8060   48.6500 C   0  0  0  0  0  0  0  0  0  0  0  0
   38.4280   31.8050   49.6070 C   0  0  0  0  0  0  0  0  0  0  0  0
   38.4660   33.2020   49.0250 C   0  0  0  0  0  0  0  0  0  0  0  0
   36.4129   29.0577   50.0259 H   0  0  0  0  0  0  0  0  0  0  0  0
   34.2107   30.8848   46.7872 H   0  0  0  0  0  0  0  0  0  0  0  0
   32.8775   27.2560   48.5234 H   0  0  0  0  0  0  0  0  0  0  0  0
   39.0422   34.1770   47.3558 H   0  0  0  0  0  0  0  0  0  0  0  0
   38.8645   32.4058   45.8154 H   0  0  0  0  0  0  0  0  0  0  0  0
   37.3465   32.5861   46.7252 H   0  0  0  0  0  0  0  0  0  0  0  0
   38.1957   30.1962   46.6258 H   0  0  0  0  0  0  0  0  0  0  0  0
   39.6486   30.7162   47.5330 H   0  0  0  0  0  0  0  0  0  0  0  0
   37.8773   29.7755   49.0291 H   0  0  0  0  0  0  0  0  0  0  0  0
   37.8345   31.8225   50.5330 H   0  0  0  0  0  0  0  0  0  0  0  0
   39.4639   31.4913   49.8030 H   0  0  0  0  0  0  0  0  0  0  0  0
   39.0382   33.8546   49.7008 H   0  0  0  0  0  0  0  0  0  0  0  0
   37.4307   33.5577   48.9177 H   0  0  0  0  0  0  0  0  0  0  0  0
  1  6  2  0
  2  7  1  0
  2  1  1  0
  3  4  1  0
  3  2  2  0
  4  5  2  0
  5  6  1  0
  7 11  1  0
  8 13  1  0
  9 10  1  0
  9  8  1  0
 10 11  1  0
 11 12  1  0
 13 12  1  0
  1 14  1  0
  3 15  1  0
  5 16  1  0
  8 17  1  0
  9 18  1  0
  9 19  1  0
 10 20  1  0
 10 21  1  0
 11 22  1  0
 12 23  1  0
 12 24  1  0
 13 25  1  0
 13 26  1  0
M  ISO  8  14  14  15  14  16  14  17   5  18  13  19  13  20  13  21  13
M  ISO  5  22  13  23  13  24  13  25  13  26  13
M  END
>  <minimizedAffinity>  (1) 
-4.66056442

>  <minimizedRMSD>  (1) 
2.21176386

$$$$
