
     RDKit          3D

 24 25  0  0  1  0  0  0  0  0999 V2000
   35.9610   30.6890   48.6370 O   0  0  0  0  0  0  0  0  0  0  0  0
   34.5510   28.9070   49.1950 C   0  0  0  0  0  0  0  0  0  0  0  0
   34.8660   29.9410   48.2670 C   0  0  0  0  0  0  0  0  0  0  0  0
   34.0690   30.0780   47.1380 C   0  0  0  0  0  0  0  0  0  0  0  0
   33.0420   29.2230   46.9830 N   0  0  0  0  0  0  0  0  0  0  0  0
   32.7520   28.2470   47.8690 C   0  0  0  0  0  0  0  0  0  0  0  0
   33.5050   28.0900   48.9710 N   0  0  0  0  0  0  0  0  0  0  0  0
   37.9940   31.6830   48.1010 C   0  0  1  0  0  0  0  0  0  0  0  0
   37.3050   30.3620   48.4640 C   0  0  1  0  0  0  0  0  0  0  0  0
   37.8770   29.9500   49.6510 O   0  0  0  0  0  0  0  0  0  0  0  0
   38.3980   31.0340   50.2960 C   0  0  0  0  0  0  0  0  0  0  0  0
   38.0910   32.2830   49.4890 C   0  0  2  0  0  0  0  0  0  0  0  0
   39.2810   31.4010   47.6520 O   0  0  0  0  0  0  0  0  0  0  0  0
   36.9060   32.8920   49.8730 O   0  0  0  0  0  0  0  0  0  0  0  0
   35.1650   28.7758   50.0982 H   0  0  0  0  0  0  0  0  0  0  0  0
   34.2713   30.8618   46.3932 H   0  0  0  0  0  0  0  0  0  0  0  0
   31.8973   27.5785   47.6887 H   0  0  0  0  0  0  0  0  0  0  0  0
   37.4973   32.2983   47.3364 H   0  0  0  0  0  0  0  0  0  0  0  0
   37.4057   29.5626   47.7151 H   0  0  0  0  0  0  0  0  0  0  0  0
   37.9471   31.1205   51.2956 H   0  0  0  0  0  0  0  0  0  0  0  0
   39.4867   30.9169   50.4005 H   0  0  0  0  0  0  0  0  0  0  0  0
   38.8316   33.0887   49.6002 H   0  0  0  0  0  0  0  0  0  0  0  0
   39.8802   31.2697   48.4290 H   0  0  0  0  0  0  0  0  0  0  0  0
   36.8539   32.9188   50.8613 H   0  0  0  0  0  0  0  0  0  0  0  0
  3  1  1  0
  3  2  2  0
  4  3  1  0
  5  4  2  0
  5  6  1  0
  6  7  2  0
  7  2  1  0
  8 13  1  0
  8  9  1  0
  8 12  1  0
  9  1  1  0
  9 10  1  0
 10 11  1  0
 12 14  1  0
 12 11  1  0
  2 15  1  0
  4 16  1  0
  6 17  1  0
  8 18  1  6
  9 19  1  6
 11 20  1  0
 11 21  1  0
 12 22  1  6
 13 23  1  0
 14 24  1  0
M  ISO  8  15  14  16  14  17  14  18  13  19  13  20  13  21  13  22  13
M  ISO  2  23   3  24   3
M  END
>  <minimizedAffinity>  (1) 
-4.38686132

>  <minimizedRMSD>  (1) 
2.81440806

$$$$
