
     RDKit          3D

 13 13  0  0  0  0  0  0  0  0999 V2000
   37.2570   30.8330   50.7100 C   0  0  0  0  0  0  0  0  0  0  0  0
   36.9980   31.5620   49.5190 C   0  0  0  0  0  0  0  0  0  0  0  0
   36.3680   30.8950   48.4810 C   0  0  0  0  0  0  0  0  0  0  0  0
   36.0390   29.6060   48.6590 N   0  0  0  0  0  0  0  0  0  0  0  0
   36.2910   28.9330   49.7880 C   0  0  0  0  0  0  0  0  0  0  0  0
   36.9020   29.5280   50.8340 N   0  0  0  0  0  0  0  0  0  0  0  0
   37.4390   32.8800   49.5980 O   0  0  0  0  0  0  0  0  0  0  0  0
   38.6580   33.2720   49.0150 C   0  0  0  0  0  0  0  0  0  0  0  0
   39.4450   34.0100   49.6930 O   0  0  0  0  0  0  0  0  0  0  0  0
   37.7563   31.3366   51.5509 H   0  0  0  0  0  0  0  0  0  0  0  0
   36.1431   31.4089   47.5348 H   0  0  0  0  0  0  0  0  0  0  0  0
   35.9949   27.8764   49.8648 H   0  0  0  0  0  0  0  0  0  0  0  0
   38.9253   32.9491   47.9980 H   0  0  0  0  0  0  0  0  0  0  0  0
  1  6  2  0
  2  7  1  0
  2  1  1  0
  3  4  1  0
  3  2  2  0
  4  5  2  0
  5  6  1  0
  8  7  1  0
  8  9  2  0
  1 10  1  0
  3 11  1  0
  5 12  1  0
  8 13  1  0
M  ISO  4  10  14  11  14  12  14  13   6
M  END
>  <minimizedAffinity>  (1) 
-3.37938213

>  <minimizedRMSD>  (1) 
2.24439573

$$$$
