
     RDKit          3D

 24 25  0  0  0  0  0  0  0  0999 V2000
   38.0650   31.7630   48.0900 C   0  0  0  0  0  0  0  0  0  0  0  0
   38.0740   30.5740   47.4270 C   0  0  0  0  0  0  0  0  0  0  0  0
   38.7420   30.4510   46.2450 C   0  0  0  0  0  0  0  0  0  0  0  0
   39.3990   31.5410   45.7430 C   0  0  0  0  0  0  0  0  0  0  0  0
   39.3810   32.7530   46.4310 C   0  0  0  0  0  0  0  0  0  0  0  0
   38.7070   32.8160   47.5920 N   0  0  0  0  0  0  0  0  0  0  0  0
   40.1050   33.8280   44.4620 C   0  0  0  0  0  0  0  0  0  0  0  0
   39.6110   32.9390   43.7060 O   0  0  0  0  0  0  0  0  0  0  0  0
   40.0780   33.8870   45.8860 N   0  0  0  0  0  0  0  0  0  0  0  0
   37.4390   32.0690   49.3010 O   0  0  0  0  0  0  0  0  0  0  0  0
   37.1780   30.4250   50.9380 C   0  0  0  0  0  0  0  0  0  0  0  0
   36.6140   31.1130   49.8430 C   0  0  0  0  0  0  0  0  0  0  0  0
   35.3290   30.7720   49.4350 C   0  0  0  0  0  0  0  0  0  0  0  0
   34.6880   29.7870   50.1200 N   0  0  0  0  0  0  0  0  0  0  0  0
   35.2420   29.1550   51.1470 C   0  0  0  0  0  0  0  0  0  0  0  0
   36.4860   29.4580   51.5720 N   0  0  0  0  0  0  0  0  0  0  0  0
   37.5400   29.7088   47.8468 H   0  0  0  0  0  0  0  0  0  0  0  0
   38.7526   29.4929   45.7047 H   0  0  0  0  0  0  0  0  0  0  0  0
   39.9444   31.4604   44.7912 H   0  0  0  0  0  0  0  0  0  0  0  0
   40.6192   34.6583   43.9559 H   0  0  0  0  0  0  0  0  0  0  0  0
   40.5003   34.6396   46.4483 H   0  0  0  0  0  0  0  0  0  0  0  0
   38.1926   30.6805   51.2776 H   0  0  0  0  0  0  0  0  0  0  0  0
   34.8474   31.2814   48.5873 H   0  0  0  0  0  0  0  0  0  0  0  0
   34.6744   28.3667   51.6631 H   0  0  0  0  0  0  0  0  0  0  0  0
  1 10  1  0
  2  1  2  0
  3  2  1  0
  4  3  2  0
  4  5  1  0
  5  6  2  0
  6  1  1  0
  7  9  1  0
  8  7  2  0
  9  5  1  0
 10 12  1  0
 11 16  2  0
 12 11  1  0
 13 12  2  0
 13 14  1  0
 14 15  2  0
 15 16  1  0
  2 17  1  0
  3 18  1  0
  4 19  1  0
  7 20  1  0
  9 21  1  0
 11 22  1  0
 13 23  1  0
 15 24  1  0
M  ISO  7  17  14  18  14  19  14  20   6  22  14  23  14  24  14
M  END
>  <minimizedAffinity>  (1) 
-5.2581501

>  <minimizedRMSD>  (1) 
0.520473182

$$$$
