
     RDKit          3D

 27 29  0  0  0  0  0  0  0  0999 V2000
   37.2940   31.4410   47.2420 C   0  0  0  0  0  0  0  0  0  0  0  0
   36.5110   30.5280   46.5870 C   0  0  0  0  0  0  0  0  0  0  0  0
   36.6300   30.3790   45.2430 C   0  0  0  0  0  0  0  0  0  0  0  0
   37.5340   31.1470   44.5610 C   0  0  0  0  0  0  0  0  0  0  0  0
   38.3230   32.0700   45.2330 C   0  0  0  0  0  0  0  0  0  0  0  0
   38.1620   32.1740   46.5630 N   0  0  0  0  0  0  0  0  0  0  0  0
   39.3110   32.9080   44.4760 C   0  0  0  0  0  0  0  0  0  0  0  0
   40.2430   33.7850   45.1820 C   0  0  0  0  0  0  0  0  0  0  0  0
   40.7740   32.4720   44.7490 C   0  0  0  0  0  0  0  0  0  0  0  0
   37.3220   31.7420   48.6170 O   0  0  0  0  0  0  0  0  0  0  0  0
   37.3990   30.2720   50.4080 C   0  0  0  0  0  0  0  0  0  0  0  0
   36.6150   30.9080   49.4470 C   0  0  0  0  0  0  0  0  0  0  0  0
   35.2500   30.6410   49.4360 C   0  0  0  0  0  0  0  0  0  0  0  0
   34.7530   29.7830   50.3490 N   0  0  0  0  0  0  0  0  0  0  0  0
   35.5210   29.1820   51.2610 C   0  0  0  0  0  0  0  0  0  0  0  0
   36.8700   29.4150   51.3110 N   0  0  0  0  0  0  0  0  0  0  0  0
   35.7882   29.9175   47.1481 H   0  0  0  0  0  0  0  0  0  0  0  0
   36.0060   29.6482   44.7076 H   0  0  0  0  0  0  0  0  0  0  0  0
   37.6362   31.0320   43.4718 H   0  0  0  0  0  0  0  0  0  0  0  0
   38.6363   33.0832   43.6251 H   0  0  0  0  0  0  0  0  0  0  0  0
   40.6008   34.7010   44.6892 H   0  0  0  0  0  0  0  0  0  0  0  0
   40.2064   34.3032   46.1516 H   0  0  0  0  0  0  0  0  0  0  0  0
   40.9923   31.6883   45.4894 H   0  0  0  0  0  0  0  0  0  0  0  0
   41.6222   32.1221   44.1422 H   0  0  0  0  0  0  0  0  0  0  0  0
   38.4802   30.4730   50.4328 H   0  0  0  0  0  0  0  0  0  0  0  0
   34.5900   31.1200   48.6978 H   0  0  0  0  0  0  0  0  0  0  0  0
   35.0637   28.4895   51.9830 H   0  0  0  0  0  0  0  0  0  0  0  0
  1 10  1  0
  2  1  2  0
  3  2  1  0
  4  5  1  0
  4  3  2  0
  5  6  2  0
  6  1  1  0
  7  9  1  0
  7  8  1  0
  7  5  1  0
  9  8  1  0
 10 12  1  0
 11 16  2  0
 12 11  1  0
 13 12  2  0
 13 14  1  0
 14 15  2  0
 15 16  1  0
  2 17  1  0
  3 18  1  0
  4 19  1  0
  7 20  1  0
  8 21  1  0
  8 22  1  0
  9 23  1  0
  9 24  1  0
 11 25  1  0
 13 26  1  0
 15 27  1  0
M  ISO  8  17  14  18  14  19  14  20  13  21  13  22  13  23  13  24  13
M  ISO  3  25  14  26  14  27  14
M  END
>  <minimizedAffinity>  (1) 
-4.58036232

>  <minimizedRMSD>  (1) 
1.74053597

$$$$
