
     RDKit          3D

 22 23  0  0  0  0  0  0  0  0999 V2000
   38.0760   31.7450   47.9140 C   0  0  0  0  0  0  0  0  0  0  0  0
   38.0240   30.5470   47.2760 C   0  0  0  0  0  0  0  0  0  0  0  0
   38.7380   30.3330   46.1350 C   0  0  0  0  0  0  0  0  0  0  0  0
   39.5100   31.3730   45.6580 C   0  0  0  0  0  0  0  0  0  0  0  0
   39.5640   32.5910   46.3060 C   0  0  0  0  0  0  0  0  0  0  0  0
   38.8240   32.7230   47.4350 N   0  0  0  0  0  0  0  0  0  0  0  0
   40.3940   33.7000   45.7890 C   0  0  0  0  0  0  0  0  0  0  0  0
   40.1950   34.0680   44.6040 O   0  0  0  0  0  0  0  0  0  0  0  0
   37.4160   32.1320   49.0830 O   0  0  0  0  0  0  0  0  0  0  0  0
   37.3190   30.5600   50.8170 C   0  0  0  0  0  0  0  0  0  0  0  0
   36.6730   31.1740   49.7310 C   0  0  0  0  0  0  0  0  0  0  0  0
   35.3830   30.7550   49.4340 C   0  0  0  0  0  0  0  0  0  0  0  0
   34.8220   29.7950   50.1930 N   0  0  0  0  0  0  0  0  0  0  0  0
   35.4620   29.2230   51.2270 C   0  0  0  0  0  0  0  0  0  0  0  0
   36.7210   29.6010   51.5500 N   0  0  0  0  0  0  0  0  0  0  0  0
   37.3983   29.7401   47.6850 H   0  0  0  0  0  0  0  0  0  0  0  0
   38.7004   29.3656   45.6127 H   0  0  0  0  0  0  0  0  0  0  0  0
   40.0967   31.2279   44.7389 H   0  0  0  0  0  0  0  0  0  0  0  0
   41.1561   34.1842   46.4173 H   0  0  0  0  0  0  0  0  0  0  0  0
   38.3418   30.8711   51.0760 H   0  0  0  0  0  0  0  0  0  0  0  0
   34.8294   31.1994   48.5937 H   0  0  0  0  0  0  0  0  0  0  0  0
   34.9589   28.4416   51.8154 H   0  0  0  0  0  0  0  0  0  0  0  0
  1  9  1  0
  2  1  2  0
  3  2  1  0
  4  3  2  0
  4  5  1  0
  5  6  2  0
  6  1  1  0
  7  5  1  0
  8  7  2  0
  9 11  1  0
 10 15  2  0
 11 10  1  0
 12 11  2  0
 12 13  1  0
 13 14  2  0
 14 15  1  0
  2 16  1  0
  3 17  1  0
  4 18  1  0
  7 19  1  0
 10 20  1  0
 12 21  1  0
 14 22  1  0
M  ISO  7  16  14  17  14  18  14  19   6  20  14  21  14  22  14
M  END
>  <minimizedAffinity>  (1) 
-4.53567505

>  <minimizedRMSD>  (1) 
0.428980649

$$$$
