
     RDKit          3D

 21 22  0  0  0  0  0  0  0  0999 V2000
   38.1220   31.7250   47.6140 C   0  0  0  0  0  0  0  0  0  0  0  0
   38.0280   30.4960   47.0380 C   0  0  0  0  0  0  0  0  0  0  0  0
   38.6040   30.2540   45.8290 C   0  0  0  0  0  0  0  0  0  0  0  0
   39.2800   31.2910   45.2170 C   0  0  0  0  0  0  0  0  0  0  0  0
   39.3780   32.5330   45.7930 C   0  0  0  0  0  0  0  0  0  0  0  0
   38.7830   32.7170   47.0010 N   0  0  0  0  0  0  0  0  0  0  0  0
   40.2680   33.8410   44.9500 S   0  0  0  0  0  0  0  0  0  0  0  0
   37.6030   32.1730   48.8420 O   0  0  0  0  0  0  0  0  0  0  0  0
   37.7230   30.6880   50.6460 C   0  0  0  0  0  0  0  0  0  0  0  0
   36.9650   31.2330   49.6100 C   0  0  0  0  0  0  0  0  0  0  0  0
   35.6550   30.7780   49.4600 C   0  0  0  0  0  0  0  0  0  0  0  0
   35.2060   29.8340   50.3310 N   0  0  0  0  0  0  0  0  0  0  0  0
   35.9530   29.3340   51.3070 C   0  0  0  0  0  0  0  0  0  0  0  0
   37.2420   29.7550   51.4870 N   0  0  0  0  0  0  0  0  0  0  0  0
   37.4823   29.6919   47.5534 H   0  0  0  0  0  0  0  0  0  0  0  0
   38.5334   29.2641   45.3545 H   0  0  0  0  0  0  0  0  0  0  0  0
   39.7536   31.1167   44.2396 H   0  0  0  0  0  0  0  0  0  0  0  0
   40.8364   34.6764   45.8752 H   0  0  0  0  0  0  0  0  0  0  0  0
   38.7578   31.0358   50.7811 H   0  0  0  0  0  0  0  0  0  0  0  0
   35.0057   31.1698   48.6631 H   0  0  0  0  0  0  0  0  0  0  0  0
   35.5309   28.5723   51.9790 H   0  0  0  0  0  0  0  0  0  0  0  0
  1  8  1  0
  2  1  2  0
  3  2  1  0
  4  5  1  0
  4  3  2  0
  5  6  2  0
  6  1  1  0
  7  5  1  0
  8 10  1  0
  9 14  2  0
 10  9  1  0
 11 10  2  0
 11 12  1  0
 12 13  2  0
 13 14  1  0
  2 15  1  0
  3 16  1  0
  4 17  1  0
  7 18  1  0
  9 19  1  0
 11 20  1  0
 13 21  1  0
M  ISO  7  15  14  16  14  17  14  18  11  19  14  20  14  21  14
M  END
>  <minimizedAffinity>  (1) 
-4.16225243

>  <minimizedRMSD>  (1) 
0.615924537

$$$$
