
     RDKit          3D

 26 27  0  0  0  0  0  0  0  0999 V2000
   39.4390   31.9190   46.6990 C   0  0  0  0  0  0  0  0  0  0  0  0
   39.5790   30.7390   46.0560 C   0  0  0  0  0  0  0  0  0  0  0  0
   39.9120   30.7050   44.7360 C   0  0  0  0  0  0  0  0  0  0  0  0
   40.0970   31.9080   44.0890 C   0  0  0  0  0  0  0  0  0  0  0  0
   39.9530   33.1090   44.7470 C   0  0  0  0  0  0  0  0  0  0  0  0
   39.6200   33.0680   46.0620 N   0  0  0  0  0  0  0  0  0  0  0  0
   40.1580   34.4080   44.0280 C   0  0  0  0  0  0  0  0  0  0  0  0
   39.1030   32.1330   48.0410 O   0  0  0  0  0  0  0  0  0  0  0  0
   38.2170   31.0400   49.8920 C   0  0  0  0  0  0  0  0  0  0  0  0
   38.0500   31.4390   48.5440 C   0  0  0  0  0  0  0  0  0  0  0  0
   36.8660   31.0840   47.9160 C   0  0  0  0  0  0  0  0  0  0  0  0
   35.9570   30.3840   48.6290 N   0  0  0  0  0  0  0  0  0  0  0  0
   36.1330   30.0240   49.8840 C   0  0  0  0  0  0  0  0  0  0  0  0
   37.2840   30.3430   50.5660 N   0  0  0  0  0  0  0  0  0  0  0  0
   35.0200   29.2520   50.5230 C   0  0  0  0  0  0  0  0  0  0  0  0
   35.2280   29.0920   51.8700 F   0  0  0  0  0  0  0  0  0  0  0  0
   34.7820   28.0540   49.8800 F   0  0  0  0  0  0  0  0  0  0  0  0
   33.8680   30.0310   50.3560 F   0  0  0  0  0  0  0  0  0  0  0  0
   39.4227   29.7978   46.6034 H   0  0  0  0  0  0  0  0  0  0  0  0
   40.0294   29.7495   44.2039 H   0  0  0  0  0  0  0  0  0  0  0  0
   40.3659   31.9086   43.0224 H   0  0  0  0  0  0  0  0  0  0  0  0
   40.2857   35.2172   44.7621 H   0  0  0  0  0  0  0  0  0  0  0  0
   41.0565   34.3401   43.3971 H   0  0  0  0  0  0  0  0  0  0  0  0
   39.2822   34.6201   43.3971 H   0  0  0  0  0  0  0  0  0  0  0  0
   39.1486   31.3112   50.4102 H   0  0  0  0  0  0  0  0  0  0  0  0
   36.6729   31.3636   46.8698 H   0  0  0  0  0  0  0  0  0  0  0  0
  1  8  1  0
  2  1  2  0
  3  2  1  0
  4  3  2  0
  4  5  1  0
  5  6  2  0
  6  1  1  0
  7  5  1  0
  8 10  1  0
  9 14  2  0
 10  9  1  0
 11 10  2  0
 11 12  1  0
 12 13  2  0
 13 15  1  0
 13 14  1  0
 15 16  1  0
 17 15  1  0
 18 15  1  0
  2 19  1  0
  3 20  1  0
  4 21  1  0
  7 22  1  0
  7 23  1  0
  7 24  1  0
  9 25  1  0
 11 26  1  0
M  ISO  8  19  14  20  14  21  14  22   8  23   8  24   8  25  14  26  14
M  END
>  <minimizedAffinity>  (1) 
-5.56850863

>  <minimizedRMSD>  (1) 
1.86252332

$$$$
