
     RDKit          3D

 27 28  0  0  0  0  0  0  0  0999 V2000
   39.0670   32.8050   47.4360 O   0  0  0  0  0  0  0  0  0  0  0  0
   37.7050   32.4980   49.2880 C   0  0  0  0  0  0  0  0  0  0  0  0
   38.3320   31.9240   48.1640 C   0  0  0  0  0  0  0  0  0  0  0  0
   38.1180   30.5880   47.9670 C   0  0  0  0  0  0  0  0  0  0  0  0
   37.3460   29.8970   48.8190 N   0  0  0  0  0  0  0  0  0  0  0  0
   36.7650   30.4610   49.8740 C   0  0  0  0  0  0  0  0  0  0  0  0
   36.9300   31.7810   50.1380 N   0  0  0  0  0  0  0  0  0  0  0  0
   34.6390   29.2600   50.4270 C   0  0  0  0  0  0  0  0  0  0  0  0
   34.1590   29.5810   49.2870 O   0  0  0  0  0  0  0  0  0  0  0  0
   35.9550   29.6910   50.7540 N   0  0  0  0  0  0  0  0  0  0  0  0
   39.3560   32.4400   46.1010 C   0  0  0  0  0  0  0  0  0  0  0  0
   40.5160   31.9640   45.5920 C   0  0  0  0  0  0  0  0  0  0  0  0
   40.6030   31.6670   44.2720 C   0  0  0  0  0  0  0  0  0  0  0  0
   39.5100   31.8570   43.4780 C   0  0  0  0  0  0  0  0  0  0  0  0
   38.3260   32.3410   43.9910 C   0  0  0  0  0  0  0  0  0  0  0  0
   38.2900   32.6240   45.3230 N   0  0  0  0  0  0  0  0  0  0  0  0
   37.1240   32.5500   43.1240 C   0  0  0  0  0  0  0  0  0  0  0  0
   37.8503   33.5707   49.4833 H   0  0  0  0  0  0  0  0  0  0  0  0
   38.5798   30.0789   47.1082 H   0  0  0  0  0  0  0  0  0  0  0  0
   34.0486   28.6644   51.1388 H   0  0  0  0  0  0  0  0  0  0  0  0
   36.3403   29.4326   51.6736 H   0  0  0  0  0  0  0  0  0  0  0  0
   41.3868   31.8183   46.2481 H   0  0  0  0  0  0  0  0  0  0  0  0
   41.5407   31.2787   43.8477 H   0  0  0  0  0  0  0  0  0  0  0  0
   39.5751   31.6189   42.4060 H   0  0  0  0  0  0  0  0  0  0  0  0
   36.2377   32.7041   43.7570 H   0  0  0  0  0  0  0  0  0  0  0  0
   37.2793   33.4346   42.4889 H   0  0  0  0  0  0  0  0  0  0  0  0
   36.9716   31.6649   42.4889 H   0  0  0  0  0  0  0  0  0  0  0  0
  1  3  1  0
  2  7  2  0
  3  2  1  0
  4  3  2  0
  4  5  1  0
  5  6  2  0
  6  7  1  0
  6 10  1  0
  8 10  1  0
  9  8  2  0
 11  1  1  0
 12 11  2  0
 13 12  1  0
 14 15  1  0
 14 13  2  0
 15 16  2  0
 16 11  1  0
 17 15  1  0
  2 18  1  0
  4 19  1  0
  8 20  1  0
 10 21  1  0
 12 22  1  0
 13 23  1  0
 14 24  1  0
 17 25  1  0
 17 26  1  0
 17 27  1  0
M  ISO  8  18  14  19  14  20   6  22  14  23  14  24  14  25   8  26   8
M  ISO  1  27   8
M  END
>  <minimizedAffinity>  (1) 
-5.34766531

>  <minimizedRMSD>  (1) 
2.84144878

$$$$
