
     RDKit          3D

 24 25  0  0  0  0  0  0  0  0999 V2000
   39.0410   31.7790   47.0640 C   0  0  0  0  0  0  0  0  0  0  0  0
   38.9540   30.5450   46.4760 C   0  0  0  0  0  0  0  0  0  0  0  0
   39.2470   30.3990   45.1660 C   0  0  0  0  0  0  0  0  0  0  0  0
   39.6290   31.5090   44.4450 C   0  0  0  0  0  0  0  0  0  0  0  0
   39.7190   32.7510   45.0270 C   0  0  0  0  0  0  0  0  0  0  0  0
   39.4130   32.8430   46.3500 N   0  0  0  0  0  0  0  0  0  0  0  0
   40.1360   33.9470   44.2320 C   0  0  0  0  0  0  0  0  0  0  0  0
   38.7830   32.1390   48.4040 O   0  0  0  0  0  0  0  0  0  0  0  0
   38.2410   30.9200   50.3080 C   0  0  0  0  0  0  0  0  0  0  0  0
   37.8250   31.4120   49.0550 C   0  0  0  0  0  0  0  0  0  0  0  0
   36.5450   31.1130   48.6460 C   0  0  0  0  0  0  0  0  0  0  0  0
   35.7660   30.3740   49.4590 N   0  0  0  0  0  0  0  0  0  0  0  0
   36.1810   29.9250   50.6270 C   0  0  0  0  0  0  0  0  0  0  0  0
   37.4310   30.1760   51.1020 N   0  0  0  0  0  0  0  0  0  0  0  0
   35.3280   29.1550   51.4420 O   0  0  0  0  0  0  0  0  0  0  0  0
   38.6454   29.6728   47.0710 H   0  0  0  0  0  0  0  0  0  0  0  0
   39.1819   29.4125   44.6837 H   0  0  0  0  0  0  0  0  0  0  0  0
   39.8679   31.3986   43.3770 H   0  0  0  0  0  0  0  0  0  0  0  0
   40.4198   34.7608   44.9155 H   0  0  0  0  0  0  0  0  0  0  0  0
   40.9956   33.6843   43.5979 H   0  0  0  0  0  0  0  0  0  0  0  0
   39.2994   34.2756   43.5979 H   0  0  0  0  0  0  0  0  0  0  0  0
   39.2597   31.1475   50.6550 H   0  0  0  0  0  0  0  0  0  0  0  0
   36.1668   31.4698   47.6766 H   0  0  0  0  0  0  0  0  0  0  0  0
   35.6479   28.8219   52.3177 H   0  0  0  0  0  0  0  0  0  0  0  0
  1  8  1  0
  2  1  2  0
  3  2  1  0
  4  5  1  0
  4  3  2  0
  5  6  2  0
  6  1  1  0
  7  5  1  0
  8 10  1  0
  9 14  2  0
 10  9  1  0
 11 10  2  0
 11 12  1  0
 12 13  2  0
 13 14  1  0
 13 15  1  0
  2 16  1  0
  3 17  1  0
  4 18  1  0
  7 19  1  0
  7 20  1  0
  7 21  1  0
  9 22  1  0
 11 23  1  0
 15 24  1  0
M  ISO  8  16  14  17  14  18  14  19   8  20   8  21   8  22  14  23  14
M  ISO  1  24   3
M  END
>  <minimizedAffinity>  (1) 
-4.77160358

>  <minimizedRMSD>  (1) 
1.2872051

$$$$
