
     RDKit          3D

 25 26  0  0  0  0  0  0  0  0999 V2000
   39.1640   31.8480   46.9260 C   0  0  0  0  0  0  0  0  0  0  0  0
   39.1600   30.6170   46.3560 C   0  0  0  0  0  0  0  0  0  0  0  0
   39.4740   30.4850   45.0470 C   0  0  0  0  0  0  0  0  0  0  0  0
   39.7940   31.6130   44.3230 C   0  0  0  0  0  0  0  0  0  0  0  0
   39.8000   32.8600   44.9050 C   0  0  0  0  0  0  0  0  0  0  0  0
   39.4750   32.9440   46.2280 N   0  0  0  0  0  0  0  0  0  0  0  0
   40.1490   34.0760   44.1080 C   0  0  0  0  0  0  0  0  0  0  0  0
   38.8710   32.1920   48.2550 O   0  0  0  0  0  0  0  0  0  0  0  0
   38.2920   31.0530   50.1780 C   0  0  0  0  0  0  0  0  0  0  0  0
   37.9030   31.4600   48.8920 C   0  0  0  0  0  0  0  0  0  0  0  0
   36.6620   31.0910   48.4490 C   0  0  0  0  0  0  0  0  0  0  0  0
   35.8760   30.3640   49.2540 N   0  0  0  0  0  0  0  0  0  0  0  0
   36.2570   29.9880   50.4680 C   0  0  0  0  0  0  0  0  0  0  0  0
   37.4760   30.3170   50.9740 N   0  0  0  0  0  0  0  0  0  0  0  0
   35.3570   29.2160   51.2560 N   0  0  0  0  0  0  0  0  0  0  0  0
   38.9028   29.7310   46.9551 H   0  0  0  0  0  0  0  0  0  0  0  0
   39.4739   29.4944   44.5687 H   0  0  0  0  0  0  0  0  0  0  0  0
   40.0500   31.5146   43.2577 H   0  0  0  0  0  0  0  0  0  0  0  0
   40.3871   34.9055   44.7900 H   0  0  0  0  0  0  0  0  0  0  0  0
   41.0216   33.8608   43.4738 H   0  0  0  0  0  0  0  0  0  0  0  0
   39.2950   34.3563   43.4738 H   0  0  0  0  0  0  0  0  0  0  0  0
   39.2866   31.3389   50.5510 H   0  0  0  0  0  0  0  0  0  0  0  0
   36.3154   31.3867   47.4478 H   0  0  0  0  0  0  0  0  0  0  0  0
   35.6305   28.9125   52.2015 H   0  0  0  0  0  0  0  0  0  0  0  0
   34.4324   28.9610   50.8806 H   0  0  0  0  0  0  0  0  0  0  0  0
  1  8  1  0
  2  1  2  0
  3  2  1  0
  4  5  1  0
  4  3  2  0
  5  6  2  0
  6  1  1  0
  7  5  1  0
  8 10  1  0
  9 14  2  0
 10  9  1  0
 11 10  2  0
 11 12  1  0
 12 13  2  0
 13 14  1  0
 13 15  1  0
  2 16  1  0
  3 17  1  0
  4 18  1  0
  7 19  1  0
  7 20  1  0
  7 21  1  0
  9 22  1  0
 11 23  1  0
 15 24  1  0
 15 25  1  0
M  ISO  8  16  14  17  14  18  14  19   8  20   8  21   8  22  14  23  14
M  END
>  <minimizedAffinity>  (1) 
-4.69717455

>  <minimizedRMSD>  (1) 
1.45525527

$$$$
