
     RDKit          3D

 30 31  0  0  0  0  0  0  0  0999 V2000
   39.5770   32.1190   46.5970 C   0  0  0  0  0  0  0  0  0  0  0  0
   39.8380   30.9170   46.0210 C   0  0  0  0  0  0  0  0  0  0  0  0
   40.2030   30.8460   44.7210 C   0  0  0  0  0  0  0  0  0  0  0  0
   40.3020   32.0220   44.0040 C   0  0  0  0  0  0  0  0  0  0  0  0
   40.0350   33.2390   44.5980 C   0  0  0  0  0  0  0  0  0  0  0  0
   39.6730   33.2510   45.9050 N   0  0  0  0  0  0  0  0  0  0  0  0
   40.1480   34.5070   43.7890 C   0  0  0  0  0  0  0  0  0  0  0  0
   39.1900   32.3750   47.9220 O   0  0  0  0  0  0  0  0  0  0  0  0
   38.2490   31.3590   49.8070 C   0  0  0  0  0  0  0  0  0  0  0  0
   38.1410   31.6590   48.4180 C   0  0  0  0  0  0  0  0  0  0  0  0
   37.0330   31.2150   47.7470 C   0  0  0  0  0  0  0  0  0  0  0  0
   36.1070   30.5170   48.4390 N   0  0  0  0  0  0  0  0  0  0  0  0
   36.2230   30.2460   49.7360 C   0  0  0  0  0  0  0  0  0  0  0  0
   37.2990   30.6570   50.4660 N   0  0  0  0  0  0  0  0  0  0  0  0
   34.8230   29.3030   50.3400 S   0  0  0  0  0  0  0  0  0  0  0  0
   34.3940   27.9400   49.2240 C   0  0  0  0  0  0  0  0  0  0  0  0
   32.9520   28.0700   48.7470 C   0  0  0  0  0  0  0  0  0  0  0  0
   39.7519   29.9956   46.6157 H   0  0  0  0  0  0  0  0  0  0  0  0
   40.4156   29.8765   44.2468 H   0  0  0  0  0  0  0  0  0  0  0  0
   40.5977   31.9885   42.9450 H   0  0  0  0  0  0  0  0  0  0  0  0
   40.2248   35.3693   44.4676 H   0  0  0  0  0  0  0  0  0  0  0  0
   41.0454   34.4585   43.1547 H   0  0  0  0  0  0  0  0  0  0  0  0
   39.2562   34.6179   43.1547 H   0  0  0  0  0  0  0  0  0  0  0  0
   39.1327   31.7093   50.3606 H   0  0  0  0  0  0  0  0  0  0  0  0
   36.9010   31.4211   46.6746 H   0  0  0  0  0  0  0  0  0  0  0  0
   35.0659   27.9607   48.3533 H   0  0  0  0  0  0  0  0  0  0  0  0
   34.5034   26.9896   49.7669 H   0  0  0  0  0  0  0  0  0  0  0  0
   32.2820   28.1304   49.6173 H   0  0  0  0  0  0  0  0  0  0  0  0
   32.8474   28.9812   48.1398 H   0  0  0  0  0  0  0  0  0  0  0  0
   32.6861   27.1922   48.1398 H   0  0  0  0  0  0  0  0  0  0  0  0
  1  8  1  0
  2  1  2  0
  3  2  1  0
  4  5  1  0
  4  3  2  0
  5  6  2  0
  6  1  1  0
  7  5  1  0
  8 10  1  0
  9 14  2  0
 10  9  1  0
 11 10  2  0
 11 12  1  0
 12 13  2  0
 13 15  1  0
 13 14  1  0
 16 15  1  0
 17 16  1  0
  2 18  1  0
  3 19  1  0
  4 20  1  0
  7 21  1  0
  7 22  1  0
  7 23  1  0
  9 24  1  0
 11 25  1  0
 16 26  1  0
 16 27  1  0
 17 28  1  0
 17 29  1  0
 17 30  1  0
M  ISO  8  18  14  19  14  20  14  21   8  22   8  23   8  24  14  25  14
M  ISO  5  26   8  27   8  28   8  29   8  30   8
M  END
>  <minimizedAffinity>  (1) 
-4.49899197

>  <minimizedRMSD>  (1) 
0.514525414

$$$$
