
     RDKit          3D

 25 26  0  0  0  0  0  0  0  0999 V2000
   34.5510   29.7920   47.4100 C   0  0  0  0  0  0  0  0  0  0  0  0
   35.8910   30.2600   47.3730 C   0  0  0  0  0  0  0  0  0  0  0  0
   36.4520   30.5440   46.1330 C   0  0  0  0  0  0  0  0  0  0  0  0
   35.6660   30.3540   45.0440 N   0  0  0  0  0  0  0  0  0  0  0  0
   34.4020   29.9150   45.0840 C   0  0  0  0  0  0  0  0  0  0  0  0
   33.8620   29.6380   46.2800 N   0  0  0  0  0  0  0  0  0  0  0  0
   33.7330   29.7980   43.8460 N   0  0  0  0  0  0  0  0  0  0  0  0
   36.4130   30.4010   48.7220 C   0  0  0  0  0  0  0  0  0  0  0  0
   36.5410   29.1950   49.4210 C   0  0  0  0  0  0  0  0  0  0  0  0
   36.9900   29.0730   50.7240 C   0  0  0  0  0  0  0  0  0  0  0  0
   37.3360   30.2390   51.3710 C   0  0  0  0  0  0  0  0  0  0  0  0
   37.2310   31.4560   50.7340 C   0  0  0  0  0  0  0  0  0  0  0  0
   36.7810   31.5480   49.4370 C   0  0  0  0  0  0  0  0  0  0  0  0
   37.8500   31.0110   46.0920 C   0  0  0  0  0  0  0  0  0  0  0  0
   38.5710   30.2200   46.9100 F   0  0  0  0  0  0  0  0  0  0  0  0
   38.3970   30.9590   44.8220 F   0  0  0  0  0  0  0  0  0  0  0  0
   37.9370   32.3470   46.5110 F   0  0  0  0  0  0  0  0  0  0  0  0
   34.0798   29.5556   48.3754 H   0  0  0  0  0  0  0  0  0  0  0  0
   32.7587   29.4651   43.8165 H   0  0  0  0  0  0  0  0  0  0  0  0
   34.2193   30.0455   42.9724 H   0  0  0  0  0  0  0  0  0  0  0  0
   36.2626   28.2713   48.8926 H   0  0  0  0  0  0  0  0  0  0  0  0
   37.0669   28.0936   51.2188 H   0  0  0  0  0  0  0  0  0  0  0  0
   37.7003   30.1978   52.4081 H   0  0  0  0  0  0  0  0  0  0  0  0
   37.5126   32.3726   51.2731 H   0  0  0  0  0  0  0  0  0  0  0  0
   36.7093   32.5345   48.9556 H   0  0  0  0  0  0  0  0  0  0  0  0
  2  1  2  0
  2  8  1  0
  3  2  1  0
  4  5  1  0
  4  3  2  0
  5  6  2  0
  6  1  1  0
  7  5  1  0
  8  9  2  0
  8 13  1  0
  9 10  1  0
 10 11  2  0
 12 11  1  0
 13 12  2  0
 14  3  1  0
 14 17  1  0
 14 15  1  0
 16 14  1  0
  1 18  1  0
  7 19  1  0
  7 20  1  0
  9 21  1  0
 10 22  1  0
 11 23  1  0
 12 24  1  0
 13 25  1  0
M  ISO  6  18  14  21  14  22  14  23  14  24  14  25  14
M  END
>  <minimizedAffinity>  (1) 
-5.30133295

>  <minimizedRMSD>  (1) 
4.21443224

$$$$
