
     RDKit          3D

 37 39  0  0  0  0  0  0  0  0999 V2000
   38.1260   31.6450   45.5580 C   0  0  0  0  0  0  0  0  0  0  0  0
   37.9740   31.5080   44.1600 C   0  0  0  0  0  0  0  0  0  0  0  0
   36.8860   30.7880   43.6800 C   0  0  0  0  0  0  0  0  0  0  0  0
   36.0330   30.2600   44.5960 N   0  0  0  0  0  0  0  0  0  0  0  0
   36.2180   30.4150   45.9040 C   0  0  0  0  0  0  0  0  0  0  0  0
   37.2710   31.1140   46.4340 N   0  0  0  0  0  0  0  0  0  0  0  0
   38.9310   32.1080   43.3950 O   0  0  0  0  0  0  0  0  0  0  0  0
   39.7720   31.2780   42.6230 C   0  0  0  0  0  0  0  0  0  0  0  0
   40.5720   30.2300   43.0600 C   0  0  0  0  0  0  0  0  0  0  0  0
   41.3110   29.5480   42.1670 C   0  0  0  0  0  0  0  0  0  0  0  0
   41.2410   29.9250   40.8380 C   0  0  0  0  0  0  0  0  0  0  0  0
   40.4430   30.9660   40.4210 C   0  0  0  0  0  0  0  0  0  0  0  0
   39.7130   31.6300   41.3470 N   0  0  0  0  0  0  0  0  0  0  0  0
   40.4070   31.3320   38.9580 C   0  0  0  0  0  0  0  0  0  0  0  0
   34.9010   29.5860   46.8410 S   0  0  0  0  0  0  0  0  0  0  0  0
   34.5570   30.7020   48.2400 C   0  0  0  0  0  0  0  0  0  0  0  0
   35.4930   30.4900   49.3720 C   0  0  0  0  0  0  0  0  0  0  0  0
   35.2340   29.4390   50.2450 C   0  0  0  0  0  0  0  0  0  0  0  0
   36.0210   29.1420   51.3350 C   0  0  0  0  0  0  0  0  0  0  0  0
   37.1320   29.8940   51.6110 C   0  0  0  0  0  0  0  0  0  0  0  0
   37.4120   30.9490   50.7520 C   0  0  0  0  0  0  0  0  0  0  0  0
   36.6170   31.2350   49.6670 C   0  0  0  0  0  0  0  0  0  0  0  0
   38.9862   32.2139   45.9407 H   0  0  0  0  0  0  0  0  0  0  0  0
   36.7222   30.6512   42.6009 H   0  0  0  0  0  0  0  0  0  0  0  0
   40.6008   29.9605   44.1261 H   0  0  0  0  0  0  0  0  0  0  0  0
   41.9533   28.7135   42.4847 H   0  0  0  0  0  0  0  0  0  0  0  0
   41.8392   29.3781   40.0943 H   0  0  0  0  0  0  0  0  0  0  0  0
   40.2998   32.4219   38.8552 H   0  0  0  0  0  0  0  0  0  0  0  0
   41.3413   31.0084   38.4760 H   0  0  0  0  0  0  0  0  0  0  0  0
   39.5536   30.8326   38.4760 H   0  0  0  0  0  0  0  0  0  0  0  0
   34.6498   31.7421   47.8941 H   0  0  0  0  0  0  0  0  0  0  0  0
   33.5397   30.4878   48.5995 H   0  0  0  0  0  0  0  0  0  0  0  0
   34.3518   28.8103   50.0542 H   0  0  0  0  0  0  0  0  0  0  0  0
   35.7562   28.2968   51.9873 H   0  0  0  0  0  0  0  0  0  0  0  0
   37.7748   29.6720   52.4756 H   0  0  0  0  0  0  0  0  0  0  0  0
   38.2960   31.5744   50.9454 H   0  0  0  0  0  0  0  0  0  0  0  0
   36.8841   32.0807   49.0163 H   0  0  0  0  0  0  0  0  0  0  0  0
  1  6  2  0
  2  1  1  0
  3  2  2  0
  3  4  1  0
  4  5  2  0
  5  6  1  0
  5 15  1  0
  7  2  1  0
  8  9  2  0
  8  7  1  0
 10  9  1  0
 11 10  2  0
 12 11  1  0
 12 13  2  0
 13  8  1  0
 14 12  1  0
 15 16  1  0
 16 17  1  0
 17 22  1  0
 17 18  2  0
 18 19  1  0
 19 20  2  0
 21 20  1  0
 22 21  2  0
  1 23  1  0
  3 24  1  0
  9 25  1  0
 10 26  1  0
 11 27  1  0
 14 28  1  0
 14 29  1  0
 14 30  1  0
 16 31  1  0
 16 32  1  0
 18 33  1  0
 19 34  1  0
 20 35  1  0
 21 36  1  0
 22 37  1  0
M  ISO  8  23  14  24  14  25  14  26  14  27  14  28   8  29   8  30   8
M  ISO  7  31   8  32   8  33  14  34  14  35  14  36  14  37  14
M  END
>  <minimizedAffinity>  (1) 
-5.27452469

>  <minimizedRMSD>  (1) 
3.83448291

$$$$
