
     RDKit          3D

 40 42  0  0  0  0  0  0  0  0999 V2000
   38.4550   31.8770   49.3270 C   0  0  0  0  0  0  0  0  0  0  0  0
   38.1900   31.9130   47.9470 C   0  0  0  0  0  0  0  0  0  0  0  0
   37.1650   31.1230   47.4660 C   0  0  0  0  0  0  0  0  0  0  0  0
   36.4760   30.3620   48.3570 N   0  0  0  0  0  0  0  0  0  0  0  0
   36.7540   30.3560   49.6390 C   0  0  0  0  0  0  0  0  0  0  0  0
   37.7700   31.1260   50.1810 N   0  0  0  0  0  0  0  0  0  0  0  0
   38.9900   32.7390   47.2160 O   0  0  0  0  0  0  0  0  0  0  0  0
   39.4730   32.2670   45.9860 C   0  0  0  0  0  0  0  0  0  0  0  0
   40.4940   31.3530   45.7770 C   0  0  0  0  0  0  0  0  0  0  0  0
   40.8330   31.0080   44.5160 C   0  0  0  0  0  0  0  0  0  0  0  0
   40.1470   31.5810   43.4780 C   0  0  0  0  0  0  0  0  0  0  0  0
   39.1270   32.4950   43.6870 C   0  0  0  0  0  0  0  0  0  0  0  0
   38.8240   32.8080   44.9730 N   0  0  0  0  0  0  0  0  0  0  0  0
   38.4020   33.0990   42.5220 C   0  0  0  0  0  0  0  0  0  0  0  0
   35.6540   29.2380   50.5490 S   0  0  0  0  0  0  0  0  0  0  0  0
   34.0340   29.4390   49.7340 C   0  0  0  0  0  0  0  0  0  0  0  0
   33.6640   28.1460   49.1920 N   0  0  0  0  0  0  0  0  0  0  0  0
   32.2410   28.0480   49.0800 C   0  0  0  0  0  0  0  0  0  0  0  0
   31.7450   27.8750   47.6700 C   0  0  0  0  0  0  0  0  0  0  0  0
   32.4730   28.6530   46.7680 O   0  0  0  0  0  0  0  0  0  0  0  0
   33.8070   28.3360   46.7300 C   0  0  0  0  0  0  0  0  0  0  0  0
   34.3870   27.8150   48.0030 C   0  0  0  0  0  0  0  0  0  0  0  0
   39.2707   32.5023   49.7189 H   0  0  0  0  0  0  0  0  0  0  0  0
   36.9137   31.1098   46.3952 H   0  0  0  0  0  0  0  0  0  0  0  0
   41.0250   30.9113   46.6331 H   0  0  0  0  0  0  0  0  0  0  0  0
   41.6400   30.2848   44.3272 H   0  0  0  0  0  0  0  0  0  0  0  0
   40.4142   31.3070   42.4467 H   0  0  0  0  0  0  0  0  0  0  0  0
   37.6055   33.7626   42.8898 H   0  0  0  0  0  0  0  0  0  0  0  0
   39.1092   33.6789   41.9107 H   0  0  0  0  0  0  0  0  0  0  0  0
   37.9594   32.2988   41.9107 H   0  0  0  0  0  0  0  0  0  0  0  0
   33.2824   29.7701   50.4657 H   0  0  0  0  0  0  0  0  0  0  0  0
   34.0886   30.1955   48.9373 H   0  0  0  0  0  0  0  0  0  0  0  0
   31.9069   27.1832   49.6720 H   0  0  0  0  0  0  0  0  0  0  0  0
   31.8283   28.9995   49.4464 H   0  0  0  0  0  0  0  0  0  0  0  0
   31.8402   26.8166   47.3858 H   0  0  0  0  0  0  0  0  0  0  0  0
   30.6947   28.1997   47.6335 H   0  0  0  0  0  0  0  0  0  0  0  0
   33.9497   27.5685   45.9550 H   0  0  0  0  0  0  0  0  0  0  0  0
   34.3330   29.2804   46.5263 H   0  0  0  0  0  0  0  0  0  0  0  0
   34.4342   26.7185   47.9297 H   0  0  0  0  0  0  0  0  0  0  0  0
   35.3708   28.2964   48.1049 H   0  0  0  0  0  0  0  0  0  0  0  0
  1  6  2  0
  2  1  1  0
  3  2  2  0
  3  4  1  0
  4  5  2  0
  5  6  1  0
  5 15  1  0
  7  2  1  0
  8  7  1  0
  9  8  2  0
 10  9  1  0
 11 12  1  0
 11 10  2  0
 12 13  2  0
 13  8  1  0
 14 12  1  0
 16 15  1  0
 17 16  1  0
 18 17  1  0
 19 18  1  0
 20 19  1  0
 21 20  1  0
 21 22  1  0
 22 17  1  0
  1 23  1  0
  3 24  1  0
  9 25  1  0
 10 26  1  0
 11 27  1  0
 14 28  1  0
 14 29  1  0
 14 30  1  0
 16 31  1  0
 16 32  1  0
 18 33  1  0
 18 34  1  0
 19 35  1  0
 19 36  1  0
 21 37  1  0
 21 38  1  0
 22 39  1  0
 22 40  1  0
M  ISO  8  23  14  24  14  25  14  26  14  27  14  28   8  29   8  30   8
M  ISO  8  31   8  32   8  33  13  34  13  35  13  36  13  37  13  38  13
M  ISO  2  39  13  40  13
M  END
>  <minimizedAffinity>  (1) 
-5.0781002

>  <minimizedRMSD>  (1) 
1.7996459

$$$$
