
     RDKit          3D

 29 30  0  0  0  0  0  0  0  0999 V2000
   37.9770   30.3120   49.3330 C   0  0  0  0  0  0  0  0  0  0  0  0
   37.9160   31.0000   48.1080 C   0  0  0  0  0  0  0  0  0  0  0  0
   36.7800   30.8360   47.3330 C   0  0  0  0  0  0  0  0  0  0  0  0
   35.7990   30.0230   47.7990 N   0  0  0  0  0  0  0  0  0  0  0  0
   35.8920   29.3980   48.9470 C   0  0  0  0  0  0  0  0  0  0  0  0
   37.0000   29.5150   49.7780 N   0  0  0  0  0  0  0  0  0  0  0  0
   39.0010   31.7660   47.8170 O   0  0  0  0  0  0  0  0  0  0  0  0
   39.4800   31.7410   46.4880 C   0  0  0  0  0  0  0  0  0  0  0  0
   39.8030   30.6490   45.7290 C   0  0  0  0  0  0  0  0  0  0  0  0
   40.2480   30.8310   44.4670 C   0  0  0  0  0  0  0  0  0  0  0  0
   40.3640   32.1030   43.9780 C   0  0  0  0  0  0  0  0  0  0  0  0
   40.0300   33.1990   44.7620 C   0  0  0  0  0  0  0  0  0  0  0  0
   39.5880   32.9850   46.0210 N   0  0  0  0  0  0  0  0  0  0  0  0
   40.1690   34.5970   44.1930 C   0  0  0  0  0  0  0  0  0  0  0  0
   34.4220   28.3980   49.2780 S   0  0  0  0  0  0  0  0  0  0  0  0
   33.5690   29.2920   50.6420 C   0  0  0  0  0  0  0  0  0  0  0  0
   34.4800   29.2910   51.7660 N   0  0  0  0  0  0  0  0  0  0  0  0
   38.8744   30.4359   49.9570 H   0  0  0  0  0  0  0  0  0  0  0  0
   36.6760   31.3507   46.3664 H   0  0  0  0  0  0  0  0  0  0  0  0
   39.7013   29.6346   46.1421 H   0  0  0  0  0  0  0  0  0  0  0  0
   40.5138   29.9670   43.8402 H   0  0  0  0  0  0  0  0  0  0  0  0
   40.7263   32.2595   42.9512 H   0  0  0  0  0  0  0  0  0  0  0  0
   40.2411   35.3226   45.0166 H   0  0  0  0  0  0  0  0  0  0  0  0
   41.0771   34.6526   43.5747 H   0  0  0  0  0  0  0  0  0  0  0  0
   39.2896   34.8303   43.5747 H   0  0  0  0  0  0  0  0  0  0  0  0
   33.3429   30.3244   50.3369 H   0  0  0  0  0  0  0  0  0  0  0  0
   32.6164   28.8068   50.9013 H   0  0  0  0  0  0  0  0  0  0  0  0
   33.9418   29.2916   52.6442 H   0  0  0  0  0  0  0  0  0  0  0  0
   35.0725   28.4494   51.7270 H   0  0  0  0  0  0  0  0  0  0  0  0
  1  6  2  0
  2  1  1  0
  3  4  1  0
  3  2  2  0
  4  5  2  0
  5 15  1  0
  5  6  1  0
  7  2  1  0
  8  7  1  0
  9  8  2  0
 10  9  1  0
 11 10  2  0
 11 12  1  0
 12 13  2  0
 13  8  1  0
 14 12  1  0
 15 16  1  0
 16 17  1  0
  1 18  1  0
  3 19  1  0
  9 20  1  0
 10 21  1  0
 11 22  1  0
 14 23  1  0
 14 24  1  0
 14 25  1  0
 16 26  1  0
 16 27  1  0
 17 28  1  0
 17 29  1  0
M  ISO  8  18  14  19  14  20  14  21  14  22  14  23   8  24   8  25   8
M  ISO  4  26   8  27   8  28   5  29   5
M  END
>  <minimizedAffinity>  (1) 
-3.81586552

>  <minimizedRMSD>  (1) 
0.170471847

$$$$
