
     RDKit          3D

 39 41  0  0  0  0  0  0  0  0999 V2000
   38.7080   32.8390   48.3420 C   0  0  0  0  0  0  0  0  0  0  0  0
   39.0250   32.1810   47.1510 C   0  0  0  0  0  0  0  0  0  0  0  0
   38.5290   30.9080   46.9910 C   0  0  0  0  0  0  0  0  0  0  0  0
   37.7690   30.3790   47.9920 N   0  0  0  0  0  0  0  0  0  0  0  0
   37.4990   31.0310   49.0880 C   0  0  0  0  0  0  0  0  0  0  0  0
   37.9670   32.3120   49.3100 N   0  0  0  0  0  0  0  0  0  0  0  0
   39.7920   32.8290   46.2450 O   0  0  0  0  0  0  0  0  0  0  0  0
   39.9480   32.2970   44.9730 C   0  0  0  0  0  0  0  0  0  0  0  0
   40.6570   31.1700   44.6170 C   0  0  0  0  0  0  0  0  0  0  0  0
   40.6990   30.8000   43.3210 C   0  0  0  0  0  0  0  0  0  0  0  0
   40.0430   31.5470   42.3950 C   0  0  0  0  0  0  0  0  0  0  0  0
   39.3270   32.6880   42.7640 C   0  0  0  0  0  0  0  0  0  0  0  0
   39.2950   33.0470   44.0770 N   0  0  0  0  0  0  0  0  0  0  0  0
   38.6040   33.5100   41.7130 C   0  0  0  0  0  0  0  0  0  0  0  0
   36.4760   30.0660   50.2250 S   0  0  0  0  0  0  0  0  0  0  0  0
   34.7710   30.5150   49.7970 C   0  0  0  0  0  0  0  0  0  0  0  0
   34.4090   27.7820   49.8700 F   0  0  0  0  0  0  0  0  0  0  0  0
   34.2960   28.4310   48.6700 C   0  0  0  0  0  0  0  0  0  0  0  0
   34.4590   29.8050   48.5190 C   0  0  0  0  0  0  0  0  0  0  0  0
   34.3350   30.4010   47.2970 C   0  0  0  0  0  0  0  0  0  0  0  0
   34.0380   29.6340   46.1540 C   0  0  0  0  0  0  0  0  0  0  0  0
   33.8730   28.2610   46.2940 C   0  0  0  0  0  0  0  0  0  0  0  0
   34.0030   27.6850   47.5410 C   0  0  0  0  0  0  0  0  0  0  0  0
   33.8320   26.2780   47.6700 N   0  0  0  0  0  0  0  0  0  0  0  0
   39.0966   33.8578   48.4871 H   0  0  0  0  0  0  0  0  0  0  0  0
   38.7401   30.3312   46.0785 H   0  0  0  0  0  0  0  0  0  0  0  0
   41.1827   30.5790   45.3815 H   0  0  0  0  0  0  0  0  0  0  0  0
   41.2584   29.9030   43.0168 H   0  0  0  0  0  0  0  0  0  0  0  0
   40.0763   31.2482   41.3369 H   0  0  0  0  0  0  0  0  0  0  0  0
   37.9550   34.2479   42.2072 H   0  0  0  0  0  0  0  0  0  0  0  0
   39.3409   34.0321   41.0850 H   0  0  0  0  0  0  0  0  0  0  0  0
   37.9921   32.8458   41.0850 H   0  0  0  0  0  0  0  0  0  0  0  0
   34.0813   30.1918   50.5906 H   0  0  0  0  0  0  0  0  0  0  0  0
   34.6596   31.6038   49.6872 H   0  0  0  0  0  0  0  0  0  0  0  0
   34.4682   31.4890   47.2045 H   0  0  0  0  0  0  0  0  0  0  0  0
   33.9384   30.1126   45.1686 H   0  0  0  0  0  0  0  0  0  0  0  0
   33.6406   27.6384   45.4174 H   0  0  0  0  0  0  0  0  0  0  0  0
   33.9253   25.8303   48.5929 H   0  0  0  0  0  0  0  0  0  0  0  0
   33.6150   25.7074   46.8404 H   0  0  0  0  0  0  0  0  0  0  0  0
  1  6  2  0
  2  1  1  0
  3  2  2  0
  3  4  1  0
  4  5  2  0
  5  6  1  0
  5 15  1  0
  7  2  1  0
  8  7  1  0
  9  8  2  0
 10  9  1  0
 11 12  1  0
 11 10  2  0
 12 13  2  0
 13  8  1  0
 14 12  1  0
 16 15  1  0
 18 17  1  0
 19 18  2  0
 19 16  1  0
 20 19  1  0
 21 22  1  0
 21 20  2  0
 22 23  2  0
 23 24  1  0
 23 18  1  0
  1 25  1  0
  3 26  1  0
  9 27  1  0
 10 28  1  0
 11 29  1  0
 14 30  1  0
 14 31  1  0
 14 32  1  0
 16 33  1  0
 16 34  1  0
 20 35  1  0
 21 36  1  0
 22 37  1  0
 24 38  1  0
 24 39  1  0
M  ISO  8  25  14  26  14  27  14  28  14  29  14  30   8  31   8  32   8
M  ISO  5  33   8  34   8  35  14  36  14  37  14
M  END
>  <minimizedAffinity>  (1) 
-6.02449989

>  <minimizedRMSD>  (1) 
1.66336107

$$$$
