
     RDKit          3D

 19 20  0  0  0  0  0  0  0  0999 V2000
   37.5230   30.4300   50.9260 C   0  0  0  0  0  0  0  0  0  0  0  0
   37.2000   31.0550   49.7150 C   0  0  0  0  0  0  0  0  0  0  0  0
   35.9630   30.7820   49.1370 C   0  0  0  0  0  0  0  0  0  0  0  0
   35.1250   29.9150   49.7870 N   0  0  0  0  0  0  0  0  0  0  0  0
   35.4710   29.3330   50.9530 C   0  0  0  0  0  0  0  0  0  0  0  0
   36.6610   29.5830   51.5240 N   0  0  0  0  0  0  0  0  0  0  0  0
   38.0800   31.9770   49.0170 C   0  0  0  0  0  0  0  0  0  0  0  0
   38.5450   33.1490   49.5740 C   0  0  0  0  0  0  0  0  0  0  0  0
   39.3820   34.0420   48.9340 C   0  0  0  0  0  0  0  0  0  0  0  0
   39.7960   33.7680   47.6470 C   0  0  0  0  0  0  0  0  0  0  0  0
   39.3220   32.5910   47.1040 C   0  0  0  0  0  0  0  0  0  0  0  0
   38.5070   31.7430   47.7560 N   0  0  0  0  0  0  0  0  0  0  0  0
   38.4960   30.6335   51.3971 H   0  0  0  0  0  0  0  0  0  0  0  0
   35.6673   31.2490   48.1860 H   0  0  0  0  0  0  0  0  0  0  0  0
   34.7686   28.6434   51.4439 H   0  0  0  0  0  0  0  0  0  0  0  0
   38.2275   33.3897   50.5993 H   0  0  0  0  0  0  0  0  0  0  0  0
   39.7138   34.9588   49.4434 H   0  0  0  0  0  0  0  0  0  0  0  0
   40.4610   34.4440   47.0895 H   0  0  0  0  0  0  0  0  0  0  0  0
   39.6283   32.3319   46.0798 H   0  0  0  0  0  0  0  0  0  0  0  0
  1  6  2  0
  2  1  1  0
  3  2  2  0
  3  4  1  0
  4  5  2  0
  5  6  1  0
  7  8  2  0
  7  2  1  0
  9  8  1  0
 10  9  2  0
 11 10  1  0
 11 12  2  0
 12  7  1  0
  1 13  1  0
  3 14  1  0
  5 15  1  0
  8 16  1  0
  9 17  1  0
 10 18  1  0
 11 19  1  0
M  ISO  7  13  14  14  14  15  14  16  14  17  14  18  14  19  14
M  END
>  <minimizedAffinity>  (1) 
-4.65104055

>  <minimizedRMSD>  (1) 
2.53200078

$$$$
