
     RDKit          3D

 33 35  0  0  0  0  0  0  0  0999 V2000
   38.1650   32.1200   49.0560 C   0  0  0  0  0  0  0  0  0  0  0  0
   38.5970   33.2750   49.6550 C   0  0  0  0  0  0  0  0  0  0  0  0
   39.4500   34.1890   49.0700 C   0  0  0  0  0  0  0  0  0  0  0  0
   39.9160   33.9470   47.7890 C   0  0  0  0  0  0  0  0  0  0  0  0
   39.4700   32.7860   47.2110 C   0  0  0  0  0  0  0  0  0  0  0  0
   38.6380   31.9200   47.8140 N   0  0  0  0  0  0  0  0  0  0  0  0
   39.9190   32.4810   45.8850 N   0  0  0  0  0  0  0  0  0  0  0  0
   40.3580   31.1300   45.6120 C   0  0  0  0  0  0  0  0  0  0  0  0
   40.6560   31.0290   44.1420 C   0  0  0  0  0  0  0  0  0  0  0  0
   39.5310   31.5520   43.3970 N   0  0  0  0  0  0  0  0  0  0  0  0
   39.3990   32.9840   43.5310 C   0  0  0  0  0  0  0  0  0  0  0  0
   39.9340   33.4980   44.8410 C   0  0  0  0  0  0  0  0  0  0  0  0
   37.5740   30.5040   50.8940 C   0  0  0  0  0  0  0  0  0  0  0  0
   37.2620   31.1620   49.6870 C   0  0  0  0  0  0  0  0  0  0  0  0
   36.0560   30.8980   49.0660 C   0  0  0  0  0  0  0  0  0  0  0  0
   35.2220   29.9890   49.6830 N   0  0  0  0  0  0  0  0  0  0  0  0
   35.5410   29.3780   50.8290 C   0  0  0  0  0  0  0  0  0  0  0  0
   36.7030   29.6270   51.4350 N   0  0  0  0  0  0  0  0  0  0  0  0
   38.2388   33.4883   50.6730 H   0  0  0  0  0  0  0  0  0  0  0  0
   39.7548   35.0957   49.6132 H   0  0  0  0  0  0  0  0  0  0  0  0
   40.5969   34.6381   47.2706 H   0  0  0  0  0  0  0  0  0  0  0  0
   41.2648   30.9071   46.1933 H   0  0  0  0  0  0  0  0  0  0  0  0
   39.5771   30.4089   45.8950 H   0  0  0  0  0  0  0  0  0  0  0  0
   41.5578   31.6136   43.9073 H   0  0  0  0  0  0  0  0  0  0  0  0
   40.8267   29.9773   43.8685 H   0  0  0  0  0  0  0  0  0  0  0  0
   38.6693   31.1066   43.7433 H   0  0  0  0  0  0  0  0  0  0  0  0
   39.9522   33.4664   42.7117 H   0  0  0  0  0  0  0  0  0  0  0  0
   38.3259   33.2231   43.4943 H   0  0  0  0  0  0  0  0  0  0  0  0
   40.9703   33.8353   44.6914 H   0  0  0  0  0  0  0  0  0  0  0  0
   39.2845   34.3235   45.1677 H   0  0  0  0  0  0  0  0  0  0  0  0
   38.5313   30.7063   51.3967 H   0  0  0  0  0  0  0  0  0  0  0  0
   35.7742   31.3900   48.1234 H   0  0  0  0  0  0  0  0  0  0  0  0
   34.8368   28.6616   51.2772 H   0  0  0  0  0  0  0  0  0  0  0  0
  1  2  2  0
  1 14  1  0
  3  2  1  0
  4  3  2  0
  5  4  1  0
  5  6  2  0
  6  1  1  0
  7  5  1  0
  8  7  1  0
  9  8  1  0
 10 11  1  0
 10  9  1  0
 11 12  1  0
 12  7  1  0
 13 18  2  0
 14 13  1  0
 15 16  1  0
 15 14  2  0
 16 17  2  0
 17 18  1  0
  2 19  1  0
  3 20  1  0
  4 21  1  0
  8 22  1  0
  8 23  1  0
  9 24  1  0
  9 25  1  0
 10 26  1  0
 11 27  1  0
 11 28  1  0
 12 29  1  0
 12 30  1  0
 13 31  1  0
 15 32  1  0
 17 33  1  0
M  ISO  8  19  14  20  14  21  14  22  13  23  13  24  13  25  13  26   5
M  ISO  7  27  13  28  13  29  13  30  13  31  14  32  14  33  14
M  END
>  <minimizedAffinity>  (1) 
-6.59478521

>  <minimizedRMSD>  (1) 
0.266340107

$$$$
