
     RDKit          3D

 28 30  0  0  0  0  0  0  0  0999 V2000
   38.0070   31.9790   49.1140 C   0  0  0  0  0  0  0  0  0  0  0  0
   38.5400   33.1020   49.6860 C   0  0  0  0  0  0  0  0  0  0  0  0
   39.3700   33.9860   49.0260 C   0  0  0  0  0  0  0  0  0  0  0  0
   39.6970   33.7460   47.7120 C   0  0  0  0  0  0  0  0  0  0  0  0
   39.1560   32.6170   47.1520 C   0  0  0  0  0  0  0  0  0  0  0  0
   38.3460   31.7640   47.8130 N   0  0  0  0  0  0  0  0  0  0  0  0
   37.4900   30.3940   51.0060 C   0  0  0  0  0  0  0  0  0  0  0  0
   37.1310   31.0460   49.8100 C   0  0  0  0  0  0  0  0  0  0  0  0
   35.8830   30.7910   49.2680 C   0  0  0  0  0  0  0  0  0  0  0  0
   35.0530   29.9140   49.9180 N   0  0  0  0  0  0  0  0  0  0  0  0
   35.4270   29.3100   51.0550 C   0  0  0  0  0  0  0  0  0  0  0  0
   36.6230   29.5400   51.5970 N   0  0  0  0  0  0  0  0  0  0  0  0
   39.4740   32.3200   45.7610 C   0  0  0  0  0  0  0  0  0  0  0  0
   40.3210   31.2720   45.4150 C   0  0  0  0  0  0  0  0  0  0  0  0
   40.6730   30.9250   44.1260 C   0  0  0  0  0  0  0  0  0  0  0  0
   40.1330   31.6870   43.1270 C   0  0  0  0  0  0  0  0  0  0  0  0
   39.2920   32.7300   43.4510 C   0  0  0  0  0  0  0  0  0  0  0  0
   38.9810   33.0240   44.7400 N   0  0  0  0  0  0  0  0  0  0  0  0
   38.2918   33.3135   50.7366 H   0  0  0  0  0  0  0  0  0  0  0  0
   39.7650   34.8718   49.5450 H   0  0  0  0  0  0  0  0  0  0  0  0
   40.3542   34.4203   47.1432 H   0  0  0  0  0  0  0  0  0  0  0  0
   38.4750   30.5792   51.4593 H   0  0  0  0  0  0  0  0  0  0  0  0
   35.5641   31.2811   48.3363 H   0  0  0  0  0  0  0  0  0  0  0  0
   34.7348   28.6124   51.5493 H   0  0  0  0  0  0  0  0  0  0  0  0
   40.7441   30.6718   46.2340 H   0  0  0  0  0  0  0  0  0  0  0  0
   41.3492   30.0836   43.9145 H   0  0  0  0  0  0  0  0  0  0  0  0
   40.3676   31.4696   42.0745 H   0  0  0  0  0  0  0  0  0  0  0  0
   38.8612   33.3406   42.6439 H   0  0  0  0  0  0  0  0  0  0  0  0
  1  2  2  0
  1  8  1  0
  3  2  1  0
  4  3  2  0
  5  4  1  0
  5  6  2  0
  6  1  1  0
  7 12  2  0
  8  7  1  0
  9  8  2  0
  9 10  1  0
 10 11  2  0
 11 12  1  0
 13  5  1  0
 14 13  2  0
 15 14  1  0
 16 17  1  0
 16 15  2  0
 17 18  2  0
 18 13  1  0
  2 19  1  0
  3 20  1  0
  4 21  1  0
  7 22  1  0
  9 23  1  0
 11 24  1  0
 14 25  1  0
 15 26  1  0
 16 27  1  0
 17 28  1  0
M  ISO  8  19  14  20  14  21  14  22  14  23  14  24  14  25  14  26  14
M  ISO  2  27  14  28  14
M  END
>  <minimizedAffinity>  (1) 
-6.31294727

>  <minimizedRMSD>  (1) 
0.249590933

$$$$
