
     RDKit          3D

 29 31  0  0  0  0  0  0  0  0999 V2000
   37.7900   31.5750   48.8850 C   0  0  0  0  0  0  0  0  0  0  0  0
   38.3580   32.7550   49.3180 C   0  0  0  0  0  0  0  0  0  0  0  0
   39.2160   33.5210   48.5460 C   0  0  0  0  0  0  0  0  0  0  0  0
   39.5340   33.1020   47.2810 C   0  0  0  0  0  0  0  0  0  0  0  0
   38.9580   31.9270   46.8740 C   0  0  0  0  0  0  0  0  0  0  0  0
   38.1210   31.1850   47.6330 N   0  0  0  0  0  0  0  0  0  0  0  0
   37.2680   30.1980   50.9340 C   0  0  0  0  0  0  0  0  0  0  0  0
   36.8920   30.7720   49.7020 C   0  0  0  0  0  0  0  0  0  0  0  0
   35.6070   30.5640   49.2450 C   0  0  0  0  0  0  0  0  0  0  0  0
   34.7740   29.8010   50.0350 N   0  0  0  0  0  0  0  0  0  0  0  0
   35.1620   29.2700   51.2000 C   0  0  0  0  0  0  0  0  0  0  0  0
   36.4010   29.4630   51.6530 N   0  0  0  0  0  0  0  0  0  0  0  0
   40.0990   33.9210   44.9670 Cl  0  0  0  0  0  0  0  0  0  0  0  0
   39.7850   32.2300   44.5480 C   0  0  0  0  0  0  0  0  0  0  0  0
   39.2530   31.4190   45.5360 C   0  0  0  0  0  0  0  0  0  0  0  0
   39.0450   30.1230   45.1120 C   0  0  0  0  0  0  0  0  0  0  0  0
   39.3370   29.6830   43.8380 C   0  0  0  0  0  0  0  0  0  0  0  0
   39.8670   30.5580   42.9110 C   0  0  0  0  0  0  0  0  0  0  0  0
   40.1050   31.8720   43.2550 C   0  0  0  0  0  0  0  0  0  0  0  0
   38.1164   33.1070   50.3318 H   0  0  0  0  0  0  0  0  0  0  0  0
   39.6375   34.4557   48.9444 H   0  0  0  0  0  0  0  0  0  0  0  0
   40.2115   33.6747   46.6306 H   0  0  0  0  0  0  0  0  0  0  0  0
   38.2885   30.3542   51.3137 H   0  0  0  0  0  0  0  0  0  0  0  0
   35.2619   30.9889   48.2909 H   0  0  0  0  0  0  0  0  0  0  0  0
   34.4531   28.6694   51.7889 H   0  0  0  0  0  0  0  0  0  0  0  0
   38.6238   29.4021   45.8281 H   0  0  0  0  0  0  0  0  0  0  0  0
   39.1477   28.6355   43.5606 H   0  0  0  0  0  0  0  0  0  0  0  0
   40.1001   30.2061   41.8952 H   0  0  0  0  0  0  0  0  0  0  0  0
   40.5260   32.5934   42.5392 H   0  0  0  0  0  0  0  0  0  0  0  0
  1  2  2  0
  1  8  1  0
  3  2  1  0
  4  3  2  0
  5  4  1  0
  5  6  2  0
  6  1  1  0
  7 12  2  0
  8  7  1  0
  9  8  2  0
  9 10  1  0
 10 11  2  0
 11 12  1  0
 14 13  1  0
 14 15  2  0
 15  5  1  0
 16 15  1  0
 17 16  2  0
 18 19  2  0
 18 17  1  0
 19 14  1  0
  2 20  1  0
  3 21  1  0
  4 22  1  0
  7 23  1  0
  9 24  1  0
 11 25  1  0
 16 26  1  0
 17 27  1  0
 18 28  1  0
 19 29  1  0
M  ISO  8  20  14  21  14  22  14  23  14  24  14  25  14  26  14  27  14
M  ISO  2  28  14  29  14
M  END
>  <minimizedAffinity>  (1) 
-6.21375704

>  <minimizedRMSD>  (1) 
0.9376176

$$$$
