
     RDKit          3D

 29 31  0  0  0  0  0  0  0  0999 V2000
   37.9540   32.0200   49.2880 C   0  0  0  0  0  0  0  0  0  0  0  0
   38.5390   33.0980   49.8860 C   0  0  0  0  0  0  0  0  0  0  0  0
   39.3520   34.0220   49.2700 C   0  0  0  0  0  0  0  0  0  0  0  0
   39.6110   33.8570   47.9150 C   0  0  0  0  0  0  0  0  0  0  0  0
   39.0220   32.7740   47.3190 C   0  0  0  0  0  0  0  0  0  0  0  0
   38.2370   31.9100   47.9840 N   0  0  0  0  0  0  0  0  0  0  0  0
   37.5050   30.3330   51.1030 C   0  0  0  0  0  0  0  0  0  0  0  0
   37.1080   31.0680   49.9680 C   0  0  0  0  0  0  0  0  0  0  0  0
   35.8320   30.8510   49.4830 C   0  0  0  0  0  0  0  0  0  0  0  0
   35.0240   29.9480   50.1160 N   0  0  0  0  0  0  0  0  0  0  0  0
   35.4480   29.2700   51.1960 C   0  0  0  0  0  0  0  0  0  0  0  0
   36.6900   29.4520   51.7050 N   0  0  0  0  0  0  0  0  0  0  0  0
   37.0120   30.7590   46.1240 Br  0  0  0  0  0  0  0  0  0  0  0  0
   38.4370   31.6420   45.1830 C   0  0  0  0  0  0  0  0  0  0  0  0
   39.2350   32.5170   45.9000 C   0  0  0  0  0  0  0  0  0  0  0  0
   40.2210   33.0900   45.1240 C   0  0  0  0  0  0  0  0  0  0  0  0
   40.3960   32.8270   43.7900 C   0  0  0  0  0  0  0  0  0  0  0  0
   39.5710   31.9530   43.1470 C   0  0  0  0  0  0  0  0  0  0  0  0
   38.5680   31.3410   43.8420 C   0  0  0  0  0  0  0  0  0  0  0  0
   38.3428   33.2417   50.9588 H   0  0  0  0  0  0  0  0  0  0  0  0
   39.7827   34.8637   49.8321 H   0  0  0  0  0  0  0  0  0  0  0  0
   40.2508   34.5545   47.3546 H   0  0  0  0  0  0  0  0  0  0  0  0
   38.5158   30.4861   51.5091 H   0  0  0  0  0  0  0  0  0  0  0  0
   35.4714   31.3977   48.5992 H   0  0  0  0  0  0  0  0  0  0  0  0
   34.7703   28.5501   51.6782 H   0  0  0  0  0  0  0  0  0  0  0  0
   40.9087   33.8012   45.6048 H   0  0  0  0  0  0  0  0  0  0  0  0
   41.2061   33.3237   43.2358 H   0  0  0  0  0  0  0  0  0  0  0  0
   39.7123   31.7425   42.0766 H   0  0  0  0  0  0  0  0  0  0  0  0
   37.8866   30.6314   43.3498 H   0  0  0  0  0  0  0  0  0  0  0  0
  1  2  2  0
  1  8  1  0
  3  2  1  0
  4  3  2  0
  5  4  1  0
  5  6  2  0
  6  1  1  0
  7 12  2  0
  8  7  1  0
  9  8  2  0
  9 10  1  0
 10 11  2  0
 11 12  1  0
 14 15  2  0
 14 13  1  0
 15  5  1  0
 16 15  1  0
 17 16  2  0
 18 17  1  0
 18 19  2  0
 19 14  1  0
  2 20  1  0
  3 21  1  0
  4 22  1  0
  7 23  1  0
  9 24  1  0
 11 25  1  0
 16 26  1  0
 17 27  1  0
 18 28  1  0
 19 29  1  0
M  ISO  8  20  14  21  14  22  14  23  14  24  14  25  14  26  14  27  14
M  ISO  2  28  14  29  14
M  END
>  <minimizedAffinity>  (1) 
-6.04805803

>  <minimizedRMSD>  (1) 
1.09136224

$$$$
