
     RDKit          3D

 26 28  0  0  0  0  0  0  0  0999 V2000
   37.9720   31.9360   49.1020 C   0  0  0  0  0  0  0  0  0  0  0  0
   38.4820   33.0820   49.6690 C   0  0  0  0  0  0  0  0  0  0  0  0
   39.3190   33.9650   49.0160 C   0  0  0  0  0  0  0  0  0  0  0  0
   39.6840   33.7050   47.7080 C   0  0  0  0  0  0  0  0  0  0  0  0
   39.1670   32.5600   47.1590 C   0  0  0  0  0  0  0  0  0  0  0  0
   38.3520   31.7140   47.8140 N   0  0  0  0  0  0  0  0  0  0  0  0
   37.4350   30.3700   50.9990 C   0  0  0  0  0  0  0  0  0  0  0  0
   37.0920   31.0150   49.7950 C   0  0  0  0  0  0  0  0  0  0  0  0
   35.8480   30.7550   49.2460 C   0  0  0  0  0  0  0  0  0  0  0  0
   35.0090   29.8940   49.8810 N   0  0  0  0  0  0  0  0  0  0  0  0
   35.3700   29.2880   51.0410 C   0  0  0  0  0  0  0  0  0  0  0  0
   36.5730   29.5200   51.6020 N   0  0  0  0  0  0  0  0  0  0  0  0
   39.5360   32.2440   45.7490 C   0  0  0  0  0  0  0  0  0  0  0  0
   40.8140   32.6620   45.1630 C   0  0  0  0  0  0  0  0  0  0  0  0
   40.6820   31.2390   45.5760 C   0  0  0  0  0  0  0  0  0  0  0  0
   38.2050   33.3089   50.7091 H   0  0  0  0  0  0  0  0  0  0  0  0
   39.6906   34.8638   49.5299 H   0  0  0  0  0  0  0  0  0  0  0  0
   40.3482   34.3754   47.1428 H   0  0  0  0  0  0  0  0  0  0  0  0
   38.4176   30.5602   51.4553 H   0  0  0  0  0  0  0  0  0  0  0  0
   35.5419   31.2394   48.3070 H   0  0  0  0  0  0  0  0  0  0  0  0
   34.6690   28.5963   51.5309 H   0  0  0  0  0  0  0  0  0  0  0  0
   38.4934   32.3644   45.4196 H   0  0  0  0  0  0  0  0  0  0  0  0
   41.4774   33.3322   45.7293 H   0  0  0  0  0  0  0  0  0  0  0  0
   41.0953   33.1603   44.2236 H   0  0  0  0  0  0  0  0  0  0  0  0
   40.6144   30.4448   44.8180 H   0  0  0  0  0  0  0  0  0  0  0  0
   41.2365   30.5536   46.2339 H   0  0  0  0  0  0  0  0  0  0  0  0
  1  2  2  0
  1  8  1  0
  3  2  1  0
  4  3  2  0
  5  4  1  0
  5  6  2  0
  6  1  1  0
  7 12  2  0
  8  7  1  0
  9  8  2  0
  9 10  1  0
 10 11  2  0
 11 12  1  0
 13  5  1  0
 14 15  1  0
 14 13  1  0
 15 13  1  0
  2 16  1  0
  3 17  1  0
  4 18  1  0
  7 19  1  0
  9 20  1  0
 11 21  1  0
 13 22  1  0
 14 23  1  0
 14 24  1  0
 15 25  1  0
 15 26  1  0
M  ISO  8  16  14  17  14  18  14  19  14  20  14  21  14  22  13  23  13
M  ISO  3  24  13  25  13  26  13
M  END
>  <minimizedAffinity>  (1) 
-5.69592476

>  <minimizedRMSD>  (1) 
0.559807241

$$$$
