
     RDKit          3D

 22 23  0  0  0  0  0  0  0  0999 V2000
   38.2640   32.1190   49.0130 C   0  0  0  0  0  0  0  0  0  0  0  0
   38.6800   33.2980   49.6080 C   0  0  0  0  0  0  0  0  0  0  0  0
   39.5000   34.2410   49.0190 C   0  0  0  0  0  0  0  0  0  0  0  0
   39.9530   34.0040   47.7260 C   0  0  0  0  0  0  0  0  0  0  0  0
   39.5260   32.8150   47.1420 C   0  0  0  0  0  0  0  0  0  0  0  0
   38.7310   31.9450   47.7680 N   0  0  0  0  0  0  0  0  0  0  0  0
   37.6810   30.5490   50.8900 C   0  0  0  0  0  0  0  0  0  0  0  0
   37.3990   31.1610   49.6770 C   0  0  0  0  0  0  0  0  0  0  0  0
   36.2000   30.8540   49.0220 C   0  0  0  0  0  0  0  0  0  0  0  0
   35.3680   29.9460   49.6390 N   0  0  0  0  0  0  0  0  0  0  0  0
   35.6770   29.3730   50.8160 C   0  0  0  0  0  0  0  0  0  0  0  0
   36.8310   29.6670   51.4500 N   0  0  0  0  0  0  0  0  0  0  0  0
   39.9390   32.4410   45.7610 C   0  0  0  0  0  0  0  0  0  0  0  0
   38.3297   33.4999   50.6310 H   0  0  0  0  0  0  0  0  0  0  0  0
   39.7870   35.1554   49.5588 H   0  0  0  0  0  0  0  0  0  0  0  0
   40.6081   34.7122   47.1975 H   0  0  0  0  0  0  0  0  0  0  0  0
   38.6216   30.7901   51.4068 H   0  0  0  0  0  0  0  0  0  0  0  0
   35.9349   31.3163   48.0597 H   0  0  0  0  0  0  0  0  0  0  0  0
   34.9783   28.6539   51.2684 H   0  0  0  0  0  0  0  0  0  0  0  0
   40.7536   31.7033   45.8090 H   0  0  0  0  0  0  0  0  0  0  0  0
   39.0814   32.0060   45.2269 H   0  0  0  0  0  0  0  0  0  0  0  0
   40.2871   33.3374   45.2269 H   0  0  0  0  0  0  0  0  0  0  0  0
  1  2  2  0
  1  8  1  0
  3  2  1  0
  4  3  2  0
  5  4  1  0
  5  6  2  0
  6  1  1  0
  7 12  2  0
  8  7  1  0
  9 10  1  0
  9  8  2  0
 10 11  2  0
 11 12  1  0
 13  5  1  0
  2 14  1  0
  3 15  1  0
  4 16  1  0
  7 17  1  0
  9 18  1  0
 11 19  1  0
 13 20  1  0
 13 21  1  0
 13 22  1  0
M  ISO  8  14  14  15  14  16  14  17  14  18  14  19  14  20   8  21   8
M  ISO  1  22   8
M  END
>  <minimizedAffinity>  (1) 
-5.06306124

>  <minimizedRMSD>  (1) 
0.266482562

$$$$
