
     RDKit          3D

 19 19  0  0  0  0  0  0  0  0999 V2000
   36.5000   30.4010   50.2030 C   0  0  0  0  0  0  0  0  0  0  0  0
   37.1990   30.7280   49.0360 C   0  0  0  0  0  0  0  0  0  0  0  0
   36.6100   30.4800   47.7920 C   0  0  0  0  0  0  0  0  0  0  0  0
   35.3600   29.9210   47.8010 N   0  0  0  0  0  0  0  0  0  0  0  0
   34.7050   29.6150   48.9340 C   0  0  0  0  0  0  0  0  0  0  0  0
   35.2890   29.8600   50.1290 N   0  0  0  0  0  0  0  0  0  0  0  0
   33.4120   29.0380   48.7560 N   0  0  0  0  0  0  0  0  0  0  0  0
   38.8200   32.6970   49.3490 C   0  0  0  0  0  0  0  0  0  0  0  0
   38.0300   33.6670   49.4120 O   0  0  0  0  0  0  0  0  0  0  0  0
   38.4930   31.3050   49.1750 N   0  0  0  0  0  0  0  0  0  0  0  0
   37.3610   30.8310   46.5620 C   0  0  0  0  0  0  0  0  0  0  0  0
   38.5520   30.1950   46.6330 F   0  0  0  0  0  0  0  0  0  0  0  0
   36.6780   30.4890   45.4240 F   0  0  0  0  0  0  0  0  0  0  0  0
   37.5930   32.2240   46.5160 F   0  0  0  0  0  0  0  0  0  0  0  0
   36.9551   30.5927   51.1859 H   0  0  0  0  0  0  0  0  0  0  0  0
   32.8475   28.7760   49.5768 H   0  0  0  0  0  0  0  0  0  0  0  0
   33.0432   28.8835   47.8068 H   0  0  0  0  0  0  0  0  0  0  0  0
   39.8900   32.9365   49.4370 H   0  0  0  0  0  0  0  0  0  0  0  0
   39.2881   30.6508   49.1480 H   0  0  0  0  0  0  0  0  0  0  0  0
  2 10  1  0
  2  1  2  0
  3  4  2  0
  3  2  1  0
  4  5  1  0
  5  6  2  0
  6  1  1  0
  7  5  1  0
  8  9  2  0
 10  8  1  0
 11 12  1  0
 11  3  1  0
 13 11  1  0
 14 11  1  0
  1 15  1  0
  7 16  1  0
  7 17  1  0
  8 18  1  0
 10 19  1  0
M  ISO  2  15  14  18   6
M  END
>  <minimizedAffinity>  (1) 
-4.42655849

>  <minimizedRMSD>  (1) 
2.49273419

$$$$
