
     RDKit          3D

 44 47  0  0  1  0  0  0  0  0999 V2000
   38.0010   30.0690   42.4630 C   0  0  0  0  0  0  0  0  0  0  0  0
   39.1530   29.9560   43.2400 C   0  0  0  0  0  0  0  0  0  0  0  0
   40.0040   28.9090   43.0010 C   0  0  0  0  0  0  0  0  0  0  0  0
   39.8130   27.9390   42.0390 C   0  0  0  0  0  0  0  0  0  0  0  0
   38.6830   28.0260   41.2590 C   0  0  0  0  0  0  0  0  0  0  0  0
   37.8280   29.0750   41.4950 C   0  0  0  0  0  0  0  0  0  0  0  0
   38.9660   31.7880   46.4530 C   0  0  0  0  0  0  0  0  0  0  0  0
   39.8300   32.8040   46.1420 C   0  0  0  0  0  0  0  0  0  0  0  0
   40.4810   32.9300   44.9380 C   0  0  0  0  0  0  0  0  0  0  0  0
   40.2720   31.9810   43.9480 C   0  0  0  0  0  0  0  0  0  0  0  0
   39.4000   30.9610   44.2700 C   0  0  0  0  0  0  0  0  0  0  0  0
   38.8100   30.9170   45.4680 N   0  0  0  0  0  0  0  0  0  0  0  0
   38.1690   32.7400   48.6450 C   0  0  0  0  0  0  0  0  0  0  0  0
   38.2940   31.6780   47.7220 C   0  0  0  0  0  0  0  0  0  0  0  0
   37.7250   30.4300   48.0610 C   0  0  0  0  0  0  0  0  0  0  0  0
   37.0860   30.3190   49.2590 N   0  0  0  0  0  0  0  0  0  0  0  0
   36.9920   31.3760   50.1170 C   0  0  0  0  0  0  0  0  0  0  0  0
   37.5220   32.5690   49.8200 N   0  0  0  0  0  0  0  0  0  0  0  0
   36.7930   31.2890   42.6640 S   0  0  0  0  0  0  0  0  0  0  0  0
   35.6120   30.8460   41.7830 O   0  0  0  0  0  0  0  0  0  0  0  0
   36.2680   31.2930   44.0610 O   0  0  0  0  0  0  0  0  0  0  0  0
   38.4080   32.8810   41.2200 C   0  0  1  0  0  0  0  0  0  0  0  0
   37.0850   32.8550   41.9440 C   0  0  1  0  0  0  0  0  0  0  0  0
   36.1220   32.9770   40.7760 C   0  0  0  0  0  0  0  0  0  0  0  0
   36.7050   32.2720   39.7290 O   0  0  0  0  0  0  0  0  0  0  0  0
   38.0560   32.6400   39.7730 C   0  0  0  0  0  0  0  0  0  0  0  0
   38.9110   34.1800   41.3150 O   0  0  0  0  0  0  0  0  0  0  0  0
   40.9080   28.8365   43.6235 H   0  0  0  0  0  0  0  0  0  0  0  0
   40.5389   27.1243   41.9003 H   0  0  0  0  0  0  0  0  0  0  0  0
   38.4720   27.2832   40.4756 H   0  0  0  0  0  0  0  0  0  0  0  0
   36.9274   29.1386   40.8667 H   0  0  0  0  0  0  0  0  0  0  0  0
   40.0156   33.5715   46.9079 H   0  0  0  0  0  0  0  0  0  0  0  0
   41.1617   33.7758   44.7611 H   0  0  0  0  0  0  0  0  0  0  0  0
   40.7697   32.0379   42.9687 H   0  0  0  0  0  0  0  0  0  0  0  0
   38.6046   33.7210   48.4043 H   0  0  0  0  0  0  0  0  0  0  0  0
   37.7960   29.5718   47.3766 H   0  0  0  0  0  0  0  0  0  0  0  0
   36.4683   31.2447   51.0754 H   0  0  0  0  0  0  0  0  0  0  0  0
   39.1319   32.1540   41.6168 H   0  0  0  0  0  0  0  0  0  0  0  0
   37.0129   33.6124   42.7384 H   0  0  0  0  0  0  0  0  0  0  0  0
   35.1469   32.5395   41.0362 H   0  0  0  0  0  0  0  0  0  0  0  0
   35.9438   34.0285   40.5064 H   0  0  0  0  0  0  0  0  0  0  0  0
   38.6799   31.8319   39.3633 H   0  0  0  0  0  0  0  0  0  0  0  0
   38.2331   33.5448   39.1731 H   0  0  0  0  0  0  0  0  0  0  0  0
   39.0070   34.4278   42.2687 H   0  0  0  0  0  0  0  0  0  0  0  0
  1 19  1  0
  1  2  1  0
  2 11  1  0
  3  2  2  0
  4  3  1  0
  5  6  1  0
  5  4  2  0
  6  1  2  0
  7 14  1  0
  8  7  2  0
  9  8  1  0
 10 11  1  0
 10  9  2  0
 11 12  2  0
 12  7  1  0
 13 18  2  0
 14 15  2  0
 14 13  1  0
 15 16  1  0
 16 17  2  0
 18 17  1  0
 19 21  2  0
 20 19  2  0
 22 27  1  0
 22 23  1  0
 23 19  1  0
 24 23  1  0
 25 26  1  0
 25 24  1  0
 26 22  1  0
  3 28  1  0
  4 29  1  0
  5 30  1  0
  6 31  1  0
  8 32  1  0
  9 33  1  0
 10 34  1  0
 13 35  1  0
 15 36  1  0
 17 37  1  0
 22 38  1  1
 23 39  1  1
 24 40  1  0
 24 41  1  0
 26 42  1  0
 26 43  1  0
 27 44  1  0
M  ISO  8  28  14  29  14  30  14  31  14  32  14  33  14  34  14  35  14
M  ISO  8  36  14  37  14  38  13  39  13  40  13  41  13  42  13  43  13
M  ISO  1  44   3
M  END
>  <minimizedAffinity>  (1) 
-5.46731949

>  <minimizedRMSD>  (1) 
2.61357975

$$$$
