
     RDKit          3D

 35 37  0  0  0  0  0  0  0  0999 V2000
   38.8330   31.5650   47.1440 C   0  0  0  0  0  0  0  0  0  0  0  0
   39.3780   32.8280   47.1480 C   0  0  0  0  0  0  0  0  0  0  0  0
   40.0510   33.3850   46.0820 C   0  0  0  0  0  0  0  0  0  0  0  0
   40.2060   32.6510   44.9150 C   0  0  0  0  0  0  0  0  0  0  0  0
   39.6550   31.3870   44.9230 C   0  0  0  0  0  0  0  0  0  0  0  0
   39.0170   30.9190   46.0000 N   0  0  0  0  0  0  0  0  0  0  0  0
   38.6650   30.3530   42.9220 C   0  0  0  0  0  0  0  0  0  0  0  0
   39.7920   30.5990   43.7040 C   0  0  0  0  0  0  0  0  0  0  0  0
   40.9920   30.0810   43.2820 C   0  0  0  0  0  0  0  0  0  0  0  0
   41.1820   29.3280   42.1420 C   0  0  0  0  0  0  0  0  0  0  0  0
   40.0720   29.0770   41.3620 C   0  0  0  0  0  0  0  0  0  0  0  0
   38.8690   29.5920   41.7740 C   0  0  0  0  0  0  0  0  0  0  0  0
   37.0680   30.8760   43.3270 S   0  0  0  0  0  0  0  0  0  0  0  0
   36.1970   30.5570   42.1010 O   0  0  0  0  0  0  0  0  0  0  0  0
   36.5090   30.0930   44.4600 O   0  0  0  0  0  0  0  0  0  0  0  0
   36.8470   32.6260   43.4040 C   0  0  0  0  0  0  0  0  0  0  0  0
   38.3830   31.3390   49.6130 C   0  0  0  0  0  0  0  0  0  0  0  0
   38.1340   31.0120   48.2700 C   0  0  0  0  0  0  0  0  0  0  0  0
   37.1160   30.0770   48.0030 C   0  0  0  0  0  0  0  0  0  0  0  0
   36.4260   29.5400   49.0670 N   0  0  0  0  0  0  0  0  0  0  0  0
   36.7260   29.9090   50.3490 C   0  0  0  0  0  0  0  0  0  0  0  0
   37.6950   30.7980   50.6190 N   0  0  0  0  0  0  0  0  0  0  0  0
   39.2697   33.4323   48.0607 H   0  0  0  0  0  0  0  0  0  0  0  0
   40.4617   34.4028   46.1559 H   0  0  0  0  0  0  0  0  0  0  0  0
   40.7353   33.0522   44.0382 H   0  0  0  0  0  0  0  0  0  0  0  0
   41.8755   30.2836   43.9053 H   0  0  0  0  0  0  0  0  0  0  0  0
   42.1755   28.9443   41.8667 H   0  0  0  0  0  0  0  0  0  0  0  0
   40.1491   28.4830   40.4394 H   0  0  0  0  0  0  0  0  0  0  0  0
   37.9911   29.3863   41.1439 H   0  0  0  0  0  0  0  0  0  0  0  0
   36.8068   32.9446   44.4561 H   0  0  0  0  0  0  0  0  0  0  0  0
   37.6893   33.1244   42.9019 H   0  0  0  0  0  0  0  0  0  0  0  0
   35.9072   32.8993   42.9019 H   0  0  0  0  0  0  0  0  0  0  0  0
   39.1742   32.0677   49.8433 H   0  0  0  0  0  0  0  0  0  0  0  0
   36.8776   29.7827   46.9703 H   0  0  0  0  0  0  0  0  0  0  0  0
   36.1586   29.4659   51.1807 H   0  0  0  0  0  0  0  0  0  0  0  0
  1  2  2  0
  1 18  1  0
  3  2  1  0
  4  5  1  0
  4  3  2  0
  5  6  2  0
  6  1  1  0
  7 13  1  0
  7  8  2  0
  8  5  1  0
  9  8  1  0
 10  9  2  0
 11 12  2  0
 11 10  1  0
 12  7  1  0
 13 16  1  0
 13 15  2  0
 14 13  2  0
 17 22  2  0
 18 17  1  0
 19 18  2  0
 19 20  1  0
 20 21  2  0
 21 22  1  0
  2 23  1  0
  3 24  1  0
  4 25  1  0
  9 26  1  0
 10 27  1  0
 11 28  1  0
 12 29  1  0
 16 30  1  0
 16 31  1  0
 16 32  1  0
 17 33  1  0
 19 34  1  0
 21 35  1  0
M  ISO  8  23  14  24  14  25  14  26  14  27  14  28  14  29  14  30   8
M  ISO  5  31   8  32   8  33  14  34  14  35  14
M  END
>  <minimizedAffinity>  (1) 
-5.37509251

>  <minimizedRMSD>  (1) 
0.898865402

$$$$
