
     RDKit          3D

 38 40  0  0  0  0  0  0  0  0999 V2000
   38.8340   31.5650   47.1450 C   0  0  0  0  0  0  0  0  0  0  0  0
   39.3760   32.8190   47.1500 C   0  0  0  0  0  0  0  0  0  0  0  0
   40.0510   33.3890   46.0890 C   0  0  0  0  0  0  0  0  0  0  0  0
   40.2000   32.6500   44.9230 C   0  0  0  0  0  0  0  0  0  0  0  0
   39.6490   31.3850   44.9290 C   0  0  0  0  0  0  0  0  0  0  0  0
   39.0210   30.9300   45.9980 N   0  0  0  0  0  0  0  0  0  0  0  0
   38.6630   30.3780   42.9180 C   0  0  0  0  0  0  0  0  0  0  0  0
   39.7920   30.6030   43.7030 C   0  0  0  0  0  0  0  0  0  0  0  0
   40.9900   30.0800   43.2840 C   0  0  0  0  0  0  0  0  0  0  0  0
   41.1710   29.3400   42.1350 C   0  0  0  0  0  0  0  0  0  0  0  0
   40.0740   29.1050   41.3470 C   0  0  0  0  0  0  0  0  0  0  0  0
   38.8680   29.6260   41.7610 C   0  0  0  0  0  0  0  0  0  0  0  0
   37.0730   30.9230   43.3130 S   0  0  0  0  0  0  0  0  0  0  0  0
   36.2150   30.6530   42.0660 O   0  0  0  0  0  0  0  0  0  0  0  0
   36.4770   30.0960   44.3990 O   0  0  0  0  0  0  0  0  0  0  0  0
   36.8200   32.6520   43.4110 C   0  0  0  0  0  0  0  0  0  0  0  0
   35.6510   32.9590   42.4820 C   0  0  0  0  0  0  0  0  0  0  0  0
   38.3770   31.3460   49.6120 C   0  0  0  0  0  0  0  0  0  0  0  0
   38.1280   31.0130   48.2650 C   0  0  0  0  0  0  0  0  0  0  0  0
   37.1050   30.0790   47.9930 C   0  0  0  0  0  0  0  0  0  0  0  0
   36.4060   29.5430   49.0510 N   0  0  0  0  0  0  0  0  0  0  0  0
   36.7000   29.9110   50.3380 C   0  0  0  0  0  0  0  0  0  0  0  0
   37.6750   30.8030   50.6160 N   0  0  0  0  0  0  0  0  0  0  0  0
   39.2667   33.4182   48.0660 H   0  0  0  0  0  0  0  0  0  0  0  0
   40.4618   34.4065   46.1658 H   0  0  0  0  0  0  0  0  0  0  0  0
   40.7273   33.0502   44.0445 H   0  0  0  0  0  0  0  0  0  0  0  0
   41.8731   30.2655   43.9131 H   0  0  0  0  0  0  0  0  0  0  0  0
   42.1624   28.9511   41.8597 H   0  0  0  0  0  0  0  0  0  0  0  0
   40.1540   28.5216   40.4179 H   0  0  0  0  0  0  0  0  0  0  0  0
   37.9916   29.4326   41.1250 H   0  0  0  0  0  0  0  0  0  0  0  0
   36.5753   32.9446   44.4428 H   0  0  0  0  0  0  0  0  0  0  0  0
   37.7230   33.2085   43.1196 H   0  0  0  0  0  0  0  0  0  0  0  0
   34.7585   33.1934   43.0808 H   0  0  0  0  0  0  0  0  0  0  0  0
   35.9036   33.8213   41.8474 H   0  0  0  0  0  0  0  0  0  0  0  0
   35.4473   32.0839   41.8474 H   0  0  0  0  0  0  0  0  0  0  0  0
   39.1698   32.0719   49.8454 H   0  0  0  0  0  0  0  0  0  0  0  0
   36.8716   29.7860   46.9587 H   0  0  0  0  0  0  0  0  0  0  0  0
   36.1269   29.4683   51.1660 H   0  0  0  0  0  0  0  0  0  0  0  0
  1  2  2  0
  1 19  1  0
  3  2  1  0
  4  5  1  0
  4  3  2  0
  5  6  2  0
  6  1  1  0
  7 13  1  0
  7  8  2  0
  8  5  1  0
  9  8  1  0
 10  9  2  0
 11 12  2  0
 11 10  1  0
 12  7  1  0
 13 16  1  0
 13 15  2  0
 14 13  2  0
 17 16  1  0
 18 23  2  0
 19 18  1  0
 20 19  2  0
 20 21  1  0
 21 22  2  0
 22 23  1  0
  2 24  1  0
  3 25  1  0
  4 26  1  0
  9 27  1  0
 10 28  1  0
 11 29  1  0
 12 30  1  0
 16 31  1  0
 16 32  1  0
 17 33  1  0
 17 34  1  0
 17 35  1  0
 18 36  1  0
 20 37  1  0
 22 38  1  0
M  ISO  8  24  14  25  14  26  14  27  14  28  14  29  14  30  14  31   8
M  ISO  7  32   8  33   8  34   8  35   8  36  14  37  14  38  14
M  END
>  <minimizedAffinity>  (1) 
-5.26536894

>  <minimizedRMSD>  (1) 
0.948502123

$$$$
