
     RDKit          3D

 34 36  0  0  0  0  0  0  0  0999 V2000
   38.4650   31.3900   48.0420 C   0  0  0  0  0  0  0  0  0  0  0  0
   38.9240   32.6790   48.1540 C   0  0  0  0  0  0  0  0  0  0  0  0
   39.5800   33.3520   47.1430 C   0  0  0  0  0  0  0  0  0  0  0  0
   39.8000   32.7230   45.9510 C   0  0  0  0  0  0  0  0  0  0  0  0
   39.3330   31.4380   45.8640 C   0  0  0  0  0  0  0  0  0  0  0  0
   38.6990   30.8000   46.8520 N   0  0  0  0  0  0  0  0  0  0  0  0
   39.5090   30.6930   44.6650 N   0  0  0  0  0  0  0  0  0  0  0  0
   38.6580   29.6520   44.1400 C   0  0  0  0  0  0  0  0  0  0  0  0
   37.9870   30.2430   42.8980 C   0  0  0  0  0  0  0  0  0  0  0  0
   39.0880   30.2570   41.8340 C   0  0  0  0  0  0  0  0  0  0  0  0
   40.1640   31.1910   42.3420 C   0  0  0  0  0  0  0  0  0  0  0  0
   40.5970   30.8600   43.7530 C   0  0  0  0  0  0  0  0  0  0  0  0
   37.2940   30.1660   51.4110 C   0  0  0  0  0  0  0  0  0  0  0  0
   38.0440   30.9110   50.4840 C   0  0  0  0  0  0  0  0  0  0  0  0
   37.7710   30.6930   49.1250 C   0  0  0  0  0  0  0  0  0  0  0  0
   36.8210   29.7960   48.7790 N   0  0  0  0  0  0  0  0  0  0  0  0
   36.1210   29.1000   49.7170 C   0  0  0  0  0  0  0  0  0  0  0  0
   36.3630   29.2900   51.0170 N   0  0  0  0  0  0  0  0  0  0  0  0
   38.7594   33.2064   49.1052 H   0  0  0  0  0  0  0  0  0  0  0  0
   39.9226   34.3860   47.2962 H   0  0  0  0  0  0  0  0  0  0  0  0
   40.3183   33.2159   45.1153 H   0  0  0  0  0  0  0  0  0  0  0  0
   39.2563   28.7699   43.8681 H   0  0  0  0  0  0  0  0  0  0  0  0
   37.9152   29.3256   44.8828 H   0  0  0  0  0  0  0  0  0  0  0  0
   37.1437   29.6144   42.5760 H   0  0  0  0  0  0  0  0  0  0  0  0
   37.5739   31.2454   43.0841 H   0  0  0  0  0  0  0  0  0  0  0  0
   38.6874   30.6234   40.8773 H   0  0  0  0  0  0  0  0  0  0  0  0
   39.4872   29.2467   41.6612 H   0  0  0  0  0  0  0  0  0  0  0  0
   41.0379   31.1173   41.6780 H   0  0  0  0  0  0  0  0  0  0  0  0
   39.7477   32.2091   42.3495 H   0  0  0  0  0  0  0  0  0  0  0  0
   41.1756   29.9248   43.7281 H   0  0  0  0  0  0  0  0  0  0  0  0
   41.1909   31.7123   44.1147 H   0  0  0  0  0  0  0  0  0  0  0  0
   37.4773   30.3069   52.4864 H   0  0  0  0  0  0  0  0  0  0  0  0
   38.8092   31.6313   50.8090 H   0  0  0  0  0  0  0  0  0  0  0  0
   35.3528   28.3781   49.4029 H   0  0  0  0  0  0  0  0  0  0  0  0
  1  2  2  0
  1 15  1  0
  3  2  1  0
  4  3  2  0
  5  4  1  0
  5  6  2  0
  6  1  1  0
  7  5  1  0
  8  7  1  0
  9  8  1  0
 10 11  1  0
 10  9  1  0
 11 12  1  0
 12  7  1  0
 14 13  2  0
 15 14  1  0
 16 15  2  0
 16 17  1  0
 17 18  2  0
 18 13  1  0
  2 19  1  0
  3 20  1  0
  4 21  1  0
  8 22  1  0
  8 23  1  0
  9 24  1  0
  9 25  1  0
 10 26  1  0
 10 27  1  0
 11 28  1  0
 11 29  1  0
 12 30  1  0
 12 31  1  0
 13 32  1  0
 14 33  1  0
 17 34  1  0
M  ISO  8  19  14  20  14  21  14  22  13  23  13  24  13  25  13  26  13
M  ISO  8  27  13  28  13  29  13  30  13  31  13  32  14  33  14  34  14
M  END
>  <minimizedAffinity>  (1) 
-6.07090473

>  <minimizedRMSD>  (1) 
0.43549183

$$$$
