
     RDKit          3D

 26 28  0  0  0  0  0  0  0  0999 V2000
   38.5390   31.4270   47.9680 C   0  0  0  0  0  0  0  0  0  0  0  0
   38.9720   32.7330   48.0960 C   0  0  0  0  0  0  0  0  0  0  0  0
   39.6560   33.3960   47.0960 C   0  0  0  0  0  0  0  0  0  0  0  0
   39.9380   32.7720   45.9140 C   0  0  0  0  0  0  0  0  0  0  0  0
   39.4940   31.4770   45.8190 C   0  0  0  0  0  0  0  0  0  0  0  0
   38.8350   30.8440   46.7890 N   0  0  0  0  0  0  0  0  0  0  0  0
   37.2730   30.1820   51.2920 C   0  0  0  0  0  0  0  0  0  0  0  0
   38.0440   30.9290   50.3890 C   0  0  0  0  0  0  0  0  0  0  0  0
   37.8190   30.7260   49.0200 C   0  0  0  0  0  0  0  0  0  0  0  0
   36.8780   29.8280   48.6420 N   0  0  0  0  0  0  0  0  0  0  0  0
   36.1510   29.1240   49.5510 C   0  0  0  0  0  0  0  0  0  0  0  0
   36.3570   29.3090   50.8610 N   0  0  0  0  0  0  0  0  0  0  0  0
   39.7490   30.7220   44.5880 C   0  0  0  0  0  0  0  0  0  0  0  0
   39.0230   29.6170   44.1340 C   0  0  0  0  0  0  0  0  0  0  0  0
   39.5530   29.1820   42.9510 C   0  0  0  0  0  0  0  0  0  0  0  0
   40.6080   30.0500   42.7100 C   0  0  0  0  0  0  0  0  0  0  0  0
   40.6820   30.9180   43.6740 O   0  0  0  0  0  0  0  0  0  0  0  0
   38.7630   33.2674   49.0345 H   0  0  0  0  0  0  0  0  0  0  0  0
   39.9768   34.4364   47.2528 H   0  0  0  0  0  0  0  0  0  0  0  0
   40.4812   33.2711   45.0980 H   0  0  0  0  0  0  0  0  0  0  0  0
   37.4248   30.3169   52.3731 H   0  0  0  0  0  0  0  0  0  0  0  0
   38.7978   31.6480   50.7422 H   0  0  0  0  0  0  0  0  0  0  0  0
   35.3938   28.4027   49.2098 H   0  0  0  0  0  0  0  0  0  0  0  0
   38.1604   29.1678   44.6480 H   0  0  0  0  0  0  0  0  0  0  0  0
   39.2190   28.3365   42.3316 H   0  0  0  0  0  0  0  0  0  0  0  0
   41.2777   30.0097   41.8383 H   0  0  0  0  0  0  0  0  0  0  0  0
  1  2  2  0
  1  9  1  0
  3  2  1  0
  4  3  2  0
  5  4  1  0
  5  6  2  0
  6  1  1  0
  8  7  2  0
  9  8  1  0
 10  9  2  0
 10 11  1  0
 11 12  2  0
 12  7  1  0
 13  5  1  0
 14 13  2  0
 15 14  1  0
 16 15  2  0
 16 17  1  0
 17 13  1  0
  2 18  1  0
  3 19  1  0
  4 20  1  0
  7 21  1  0
  8 22  1  0
 11 23  1  0
 14 24  1  0
 15 25  1  0
 16 26  1  0
M  ISO  8  18  14  19  14  20  14  21  14  22  14  23  14  24  14  25  14
M  ISO  1  26  14
M  END
>  <minimizedAffinity>  (1) 
-5.75173187

>  <minimizedRMSD>  (1) 
0.700369239

$$$$
