
     RDKit          3D

 26 28  0  0  0  0  0  0  0  0999 V2000
   38.4980   31.3980   47.9650 C   0  0  0  0  0  0  0  0  0  0  0  0
   38.9720   32.6730   48.0560 C   0  0  0  0  0  0  0  0  0  0  0  0
   39.6440   33.3510   47.0770 C   0  0  0  0  0  0  0  0  0  0  0  0
   39.8800   32.7190   45.8730 C   0  0  0  0  0  0  0  0  0  0  0  0
   39.4010   31.4230   45.7750 C   0  0  0  0  0  0  0  0  0  0  0  0
   38.7520   30.8180   46.7700 N   0  0  0  0  0  0  0  0  0  0  0  0
   37.2800   30.1850   51.3090 C   0  0  0  0  0  0  0  0  0  0  0  0
   38.0460   30.9290   50.3880 C   0  0  0  0  0  0  0  0  0  0  0  0
   37.7860   30.7040   49.0270 C   0  0  0  0  0  0  0  0  0  0  0  0
   36.8370   29.8070   48.6600 N   0  0  0  0  0  0  0  0  0  0  0  0
   36.1280   29.1180   49.5980 C   0  0  0  0  0  0  0  0  0  0  0  0
   36.3530   29.3100   50.9100 N   0  0  0  0  0  0  0  0  0  0  0  0
   39.6680   30.7510   44.4590 C   0  0  0  0  0  0  0  0  0  0  0  0
   39.0180   29.4910   44.0980 C   0  0  0  0  0  0  0  0  0  0  0  0
   38.4520   30.7530   43.5360 C   0  0  0  0  0  0  0  0  0  0  0  0
   38.7980   33.2047   49.0031 H   0  0  0  0  0  0  0  0  0  0  0  0
   39.9902   34.3813   47.2460 H   0  0  0  0  0  0  0  0  0  0  0  0
   40.4129   33.2116   45.0464 H   0  0  0  0  0  0  0  0  0  0  0  0
   37.4506   30.3292   52.3861 H   0  0  0  0  0  0  0  0  0  0  0  0
   38.8086   31.6492   50.7193 H   0  0  0  0  0  0  0  0  0  0  0  0
   35.3623   28.3960   49.2781 H   0  0  0  0  0  0  0  0  0  0  0  0
   40.7241   31.0580   44.4403 H   0  0  0  0  0  0  0  0  0  0  0  0
   39.5349   28.7834   43.4331 H   0  0  0  0  0  0  0  0  0  0  0  0
   38.5971   28.6547   44.6754 H   0  0  0  0  0  0  0  0  0  0  0  0
   38.5663   30.9855   42.4669 H   0  0  0  0  0  0  0  0  0  0  0  0
   37.4668   31.2422   43.5289 H   0  0  0  0  0  0  0  0  0  0  0  0
  1  2  2  0
  1  9  1  0
  3  2  1  0
  4  3  2  0
  5  4  1  0
  5  6  2  0
  6  1  1  0
  8  7  2  0
  9  8  1  0
 10  9  2  0
 10 11  1  0
 11 12  2  0
 12  7  1  0
 13  5  1  0
 14 13  1  0
 15 14  1  0
 15 13  1  0
  2 16  1  0
  3 17  1  0
  4 18  1  0
  7 19  1  0
  8 20  1  0
 11 21  1  0
 13 22  1  0
 14 23  1  0
 14 24  1  0
 15 25  1  0
 15 26  1  0
M  ISO  8  16  14  17  14  18  14  19  14  20  14  21  14  22  13  23  13
M  ISO  3  24  13  25  13  26  13
M  END
>  <minimizedAffinity>  (1) 
-5.15411758

>  <minimizedRMSD>  (1) 
0.404144466

$$$$
