
     RDKit          3D

 21 22  0  0  0  0  0  0  0  0999 V2000
   38.5140   31.4100   47.9620 C   0  0  0  0  0  0  0  0  0  0  0  0
   38.9790   32.6980   48.0600 C   0  0  0  0  0  0  0  0  0  0  0  0
   39.6550   33.3720   47.0750 C   0  0  0  0  0  0  0  0  0  0  0  0
   39.9050   32.7380   45.8860 C   0  0  0  0  0  0  0  0  0  0  0  0
   39.4370   31.4540   45.8020 C   0  0  0  0  0  0  0  0  0  0  0  0
   38.7790   30.8030   46.7640 N   0  0  0  0  0  0  0  0  0  0  0  0
   37.2780   30.1930   51.2940 C   0  0  0  0  0  0  0  0  0  0  0  0
   38.0320   30.9230   50.3730 C   0  0  0  0  0  0  0  0  0  0  0  0
   37.7990   30.7150   49.0170 C   0  0  0  0  0  0  0  0  0  0  0  0
   36.8590   29.8160   48.6590 N   0  0  0  0  0  0  0  0  0  0  0  0
   36.1390   29.1170   49.5810 C   0  0  0  0  0  0  0  0  0  0  0  0
   36.3510   29.3080   50.8860 N   0  0  0  0  0  0  0  0  0  0  0  0
   39.6840   30.7310   44.5350 C   0  0  0  0  0  0  0  0  0  0  0  0
   40.7310   30.9000   43.8550 O   0  0  0  0  0  0  0  0  0  0  0  0
   38.7948   33.2321   49.0038 H   0  0  0  0  0  0  0  0  0  0  0  0
   39.9916   34.4066   47.2371 H   0  0  0  0  0  0  0  0  0  0  0  0
   40.4426   33.2253   45.0592 H   0  0  0  0  0  0  0  0  0  0  0  0
   37.4449   30.3442   52.3707 H   0  0  0  0  0  0  0  0  0  0  0  0
   38.7909   31.6441   50.7108 H   0  0  0  0  0  0  0  0  0  0  0  0
   35.3804   28.3928   49.2494 H   0  0  0  0  0  0  0  0  0  0  0  0
   38.9261   30.0203   44.1737 H   0  0  0  0  0  0  0  0  0  0  0  0
  1  2  2  0
  1  9  1  0
  3  2  1  0
  4  3  2  0
  5  4  1  0
  5  6  2  0
  6  1  1  0
  8  7  2  0
  9  8  1  0
 10  9  2  0
 10 11  1  0
 11 12  2  0
 12  7  1  0
 13  5  1  0
 14 13  2  0
  2 15  1  0
  3 16  1  0
  4 17  1  0
  7 18  1  0
  8 19  1  0
 11 20  1  0
 13 21  1  0
M  ISO  7  15  14  16  14  17  14  18  14  19  14  20  14  21   6
M  END
>  <minimizedAffinity>  (1) 
-4.94912148

>  <minimizedRMSD>  (1) 
0.379410982

$$$$
