
     RDKit          3D

 37 40  0  0  0  0  0  0  0  0999 V2000
   38.6570   31.6770   47.4350 C   0  0  0  0  0  0  0  0  0  0  0  0
   39.2670   32.8880   47.3830 C   0  0  0  0  0  0  0  0  0  0  0  0
   40.0440   33.3010   46.3300 C   0  0  0  0  0  0  0  0  0  0  0  0
   40.2400   32.4780   45.2570 C   0  0  0  0  0  0  0  0  0  0  0  0
   39.6090   31.2540   45.3380 C   0  0  0  0  0  0  0  0  0  0  0  0
   38.8580   30.8630   46.3620 N   0  0  0  0  0  0  0  0  0  0  0  0
   38.9560   29.2310   44.0030 C   0  0  0  0  0  0  0  0  0  0  0  0
   39.7710   30.3190   44.2300 C   0  0  0  0  0  0  0  0  0  0  0  0
   40.7820   30.4500   43.2860 C   0  0  0  0  0  0  0  0  0  0  0  0
   40.9840   29.5990   42.2190 C   0  0  0  0  0  0  0  0  0  0  0  0
   41.8900   29.5690   41.2270 N   0  0  0  0  0  0  0  0  0  0  0  0
   41.6210   28.5070   40.4490 C   0  0  0  0  0  0  0  0  0  0  0  0
   40.5250   27.8340   40.9390 C   0  0  0  0  0  0  0  0  0  0  0  0
   40.1360   28.5370   42.0560 C   0  0  0  0  0  0  0  0  0  0  0  0
   39.1130   28.3490   42.9530 C   0  0  0  0  0  0  0  0  0  0  0  0
   37.4190   30.6360   50.8430 C   0  0  0  0  0  0  0  0  0  0  0  0
   38.3010   31.0730   49.8530 C   0  0  0  0  0  0  0  0  0  0  0  0
   37.8260   31.2250   48.5530 C   0  0  0  0  0  0  0  0  0  0  0  0
   36.5310   30.9370   48.3230 N   0  0  0  0  0  0  0  0  0  0  0  0
   35.6870   30.5110   49.3060 C   0  0  0  0  0  0  0  0  0  0  0  0
   36.1350   30.3670   50.5380 N   0  0  0  0  0  0  0  0  0  0  0  0
   33.9360   28.9150   49.0260 C   0  0  0  0  0  0  0  0  0  0  0  0
   34.5410   27.9390   49.5360 O   0  0  0  0  0  0  0  0  0  0  0  0
   34.3480   30.2650   48.8290 N   0  0  0  0  0  0  0  0  0  0  0  0
   39.1313   33.5758   48.2307 H   0  0  0  0  0  0  0  0  0  0  0  0
   40.5102   34.2971   46.3498 H   0  0  0  0  0  0  0  0  0  0  0  0
   40.8551   32.7698   44.3930 H   0  0  0  0  0  0  0  0  0  0  0  0
   38.1269   29.0541   44.7039 H   0  0  0  0  0  0  0  0  0  0  0  0
   41.4745   31.2973   43.3979 H   0  0  0  0  0  0  0  0  0  0  0  0
   42.6567   30.2425   41.0874 H   0  0  0  0  0  0  0  0  0  0  0  0
   42.1917   28.2185   39.5539 H   0  0  0  0  0  0  0  0  0  0  0  0
   40.0592   26.9272   40.5257 H   0  0  0  0  0  0  0  0  0  0  0  0
   38.4229   27.5005   42.8353 H   0  0  0  0  0  0  0  0  0  0  0  0
   37.7742   30.5108   51.8765 H   0  0  0  0  0  0  0  0  0  0  0  0
   39.3512   31.2930   50.0953 H   0  0  0  0  0  0  0  0  0  0  0  0
   32.9189   28.6900   48.6727 H   0  0  0  0  0  0  0  0  0  0  0  0
   33.7548   30.9859   48.3938 H   0  0  0  0  0  0  0  0  0  0  0  0
  1 18  1  0
  2  1  2  0
  3  2  1  0
  4  5  1  0
  4  3  2  0
  5  6  2  0
  6  1  1  0
  7  8  2  0
  8  5  1  0
  9  8  1  0
 10  9  2  0
 11 10  1  0
 12 13  2  0
 12 11  1  0
 13 14  1  0
 14 10  1  0
 14 15  2  0
 15  7  1  0
 17 16  2  0
 18 17  1  0
 19 18  2  0
 19 20  1  0
 20 21  2  0
 21 16  1  0
 22 23  2  0
 24 22  1  0
 24 20  1  0
  2 25  1  0
  3 26  1  0
  4 27  1  0
  7 28  1  0
  9 29  1  0
 11 30  1  0
 12 31  1  0
 13 32  1  0
 15 33  1  0
 16 34  1  0
 17 35  1  0
 22 36  1  0
 24 37  1  0
M  ISO  8  25  14  26  14  27  14  28  14  29  14  30   9  31  14  32  14
M  ISO  4  33  14  34  14  35  14  36   6
M  END
>  <minimizedAffinity>  (1) 
-7.47204304

>  <minimizedRMSD>  (1) 
0.974573016

$$$$
