
     RDKit          3D

 36 39  0  0  0  0  0  0  0  0999 V2000
   38.5250   31.3040   47.7240 C   0  0  0  0  0  0  0  0  0  0  0  0
   38.9750   32.5910   47.6960 C   0  0  0  0  0  0  0  0  0  0  0  0
   39.6370   33.1410   46.6210 C   0  0  0  0  0  0  0  0  0  0  0  0
   39.8730   32.3840   45.5070 C   0  0  0  0  0  0  0  0  0  0  0  0
   39.4090   31.0840   45.5590 C   0  0  0  0  0  0  0  0  0  0  0  0
   38.7720   30.5710   46.6050 N   0  0  0  0  0  0  0  0  0  0  0  0
   38.8340   29.1430   44.0770 C   0  0  0  0  0  0  0  0  0  0  0  0
   39.6280   30.2310   44.4100 C   0  0  0  0  0  0  0  0  0  0  0  0
   40.6680   30.4250   43.5210 C   0  0  0  0  0  0  0  0  0  0  0  0
   40.9290   29.6470   42.4090 C   0  0  0  0  0  0  0  0  0  0  0  0
   41.8700   29.6860   41.4570 N   0  0  0  0  0  0  0  0  0  0  0  0
   41.6550   28.6780   40.6000 C   0  0  0  0  0  0  0  0  0  0  0  0
   40.5530   27.9680   40.9990 C   0  0  0  0  0  0  0  0  0  0  0  0
   40.0910   28.5830   42.1490 C   0  0  0  0  0  0  0  0  0  0  0  0
   39.0450   28.3330   42.9840 C   0  0  0  0  0  0  0  0  0  0  0  0
   37.4290   30.3350   51.1990 C   0  0  0  0  0  0  0  0  0  0  0  0
   38.1650   30.9510   50.1810 C   0  0  0  0  0  0  0  0  0  0  0  0
   37.8270   30.7140   48.8510 C   0  0  0  0  0  0  0  0  0  0  0  0
   36.7950   29.8910   48.6400 N   0  0  0  0  0  0  0  0  0  0  0  0
   36.0800   29.2910   49.6220 C   0  0  0  0  0  0  0  0  0  0  0  0
   36.4070   29.5230   50.8810 N   0  0  0  0  0  0  0  0  0  0  0  0
   34.9520   28.3960   49.1940 C   0  0  0  0  0  0  0  0  0  0  0  0
   38.7999   33.2233   48.5789 H   0  0  0  0  0  0  0  0  0  0  0  0
   39.9752   34.1870   46.6584 H   0  0  0  0  0  0  0  0  0  0  0  0
   40.3980   32.7841   44.6270 H   0  0  0  0  0  0  0  0  0  0  0  0
   37.9791   28.9123   44.7297 H   0  0  0  0  0  0  0  0  0  0  0  0
   41.3452   31.2699   43.7148 H   0  0  0  0  0  0  0  0  0  0  0  0
   42.6322   30.3759   41.3938 H   0  0  0  0  0  0  0  0  0  0  0  0
   42.2679   28.4554   39.7141 H   0  0  0  0  0  0  0  0  0  0  0  0
   40.1218   27.0854   40.5039 H   0  0  0  0  0  0  0  0  0  0  0  0
   38.3708   27.4867   42.7859 H   0  0  0  0  0  0  0  0  0  0  0  0
   37.6856   30.5145   52.2535 H   0  0  0  0  0  0  0  0  0  0  0  0
   39.0042   31.6174   50.4293 H   0  0  0  0  0  0  0  0  0  0  0  0
   34.4452   27.9939   50.0836 H   0  0  0  0  0  0  0  0  0  0  0  0
   34.2342   28.9730   48.5925 H   0  0  0  0  0  0  0  0  0  0  0  0
   35.3507   27.5658   48.5925 H   0  0  0  0  0  0  0  0  0  0  0  0
  1 18  1  0
  2  1  2  0
  3  2  1  0
  4  5  1  0
  4  3  2  0
  5  6  2  0
  6  1  1  0
  7  8  2  0
  8  5  1  0
  9  8  1  0
 10  9  2  0
 11 10  1  0
 12 13  2  0
 12 11  1  0
 13 14  1  0
 14 10  1  0
 14 15  2  0
 15  7  1  0
 17 16  2  0
 18 17  1  0
 19 18  2  0
 19 20  1  0
 20 21  2  0
 21 16  1  0
 22 20  1  0
  2 23  1  0
  3 24  1  0
  4 25  1  0
  7 26  1  0
  9 27  1  0
 11 28  1  0
 12 29  1  0
 13 30  1  0
 15 31  1  0
 16 32  1  0
 17 33  1  0
 22 34  1  0
 22 35  1  0
 22 36  1  0
M  ISO  8  23  14  24  14  25  14  26  14  27  14  28   9  29  14  30  14
M  ISO  6  31  14  32  14  33  14  34   8  35   8  36   8
M  END
>  <minimizedAffinity>  (1) 
-7.04458523

>  <minimizedRMSD>  (1) 
0.0792111084

$$$$
