
     RDKit          3D

 34 36  0  0  0  0  0  0  0  0999 V2000
   37.2580   30.4650   45.1880 C   0  0  0  0  0  0  0  0  0  0  0  0
   35.9130   30.3080   44.7940 C   0  0  0  0  0  0  0  0  0  0  0  0
   34.8510   30.1220   45.6090 C   0  0  0  0  0  0  0  0  0  0  0  0
   35.0480   30.0740   46.9500 C   0  0  0  0  0  0  0  0  0  0  0  0
   36.3260   30.2200   47.3460 C   0  0  0  0  0  0  0  0  0  0  0  0
   37.3080   30.3980   46.4930 N   0  0  0  0  0  0  0  0  0  0  0  0
   37.9040   30.1120   42.9370 C   0  0  0  0  0  0  0  0  0  0  0  0
   38.2810   30.6950   44.1860 C   0  0  0  0  0  0  0  0  0  0  0  0
   39.4780   31.3600   44.2180 C   0  0  0  0  0  0  0  0  0  0  0  0
   40.2030   31.4070   43.0530 N   0  0  0  0  0  0  0  0  0  0  0  0
   39.8350   30.8590   41.8960 C   0  0  0  0  0  0  0  0  0  0  0  0
   38.6660   30.2060   41.8570 N   0  0  0  0  0  0  0  0  0  0  0  0
   40.7110   31.0350   40.8150 N   0  0  0  0  0  0  0  0  0  0  0  0
   39.9270   31.9810   45.4640 C   0  0  0  0  0  0  0  0  0  0  0  0
   40.1320   31.0390   46.3650 F   0  0  0  0  0  0  0  0  0  0  0  0
   41.0630   32.7580   45.3330 F   0  0  0  0  0  0  0  0  0  0  0  0
   38.9290   32.8610   45.9770 F   0  0  0  0  0  0  0  0  0  0  0  0
   36.6820   30.1860   48.7960 C   0  0  0  0  0  0  0  0  0  0  0  0
   35.9610   29.5190   49.7460 C   0  0  0  0  0  0  0  0  0  0  0  0
   36.3190   29.5080   51.0750 C   0  0  0  0  0  0  0  0  0  0  0  0
   37.4440   30.1870   51.4920 C   0  0  0  0  0  0  0  0  0  0  0  0
   38.2110   30.8780   50.5770 C   0  0  0  0  0  0  0  0  0  0  0  0
   37.7950   30.8460   49.2670 C   0  0  0  0  0  0  0  0  0  0  0  0
   35.7074   30.3402   43.7139 H   0  0  0  0  0  0  0  0  0  0  0  0
   33.8400   30.0110   45.1901 H   0  0  0  0  0  0  0  0  0  0  0  0
   34.2230   29.9264   47.6624 H   0  0  0  0  0  0  0  0  0  0  0  0
   36.9505   29.5676   42.8699 H   0  0  0  0  0  0  0  0  0  0  0  0
   40.4804   30.6341   39.8947 H   0  0  0  0  0  0  0  0  0  0  0  0
   41.5850   31.5651   40.9414 H   0  0  0  0  0  0  0  0  0  0  0  0
   35.0596   28.9696   49.4367 H   0  0  0  0  0  0  0  0  0  0  0  0
   35.7072   28.9572   51.8046 H   0  0  0  0  0  0  0  0  0  0  0  0
   37.7300   30.1778   52.5541 H   0  0  0  0  0  0  0  0  0  0  0  0
   39.1132   31.4288   50.8813 H   0  0  0  0  0  0  0  0  0  0  0  0
   38.4031   31.3944   48.5325 H   0  0  0  0  0  0  0  0  0  0  0  0
  1  6  1  0
  2  1  2  0
  2  3  1  0
  3  4  2  0
  4  5  1  0
  5 18  1  0
  6  5  2  0
  7  8  2  0
  8  9  1  0
  8  1  1  0
  9 14  1  0
 10  9  2  0
 11 10  1  0
 12 11  2  0
 12  7  1  0
 13 11  1  0
 14 17  1  0
 14 15  1  0
 16 14  1  0
 18 23  1  0
 18 19  2  0
 19 20  1  0
 20 21  2  0
 22 21  1  0
 23 22  2  0
  2 24  1  0
  3 25  1  0
  4 26  1  0
  7 27  1  0
 13 28  1  0
 13 29  1  0
 19 30  1  0
 20 31  1  0
 21 32  1  0
 22 33  1  0
 23 34  1  0
M  ISO  8  24  14  25  14  26  14  27  14  30  14  31  14  32  14  33  14
M  ISO  1  34  14
M  END
>  <minimizedAffinity>  (1) 
-6.75317383

>  <minimizedRMSD>  (1) 
4.60388851

$$$$
