
     RDKit          3D

 35 38  0  0  0  0  0  0  0  0999 V2000
   38.5330   31.3120   47.7060 C   0  0  0  0  0  0  0  0  0  0  0  0
   38.9810   32.5930   47.6760 C   0  0  0  0  0  0  0  0  0  0  0  0
   39.6500   33.1390   46.6050 C   0  0  0  0  0  0  0  0  0  0  0  0
   39.8900   32.3790   45.4990 C   0  0  0  0  0  0  0  0  0  0  0  0
   39.4270   31.0790   45.5460 C   0  0  0  0  0  0  0  0  0  0  0  0
   38.7840   30.5670   46.5880 N   0  0  0  0  0  0  0  0  0  0  0  0
   38.8330   29.1430   44.0660 C   0  0  0  0  0  0  0  0  0  0  0  0
   39.6440   30.2230   44.3920 C   0  0  0  0  0  0  0  0  0  0  0  0
   40.6940   30.4240   43.5040 C   0  0  0  0  0  0  0  0  0  0  0  0
   40.9340   29.6360   42.3930 C   0  0  0  0  0  0  0  0  0  0  0  0
   41.8790   29.6750   41.4380 N   0  0  0  0  0  0  0  0  0  0  0  0
   41.6490   28.6710   40.5830 C   0  0  0  0  0  0  0  0  0  0  0  0
   40.5350   27.9610   40.9800 C   0  0  0  0  0  0  0  0  0  0  0  0
   40.0980   28.5900   42.1290 C   0  0  0  0  0  0  0  0  0  0  0  0
   39.0490   28.3410   42.9620 C   0  0  0  0  0  0  0  0  0  0  0  0
   37.4310   30.3540   51.1760 C   0  0  0  0  0  0  0  0  0  0  0  0
   38.1660   30.9860   50.1640 C   0  0  0  0  0  0  0  0  0  0  0  0
   37.8340   30.7150   48.8290 C   0  0  0  0  0  0  0  0  0  0  0  0
   36.8290   29.8630   48.6240 N   0  0  0  0  0  0  0  0  0  0  0  0
   36.1140   29.2490   49.5920 C   0  0  0  0  0  0  0  0  0  0  0  0
   36.4300   29.5070   50.8660 N   0  0  0  0  0  0  0  0  0  0  0  0
   35.0660   28.3640   49.2060 N   0  0  0  0  0  0  0  0  0  0  0  0
   38.7994   33.2286   48.5552 H   0  0  0  0  0  0  0  0  0  0  0  0
   39.9899   34.1846   46.6410 H   0  0  0  0  0  0  0  0  0  0  0  0
   40.4207   32.7775   44.6217 H   0  0  0  0  0  0  0  0  0  0  0  0
   37.9773   28.9154   44.7187 H   0  0  0  0  0  0  0  0  0  0  0  0
   41.3780   31.2636   43.6971 H   0  0  0  0  0  0  0  0  0  0  0  0
   42.6468   30.3587   41.3750 H   0  0  0  0  0  0  0  0  0  0  0  0
   42.2582   28.4456   39.6953 H   0  0  0  0  0  0  0  0  0  0  0  0
   40.0907   27.0834   40.4877 H   0  0  0  0  0  0  0  0  0  0  0  0
   38.3721   27.4990   42.7549 H   0  0  0  0  0  0  0  0  0  0  0  0
   37.6730   30.5508   52.2309 H   0  0  0  0  0  0  0  0  0  0  0  0
   38.9842   31.6784   50.4112 H   0  0  0  0  0  0  0  0  0  0  0  0
   34.5064   27.8838   49.9251 H   0  0  0  0  0  0  0  0  0  0  0  0
   34.8681   28.2045   48.2079 H   0  0  0  0  0  0  0  0  0  0  0  0
  1 18  1  0
  2  1  2  0
  3  2  1  0
  4  5  1  0
  4  3  2  0
  5  6  2  0
  6  1  1  0
  7  8  2  0
  8  5  1  0
  9  8  1  0
 10  9  2  0
 11 10  1  0
 12 13  2  0
 12 11  1  0
 13 14  1  0
 14 10  1  0
 14 15  2  0
 15  7  1  0
 17 16  2  0
 18 17  1  0
 19 18  2  0
 19 20  1  0
 20 21  2  0
 21 16  1  0
 22 20  1  0
  2 23  1  0
  3 24  1  0
  4 25  1  0
  7 26  1  0
  9 27  1  0
 11 28  1  0
 12 29  1  0
 13 30  1  0
 15 31  1  0
 16 32  1  0
 17 33  1  0
 22 34  1  0
 22 35  1  0
M  ISO  8  23  14  24  14  25  14  26  14  27  14  28   9  29  14  30  14
M  ISO  3  31  14  32  14  33  14
M  END
>  <minimizedAffinity>  (1) 
-6.86398983

>  <minimizedRMSD>  (1) 
0.0398820788

$$$$
