
     RDKit          3D

 17 18  0  0  0  0  0  0  0  0999 V2000
   37.7420   30.4820   48.3190 C   0  0  0  0  0  0  0  0  0  0  0  0
   37.5770   31.3330   49.4440 C   0  0  0  0  0  0  0  0  0  0  0  0
   38.1950   32.5940   49.3970 C   0  0  0  0  0  0  0  0  0  0  0  0
   38.9160   32.9380   48.2890 N   0  0  0  0  0  0  0  0  0  0  0  0
   39.0470   32.0920   47.2380 C   0  0  0  0  0  0  0  0  0  0  0  0
   38.4610   30.8800   47.2650 N   0  0  0  0  0  0  0  0  0  0  0  0
   36.7750   30.8930   50.6220 C   0  0  0  0  0  0  0  0  0  0  0  0
   36.4350   29.4570   50.7660 C   0  0  0  0  0  0  0  0  0  0  0  0
   37.4420   30.0630   51.6740 C   0  0  0  0  0  0  0  0  0  0  0  0
   37.2739   29.4866   48.3151 H   0  0  0  0  0  0  0  0  0  0  0  0
   38.0996   33.2940   50.2402 H   0  0  0  0  0  0  0  0  0  0  0  0
   39.6345   32.3969   46.3594 H   0  0  0  0  0  0  0  0  0  0  0  0
   36.1994   31.8304   50.6143 H   0  0  0  0  0  0  0  0  0  0  0  0
   35.4499   29.1633   51.1575 H   0  0  0  0  0  0  0  0  0  0  0  0
   36.4258   28.5915   50.0872 H   0  0  0  0  0  0  0  0  0  0  0  0
   38.5047   29.7969   51.5743 H   0  0  0  0  0  0  0  0  0  0  0  0
   37.5643   30.1371   52.7647 H   0  0  0  0  0  0  0  0  0  0  0  0
  1  2  2  0
  2  7  1  0
  3  2  1  0
  4  3  2  0
  5  6  2  0
  5  4  1  0
  6  1  1  0
  7  8  1  0
  7  9  1  0
  8  9  1  0
  1 10  1  0
  3 11  1  0
  5 12  1  0
  7 13  1  0
  8 14  1  0
  8 15  1  0
  9 16  1  0
  9 17  1  0
M  ISO  8  10  14  11  14  12  14  13  13  14  13  15  13  16  13  17  13
M  END
>  <minimizedAffinity>  (1) 
-4.19952488

>  <minimizedRMSD>  (1) 
3.72452211

$$$$
