
     RDKit          3D

 24 26  0  0  1  0  0  0  0  0999 V2000
   37.4140   31.3150   48.1330 C   0  0  1  0  0  0  0  0  0  0  0  0
   36.8970   29.9470   48.1930 C   0  0  0  0  0  0  0  0  0  0  0  0
   37.7360   30.4520   49.3250 C   0  0  2  0  0  0  0  0  0  0  0  0
   38.9200   30.6980   46.2110 C   0  0  0  0  0  0  0  0  0  0  0  0
   38.5030   31.6350   47.1790 C   0  0  0  0  0  0  0  0  0  0  0  0
   39.1590   32.8600   47.2110 C   0  0  0  0  0  0  0  0  0  0  0  0
   40.1750   33.1070   46.3100 N   0  0  0  0  0  0  0  0  0  0  0  0
   40.5360   32.1640   45.3950 C   0  0  0  0  0  0  0  0  0  0  0  0
   39.9070   30.9590   45.3470 N   0  0  0  0  0  0  0  0  0  0  0  0
   37.0140   30.6130   50.6110 C   0  0  0  0  0  0  0  0  0  0  0  0
   36.1680   29.5880   51.2300 C   0  0  0  0  0  0  0  0  0  0  0  0
   37.5070   29.9380   51.8320 C   0  0  0  0  0  0  0  0  0  0  0  0
   36.9578   32.3054   47.9882 H   0  0  0  0  0  0  0  0  0  0  0  0
   35.8210   29.7753   48.3441 H   0  0  0  0  0  0  0  0  0  0  0  0
   36.9474   29.0739   47.5258 H   0  0  0  0  0  0  0  0  0  0  0  0
   38.6772   30.1952   49.8331 H   0  0  0  0  0  0  0  0  0  0  0  0
   38.4172   29.7207   46.1651 H   0  0  0  0  0  0  0  0  0  0  0  0
   38.8713   33.6251   47.9471 H   0  0  0  0  0  0  0  0  0  0  0  0
   41.3478   32.3804   44.6850 H   0  0  0  0  0  0  0  0  0  0  0  0
   36.8150   31.6489   50.2991 H   0  0  0  0  0  0  0  0  0  0  0  0
   35.2399   29.8768   51.7450 H   0  0  0  0  0  0  0  0  0  0  0  0
   35.6863   28.6613   50.8847 H   0  0  0  0  0  0  0  0  0  0  0  0
   38.3439   29.2267   51.7716 H   0  0  0  0  0  0  0  0  0  0  0  0
   37.8622   30.2645   52.8206 H   0  0  0  0  0  0  0  0  0  0  0  0
  1  2  1  0
  1  3  1  0
  2  3  1  0
  3 10  1  0
  4  5  2  0
  5  6  1  0
  5  1  1  0
  7  6  2  0
  8  7  1  0
  9  8  2  0
  9  4  1  0
 10 11  1  0
 10 12  1  0
 11 12  1  0
  1 13  1  1
  2 14  1  0
  2 15  1  0
  3 16  1  1
  4 17  1  0
  6 18  1  0
  8 19  1  0
 10 20  1  0
 11 21  1  0
 11 22  1  0
 12 23  1  0
 12 24  1  0
M  ISO  8  13  13  14  13  15  13  16  13  17  14  18  14  19  14  20  13
M  ISO  4  21  13  22  13  23  13  24  13
M  END
>  <minimizedAffinity>  (1) 
-4.80139542

>  <minimizedRMSD>  (1) 
2.56936121

$$$$
