
     RDKit          3D

 21 22  0  0  1  0  0  0  0  0999 V2000
   38.1490   31.8280   48.6330 C   0  0  1  0  0  0  0  0  0  0  0  0
   36.8080   31.2570   48.7880 C   0  0  0  0  0  0  0  0  0  0  0  0
   37.9680   30.5420   49.4020 C   0  0  2  0  0  0  0  0  0  0  0  0
   38.6790   30.6690   46.4570 C   0  0  0  0  0  0  0  0  0  0  0  0
   38.8360   31.7700   47.3240 C   0  0  0  0  0  0  0  0  0  0  0  0
   39.6650   32.8100   46.9100 C   0  0  0  0  0  0  0  0  0  0  0  0
   40.2930   32.7320   45.6890 N   0  0  0  0  0  0  0  0  0  0  0  0
   40.1150   31.6480   44.8760 C   0  0  0  0  0  0  0  0  0  0  0  0
   39.3090   30.6240   45.2670 N   0  0  0  0  0  0  0  0  0  0  0  0
   37.3680   29.9990   51.7400 C   0  0  0  0  0  0  0  0  0  0  0  0
   36.3720   29.3500   51.3440 O   0  0  0  0  0  0  0  0  0  0  0  0
   38.2530   30.6510   50.8180 N   0  0  0  0  0  0  0  0  0  0  0  0
   38.5885   32.8148   48.8406 H   0  0  0  0  0  0  0  0  0  0  0  0
   36.0718   31.7587   49.4332 H   0  0  0  0  0  0  0  0  0  0  0  0
   36.0080   30.9694   48.0899 H   0  0  0  0  0  0  0  0  0  0  0  0
   38.3095   29.4972   49.3595 H   0  0  0  0  0  0  0  0  0  0  0  0
   38.0310   29.8325   46.7575 H   0  0  0  0  0  0  0  0  0  0  0  0
   39.8163   33.6878   47.5554 H   0  0  0  0  0  0  0  0  0  0  0  0
   40.6250   31.6033   43.9024 H   0  0  0  0  0  0  0  0  0  0  0  0
   37.5684   30.0705   52.8192 H   0  0  0  0  0  0  0  0  0  0  0  0
   39.0690   31.1823   51.1539 H   0  0  0  0  0  0  0  0  0  0  0  0
  1  2  1  0
  1  3  1  0
  2  3  1  0
  3 12  1  0
  4  5  2  0
  5  1  1  0
  6  5  1  0
  7  6  2  0
  8  9  2  0
  8  7  1  0
  9  4  1  0
 11 10  2  0
 12 10  1  0
  1 13  1  1
  2 14  1  0
  2 15  1  0
  3 16  1  6
  4 17  1  0
  6 18  1  0
  8 19  1  0
 10 20  1  0
 12 21  1  0
M  ISO  8  13  13  14  13  15  13  16  13  17  14  18  14  19  14  20   6
M  END
>  <minimizedAffinity>  (1) 
-4.52996397

>  <minimizedRMSD>  (1) 
2.50764894

$$$$
