
     RDKit          3D

 18 19  0  0  1  0  0  0  0  0999 V2000
   37.7070   30.5790   47.9850 C   0  0  0  0  0  0  0  0  0  0  0  0
   37.1710   31.1940   49.1370 C   0  0  0  0  0  0  0  0  0  0  0  0
   37.6150   32.4810   49.4380 C   0  0  0  0  0  0  0  0  0  0  0  0
   38.5260   33.0640   48.6180 N   0  0  0  0  0  0  0  0  0  0  0  0
   39.0200   32.4510   47.5230 C   0  0  0  0  0  0  0  0  0  0  0  0
   38.6030   31.1960   47.2080 N   0  0  0  0  0  0  0  0  0  0  0  0
   36.1780   30.4870   49.9990 C   0  0  1  0  0  0  0  0  0  0  0  0
   36.0260   29.0340   49.9040 C   0  0  0  0  0  0  0  0  0  0  0  0
   36.6920   29.6030   51.1100 C   0  0  1  0  0  0  0  0  0  0  0  0
   38.0520   29.4160   51.2940 O   0  0  0  0  0  0  0  0  0  0  0  0
   37.3782   29.5635   47.7191 H   0  0  0  0  0  0  0  0  0  0  0  0
   37.2346   33.0132   50.3223 H   0  0  0  0  0  0  0  0  0  0  0  0
   39.7569   32.9641   46.8877 H   0  0  0  0  0  0  0  0  0  0  0  0
   35.4838   31.3372   49.9270 H   0  0  0  0  0  0  0  0  0  0  0  0
   35.0269   28.5826   49.9940 H   0  0  0  0  0  0  0  0  0  0  0  0
   36.3062   28.2787   49.1550 H   0  0  0  0  0  0  0  0  0  0  0  0
   36.5419   29.5500   52.1984 H   0  0  0  0  0  0  0  0  0  0  0  0
   38.2532   29.3883   52.2629 H   0  0  0  0  0  0  0  0  0  0  0  0
  1  2  2  0
  2  3  1  0
  2  7  1  0
  4  3  2  0
  5  4  1  0
  6  5  2  0
  6  1  1  0
  7  9  1  0
  8  7  1  0
  8  9  1  0
  9 10  1  0
  1 11  1  0
  3 12  1  0
  5 13  1  0
  7 14  1  1
  8 15  1  0
  8 16  1  0
  9 17  1  1
 10 18  1  0
M  ISO  8  11  14  12  14  13  14  14  13  15  13  16  13  17  13  18   3
M  END
>  <minimizedAffinity>  (1) 
-4.33833981

>  <minimizedRMSD>  (1) 
0.711162925

$$$$
