
     RDKit          3D

 20 21  0  0  1  0  0  0  0  0999 V2000
   37.8350   30.6500   47.6100 C   0  0  0  0  0  0  0  0  0  0  0  0
   37.8310   31.5250   48.7440 C   0  0  0  0  0  0  0  0  0  0  0  0
   38.5790   32.7000   48.6740 C   0  0  0  0  0  0  0  0  0  0  0  0
   39.2760   32.9580   47.5320 N   0  0  0  0  0  0  0  0  0  0  0  0
   39.2620   32.1060   46.4650 C   0  0  0  0  0  0  0  0  0  0  0  0
   38.5380   30.9590   46.5200 N   0  0  0  0  0  0  0  0  0  0  0  0
   37.0540   31.1680   49.9700 C   0  0  1  0  0  0  0  0  0  0  0  0
   36.0420   30.1110   49.9100 C   0  0  0  0  0  0  0  0  0  0  0  0
   37.3330   29.8400   50.6210 C   0  0  2  0  0  0  0  0  0  0  0  0
   37.3660   29.8530   52.1430 C   0  0  0  0  0  0  0  0  0  0  0  0
   37.2539   29.7164   47.6386 H   0  0  0  0  0  0  0  0  0  0  0  0
   38.6056   33.4018   49.5206 H   0  0  0  0  0  0  0  0  0  0  0  0
   39.8380   32.3493   45.5600 H   0  0  0  0  0  0  0  0  0  0  0  0
   37.0431   32.2174   50.2995 H   0  0  0  0  0  0  0  0  0  0  0  0
   35.1106   30.2119   50.4865 H   0  0  0  0  0  0  0  0  0  0  0  0
   35.4901   29.6163   49.0972 H   0  0  0  0  0  0  0  0  0  0  0  0
   38.0919   29.0467   50.5524 H   0  0  0  0  0  0  0  0  0  0  0  0
   36.4093   29.4761   52.5337 H   0  0  0  0  0  0  0  0  0  0  0  0
   38.1855   29.2105   52.4975 H   0  0  0  0  0  0  0  0  0  0  0  0
   37.5271   30.8818   52.4975 H   0  0  0  0  0  0  0  0  0  0  0  0
  1  2  2  0
  2  7  1  0
  3  2  1  0
  4  3  2  0
  5  6  2  0
  5  4  1  0
  6  1  1  0
  7  9  1  0
  8  7  1  0
  8  9  1  0
  9 10  1  0
  1 11  1  0
  3 12  1  0
  5 13  1  0
  7 14  1  1
  8 15  1  0
  8 16  1  0
  9 17  1  6
 10 18  1  0
 10 19  1  0
 10 20  1  0
M  ISO  8  11  14  12  14  13  14  14  13  15  13  16  13  17  13  18   8
M  ISO  2  19   8  20   8
M  END
>  <minimizedAffinity>  (1) 
-4.3114543

>  <minimizedRMSD>  (1) 
0.897283852

$$$$
