
     RDKit          3D

 27 29  0  0  1  0  0  0  0  0999 V2000
   37.1200   31.7690   46.0200 C   0  0  1  0  0  0  0  0  0  0  0  0
   36.3220   30.5640   45.8450 C   0  0  0  0  0  0  0  0  0  0  0  0
   37.5480   30.4910   46.6990 C   0  0  2  0  0  0  0  0  0  0  0  0
   35.1080   28.8670   47.8350 Cl  0  0  0  0  0  0  0  0  0  0  0  0
   36.3410   29.6020   48.8110 C   0  0  0  0  0  0  0  0  0  0  0  0
   37.3340   30.2560   48.1230 C   0  0  0  0  0  0  0  0  0  0  0  0
   38.3380   30.8330   48.8790 C   0  0  0  0  0  0  0  0  0  0  0  0
   38.3610   30.7710   50.2770 C   0  0  0  0  0  0  0  0  0  0  0  0
   37.3380   30.1020   50.9400 C   0  0  0  0  0  0  0  0  0  0  0  0
   37.2490   29.9500   52.6860 Cl  0  0  0  0  0  0  0  0  0  0  0  0
   36.3350   29.5230   50.1800 C   0  0  0  0  0  0  0  0  0  0  0  0
   37.4770   32.2930   43.5640 C   0  0  0  0  0  0  0  0  0  0  0  0
   37.9620   32.2970   44.9120 C   0  0  0  0  0  0  0  0  0  0  0  0
   39.2400   32.7970   45.1550 C   0  0  0  0  0  0  0  0  0  0  0  0
   39.9800   33.2630   44.1020 N   0  0  0  0  0  0  0  0  0  0  0  0
   39.4910   33.2470   42.8290 C   0  0  0  0  0  0  0  0  0  0  0  0
   38.2490   32.7640   42.5740 N   0  0  0  0  0  0  0  0  0  0  0  0
   36.8860   32.7944   46.3422 H   0  0  0  0  0  0  0  0  0  0  0  0
   35.3277   30.4954   46.3104 H   0  0  0  0  0  0  0  0  0  0  0  0
   35.9585   30.0024   44.9718 H   0  0  0  0  0  0  0  0  0  0  0  0
   38.4959   29.9339   46.7330 H   0  0  0  0  0  0  0  0  0  0  0  0
   39.1513   31.3620   48.3607 H   0  0  0  0  0  0  0  0  0  0  0  0
   39.1766   31.2447   50.8431 H   0  0  0  0  0  0  0  0  0  0  0  0
   35.5168   28.9888   50.6851 H   0  0  0  0  0  0  0  0  0  0  0  0
   36.4725   31.9040   43.3414 H   0  0  0  0  0  0  0  0  0  0  0  0
   39.6474   32.8168   46.1766 H   0  0  0  0  0  0  0  0  0  0  0  0
   40.1084   33.6287   42.0025 H   0  0  0  0  0  0  0  0  0  0  0  0
  1  3  1  0
  2  1  1  0
  2  3  1  0
  3  6  1  0
  4  5  1  0
  5 11  2  0
  6  5  1  0
  6  7  2  0
  7  8  1  0
  8  9  2  0
  9 10  1  0
 11  9  1  0
 12 13  2  0
 13 14  1  0
 13  1  1  0
 15 14  2  0
 16 15  1  0
 17 16  2  0
 17 12  1  0
  1 18  1  1
  2 19  1  0
  2 20  1  0
  3 21  1  6
  7 22  1  0
  8 23  1  0
 11 24  1  0
 12 25  1  0
 14 26  1  0
 16 27  1  0
M  ISO  8  18  13  19  13  20  13  21  13  22  14  23  14  24  14  25  14
M  ISO  2  26  14  27  14
M  END
>  <minimizedAffinity>  (1) 
-4.64916849

>  <minimizedRMSD>  (1) 
4.88620472

$$$$
