
     RDKit          3D

 40 43  0  0  1  0  0  0  0  0999 V2000
   37.7590   31.4500   46.0010 C   0  0  1  0  0  0  0  0  0  0  0  0
   36.3190   31.1330   45.9640 C   0  0  0  0  0  0  0  0  0  0  0  0
   37.1530   30.1510   46.6180 C   0  0  2  0  0  0  0  0  0  0  0  0
   34.7920   28.6440   48.0050 Cl  0  0  0  0  0  0  0  0  0  0  0  0
   36.0730   29.4510   48.8740 C   0  0  0  0  0  0  0  0  0  0  0  0
   37.0570   29.9960   48.0660 C   0  0  0  0  0  0  0  0  0  0  0  0
   38.1100   30.5710   48.7120 C   0  0  0  0  0  0  0  0  0  0  0  0
   38.2000   30.6130   50.1240 C   0  0  0  0  0  0  0  0  0  0  0  0
   37.1820   30.0490   50.8920 C   0  0  0  0  0  0  0  0  0  0  0  0
   37.1860   30.0080   52.6500 Cl  0  0  0  0  0  0  0  0  0  0  0  0
   36.1100   29.4640   50.2310 C   0  0  0  0  0  0  0  0  0  0  0  0
   37.9200   31.3930   43.4440 C   0  0  0  0  0  0  0  0  0  0  0  0
   38.5530   31.2740   44.7430 C   0  0  0  0  0  0  0  0  0  0  0  0
   39.9080   30.9490   44.7880 C   0  0  0  0  0  0  0  0  0  0  0  0
   40.5820   30.7570   43.6010 N   0  0  0  0  0  0  0  0  0  0  0  0
   39.9430   30.8800   42.4160 C   0  0  0  0  0  0  0  0  0  0  0  0
   38.6370   31.1940   42.3340 N   0  0  0  0  0  0  0  0  0  0  0  0
   40.0270   30.3950   39.9880 C   0  0  2  0  0  0  0  0  0  0  0  0
   40.8150   30.6400   41.2280 C   0  0  2  0  0  0  0  0  0  0  0  0
   41.7120   29.6170   41.4250 O   0  0  0  0  0  0  0  0  0  0  0  0
   41.4170   28.5910   40.5520 C   0  0  0  0  0  0  0  0  0  0  0  0
   40.5740   29.1060   39.4430 C   0  0  1  0  0  0  0  0  0  0  0  0
   40.1710   31.4450   39.0710 O   0  0  0  0  0  0  0  0  0  0  0  0
   39.4810   28.2330   39.2770 O   0  0  0  0  0  0  0  0  0  0  0  0
   38.3678   32.2997   46.3435 H   0  0  0  0  0  0  0  0  0  0  0  0
   35.6217   31.7326   46.5676 H   0  0  0  0  0  0  0  0  0  0  0  0
   35.5862   31.0690   45.1461 H   0  0  0  0  0  0  0  0  0  0  0  0
   37.3481   29.0741   46.5076 H   0  0  0  0  0  0  0  0  0  0  0  0
   38.9186   31.0183   48.1152 H   0  0  0  0  0  0  0  0  0  0  0  0
   39.0653   31.0863   50.6111 H   0  0  0  0  0  0  0  0  0  0  0  0
   35.2901   29.0107   50.8074 H   0  0  0  0  0  0  0  0  0  0  0  0
   36.8520   31.6465   43.3724 H   0  0  0  0  0  0  0  0  0  0  0  0
   40.4289   30.8478   45.7516 H   0  0  0  0  0  0  0  0  0  0  0  0
   38.9471   30.3344   40.1881 H   0  0  0  0  0  0  0  0  0  0  0  0
   41.3876   31.5698   41.0956 H   0  0  0  0  0  0  0  0  0  0  0  0
   42.3511   28.1802   40.1412 H   0  0  0  0  0  0  0  0  0  0  0  0
   40.8712   27.8009   41.0886 H   0  0  0  0  0  0  0  0  0  0  0  0
   41.1214   29.2099   38.4946 H   0  0  0  0  0  0  0  0  0  0  0  0
   40.2879   32.2973   39.5609 H   0  0  0  0  0  0  0  0  0  0  0  0
   39.1390   27.9598   40.1650 H   0  0  0  0  0  0  0  0  0  0  0  0
  1  3  1  0
  2  1  1  0
  2  3  1  0
  3  6  1  0
  4  5  1  0
  5 11  2  0
  6  7  2  0
  6  5  1  0
  7  8  1  0
  8  9  2  0
  9 10  1  0
 11  9  1  0
 12 13  2  0
 13 14  1  0
 13  1  1  0
 15 14  2  0
 16 15  1  0
 17 16  2  0
 17 12  1  0
 18 23  1  0
 18 19  1  0
 19 20  1  0
 19 16  1  0
 21 20  1  0
 22 24  1  0
 22 18  1  0
 22 21  1  0
  1 25  1  1
  2 26  1  0
  2 27  1  0
  3 28  1  6
  7 29  1  0
  8 30  1  0
 11 31  1  0
 12 32  1  0
 14 33  1  0
 18 34  1  1
 19 35  1  6
 21 36  1  0
 21 37  1  0
 22 38  1  6
 23 39  1  0
 24 40  1  0
M  ISO  8  25  13  26  13  27  13  28  13  29  14  30  14  31  14  32  14
M  ISO  8  33  14  34  13  35  13  36  13  37  13  38  13  39   3  40   3
M  END
>  <minimizedAffinity>  (1) 
-4.90206623

>  <minimizedRMSD>  (1) 
2.46048903

$$$$
