
     RDKit          3D

 39 42  0  0  1  0  0  0  0  0999 V2000
   36.1220   30.7770   41.1510 C   0  0  0  0  0  0  0  0  0  0  0  0
   36.8160   31.0700   42.3950 C   0  0  0  0  0  0  0  0  0  0  0  0
   38.1650   31.2180   42.3690 C   0  0  0  0  0  0  0  0  0  0  0  0
   38.8040   31.0790   41.1610 N   0  0  0  0  0  0  0  0  0  0  0  0
   38.1380   30.8080   40.0260 C   0  0  0  0  0  0  0  0  0  0  0  0
   36.8100   30.6610   40.0240 N   0  0  0  0  0  0  0  0  0  0  0  0
   38.8230   30.6910   38.7740 N   0  0  0  0  0  0  0  0  0  0  0  0
   39.6750   29.3820   43.9400 F   0  0  0  0  0  0  0  0  0  0  0  0
   39.8860   30.7020   44.1810 C   0  0  0  0  0  0  0  0  0  0  0  0
   39.0980   31.5240   43.4050 C   0  0  0  0  0  0  0  0  0  0  0  0
   39.2280   32.8960   43.5680 C   0  0  0  0  0  0  0  0  0  0  0  0
   40.1290   33.4430   44.4910 C   0  0  0  0  0  0  0  0  0  0  0  0
   40.9200   32.5880   45.2690 C   0  0  0  0  0  0  0  0  0  0  0  0
   40.7800   31.2200   45.0950 C   0  0  0  0  0  0  0  0  0  0  0  0
   36.0870   31.2780   43.6960 C   0  0  1  0  0  0  0  0  0  0  0  0
   34.8910   30.5340   43.9750 C   0  0  0  0  0  0  0  0  0  0  0  0
   36.1470   30.0570   44.6750 C   0  0  2  0  0  0  0  0  0  0  0  0
   33.8260   29.1560   46.5120 Cl  0  0  0  0  0  0  0  0  0  0  0  0
   35.2410   29.9860   47.0940 C   0  0  0  0  0  0  0  0  0  0  0  0
   36.1380   30.3440   46.1120 C   0  0  0  0  0  0  0  0  0  0  0  0
   37.2700   31.0090   46.5470 C   0  0  0  0  0  0  0  0  0  0  0  0
   37.4910   31.3010   47.8910 C   0  0  0  0  0  0  0  0  0  0  0  0
   36.5350   30.9110   48.8550 C   0  0  0  0  0  0  0  0  0  0  0  0
   36.6870   31.2380   50.5700 Cl  0  0  0  0  0  0  0  0  0  0  0  0
   35.3910   30.2360   48.4160 C   0  0  0  0  0  0  0  0  0  0  0  0
   35.0291   30.6520   41.1454 H   0  0  0  0  0  0  0  0  0  0  0  0
   38.2941   30.4827   37.9151 H   0  0  0  0  0  0  0  0  0  0  0  0
   39.8446   30.8151   38.7324 H   0  0  0  0  0  0  0  0  0  0  0  0
   38.6088   33.5702   42.9580 H   0  0  0  0  0  0  0  0  0  0  0  0
   40.2144   34.5339   44.6037 H   0  0  0  0  0  0  0  0  0  0  0  0
   41.6351   32.9925   46.0005 H   0  0  0  0  0  0  0  0  0  0  0  0
   41.3937   30.5341   45.6974 H   0  0  0  0  0  0  0  0  0  0  0  0
   36.3194   32.3527   43.7294 H   0  0  0  0  0  0  0  0  0  0  0  0
   34.0905   31.0032   44.5658 H   0  0  0  0  0  0  0  0  0  0  0  0
   34.1488   30.0336   43.3356 H   0  0  0  0  0  0  0  0  0  0  0  0
   36.7622   29.1482   44.7500 H   0  0  0  0  0  0  0  0  0  0  0  0
   38.0219   31.3180   45.8059 H   0  0  0  0  0  0  0  0  0  0  0  0
   38.4038   31.8317   48.1995 H   0  0  0  0  0  0  0  0  0  0  0  0
   34.6239   29.9128   49.1351 H   0  0  0  0  0  0  0  0  0  0  0  0
  1  2  2  0
  2 15  1  0
  3  2  1  0
  3 10  1  0
  4  3  2  0
  5  4  1  0
  6  5  2  0
  6  1  1  0
  7  5  1  0
  8  9  1  0
  9 14  2  0
 10 11  2  0
 10  9  1  0
 11 12  1  0
 12 13  2  0
 14 13  1  0
 15 16  1  0
 15 17  1  0
 16 17  1  0
 17 20  1  0
 18 19  1  0
 19 25  2  0
 20 21  2  0
 20 19  1  0
 21 22  1  0
 22 23  2  0
 23 24  1  0
 25 23  1  0
  1 26  1  0
  7 27  1  0
  7 28  1  0
 11 29  1  0
 12 30  1  0
 13 31  1  0
 14 32  1  0
 15 33  1  1
 16 34  1  0
 16 35  1  0
 17 36  1  6
 21 37  1  0
 22 38  1  0
 25 39  1  0
M  ISO  8  26  14  29  14  30  14  31  14  32  14  33  13  34  13  35  13
M  ISO  4  36  13  37  14  38  14  39  14
M  END
>  <minimizedAffinity>  (1) 
-5.72408867

>  <minimizedRMSD>  (1) 
2.90202332

$$$$
