
     RDKit          3D

 37 40  0  0  1  0  0  0  0  0999 V2000
   35.3270   30.4880   46.1100 C   0  0  1  0  0  0  0  0  0  0  0  0
   34.0500   30.1870   46.6960 C   0  0  0  0  0  0  0  0  0  0  0  0
   35.1900   29.2390   47.0330 C   0  0  2  0  0  0  0  0  0  0  0  0
   33.3790   28.4280   49.4170 Cl  0  0  0  0  0  0  0  0  0  0  0  0
   35.0030   29.0240   49.6040 C   0  0  0  0  0  0  0  0  0  0  0  0
   35.6290   29.3800   48.4260 C   0  0  0  0  0  0  0  0  0  0  0  0
   36.9170   29.8980   48.5430 C   0  0  0  0  0  0  0  0  0  0  0  0
   37.5260   30.0480   49.7780 C   0  0  0  0  0  0  0  0  0  0  0  0
   36.8460   29.6730   50.9580 C   0  0  0  0  0  0  0  0  0  0  0  0
   37.4940   29.8720   52.5640 Cl  0  0  0  0  0  0  0  0  0  0  0  0
   35.5550   29.1500   50.8370 C   0  0  0  0  0  0  0  0  0  0  0  0
   34.5540   29.6150   43.8130 C   0  0  0  0  0  0  0  0  0  0  0  0
   35.6000   30.1670   44.6630 C   0  0  0  0  0  0  0  0  0  0  0  0
   36.8030   30.4800   44.1210 C   0  0  0  0  0  0  0  0  0  0  0  0
   36.9660   30.2560   42.7850 N   0  0  0  0  0  0  0  0  0  0  0  0
   35.9910   29.7460   42.0130 C   0  0  0  0  0  0  0  0  0  0  0  0
   34.7960   29.4280   42.5220 N   0  0  0  0  0  0  0  0  0  0  0  0
   36.1990   29.5250   40.6160 N   0  0  0  0  0  0  0  0  0  0  0  0
   37.9980   31.0080   44.6830 C   0  0  0  0  0  0  0  0  0  0  0  0
   38.3050   32.3510   44.4190 C   0  0  0  0  0  0  0  0  0  0  0  0
   39.4460   33.0340   44.8460 C   0  0  0  0  0  0  0  0  0  0  0  0
   40.3100   32.3090   45.5730 N   0  0  0  0  0  0  0  0  0  0  0  0
   40.0710   31.0320   45.8520 C   0  0  0  0  0  0  0  0  0  0  0  0
   38.9710   30.4460   45.4190 N   0  0  0  0  0  0  0  0  0  0  0  0
   35.9263   31.4099   46.0801 H   0  0  0  0  0  0  0  0  0  0  0  0
   33.6465   30.8459   47.4789 H   0  0  0  0  0  0  0  0  0  0  0  0
   33.0425   30.0404   46.2796 H   0  0  0  0  0  0  0  0  0  0  0  0
   35.4442   28.1730   46.9379 H   0  0  0  0  0  0  0  0  0  0  0  0
   37.4622   30.1943   47.6348 H   0  0  0  0  0  0  0  0  0  0  0  0
   38.5436   30.4610   49.8402 H   0  0  0  0  0  0  0  0  0  0  0  0
   34.9930   28.8440   51.7317 H   0  0  0  0  0  0  0  0  0  0  0  0
   33.5728   29.3556   44.2373 H   0  0  0  0  0  0  0  0  0  0  0  0
   37.1062   29.7575   40.1873 H   0  0  0  0  0  0  0  0  0  0  0  0
   35.4416   29.1333   40.0382 H   0  0  0  0  0  0  0  0  0  0  0  0
   37.5790   32.9196   43.8194 H   0  0  0  0  0  0  0  0  0  0  0  0
   39.6239   34.0921   44.6034 H   0  0  0  0  0  0  0  0  0  0  0  0
   40.7959   30.4589   46.4487 H   0  0  0  0  0  0  0  0  0  0  0  0
  1  2  1  0
  1  3  1  0
  2  3  1  0
  3  6  1  0
  4  5  1  0
  5 11  2  0
  6  7  2  0
  6  5  1  0
  7  8  1  0
  8  9  2  0
  9 10  1  0
 11  9  1  0
 12 13  2  0
 13  1  1  0
 14 13  1  0
 14 19  1  0
 15 14  2  0
 16 17  2  0
 16 15  1  0
 17 12  1  0
 18 16  1  0
 19 24  1  0
 20 19  2  0
 20 21  1  0
 21 22  2  0
 22 23  1  0
 24 23  2  0
  1 25  1  1
  2 26  1  0
  2 27  1  0
  3 28  1  6
  7 29  1  0
  8 30  1  0
 11 31  1  0
 12 32  1  0
 18 33  1  0
 18 34  1  0
 20 35  1  0
 21 36  1  0
 23 37  1  0
M  ISO  8  25  13  26  13  27  13  28  13  29  14  30  14  31  14  32  14
M  ISO  3  35  14  36  14  37  14
M  END
>  <minimizedAffinity>  (1) 
-5.58286667

>  <minimizedRMSD>  (1) 
2.9687171

$$$$
