
     RDKit          3D

 39 42  0  0  1  0  0  0  0  0999 V2000
   36.0920   30.9180   41.1570 C   0  0  0  0  0  0  0  0  0  0  0  0
   36.7720   31.1800   42.4140 C   0  0  0  0  0  0  0  0  0  0  0  0
   38.1140   31.3600   42.3930 C   0  0  0  0  0  0  0  0  0  0  0  0
   38.7430   31.2740   41.1740 N   0  0  0  0  0  0  0  0  0  0  0  0
   38.1020   31.0310   40.0200 C   0  0  0  0  0  0  0  0  0  0  0  0
   36.7800   30.8570   40.0220 N   0  0  0  0  0  0  0  0  0  0  0  0
   38.7850   30.9440   38.7780 N   0  0  0  0  0  0  0  0  0  0  0  0
   39.1090   31.6460   43.3950 C   0  0  0  0  0  0  0  0  0  0  0  0
   40.0110   30.8250   44.0300 C   0  0  0  0  0  0  0  0  0  0  0  0
   40.9400   31.2120   44.9660 C   0  0  0  0  0  0  0  0  0  0  0  0
   40.9670   32.5480   45.2980 C   0  0  0  0  0  0  0  0  0  0  0  0
   40.1220   33.4820   44.7410 C   0  0  0  0  0  0  0  0  0  0  0  0
   39.2320   32.9820   43.8130 C   0  0  0  0  0  0  0  0  0  0  0  0
   36.0480   31.3090   43.7160 C   0  0  1  0  0  0  0  0  0  0  0  0
   34.9030   30.4910   43.9920 C   0  0  0  0  0  0  0  0  0  0  0  0
   36.1930   30.0860   44.6830 C   0  0  2  0  0  0  0  0  0  0  0  0
   33.8430   29.1750   46.4850 Cl  0  0  0  0  0  0  0  0  0  0  0  0
   35.2600   29.9870   47.0900 C   0  0  0  0  0  0  0  0  0  0  0  0
   36.1610   30.3570   46.1210 C   0  0  0  0  0  0  0  0  0  0  0  0
   37.2820   31.0240   46.5770 C   0  0  0  0  0  0  0  0  0  0  0  0
   37.4940   31.3090   47.9320 C   0  0  0  0  0  0  0  0  0  0  0  0
   36.5270   30.9030   48.8750 C   0  0  0  0  0  0  0  0  0  0  0  0
   36.6490   31.2240   50.5920 Cl  0  0  0  0  0  0  0  0  0  0  0  0
   35.3940   30.2270   48.4150 C   0  0  0  0  0  0  0  0  0  0  0  0
   35.0021   30.7694   41.1450 H   0  0  0  0  0  0  0  0  0  0  0  0
   39.8062   31.0734   38.7417 H   0  0  0  0  0  0  0  0  0  0  0  0
   38.2592   30.7515   37.9135 H   0  0  0  0  0  0  0  0  0  0  0  0
   39.9867   29.7580   43.7637 H   0  0  0  0  0  0  0  0  0  0  0  0
   41.6288   30.4892   45.4277 H   0  0  0  0  0  0  0  0  0  0  0  0
   41.7000   32.8861   46.0453 H   0  0  0  0  0  0  0  0  0  0  0  0
   40.1543   34.5467   45.0154 H   0  0  0  0  0  0  0  0  0  0  0  0
   38.5453   33.7065   43.3509 H   0  0  0  0  0  0  0  0  0  0  0  0
   36.2155   32.3952   43.7618 H   0  0  0  0  0  0  0  0  0  0  0  0
   34.0778   30.9039   44.5909 H   0  0  0  0  0  0  0  0  0  0  0  0
   34.1899   29.9517   43.3511 H   0  0  0  0  0  0  0  0  0  0  0  0
   36.8694   29.2209   44.7463 H   0  0  0  0  0  0  0  0  0  0  0  0
   38.0389   31.3443   45.8459 H   0  0  0  0  0  0  0  0  0  0  0  0
   38.4007   31.8412   48.2556 H   0  0  0  0  0  0  0  0  0  0  0  0
   34.6198   29.8937   49.1218 H   0  0  0  0  0  0  0  0  0  0  0  0
  1  2  2  0
  2 14  1  0
  3  2  1  0
  3  8  1  0
  4  3  2  0
  5  6  2  0
  5  4  1  0
  6  1  1  0
  7  5  1  0
  8 13  1  0
  8  9  2  0
  9 10  1  0
 10 11  2  0
 12 11  1  0
 13 12  2  0
 14 15  1  0
 14 16  1  0
 15 16  1  0
 16 19  1  0
 17 18  1  0
 18 24  2  0
 19 20  2  0
 19 18  1  0
 20 21  1  0
 21 22  2  0
 22 23  1  0
 24 22  1  0
  1 25  1  0
  7 26  1  0
  7 27  1  0
  9 28  1  0
 10 29  1  0
 11 30  1  0
 12 31  1  0
 13 32  1  0
 14 33  1  1
 15 34  1  0
 15 35  1  0
 16 36  1  6
 20 37  1  0
 21 38  1  0
 24 39  1  0
M  ISO  8  25  14  28  14  29  14  30  14  31  14  32  14  33  13  34  13
M  ISO  5  35  13  36  13  37  14  38  14  39  14
M  END
>  <minimizedAffinity>  (1) 
-5.52210855

>  <minimizedRMSD>  (1) 
2.86552024

$$$$
