
     RDKit          3D

 35 38  0  0  1  0  0  0  0  0999 V2000
   35.2680   30.4780   46.1150 C   0  0  1  0  0  0  0  0  0  0  0  0
   34.0020   30.1380   46.6970 C   0  0  0  0  0  0  0  0  0  0  0  0
   35.1630   29.2250   47.0500 C   0  0  2  0  0  0  0  0  0  0  0  0
   33.3600   28.4430   49.4400 Cl  0  0  0  0  0  0  0  0  0  0  0  0
   34.9870   29.0500   49.6220 C   0  0  0  0  0  0  0  0  0  0  0  0
   35.5980   29.3900   48.4380 C   0  0  0  0  0  0  0  0  0  0  0  0
   36.8820   29.8910   48.5570 C   0  0  0  0  0  0  0  0  0  0  0  0
   37.5140   30.0470   49.7910 C   0  0  0  0  0  0  0  0  0  0  0  0
   36.8280   29.6800   50.9690 C   0  0  0  0  0  0  0  0  0  0  0  0
   37.4940   29.8430   52.5820 Cl  0  0  0  0  0  0  0  0  0  0  0  0
   35.5300   29.1700   50.8540 C   0  0  0  0  0  0  0  0  0  0  0  0
   34.5250   29.6130   43.7850 C   0  0  0  0  0  0  0  0  0  0  0  0
   35.5350   30.1630   44.6720 C   0  0  0  0  0  0  0  0  0  0  0  0
   36.7500   30.4520   44.1610 C   0  0  0  0  0  0  0  0  0  0  0  0
   36.9570   30.2010   42.8230 N   0  0  0  0  0  0  0  0  0  0  0  0
   36.0090   29.6940   42.0240 C   0  0  0  0  0  0  0  0  0  0  0  0
   34.8000   29.4030   42.5080 N   0  0  0  0  0  0  0  0  0  0  0  0
   36.2430   29.4680   40.6320 N   0  0  0  0  0  0  0  0  0  0  0  0
   37.9580   31.0120   44.7220 C   0  0  0  0  0  0  0  0  0  0  0  0
   38.0600   32.3570   44.5170 C   0  0  0  0  0  0  0  0  0  0  0  0
   39.6830   32.8310   45.3440 S   0  0  0  0  0  0  0  0  0  0  0  0
   39.9040   30.9830   45.8300 C   0  0  0  0  0  0  0  0  0  0  0  0
   38.9780   30.5270   45.3940 N   0  0  0  0  0  0  0  0  0  0  0  0
   35.8468   31.4129   46.0842 H   0  0  0  0  0  0  0  0  0  0  0  0
   33.5738   30.7893   47.4732 H   0  0  0  0  0  0  0  0  0  0  0  0
   33.0028   29.9569   46.2742 H   0  0  0  0  0  0  0  0  0  0  0  0
   35.4435   28.1646   46.9666 H   0  0  0  0  0  0  0  0  0  0  0  0
   37.4252   30.1772   47.6443 H   0  0  0  0  0  0  0  0  0  0  0  0
   38.5355   30.4515   49.8454 H   0  0  0  0  0  0  0  0  0  0  0  0
   34.9628   28.8727   51.7484 H   0  0  0  0  0  0  0  0  0  0  0  0
   33.5264   29.3698   44.1769 H   0  0  0  0  0  0  0  0  0  0  0  0
   37.1642   29.6811   40.2234 H   0  0  0  0  0  0  0  0  0  0  0  0
   35.4904   29.0921   40.0376 H   0  0  0  0  0  0  0  0  0  0  0  0
   37.3542   33.0148   43.9886 H   0  0  0  0  0  0  0  0  0  0  0  0
   40.7214   30.5021   46.3873 H   0  0  0  0  0  0  0  0  0  0  0  0
  1  2  1  0
  1  3  1  0
  2  3  1  0
  3  6  1  0
  4  5  1  0
  5 11  2  0
  6  7  2  0
  6  5  1  0
  7  8  1  0
  8  9  2  0
  9 10  1  0
 11  9  1  0
 12 13  2  0
 13  1  1  0
 14 13  1  0
 14 19  1  0
 15 14  2  0
 16 17  2  0
 16 15  1  0
 17 12  1  0
 18 16  1  0
 19 23  1  0
 20 19  2  0
 20 21  1  0
 21 22  1  0
 23 22  2  0
  1 24  1  1
  2 25  1  0
  2 26  1  0
  3 27  1  6
  7 28  1  0
  8 29  1  0
 11 30  1  0
 12 31  1  0
 18 32  1  0
 18 33  1  0
 20 34  1  0
 22 35  1  0
M  ISO  8  24  13  25  13  26  13  27  13  28  14  29  14  30  14  31  14
M  ISO  2  34  14  35  14
M  END
>  <minimizedAffinity>  (1) 
-5.33300352

>  <minimizedRMSD>  (1) 
2.95747042

$$$$
