
     RDKit          3D

 33 35  0  0  0  0  0  0  0  0999 V2000
   36.2370   30.5810   47.2580 C   0  0  0  0  0  0  0  0  0  0  0  0
   36.5830   30.4530   45.9050 C   0  0  0  0  0  0  0  0  0  0  0  0
   35.8500   29.8320   44.9520 C   0  0  0  0  0  0  0  0  0  0  0  0
   34.6720   29.2630   45.2750 C   0  0  0  0  0  0  0  0  0  0  0  0
   34.3280   29.3780   46.5720 C   0  0  0  0  0  0  0  0  0  0  0  0
   35.0840   29.9940   47.4490 N   0  0  0  0  0  0  0  0  0  0  0  0
   37.8550   32.3110   47.4390 C   0  0  0  0  0  0  0  0  0  0  0  0
   37.1180   31.3140   48.1570 C   0  0  0  0  0  0  0  0  0  0  0  0
   37.3370   31.2470   49.5050 C   0  0  0  0  0  0  0  0  0  0  0  0
   38.2340   32.1350   50.0440 N   0  0  0  0  0  0  0  0  0  0  0  0
   38.9050   33.0520   49.3630 C   0  0  0  0  0  0  0  0  0  0  0  0
   38.6980   33.1240   48.0350 N   0  0  0  0  0  0  0  0  0  0  0  0
   39.7530   33.8880   50.1070 N   0  0  0  0  0  0  0  0  0  0  0  0
   36.6200   30.2470   50.3030 C   0  0  0  0  0  0  0  0  0  0  0  0
   36.8920   29.0390   49.8020 F   0  0  0  0  0  0  0  0  0  0  0  0
   36.9520   30.2540   51.6470 F   0  0  0  0  0  0  0  0  0  0  0  0
   35.2230   30.4520   50.2360 F   0  0  0  0  0  0  0  0  0  0  0  0
   33.0520   28.8030   47.0930 C   0  0  0  0  0  0  0  0  0  0  0  0
   32.9690   28.0680   48.2520 C   0  0  0  0  0  0  0  0  0  0  0  0
   31.7830   27.5450   48.7180 C   0  0  0  0  0  0  0  0  0  0  0  0
   30.6240   27.7490   48.0160 C   0  0  0  0  0  0  0  0  0  0  0  0
   30.7050   28.4810   46.8630 C   0  0  0  0  0  0  0  0  0  0  0  0
   31.8860   28.9680   46.4540 N   0  0  0  0  0  0  0  0  0  0  0  0
   37.5380   30.8983   45.5894 H   0  0  0  0  0  0  0  0  0  0  0  0
   36.2152   29.7917   43.9152 H   0  0  0  0  0  0  0  0  0  0  0  0
   34.0411   28.7454   44.5374 H   0  0  0  0  0  0  0  0  0  0  0  0
   37.7103   32.3989   46.3521 H   0  0  0  0  0  0  0  0  0  0  0  0
   40.3006   34.6200   49.6323 H   0  0  0  0  0  0  0  0  0  0  0  0
   39.8275   33.7693   51.1274 H   0  0  0  0  0  0  0  0  0  0  0  0
   33.8874   27.8903   48.8308 H   0  0  0  0  0  0  0  0  0  0  0  0
   31.7663   26.9645   49.6522 H   0  0  0  0  0  0  0  0  0  0  0  0
   29.6649   27.3398   48.3662 H   0  0  0  0  0  0  0  0  0  0  0  0
   29.7986   28.6708   46.2694 H   0  0  0  0  0  0  0  0  0  0  0  0
  1  6  1  0
  1  8  1  0
  2  1  2  0
  3  4  2  0
  3  2  1  0
  4  5  1  0
  5 18  1  0
  5  6  2  0
  7 12  2  0
  7  8  1  0
  8  9  2  0
  9 10  1  0
  9 14  1  0
 11 10  2  0
 11 13  1  0
 12 11  1  0
 14 16  1  0
 15 14  1  0
 17 14  1  0
 18 19  2  0
 19 20  1  0
 21 20  2  0
 22 21  1  0
 23 22  2  0
 23 18  1  0
  2 24  1  0
  3 25  1  0
  4 26  1  0
  7 27  1  0
 13 28  1  0
 13 29  1  0
 19 30  1  0
 20 31  1  0
 21 32  1  0
 22 33  1  0
M  ISO  8  24  14  25  14  26  14  27  14  30  14  31  14  32  14  33  14
M  END
>  <minimizedAffinity>  (1) 
-5.90960646

>  <minimizedRMSD>  (1) 
6.7382803

$$$$
