
     RDKit          3D

 30 33  0  0  0  0  0  0  0  0999 V2000
   35.7730   29.9360   48.6330 C   0  0  0  0  0  0  0  0  0  0  0  0
   35.6740   28.8330   49.3810 C   0  0  0  0  0  0  0  0  0  0  0  0
   34.5460   28.0650   49.3460 C   0  0  0  0  0  0  0  0  0  0  0  0
   33.5490   28.4930   48.5110 C   0  0  0  0  0  0  0  0  0  0  0  0
   34.2600   30.0040   47.7880 S   0  0  0  0  0  0  0  0  0  0  0  0
   31.9710   27.5830   46.8990 C   0  0  0  0  0  0  0  0  0  0  0  0
   32.2340   27.9840   48.1900 C   0  0  0  0  0  0  0  0  0  0  0  0
   31.3640   27.9530   49.2410 C   0  0  0  0  0  0  0  0  0  0  0  0
   30.0730   27.4710   48.9970 C   0  0  0  0  0  0  0  0  0  0  0  0
   28.9910   27.3050   49.7800 N   0  0  0  0  0  0  0  0  0  0  0  0
   28.0280   26.7930   48.9760 C   0  0  0  0  0  0  0  0  0  0  0  0
   28.4860   26.6350   47.7100 N   0  0  0  0  0  0  0  0  0  0  0  0
   29.7560   27.0520   47.7080 C   0  0  0  0  0  0  0  0  0  0  0  0
   30.6790   27.1020   46.6650 C   0  0  0  0  0  0  0  0  0  0  0  0
   37.9340   32.7710   49.3600 C   0  0  0  0  0  0  0  0  0  0  0  0
   38.8920   32.7150   48.3220 C   0  0  0  0  0  0  0  0  0  0  0  0
   38.7750   31.6830   47.3710 C   0  0  0  0  0  0  0  0  0  0  0  0
   37.7530   30.8020   47.5020 N   0  0  0  0  0  0  0  0  0  0  0  0
   36.8660   30.8970   48.5090 C   0  0  0  0  0  0  0  0  0  0  0  0
   36.9360   31.8600   49.4360 N   0  0  0  0  0  0  0  0  0  0  0  0
   36.5109   28.5407   50.0322 H   0  0  0  0  0  0  0  0  0  0  0  0
   34.4439   27.1541   49.9541 H   0  0  0  0  0  0  0  0  0  0  0  0
   32.7285   27.6376   46.1032 H   0  0  0  0  0  0  0  0  0  0  0  0
   31.6661   28.2940   50.2422 H   0  0  0  0  0  0  0  0  0  0  0  0
   28.9114   27.5224   50.7836 H   0  0  0  0  0  0  0  0  0  0  0  0
   27.0100   26.5393   49.3066 H   0  0  0  0  0  0  0  0  0  0  0  0
   30.3915   26.7634   45.6587 H   0  0  0  0  0  0  0  0  0  0  0  0
   38.0006   33.5665   50.1168 H   0  0  0  0  0  0  0  0  0  0  0  0
   39.7037   33.4547   48.2591 H   0  0  0  0  0  0  0  0  0  0  0  0
   39.4941   31.5941   46.5434 H   0  0  0  0  0  0  0  0  0  0  0  0
  1  2  2  0
  3  2  1  0
  4  3  2  0
  5  4  1  0
  5  1  1  0
  6  7  2  0
  7  4  1  0
  7  8  1  0
  9  8  2  0
  9 10  1  0
 11 10  1  0
 12 11  2  0
 13 12  1  0
 13  9  1  0
 14  6  1  0
 14 13  2  0
 15 20  2  0
 16 15  1  0
 17 18  1  0
 17 16  2  0
 18 19  2  0
 19  1  1  0
 19 20  1  0
  2 21  1  0
  3 22  1  0
  6 23  1  0
  8 24  1  0
 10 25  1  0
 11 26  1  0
 14 27  1  0
 15 28  1  0
 16 29  1  0
 17 30  1  0
M  ISO  8  21  14  22  14  23  14  24  14  25   9  26  14  27  14  28  14
M  ISO  2  29  14  30  14
M  END
>  <minimizedAffinity>  (1) 
-5.74939108

>  <minimizedRMSD>  (1) 
0.762076139

$$$$
