
     RDKit          3D

 29 31  0  0  0  0  0  0  0  0999 V2000
   36.1030   30.1330   48.8270 C   0  0  0  0  0  0  0  0  0  0  0  0
   36.0100   29.2160   49.8180 C   0  0  0  0  0  0  0  0  0  0  0  0
   34.9680   28.3170   49.7880 C   0  0  0  0  0  0  0  0  0  0  0  0
   34.0910   28.4320   48.7310 C   0  0  0  0  0  0  0  0  0  0  0  0
   34.7660   29.8350   47.7740 S   0  0  0  0  0  0  0  0  0  0  0  0
   38.0370   33.1700   49.4120 C   0  0  0  0  0  0  0  0  0  0  0  0
   38.9940   33.1440   48.3620 C   0  0  0  0  0  0  0  0  0  0  0  0
   38.9540   32.0680   47.4570 C   0  0  0  0  0  0  0  0  0  0  0  0
   37.9990   31.1070   47.6360 N   0  0  0  0  0  0  0  0  0  0  0  0
   37.1170   31.1780   48.6480 C   0  0  0  0  0  0  0  0  0  0  0  0
   37.1280   32.1800   49.5160 N   0  0  0  0  0  0  0  0  0  0  0  0
   32.9570   27.6380   48.4760 N   0  0  0  0  0  0  0  0  0  0  0  0
   33.1990   26.4340   47.6710 C   0  0  0  0  0  0  0  0  0  0  0  0
   31.8780   25.7310   47.5840 C   0  0  0  0  0  0  0  0  0  0  0  0
   30.8190   26.6680   48.0550 C   0  0  0  0  0  0  0  0  0  0  0  0
   31.5500   27.7100   48.8230 C   0  0  0  0  0  0  0  0  0  0  0  0
   36.7514   29.1896   50.6302 H   0  0  0  0  0  0  0  0  0  0  0  0
   34.8421   27.5488   50.5652 H   0  0  0  0  0  0  0  0  0  0  0  0
   38.0379   33.9961   50.1383 H   0  0  0  0  0  0  0  0  0  0  0  0
   39.7442   33.9420   48.2599 H   0  0  0  0  0  0  0  0  0  0  0  0
   39.6726   32.0018   46.6268 H   0  0  0  0  0  0  0  0  0  0  0  0
   33.5538   26.7091   46.6668 H   0  0  0  0  0  0  0  0  0  0  0  0
   33.9708   25.7929   48.1219 H   0  0  0  0  0  0  0  0  0  0  0  0
   31.6798   25.4386   46.5422 H   0  0  0  0  0  0  0  0  0  0  0  0
   31.8882   24.8251   48.2079 H   0  0  0  0  0  0  0  0  0  0  0  0
   30.2896   27.1157   47.2010 H   0  0  0  0  0  0  0  0  0  0  0  0
   30.0562   26.1610   48.6642 H   0  0  0  0  0  0  0  0  0  0  0  0
   31.4245   27.5322   49.9013 H   0  0  0  0  0  0  0  0  0  0  0  0
   31.1526   28.7060   48.5779 H   0  0  0  0  0  0  0  0  0  0  0  0
  1  2  2  0
  3  2  1  0
  4  3  2  0
  5  4  1  0
  5  1  1  0
  6 11  2  0
  7  6  1  0
  8  9  1  0
  8  7  2  0
  9 10  2  0
 10  1  1  0
 10 11  1  0
 12  4  1  0
 12 16  1  0
 13 12  1  0
 14 13  1  0
 14 15  1  0
 15 16  1  0
  2 17  1  0
  3 18  1  0
  6 19  1  0
  7 20  1  0
  8 21  1  0
 13 22  1  0
 13 23  1  0
 14 24  1  0
 14 25  1  0
 15 26  1  0
 15 27  1  0
 16 28  1  0
 16 29  1  0
M  ISO  8  17  14  18  14  19  14  20  14  21  14  22  13  23  13  24  13
M  ISO  5  25  13  26  13  27  13  28  13  29  13
M  END
>  <minimizedAffinity>  (1) 
-5.11538982

>  <minimizedRMSD>  (1) 
0.509469867

$$$$
