
     RDKit          3D

 30 32  0  0  0  0  0  0  0  0999 V2000
   36.0470   30.1670   48.4420 C   0  0  0  0  0  0  0  0  0  0  0  0
   35.7530   29.1940   49.3110 C   0  0  0  0  0  0  0  0  0  0  0  0
   34.7910   28.2660   49.0300 C   0  0  0  0  0  0  0  0  0  0  0  0
   34.1720   28.4100   47.8190 C   0  0  0  0  0  0  0  0  0  0  0  0
   34.9780   29.8720   47.1080 S   0  0  0  0  0  0  0  0  0  0  0  0
   37.8290   33.0700   49.7320 C   0  0  0  0  0  0  0  0  0  0  0  0
   38.8320   33.2790   48.7610 C   0  0  0  0  0  0  0  0  0  0  0  0
   38.8810   32.4060   47.6580 C   0  0  0  0  0  0  0  0  0  0  0  0
   37.9610   31.4030   47.5830 N   0  0  0  0  0  0  0  0  0  0  0  0
   37.0250   31.2470   48.5360 C   0  0  0  0  0  0  0  0  0  0  0  0
   36.9520   32.0520   49.5870 N   0  0  0  0  0  0  0  0  0  0  0  0
   33.1080   27.6810   47.0940 C   0  0  0  0  0  0  0  0  0  0  0  0
   31.7450   28.1750   47.4910 C   0  0  0  0  0  0  0  0  0  0  0  0
   31.2010   27.1890   48.5060 C   0  0  0  0  0  0  0  0  0  0  0  0
   31.7730   25.8700   47.9760 C   0  0  0  0  0  0  0  0  0  0  0  0
   33.1790   26.2280   47.5350 C   0  0  0  0  0  0  0  0  0  0  0  0
   36.2944   29.1402   50.2670 H   0  0  0  0  0  0  0  0  0  0  0  0
   34.5318   27.4580   49.7299 H   0  0  0  0  0  0  0  0  0  0  0  0
   37.7613   33.7349   50.6057 H   0  0  0  0  0  0  0  0  0  0  0  0
   39.5553   34.1014   48.8635 H   0  0  0  0  0  0  0  0  0  0  0  0
   39.6436   32.5302   46.8751 H   0  0  0  0  0  0  0  0  0  0  0  0
   33.2540   27.8203   46.0127 H   0  0  0  0  0  0  0  0  0  0  0  0
   31.8208   29.1768   47.9390 H   0  0  0  0  0  0  0  0  0  0  0  0
   31.0814   28.2485   46.6168 H   0  0  0  0  0  0  0  0  0  0  0  0
   31.5684   27.4095   49.5191 H   0  0  0  0  0  0  0  0  0  0  0  0
   30.1053   27.1993   48.6030 H   0  0  0  0  0  0  0  0  0  0  0  0
   31.7945   25.1072   48.7683 H   0  0  0  0  0  0  0  0  0  0  0  0
   31.1696   25.4454   47.1601 H   0  0  0  0  0  0  0  0  0  0  0  0
   33.4945   25.5872   46.6984 H   0  0  0  0  0  0  0  0  0  0  0  0
   33.9103   26.0819   48.3437 H   0  0  0  0  0  0  0  0  0  0  0  0
  1 10  1  0
  1  2  2  0
  3  2  1  0
  4  3  2  0
  5  4  1  0
  5  1  1  0
  7  6  2  0
  8  7  1  0
  9  8  2  0
  9 10  1  0
 10 11  2  0
 11  6  1  0
 12 13  1  0
 12 16  1  0
 12  4  1  0
 13 14  1  0
 15 14  1  0
 16 15  1  0
  2 17  1  0
  3 18  1  0
  6 19  1  0
  7 20  1  0
  8 21  1  0
 12 22  1  0
 13 23  1  0
 13 24  1  0
 14 25  1  0
 14 26  1  0
 15 27  1  0
 15 28  1  0
 16 29  1  0
 16 30  1  0
M  ISO  8  17  14  18  14  19  14  20  14  21  14  22  13  23  13  24  13
M  ISO  6  25  13  26  13  27  13  28  13  29  13  30  13
M  END
>  <minimizedAffinity>  (1) 
-5.10102654

>  <minimizedRMSD>  (1) 
0.925360322

$$$$
