
     RDKit          3D

 23 24  0  0  0  0  0  0  0  0999 V2000
   35.9880   29.9420   48.7410 C   0  0  0  0  0  0  0  0  0  0  0  0
   35.7310   29.0490   49.7040 C   0  0  0  0  0  0  0  0  0  0  0  0
   34.7900   28.0700   49.5070 C   0  0  0  0  0  0  0  0  0  0  0  0
   34.1610   28.0850   48.2910 C   0  0  0  0  0  0  0  0  0  0  0  0
   34.9270   29.5010   47.4460 S   0  0  0  0  0  0  0  0  0  0  0  0
   37.6710   33.0320   49.6890 C   0  0  0  0  0  0  0  0  0  0  0  0
   38.6960   33.1410   48.7420 C   0  0  0  0  0  0  0  0  0  0  0  0
   38.8030   32.1330   47.7660 C   0  0  0  0  0  0  0  0  0  0  0  0
   37.9090   31.1010   47.7820 N   0  0  0  0  0  0  0  0  0  0  0  0
   36.9380   31.0550   48.7300 C   0  0  0  0  0  0  0  0  0  0  0  0
   36.8100   31.9900   49.6640 N   0  0  0  0  0  0  0  0  0  0  0  0
   33.1780   27.2440   47.7890 O   0  0  0  0  0  0  0  0  0  0  0  0
   31.1640   28.7210   47.0620 O   0  0  0  0  0  0  0  0  0  0  0  0
   31.5440   27.6560   48.0920 P   0  0  0  0  0  0  0  0  0  0  0  0
   31.3550   28.3880   49.6160 O   0  0  0  0  0  0  0  0  0  0  0  0
   30.5920   26.2820   47.9300 O   0  0  0  0  0  0  0  0  0  0  0  0
   36.2766   29.1000   50.6578 H   0  0  0  0  0  0  0  0  0  0  0  0
   34.5558   27.3205   50.2773 H   0  0  0  0  0  0  0  0  0  0  0  0
   37.5646   33.8050   50.4644 H   0  0  0  0  0  0  0  0  0  0  0  0
   39.3966   33.9889   48.7602 H   0  0  0  0  0  0  0  0  0  0  0  0
   39.5939   32.1757   47.0027 H   0  0  0  0  0  0  0  0  0  0  0  0
   31.5274   27.7204   50.3264 H   0  0  0  0  0  0  0  0  0  0  0  0
   30.3537   25.9380   48.8272 H   0  0  0  0  0  0  0  0  0  0  0  0
  1  2  2  0
  3  2  1  0
  4  3  2  0
  5  4  1  0
  5  1  1  0
  7  6  2  0
  8  9  2  0
  8  7  1  0
  9 10  1  0
 10  1  1  0
 10 11  2  0
 11  6  1  0
 12 14  1  0
 12  4  1  0
 13 14  2  0
 14 15  1  0
 16 14  1  0
  2 17  1  0
  3 18  1  0
  6 19  1  0
  7 20  1  0
  8 21  1  0
 15 22  1  0
 16 23  1  0
M  ISO  7  17  14  18  14  19  14  20  14  21  14  22   3  23   3
M  END
>  <minimizedAffinity>  (1) 
-4.8002305

>  <minimizedRMSD>  (1) 
0.783340156

$$$$
