
     RDKit          3D

 21 22  0  0  0  0  0  0  0  0999 V2000
   36.1310   30.5040   49.0400 C   0  0  0  0  0  0  0  0  0  0  0  0
   36.0040   29.6820   50.0860 C   0  0  0  0  0  0  0  0  0  0  0  0
   34.9030   28.8710   50.2020 C   0  0  0  0  0  0  0  0  0  0  0  0
   33.9820   28.9700   49.1960 C   0  0  0  0  0  0  0  0  0  0  0  0
   34.7100   30.2290   48.0960 S   0  0  0  0  0  0  0  0  0  0  0  0
   38.3740   33.3660   49.2820 C   0  0  0  0  0  0  0  0  0  0  0  0
   39.1960   33.2190   48.1570 C   0  0  0  0  0  0  0  0  0  0  0  0
   38.9710   32.1190   47.3060 C   0  0  0  0  0  0  0  0  0  0  0  0
   37.9680   31.2680   47.6300 N   0  0  0  0  0  0  0  0  0  0  0  0
   37.2060   31.4460   48.7150 C   0  0  0  0  0  0  0  0  0  0  0  0
   37.3880   32.4750   49.5460 N   0  0  0  0  0  0  0  0  0  0  0  0
   32.6390   27.1250   48.1970 C   0  0  0  0  0  0  0  0  0  0  0  0
   33.7260   26.7960   47.6480 O   0  0  0  0  0  0  0  0  0  0  0  0
   32.7520   28.2760   49.0240 N   0  0  0  0  0  0  0  0  0  0  0  0
   36.7866   29.6553   50.8586 H   0  0  0  0  0  0  0  0  0  0  0  0
   34.7697   28.1844   51.0510 H   0  0  0  0  0  0  0  0  0  0  0  0
   38.5314   34.2171   49.9608 H   0  0  0  0  0  0  0  0  0  0  0  0
   39.9959   33.9433   47.9438 H   0  0  0  0  0  0  0  0  0  0  0  0
   39.5881   31.9568   46.4099 H   0  0  0  0  0  0  0  0  0  0  0  0
   31.6972   26.5759   48.0505 H   0  0  0  0  0  0  0  0  0  0  0  0
   31.9145   28.6192   49.5156 H   0  0  0  0  0  0  0  0  0  0  0  0
  1  2  2  0
  2  3  1  0
  4  3  2  0
  5  1  1  0
  5  4  1  0
  6 11  2  0
  7  6  1  0
  8  9  1  0
  8  7  2  0
  9 10  2  0
 10  1  1  0
 10 11  1  0
 12 14  1  0
 13 12  2  0
 14  4  1  0
  2 15  1  0
  3 16  1  0
  6 17  1  0
  7 18  1  0
  8 19  1  0
 12 20  1  0
 14 21  1  0
M  ISO  6  15  14  16  14  17  14  18  14  19  14  20   6
M  END
>  <minimizedAffinity>  (1) 
-4.75446081

>  <minimizedRMSD>  (1) 
0.743432641

$$$$
