
     RDKit          3D

 20 21  0  0  0  0  0  0  0  0999 V2000
   38.0760   33.1830   49.4660 C   0  0  0  0  0  0  0  0  0  0  0  0
   38.9850   33.1940   48.3960 C   0  0  0  0  0  0  0  0  0  0  0  0
   38.8980   32.1710   47.4320 C   0  0  0  0  0  0  0  0  0  0  0  0
   37.9280   31.2180   47.5930 N   0  0  0  0  0  0  0  0  0  0  0  0
   37.0870   31.2580   48.6350 C   0  0  0  0  0  0  0  0  0  0  0  0
   37.1440   32.2080   49.5610 N   0  0  0  0  0  0  0  0  0  0  0  0
   36.0580   30.2210   48.7840 C   0  0  0  0  0  0  0  0  0  0  0  0
   35.9920   29.1810   49.6200 C   0  0  0  0  0  0  0  0  0  0  0  0
   34.9260   28.3290   49.5840 C   0  0  0  0  0  0  0  0  0  0  0  0
   33.9620   28.6150   48.6540 C   0  0  0  0  0  0  0  0  0  0  0  0
   34.6060   30.1100   47.8420 S   0  0  0  0  0  0  0  0  0  0  0  0
   32.6910   27.8980   48.3570 C   0  0  0  0  0  0  0  0  0  0  0  0
   38.1223   33.9719   50.2312 H   0  0  0  0  0  0  0  0  0  0  0  0
   39.7470   33.9829   48.3126 H   0  0  0  0  0  0  0  0  0  0  0  0
   39.5881   32.1385   46.5760 H   0  0  0  0  0  0  0  0  0  0  0  0
   36.8031   29.0099   50.3431 H   0  0  0  0  0  0  0  0  0  0  0  0
   34.8461   27.4654   50.2606 H   0  0  0  0  0  0  0  0  0  0  0  0
   32.1979   27.6198   49.3001 H   0  0  0  0  0  0  0  0  0  0  0  0
   32.0268   28.5545   47.7757 H   0  0  0  0  0  0  0  0  0  0  0  0
   32.9094   26.9900   47.7757 H   0  0  0  0  0  0  0  0  0  0  0  0
  1  6  2  0
  2  1  1  0
  3  4  1  0
  3  2  2  0
  4  5  2  0
  5  7  1  0
  5  6  1  0
  7  8  2  0
  9  8  1  0
 10  9  2  0
 11 10  1  0
 11  7  1  0
 12 10  1  0
  1 13  1  0
  2 14  1  0
  3 15  1  0
  8 16  1  0
  9 17  1  0
 12 18  1  0
 12 19  1  0
 12 20  1  0
M  ISO  8  13  14  14  14  15  14  16  14  17  14  18   8  19   8  20   8
M  END
>  <minimizedAffinity>  (1) 
-4.62094116

>  <minimizedRMSD>  (1) 
0.13198182

$$$$
