
     RDKit          3D

 19 20  0  0  0  0  0  0  0  0999 V2000
   36.0440   30.2140   48.6960 C   0  0  0  0  0  0  0  0  0  0  0  0
   35.9550   29.1600   49.5140 C   0  0  0  0  0  0  0  0  0  0  0  0
   34.8840   28.3130   49.4500 C   0  0  0  0  0  0  0  0  0  0  0  0
   33.9360   28.6140   48.5100 C   0  0  0  0  0  0  0  0  0  0  0  0
   34.6070   30.1300   47.7270 S   0  0  0  0  0  0  0  0  0  0  0  0
   38.0500   33.1470   49.4730 C   0  0  0  0  0  0  0  0  0  0  0  0
   38.9840   33.1880   48.4240 C   0  0  0  0  0  0  0  0  0  0  0  0
   38.9090   32.1900   47.4460 C   0  0  0  0  0  0  0  0  0  0  0  0
   37.9380   31.2330   47.5630 N   0  0  0  0  0  0  0  0  0  0  0  0
   37.0770   31.2440   48.5830 C   0  0  0  0  0  0  0  0  0  0  0  0
   37.1000   32.1760   49.5510 N   0  0  0  0  0  0  0  0  0  0  0  0
   32.7240   27.9480   48.1920 N   0  0  0  0  0  0  0  0  0  0  0  0
   36.7532   28.9723   50.2472 H   0  0  0  0  0  0  0  0  0  0  0  0
   34.7898   27.4414   50.1144 H   0  0  0  0  0  0  0  0  0  0  0  0
   38.0879   33.9216   50.2531 H   0  0  0  0  0  0  0  0  0  0  0  0
   39.7481   33.9777   48.3733 H   0  0  0  0  0  0  0  0  0  0  0  0
   39.6146   32.1751   46.6023 H   0  0  0  0  0  0  0  0  0  0  0  0
   32.1164   28.3132   47.4447 H   0  0  0  0  0  0  0  0  0  0  0  0
   32.4518   27.0994   48.7085 H   0  0  0  0  0  0  0  0  0  0  0  0
  1  2  2  0
  3  2  1  0
  4  3  2  0
  5  4  1  0
  5  1  1  0
  6 11  2  0
  7  6  1  0
  8  9  1  0
  8  7  2  0
  9 10  2  0
 10  1  1  0
 10 11  1  0
 12  4  1  0
  2 13  1  0
  3 14  1  0
  6 15  1  0
  7 16  1  0
  8 17  1  0
 12 18  1  0
 12 19  1  0
M  ISO  5  13  14  14  14  15  14  16  14  17  14
M  END
>  <minimizedAffinity>  (1) 
-4.54675674

>  <minimizedRMSD>  (1) 
0.0339592285

$$$$
