
     RDKit          3D

 25 27  0  0  0  0  0  0  0  0999 V2000
   36.2970   30.3000   48.8340 C   0  0  0  0  0  0  0  0  0  0  0  0
   36.1420   29.4620   49.8660 C   0  0  0  0  0  0  0  0  0  0  0  0
   35.1630   28.4930   49.8190 C   0  0  0  0  0  0  0  0  0  0  0  0
   34.4000   28.4630   48.6820 C   0  0  0  0  0  0  0  0  0  0  0  0
   35.1030   29.8270   47.7020 S   0  0  0  0  0  0  0  0  0  0  0  0
   38.1650   33.3600   49.4610 C   0  0  0  0  0  0  0  0  0  0  0  0
   39.0560   33.4260   48.3830 C   0  0  0  0  0  0  0  0  0  0  0  0
   39.0090   32.3960   47.4230 C   0  0  0  0  0  0  0  0  0  0  0  0
   38.0990   31.3910   47.5930 N   0  0  0  0  0  0  0  0  0  0  0  0
   37.2620   31.3870   48.6640 C   0  0  0  0  0  0  0  0  0  0  0  0
   37.2740   32.3430   49.5950 N   0  0  0  0  0  0  0  0  0  0  0  0
   33.3030   27.5730   48.3330 C   0  0  0  0  0  0  0  0  0  0  0  0
   33.5280   26.4960   47.5400 C   0  0  0  0  0  0  0  0  0  0  0  0
   32.4460   25.6940   47.2470 C   0  0  0  0  0  0  0  0  0  0  0  0
   31.2020   25.9530   47.7220 N   0  0  0  0  0  0  0  0  0  0  0  0
   31.0800   27.0570   48.5100 C   0  0  0  0  0  0  0  0  0  0  0  0
   32.0890   27.8820   48.8360 N   0  0  0  0  0  0  0  0  0  0  0  0
   36.7935   29.5463   50.7483 H   0  0  0  0  0  0  0  0  0  0  0  0
   35.0038   27.7854   50.6460 H   0  0  0  0  0  0  0  0  0  0  0  0
   38.1870   34.1545   50.2215 H   0  0  0  0  0  0  0  0  0  0  0  0
   39.7709   34.2567   48.2885 H   0  0  0  0  0  0  0  0  0  0  0  0
   39.6882   32.4007   46.5578 H   0  0  0  0  0  0  0  0  0  0  0  0
   34.5309   26.2722   47.1475 H   0  0  0  0  0  0  0  0  0  0  0  0
   32.5965   24.8131   46.6056 H   0  0  0  0  0  0  0  0  0  0  0  0
   30.0818   27.2904   48.9089 H   0  0  0  0  0  0  0  0  0  0  0  0
  1  2  2  0
  3  2  1  0
  4  3  2  0
  5  4  1  0
  5  1  1  0
  6 11  2  0
  7  6  1  0
  8  9  1  0
  8  7  2  0
  9 10  2  0
 10  1  1  0
 10 11  1  0
 12  4  1  0
 12 17  1  0
 13 12  2  0
 14 13  1  0
 14 15  2  0
 15 16  1  0
 16 17  2  0
  2 18  1  0
  3 19  1  0
  6 20  1  0
  7 21  1  0
  8 22  1  0
 13 23  1  0
 14 24  1  0
 16 25  1  0
M  ISO  8  18  14  19  14  20  14  21  14  22  14  23  14  24  14  25  14
M  END
>  <minimizedAffinity>  (1) 
-5.2911253

>  <minimizedRMSD>  (1) 
0.671821356

$$$$
