
     RDKit          3D

 35 38  0  0  0  0  0  0  0  0999 V2000
   32.8800   27.7030   48.4610 C   0  0  0  0  0  0  0  0  0  0  0  0
   32.9290   26.7260   47.5400 C   0  0  0  0  0  0  0  0  0  0  0  0
   31.7530   26.0380   47.3190 C   0  0  0  0  0  0  0  0  0  0  0  0
   30.6040   26.3040   47.9670 N   0  0  0  0  0  0  0  0  0  0  0  0
   30.6590   27.3150   48.8820 C   0  0  0  0  0  0  0  0  0  0  0  0
   31.7660   28.0400   49.1630 N   0  0  0  0  0  0  0  0  0  0  0  0
   29.4440   27.6490   49.6170 C   0  0  0  0  0  0  0  0  0  0  0  0
   29.0420   26.8950   50.7140 C   0  0  0  0  0  0  0  0  0  0  0  0
   27.9060   27.1610   51.4480 C   0  0  0  0  0  0  0  0  0  0  0  0
   27.1140   28.2300   51.0870 C   0  0  0  0  0  0  0  0  0  0  0  0
   27.4890   28.9950   50.0020 C   0  0  0  0  0  0  0  0  0  0  0  0
   28.6300   28.7290   49.2630 C   0  0  0  0  0  0  0  0  0  0  0  0
   36.1010   30.1720   48.8670 C   0  0  0  0  0  0  0  0  0  0  0  0
   36.0040   29.2540   49.8260 C   0  0  0  0  0  0  0  0  0  0  0  0
   34.9560   28.3590   49.7970 C   0  0  0  0  0  0  0  0  0  0  0  0
   34.0780   28.4870   48.7650 C   0  0  0  0  0  0  0  0  0  0  0  0
   34.7610   29.9000   47.8290 S   0  0  0  0  0  0  0  0  0  0  0  0
   38.0690   33.1940   49.4200 C   0  0  0  0  0  0  0  0  0  0  0  0
   39.0090   33.1690   48.3910 C   0  0  0  0  0  0  0  0  0  0  0  0
   38.9630   32.0960   47.4940 C   0  0  0  0  0  0  0  0  0  0  0  0
   38.0070   31.1320   47.6680 N   0  0  0  0  0  0  0  0  0  0  0  0
   37.1240   31.2180   48.6900 C   0  0  0  0  0  0  0  0  0  0  0  0
   37.1350   32.2160   49.5590 N   0  0  0  0  0  0  0  0  0  0  0  0
   33.8534   26.4880   46.9934 H   0  0  0  0  0  0  0  0  0  0  0  0
   31.7551   25.2292   46.5735 H   0  0  0  0  0  0  0  0  0  0  0  0
   29.6650   26.0390   51.0126 H   0  0  0  0  0  0  0  0  0  0  0  0
   27.6358   26.5305   52.3079 H   0  0  0  0  0  0  0  0  0  0  0  0
   26.2012   28.4683   51.6528 H   0  0  0  0  0  0  0  0  0  0  0  0
   26.8581   29.8484   49.7128 H   0  0  0  0  0  0  0  0  0  0  0  0
   28.8937   29.3631   48.4037 H   0  0  0  0  0  0  0  0  0  0  0  0
   36.7512   29.2101   50.6320 H   0  0  0  0  0  0  0  0  0  0  0  0
   34.8357   27.5827   50.5670 H   0  0  0  0  0  0  0  0  0  0  0  0
   38.0833   34.0269   50.1384 H   0  0  0  0  0  0  0  0  0  0  0  0
   39.7609   33.9652   48.2877 H   0  0  0  0  0  0  0  0  0  0  0  0
   39.6820   32.0285   46.6642 H   0  0  0  0  0  0  0  0  0  0  0  0
  1 16  1  0
  1  6  1  0
  2  1  2  0
  3  2  1  0
  3  4  2  0
  4  5  1  0
  5  6  2  0
  5  7  1  0
  7  8  2  0
  8  9  1  0
 10  9  2  0
 11 10  1  0
 12  7  1  0
 12 11  2  0
 13 14  2  0
 15 14  1  0
 16 15  2  0
 17 16  1  0
 17 13  1  0
 18 23  2  0
 19 18  1  0
 20 21  1  0
 20 19  2  0
 21 22  2  0
 22 13  1  0
 22 23  1  0
  2 24  1  0
  3 25  1  0
  8 26  1  0
  9 27  1  0
 10 28  1  0
 11 29  1  0
 12 30  1  0
 14 31  1  0
 15 32  1  0
 18 33  1  0
 19 34  1  0
 20 35  1  0
M  ISO  8  24  14  25  14  26  14  27  14  28  14  29  14  30  14  31  14
M  ISO  4  32  14  33  14  34  14  35  14
M  END
>  <minimizedAffinity>  (1) 
-7.41144133

>  <minimizedRMSD>  (1) 
0.588249922

$$$$
