
     RDKit          3D

 35 38  0  0  0  0  0  0  0  0999 V2000
   32.9720   27.7230   48.3320 C   0  0  0  0  0  0  0  0  0  0  0  0
   33.0520   26.7750   47.3840 C   0  0  0  0  0  0  0  0  0  0  0  0
   31.9090   26.0470   47.1250 C   0  0  0  0  0  0  0  0  0  0  0  0
   30.7420   26.2750   47.7980 N   0  0  0  0  0  0  0  0  0  0  0  0
   30.7640   27.2540   48.7370 C   0  0  0  0  0  0  0  0  0  0  0  0
   31.8410   27.9970   49.0360 N   0  0  0  0  0  0  0  0  0  0  0  0
   28.9430   29.1760   47.4440 Cl  0  0  0  0  0  0  0  0  0  0  0  0
   28.5690   28.3810   48.9700 C   0  0  0  0  0  0  0  0  0  0  0  0
   29.5210   27.5010   49.4590 C   0  0  0  0  0  0  0  0  0  0  0  0
   29.2910   26.8340   50.6660 C   0  0  0  0  0  0  0  0  0  0  0  0
   28.0990   27.1190   51.2880 C   0  0  0  0  0  0  0  0  0  0  0  0
   27.1360   27.9860   50.8270 C   0  0  0  0  0  0  0  0  0  0  0  0
   25.6420   28.3150   51.6440 Cl  0  0  0  0  0  0  0  0  0  0  0  0
   27.3800   28.6420   49.6240 C   0  0  0  0  0  0  0  0  0  0  0  0
   36.1210   30.2620   48.8350 C   0  0  0  0  0  0  0  0  0  0  0  0
   35.9990   29.3580   49.8040 C   0  0  0  0  0  0  0  0  0  0  0  0
   34.9730   28.4430   49.7440 C   0  0  0  0  0  0  0  0  0  0  0  0
   34.1420   28.5390   48.6690 C   0  0  0  0  0  0  0  0  0  0  0  0
   34.8340   29.9430   47.7460 S   0  0  0  0  0  0  0  0  0  0  0  0
   38.1050   33.2520   49.4700 C   0  0  0  0  0  0  0  0  0  0  0  0
   39.0200   33.2740   48.4140 C   0  0  0  0  0  0  0  0  0  0  0  0
   38.9500   32.2400   47.4710 C   0  0  0  0  0  0  0  0  0  0  0  0
   37.9980   31.2760   47.6330 N   0  0  0  0  0  0  0  0  0  0  0  0
   37.1310   31.3180   48.6920 C   0  0  0  0  0  0  0  0  0  0  0  0
   37.1630   32.2760   49.6050 N   0  0  0  0  0  0  0  0  0  0  0  0
   33.9881   26.5872   46.8378 H   0  0  0  0  0  0  0  0  0  0  0  0
   31.9380   25.2614   46.3555 H   0  0  0  0  0  0  0  0  0  0  0  0
   30.0179   26.1261   51.0909 H   0  0  0  0  0  0  0  0  0  0  0  0
   27.8969   26.6074   52.2406 H   0  0  0  0  0  0  0  0  0  0  0  0
   26.6474   29.3480   49.2058 H   0  0  0  0  0  0  0  0  0  0  0  0
   36.7101   29.3424   50.6431 H   0  0  0  0  0  0  0  0  0  0  0  0
   34.8318   27.6769   50.5207 H   0  0  0  0  0  0  0  0  0  0  0  0
   38.1465   34.0538   50.2219 H   0  0  0  0  0  0  0  0  0  0  0  0
   39.7689   34.0749   48.3262 H   0  0  0  0  0  0  0  0  0  0  0  0
   39.6462   32.2062   46.6200 H   0  0  0  0  0  0  0  0  0  0  0  0
  1 18  1  0
  1  6  1  0
  2  1  2  0
  3  2  1  0
  3  4  2  0
  4  5  1  0
  5  6  2  0
  5  9  1  0
  7  8  1  0
  8  9  2  0
  8 14  1  0
  9 10  1  0
 10 11  2  0
 12 11  1  0
 12 13  1  0
 14 12  2  0
 15 16  2  0
 17 16  1  0
 18 17  2  0
 19 18  1  0
 19 15  1  0
 20 25  2  0
 21 20  1  0
 22 23  1  0
 22 21  2  0
 23 24  2  0
 24 15  1  0
 24 25  1  0
  2 26  1  0
  3 27  1  0
 10 28  1  0
 11 29  1  0
 14 30  1  0
 16 31  1  0
 17 32  1  0
 20 33  1  0
 21 34  1  0
 22 35  1  0
M  ISO  8  26  14  27  14  28  14  29  14  30  14  31  14  32  14  33  14
M  ISO  2  34  14  35  14
M  END
>  <minimizedAffinity>  (1) 
-7.4033761

>  <minimizedRMSD>  (1) 
1.05058682

$$$$
