
     RDKit          3D

 39 42  0  0  0  0  0  0  0  0999 V2000
   32.8500   27.8710   48.6770 C   0  0  0  0  0  0  0  0  0  0  0  0
   32.8440   26.8180   47.8070 C   0  0  0  0  0  0  0  0  0  0  0  0
   31.6360   26.1710   47.6360 C   0  0  0  0  0  0  0  0  0  0  0  0
   30.5090   26.5370   48.2790 N   0  0  0  0  0  0  0  0  0  0  0  0
   30.6300   27.6020   49.1230 C   0  0  0  0  0  0  0  0  0  0  0  0
   31.7690   28.2870   49.3470 N   0  0  0  0  0  0  0  0  0  0  0  0
   29.3770   27.9900   49.8230 C   0  0  0  0  0  0  0  0  0  0  0  0
   28.3890   28.7090   48.9450 C   0  0  0  0  0  0  0  0  0  0  0  0
   27.1220   28.8500   49.7660 C   0  0  0  0  0  0  0  0  0  0  0  0
   27.3680   28.6630   51.1280 O   0  0  0  0  0  0  0  0  0  0  0  0
   27.6760   27.3340   51.4250 C   0  0  0  0  0  0  0  0  0  0  0  0
   28.6600   26.7890   50.4050 C   0  0  0  0  0  0  0  0  0  0  0  0
   36.1470   30.2440   48.9230 C   0  0  0  0  0  0  0  0  0  0  0  0
   36.1480   29.2410   49.7980 C   0  0  0  0  0  0  0  0  0  0  0  0
   35.0780   28.3660   49.8120 C   0  0  0  0  0  0  0  0  0  0  0  0
   34.0900   28.6070   48.9100 C   0  0  0  0  0  0  0  0  0  0  0  0
   34.6850   30.0890   48.0340 S   0  0  0  0  0  0  0  0  0  0  0  0
   38.1150   33.2710   49.4400 C   0  0  0  0  0  0  0  0  0  0  0  0
   39.0220   33.2570   48.3860 C   0  0  0  0  0  0  0  0  0  0  0  0
   38.9600   32.1930   47.4790 C   0  0  0  0  0  0  0  0  0  0  0  0
   38.0140   31.2230   47.6740 N   0  0  0  0  0  0  0  0  0  0  0  0
   37.1620   31.2920   48.7170 C   0  0  0  0  0  0  0  0  0  0  0  0
   37.1960   32.2870   49.5910 N   0  0  0  0  0  0  0  0  0  0  0  0
   33.7518   26.5026   47.2718 H   0  0  0  0  0  0  0  0  0  0  0  0
   31.5913   25.3177   46.9432 H   0  0  0  0  0  0  0  0  0  0  0  0
   29.7170   28.6718   50.6165 H   0  0  0  0  0  0  0  0  0  0  0  0
   28.1909   28.1242   48.0346 H   0  0  0  0  0  0  0  0  0  0  0  0
   28.7730   29.6895   48.6269 H   0  0  0  0  0  0  0  0  0  0  0  0
   26.7080   29.8576   49.6132 H   0  0  0  0  0  0  0  0  0  0  0  0
   26.4107   28.0785   49.4359 H   0  0  0  0  0  0  0  0  0  0  0  0
   28.1235   27.2792   52.4284 H   0  0  0  0  0  0  0  0  0  0  0  0
   26.7545   26.7341   51.3944 H   0  0  0  0  0  0  0  0  0  0  0  0
   28.1253   26.2439   49.6132 H   0  0  0  0  0  0  0  0  0  0  0  0
   29.3681   26.0860   50.8681 H   0  0  0  0  0  0  0  0  0  0  0  0
   36.9862   29.1106   50.4982 H   0  0  0  0  0  0  0  0  0  0  0  0
   35.0287   27.5210   50.5145 H   0  0  0  0  0  0  0  0  0  0  0  0
   38.1443   34.0973   50.1655 H   0  0  0  0  0  0  0  0  0  0  0  0
   39.7662   34.0585   48.2686 H   0  0  0  0  0  0  0  0  0  0  0  0
   39.6556   32.1374   46.6287 H   0  0  0  0  0  0  0  0  0  0  0  0
  1 16  1  0
  1  6  1  0
  2  1  2  0
  3  2  1  0
  3  4  2  0
  4  5  1  0
  5  6  2  0
  5  7  1  0
  7 12  1  0
  8  9  1  0
  8  7  1  0
  9 10  1  0
 10 11  1  0
 12 11  1  0
 13 14  2  0
 14 15  1  0
 16 15  2  0
 17 16  1  0
 17 13  1  0
 18 23  2  0
 19 18  1  0
 20 21  1  0
 20 19  2  0
 21 22  2  0
 22 13  1  0
 22 23  1  0
  2 24  1  0
  3 25  1  0
  7 26  1  0
  8 27  1  0
  8 28  1  0
  9 29  1  0
  9 30  1  0
 11 31  1  0
 11 32  1  0
 12 33  1  0
 12 34  1  0
 14 35  1  0
 15 36  1  0
 18 37  1  0
 19 38  1  0
 20 39  1  0
M  ISO  8  24  14  25  14  26  13  27  13  28  13  29  13  30  13  31  13
M  ISO  8  32  13  33  13  34  13  35  14  36  14  37  14  38  14  39  14
M  END
>  <minimizedAffinity>  (1) 
-6.95510292

>  <minimizedRMSD>  (1) 
0.874796212

$$$$
