
     RDKit          3D

 41 44  0  0  0  0  0  0  0  0999 V2000
   36.0240   30.0890   48.7970 C   0  0  0  0  0  0  0  0  0  0  0  0
   36.0500   29.0170   49.5870 C   0  0  0  0  0  0  0  0  0  0  0  0
   34.9490   28.1930   49.6410 C   0  0  0  0  0  0  0  0  0  0  0  0
   33.8880   28.5450   48.8650 C   0  0  0  0  0  0  0  0  0  0  0  0
   34.4750   30.0700   48.0480 S   0  0  0  0  0  0  0  0  0  0  0  0
   38.1090   33.0420   49.2340 C   0  0  0  0  0  0  0  0  0  0  0  0
   39.0170   32.9680   48.1790 C   0  0  0  0  0  0  0  0  0  0  0  0
   38.9110   31.8750   47.2930 C   0  0  0  0  0  0  0  0  0  0  0  0
   37.9260   30.9580   47.5240 N   0  0  0  0  0  0  0  0  0  0  0  0
   37.0710   31.0970   48.5780 C   0  0  0  0  0  0  0  0  0  0  0  0
   37.1410   32.1080   49.4290 N   0  0  0  0  0  0  0  0  0  0  0  0
   32.5890   27.8870   48.7070 C   0  0  0  0  0  0  0  0  0  0  0  0
   32.4260   26.9280   47.7800 C   0  0  0  0  0  0  0  0  0  0  0  0
   31.1700   26.3550   47.6900 C   0  0  0  0  0  0  0  0  0  0  0  0
   30.1400   26.7300   48.4910 N   0  0  0  0  0  0  0  0  0  0  0  0
   30.4140   27.7180   49.4030 C   0  0  0  0  0  0  0  0  0  0  0  0
   31.6120   28.3200   49.5460 N   0  0  0  0  0  0  0  0  0  0  0  0
   29.3270   28.1720   50.3090 C   0  0  0  0  0  0  0  0  0  0  0  0
   28.4740   26.9600   50.6050 C   0  0  0  0  0  0  0  0  0  0  0  0
   27.0400   27.3380   50.9000 C   0  0  0  0  0  0  0  0  0  0  0  0
   26.3960   28.0620   49.7410 C   0  0  0  0  0  0  0  0  0  0  0  0
   27.4140   28.6640   48.8010 C   0  0  0  0  0  0  0  0  0  0  0  0
   28.5220   29.2680   49.6350 C   0  0  0  0  0  0  0  0  0  0  0  0
   36.9422   28.7926   50.1900 H   0  0  0  0  0  0  0  0  0  0  0  0
   34.9278   27.2966   50.2782 H   0  0  0  0  0  0  0  0  0  0  0  0
   38.1784   33.8873   49.9344 H   0  0  0  0  0  0  0  0  0  0  0  0
   39.7914   33.7371   48.0416 H   0  0  0  0  0  0  0  0  0  0  0  0
   39.6003   31.7651   46.4428 H   0  0  0  0  0  0  0  0  0  0  0  0
   33.2514   26.6137   47.1243 H   0  0  0  0  0  0  0  0  0  0  0  0
   30.9996   25.5667   46.9420 H   0  0  0  0  0  0  0  0  0  0  0  0
   29.7234   28.5924   51.2450 H   0  0  0  0  0  0  0  0  0  0  0  0
   28.4929   26.2902   49.7326 H   0  0  0  0  0  0  0  0  0  0  0  0
   28.8856   26.4629   51.4958 H   0  0  0  0  0  0  0  0  0  0  0  0
   26.4672   26.4225   51.1094 H   0  0  0  0  0  0  0  0  0  0  0  0
   27.0384   28.0151   51.7669 H   0  0  0  0  0  0  0  0  0  0  0  0
   25.7753   27.3482   49.1795 H   0  0  0  0  0  0  0  0  0  0  0  0
   25.7922   28.8841   50.1528 H   0  0  0  0  0  0  0  0  0  0  0  0
   26.9401   29.4450   48.1883 H   0  0  0  0  0  0  0  0  0  0  0  0
   27.8186   27.8913   48.1308 H   0  0  0  0  0  0  0  0  0  0  0  0
   29.1848   29.8588   48.9857 H   0  0  0  0  0  0  0  0  0  0  0  0
   28.0789   29.9145   50.4068 H   0  0  0  0  0  0  0  0  0  0  0  0
  1  2  2  0
  2  3  1  0
  4  3  2  0
  5  1  1  0
  5  4  1  0
  6 11  2  0
  7  6  1  0
  8  9  1  0
  8  7  2  0
  9 10  2  0
 10  1  1  0
 10 11  1  0
 12  4  1  0
 12 17  1  0
 13 12  2  0
 14 13  1  0
 14 15  2  0
 15 16  1  0
 16 17  2  0
 16 18  1  0
 18 19  1  0
 19 20  1  0
 21 20  1  0
 22 23  1  0
 22 21  1  0
 23 18  1  0
  2 24  1  0
  3 25  1  0
  6 26  1  0
  7 27  1  0
  8 28  1  0
 13 29  1  0
 14 30  1  0
 18 31  1  0
 19 32  1  0
 19 33  1  0
 20 34  1  0
 20 35  1  0
 21 36  1  0
 21 37  1  0
 22 38  1  0
 22 39  1  0
 23 40  1  0
 23 41  1  0
M  ISO  8  24  14  25  14  26  14  27  14  28  14  29  14  30  14  31  13
M  ISO  8  32  13  33  13  34  13  35  13  36  13  37  13  38  13  39  13
M  ISO  2  40  13  41  13
M  END
>  <minimizedAffinity>  (1) 
-6.84788513

>  <minimizedRMSD>  (1) 
1.38456249

$$$$
