
     RDKit          3D

 28 30  0  0  0  0  0  0  0  0999 V2000
   36.0670   30.1230   48.8410 C   0  0  0  0  0  0  0  0  0  0  0  0
   35.9650   29.1960   49.7890 C   0  0  0  0  0  0  0  0  0  0  0  0
   34.8960   28.3180   49.7550 C   0  0  0  0  0  0  0  0  0  0  0  0
   34.0180   28.4830   48.7290 C   0  0  0  0  0  0  0  0  0  0  0  0
   34.7170   29.8920   47.8070 S   0  0  0  0  0  0  0  0  0  0  0  0
   38.0420   33.1380   49.4040 C   0  0  0  0  0  0  0  0  0  0  0  0
   38.9830   33.1120   48.3810 C   0  0  0  0  0  0  0  0  0  0  0  0
   38.9420   32.0430   47.4800 C   0  0  0  0  0  0  0  0  0  0  0  0
   37.9840   31.0740   47.6420 N   0  0  0  0  0  0  0  0  0  0  0  0
   37.1000   31.1600   48.6580 C   0  0  0  0  0  0  0  0  0  0  0  0
   37.1080   32.1640   49.5350 N   0  0  0  0  0  0  0  0  0  0  0  0
   32.8040   27.7220   48.4200 C   0  0  0  0  0  0  0  0  0  0  0  0
   32.8140   26.8340   47.3940 C   0  0  0  0  0  0  0  0  0  0  0  0
   31.6410   26.1510   47.1530 C   0  0  0  0  0  0  0  0  0  0  0  0
   30.5220   26.3450   47.8980 N   0  0  0  0  0  0  0  0  0  0  0  0
   30.6270   27.2540   48.8960 C   0  0  0  0  0  0  0  0  0  0  0  0
   31.7310   27.9530   49.1860 N   0  0  0  0  0  0  0  0  0  0  0  0
   29.4060   27.4750   49.7190 C   0  0  0  0  0  0  0  0  0  0  0  0
   29.3820   26.6430   50.8330 F   0  0  0  0  0  0  0  0  0  0  0  0
   28.2650   27.1220   48.9890 F   0  0  0  0  0  0  0  0  0  0  0  0
   29.2280   28.8070   50.0520 F   0  0  0  0  0  0  0  0  0  0  0  0
   36.7185   29.1282   50.5875 H   0  0  0  0  0  0  0  0  0  0  0  0
   34.7638   27.5323   50.5135 H   0  0  0  0  0  0  0  0  0  0  0  0
   38.0555   33.9690   50.1246 H   0  0  0  0  0  0  0  0  0  0  0  0
   39.7364   33.9075   48.2832 H   0  0  0  0  0  0  0  0  0  0  0  0
   39.6663   31.9800   46.6545 H   0  0  0  0  0  0  0  0  0  0  0  0
   33.7142   26.6672   46.7843 H   0  0  0  0  0  0  0  0  0  0  0  0
   31.6102   25.4235   46.3285 H   0  0  0  0  0  0  0  0  0  0  0  0
  1  2  2  0
  3  2  1  0
  4  3  2  0
  5  4  1  0
  5  1  1  0
  6 11  2  0
  7  6  1  0
  8  9  1  0
  8  7  2  0
  9 10  2  0
 10  1  1  0
 10 11  1  0
 12  4  1  0
 12 17  1  0
 13 12  2  0
 14 13  1  0
 14 15  2  0
 15 16  1  0
 16 17  2  0
 16 18  1  0
 18 21  1  0
 18 19  1  0
 20 18  1  0
  2 22  1  0
  3 23  1  0
  6 24  1  0
  7 25  1  0
  8 26  1  0
 13 27  1  0
 14 28  1  0
M  ISO  7  22  14  23  14  24  14  25  14  26  14  27  14  28  14
M  END
>  <minimizedAffinity>  (1) 
-6.2570467

>  <minimizedRMSD>  (1) 
0.617082894

$$$$
