
     RDKit          3D

 28 30  0  0  0  0  0  0  0  0999 V2000
   36.3160   30.2860   48.8460 C   0  0  0  0  0  0  0  0  0  0  0  0
   36.1640   29.4510   49.8710 C   0  0  0  0  0  0  0  0  0  0  0  0
   35.1760   28.4950   49.8180 C   0  0  0  0  0  0  0  0  0  0  0  0
   34.4100   28.4770   48.6930 C   0  0  0  0  0  0  0  0  0  0  0  0
   35.1140   29.8340   47.7120 S   0  0  0  0  0  0  0  0  0  0  0  0
   38.1720   33.3640   49.4550 C   0  0  0  0  0  0  0  0  0  0  0  0
   39.0560   33.4340   48.3840 C   0  0  0  0  0  0  0  0  0  0  0  0
   39.0170   32.4100   47.4310 C   0  0  0  0  0  0  0  0  0  0  0  0
   38.1170   31.3910   47.5960 N   0  0  0  0  0  0  0  0  0  0  0  0
   37.2870   31.3800   48.6600 C   0  0  0  0  0  0  0  0  0  0  0  0
   37.2840   32.3400   49.6000 N   0  0  0  0  0  0  0  0  0  0  0  0
   33.2970   27.5900   48.3440 C   0  0  0  0  0  0  0  0  0  0  0  0
   33.4980   26.5540   47.4980 C   0  0  0  0  0  0  0  0  0  0  0  0
   32.4370   25.7450   47.1960 C   0  0  0  0  0  0  0  0  0  0  0  0
   31.2060   25.9720   47.7310 N   0  0  0  0  0  0  0  0  0  0  0  0
   31.0980   27.0380   48.5720 C   0  0  0  0  0  0  0  0  0  0  0  0
   32.1100   27.8650   48.9030 N   0  0  0  0  0  0  0  0  0  0  0  0
   29.7620   27.3420   49.1970 C   0  0  0  0  0  0  0  0  0  0  0  0
   36.8207   29.5243   50.7504 H   0  0  0  0  0  0  0  0  0  0  0  0
   35.0138   27.7832   50.6408 H   0  0  0  0  0  0  0  0  0  0  0  0
   38.1899   34.1625   50.2114 H   0  0  0  0  0  0  0  0  0  0  0  0
   39.7650   34.2696   48.2887 H   0  0  0  0  0  0  0  0  0  0  0  0
   39.6963   32.4233   46.5659 H   0  0  0  0  0  0  0  0  0  0  0  0
   34.4909   26.3664   47.0632 H   0  0  0  0  0  0  0  0  0  0  0  0
   32.5809   24.8974   46.5098 H   0  0  0  0  0  0  0  0  0  0  0  0
   29.8564   27.3205   50.2927 H   0  0  0  0  0  0  0  0  0  0  0  0
   29.4261   28.3395   48.8774 H   0  0  0  0  0  0  0  0  0  0  0  0
   29.0276   26.5880   48.8774 H   0  0  0  0  0  0  0  0  0  0  0  0
  1  2  2  0
  3  2  1  0
  4  3  2  0
  5  4  1  0
  5  1  1  0
  6 11  2  0
  7  6  1  0
  8  9  1  0
  8  7  2  0
  9 10  2  0
 10  1  1  0
 10 11  1  0
 12  4  1  0
 12 17  1  0
 13 12  2  0
 14 13  1  0
 14 15  2  0
 15 16  1  0
 16 17  2  0
 16 18  1  0
  2 19  1  0
  3 20  1  0
  6 21  1  0
  7 22  1  0
  8 23  1  0
 13 24  1  0
 14 25  1  0
 18 26  1  0
 18 27  1  0
 18 28  1  0
M  ISO  8  19  14  20  14  21  14  22  14  23  14  24  14  25  14  26   8
M  ISO  2  27   8  28   8
M  END
>  <minimizedAffinity>  (1) 
-5.61736107

>  <minimizedRMSD>  (1) 
0.044603195

$$$$
