
     RDKit          3D

 35 37  0  0  0  0  0  0  0  0999 V2000
   35.4170   29.1830   51.0140 C   0  0  0  0  0  0  0  0  0  0  0  0
   36.3540   29.9420   50.3090 C   0  0  0  0  0  0  0  0  0  0  0  0
   36.3820   29.9870   48.9280 C   0  0  0  0  0  0  0  0  0  0  0  0
   35.4320   29.2430   48.2900 N   0  0  0  0  0  0  0  0  0  0  0  0
   34.5300   28.5130   48.9720 C   0  0  0  0  0  0  0  0  0  0  0  0
   34.5210   28.4820   50.3100 N   0  0  0  0  0  0  0  0  0  0  0  0
   33.5740   27.7660   48.1890 N   0  0  0  0  0  0  0  0  0  0  0  0
   33.9820   26.5760   47.5200 C   0  0  0  0  0  0  0  0  0  0  0  0
   32.9200   25.5480   47.3370 C   0  0  0  0  0  0  0  0  0  0  0  0
   31.5200   26.0070   47.5360 C   0  0  0  0  0  0  0  0  0  0  0  0
   31.3440   27.1010   48.5400 C   0  0  0  0  0  0  0  0  0  0  0  0
   32.2130   28.2670   48.1160 C   0  0  0  0  0  0  0  0  0  0  0  0
   36.8890   32.6340   50.1410 Cl  0  0  0  0  0  0  0  0  0  0  0  0
   37.6580   32.0420   48.6890 C   0  0  0  0  0  0  0  0  0  0  0  0
   37.3620   30.7810   48.1840 C   0  0  0  0  0  0  0  0  0  0  0  0
   38.0030   30.3810   47.0420 C   0  0  0  0  0  0  0  0  0  0  0  0
   38.9190   31.1820   46.3900 C   0  0  0  0  0  0  0  0  0  0  0  0
   39.1920   32.4380   46.9220 C   0  0  0  0  0  0  0  0  0  0  0  0
   40.3590   33.4190   46.0630 Cl  0  0  0  0  0  0  0  0  0  0  0  0
   38.5730   32.8800   48.0650 C   0  0  0  0  0  0  0  0  0  0  0  0
   35.4158   29.1623   52.1138 H   0  0  0  0  0  0  0  0  0  0  0  0
   37.0966   30.5251   50.8735 H   0  0  0  0  0  0  0  0  0  0  0  0
   34.3561   26.8579   46.5247 H   0  0  0  0  0  0  0  0  0  0  0  0
   34.7434   26.1127   48.1646 H   0  0  0  0  0  0  0  0  0  0  0  0
   33.0029   25.1589   46.3115 H   0  0  0  0  0  0  0  0  0  0  0  0
   33.0981   24.7983   48.1220 H   0  0  0  0  0  0  0  0  0  0  0  0
   31.1400   26.3684   46.5691 H   0  0  0  0  0  0  0  0  0  0  0  0
   30.9683   25.1406   47.9296 H   0  0  0  0  0  0  0  0  0  0  0  0
   30.2896   27.4129   48.5717 H   0  0  0  0  0  0  0  0  0  0  0  0
   31.6341   26.7516   49.5419 H   0  0  0  0  0  0  0  0  0  0  0  0
   32.0773   29.1189   48.7985 H   0  0  0  0  0  0  0  0  0  0  0  0
   31.9585   28.6277   47.1085 H   0  0  0  0  0  0  0  0  0  0  0  0
   37.7801   29.3860   46.6294 H   0  0  0  0  0  0  0  0  0  0  0  0
   39.4199   30.8361   45.4738 H   0  0  0  0  0  0  0  0  0  0  0  0
   38.7966   33.8751   48.4771 H   0  0  0  0  0  0  0  0  0  0  0  0
  2  1  2  0
  3  2  1  0
  4  3  2  0
  4  5  1  0
  5  6  2  0
  6  1  1  0
  7  5  1  0
  8  7  1  0
  9  8  1  0
  9 10  1  0
 10 11  1  0
 12  7  1  0
 12 11  1  0
 14 13  1  0
 15 14  2  0
 15  3  1  0
 16 15  1  0
 17 18  1  0
 17 16  2  0
 18 20  2  0
 19 18  1  0
 20 14  1  0
  1 21  1  0
  2 22  1  0
  8 23  1  0
  8 24  1  0
  9 25  1  0
  9 26  1  0
 10 27  1  0
 10 28  1  0
 11 29  1  0
 11 30  1  0
 12 31  1  0
 12 32  1  0
 16 33  1  0
 17 34  1  0
 20 35  1  0
M  ISO  8  21  14  22  14  23  13  24  13  25  13  26  13  27  13  28  13
M  ISO  7  29  13  30  13  31  13  32  13  33  14  34  14  35  14
M  END
>  <minimizedAffinity>  (1) 
-6.17073679

>  <minimizedRMSD>  (1) 
2.3287077

$$$$
