
     RDKit          3D

 26 27  0  0  0  0  0  0  0  0999 V2000
   38.2610   33.4280   49.5770 Cl  0  0  0  0  0  0  0  0  0  0  0  0
   38.6180   32.4910   48.1430 C   0  0  0  0  0  0  0  0  0  0  0  0
   38.2210   31.1670   48.0440 C   0  0  0  0  0  0  0  0  0  0  0  0
   38.5310   30.4880   46.8950 C   0  0  0  0  0  0  0  0  0  0  0  0
   39.2150   31.0800   45.8570 C   0  0  0  0  0  0  0  0  0  0  0  0
   39.6000   32.4110   45.9880 C   0  0  0  0  0  0  0  0  0  0  0  0
   40.4640   33.1090   44.6400 Cl  0  0  0  0  0  0  0  0  0  0  0  0
   39.3110   33.1290   47.1200 C   0  0  0  0  0  0  0  0  0  0  0  0
   37.3580   29.9460   51.5280 C   0  0  0  0  0  0  0  0  0  0  0  0
   38.0550   30.4840   50.4440 C   0  0  0  0  0  0  0  0  0  0  0  0
   37.4990   30.6040   49.1840 C   0  0  0  0  0  0  0  0  0  0  0  0
   36.2130   30.1610   49.0580 N   0  0  0  0  0  0  0  0  0  0  0  0
   35.5420   29.6410   50.1100 C   0  0  0  0  0  0  0  0  0  0  0  0
   36.1010   29.5370   51.3110 N   0  0  0  0  0  0  0  0  0  0  0  0
   34.1250   29.1790   49.8660 C   0  0  0  0  0  0  0  0  0  0  0  0
   34.1880   28.0000   48.8850 C   0  0  0  0  0  0  0  0  0  0  0  0
   38.2236   29.4362   46.7987 H   0  0  0  0  0  0  0  0  0  0  0  0
   39.4519   30.5135   44.9444 H   0  0  0  0  0  0  0  0  0  0  0  0
   39.6189   34.1806   47.2162 H   0  0  0  0  0  0  0  0  0  0  0  0
   37.8231   29.8614   52.5213 H   0  0  0  0  0  0  0  0  0  0  0  0
   39.0888   30.8263   50.5991 H   0  0  0  0  0  0  0  0  0  0  0  0
   33.6667   28.8563   50.8125 H   0  0  0  0  0  0  0  0  0  0  0  0
   33.5163   29.9963   49.4518 H   0  0  0  0  0  0  0  0  0  0  0  0
   34.2384   27.0566   49.4484 H   0  0  0  0  0  0  0  0  0  0  0  0
   33.2885   28.0014   48.2518 H   0  0  0  0  0  0  0  0  0  0  0  0
   35.0822   28.0972   48.2518 H   0  0  0  0  0  0  0  0  0  0  0  0
  2  1  1  0
  3  2  2  0
  3 11  1  0
  4  3  1  0
  5  6  1  0
  5  4  2  0
  6  8  2  0
  7  6  1  0
  8  2  1  0
 10  9  2  0
 11 10  1  0
 12 11  2  0
 12 13  1  0
 13 14  2  0
 14  9  1  0
 15 13  1  0
 16 15  1  0
  4 17  1  0
  5 18  1  0
  8 19  1  0
  9 20  1  0
 10 21  1  0
 15 22  1  0
 15 23  1  0
 16 24  1  0
 16 25  1  0
 16 26  1  0
M  ISO  8  17  14  18  14  19  14  20  14  21  14  22   8  23   8  24   8
M  ISO  2  25   8  26   8
M  END
>  <minimizedAffinity>  (1) 
-6.12663794

>  <minimizedRMSD>  (1) 
0.668317497

$$$$
