
     RDKit          3D

 21 22  0  0  0  0  0  0  0  0999 V2000
   38.2380   33.3560   49.4610 Cl  0  0  0  0  0  0  0  0  0  0  0  0
   38.6370   32.4360   48.0240 C   0  0  0  0  0  0  0  0  0  0  0  0
   38.2470   31.1070   47.9010 C   0  0  0  0  0  0  0  0  0  0  0  0
   38.6020   30.4670   46.7440 C   0  0  0  0  0  0  0  0  0  0  0  0
   39.3070   31.0700   45.7320 C   0  0  0  0  0  0  0  0  0  0  0  0
   39.6770   32.3990   45.8950 C   0  0  0  0  0  0  0  0  0  0  0  0
   40.5740   33.1660   44.6040 Cl  0  0  0  0  0  0  0  0  0  0  0  0
   39.3520   33.1010   47.0330 C   0  0  0  0  0  0  0  0  0  0  0  0
   37.3000   29.9590   51.3770 C   0  0  0  0  0  0  0  0  0  0  0  0
   38.0160   30.5190   50.3090 C   0  0  0  0  0  0  0  0  0  0  0  0
   37.5060   30.5280   49.0050 C   0  0  0  0  0  0  0  0  0  0  0  0
   36.2910   29.9670   48.8490 N   0  0  0  0  0  0  0  0  0  0  0  0
   35.6110   29.4330   49.8780 C   0  0  0  0  0  0  0  0  0  0  0  0
   36.1080   29.4290   51.1220 N   0  0  0  0  0  0  0  0  0  0  0  0
   33.9960   28.7130   49.5370 S   0  0  0  0  0  0  0  0  0  0  0  0
   38.3070   29.4147   46.6187 H   0  0  0  0  0  0  0  0  0  0  0  0
   39.5712   30.5169   44.8186 H   0  0  0  0  0  0  0  0  0  0  0  0
   39.6478   34.1534   47.1552 H   0  0  0  0  0  0  0  0  0  0  0  0
   37.7130   29.9584   52.3965 H   0  0  0  0  0  0  0  0  0  0  0  0
   39.0041   30.9628   50.5008 H   0  0  0  0  0  0  0  0  0  0  0  0
   33.3631   28.4308   50.7188 H   0  0  0  0  0  0  0  0  0  0  0  0
  2  1  1  0
  3  2  2  0
  3 11  1  0
  4  3  1  0
  5  6  1  0
  5  4  2  0
  6  8  2  0
  7  6  1  0
  8  2  1  0
 10  9  2  0
 11 10  1  0
 12 11  2  0
 12 13  1  0
 13 14  2  0
 14  9  1  0
 15 13  1  0
  4 16  1  0
  5 17  1  0
  8 18  1  0
  9 19  1  0
 10 20  1  0
 15 21  1  0
M  ISO  6  16  14  17  14  18  14  19  14  20  14  21  11
M  END
>  <minimizedAffinity>  (1) 
-5.85805941

>  <minimizedRMSD>  (1) 
0.599877179

$$$$
