
     RDKit          3D

 25 26  0  0  0  0  0  0  0  0999 V2000
   37.2640   29.6590   51.4110 C   0  0  0  0  0  0  0  0  0  0  0  0
   38.0030   30.1920   50.3510 C   0  0  0  0  0  0  0  0  0  0  0  0
   37.3910   30.6000   49.1600 C   0  0  0  0  0  0  0  0  0  0  0  0
   36.0510   30.4380   49.1180 N   0  0  0  0  0  0  0  0  0  0  0  0
   35.3480   29.9230   50.1420 C   0  0  0  0  0  0  0  0  0  0  0  0
   35.9420   29.5420   51.2620 N   0  0  0  0  0  0  0  0  0  0  0  0
   33.6410   28.6060   49.2010 C   0  0  0  0  0  0  0  0  0  0  0  0
   34.4090   27.6200   48.9320 O   0  0  0  0  0  0  0  0  0  0  0  0
   33.9500   29.8670   49.8210 N   0  0  0  0  0  0  0  0  0  0  0  0
   38.4270   33.2970   49.6970 Cl  0  0  0  0  0  0  0  0  0  0  0  0
   38.6830   32.4270   48.2230 C   0  0  0  0  0  0  0  0  0  0  0  0
   38.1540   31.1560   48.0580 C   0  0  0  0  0  0  0  0  0  0  0  0
   38.3930   30.5100   46.8570 C   0  0  0  0  0  0  0  0  0  0  0  0
   39.1280   31.1010   45.8510 C   0  0  0  0  0  0  0  0  0  0  0  0
   39.6430   32.3760   46.0500 C   0  0  0  0  0  0  0  0  0  0  0  0
   40.5580   33.0330   44.7210 Cl  0  0  0  0  0  0  0  0  0  0  0  0
   39.4240   33.0420   47.2320 C   0  0  0  0  0  0  0  0  0  0  0  0
   39.9600   34.3240   47.3910 O   0  0  0  0  0  0  0  0  0  0  0  0
   37.7577   29.3446   52.3423 H   0  0  0  0  0  0  0  0  0  0  0  0
   39.0933   30.2934   50.4554 H   0  0  0  0  0  0  0  0  0  0  0  0
   32.5873   28.4701   48.9161 H   0  0  0  0  0  0  0  0  0  0  0  0
   33.2696   30.6176   50.0068 H   0  0  0  0  0  0  0  0  0  0  0  0
   37.9863   29.4999   46.7014 H   0  0  0  0  0  0  0  0  0  0  0  0
   39.3042   30.5702   44.9038 H   0  0  0  0  0  0  0  0  0  0  0  0
   39.8136   34.8206   48.2349 H   0  0  0  0  0  0  0  0  0  0  0  0
  2  1  2  0
  3  2  1  0
  4  3  2  0
  4  5  1  0
  5  6  2  0
  6  1  1  0
  7  9  1  0
  8  7  2  0
  9  5  1  0
 11 10  1  0
 12 11  2  0
 12  3  1  0
 13 12  1  0
 14 15  1  0
 14 13  2  0
 15 17  2  0
 16 15  1  0
 17 18  1  0
 17 11  1  0
  1 19  1  0
  2 20  1  0
  7 21  1  0
  9 22  1  0
 13 23  1  0
 14 24  1  0
 18 25  1  0
M  ISO  6  19  14  20  14  21   6  23  14  24  14  25   3
M  END
>  <minimizedAffinity>  (1) 
-7.07336569

>  <minimizedRMSD>  (1) 
0.146791428

$$$$
