
     RDKit          3D

 26 28  0  0  0  0  0  0  0  0999 V2000
   35.5650   30.1320   49.0180 C   0  0  0  0  0  0  0  0  0  0  0  0
   36.0440   30.0170   50.2960 C   0  0  0  0  0  0  0  0  0  0  0  0
   37.1470   30.7970   50.4370 C   0  0  0  0  0  0  0  0  0  0  0  0
   37.3520   31.3980   49.2420 N   0  0  0  0  0  0  0  0  0  0  0  0
   36.3890   30.9850   48.3970 N   0  0  0  0  0  0  0  0  0  0  0  0
   32.8780   29.1730   46.7030 C   0  0  0  0  0  0  0  0  0  0  0  0
   32.2070   28.1720   47.4370 C   0  0  0  0  0  0  0  0  0  0  0  0
   32.6870   27.8470   48.7040 C   0  0  0  0  0  0  0  0  0  0  0  0
   33.7790   28.4990   49.1910 N   0  0  0  0  0  0  0  0  0  0  0  0
   34.3980   29.4640   48.4450 C   0  0  0  0  0  0  0  0  0  0  0  0
   33.9440   29.7810   47.2310 N   0  0  0  0  0  0  0  0  0  0  0  0
   38.2880   32.3100   48.6890 C   0  0  0  0  0  0  0  0  0  0  0  0
   38.6570   33.3640   49.4980 C   0  0  0  0  0  0  0  0  0  0  0  0
   39.5690   34.2580   48.9650 C   0  0  0  0  0  0  0  0  0  0  0  0
   40.0540   34.0530   47.6710 C   0  0  0  0  0  0  0  0  0  0  0  0
   39.6550   32.9750   46.8840 C   0  0  0  0  0  0  0  0  0  0  0  0
   38.7630   32.1110   47.4240 N   0  0  0  0  0  0  0  0  0  0  0  0
   35.6038   29.3903   51.0856 H   0  0  0  0  0  0  0  0  0  0  0  0
   37.7552   30.9168   51.3457 H   0  0  0  0  0  0  0  0  0  0  0  0
   32.5245   29.4518   45.6993 H   0  0  0  0  0  0  0  0  0  0  0  0
   31.3270   27.6610   47.0194 H   0  0  0  0  0  0  0  0  0  0  0  0
   32.1890   27.0717   49.3048 H   0  0  0  0  0  0  0  0  0  0  0  0
   38.2486   33.4874   50.5119 H   0  0  0  0  0  0  0  0  0  0  0  0
   39.9089   35.1221   49.5548 H   0  0  0  0  0  0  0  0  0  0  0  0
   40.7786   34.7701   47.2578 H   0  0  0  0  0  0  0  0  0  0  0  0
   40.0480   32.8316   45.8667 H   0  0  0  0  0  0  0  0  0  0  0  0
  1  2  1  0
  2  3  2  0
  4  3  1  0
  5  1  2  0
  5  4  1  0
  6 11  2  0
  6  7  1  0
  7  8  2  0
  8  9  1  0
 10  1  1  0
 10  9  2  0
 11 10  1  0
 12  4  1  0
 12 13  2  0
 14 13  1  0
 15 14  2  0
 16 17  2  0
 16 15  1  0
 17 12  1  0
  2 18  1  0
  3 19  1  0
  6 20  1  0
  7 21  1  0
  8 22  1  0
 13 23  1  0
 14 24  1  0
 15 25  1  0
 16 26  1  0
M  ISO  8  18  14  19  14  20  14  21  14  22  14  23  14  24  14  25  14
M  ISO  1  26  14
M  END
>  <minimizedAffinity>  (1) 
-5.29808617

>  <minimizedRMSD>  (1) 
6.77284956

$$$$
