
     RDKit          3D

 25 27  0  0  0  0  0  0  0  0999 V2000
   34.2790   29.0110   48.5020 C   0  0  0  0  0  0  0  0  0  0  0  0
   35.0760   28.3950   49.4590 C   0  0  0  0  0  0  0  0  0  0  0  0
   36.2100   29.1380   49.6380 C   0  0  0  0  0  0  0  0  0  0  0  0
   36.1020   30.2100   48.7830 N   0  0  0  0  0  0  0  0  0  0  0  0
   34.9450   30.0940   48.1320 N   0  0  0  0  0  0  0  0  0  0  0  0
   31.3470   28.4270   46.3880 C   0  0  0  0  0  0  0  0  0  0  0  0
   30.5440   27.5880   47.2240 C   0  0  0  0  0  0  0  0  0  0  0  0
   31.0310   27.2480   48.4860 C   0  0  0  0  0  0  0  0  0  0  0  0
   32.2380   27.7440   48.8280 N   0  0  0  0  0  0  0  0  0  0  0  0
   32.9910   28.5350   48.0310 C   0  0  0  0  0  0  0  0  0  0  0  0
   32.5420   28.8680   46.8260 N   0  0  0  0  0  0  0  0  0  0  0  0
   37.0900   31.2230   48.6690 C   0  0  0  0  0  0  0  0  0  0  0  0
   37.9840   31.0860   47.6120 C   0  0  0  0  0  0  0  0  0  0  0  0
   38.9550   32.0580   47.4790 C   0  0  0  0  0  0  0  0  0  0  0  0
   39.0520   33.1050   48.3240 N   0  0  0  0  0  0  0  0  0  0  0  0
   38.1630   33.2140   49.3520 C   0  0  0  0  0  0  0  0  0  0  0  0
   37.2060   32.2880   49.5120 N   0  0  0  0  0  0  0  0  0  0  0  0
   34.8340   27.4609   49.9871 H   0  0  0  0  0  0  0  0  0  0  0  0
   37.0404   28.9221   50.3264 H   0  0  0  0  0  0  0  0  0  0  0  0
   30.9885   28.7118   45.3878 H   0  0  0  0  0  0  0  0  0  0  0  0
   29.5662   27.2201   46.8797 H   0  0  0  0  0  0  0  0  0  0  0  0
   30.4577   26.6055   49.1704 H   0  0  0  0  0  0  0  0  0  0  0  0
   37.9199   30.2396   46.9124 H   0  0  0  0  0  0  0  0  0  0  0  0
   39.6768   31.9757   46.6530 H   0  0  0  0  0  0  0  0  0  0  0  0
   38.2306   34.0614   50.0501 H   0  0  0  0  0  0  0  0  0  0  0  0
  1  2  1  0
  2  3  2  0
  4  3  1  0
  5  1  2  0
  5  4  1  0
  6 11  2  0
  6  7  1  0
  7  8  2  0
  8  9  1  0
 10  1  1  0
 10  9  2  0
 11 10  1  0
 12  4  1  0
 12 17  1  0
 13 12  2  0
 14 13  1  0
 14 15  2  0
 15 16  1  0
 16 17  2  0
  2 18  1  0
  3 19  1  0
  6 20  1  0
  7 21  1  0
  8 22  1  0
 13 23  1  0
 14 24  1  0
 16 25  1  0
M  ISO  8  18  14  19  14  20  14  21  14  22  14  23  14  24  14  25  14
M  END
>  <minimizedAffinity>  (1) 
-5.07984638

>  <minimizedRMSD>  (1) 
6.77645731

$$$$
