
     RDKit          3D

 23 24  0  0  0  0  0  0  0  0999 V2000
   36.0210   30.1350   48.6930 C   0  0  0  0  0  0  0  0  0  0  0  0
   35.9440   29.1010   49.5880 C   0  0  0  0  0  0  0  0  0  0  0  0
   34.8570   28.3350   49.3400 C   0  0  0  0  0  0  0  0  0  0  0  0
   34.2490   28.9050   48.2730 N   0  0  0  0  0  0  0  0  0  0  0  0
   34.9600   29.9910   47.8910 N   0  0  0  0  0  0  0  0  0  0  0  0
   38.0150   33.1190   49.4470 C   0  0  0  0  0  0  0  0  0  0  0  0
   38.9850   33.0910   48.4190 C   0  0  0  0  0  0  0  0  0  0  0  0
   38.9320   32.0440   47.4890 C   0  0  0  0  0  0  0  0  0  0  0  0
   37.9610   31.1030   47.6050 N   0  0  0  0  0  0  0  0  0  0  0  0
   37.0430   31.1790   48.6230 C   0  0  0  0  0  0  0  0  0  0  0  0
   37.0830   32.1640   49.5100 N   0  0  0  0  0  0  0  0  0  0  0  0
   33.0260   28.4030   47.6600 C   0  0  0  0  0  0  0  0  0  0  0  0
   32.1250   27.7130   48.6320 C   0  0  0  0  0  0  0  0  0  0  0  0
   36.6666   28.9186   50.3971 H   0  0  0  0  0  0  0  0  0  0  0  0
   34.5349   27.4381   49.8894 H   0  0  0  0  0  0  0  0  0  0  0  0
   38.0276   33.9262   50.1942 H   0  0  0  0  0  0  0  0  0  0  0  0
   39.7595   33.8691   48.3510 H   0  0  0  0  0  0  0  0  0  0  0  0
   39.6689   31.9856   46.6744 H   0  0  0  0  0  0  0  0  0  0  0  0
   32.4816   29.2510   47.2189 H   0  0  0  0  0  0  0  0  0  0  0  0
   33.3189   27.6627   46.9010 H   0  0  0  0  0  0  0  0  0  0  0  0
   32.4395   27.9539   49.6582 H   0  0  0  0  0  0  0  0  0  0  0  0
   31.0900   28.0517   48.4767 H   0  0  0  0  0  0  0  0  0  0  0  0
   32.1822   26.6255   48.4767 H   0  0  0  0  0  0  0  0  0  0  0  0
  1  2  1  0
  3  2  2  0
  4  3  1  0
  5  4  1  0
  5  1  2  0
  6 11  2  0
  7  6  1  0
  8  9  1  0
  8  7  2  0
  9 10  2  0
 10  1  1  0
 10 11  1  0
 12  4  1  0
 12 13  1  0
  2 14  1  0
  3 15  1  0
  6 16  1  0
  7 17  1  0
  8 18  1  0
 12 19  1  0
 12 20  1  0
 13 21  1  0
 13 22  1  0
 13 23  1  0
M  ISO  8  14  14  15  14  16  14  17  14  18  14  19   8  20   8  21   8
M  ISO  2  22   8  23   8
M  END
>  <minimizedAffinity>  (1) 
-4.37579823

>  <minimizedRMSD>  (1) 
1.53161561

$$$$
