
     RDKit          3D

 36 39  0  0  0  0  0  0  0  0999 V2000
   34.8060   29.0310   48.9000 C   0  0  0  0  0  0  0  0  0  0  0  0
   34.7400   28.4520   47.6290 C   0  0  0  0  0  0  0  0  0  0  0  0
   33.4760   27.9500   47.4560 C   0  0  0  0  0  0  0  0  0  0  0  0
   32.7860   28.2290   48.6220 N   0  0  0  0  0  0  0  0  0  0  0  0
   33.6150   28.8650   49.4350 N   0  0  0  0  0  0  0  0  0  0  0  0
   30.5960   27.5000   47.7930 N   0  0  0  0  0  0  0  0  0  0  0  0
   31.4340   27.8430   48.7890 C   0  0  0  0  0  0  0  0  0  0  0  0
   30.7160   27.7340   49.9280 N   0  0  0  0  0  0  0  0  0  0  0  0
   29.4550   27.3320   49.6550 C   0  0  0  0  0  0  0  0  0  0  0  0
   28.3100   27.0500   50.3440 C   0  0  0  0  0  0  0  0  0  0  0  0
   27.2040   26.6580   49.6860 N   0  0  0  0  0  0  0  0  0  0  0  0
   27.1790   26.5260   48.3560 C   0  0  0  0  0  0  0  0  0  0  0  0
   28.2810   26.7910   47.6300 N   0  0  0  0  0  0  0  0  0  0  0  0
   29.3820   27.1820   48.2810 C   0  0  0  0  0  0  0  0  0  0  0  0
   37.4420   29.9650   51.2660 C   0  0  0  0  0  0  0  0  0  0  0  0
   38.1990   30.9090   50.4880 C   0  0  0  0  0  0  0  0  0  0  0  0
   37.7880   31.1900   49.1980 C   0  0  0  0  0  0  0  0  0  0  0  0
   36.6810   30.5540   48.7310 N   0  0  0  0  0  0  0  0  0  0  0  0
   35.9750   29.6700   49.4640 C   0  0  0  0  0  0  0  0  0  0  0  0
   36.3630   29.3890   50.7180 N   0  0  0  0  0  0  0  0  0  0  0  0
   38.5860   32.1610   48.4250 C   0  0  0  0  0  0  0  0  0  0  0  0
   38.7930   33.4580   49.1650 C   0  0  0  0  0  0  0  0  0  0  0  0
   28.3640   27.1980   51.7680 N   0  0  0  0  0  0  0  0  0  0  0  0
   35.5590   28.4071   46.8961 H   0  0  0  0  0  0  0  0  0  0  0  0
   33.0882   27.4296   46.5679 H   0  0  0  0  0  0  0  0  0  0  0  0
   30.8487   27.4831   46.7946 H   0  0  0  0  0  0  0  0  0  0  0  0
   26.2561   26.2002   47.8539 H   0  0  0  0  0  0  0  0  0  0  0  0
   37.7441   29.7197   52.2949 H   0  0  0  0  0  0  0  0  0  0  0  0
   39.0885   31.3983   50.9116 H   0  0  0  0  0  0  0  0  0  0  0  0
   38.0644   32.3734   47.4801 H   0  0  0  0  0  0  0  0  0  0  0  0
   39.5761   31.7150   48.2493 H   0  0  0  0  0  0  0  0  0  0  0  0
   38.7631   33.2707   50.2485 H   0  0  0  0  0  0  0  0  0  0  0  0
   39.7704   33.8833   48.8932 H   0  0  0  0  0  0  0  0  0  0  0  0
   37.9965   34.1664   48.8932 H   0  0  0  0  0  0  0  0  0  0  0  0
   27.5298   26.9989   52.3385 H   0  0  0  0  0  0  0  0  0  0  0  0
   29.2370   27.5035   52.2213 H   0  0  0  0  0  0  0  0  0  0  0  0
  1  5  2  0
  1 19  1  0
  2  1  1  0
  3  2  2  0
  3  4  1  0
  4  7  1  0
  4  5  1  0
  6 14  1  0
  6  7  1  0
  7  8  2  0
  9  8  1  0
  9 10  2  0
 10 23  1  0
 11 10  1  0
 12 11  2  0
 13 14  2  0
 13 12  1  0
 14  9  1  0
 16 15  2  0
 17 16  1  0
 18 17  2  0
 18 19  1  0
 19 20  2  0
 20 15  1  0
 21 22  1  0
 21 17  1  0
  2 24  1  0
  3 25  1  0
  6 26  1  0
 12 27  1  0
 15 28  1  0
 16 29  1  0
 21 30  1  0
 21 31  1  0
 22 32  1  0
 22 33  1  0
 22 34  1  0
 23 35  1  0
 23 36  1  0
M  ISO  8  24  14  25  14  26   9  27  14  28  14  29  14  30   8  31   8
M  ISO  3  32   8  33   8  34   8
M  END
>  <minimizedAffinity>  (1) 
-7.05107641

>  <minimizedRMSD>  (1) 
0.666005909

$$$$
