
     RDKit          3D

 31 33  0  0  0  0  0  0  0  0999 V2000
   35.7240   29.9940   47.5630 C   0  0  0  0  0  0  0  0  0  0  0  0
   35.8990   29.2790   48.7610 C   0  0  0  0  0  0  0  0  0  0  0  0
   36.8430   29.5000   49.7010 C   0  0  0  0  0  0  0  0  0  0  0  0
   37.7400   30.4930   49.5340 C   0  0  0  0  0  0  0  0  0  0  0  0
   37.5830   31.1900   48.3820 C   0  0  0  0  0  0  0  0  0  0  0  0
   36.6420   30.9230   47.5090 N   0  0  0  0  0  0  0  0  0  0  0  0
   33.4700   29.2770   47.4090 C   0  0  0  0  0  0  0  0  0  0  0  0
   34.6310   29.6540   46.6670 C   0  0  0  0  0  0  0  0  0  0  0  0
   34.5150   29.6540   45.3040 C   0  0  0  0  0  0  0  0  0  0  0  0
   33.3030   29.2960   44.7730 N   0  0  0  0  0  0  0  0  0  0  0  0
   32.2300   28.9490   45.4770 C   0  0  0  0  0  0  0  0  0  0  0  0
   32.3370   28.9450   46.8100 N   0  0  0  0  0  0  0  0  0  0  0  0
   31.0710   28.6280   44.7550 N   0  0  0  0  0  0  0  0  0  0  0  0
   35.6690   30.0300   44.4800 C   0  0  0  0  0  0  0  0  0  0  0  0
   36.7250   29.3560   44.8870 F   0  0  0  0  0  0  0  0  0  0  0  0
   35.4870   29.8240   43.1250 F   0  0  0  0  0  0  0  0  0  0  0  0
   35.9590   31.4180   44.6230 F   0  0  0  0  0  0  0  0  0  0  0  0
   38.5380   32.3160   48.1080 C   0  0  0  0  0  0  0  0  0  0  0  0
   39.2380   32.5470   47.0140 C   0  0  0  0  0  0  0  0  0  0  0  0
   40.0660   33.6350   46.9440 C   0  0  0  0  0  0  0  0  0  0  0  0
   40.1080   34.4500   48.0770 C   0  0  0  0  0  0  0  0  0  0  0  0
   38.8970   33.5600   49.2350 S   0  0  0  0  0  0  0  0  0  0  0  0
   35.1951   28.4556   48.9520 H   0  0  0  0  0  0  0  0  0  0  0  0
   36.8802   28.8705   50.6023 H   0  0  0  0  0  0  0  0  0  0  0  0
   38.5287   30.7174   50.2672 H   0  0  0  0  0  0  0  0  0  0  0  0
   33.5187   29.2621   48.5078 H   0  0  0  0  0  0  0  0  0  0  0  0
   30.2130   28.3529   45.2541 H   0  0  0  0  0  0  0  0  0  0  0  0
   31.0779   28.6674   43.7258 H   0  0  0  0  0  0  0  0  0  0  0  0
   39.1562   31.8637   46.1558 H   0  0  0  0  0  0  0  0  0  0  0  0
   40.6637   33.8545   46.0470 H   0  0  0  0  0  0  0  0  0  0  0  0
   40.6901   35.3668   48.2521 H   0  0  0  0  0  0  0  0  0  0  0  0
  1  2  2  0
  2  3  1  0
  4  3  2  0
  5  4  1  0
  6  1  1  0
  6  5  2  0
  8  7  2  0
  8  1  1  0
  9  8  1  0
 10  9  2  0
 10 11  1  0
 11 12  2  0
 12  7  1  0
 13 11  1  0
 14 17  1  0
 14 15  1  0
 14  9  1  0
 16 14  1  0
 18  5  1  0
 18 22  1  0
 19 18  2  0
 20 19  1  0
 20 21  2  0
 21 22  1  0
  2 23  1  0
  3 24  1  0
  4 25  1  0
  7 26  1  0
 13 27  1  0
 13 28  1  0
 19 29  1  0
 20 30  1  0
 21 31  1  0
M  ISO  7  23  14  24  14  25  14  26  14  29  14  30  14  31  14
M  END
>  <minimizedAffinity>  (1) 
-4.68524885

>  <minimizedRMSD>  (1) 
2.92305875

$$$$
