
     RDKit          3D

 30 32  0  0  0  0  0  0  0  0999 V2000
   35.9940   30.2930   48.6080 C   0  0  0  0  0  0  0  0  0  0  0  0
   35.9730   29.3080   49.5300 C   0  0  0  0  0  0  0  0  0  0  0  0
   34.9810   28.3680   49.5080 C   0  0  0  0  0  0  0  0  0  0  0  0
   34.0140   28.4430   48.5400 N   0  0  0  0  0  0  0  0  0  0  0  0
   34.0580   29.4260   47.6400 C   0  0  0  0  0  0  0  0  0  0  0  0
   35.0350   30.3600   47.6540 N   0  0  0  0  0  0  0  0  0  0  0  0
   33.0540   29.5040   46.6340 N   0  0  0  0  0  0  0  0  0  0  0  0
   31.7690   28.8320   46.5710 C   0  0  0  0  0  0  0  0  0  0  0  0
   30.8580   29.8000   45.8060 C   0  0  0  0  0  0  0  0  0  0  0  0
   31.7500   30.9760   45.4520 C   0  0  0  0  0  0  0  0  0  0  0  0
   33.1040   30.2980   45.4200 C   0  0  0  0  0  0  0  0  0  0  0  0
   38.1190   33.1500   49.5330 C   0  0  0  0  0  0  0  0  0  0  0  0
   39.0320   33.2180   48.4560 C   0  0  0  0  0  0  0  0  0  0  0  0
   38.8930   32.2580   47.4130 C   0  0  0  0  0  0  0  0  0  0  0  0
   37.8920   31.3490   47.5330 N   0  0  0  0  0  0  0  0  0  0  0  0
   37.0330   31.3190   48.5880 C   0  0  0  0  0  0  0  0  0  0  0  0
   37.1590   32.2210   49.5760 N   0  0  0  0  0  0  0  0  0  0  0  0
   36.7561   29.2614   50.3011 H   0  0  0  0  0  0  0  0  0  0  0  0
   34.9592   27.5626   50.2569 H   0  0  0  0  0  0  0  0  0  0  0  0
   31.8574   27.8764   46.0335 H   0  0  0  0  0  0  0  0  0  0  0  0
   31.3757   28.5935   47.5702 H   0  0  0  0  0  0  0  0  0  0  0  0
   30.4650   29.3241   44.8955 H   0  0  0  0  0  0  0  0  0  0  0  0
   29.9851   30.1060   46.4013 H   0  0  0  0  0  0  0  0  0  0  0  0
   31.4874   31.4044   44.4734 H   0  0  0  0  0  0  0  0  0  0  0  0
   31.6809   31.8277   46.1447 H   0  0  0  0  0  0  0  0  0  0  0  0
   33.2156   29.6636   44.5283 H   0  0  0  0  0  0  0  0  0  0  0  0
   33.9548   30.9936   45.3717 H   0  0  0  0  0  0  0  0  0  0  0  0
   38.2004   33.8777   50.3539 H   0  0  0  0  0  0  0  0  0  0  0  0
   39.8208   33.9841   48.4245 H   0  0  0  0  0  0  0  0  0  0  0  0
   39.5693   32.2534   46.5455 H   0  0  0  0  0  0  0  0  0  0  0  0
  1  2  2  0
  3  2  1  0
  4  3  2  0
  5  6  2  0
  5  4  1  0
  6  1  1  0
  7  5  1  0
  8  7  1  0
  9  8  1  0
 10  9  1  0
 11 10  1  0
 11  7  1  0
 12 17  2  0
 13 12  1  0
 14 15  1  0
 14 13  2  0
 15 16  2  0
 16  1  1  0
 16 17  1  0
  2 18  1  0
  3 19  1  0
  8 20  1  0
  8 21  1  0
  9 22  1  0
  9 23  1  0
 10 24  1  0
 10 25  1  0
 11 26  1  0
 11 27  1  0
 12 28  1  0
 13 29  1  0
 14 30  1  0
M  ISO  8  18  14  19  14  20  13  21  13  22  13  23  13  24  13  25  13
M  ISO  5  26  13  27  13  28  14  29  14  30  14
M  END
>  <minimizedAffinity>  (1) 
-5.26051474

>  <minimizedRMSD>  (1) 
0.107479833

$$$$
