
     RDKit          3D

 32 34  0  0  0  0  0  0  0  0999 V2000
   35.9400   30.2250   48.5840 C   0  0  0  0  0  0  0  0  0  0  0  0
   35.8540   29.2970   49.5610 C   0  0  0  0  0  0  0  0  0  0  0  0
   34.8730   28.3600   49.5630 C   0  0  0  0  0  0  0  0  0  0  0  0
   33.9580   28.3610   48.5570 N   0  0  0  0  0  0  0  0  0  0  0  0
   34.0540   29.2920   47.5890 C   0  0  0  0  0  0  0  0  0  0  0  0
   35.0310   30.2180   47.5940 N   0  0  0  0  0  0  0  0  0  0  0  0
   33.0450   29.2830   46.4900 C   0  0  0  0  0  0  0  0  0  0  0  0
   32.6290   30.6850   46.1180 C   0  0  0  0  0  0  0  0  0  0  0  0
   31.7350   30.5900   44.8980 C   0  0  0  0  0  0  0  0  0  0  0  0
   30.8210   29.5590   44.9800 O   0  0  0  0  0  0  0  0  0  0  0  0
   30.5950   29.1270   46.2950 C   0  0  0  0  0  0  0  0  0  0  0  0
   31.8180   28.5080   46.9050 C   0  0  0  0  0  0  0  0  0  0  0  0
   38.0800   33.0670   49.4830 C   0  0  0  0  0  0  0  0  0  0  0  0
   38.9680   33.1470   48.4130 C   0  0  0  0  0  0  0  0  0  0  0  0
   38.8180   32.2060   47.3770 C   0  0  0  0  0  0  0  0  0  0  0  0
   37.8200   31.2890   47.4930 N   0  0  0  0  0  0  0  0  0  0  0  0
   36.9760   31.2430   48.5490 C   0  0  0  0  0  0  0  0  0  0  0  0
   37.1100   32.1410   49.5480 N   0  0  0  0  0  0  0  0  0  0  0  0
   36.5958   29.3008   50.3733 H   0  0  0  0  0  0  0  0  0  0  0  0
   34.8185   27.6106   50.3664 H   0  0  0  0  0  0  0  0  0  0  0  0
   33.5145   28.8028   45.6188 H   0  0  0  0  0  0  0  0  0  0  0  0
   32.0786   31.1463   46.9512 H   0  0  0  0  0  0  0  0  0  0  0  0
   33.5116   31.3052   45.9025 H   0  0  0  0  0  0  0  0  0  0  0  0
   32.3666   30.4293   44.0119 H   0  0  0  0  0  0  0  0  0  0  0  0
   31.1670   31.5297   44.8314 H   0  0  0  0  0  0  0  0  0  0  0  0
   30.2932   29.9911   46.9051 H   0  0  0  0  0  0  0  0  0  0  0  0
   29.8057   28.3613   46.2685 H   0  0  0  0  0  0  0  0  0  0  0  0
   31.9103   27.4670   46.5617 H   0  0  0  0  0  0  0  0  0  0  0  0
   31.7280   28.5304   48.0011 H   0  0  0  0  0  0  0  0  0  0  0  0
   38.1771   33.7901   50.3062 H   0  0  0  0  0  0  0  0  0  0  0  0
   39.7550   33.9148   48.3789 H   0  0  0  0  0  0  0  0  0  0  0  0
   39.4856   32.2120   46.5027 H   0  0  0  0  0  0  0  0  0  0  0  0
  1  2  2  0
  2  3  1  0
  4  3  2  0
  5  6  2  0
  5  4  1  0
  6  1  1  0
  7 12  1  0
  7  5  1  0
  8  7  1  0
  9 10  1  0
  9  8  1  0
 10 11  1  0
 11 12  1  0
 13 18  2  0
 14 13  1  0
 15 16  1  0
 15 14  2  0
 16 17  2  0
 17  1  1  0
 17 18  1  0
  2 19  1  0
  3 20  1  0
  7 21  1  0
  8 22  1  0
  8 23  1  0
  9 24  1  0
  9 25  1  0
 11 26  1  0
 11 27  1  0
 12 28  1  0
 12 29  1  0
 13 30  1  0
 14 31  1  0
 15 32  1  0
M  ISO  8  19  14  20  14  21  13  22  13  23  13  24  13  25  13  26  13
M  ISO  6  27  13  28  13  29  13  30  14  31  14  32  14
M  END
>  <minimizedAffinity>  (1) 
-5.10378361

>  <minimizedRMSD>  (1) 
0.228717372

$$$$
