
     RDKit          3D

 31 33  0  0  0  0  0  0  0  0999 V2000
   36.3990   30.4020   49.1500 C   0  0  0  0  0  0  0  0  0  0  0  0
   36.1480   30.0720   50.4460 C   0  0  0  0  0  0  0  0  0  0  0  0
   35.2160   29.1170   50.7380 C   0  0  0  0  0  0  0  0  0  0  0  0
   34.5420   28.5030   49.7230 N   0  0  0  0  0  0  0  0  0  0  0  0
   34.8050   28.8460   48.4580 C   0  0  0  0  0  0  0  0  0  0  0  0
   35.7260   29.7880   48.1640 N   0  0  0  0  0  0  0  0  0  0  0  0
   38.4910   33.4160   49.1650 C   0  0  0  0  0  0  0  0  0  0  0  0
   39.2560   33.2780   48.0040 C   0  0  0  0  0  0  0  0  0  0  0  0
   39.0370   32.1320   47.2220 C   0  0  0  0  0  0  0  0  0  0  0  0
   38.0960   31.2410   47.6510 N   0  0  0  0  0  0  0  0  0  0  0  0
   37.3780   31.4090   48.7760 C   0  0  0  0  0  0  0  0  0  0  0  0
   37.5820   32.5090   49.5380 N   0  0  0  0  0  0  0  0  0  0  0  0
   34.0330   28.1350   47.3910 C   0  0  0  0  0  0  0  0  0  0  0  0
   33.7080   26.7190   47.8170 C   0  0  0  0  0  0  0  0  0  0  0  0
   32.6400   26.3820   46.7660 C   0  0  0  0  0  0  0  0  0  0  0  0
   31.7250   27.5970   46.9580 C   0  0  0  0  0  0  0  0  0  0  0  0
   32.7130   28.7640   47.0760 C   0  0  0  0  0  0  0  0  0  0  0  0
   36.6951   30.5738   51.2577 H   0  0  0  0  0  0  0  0  0  0  0  0
   35.0104   28.8450   51.7838 H   0  0  0  0  0  0  0  0  0  0  0  0
   38.6422   34.3043   49.7960 H   0  0  0  0  0  0  0  0  0  0  0  0
   39.9991   34.0356   47.7144 H   0  0  0  0  0  0  0  0  0  0  0  0
   39.6043   31.9584   46.2957 H   0  0  0  0  0  0  0  0  0  0  0  0
   34.6878   28.1797   46.5083 H   0  0  0  0  0  0  0  0  0  0  0  0
   34.5825   26.0561   47.7416 H   0  0  0  0  0  0  0  0  0  0  0  0
   33.3899   26.6045   48.8637 H   0  0  0  0  0  0  0  0  0  0  0  0
   32.1237   25.4370   46.9905 H   0  0  0  0  0  0  0  0  0  0  0  0
   33.0141   26.2278   45.7431 H   0  0  0  0  0  0  0  0  0  0  0  0
   31.0589   27.7299   46.0927 H   0  0  0  0  0  0  0  0  0  0  0  0
   31.0611   27.5038   47.8301 H   0  0  0  0  0  0  0  0  0  0  0  0
   32.7676   29.3196   46.1282 H   0  0  0  0  0  0  0  0  0  0  0  0
   32.4069   29.4831   47.8500 H   0  0  0  0  0  0  0  0  0  0  0  0
  1  2  2  0
  2  3  1  0
  4  3  2  0
  5  4  1  0
  6  5  2  0
  6  1  1  0
  7 12  2  0
  8  7  1  0
  9 10  1  0
  9  8  2  0
 10 11  2  0
 11  1  1  0
 11 12  1  0
 13 14  1  0
 13  5  1  0
 15 16  1  0
 15 14  1  0
 16 17  1  0
 17 13  1  0
  2 18  1  0
  3 19  1  0
  7 20  1  0
  8 21  1  0
  9 22  1  0
 13 23  1  0
 14 24  1  0
 14 25  1  0
 15 26  1  0
 15 27  1  0
 16 28  1  0
 16 29  1  0
 17 30  1  0
 17 31  1  0
M  ISO  8  18  14  19  14  20  14  21  14  22  14  23  13  24  13  25  13
M  ISO  6  26  13  27  13  28  13  29  13  30  13  31  13
M  END
>  <minimizedAffinity>  (1) 
-5.02912474

>  <minimizedRMSD>  (1) 
1.40719759

$$$$
