
     RDKit          3D

 22 23  0  0  0  0  0  0  0  0999 V2000
   35.9210   30.2430   48.6290 C   0  0  0  0  0  0  0  0  0  0  0  0
   35.9430   29.2120   49.5070 C   0  0  0  0  0  0  0  0  0  0  0  0
   34.9270   28.3050   49.5130 C   0  0  0  0  0  0  0  0  0  0  0  0
   33.8980   28.4290   48.6490 N   0  0  0  0  0  0  0  0  0  0  0  0
   33.8920   29.4630   47.7810 C   0  0  0  0  0  0  0  0  0  0  0  0
   34.8880   30.3760   47.7560 N   0  0  0  0  0  0  0  0  0  0  0  0
   31.7130   28.7180   46.7930 C   0  0  0  0  0  0  0  0  0  0  0  0
   31.7740   27.7760   47.6250 O   0  0  0  0  0  0  0  0  0  0  0  0
   32.8180   29.6240   46.8540 N   0  0  0  0  0  0  0  0  0  0  0  0
   38.1130   33.0580   49.4710 C   0  0  0  0  0  0  0  0  0  0  0  0
   38.9780   33.1370   48.3780 C   0  0  0  0  0  0  0  0  0  0  0  0
   38.7880   32.2000   47.3490 C   0  0  0  0  0  0  0  0  0  0  0  0
   37.7850   31.2930   47.4900 N   0  0  0  0  0  0  0  0  0  0  0  0
   36.9700   31.2510   48.5630 C   0  0  0  0  0  0  0  0  0  0  0  0
   37.1450   32.1470   49.5560 N   0  0  0  0  0  0  0  0  0  0  0  0
   36.7795   29.1074   50.2136 H   0  0  0  0  0  0  0  0  0  0  0  0
   34.9454   27.4673   50.2257 H   0  0  0  0  0  0  0  0  0  0  0  0
   30.8826   28.8345   46.0811 H   0  0  0  0  0  0  0  0  0  0  0  0
   32.8399   30.4231   46.2045 H   0  0  0  0  0  0  0  0  0  0  0  0
   38.2357   33.7766   50.2947 H   0  0  0  0  0  0  0  0  0  0  0  0
   39.7711   33.8974   48.3251 H   0  0  0  0  0  0  0  0  0  0  0  0
   39.4310   32.2000   46.4565 H   0  0  0  0  0  0  0  0  0  0  0  0
  1  2  2  0
  2  3  1  0
  4  3  2  0
  5  4  1  0
  6  5  2  0
  6  1  1  0
  7  9  1  0
  7  8  2  0
  9  5  1  0
 10 15  2  0
 11 10  1  0
 12 13  1  0
 12 11  2  0
 13 14  2  0
 14  1  1  0
 14 15  1  0
  2 16  1  0
  3 17  1  0
  7 18  1  0
  9 19  1  0
 10 20  1  0
 11 21  1  0
 12 22  1  0
M  ISO  6  16  14  17  14  18   6  20  14  21  14  22  14
M  END
>  <minimizedAffinity>  (1) 
-5.00191641

>  <minimizedRMSD>  (1) 
0.122749522

$$$$
