
     RDKit          3D

 21 22  0  0  0  0  0  0  0  0999 V2000
   35.9870   30.3040   48.5780 C   0  0  0  0  0  0  0  0  0  0  0  0
   35.9710   29.2970   49.5020 C   0  0  0  0  0  0  0  0  0  0  0  0
   34.9680   28.3690   49.4690 C   0  0  0  0  0  0  0  0  0  0  0  0
   33.9990   28.4460   48.5310 N   0  0  0  0  0  0  0  0  0  0  0  0
   34.0400   29.4470   47.6350 C   0  0  0  0  0  0  0  0  0  0  0  0
   35.0200   30.3810   47.6400 N   0  0  0  0  0  0  0  0  0  0  0  0
   38.1270   33.1230   49.5420 C   0  0  0  0  0  0  0  0  0  0  0  0
   39.0190   33.2330   48.4770 C   0  0  0  0  0  0  0  0  0  0  0  0
   38.8610   32.3130   47.4240 C   0  0  0  0  0  0  0  0  0  0  0  0
   37.8640   31.3790   47.4980 N   0  0  0  0  0  0  0  0  0  0  0  0
   37.0280   31.3210   48.5590 C   0  0  0  0  0  0  0  0  0  0  0  0
   37.1630   32.2020   49.5860 N   0  0  0  0  0  0  0  0  0  0  0  0
   32.9910   29.5790   46.5710 C   0  0  0  0  0  0  0  0  0  0  0  0
   33.4460   29.1450   45.3370 F   0  0  0  0  0  0  0  0  0  0  0  0
   32.6370   30.9220   46.4100 F   0  0  0  0  0  0  0  0  0  0  0  0
   31.8320   28.9260   46.9640 F   0  0  0  0  0  0  0  0  0  0  0  0
   36.7594   29.2339   50.2665 H   0  0  0  0  0  0  0  0  0  0  0  0
   34.9498   27.5558   50.2096 H   0  0  0  0  0  0  0  0  0  0  0  0
   38.2219   33.8260   50.3827 H   0  0  0  0  0  0  0  0  0  0  0  0
   39.8069   34.0004   48.4603 H   0  0  0  0  0  0  0  0  0  0  0  0
   39.5309   32.3444   46.5521 H   0  0  0  0  0  0  0  0  0  0  0  0
  1  2  2  0
  3  2  1  0
  4  3  2  0
  5  6  2  0
  5  4  1  0
  6  1  1  0
  7 12  2  0
  8  7  1  0
  9 10  1  0
  9  8  2  0
 10 11  2  0
 11  1  1  0
 11 12  1  0
 13 16  1  0
 13  5  1  0
 14 13  1  0
 15 13  1  0
  2 17  1  0
  3 18  1  0
  7 19  1  0
  8 20  1  0
  9 21  1  0
M  ISO  5  17  14  18  14  19  14  20  14  21  14
M  END
>  <minimizedAffinity>  (1) 
-4.83512878

>  <minimizedRMSD>  (1) 
0.296870708

$$$$
