
     RDKit          3D

 20 21  0  0  0  0  0  0  0  0999 V2000
   35.9190   30.2590   48.6120 C   0  0  0  0  0  0  0  0  0  0  0  0
   35.9720   29.2080   49.4740 C   0  0  0  0  0  0  0  0  0  0  0  0
   34.9410   28.3020   49.4750 C   0  0  0  0  0  0  0  0  0  0  0  0
   33.8930   28.4530   48.6340 N   0  0  0  0  0  0  0  0  0  0  0  0
   33.8760   29.5010   47.7980 C   0  0  0  0  0  0  0  0  0  0  0  0
   34.8710   30.4240   47.7590 N   0  0  0  0  0  0  0  0  0  0  0  0
   32.8070   29.7350   46.8770 N   0  0  0  0  0  0  0  0  0  0  0  0
   38.1280   33.0680   49.4830 C   0  0  0  0  0  0  0  0  0  0  0  0
   38.9930   33.1400   48.3920 C   0  0  0  0  0  0  0  0  0  0  0  0
   38.7990   32.2040   47.3550 C   0  0  0  0  0  0  0  0  0  0  0  0
   37.7950   31.2990   47.4780 N   0  0  0  0  0  0  0  0  0  0  0  0
   36.9780   31.2640   48.5520 C   0  0  0  0  0  0  0  0  0  0  0  0
   37.1470   32.1540   49.5600 N   0  0  0  0  0  0  0  0  0  0  0  0
   36.8253   29.0865   50.1575 H   0  0  0  0  0  0  0  0  0  0  0  0
   34.9675   27.4462   50.1655 H   0  0  0  0  0  0  0  0  0  0  0  0
   32.8351   30.5536   46.2525 H   0  0  0  0  0  0  0  0  0  0  0  0
   32.0090   29.0849   46.8382 H   0  0  0  0  0  0  0  0  0  0  0  0
   38.2532   33.7840   50.3086 H   0  0  0  0  0  0  0  0  0  0  0  0
   39.7922   33.8942   48.3422 H   0  0  0  0  0  0  0  0  0  0  0  0
   39.4471   32.2074   46.4662 H   0  0  0  0  0  0  0  0  0  0  0  0
  1  2  2  0
  2  3  1  0
  4  3  2  0
  5  4  1  0
  6  5  2  0
  6  1  1  0
  7  5  1  0
  8 13  2  0
  9  8  1  0
 10 11  1  0
 10  9  2  0
 11 12  2  0
 12  1  1  0
 12 13  1  0
  2 14  1  0
  3 15  1  0
  7 16  1  0
  7 17  1  0
  8 18  1  0
  9 19  1  0
 10 20  1  0
M  ISO  5  14  14  15  14  18  14  19  14  20  14
M  END
>  <minimizedAffinity>  (1) 
-4.66683435

>  <minimizedRMSD>  (1) 
0.123417467

$$$$
