
     RDKit          3D

 19 20  0  0  0  0  0  0  0  0999 V2000
   35.9730   30.2670   48.5770 C   0  0  0  0  0  0  0  0  0  0  0  0
   35.9300   29.2720   49.4880 C   0  0  0  0  0  0  0  0  0  0  0  0
   34.9320   28.3450   49.4530 C   0  0  0  0  0  0  0  0  0  0  0  0
   33.9720   28.4270   48.4890 N   0  0  0  0  0  0  0  0  0  0  0  0
   34.0300   29.4250   47.5900 C   0  0  0  0  0  0  0  0  0  0  0  0
   35.0180   30.3500   47.6180 N   0  0  0  0  0  0  0  0  0  0  0  0
   38.0820   33.1300   49.5110 C   0  0  0  0  0  0  0  0  0  0  0  0
   39.0070   33.1910   48.4700 C   0  0  0  0  0  0  0  0  0  0  0  0
   38.8890   32.2340   47.4490 C   0  0  0  0  0  0  0  0  0  0  0  0
   37.8900   31.3080   47.5300 N   0  0  0  0  0  0  0  0  0  0  0  0
   37.0170   31.2920   48.5620 C   0  0  0  0  0  0  0  0  0  0  0  0
   37.1100   32.2040   49.5600 N   0  0  0  0  0  0  0  0  0  0  0  0
   32.8180   29.6390   46.2700 S   0  0  0  0  0  0  0  0  0  0  0  0
   36.7065   29.2090   50.2646 H   0  0  0  0  0  0  0  0  0  0  0  0
   34.9013   27.5360   50.1977 H   0  0  0  0  0  0  0  0  0  0  0  0
   38.1506   33.8684   50.3235 H   0  0  0  0  0  0  0  0  0  0  0  0
   39.7964   33.9568   48.4491 H   0  0  0  0  0  0  0  0  0  0  0  0
   39.5886   32.2309   46.6001 H   0  0  0  0  0  0  0  0  0  0  0  0
   31.5810   29.8574   46.8168 H   0  0  0  0  0  0  0  0  0  0  0  0
  1  2  2  0
  3  2  1  0
  4  3  2  0
  5  6  2  0
  5  4  1  0
  6  1  1  0
  7 12  2  0
  8  7  1  0
  9 10  1  0
  9  8  2  0
 10 11  2  0
 11  1  1  0
 11 12  1  0
 13  5  1  0
  2 14  1  0
  3 15  1  0
  7 16  1  0
  8 17  1  0
  9 18  1  0
 13 19  1  0
M  ISO  6  14  14  15  14  16  14  17  14  18  14  19  11
M  END
>  <minimizedAffinity>  (1) 
-4.51366234

>  <minimizedRMSD>  (1) 
0.100682668

$$$$
