
     RDKit          3D

 21 22  0  0  0  0  0  0  0  0999 V2000
   35.9370   30.2700   48.6300 C   0  0  0  0  0  0  0  0  0  0  0  0
   35.8790   29.3340   49.6060 C   0  0  0  0  0  0  0  0  0  0  0  0
   34.8650   28.4120   49.5960 C   0  0  0  0  0  0  0  0  0  0  0  0
   33.9240   28.4370   48.6140 N   0  0  0  0  0  0  0  0  0  0  0  0
   34.0070   29.3810   47.6550 C   0  0  0  0  0  0  0  0  0  0  0  0
   35.0050   30.2910   47.6620 N   0  0  0  0  0  0  0  0  0  0  0  0
   38.1160   33.0960   49.5080 C   0  0  0  0  0  0  0  0  0  0  0  0
   38.9870   33.1710   48.4210 C   0  0  0  0  0  0  0  0  0  0  0  0
   38.8090   32.2250   47.3730 C   0  0  0  0  0  0  0  0  0  0  0  0
   37.8080   31.3260   47.5140 N   0  0  0  0  0  0  0  0  0  0  0  0
   36.9820   31.2780   48.5770 C   0  0  0  0  0  0  0  0  0  0  0  0
   37.1570   32.1750   49.5620 N   0  0  0  0  0  0  0  0  0  0  0  0
   32.9630   29.3770   46.5990 C   0  0  0  0  0  0  0  0  0  0  0  0
   36.6394   29.3135   50.4006 H   0  0  0  0  0  0  0  0  0  0  0  0
   34.8118   27.6482   50.3858 H   0  0  0  0  0  0  0  0  0  0  0  0
   38.2239   33.8118   50.3363 H   0  0  0  0  0  0  0  0  0  0  0  0
   39.7804   33.9316   48.3757 H   0  0  0  0  0  0  0  0  0  0  0  0
   39.4584   32.2247   46.4851 H   0  0  0  0  0  0  0  0  0  0  0  0
   31.9677   29.3732   47.0674 H   0  0  0  0  0  0  0  0  0  0  0  0
   33.0705   30.2756   45.9737 H   0  0  0  0  0  0  0  0  0  0  0  0
   33.0774   28.4793   45.9737 H   0  0  0  0  0  0  0  0  0  0  0  0
  1  2  2  0
  3  2  1  0
  4  3  2  0
  5  6  2  0
  5  4  1  0
  6  1  1  0
  7 12  2  0
  8  7  1  0
  9 10  1  0
  9  8  2  0
 10 11  2  0
 11  1  1  0
 11 12  1  0
 13  5  1  0
  2 14  1  0
  3 15  1  0
  7 16  1  0
  8 17  1  0
  9 18  1  0
 13 19  1  0
 13 20  1  0
 13 21  1  0
M  ISO  8  14  14  15  14  16  14  17  14  18  14  19   8  20   8  21   8
M  END
>  <minimizedAffinity>  (1) 
-4.50981045

>  <minimizedRMSD>  (1) 
0.0455960073

$$$$
