
     RDKit          3D

 33 36  0  0  0  0  0  0  0  0999 V2000
   37.5100   31.1250   49.5950 C   0  0  0  0  0  0  0  0  0  0  0  0
   37.7520   30.6710   50.8610 C   0  0  0  0  0  0  0  0  0  0  0  0
   36.9270   29.7140   51.3830 C   0  0  0  0  0  0  0  0  0  0  0  0
   35.8850   29.2290   50.6500 N   0  0  0  0  0  0  0  0  0  0  0  0
   35.6830   29.6980   49.4180 C   0  0  0  0  0  0  0  0  0  0  0  0
   36.4810   30.6440   48.8730 N   0  0  0  0  0  0  0  0  0  0  0  0
   34.5720   29.1810   48.6340 C   0  0  0  0  0  0  0  0  0  0  0  0
   34.5030   29.3790   47.2770 C   0  0  0  0  0  0  0  0  0  0  0  0
   33.5230   28.9550   46.4050 C   0  0  0  0  0  0  0  0  0  0  0  0
   32.4980   28.2440   47.0170 C   0  0  0  0  0  0  0  0  0  0  0  0
   31.4930   27.7900   46.2300 N   0  0  0  0  0  0  0  0  0  0  0  0
   30.4510   27.0910   46.7160 C   0  0  0  0  0  0  0  0  0  0  0  0
   30.4040   26.8240   48.0800 C   0  0  0  0  0  0  0  0  0  0  0  0
   31.4280   27.2830   48.8960 C   0  0  0  0  0  0  0  0  0  0  0  0
   32.5010   28.0060   48.3800 C   0  0  0  0  0  0  0  0  0  0  0  0
   33.5250   28.4680   49.1800 C   0  0  0  0  0  0  0  0  0  0  0  0
   39.4930   34.1830   49.0640 C   0  0  0  0  0  0  0  0  0  0  0  0
   39.9420   34.0340   47.7480 C   0  0  0  0  0  0  0  0  0  0  0  0
   39.5520   32.8610   47.0420 C   0  0  0  0  0  0  0  0  0  0  0  0
   38.7660   31.9640   47.7000 N   0  0  0  0  0  0  0  0  0  0  0  0
   38.3560   32.1510   48.9730 C   0  0  0  0  0  0  0  0  0  0  0  0
   38.7250   33.2590   49.6410 N   0  0  0  0  0  0  0  0  0  0  0  0
   38.5935   31.0675   51.4481 H   0  0  0  0  0  0  0  0  0  0  0  0
   37.1049   29.3334   52.3996 H   0  0  0  0  0  0  0  0  0  0  0  0
   35.3327   29.9464   46.8302 H   0  0  0  0  0  0  0  0  0  0  0  0
   33.5500   29.1605   45.3247 H   0  0  0  0  0  0  0  0  0  0  0  0
   29.6520   26.7377   46.0475 H   0  0  0  0  0  0  0  0  0  0  0  0
   29.5647   26.2555   48.5070 H   0  0  0  0  0  0  0  0  0  0  0  0
   31.3917   27.0712   49.9748 H   0  0  0  0  0  0  0  0  0  0  0  0
   33.5067   28.2665   50.2612 H   0  0  0  0  0  0  0  0  0  0  0  0
   39.7790   35.0795   49.6336 H   0  0  0  0  0  0  0  0  0  0  0  0
   40.5757   34.7981   47.2740 H   0  0  0  0  0  0  0  0  0  0  0  0
   39.8731   32.6857   46.0046 H   0  0  0  0  0  0  0  0  0  0  0  0
  1  2  2  0
  2  3  1  0
  4  3  2  0
  5  4  1  0
  6  5  2  0
  6  1  1  0
  7 16  1  0
  7  5  1  0
  8  7  2  0
  9 10  2  0
  9  8  1  0
 10 15  1  0
 11 12  2  0
 11 10  1  0
 12 13  1  0
 13 14  2  0
 15 14  1  0
 15 16  2  0
 17 22  2  0
 18 17  1  0
 19 20  1  0
 19 18  2  0
 20 21  2  0
 21  1  1  0
 21 22  1  0
  2 23  1  0
  3 24  1  0
  8 25  1  0
  9 26  1  0
 12 27  1  0
 13 28  1  0
 14 29  1  0
 16 30  1  0
 17 31  1  0
 18 32  1  0
 19 33  1  0
M  ISO  8  23  14  24  14  25  14  26  14  27  14  28  14  29  14  30  14
M  ISO  3  31  14  32  14  33  14
M  END
>  <minimizedAffinity>  (1) 
-6.3879776

>  <minimizedRMSD>  (1) 
3.15654993

$$$$
