
     RDKit          3D

 46 51  0  0  0  0  0  0  0  0999 V2000
   37.3630   30.9820   49.5710 C   0  0  0  0  0  0  0  0  0  0  0  0
   37.5990   30.6280   50.8790 C   0  0  0  0  0  0  0  0  0  0  0  0
   36.7730   29.7160   51.4730 C   0  0  0  0  0  0  0  0  0  0  0  0
   35.7350   29.1690   50.7780 N   0  0  0  0  0  0  0  0  0  0  0  0
   35.5420   29.5410   49.5090 C   0  0  0  0  0  0  0  0  0  0  0  0
   36.3400   30.4400   48.8910 N   0  0  0  0  0  0  0  0  0  0  0  0
   34.4390   28.9570   48.7730 C   0  0  0  0  0  0  0  0  0  0  0  0
   34.4850   28.8340   47.3990 C   0  0  0  0  0  0  0  0  0  0  0  0
   33.5290   28.3080   46.5630 C   0  0  0  0  0  0  0  0  0  0  0  0
   32.3920   27.8570   47.2250 C   0  0  0  0  0  0  0  0  0  0  0  0
   31.3960   27.3200   46.4650 N   0  0  0  0  0  0  0  0  0  0  0  0
   30.2520   26.8520   47.0110 C   0  0  0  0  0  0  0  0  0  0  0  0
   30.0840   26.9210   48.3900 C   0  0  0  0  0  0  0  0  0  0  0  0
   31.1000   27.4670   49.1500 C   0  0  0  0  0  0  0  0  0  0  0  0
   32.2790   27.9480   48.5900 C   0  0  0  0  0  0  0  0  0  0  0  0
   33.2900   28.4910   49.3540 C   0  0  0  0  0  0  0  0  0  0  0  0
   39.4620   33.9110   48.8530 C   0  0  0  0  0  0  0  0  0  0  0  0
   39.8180   33.7030   47.5060 C   0  0  0  0  0  0  0  0  0  0  0  0
   39.3220   32.5470   46.8670 C   0  0  0  0  0  0  0  0  0  0  0  0
   38.5390   31.7160   47.5910 N   0  0  0  0  0  0  0  0  0  0  0  0
   38.2190   31.9540   48.8910 C   0  0  0  0  0  0  0  0  0  0  0  0
   38.6810   33.0470   49.5130 N   0  0  0  0  0  0  0  0  0  0  0  0
   39.2270   33.1210   44.5300 C   0  0  0  0  0  0  0  0  0  0  0  0
   39.6060   32.2060   45.4840 C   0  0  0  0  0  0  0  0  0  0  0  0
   40.2220   31.0420   45.0920 C   0  0  0  0  0  0  0  0  0  0  0  0
   40.4780   30.7490   43.7700 C   0  0  0  0  0  0  0  0  0  0  0  0
   41.0550   29.7020   43.1260 N   0  0  0  0  0  0  0  0  0  0  0  0
   41.0260   29.9790   41.8040 C   0  0  0  0  0  0  0  0  0  0  0  0
   40.4370   31.1800   41.6440 N   0  0  0  0  0  0  0  0  0  0  0  0
   40.0860   31.6850   42.8350 C   0  0  0  0  0  0  0  0  0  0  0  0
   39.4650   32.8690   43.1740 C   0  0  0  0  0  0  0  0  0  0  0  0
   38.4373   31.0710   51.4366 H   0  0  0  0  0  0  0  0  0  0  0  0
   36.9464   29.4211   52.5185 H   0  0  0  0  0  0  0  0  0  0  0  0
   35.4002   29.2026   46.9127 H   0  0  0  0  0  0  0  0  0  0  0  0
   33.6518   28.2492   45.4715 H   0  0  0  0  0  0  0  0  0  0  0  0
   29.4648   26.4226   46.3739 H   0  0  0  0  0  0  0  0  0  0  0  0
   29.1636   26.5495   48.8642 H   0  0  0  0  0  0  0  0  0  0  0  0
   30.9717   27.5237   50.2410 H   0  0  0  0  0  0  0  0  0  0  0  0
   33.1719   28.5508   50.4460 H   0  0  0  0  0  0  0  0  0  0  0  0
   39.8347   34.8047   49.3750 H   0  0  0  0  0  0  0  0  0  0  0  0
   40.4607   34.4174   46.9707 H   0  0  0  0  0  0  0  0  0  0  0  0
   38.7341   34.0561   44.8343 H   0  0  0  0  0  0  0  0  0  0  0  0
   40.5221   30.3166   45.8625 H   0  0  0  0  0  0  0  0  0  0  0  0
   41.4427   28.8542   43.5640 H   0  0  0  0  0  0  0  0  0  0  0  0
   41.4148   29.3370   40.9999 H   0  0  0  0  0  0  0  0  0  0  0  0
   39.1659   33.5933   42.4020 H   0  0  0  0  0  0  0  0  0  0  0  0
  1  2  2  0
  2  3  1  0
  4  3  2  0
  5  4  1  0
  6  5  2  0
  6  1  1  0
  7 16  1  0
  7  5  1  0
  8  7  2  0
  9 10  2  0
  9  8  1  0
 10 15  1  0
 11 12  2  0
 11 10  1  0
 12 13  1  0
 13 14  2  0
 15 14  1  0
 15 16  2  0
 17 22  2  0
 18 17  1  0
 19 18  2  0
 19 20  1  0
 20 21  2  0
 21 22  1  0
 21  1  1  0
 23 24  2  0
 24 19  1  0
 25 24  1  0
 26 25  2  0
 27 26  1  0
 28 27  1  0
 29 28  2  0
 29 30  1  0
 30 31  2  0
 30 26  1  0
 31 23  1  0
  2 32  1  0
  3 33  1  0
  8 34  1  0
  9 35  1  0
 12 36  1  0
 13 37  1  0
 14 38  1  0
 16 39  1  0
 17 40  1  0
 18 41  1  0
 23 42  1  0
 25 43  1  0
 27 44  1  0
 28 45  1  0
 31 46  1  0
M  ISO  8  32  14  33  14  34  14  35  14  36  14  37  14  38  14  39  14
M  ISO  7  40  14  41  14  42  14  43  14  44   9  45  14  46  14
M  END
>  <minimizedAffinity>  (1) 
-8.53831959

>  <minimizedRMSD>  (1) 
0.566530228

$$$$
