
     RDKit          3D

 43 47  0  0  0  0  0  0  0  0999 V2000
   37.3130   30.9620   49.6560 C   0  0  0  0  0  0  0  0  0  0  0  0
   37.5370   30.5860   50.9620 C   0  0  0  0  0  0  0  0  0  0  0  0
   36.7130   29.6690   51.5310 C   0  0  0  0  0  0  0  0  0  0  0  0
   35.6890   29.1320   50.8280 N   0  0  0  0  0  0  0  0  0  0  0  0
   35.4950   29.5170   49.5570 C   0  0  0  0  0  0  0  0  0  0  0  0
   36.2960   30.4230   48.9700 N   0  0  0  0  0  0  0  0  0  0  0  0
   34.4020   28.9420   48.7990 C   0  0  0  0  0  0  0  0  0  0  0  0
   34.4640   28.8160   47.4370 C   0  0  0  0  0  0  0  0  0  0  0  0
   33.5110   28.2900   46.5880 C   0  0  0  0  0  0  0  0  0  0  0  0
   32.3630   27.8450   47.2310 C   0  0  0  0  0  0  0  0  0  0  0  0
   31.3830   27.3150   46.4620 N   0  0  0  0  0  0  0  0  0  0  0  0
   30.2270   26.8520   47.0000 C   0  0  0  0  0  0  0  0  0  0  0  0
   30.0390   26.9220   48.3670 C   0  0  0  0  0  0  0  0  0  0  0  0
   31.0420   27.4630   49.1460 C   0  0  0  0  0  0  0  0  0  0  0  0
   32.2340   27.9400   48.5960 C   0  0  0  0  0  0  0  0  0  0  0  0
   33.2360   28.4800   49.3670 C   0  0  0  0  0  0  0  0  0  0  0  0
   39.3890   33.9200   49.0010 C   0  0  0  0  0  0  0  0  0  0  0  0
   39.7500   33.7450   47.6510 C   0  0  0  0  0  0  0  0  0  0  0  0
   39.2660   32.5980   46.9870 C   0  0  0  0  0  0  0  0  0  0  0  0
   38.4870   31.7530   47.7050 N   0  0  0  0  0  0  0  0  0  0  0  0
   38.1580   31.9420   48.9880 C   0  0  0  0  0  0  0  0  0  0  0  0
   38.6170   33.0270   49.6150 N   0  0  0  0  0  0  0  0  0  0  0  0
   39.5750   32.3170   45.5980 C   0  0  0  0  0  0  0  0  0  0  0  0
   39.2040   33.1140   44.5460 C   0  0  0  0  0  0  0  0  0  0  0  0
   39.4910   32.8610   43.2190 C   0  0  0  0  0  0  0  0  0  0  0  0
   40.2170   31.6940   42.9660 C   0  0  0  0  0  0  0  0  0  0  0  0
   40.6230   30.8420   43.9930 C   0  0  0  0  0  0  0  0  0  0  0  0
   40.2820   31.1930   45.2840 C   0  0  0  0  0  0  0  0  0  0  0  0
   38.3694   31.0213   51.5344 H   0  0  0  0  0  0  0  0  0  0  0  0
   36.8794   29.3597   52.5734 H   0  0  0  0  0  0  0  0  0  0  0  0
   35.3868   29.1786   46.9606 H   0  0  0  0  0  0  0  0  0  0  0  0
   33.6486   28.2287   45.4984 H   0  0  0  0  0  0  0  0  0  0  0  0
   29.4462   26.4246   46.3537 H   0  0  0  0  0  0  0  0  0  0  0  0
   29.1091   26.5542   48.8252 H   0  0  0  0  0  0  0  0  0  0  0  0
   30.8979   27.5203   50.2350 H   0  0  0  0  0  0  0  0  0  0  0  0
   33.1038   28.5441   50.4571 H   0  0  0  0  0  0  0  0  0  0  0  0
   39.7480   34.8017   49.5521 H   0  0  0  0  0  0  0  0  0  0  0  0
   40.3869   34.4768   47.1325 H   0  0  0  0  0  0  0  0  0  0  0  0
   38.6335   34.0257   44.7768 H   0  0  0  0  0  0  0  0  0  0  0  0
   39.1685   33.5355   42.4121 H   0  0  0  0  0  0  0  0  0  0  0  0
   40.4756   31.4401   41.9274 H   0  0  0  0  0  0  0  0  0  0  0  0
   41.1932   29.9252   43.7824 H   0  0  0  0  0  0  0  0  0  0  0  0
   40.5973   30.5307   46.1037 H   0  0  0  0  0  0  0  0  0  0  0  0
  1  2  2  0
  2  3  1  0
  4  3  2  0
  5  4  1  0
  6  5  2  0
  6  1  1  0
  7 16  1  0
  7  5  1  0
  8  7  2  0
  9 10  2  0
  9  8  1  0
 10 15  1  0
 11 12  2  0
 11 10  1  0
 12 13  1  0
 13 14  2  0
 15 14  1  0
 15 16  2  0
 17 22  2  0
 18 17  1  0
 19 18  2  0
 19 20  1  0
 20 21  2  0
 21 22  1  0
 21  1  1  0
 23 19  1  0
 24 23  2  0
 25 24  1  0
 26 25  2  0
 26 27  1  0
 27 28  2  0
 28 23  1  0
  2 29  1  0
  3 30  1  0
  8 31  1  0
  9 32  1  0
 12 33  1  0
 13 34  1  0
 14 35  1  0
 16 36  1  0
 17 37  1  0
 18 38  1  0
 24 39  1  0
 25 40  1  0
 26 41  1  0
 27 42  1  0
 28 43  1  0
M  ISO  8  29  14  30  14  31  14  32  14  33  14  34  14  35  14  36  14
M  ISO  7  37  14  38  14  39  14  40  14  41  14  42  14  43  14
M  END
>  <minimizedAffinity>  (1) 
-7.79137897

>  <minimizedRMSD>  (1) 
0.448920399

$$$$
