
     RDKit          3D

 36 39  0  0  0  0  0  0  0  0999 V2000
   37.5920   31.2740   49.4410 C   0  0  0  0  0  0  0  0  0  0  0  0
   37.8600   30.7260   50.6750 C   0  0  0  0  0  0  0  0  0  0  0  0
   37.0270   29.7610   51.1570 C   0  0  0  0  0  0  0  0  0  0  0  0
   35.9520   29.3550   50.4240 N   0  0  0  0  0  0  0  0  0  0  0  0
   35.7240   29.9140   49.2270 C   0  0  0  0  0  0  0  0  0  0  0  0
   36.5280   30.8700   48.7200 N   0  0  0  0  0  0  0  0  0  0  0  0
   34.5730   29.4680   48.4570 C   0  0  0  0  0  0  0  0  0  0  0  0
   34.2080   30.1160   47.3080 C   0  0  0  0  0  0  0  0  0  0  0  0
   33.1530   29.8220   46.4710 C   0  0  0  0  0  0  0  0  0  0  0  0
   32.4010   28.7310   46.8810 C   0  0  0  0  0  0  0  0  0  0  0  0
   31.3380   28.3680   46.1120 N   0  0  0  0  0  0  0  0  0  0  0  0
   30.5440   27.3190   46.4270 C   0  0  0  0  0  0  0  0  0  0  0  0
   30.8170   26.5880   47.5680 C   0  0  0  0  0  0  0  0  0  0  0  0
   31.8950   26.9580   48.3460 C   0  0  0  0  0  0  0  0  0  0  0  0
   32.7150   28.0360   48.0260 C   0  0  0  0  0  0  0  0  0  0  0  0
   33.7850   28.3890   48.8140 C   0  0  0  0  0  0  0  0  0  0  0  0
   39.6060   34.3210   49.0320 C   0  0  0  0  0  0  0  0  0  0  0  0
   40.0630   34.2050   47.7050 C   0  0  0  0  0  0  0  0  0  0  0  0
   39.6660   33.0680   46.9660 C   0  0  0  0  0  0  0  0  0  0  0  0
   38.8710   32.1790   47.6060 N   0  0  0  0  0  0  0  0  0  0  0  0
   38.4480   32.3110   48.8730 C   0  0  0  0  0  0  0  0  0  0  0  0
   38.8230   33.3850   49.5690 N   0  0  0  0  0  0  0  0  0  0  0  0
   40.1060   32.8690   45.5530 C   0  0  0  0  0  0  0  0  0  0  0  0
   39.2730   31.9950   44.8850 F   0  0  0  0  0  0  0  0  0  0  0  0
   41.4240   32.4180   45.5000 F   0  0  0  0  0  0  0  0  0  0  0  0
   40.0780   34.0990   44.9410 F   0  0  0  0  0  0  0  0  0  0  0  0
   38.7292   31.0603   51.2604 H   0  0  0  0  0  0  0  0  0  0  0  0
   37.2228   29.3085   52.1403 H   0  0  0  0  0  0  0  0  0  0  0  0
   34.8314   30.9745   47.0176 H   0  0  0  0  0  0  0  0  0  0  0  0
   32.9283   30.3992   45.5620 H   0  0  0  0  0  0  0  0  0  0  0  0
   29.6927   27.0514   45.7839 H   0  0  0  0  0  0  0  0  0  0  0  0
   30.1887   25.7301   47.8496 H   0  0  0  0  0  0  0  0  0  0  0  0
   32.1148   26.3782   49.2546 H   0  0  0  0  0  0  0  0  0  0  0  0
   34.0133   27.8156   49.7245 H   0  0  0  0  0  0  0  0  0  0  0  0
   39.8987   35.1947   49.6329 H   0  0  0  0  0  0  0  0  0  0  0  0
   40.7086   34.9752   47.2579 H   0  0  0  0  0  0  0  0  0  0  0  0
  1  2  2  0
  2  3  1  0
  4  3  2  0
  5  4  1  0
  6  5  2  0
  6  1  1  0
  7 16  1  0
  7  5  1  0
  8  7  2  0
  9 10  2  0
  9  8  1  0
 10 15  1  0
 11 12  2  0
 11 10  1  0
 12 13  1  0
 13 14  2  0
 15 14  1  0
 15 16  2  0
 17 22  2  0
 18 17  1  0
 19 20  1  0
 19 18  2  0
 20 21  2  0
 21  1  1  0
 21 22  1  0
 23 19  1  0
 24 23  1  0
 25 23  1  0
 26 23  1  0
  2 27  1  0
  3 28  1  0
  8 29  1  0
  9 30  1  0
 12 31  1  0
 13 32  1  0
 14 33  1  0
 16 34  1  0
 17 35  1  0
 18 36  1  0
M  ISO  8  27  14  28  14  29  14  30  14  31  14  32  14  33  14  34  14
M  ISO  2  35  14  36  14
M  END
>  <minimizedAffinity>  (1) 
-7.53247499

>  <minimizedRMSD>  (1) 
0.475251704

$$$$
