
     RDKit          3D

 40 44  0  0  0  0  0  0  0  0999 V2000
   37.3440   31.0070   49.6520 C   0  0  0  0  0  0  0  0  0  0  0  0
   37.5780   30.6090   50.9490 C   0  0  0  0  0  0  0  0  0  0  0  0
   36.7550   29.6760   51.5050 C   0  0  0  0  0  0  0  0  0  0  0  0
   35.7210   29.1500   50.7890 N   0  0  0  0  0  0  0  0  0  0  0  0
   35.5270   29.5650   49.5310 C   0  0  0  0  0  0  0  0  0  0  0  0
   36.3240   30.4890   48.9450 N   0  0  0  0  0  0  0  0  0  0  0  0
   34.4310   28.9980   48.7720 C   0  0  0  0  0  0  0  0  0  0  0  0
   34.4810   28.9310   47.4030 C   0  0  0  0  0  0  0  0  0  0  0  0
   33.5300   28.4190   46.5450 C   0  0  0  0  0  0  0  0  0  0  0  0
   32.4090   27.9230   47.1770 C   0  0  0  0  0  0  0  0  0  0  0  0
   31.4220   27.3920   46.4060 N   0  0  0  0  0  0  0  0  0  0  0  0
   30.2910   26.8790   46.9510 C   0  0  0  0  0  0  0  0  0  0  0  0
   30.1240   26.8900   48.3220 C   0  0  0  0  0  0  0  0  0  0  0  0
   31.1210   27.4260   49.1020 C   0  0  0  0  0  0  0  0  0  0  0  0
   32.2940   27.9590   48.5450 C   0  0  0  0  0  0  0  0  0  0  0  0
   33.2910   28.4900   49.3350 C   0  0  0  0  0  0  0  0  0  0  0  0
   39.4070   33.9840   49.0420 C   0  0  0  0  0  0  0  0  0  0  0  0
   39.7900   33.8190   47.6950 C   0  0  0  0  0  0  0  0  0  0  0  0
   39.3230   32.6710   47.0190 C   0  0  0  0  0  0  0  0  0  0  0  0
   38.5420   31.8090   47.7080 N   0  0  0  0  0  0  0  0  0  0  0  0
   38.1920   32.0010   49.0070 C   0  0  0  0  0  0  0  0  0  0  0  0
   38.6330   33.0870   49.6470 N   0  0  0  0  0  0  0  0  0  0  0  0
   39.6840   32.4440   45.6270 C   0  0  0  0  0  0  0  0  0  0  0  0
   40.5670   31.4710   45.2110 C   0  0  0  0  0  0  0  0  0  0  0  0
   40.5970   31.6230   43.8570 N   0  0  0  0  0  0  0  0  0  0  0  0
   39.7810   32.6340   43.4440 C   0  0  0  0  0  0  0  0  0  0  0  0
   39.2170   33.1350   44.5810 N   0  0  0  0  0  0  0  0  0  0  0  0
   38.4125   31.0355   51.5249 H   0  0  0  0  0  0  0  0  0  0  0  0
   36.9263   29.3446   52.5398 H   0  0  0  0  0  0  0  0  0  0  0  0
   35.3896   29.3345   46.9322 H   0  0  0  0  0  0  0  0  0  0  0  0
   33.6548   28.4073   45.4522 H   0  0  0  0  0  0  0  0  0  0  0  0
   29.5092   26.4556   46.3033 H   0  0  0  0  0  0  0  0  0  0  0  0
   29.2125   26.4786   48.7801 H   0  0  0  0  0  0  0  0  0  0  0  0
   30.9959   27.4376   50.1948 H   0  0  0  0  0  0  0  0  0  0  0  0
   33.1696   28.5058   50.4282 H   0  0  0  0  0  0  0  0  0  0  0  0
   39.7530   34.8665   49.6002 H   0  0  0  0  0  0  0  0  0  0  0  0
   40.4293   34.5578   47.1894 H   0  0  0  0  0  0  0  0  0  0  0  0
   41.1173   30.7439   45.8262 H   0  0  0  0  0  0  0  0  0  0  0  0
   41.1667   31.0446   43.2231 H   0  0  0  0  0  0  0  0  0  0  0  0
   39.6127   32.9742   42.4116 H   0  0  0  0  0  0  0  0  0  0  0  0
  1  2  2  0
  2  3  1  0
  4  3  2  0
  5  4  1  0
  6  5  2  0
  6  1  1  0
  7 16  1  0
  7  5  1  0
  8  7  2  0
  9 10  2  0
  9  8  1  0
 10 15  1  0
 11 12  2  0
 11 10  1  0
 12 13  1  0
 13 14  2  0
 15 14  1  0
 15 16  2  0
 17 22  2  0
 18 17  1  0
 19 18  2  0
 19 20  1  0
 20 21  2  0
 21 22  1  0
 21  1  1  0
 23 19  1  0
 24 23  2  0
 25 24  1  0
 26 25  1  0
 26 27  2  0
 27 23  1  0
  2 28  1  0
  3 29  1  0
  8 30  1  0
  9 31  1  0
 12 32  1  0
 13 33  1  0
 14 34  1  0
 16 35  1  0
 17 36  1  0
 18 37  1  0
 24 38  1  0
 25 39  1  0
 26 40  1  0
M  ISO  8  28  14  29  14  30  14  31  14  32  14  33  14  34  14  35  14
M  ISO  5  36  14  37  14  38  14  39   9  40  14
M  END
>  <minimizedAffinity>  (1) 
-7.41617012

>  <minimizedRMSD>  (1) 
0.416190922

$$$$
