
     RDKit          3D

 40 44  0  0  0  0  0  0  0  0999 V2000
   37.6070   31.2710   49.4560 C   0  0  0  0  0  0  0  0  0  0  0  0
   37.8760   30.7180   50.6860 C   0  0  0  0  0  0  0  0  0  0  0  0
   37.0430   29.7490   51.1650 C   0  0  0  0  0  0  0  0  0  0  0  0
   35.9650   29.3430   50.4330 N   0  0  0  0  0  0  0  0  0  0  0  0
   35.7410   29.9100   49.2370 C   0  0  0  0  0  0  0  0  0  0  0  0
   36.5450   30.8660   48.7420 N   0  0  0  0  0  0  0  0  0  0  0  0
   34.5900   29.4700   48.4640 C   0  0  0  0  0  0  0  0  0  0  0  0
   34.2250   30.1230   47.3160 C   0  0  0  0  0  0  0  0  0  0  0  0
   33.1720   29.8350   46.4760 C   0  0  0  0  0  0  0  0  0  0  0  0
   32.4100   28.7420   46.8770 C   0  0  0  0  0  0  0  0  0  0  0  0
   31.3530   28.3810   46.1150 N   0  0  0  0  0  0  0  0  0  0  0  0
   30.5550   27.3400   46.4160 C   0  0  0  0  0  0  0  0  0  0  0  0
   30.8230   26.6020   47.5530 C   0  0  0  0  0  0  0  0  0  0  0  0
   31.9060   26.9690   48.3360 C   0  0  0  0  0  0  0  0  0  0  0  0
   32.7210   28.0430   48.0180 C   0  0  0  0  0  0  0  0  0  0  0  0
   33.7980   28.3970   48.8080 C   0  0  0  0  0  0  0  0  0  0  0  0
   39.5640   34.3490   49.0290 C   0  0  0  0  0  0  0  0  0  0  0  0
   40.0860   34.2080   47.7440 C   0  0  0  0  0  0  0  0  0  0  0  0
   39.7550   33.0370   47.0230 C   0  0  0  0  0  0  0  0  0  0  0  0
   38.9520   32.1360   47.6390 N   0  0  0  0  0  0  0  0  0  0  0  0
   38.4630   32.3100   48.8940 C   0  0  0  0  0  0  0  0  0  0  0  0
   38.7810   33.4200   49.5690 N   0  0  0  0  0  0  0  0  0  0  0  0
   40.2970   32.8760   45.6700 C   0  0  0  0  0  0  0  0  0  0  0  0
   40.6150   31.5130   45.1610 C   0  0  0  0  0  0  0  0  0  0  0  0
   39.4520   32.2510   44.5890 C   0  0  0  0  0  0  0  0  0  0  0  0
   38.7455   31.0502   51.2722 H   0  0  0  0  0  0  0  0  0  0  0  0
   37.2414   29.2928   52.1461 H   0  0  0  0  0  0  0  0  0  0  0  0
   34.8493   30.9824   47.0302 H   0  0  0  0  0  0  0  0  0  0  0  0
   32.9530   30.4173   45.5688 H   0  0  0  0  0  0  0  0  0  0  0  0
   29.7044   27.0812   45.7683 H   0  0  0  0  0  0  0  0  0  0  0  0
   30.1923   25.7443   47.8298 H   0  0  0  0  0  0  0  0  0  0  0  0
   32.1263   26.3864   49.2427 H   0  0  0  0  0  0  0  0  0  0  0  0
   34.0240   27.8189   49.7162 H   0  0  0  0  0  0  0  0  0  0  0  0
   39.8059   35.2509   49.6104 H   0  0  0  0  0  0  0  0  0  0  0  0
   40.7336   34.9815   47.3055 H   0  0  0  0  0  0  0  0  0  0  0  0
   40.8515   33.8201   45.7753 H   0  0  0  0  0  0  0  0  0  0  0  0
   41.5159   31.3525   44.5506 H   0  0  0  0  0  0  0  0  0  0  0  0
   40.7511   30.5259   45.6269 H   0  0  0  0  0  0  0  0  0  0  0  0
   39.4970   32.6389   43.5607 H   0  0  0  0  0  0  0  0  0  0  0  0
   38.3802   32.0396   44.4605 H   0  0  0  0  0  0  0  0  0  0  0  0
  1  2  2  0
  2  3  1  0
  4  3  2  0
  5  4  1  0
  6  5  2  0
  6  1  1  0
  7 16  1  0
  7  5  1  0
  8  7  2  0
  9 10  2  0
  9  8  1  0
 10 15  1  0
 11 12  2  0
 11 10  1  0
 12 13  1  0
 13 14  2  0
 15 14  1  0
 15 16  2  0
 17 22  2  0
 18 17  1  0
 19 20  1  0
 19 18  2  0
 20 21  2  0
 21  1  1  0
 21 22  1  0
 23 19  1  0
 24 23  1  0
 25 24  1  0
 25 23  1  0
  2 26  1  0
  3 27  1  0
  8 28  1  0
  9 29  1  0
 12 30  1  0
 13 31  1  0
 14 32  1  0
 16 33  1  0
 17 34  1  0
 18 35  1  0
 23 36  1  0
 24 37  1  0
 24 38  1  0
 25 39  1  0
 25 40  1  0
M  ISO  8  26  14  27  14  28  14  29  14  30  14  31  14  32  14  33  14
M  ISO  7  34  14  35  14  36  13  37  13  38  13  39  13  40  13
M  END
>  <minimizedAffinity>  (1) 
-7.2225914

>  <minimizedRMSD>  (1) 
0.525504529

$$$$
