
     RDKit          3D

 35 38  0  0  0  0  0  0  0  0999 V2000
   37.5620   31.1390   49.5740 C   0  0  0  0  0  0  0  0  0  0  0  0
   37.8240   30.6580   50.8360 C   0  0  0  0  0  0  0  0  0  0  0  0
   37.0140   29.6820   51.3550 C   0  0  0  0  0  0  0  0  0  0  0  0
   35.9700   29.2010   50.6260 N   0  0  0  0  0  0  0  0  0  0  0  0
   35.7470   29.6870   49.4120 C   0  0  0  0  0  0  0  0  0  0  0  0
   36.5280   30.6540   48.8660 N   0  0  0  0  0  0  0  0  0  0  0  0
   34.6280   29.1780   48.6180 C   0  0  0  0  0  0  0  0  0  0  0  0
   34.5550   29.3690   47.2670 C   0  0  0  0  0  0  0  0  0  0  0  0
   33.5730   28.9510   46.4040 C   0  0  0  0  0  0  0  0  0  0  0  0
   32.5490   28.2550   47.0210 C   0  0  0  0  0  0  0  0  0  0  0  0
   31.5370   27.8070   46.2340 N   0  0  0  0  0  0  0  0  0  0  0  0
   30.4870   27.1170   46.7300 C   0  0  0  0  0  0  0  0  0  0  0  0
   30.4400   26.8530   48.1030 C   0  0  0  0  0  0  0  0  0  0  0  0
   31.4730   27.3130   48.8940 C   0  0  0  0  0  0  0  0  0  0  0  0
   32.5540   28.0240   48.3820 C   0  0  0  0  0  0  0  0  0  0  0  0
   33.5820   28.4790   49.1800 C   0  0  0  0  0  0  0  0  0  0  0  0
   39.5160   34.2140   49.0760 C   0  0  0  0  0  0  0  0  0  0  0  0
   39.9500   34.0790   47.7470 C   0  0  0  0  0  0  0  0  0  0  0  0
   39.5600   32.9220   47.0360 C   0  0  0  0  0  0  0  0  0  0  0  0
   38.7890   32.0220   47.7000 N   0  0  0  0  0  0  0  0  0  0  0  0
   38.3900   32.1770   48.9690 C   0  0  0  0  0  0  0  0  0  0  0  0
   38.7590   33.2720   49.6390 N   0  0  0  0  0  0  0  0  0  0  0  0
   39.9890   32.7420   45.6540 C   0  0  0  0  0  0  0  0  0  0  0  0
   40.0010   33.7190   44.8830 O   0  0  0  0  0  0  0  0  0  0  0  0
   38.6701   31.0505   51.4191 H   0  0  0  0  0  0  0  0  0  0  0  0
   37.2080   29.2864   52.3629 H   0  0  0  0  0  0  0  0  0  0  0  0
   35.3875   29.9277   46.8144 H   0  0  0  0  0  0  0  0  0  0  0  0
   33.5979   29.1508   45.3226 H   0  0  0  0  0  0  0  0  0  0  0  0
   29.6825   26.7686   46.0656 H   0  0  0  0  0  0  0  0  0  0  0  0
   29.6008   26.2928   48.5411 H   0  0  0  0  0  0  0  0  0  0  0  0
   31.4405   27.1091   49.9744 H   0  0  0  0  0  0  0  0  0  0  0  0
   33.5672   28.2845   50.2626 H   0  0  0  0  0  0  0  0  0  0  0  0
   39.8028   35.1033   49.6564 H   0  0  0  0  0  0  0  0  0  0  0  0
   40.5748   34.8509   47.2739 H   0  0  0  0  0  0  0  0  0  0  0  0
   40.2999   31.7496   45.2954 H   0  0  0  0  0  0  0  0  0  0  0  0
  1  2  2  0
  2  3  1  0
  4  3  2  0
  5  4  1  0
  6  5  2  0
  6  1  1  0
  7 16  1  0
  7  5  1  0
  8  7  2  0
  9 10  2  0
  9  8  1  0
 10 15  1  0
 11 12  2  0
 11 10  1  0
 12 13  1  0
 13 14  2  0
 15 14  1  0
 15 16  2  0
 17 22  2  0
 18 17  1  0
 19 20  1  0
 19 18  2  0
 20 21  2  0
 21  1  1  0
 21 22  1  0
 23 19  1  0
 24 23  2  0
  2 25  1  0
  3 26  1  0
  8 27  1  0
  9 28  1  0
 12 29  1  0
 13 30  1  0
 14 31  1  0
 16 32  1  0
 17 33  1  0
 18 34  1  0
 23 35  1  0
M  ISO  8  25  14  26  14  27  14  28  14  29  14  30  14  31  14  32  14
M  ISO  3  33  14  34  14  35   6
M  END
>  <minimizedAffinity>  (1) 
-6.79104614

>  <minimizedRMSD>  (1) 
0.0912052393

$$$$
