
     RDKit          3D

 28 29  0  0  0  0  0  0  0  0999 V2000
   37.4860   30.3160   50.9270 C   0  0  0  0  0  0  0  0  0  0  0  0
   38.3820   31.1560   50.2100 C   0  0  0  0  0  0  0  0  0  0  0  0
   37.9430   31.6570   48.9730 C   0  0  0  0  0  0  0  0  0  0  0  0
   36.6940   31.3040   48.5500 N   0  0  0  0  0  0  0  0  0  0  0  0
   35.8780   30.5080   49.2570 C   0  0  0  0  0  0  0  0  0  0  0  0
   36.2840   30.0260   50.4340 N   0  0  0  0  0  0  0  0  0  0  0  0
   34.5340   30.2100   48.6620 C   0  0  0  0  0  0  0  0  0  0  0  0
   34.5900   30.0780   47.1780 C   0  0  0  0  0  0  0  0  0  0  0  0
   33.6270   29.0650   46.6150 C   0  0  0  0  0  0  0  0  0  0  0  0
   33.7470   27.6980   47.2210 C   0  0  0  0  0  0  0  0  0  0  0  0
   34.3510   27.7130   48.6060 C   0  0  0  0  0  0  0  0  0  0  0  0
   34.0020   28.9690   49.3420 C   0  0  0  0  0  0  0  0  0  0  0  0
   37.8510   29.7620   52.1970 N   0  0  0  0  0  0  0  0  0  0  0  0
   39.3775   31.4032   50.6074 H   0  0  0  0  0  0  0  0  0  0  0  0
   38.5846   32.3121   48.3654 H   0  0  0  0  0  0  0  0  0  0  0  0
   33.8462   31.0502   48.8379 H   0  0  0  0  0  0  0  0  0  0  0  0
   34.3592   31.0580   46.7348 H   0  0  0  0  0  0  0  0  0  0  0  0
   35.6022   29.7273   46.9281 H   0  0  0  0  0  0  0  0  0  0  0  0
   32.6035   29.4297   46.7868 H   0  0  0  0  0  0  0  0  0  0  0  0
   33.8687   28.9592   45.5471 H   0  0  0  0  0  0  0  0  0  0  0  0
   32.7429   27.2530   47.2821 H   0  0  0  0  0  0  0  0  0  0  0  0
   34.4194   27.1123   46.5769 H   0  0  0  0  0  0  0  0  0  0  0  0
   33.9705   26.8496   49.1715 H   0  0  0  0  0  0  0  0  0  0  0  0
   35.4454   27.6636   48.5063 H   0  0  0  0  0  0  0  0  0  0  0  0
   34.4270   28.9130   50.3550 H   0  0  0  0  0  0  0  0  0  0  0  0
   32.9050   29.0469   49.3652 H   0  0  0  0  0  0  0  0  0  0  0  0
   37.1903   29.1554   52.7033 H   0  0  0  0  0  0  0  0  0  0  0  0
   38.7741   29.9703   52.6036 H   0  0  0  0  0  0  0  0  0  0  0  0
  1 13  1  0
  2  1  2  0
  3  2  1  0
  4  3  2  0
  4  5  1  0
  5  6  2  0
  6  1  1  0
  7  5  1  0
  7 12  1  0
  8  7  1  0
  9  8  1  0
  9 10  1  0
 10 11  1  0
 11 12  1  0
  2 14  1  0
  3 15  1  0
  7 16  1  0
  8 17  1  0
  8 18  1  0
  9 19  1  0
  9 20  1  0
 10 21  1  0
 10 22  1  0
 11 23  1  0
 11 24  1  0
 12 25  1  0
 12 26  1  0
 13 27  1  0
 13 28  1  0
M  ISO  8  14  14  15  14  16  13  17  13  18  13  19  13  20  13  21  13
M  ISO  5  22  13  23  13  24  13  25  13  26  13
M  END
>  <minimizedAffinity>  (1) 
-5.08867073

>  <minimizedRMSD>  (1) 
1.8753221

$$$$
