
     RDKit          3D

 27 28  0  0  0  0  0  0  0  0999 V2000
   37.5470   30.2250   50.7990 C   0  0  0  0  0  0  0  0  0  0  0  0
   38.2610   31.2550   50.1160 C   0  0  0  0  0  0  0  0  0  0  0  0
   37.7430   31.6510   48.8900 C   0  0  0  0  0  0  0  0  0  0  0  0
   36.6250   31.0670   48.4140 N   0  0  0  0  0  0  0  0  0  0  0  0
   35.9680   30.0940   49.0810 C   0  0  0  0  0  0  0  0  0  0  0  0
   36.4480   29.6940   50.2660 N   0  0  0  0  0  0  0  0  0  0  0  0
   34.7910   29.5150   48.5260 N   0  0  0  0  0  0  0  0  0  0  0  0
   34.3490   28.2750   49.1250 C   0  0  0  0  0  0  0  0  0  0  0  0
   33.5130   27.4440   48.1920 C   0  0  0  0  0  0  0  0  0  0  0  0
   32.6160   28.2810   47.3140 C   0  0  0  0  0  0  0  0  0  0  0  0
   33.4310   29.2290   46.5060 C   0  0  0  0  0  0  0  0  0  0  0  0
   34.1330   30.1910   47.4260 C   0  0  0  0  0  0  0  0  0  0  0  0
   37.9810   29.7290   52.0720 N   0  0  0  0  0  0  0  0  0  0  0  0
   39.1701   31.7093   50.5369 H   0  0  0  0  0  0  0  0  0  0  0  0
   38.2436   32.4393   48.3086 H   0  0  0  0  0  0  0  0  0  0  0  0
   35.2339   27.6913   49.4186 H   0  0  0  0  0  0  0  0  0  0  0  0
   33.7230   28.5305   49.9927 H   0  0  0  0  0  0  0  0  0  0  0  0
   34.1832   26.8538   47.5497 H   0  0  0  0  0  0  0  0  0  0  0  0
   32.8685   26.7993   48.8076 H   0  0  0  0  0  0  0  0  0  0  0  0
   32.0494   27.6221   46.6396 H   0  0  0  0  0  0  0  0  0  0  0  0
   31.9228   28.8526   47.9486 H   0  0  0  0  0  0  0  0  0  0  0  0
   34.1762   28.6682   45.9228 H   0  0  0  0  0  0  0  0  0  0  0  0
   32.7758   29.7865   45.8205 H   0  0  0  0  0  0  0  0  0  0  0  0
   34.8874   30.7462   46.8493 H   0  0  0  0  0  0  0  0  0  0  0  0
   33.3756   30.8670   47.8496 H   0  0  0  0  0  0  0  0  0  0  0  0
   37.4475   28.9850   52.5439 H   0  0  0  0  0  0  0  0  0  0  0  0
   38.8263   30.1167   52.5148 H   0  0  0  0  0  0  0  0  0  0  0  0
  1 13  1  0
  2  1  2  0
  3  2  1  0
  4  3  2  0
  4  5  1  0
  5  6  2  0
  6  1  1  0
  7  5  1  0
  7  8  1  0
  9  8  1  0
 10  9  1  0
 11 10  1  0
 11 12  1  0
 12  7  1  0
  2 14  1  0
  3 15  1  0
  8 16  1  0
  8 17  1  0
  9 18  1  0
  9 19  1  0
 10 20  1  0
 10 21  1  0
 11 22  1  0
 11 23  1  0
 12 24  1  0
 12 25  1  0
 13 26  1  0
 13 27  1  0
M  ISO  8  14  14  15  14  16  13  17  13  18  13  19  13  20  13  21  13
M  ISO  4  22  13  23  13  24  13  25  13
M  END
>  <minimizedAffinity>  (1) 
-4.96319675

>  <minimizedRMSD>  (1) 
1.15398312

$$$$
