
     RDKit          3D

 16 16  0  0  0  0  0  0  0  0999 V2000
   37.3600   30.0940   50.9570 C   0  0  0  0  0  0  0  0  0  0  0  0
   38.0800   30.8010   49.9650 C   0  0  0  0  0  0  0  0  0  0  0  0
   37.3830   31.2280   48.8420 C   0  0  0  0  0  0  0  0  0  0  0  0
   36.0520   30.9450   48.7590 N   0  0  0  0  0  0  0  0  0  0  0  0
   35.3990   30.2740   49.7140 C   0  0  0  0  0  0  0  0  0  0  0  0
   36.0430   29.8530   50.8010 N   0  0  0  0  0  0  0  0  0  0  0  0
   33.7500   28.6310   49.2050 C   0  0  0  0  0  0  0  0  0  0  0  0
   34.5900   27.6970   49.0380 O   0  0  0  0  0  0  0  0  0  0  0  0
   33.9870   30.0120   49.5550 N   0  0  0  0  0  0  0  0  0  0  0  0
   37.9800   29.6100   52.1520 N   0  0  0  0  0  0  0  0  0  0  0  0
   39.1548   31.0054   50.0793 H   0  0  0  0  0  0  0  0  0  0  0  0
   37.8925   31.7810   48.0392 H   0  0  0  0  0  0  0  0  0  0  0  0
   32.6955   28.3515   49.0640 H   0  0  0  0  0  0  0  0  0  0  0  0
   33.2465   30.7177   49.6755 H   0  0  0  0  0  0  0  0  0  0  0  0
   37.4221   29.0993   52.8511 H   0  0  0  0  0  0  0  0  0  0  0  0
   38.9843   29.7723   52.3132 H   0  0  0  0  0  0  0  0  0  0  0  0
  1 10  1  0
  2  1  2  0
  3  2  1  0
  4  3  2  0
  4  5  1  0
  5  6  2  0
  6  1  1  0
  7  9  1  0
  8  7  2  0
  9  5  1  0
  2 11  1  0
  3 12  1  0
  7 13  1  0
  9 14  1  0
 10 15  1  0
 10 16  1  0
M  ISO  3  11  14  12  14  13   6
M  END
>  <minimizedAffinity>  (1) 
-4.27318716

>  <minimizedRMSD>  (1) 
1.57151878

$$$$
