
     RDKit          3D

 21 22  0  0  0  0  0  0  0  0999 V2000
   37.5630   30.1910   50.7580 C   0  0  0  0  0  0  0  0  0  0  0  0
   38.2410   31.2210   50.0790 C   0  0  0  0  0  0  0  0  0  0  0  0
   37.7540   31.5970   48.8230 C   0  0  0  0  0  0  0  0  0  0  0  0
   36.6670   30.9470   48.3480 N   0  0  0  0  0  0  0  0  0  0  0  0
   36.0310   29.9690   49.0060 C   0  0  0  0  0  0  0  0  0  0  0  0
   36.4990   29.6050   50.2160 N   0  0  0  0  0  0  0  0  0  0  0  0
   34.8600   29.3150   48.4210 C   0  0  0  0  0  0  0  0  0  0  0  0
   34.4400   28.1130   48.9330 C   0  0  0  0  0  0  0  0  0  0  0  0
   33.3310   27.5840   48.3120 C   0  0  0  0  0  0  0  0  0  0  0  0
   32.6790   28.1920   47.2630 C   0  0  0  0  0  0  0  0  0  0  0  0
   33.1760   29.4080   46.8120 C   0  0  0  0  0  0  0  0  0  0  0  0
   34.2650   29.9690   47.3900 N   0  0  0  0  0  0  0  0  0  0  0  0
   37.9820   29.7340   52.0490 N   0  0  0  0  0  0  0  0  0  0  0  0
   39.1211   31.7119   50.5199 H   0  0  0  0  0  0  0  0  0  0  0  0
   38.2387   32.3946   48.2409 H   0  0  0  0  0  0  0  0  0  0  0  0
   34.9479   27.6131   49.7710 H   0  0  0  0  0  0  0  0  0  0  0  0
   32.9437   26.6204   48.6747 H   0  0  0  0  0  0  0  0  0  0  0  0
   31.7951   27.7308   46.7982 H   0  0  0  0  0  0  0  0  0  0  0  0
   32.6794   29.9215   45.9755 H   0  0  0  0  0  0  0  0  0  0  0  0
   37.4650   28.9782   52.5205 H   0  0  0  0  0  0  0  0  0  0  0  0
   38.8003   30.1612   52.5059 H   0  0  0  0  0  0  0  0  0  0  0  0
  1 13  1  0
  2  1  2  0
  3  2  1  0
  4  3  2  0
  4  5  1  0
  5  6  2  0
  6  1  1  0
  7  8  2  0
  7  5  1  0
  9  8  1  0
 10  9  2  0
 11 10  1  0
 11 12  2  0
 12  7  1  0
  2 14  1  0
  3 15  1  0
  8 16  1  0
  9 17  1  0
 10 18  1  0
 11 19  1  0
 13 20  1  0
 13 21  1  0
M  ISO  6  14  14  15  14  16  14  17  14  18  14  19  14
M  END
>  <minimizedAffinity>  (1) 
-4.78326893

>  <minimizedRMSD>  (1) 
1.01763058

$$$$
