
     RDKit          3D

 35 37  0  0  0  0  0  0  0  0999 V2000
   34.9380   29.4740   48.3570 C   0  0  0  0  0  0  0  0  0  0  0  0
   34.4260   28.3170   48.8580 C   0  0  0  0  0  0  0  0  0  0  0  0
   33.3320   27.8180   48.1930 C   0  0  0  0  0  0  0  0  0  0  0  0
   32.7840   28.4380   47.0940 C   0  0  0  0  0  0  0  0  0  0  0  0
   33.3660   29.6240   46.6380 C   0  0  0  0  0  0  0  0  0  0  0  0
   34.4370   30.1190   47.2840 N   0  0  0  0  0  0  0  0  0  0  0  0
   32.8710   30.3490   45.5020 N   0  0  0  0  0  0  0  0  0  0  0  0
   31.5320   30.8690   45.4620 C   0  0  0  0  0  0  0  0  0  0  0  0
   31.3660   32.1040   44.6310 C   0  0  0  0  0  0  0  0  0  0  0  0
   32.0840   32.1150   43.3980 N   0  0  0  0  0  0  0  0  0  0  0  0
   32.9650   31.0170   43.1740 C   0  0  0  0  0  0  0  0  0  0  0  0
   33.7470   30.5600   44.3630 C   0  0  0  0  0  0  0  0  0  0  0  0
   37.5840   30.2120   50.7900 C   0  0  0  0  0  0  0  0  0  0  0  0
   38.3040   31.2570   50.1710 C   0  0  0  0  0  0  0  0  0  0  0  0
   37.8610   31.6860   48.9250 C   0  0  0  0  0  0  0  0  0  0  0  0
   36.7780   31.0820   48.3860 N   0  0  0  0  0  0  0  0  0  0  0  0
   36.1010   30.0840   48.9930 C   0  0  0  0  0  0  0  0  0  0  0  0
   36.5350   29.6770   50.1930 N   0  0  0  0  0  0  0  0  0  0  0  0
   37.9640   29.7050   52.0720 N   0  0  0  0  0  0  0  0  0  0  0  0
   34.8587   27.8151   49.7360 H   0  0  0  0  0  0  0  0  0  0  0  0
   32.8757   26.8845   48.5542 H   0  0  0  0  0  0  0  0  0  0  0  0
   31.9075   28.0099   46.5856 H   0  0  0  0  0  0  0  0  0  0  0  0
   30.8734   30.0890   45.0523 H   0  0  0  0  0  0  0  0  0  0  0  0
   31.2770   31.1517   46.4940 H   0  0  0  0  0  0  0  0  0  0  0  0
   30.2962   32.2169   44.4014 H   0  0  0  0  0  0  0  0  0  0  0  0
   31.7801   32.9289   45.2294 H   0  0  0  0  0  0  0  0  0  0  0  0
   31.3946   32.1262   42.6328 H   0  0  0  0  0  0  0  0  0  0  0  0
   32.3629   30.1677   42.8188 H   0  0  0  0  0  0  0  0  0  0  0  0
   33.7082   31.3729   42.4453 H   0  0  0  0  0  0  0  0  0  0  0  0
   34.2565   29.6161   44.1193 H   0  0  0  0  0  0  0  0  0  0  0  0
   34.4836   31.3349   44.6215 H   0  0  0  0  0  0  0  0  0  0  0  0
   39.1801   31.7133   50.6551 H   0  0  0  0  0  0  0  0  0  0  0  0
   38.3786   32.4965   48.3910 H   0  0  0  0  0  0  0  0  0  0  0  0
   37.4241   28.9420   52.5048 H   0  0  0  0  0  0  0  0  0  0  0  0
   38.7776   30.1028   52.5626 H   0  0  0  0  0  0  0  0  0  0  0  0
  1  2  2  0
  1 17  1  0
  3  2  1  0
  4  3  2  0
  5  4  1  0
  5  6  2  0
  6  1  1  0
  7  5  1  0
  8  7  1  0
  9  8  1  0
 10  9  1  0
 11 10  1  0
 11 12  1  0
 12  7  1  0
 13 19  1  0
 14 13  2  0
 15 14  1  0
 16 15  2  0
 16 17  1  0
 17 18  2  0
 18 13  1  0
  2 20  1  0
  3 21  1  0
  4 22  1  0
  8 23  1  0
  8 24  1  0
  9 25  1  0
  9 26  1  0
 10 27  1  0
 11 28  1  0
 11 29  1  0
 12 30  1  0
 12 31  1  0
 14 32  1  0
 15 33  1  0
 19 34  1  0
 19 35  1  0
M  ISO  8  20  14  21  14  22  14  23  13  24  13  25  13  26  13  27   5
M  ISO  6  28  13  29  13  30  13  31  13  32  14  33  14
M  END
>  <minimizedAffinity>  (1) 
-5.64445591

>  <minimizedRMSD>  (1) 
0.336506575

$$$$
