
     RDKit          3D

 33 35  0  0  0  0  0  0  0  0999 V2000
   34.8620   29.2740   48.4600 C   0  0  0  0  0  0  0  0  0  0  0  0
   34.4750   28.0520   48.9700 C   0  0  0  0  0  0  0  0  0  0  0  0
   33.3650   27.5380   48.3420 C   0  0  0  0  0  0  0  0  0  0  0  0
   32.6920   28.1500   47.3160 C   0  0  0  0  0  0  0  0  0  0  0  0
   33.1550   29.3720   46.8730 C   0  0  0  0  0  0  0  0  0  0  0  0
   34.2390   29.9250   47.4510 N   0  0  0  0  0  0  0  0  0  0  0  0
   32.4740   30.0140   45.8190 N   0  0  0  0  0  0  0  0  0  0  0  0
   33.1140   30.6410   44.6800 C   0  0  0  0  0  0  0  0  0  0  0  0
   32.0570   31.6250   44.2270 C   0  0  0  0  0  0  0  0  0  0  0  0
   30.7880   30.7920   44.3700 C   0  0  0  0  0  0  0  0  0  0  0  0
   31.0280   30.1440   45.7120 C   0  0  0  0  0  0  0  0  0  0  0  0
   37.5670   30.1720   50.7930 C   0  0  0  0  0  0  0  0  0  0  0  0
   38.2410   31.1790   50.0940 C   0  0  0  0  0  0  0  0  0  0  0  0
   37.7540   31.5380   48.8270 C   0  0  0  0  0  0  0  0  0  0  0  0
   36.6720   30.8930   48.3610 N   0  0  0  0  0  0  0  0  0  0  0  0
   36.0370   29.9270   49.0470 C   0  0  0  0  0  0  0  0  0  0  0  0
   36.5090   29.5890   50.2590 N   0  0  0  0  0  0  0  0  0  0  0  0
   37.9890   29.7420   52.0820 N   0  0  0  0  0  0  0  0  0  0  0  0
   34.9990   27.5426   49.7922 H   0  0  0  0  0  0  0  0  0  0  0  0
   32.9892   26.5639   48.6883 H   0  0  0  0  0  0  0  0  0  0  0  0
   31.8084   27.6803   46.8592 H   0  0  0  0  0  0  0  0  0  0  0  0
   34.0396   31.1567   44.9755 H   0  0  0  0  0  0  0  0  0  0  0  0
   33.4229   29.9311   43.8986 H   0  0  0  0  0  0  0  0  0  0  0  0
   32.2181   31.9367   43.1845 H   0  0  0  0  0  0  0  0  0  0  0  0
   32.0441   32.5651   44.7980 H   0  0  0  0  0  0  0  0  0  0  0  0
   29.8875   31.4237   44.3802 H   0  0  0  0  0  0  0  0  0  0  0  0
   30.6112   30.0844   43.5465 H   0  0  0  0  0  0  0  0  0  0  0  0
   30.6365   30.7772   46.5218 H   0  0  0  0  0  0  0  0  0  0  0  0
   30.5201   29.1719   45.7963 H   0  0  0  0  0  0  0  0  0  0  0  0
   39.1246   31.6739   50.5234 H   0  0  0  0  0  0  0  0  0  0  0  0
   38.2440   32.3241   48.2337 H   0  0  0  0  0  0  0  0  0  0  0  0
   37.4717   28.9979   52.5716 H   0  0  0  0  0  0  0  0  0  0  0  0
   38.8117   30.1748   52.5255 H   0  0  0  0  0  0  0  0  0  0  0  0
  1  2  2  0
  1 16  1  0
  3  2  1  0
  4  3  2  0
  5  4  1  0
  5  6  2  0
  6  1  1  0
  7  5  1  0
  8  7  1  0
  9 10  1  0
  9  8  1  0
 10 11  1  0
 11  7  1  0
 12 18  1  0
 13 12  2  0
 14 13  1  0
 15 14  2  0
 15 16  1  0
 16 17  2  0
 17 12  1  0
  2 19  1  0
  3 20  1  0
  4 21  1  0
  8 22  1  0
  8 23  1  0
  9 24  1  0
  9 25  1  0
 10 26  1  0
 10 27  1  0
 11 28  1  0
 11 29  1  0
 13 30  1  0
 14 31  1  0
 18 32  1  0
 18 33  1  0
M  ISO  8  19  14  20  14  21  14  22  13  23  13  24  13  25  13  26  13
M  ISO  5  27  13  28  13  29  13  30  14  31  14
M  END
>  <minimizedAffinity>  (1) 
-5.52849579

>  <minimizedRMSD>  (1) 
0.0738736913

$$$$
