
     RDKit          3D

 36 38  0  0  0  0  0  0  0  0999 V2000
   34.9550   29.4870   48.3330 C   0  0  0  0  0  0  0  0  0  0  0  0
   34.4450   28.3200   48.8430 C   0  0  0  0  0  0  0  0  0  0  0  0
   33.3640   27.8460   48.1400 C   0  0  0  0  0  0  0  0  0  0  0  0
   32.8250   28.4670   47.0290 C   0  0  0  0  0  0  0  0  0  0  0  0
   33.4100   29.6370   46.5940 C   0  0  0  0  0  0  0  0  0  0  0  0
   34.4700   30.1310   47.2570 N   0  0  0  0  0  0  0  0  0  0  0  0
   32.9700   30.3770   45.4780 N   0  0  0  0  0  0  0  0  0  0  0  0
   31.9670   31.4400   45.5560 C   0  0  0  0  0  0  0  0  0  0  0  0
   30.7270   30.9400   44.8510 C   0  0  0  0  0  0  0  0  0  0  0  0
   31.0610   30.7090   43.3760 C   0  0  0  0  0  0  0  0  0  0  0  0
   32.1850   29.6710   43.3500 C   0  0  0  0  0  0  0  0  0  0  0  0
   33.3830   30.2560   44.1130 C   0  0  0  0  0  0  0  0  0  0  0  0
   37.5920   30.2190   50.8000 C   0  0  0  0  0  0  0  0  0  0  0  0
   38.2990   31.2650   50.1880 C   0  0  0  0  0  0  0  0  0  0  0  0
   37.8570   31.6970   48.9430 C   0  0  0  0  0  0  0  0  0  0  0  0
   36.7830   31.0920   48.3980 N   0  0  0  0  0  0  0  0  0  0  0  0
   36.1170   30.0890   49.0030 C   0  0  0  0  0  0  0  0  0  0  0  0
   36.5330   29.6650   50.2000 N   0  0  0  0  0  0  0  0  0  0  0  0
   37.9640   29.7050   52.0730 N   0  0  0  0  0  0  0  0  0  0  0  0
   34.8604   27.8140   49.7270 H   0  0  0  0  0  0  0  0  0  0  0  0
   32.8969   26.9113   48.4837 H   0  0  0  0  0  0  0  0  0  0  0  0
   31.9554   28.0404   46.5076 H   0  0  0  0  0  0  0  0  0  0  0  0
   31.7373   31.6644   46.6081 H   0  0  0  0  0  0  0  0  0  0  0  0
   32.3385   32.3616   45.0842 H   0  0  0  0  0  0  0  0  0  0  0  0
   30.3967   29.9955   45.3081 H   0  0  0  0  0  0  0  0  0  0  0  0
   29.9199   31.6819   44.9408 H   0  0  0  0  0  0  0  0  0  0  0  0
   30.1786   30.3290   42.8402 H   0  0  0  0  0  0  0  0  0  0  0  0
   31.3672   31.6436   42.8833 H   0  0  0  0  0  0  0  0  0  0  0  0
   31.8488   28.7433   43.8361 H   0  0  0  0  0  0  0  0  0  0  0  0
   32.4675   29.4368   42.3130 H   0  0  0  0  0  0  0  0  0  0  0  0
   34.2494   29.5827   44.0355 H   0  0  0  0  0  0  0  0  0  0  0  0
   33.6840   31.2295   43.6987 H   0  0  0  0  0  0  0  0  0  0  0  0
   39.1707   31.7261   50.6754 H   0  0  0  0  0  0  0  0  0  0  0  0
   38.3716   32.5133   48.4150 H   0  0  0  0  0  0  0  0  0  0  0  0
   37.4244   28.9362   52.4957 H   0  0  0  0  0  0  0  0  0  0  0  0
   38.7730   30.1015   52.5721 H   0  0  0  0  0  0  0  0  0  0  0  0
  1  2  2  0
  1 17  1  0
  3  2  1  0
  4  3  2  0
  5  4  1  0
  5  6  2  0
  6  1  1  0
  7  8  1  0
  7  5  1  0
  9  8  1  0
 10  9  1  0
 11 10  1  0
 11 12  1  0
 12  7  1  0
 13 19  1  0
 14 13  2  0
 15 14  1  0
 16 15  2  0
 16 17  1  0
 17 18  2  0
 18 13  1  0
  2 20  1  0
  3 21  1  0
  4 22  1  0
  8 23  1  0
  8 24  1  0
  9 25  1  0
  9 26  1  0
 10 27  1  0
 10 28  1  0
 11 29  1  0
 11 30  1  0
 12 31  1  0
 12 32  1  0
 14 33  1  0
 15 34  1  0
 19 35  1  0
 19 36  1  0
M  ISO  8  20  14  21  14  22  14  23  13  24  13  25  13  26  13  27  13
M  ISO  7  28  13  29  13  30  13  31  13  32  13  33  14  34  14
M  END
>  <minimizedAffinity>  (1) 
-5.52640343

>  <minimizedRMSD>  (1) 
0.381728202

$$$$
