
     RDKit          3D

 37 39  0  0  0  0  0  0  0  0999 V2000
   34.9930   29.1880   48.3820 C   0  0  0  0  0  0  0  0  0  0  0  0
   34.4900   28.0620   48.9630 C   0  0  0  0  0  0  0  0  0  0  0  0
   33.4340   27.4840   48.3100 C   0  0  0  0  0  0  0  0  0  0  0  0
   32.8980   27.9820   47.1480 C   0  0  0  0  0  0  0  0  0  0  0  0
   33.4730   29.1270   46.6310 C   0  0  0  0  0  0  0  0  0  0  0  0
   34.5120   29.7270   47.2410 N   0  0  0  0  0  0  0  0  0  0  0  0
   37.5920   30.1540   50.8050 C   0  0  0  0  0  0  0  0  0  0  0  0
   38.2480   31.2030   50.1310 C   0  0  0  0  0  0  0  0  0  0  0  0
   37.7960   31.5660   48.8580 C   0  0  0  0  0  0  0  0  0  0  0  0
   36.7480   30.8740   48.3670 N   0  0  0  0  0  0  0  0  0  0  0  0
   36.1220   29.8730   49.0090 C   0  0  0  0  0  0  0  0  0  0  0  0
   36.5610   29.5320   50.2270 N   0  0  0  0  0  0  0  0  0  0  0  0
   37.9830   29.7150   52.1020 N   0  0  0  0  0  0  0  0  0  0  0  0
   32.9810   29.7730   45.3650 C   0  0  0  0  0  0  0  0  0  0  0  0
   32.2420   31.0280   45.8390 C   0  0  0  0  0  0  0  0  0  0  0  0
   31.6400   31.7670   44.6650 C   0  0  0  0  0  0  0  0  0  0  0  0
   32.6610   32.0670   43.5990 C   0  0  0  0  0  0  0  0  0  0  0  0
   33.6250   30.9590   43.3350 C   0  0  0  0  0  0  0  0  0  0  0  0
   34.1580   30.2780   44.5620 C   0  0  0  0  0  0  0  0  0  0  0  0
   34.9042   27.6459   49.8932 H   0  0  0  0  0  0  0  0  0  0  0  0
   32.9919   26.5727   48.7390 H   0  0  0  0  0  0  0  0  0  0  0  0
   32.0484   27.4911   46.6508 H   0  0  0  0  0  0  0  0  0  0  0  0
   39.0972   31.7252   50.5958 H   0  0  0  0  0  0  0  0  0  0  0  0
   38.2719   32.3759   48.2857 H   0  0  0  0  0  0  0  0  0  0  0  0
   37.4758   28.9439   52.5593 H   0  0  0  0  0  0  0  0  0  0  0  0
   38.7730   30.1685   52.5828 H   0  0  0  0  0  0  0  0  0  0  0  0
   32.3790   29.0737   44.7661 H   0  0  0  0  0  0  0  0  0  0  0  0
   31.4393   30.7348   46.5316 H   0  0  0  0  0  0  0  0  0  0  0  0
   32.9586   31.6912   46.3456 H   0  0  0  0  0  0  0  0  0  0  0  0
   30.8425   31.1482   44.2279 H   0  0  0  0  0  0  0  0  0  0  0  0
   31.2455   32.7250   45.0346 H   0  0  0  0  0  0  0  0  0  0  0  0
   32.1261   32.2870   42.6633 H   0  0  0  0  0  0  0  0  0  0  0  0
   33.2549   32.9172   43.9656 H   0  0  0  0  0  0  0  0  0  0  0  0
   33.1162   30.2032   42.7187 H   0  0  0  0  0  0  0  0  0  0  0  0
   34.4916   31.4170   42.8358 H   0  0  0  0  0  0  0  0  0  0  0  0
   34.8009   29.4342   44.2710 H   0  0  0  0  0  0  0  0  0  0  0  0
   34.7550   30.9818   45.1606 H   0  0  0  0  0  0  0  0  0  0  0  0
  1  2  2  0
  1 11  1  0
  3  2  1  0
  4  3  2  0
  5  4  1  0
  5  6  2  0
  6  1  1  0
  7 13  1  0
  8  7  2  0
  9  8  1  0
 10  9  2  0
 10 11  1  0
 11 12  2  0
 12  7  1  0
 14 15  1  0
 14  5  1  0
 16 15  1  0
 17 16  1  0
 18 17  1  0
 18 19  1  0
 19 14  1  0
  2 20  1  0
  3 21  1  0
  4 22  1  0
  8 23  1  0
  9 24  1  0
 13 25  1  0
 13 26  1  0
 14 27  1  0
 15 28  1  0
 15 29  1  0
 16 30  1  0
 16 31  1  0
 17 32  1  0
 17 33  1  0
 18 34  1  0
 18 35  1  0
 19 36  1  0
 19 37  1  0
M  ISO  8  20  14  21  14  22  14  23  14  24  14  27  13  28  13  29  13
M  ISO  8  30  13  31  13  32  13  33  13  34  13  35  13  36  13  37  13
M  END
>  <minimizedAffinity>  (1) 
-5.46317482

>  <minimizedRMSD>  (1) 
0.453463405

$$$$
