
     RDKit          3D

 28 30  0  0  0  0  0  0  0  0999 V2000
   34.8820   29.2920   48.4620 C   0  0  0  0  0  0  0  0  0  0  0  0
   34.4980   28.0510   48.9310 C   0  0  0  0  0  0  0  0  0  0  0  0
   33.3860   27.5440   48.3110 C   0  0  0  0  0  0  0  0  0  0  0  0
   32.6940   28.1810   47.3160 C   0  0  0  0  0  0  0  0  0  0  0  0
   33.1530   29.4180   46.9150 C   0  0  0  0  0  0  0  0  0  0  0  0
   34.2430   29.9880   47.4740 N   0  0  0  0  0  0  0  0  0  0  0  0
   37.5780   30.1880   50.7870 C   0  0  0  0  0  0  0  0  0  0  0  0
   38.2460   31.2050   50.0930 C   0  0  0  0  0  0  0  0  0  0  0  0
   37.7750   31.5780   48.8400 C   0  0  0  0  0  0  0  0  0  0  0  0
   36.6910   30.9260   48.3720 N   0  0  0  0  0  0  0  0  0  0  0  0
   36.0590   29.9590   49.0340 C   0  0  0  0  0  0  0  0  0  0  0  0
   36.5120   29.5890   50.2590 N   0  0  0  0  0  0  0  0  0  0  0  0
   37.9870   29.7400   52.0760 N   0  0  0  0  0  0  0  0  0  0  0  0
   32.4490   30.1350   45.8580 C   0  0  0  0  0  0  0  0  0  0  0  0
   33.0040   30.7300   44.7460 C   0  0  0  0  0  0  0  0  0  0  0  0
   32.0080   31.3140   43.9730 C   0  0  0  0  0  0  0  0  0  0  0  0
   30.8690   31.0560   44.6370 N   0  0  0  0  0  0  0  0  0  0  0  0
   31.1350   30.3580   45.7510 N   0  0  0  0  0  0  0  0  0  0  0  0
   35.0356   27.5183   49.7292 H   0  0  0  0  0  0  0  0  0  0  0  0
   33.0244   26.5570   48.6351 H   0  0  0  0  0  0  0  0  0  0  0  0
   31.8064   27.7238   46.8544 H   0  0  0  0  0  0  0  0  0  0  0  0
   39.1260   31.6986   50.5312 H   0  0  0  0  0  0  0  0  0  0  0  0
   38.2649   32.3705   48.2553 H   0  0  0  0  0  0  0  0  0  0  0  0
   37.4654   28.9886   52.5495 H   0  0  0  0  0  0  0  0  0  0  0  0
   38.8043   30.1675   52.5344 H   0  0  0  0  0  0  0  0  0  0  0  0
   34.0774   30.7410   44.5057 H   0  0  0  0  0  0  0  0  0  0  0  0
   32.1258   31.8647   43.0281 H   0  0  0  0  0  0  0  0  0  0  0  0
   29.9295   31.3509   44.3350 H   0  0  0  0  0  0  0  0  0  0  0  0
  1  2  2  0
  1 11  1  0
  3  2  1  0
  4  3  2  0
  5  4  1  0
  5  6  2  0
  6  1  1  0
  7 13  1  0
  8  7  2  0
  9  8  1  0
 10  9  2  0
 10 11  1  0
 11 12  2  0
 12  7  1  0
 14  5  1  0
 15 14  1  0
 16 17  1  0
 16 15  2  0
 17 18  1  0
 18 14  2  0
  2 19  1  0
  3 20  1  0
  4 21  1  0
  8 22  1  0
  9 23  1  0
 13 24  1  0
 13 25  1  0
 15 26  1  0
 16 27  1  0
 17 28  1  0
M  ISO  8  19  14  20  14  21  14  22  14  23  14  26  14  27  14  28   9
M  END
>  <minimizedAffinity>  (1) 
-5.28523731

>  <minimizedRMSD>  (1) 
0.257178485

$$$$
