
     RDKit          3D

 24 25  0  0  0  0  0  0  0  0999 V2000
   34.9170   29.4570   48.4000 C   0  0  0  0  0  0  0  0  0  0  0  0
   34.4850   28.2260   48.8540 C   0  0  0  0  0  0  0  0  0  0  0  0
   33.3800   27.7290   48.1980 C   0  0  0  0  0  0  0  0  0  0  0  0
   32.7420   28.3960   47.1680 C   0  0  0  0  0  0  0  0  0  0  0  0
   33.2520   29.6270   46.7840 C   0  0  0  0  0  0  0  0  0  0  0  0
   34.3400   30.1590   47.3990 N   0  0  0  0  0  0  0  0  0  0  0  0
   37.5840   30.2130   50.8090 C   0  0  0  0  0  0  0  0  0  0  0  0
   38.2900   31.2530   50.1880 C   0  0  0  0  0  0  0  0  0  0  0  0
   37.8270   31.6790   48.9360 C   0  0  0  0  0  0  0  0  0  0  0  0
   36.7370   31.0660   48.4060 N   0  0  0  0  0  0  0  0  0  0  0  0
   36.0790   30.0680   49.0270 C   0  0  0  0  0  0  0  0  0  0  0  0
   36.5190   29.6480   50.2400 N   0  0  0  0  0  0  0  0  0  0  0  0
   37.9790   29.7070   52.0900 N   0  0  0  0  0  0  0  0  0  0  0  0
   32.6550   30.4450   45.6850 C   0  0  0  0  0  0  0  0  0  0  0  0
   33.5600   30.6070   44.6550 F   0  0  0  0  0  0  0  0  0  0  0  0
   32.2300   31.6660   46.1780 F   0  0  0  0  0  0  0  0  0  0  0  0
   31.5490   29.7500   45.2260 F   0  0  0  0  0  0  0  0  0  0  0  0
   34.9829   27.6862   49.6730 H   0  0  0  0  0  0  0  0  0  0  0  0
   32.9847   26.7509   48.5097 H   0  0  0  0  0  0  0  0  0  0  0  0
   31.8606   27.9650   46.6707 H   0  0  0  0  0  0  0  0  0  0  0  0
   39.1686   31.7142   50.6627 H   0  0  0  0  0  0  0  0  0  0  0  0
   38.3346   32.4911   48.3949 H   0  0  0  0  0  0  0  0  0  0  0  0
   37.4461   28.9423   52.5283 H   0  0  0  0  0  0  0  0  0  0  0  0
   38.7959   30.1080   52.5725 H   0  0  0  0  0  0  0  0  0  0  0  0
  1  2  2  0
  1 11  1  0
  3  2  1  0
  4  3  2  0
  5  4  1  0
  5  6  2  0
  6  1  1  0
  7 13  1  0
  8  7  2  0
  9  8  1  0
 10  9  2  0
 10 11  1  0
 11 12  2  0
 12  7  1  0
 14 16  1  0
 14  5  1  0
 15 14  1  0
 17 14  1  0
  2 18  1  0
  3 19  1  0
  4 20  1  0
  8 21  1  0
  9 22  1  0
 13 23  1  0
 13 24  1  0
M  ISO  5  18  14  19  14  20  14  21  14  22  14
M  END
>  <minimizedAffinity>  (1) 
-5.24482679

>  <minimizedRMSD>  (1) 
0.415183038

$$$$
