
     RDKit          3D

 22 23  0  0  0  0  0  0  0  0999 V2000
   37.6020   30.2420   50.7630 C   0  0  0  0  0  0  0  0  0  0  0  0
   38.3080   31.2850   50.1330 C   0  0  0  0  0  0  0  0  0  0  0  0
   37.8620   31.7070   48.8870 C   0  0  0  0  0  0  0  0  0  0  0  0
   36.7850   31.0960   48.3550 N   0  0  0  0  0  0  0  0  0  0  0  0
   36.1150   30.0960   48.9660 C   0  0  0  0  0  0  0  0  0  0  0  0
   36.5410   29.6760   50.1840 N   0  0  0  0  0  0  0  0  0  0  0  0
   34.9490   29.4740   48.3310 C   0  0  0  0  0  0  0  0  0  0  0  0
   34.5800   28.2100   48.7030 C   0  0  0  0  0  0  0  0  0  0  0  0
   33.4810   27.7090   48.0580 C   0  0  0  0  0  0  0  0  0  0  0  0
   32.7960   28.4240   47.1030 C   0  0  0  0  0  0  0  0  0  0  0  0
   33.2320   29.6970   46.7790 C   0  0  0  0  0  0  0  0  0  0  0  0
   34.3170   30.2250   47.3990 N   0  0  0  0  0  0  0  0  0  0  0  0
   32.5750   30.4610   45.8220 O   0  0  0  0  0  0  0  0  0  0  0  0
   37.9580   29.7190   52.0420 N   0  0  0  0  0  0  0  0  0  0  0  0
   39.1828   31.7497   50.6113 H   0  0  0  0  0  0  0  0  0  0  0  0
   38.3742   32.5182   48.3489 H   0  0  0  0  0  0  0  0  0  0  0  0
   35.1273   27.6371   49.4660 H   0  0  0  0  0  0  0  0  0  0  0  0
   33.1329   26.6972   48.3129 H   0  0  0  0  0  0  0  0  0  0  0  0
   31.9160   27.9910   46.6049 H   0  0  0  0  0  0  0  0  0  0  0  0
   32.9021   31.3696   45.6040 H   0  0  0  0  0  0  0  0  0  0  0  0
   37.4066   28.9547   52.4575 H   0  0  0  0  0  0  0  0  0  0  0  0
   38.7664   30.1058   52.5497 H   0  0  0  0  0  0  0  0  0  0  0  0
  1 14  1  0
  2  1  2  0
  3  2  1  0
  4  3  2  0
  4  5  1  0
  5  6  2  0
  6  1  1  0
  7  8  2  0
  7  5  1  0
  9  8  1  0
 10  9  2  0
 11 10  1  0
 11 12  2  0
 12  7  1  0
 13 11  1  0
  2 15  1  0
  3 16  1  0
  8 17  1  0
  9 18  1  0
 10 19  1  0
 13 20  1  0
 14 21  1  0
 14 22  1  0
M  ISO  6  15  14  16  14  17  14  18  14  19  14  20   3
M  END
>  <minimizedAffinity>  (1) 
-4.97578526

>  <minimizedRMSD>  (1) 
0.228109971

$$$$
