
     RDKit          3D

 40 43  0  0  0  0  0  0  0  0999 V2000
   34.7270   29.0260   48.2470 C   0  0  0  0  0  0  0  0  0  0  0  0
   34.3550   27.7820   48.7160 C   0  0  0  0  0  0  0  0  0  0  0  0
   33.1990   27.3010   48.1550 C   0  0  0  0  0  0  0  0  0  0  0  0
   32.4740   27.9890   47.2130 C   0  0  0  0  0  0  0  0  0  0  0  0
   32.9170   29.2170   46.8070 C   0  0  0  0  0  0  0  0  0  0  0  0
   34.0480   29.7260   47.3320 N   0  0  0  0  0  0  0  0  0  0  0  0
   29.9020   29.1030   46.9280 Cl  0  0  0  0  0  0  0  0  0  0  0  0
   30.8270   30.0160   45.7810 C   0  0  0  0  0  0  0  0  0  0  0  0
   32.1910   29.9940   45.8170 C   0  0  0  0  0  0  0  0  0  0  0  0
   32.7900   30.7720   44.8370 C   0  0  0  0  0  0  0  0  0  0  0  0
   32.1370   31.5130   43.8980 C   0  0  0  0  0  0  0  0  0  0  0  0
   30.7670   31.5030   43.9010 C   0  0  0  0  0  0  0  0  0  0  0  0
   29.8340   32.4210   42.7310 Cl  0  0  0  0  0  0  0  0  0  0  0  0
   30.1050   30.7490   44.8500 C   0  0  0  0  0  0  0  0  0  0  0  0
   37.3780   30.1090   50.5490 C   0  0  0  0  0  0  0  0  0  0  0  0
   38.2660   30.7800   49.7070 C   0  0  0  0  0  0  0  0  0  0  0  0
   37.9510   30.8580   48.3670 C   0  0  0  0  0  0  0  0  0  0  0  0
   36.7950   30.2760   47.9490 N   0  0  0  0  0  0  0  0  0  0  0  0
   35.9520   29.6360   48.7700 C   0  0  0  0  0  0  0  0  0  0  0  0
   36.2670   29.5650   50.0690 N   0  0  0  0  0  0  0  0  0  0  0  0
   38.7900   31.5280   47.3840 C   0  0  0  0  0  0  0  0  0  0  0  0
   39.2460   30.9080   46.2430 C   0  0  0  0  0  0  0  0  0  0  0  0
   40.0420   31.5380   45.3070 C   0  0  0  0  0  0  0  0  0  0  0  0
   40.3900   32.8460   45.5350 C   0  0  0  0  0  0  0  0  0  0  0  0
   39.9340   33.4750   46.6850 C   0  0  0  0  0  0  0  0  0  0  0  0
   39.1680   32.7970   47.5410 N   0  0  0  0  0  0  0  0  0  0  0  0
   37.6230   29.9760   51.9650 N   0  0  0  0  0  0  0  0  0  0  0  0
   34.9324   27.2273   49.4703 H   0  0  0  0  0  0  0  0  0  0  0  0
   32.8343   26.3141   48.4760 H   0  0  0  0  0  0  0  0  0  0  0  0
   31.5528   27.5594   46.7925 H   0  0  0  0  0  0  0  0  0  0  0  0
   33.8896   30.7926   44.8160 H   0  0  0  0  0  0  0  0  0  0  0  0
   32.6954   32.1038   43.1569 H   0  0  0  0  0  0  0  0  0  0  0  0
   29.0053   30.7295   44.8678 H   0  0  0  0  0  0  0  0  0  0  0  0
   39.1883   31.2325   50.1001 H   0  0  0  0  0  0  0  0  0  0  0  0
   38.9625   29.8596   46.0682 H   0  0  0  0  0  0  0  0  0  0  0  0
   40.3865   31.0081   44.4067 H   0  0  0  0  0  0  0  0  0  0  0  0
   41.0217   33.3883   44.8161 H   0  0  0  0  0  0  0  0  0  0  0  0
   40.2016   34.5223   46.8886 H   0  0  0  0  0  0  0  0  0  0  0  0
   36.9478   29.4746   52.5596 H   0  0  0  0  0  0  0  0  0  0  0  0
   38.4731   30.3825   52.3810 H   0  0  0  0  0  0  0  0  0  0  0  0
  1  2  2  0
  1 19  1  0
  3  2  1  0
  4  3  2  0
  5  4  1  0
  5  6  2  0
  6  1  1  0
  8  9  2  0
  8  7  1  0
  9  5  1  0
 10  9  1  0
 11 12  1  0
 11 10  2  0
 12 14  2  0
 13 12  1  0
 14  8  1  0
 15 27  1  0
 16 15  2  0
 17 16  1  0
 18 17  2  0
 18 19  1  0
 19 20  2  0
 20 15  1  0
 21 26  1  0
 21 17  1  0
 22 21  2  0
 23 24  2  0
 23 22  1  0
 24 25  1  0
 25 26  2  0
  2 28  1  0
  3 29  1  0
  4 30  1  0
 10 31  1  0
 11 32  1  0
 14 33  1  0
 16 34  1  0
 22 35  1  0
 23 36  1  0
 24 37  1  0
 25 38  1  0
 27 39  1  0
 27 40  1  0
M  ISO  8  28  14  29  14  30  14  31  14  32  14  33  14  34  14  35  14
M  ISO  3  36  14  37  14  38  14
M  END
>  <minimizedAffinity>  (1) 
-7.14383984

>  <minimizedRMSD>  (1) 
1.03489304

$$$$
