
     RDKit          3D

 45 48  0  0  0  0  0  0  0  0999 V2000
   34.5950   29.0770   48.1630 C   0  0  0  0  0  0  0  0  0  0  0  0
   34.3220   27.8270   48.6690 C   0  0  0  0  0  0  0  0  0  0  0  0
   33.1720   27.2640   48.1750 C   0  0  0  0  0  0  0  0  0  0  0  0
   32.3590   27.8880   47.2560 C   0  0  0  0  0  0  0  0  0  0  0  0
   32.7140   29.1320   46.8110 C   0  0  0  0  0  0  0  0  0  0  0  0
   33.8360   29.7200   47.2710 N   0  0  0  0  0  0  0  0  0  0  0  0
   37.3600   30.2480   50.2830 C   0  0  0  0  0  0  0  0  0  0  0  0
   38.0920   31.0800   49.4280 C   0  0  0  0  0  0  0  0  0  0  0  0
   37.6170   31.2180   48.1430 C   0  0  0  0  0  0  0  0  0  0  0  0
   36.4970   30.5600   47.7840 N   0  0  0  0  0  0  0  0  0  0  0  0
   35.8090   29.7690   48.6190 C   0  0  0  0  0  0  0  0  0  0  0  0
   36.2570   29.6210   49.8780 N   0  0  0  0  0  0  0  0  0  0  0  0
   38.2690   32.0280   47.1920 N   0  0  0  0  0  0  0  0  0  0  0  0
   38.0310   31.9990   45.7700 C   0  0  0  0  0  0  0  0  0  0  0  0
   39.2810   31.3560   45.1660 C   0  0  0  0  0  0  0  0  0  0  0  0
   40.4090   32.1190   45.5970 N   0  0  0  0  0  0  0  0  0  0  0  0
   40.1200   33.2850   46.3670 C   0  0  0  0  0  0  0  0  0  0  0  0
   39.2760   32.9970   47.5890 C   0  0  0  0  0  0  0  0  0  0  0  0
   37.7620   30.0250   51.6620 N   0  0  0  0  0  0  0  0  0  0  0  0
   29.7150   28.9400   47.1650 Cl  0  0  0  0  0  0  0  0  0  0  0  0
   30.5290   29.8280   45.9100 C   0  0  0  0  0  0  0  0  0  0  0  0
   31.8980   29.8470   45.8430 C   0  0  0  0  0  0  0  0  0  0  0  0
   32.4060   30.5970   44.7910 C   0  0  0  0  0  0  0  0  0  0  0  0
   31.6470   31.2740   43.8790 C   0  0  0  0  0  0  0  0  0  0  0  0
   30.2690   31.2280   43.9840 C   0  0  0  0  0  0  0  0  0  0  0  0
   29.2750   32.0800   42.8350 Cl  0  0  0  0  0  0  0  0  0  0  0  0
   29.7280   30.5010   45.0030 C   0  0  0  0  0  0  0  0  0  0  0  0
   34.9677   27.3239   49.4038 H   0  0  0  0  0  0  0  0  0  0  0  0
   32.8855   26.2636   48.5314 H   0  0  0  0  0  0  0  0  0  0  0  0
   31.4455   27.3980   46.8881 H   0  0  0  0  0  0  0  0  0  0  0  0
   39.0017   31.5980   49.7659 H   0  0  0  0  0  0  0  0  0  0  0  0
   37.1389   31.3977   45.5406 H   0  0  0  0  0  0  0  0  0  0  0  0
   37.8493   33.0048   45.3634 H   0  0  0  0  0  0  0  0  0  0  0  0
   39.2165   31.3690   44.0680 H   0  0  0  0  0  0  0  0  0  0  0  0
   39.3741   30.3098   45.4927 H   0  0  0  0  0  0  0  0  0  0  0  0
   41.0053   31.5039   46.1688 H   0  0  0  0  0  0  0  0  0  0  0  0
   41.0701   33.7316   46.6954 H   0  0  0  0  0  0  0  0  0  0  0  0
   39.5437   33.9670   45.7245 H   0  0  0  0  0  0  0  0  0  0  0  0
   38.7933   33.9207   47.9407 H   0  0  0  0  0  0  0  0  0  0  0  0
   39.8950   32.6055   48.4097 H   0  0  0  0  0  0  0  0  0  0  0  0
   37.2033   29.4072   52.2678 H   0  0  0  0  0  0  0  0  0  0  0  0
   38.6056   30.4848   52.0333 H   0  0  0  0  0  0  0  0  0  0  0  0
   33.4995   30.6500   44.6840 H   0  0  0  0  0  0  0  0  0  0  0  0
   32.1256   31.8480   43.0719 H   0  0  0  0  0  0  0  0  0  0  0  0
   28.6341   30.4482   45.1064 H   0  0  0  0  0  0  0  0  0  0  0  0
  1 11  1  0
  1  2  2  0
  3  2  1  0
  4  3  2  0
  5  4  1  0
  5  6  2  0
  6  1  1  0
  7 19  1  0
  8  7  2  0
  9  8  1  0
 10  9  2  0
 10 11  1  0
 11 12  2  0
 12  7  1  0
 13 18  1  0
 13  9  1  0
 14 13  1  0
 15 16  1  0
 15 14  1  0
 16 17  1  0
 17 18  1  0
 21 20  1  0
 22 21  2  0
 22  5  1  0
 23 22  1  0
 24 25  1  0
 24 23  2  0
 25 27  2  0
 26 25  1  0
 27 21  1  0
  2 28  1  0
  3 29  1  0
  4 30  1  0
  8 31  1  0
 14 32  1  0
 14 33  1  0
 15 34  1  0
 15 35  1  0
 16 36  1  0
 17 37  1  0
 17 38  1  0
 18 39  1  0
 18 40  1  0
 19 41  1  0
 19 42  1  0
 23 43  1  0
 24 44  1  0
 27 45  1  0
M  ISO  8  28  14  29  14  30  14  31  14  32  13  33  13  34  13  35  13
M  ISO  8  36   5  37  13  38  13  39  13  40  13  43  14  44  14  45  14
M  END
>  <minimizedAffinity>  (1) 
-6.98884058

>  <minimizedRMSD>  (1) 
0.73806572

$$$$
