
     RDKit          3D

 39 42  0  0  0  0  0  0  0  0999 V2000
   34.7300   29.0190   48.2410 C   0  0  0  0  0  0  0  0  0  0  0  0
   34.3470   27.7790   48.7140 C   0  0  0  0  0  0  0  0  0  0  0  0
   33.1910   27.3000   48.1600 C   0  0  0  0  0  0  0  0  0  0  0  0
   32.4690   27.9890   47.2170 C   0  0  0  0  0  0  0  0  0  0  0  0
   32.9160   29.2120   46.8040 C   0  0  0  0  0  0  0  0  0  0  0  0
   34.0550   29.7190   47.3260 N   0  0  0  0  0  0  0  0  0  0  0  0
   29.8990   29.0920   46.9380 Cl  0  0  0  0  0  0  0  0  0  0  0  0
   30.8170   30.0150   45.7880 C   0  0  0  0  0  0  0  0  0  0  0  0
   32.1970   29.9940   45.8160 C   0  0  0  0  0  0  0  0  0  0  0  0
   32.7960   30.7770   44.8400 C   0  0  0  0  0  0  0  0  0  0  0  0
   32.1120   31.5210   43.9100 C   0  0  0  0  0  0  0  0  0  0  0  0
   30.7330   31.5060   43.9260 C   0  0  0  0  0  0  0  0  0  0  0  0
   29.8570   32.4510   42.7510 Cl  0  0  0  0  0  0  0  0  0  0  0  0
   30.0980   30.7520   44.8680 C   0  0  0  0  0  0  0  0  0  0  0  0
   37.3820   30.1110   50.5470 C   0  0  0  0  0  0  0  0  0  0  0  0
   38.2660   30.7840   49.7050 C   0  0  0  0  0  0  0  0  0  0  0  0
   37.9440   30.8580   48.3550 C   0  0  0  0  0  0  0  0  0  0  0  0
   36.8050   30.2800   47.9390 N   0  0  0  0  0  0  0  0  0  0  0  0
   35.9650   29.6370   48.7570 C   0  0  0  0  0  0  0  0  0  0  0  0
   36.2650   29.5590   50.0660 N   0  0  0  0  0  0  0  0  0  0  0  0
   38.7870   31.5320   47.3790 C   0  0  0  0  0  0  0  0  0  0  0  0
   39.2450   30.9180   46.2340 C   0  0  0  0  0  0  0  0  0  0  0  0
   40.0430   31.5620   45.3150 C   0  0  0  0  0  0  0  0  0  0  0  0
   40.4000   32.8460   45.5280 N   0  0  0  0  0  0  0  0  0  0  0  0
   39.9440   33.4480   46.6610 C   0  0  0  0  0  0  0  0  0  0  0  0
   39.1680   32.8120   47.5500 N   0  0  0  0  0  0  0  0  0  0  0  0
   37.6200   29.9800   51.9560 N   0  0  0  0  0  0  0  0  0  0  0  0
   34.9215   27.2245   49.4706 H   0  0  0  0  0  0  0  0  0  0  0  0
   32.8226   26.3160   48.4857 H   0  0  0  0  0  0  0  0  0  0  0  0
   31.5446   27.5626   46.8004 H   0  0  0  0  0  0  0  0  0  0  0  0
   33.8952   30.8039   44.8088 H   0  0  0  0  0  0  0  0  0  0  0  0
   32.6555   32.1195   43.1641 H   0  0  0  0  0  0  0  0  0  0  0  0
   28.9986   30.7306   44.8954 H   0  0  0  0  0  0  0  0  0  0  0  0
   39.1871   31.2410   50.0958 H   0  0  0  0  0  0  0  0  0  0  0  0
   38.9620   29.8717   46.0464 H   0  0  0  0  0  0  0  0  0  0  0  0
   40.3871   31.0337   44.4136 H   0  0  0  0  0  0  0  0  0  0  0  0
   40.2226   34.4945   46.8539 H   0  0  0  0  0  0  0  0  0  0  0  0
   36.9445   29.4756   52.5477 H   0  0  0  0  0  0  0  0  0  0  0  0
   38.4664   30.3904   52.3757 H   0  0  0  0  0  0  0  0  0  0  0  0
  1  2  2  0
  1 19  1  0
  3  2  1  0
  4  3  2  0
  5  4  1  0
  5  6  2  0
  6  1  1  0
  8  9  2  0
  8  7  1  0
  9  5  1  0
 10  9  1  0
 11 12  1  0
 11 10  2  0
 12 14  2  0
 13 12  1  0
 14  8  1  0
 15 27  1  0
 16 15  2  0
 17 16  1  0
 18 17  2  0
 18 19  1  0
 19 20  2  0
 20 15  1  0
 21 26  1  0
 21 17  1  0
 22 21  2  0
 23 24  2  0
 23 22  1  0
 24 25  1  0
 25 26  2  0
  2 28  1  0
  3 29  1  0
  4 30  1  0
 10 31  1  0
 11 32  1  0
 14 33  1  0
 16 34  1  0
 22 35  1  0
 23 36  1  0
 25 37  1  0
 27 38  1  0
 27 39  1  0
M  ISO  8  28  14  29  14  30  14  31  14  32  14  33  14  34  14  35  14
M  ISO  2  36  14  37  14
M  END
>  <minimizedAffinity>  (1) 
-6.94275379

>  <minimizedRMSD>  (1) 
1.05694425

$$$$
