
     RDKit          3D

 33 35  0  0  0  0  0  0  0  0999 V2000
   34.7710   29.2700   48.3160 C   0  0  0  0  0  0  0  0  0  0  0  0
   34.5080   27.9800   48.7350 C   0  0  0  0  0  0  0  0  0  0  0  0
   33.4290   27.3990   48.1150 C   0  0  0  0  0  0  0  0  0  0  0  0
   32.6770   28.0440   47.1630 C   0  0  0  0  0  0  0  0  0  0  0  0
   33.0110   29.3220   46.8110 C   0  0  0  0  0  0  0  0  0  0  0  0
   34.0610   29.9270   47.3940 N   0  0  0  0  0  0  0  0  0  0  0  0
   30.0010   29.1080   46.9780 Cl  0  0  0  0  0  0  0  0  0  0  0  0
   30.8750   30.0250   45.7920 C   0  0  0  0  0  0  0  0  0  0  0  0
   32.2470   30.0510   45.8130 C   0  0  0  0  0  0  0  0  0  0  0  0
   32.8070   30.8270   44.8080 C   0  0  0  0  0  0  0  0  0  0  0  0
   32.1120   31.5190   43.8640 C   0  0  0  0  0  0  0  0  0  0  0  0
   30.7410   31.4630   43.8840 C   0  0  0  0  0  0  0  0  0  0  0  0
   29.7700   32.3220   42.7050 Cl  0  0  0  0  0  0  0  0  0  0  0  0
   30.1220   30.7060   44.8600 C   0  0  0  0  0  0  0  0  0  0  0  0
   37.3950   30.3090   50.6660 C   0  0  0  0  0  0  0  0  0  0  0  0
   38.0370   31.3500   49.9770 C   0  0  0  0  0  0  0  0  0  0  0  0
   37.5680   31.6820   48.7240 C   0  0  0  0  0  0  0  0  0  0  0  0
   36.5110   30.9740   48.2440 N   0  0  0  0  0  0  0  0  0  0  0  0
   35.9070   29.9870   48.9080 C   0  0  0  0  0  0  0  0  0  0  0  0
   36.3680   29.6670   50.1290 N   0  0  0  0  0  0  0  0  0  0  0  0
   38.1960   32.7330   47.9960 N   0  0  0  0  0  0  0  0  0  0  0  0
   37.8130   29.8790   51.9930 N   0  0  0  0  0  0  0  0  0  0  0  0
   35.1096   27.4639   49.4977 H   0  0  0  0  0  0  0  0  0  0  0  0
   33.1544   26.3708   48.3932 H   0  0  0  0  0  0  0  0  0  0  0  0
   31.8202   27.5402   46.6918 H   0  0  0  0  0  0  0  0  0  0  0  0
   33.9047   30.8880   44.7711 H   0  0  0  0  0  0  0  0  0  0  0  0
   32.6385   32.1109   43.1008 H   0  0  0  0  0  0  0  0  0  0  0  0
   29.0241   30.6466   44.8933 H   0  0  0  0  0  0  0  0  0  0  0  0
   38.8885   31.8846   50.4234 H   0  0  0  0  0  0  0  0  0  0  0  0
   37.8520   32.9876   47.0591 H   0  0  0  0  0  0  0  0  0  0  0  0
   38.9941   33.2384   48.4065 H   0  0  0  0  0  0  0  0  0  0  0  0
   37.3158   29.1108   52.4658 H   0  0  0  0  0  0  0  0  0  0  0  0
   38.6058   30.3431   52.4588 H   0  0  0  0  0  0  0  0  0  0  0  0
  1  2  2  0
  1 19  1  0
  3  2  1  0
  4  3  2  0
  5  4  1  0
  5  6  2  0
  6  1  1  0
  8  9  2  0
  8  7  1  0
  9  5  1  0
 10  9  1  0
 11 12  1  0
 11 10  2  0
 12 14  2  0
 13 12  1  0
 14  8  1  0
 15 22  1  0
 16 15  2  0
 17 16  1  0
 18 17  2  0
 18 19  1  0
 19 20  2  0
 20 15  1  0
 21 17  1  0
  2 23  1  0
  3 24  1  0
  4 25  1  0
 10 26  1  0
 11 27  1  0
 14 28  1  0
 16 29  1  0
 21 30  1  0
 21 31  1  0
 22 32  1  0
 22 33  1  0
M  ISO  7  23  14  24  14  25  14  26  14  27  14  28  14  29  14
M  END
>  <minimizedAffinity>  (1) 
-6.09029865

>  <minimizedRMSD>  (1) 
0.0532002412

$$$$
