
     RDKit          3D

 22 23  0  0  0  0  0  0  0  0999 V2000
   38.0950   33.1430   49.4950 C   0  0  0  0  0  0  0  0  0  0  0  0
   38.9460   33.0650   48.3740 C   0  0  0  0  0  0  0  0  0  0  0  0
   38.7120   32.0450   47.4350 C   0  0  0  0  0  0  0  0  0  0  0  0
   37.6780   31.1910   47.6610 N   0  0  0  0  0  0  0  0  0  0  0  0
   36.8840   31.2940   48.7440 C   0  0  0  0  0  0  0  0  0  0  0  0
   37.0820   32.2570   49.6600 N   0  0  0  0  0  0  0  0  0  0  0  0
   35.8130   30.3470   48.9050 N   0  0  0  0  0  0  0  0  0  0  0  0
   34.7350   30.1920   47.9390 C   0  0  0  0  0  0  0  0  0  0  0  0
   34.0220   28.9560   48.3650 C   0  0  0  0  0  0  0  0  0  0  0  0
   34.8760   28.3140   49.4340 C   0  0  0  0  0  0  0  0  0  0  0  0
   35.6580   29.4360   50.0270 C   0  0  0  0  0  0  0  0  0  0  0  0
   38.2546   33.9319   50.2447 H   0  0  0  0  0  0  0  0  0  0  0  0
   39.7695   33.7815   48.2378 H   0  0  0  0  0  0  0  0  0  0  0  0
   39.3472   31.9407   46.5430 H   0  0  0  0  0  0  0  0  0  0  0  0
   35.1386   30.0763   46.9223 H   0  0  0  0  0  0  0  0  0  0  0  0
   34.0704   31.0681   47.9122 H   0  0  0  0  0  0  0  0  0  0  0  0
   33.0317   29.2096   48.7713 H   0  0  0  0  0  0  0  0  0  0  0  0
   33.8678   28.2735   47.5162 H   0  0  0  0  0  0  0  0  0  0  0  0
   34.2451   27.8361   50.1979 H   0  0  0  0  0  0  0  0  0  0  0  0
   35.5267   27.5265   49.0260 H   0  0  0  0  0  0  0  0  0  0  0  0
   36.6352   29.0881   50.3932 H   0  0  0  0  0  0  0  0  0  0  0  0
   35.1684   29.8962   50.8979 H   0  0  0  0  0  0  0  0  0  0  0  0
  1  6  2  0
  2  1  1  0
  3  4  1  0
  3  2  2  0
  4  5  2  0
  5  7  1  0
  5  6  1  0
  7 11  1  0
  8  9  1  0
  8  7  1  0
  9 10  1  0
 10 11  1  0
  1 12  1  0
  2 13  1  0
  3 14  1  0
  8 15  1  0
  8 16  1  0
  9 17  1  0
  9 18  1  0
 10 19  1  0
 10 20  1  0
 11 21  1  0
 11 22  1  0
M  ISO  8  12  14  13  14  14  14  15  13  16  13  17  13  18  13  19  13
M  ISO  3  20  13  21  13  22  13
M  END
>  <minimizedAffinity>  (1) 
-4.37353134

>  <minimizedRMSD>  (1) 
2.72492933

$$$$
