
     RDKit          3D

 41 44  0  0  0  0  0  0  0  0999 V2000
   33.8810   28.8070   47.3180 C   0  0  0  0  0  0  0  0  0  0  0  0
   33.8210   28.1620   48.5630 C   0  0  0  0  0  0  0  0  0  0  0  0
   34.7280   28.2770   49.5630 C   0  0  0  0  0  0  0  0  0  0  0  0
   35.8100   29.0650   49.4130 C   0  0  0  0  0  0  0  0  0  0  0  0
   35.8760   29.6940   48.2090 C   0  0  0  0  0  0  0  0  0  0  0  0
   34.9690   29.5510   47.2690 N   0  0  0  0  0  0  0  0  0  0  0  0
   31.6540   29.3390   46.7300 C   0  0  0  0  0  0  0  0  0  0  0  0
   32.8270   28.6130   46.3350 C   0  0  0  0  0  0  0  0  0  0  0  0
   32.7510   27.9180   45.1660 C   0  0  0  0  0  0  0  0  0  0  0  0
   31.5730   27.9680   44.4660 N   0  0  0  0  0  0  0  0  0  0  0  0
   30.4860   28.6510   44.8470 C   0  0  0  0  0  0  0  0  0  0  0  0
   30.5490   29.3360   45.9940 N   0  0  0  0  0  0  0  0  0  0  0  0
   29.3770   28.5890   43.9970 N   0  0  0  0  0  0  0  0  0  0  0  0
   33.9050   27.1610   44.7120 C   0  0  0  0  0  0  0  0  0  0  0  0
   34.3050   26.3430   45.6670 F   0  0  0  0  0  0  0  0  0  0  0  0
   33.7020   26.4370   43.5490 F   0  0  0  0  0  0  0  0  0  0  0  0
   35.0010   28.0190   44.4170 F   0  0  0  0  0  0  0  0  0  0  0  0
   36.4240   31.9340   49.7240 F   0  0  0  0  0  0  0  0  0  0  0  0
   37.2730   31.7080   48.6730 C   0  0  0  0  0  0  0  0  0  0  0  0
   37.0120   30.5960   47.9080 C   0  0  0  0  0  0  0  0  0  0  0  0
   37.8840   30.4080   46.8620 C   0  0  0  0  0  0  0  0  0  0  0  0
   38.9280   31.2540   46.5980 C   0  0  0  0  0  0  0  0  0  0  0  0
   39.1360   32.3420   47.3950 C   0  0  0  0  0  0  0  0  0  0  0  0
   38.3060   32.6050   48.4680 C   0  0  0  0  0  0  0  0  0  0  0  0
   38.5660   33.7910   49.3050 C   0  0  0  0  0  0  0  0  0  0  0  0
   39.7520   34.6460   48.7900 C   0  0  0  0  0  0  0  0  0  0  0  0
   39.7150   33.9650   50.1710 C   0  0  0  0  0  0  0  0  0  0  0  0
   32.9590   27.5030   48.7434 H   0  0  0  0  0  0  0  0  0  0  0  0
   34.5799   27.7239   50.5022 H   0  0  0  0  0  0  0  0  0  0  0  0
   36.5731   29.1889   50.1955 H   0  0  0  0  0  0  0  0  0  0  0  0
   31.6708   29.9135   47.6679 H   0  0  0  0  0  0  0  0  0  0  0  0
   28.5132   29.0949   44.2396 H   0  0  0  0  0  0  0  0  0  0  0  0
   29.4241   28.0374   43.1284 H   0  0  0  0  0  0  0  0  0  0  0  0
   37.7362   29.5372   46.2064 H   0  0  0  0  0  0  0  0  0  0  0  0
   39.5964   31.0573   45.7468 H   0  0  0  0  0  0  0  0  0  0  0  0
   39.9760   33.0190   47.1803 H   0  0  0  0  0  0  0  0  0  0  0  0
   37.4961   33.8937   49.5391 H   0  0  0  0  0  0  0  0  0  0  0  0
   40.4126   34.2682   47.9958 H   0  0  0  0  0  0  0  0  0  0  0  0
   39.8958   35.6658   48.4035 H   0  0  0  0  0  0  0  0  0  0  0  0
   39.6234   34.5806   51.0780 H   0  0  0  0  0  0  0  0  0  0  0  0
   40.3859   33.2708   50.6982 H   0  0  0  0  0  0  0  0  0  0  0  0
  1  2  2  0
  2  3  1  0
  4  3  2  0
  5  4  1  0
  6  1  1  0
  6  5  2  0
  8  7  2  0
  8  1  1  0
  9  8  1  0
 10 11  1  0
 10  9  2  0
 11 12  2  0
 12  7  1  0
 13 11  1  0
 14  9  1  0
 14 15  1  0
 16 14  1  0
 17 14  1  0
 19 18  1  0
 20  5  1  0
 20 19  2  0
 21 20  1  0
 22 21  2  0
 22 23  1  0
 23 24  2  0
 24 19  1  0
 24 25  1  0
 25 27  1  0
 26 25  1  0
 26 27  1  0
  2 28  1  0
  3 29  1  0
  4 30  1  0
  7 31  1  0
 13 32  1  0
 13 33  1  0
 21 34  1  0
 22 35  1  0
 23 36  1  0
 25 37  1  0
 26 38  1  0
 26 39  1  0
 27 40  1  0
 27 41  1  0
M  ISO  8  28  14  29  14  30  14  31  14  34  14  35  14  36  14  37  13
M  ISO  4  38  13  39  13  40  13  41  13
M  END
>  <minimizedAffinity>  (1) 
-6.33042383

>  <minimizedRMSD>  (1) 
1.45673704

$$$$
