
     RDKit          3D

 32 34  0  0  1  0  0  0  0  0999 V2000
   39.3890   32.6900   46.0160 C   0  0  0  0  0  0  0  0  0  0  0  0
   40.3480   31.8250   45.4760 C   0  0  0  0  0  0  0  0  0  0  0  0
   39.9560   30.5210   45.1660 C   0  0  0  0  0  0  0  0  0  0  0  0
   38.6740   30.1570   45.4020 N   0  0  0  0  0  0  0  0  0  0  0  0
   37.7740   30.9970   45.9180 C   0  0  0  0  0  0  0  0  0  0  0  0
   38.1330   32.2530   46.2210 N   0  0  0  0  0  0  0  0  0  0  0  0
   36.4310   30.5650   46.1500 N   0  0  0  0  0  0  0  0  0  0  0  0
   35.5860   30.0390   45.0800 C   0  0  0  0  0  0  0  0  0  0  0  0
   34.3750   29.5270   45.7540 C   0  0  0  0  0  0  0  0  0  0  0  0
   34.7370   29.4340   47.2230 C   0  0  0  0  0  0  0  0  0  0  0  0
   35.7070   30.5670   47.3820 C   0  0  1  0  0  0  0  0  0  0  0  0
   35.6560   28.3130   48.9990 F   0  0  0  0  0  0  0  0  0  0  0  0
   36.4370   29.3600   49.4050 C   0  0  0  0  0  0  0  0  0  0  0  0
   36.4860   30.5170   48.6110 C   0  0  0  0  0  0  0  0  0  0  0  0
   37.3100   31.5010   49.1310 C   0  0  0  0  0  0  0  0  0  0  0  0
   38.0200   31.3920   50.2940 C   0  0  0  0  0  0  0  0  0  0  0  0
   37.9380   30.2480   51.0260 C   0  0  0  0  0  0  0  0  0  0  0  0
   37.1430   29.2210   50.5840 C   0  0  0  0  0  0  0  0  0  0  0  0
   39.6615   33.7245   46.2721 H   0  0  0  0  0  0  0  0  0  0  0  0
   41.3802   32.1626   45.3010 H   0  0  0  0  0  0  0  0  0  0  0  0
   40.6738   29.8051   44.7392 H   0  0  0  0  0  0  0  0  0  0  0  0
   36.1017   29.2274   44.5458 H   0  0  0  0  0  0  0  0  0  0  0  0
   35.3443   30.8092   44.3328 H   0  0  0  0  0  0  0  0  0  0  0  0
   33.5326   30.2193   45.6089 H   0  0  0  0  0  0  0  0  0  0  0  0
   34.0634   28.5532   45.3483 H   0  0  0  0  0  0  0  0  0  0  0  0
   33.8523   29.5737   47.8615 H   0  0  0  0  0  0  0  0  0  0  0  0
   35.1477   28.4564   47.5158 H   0  0  0  0  0  0  0  0  0  0  0  0
   35.2204   31.5416   47.5348 H   0  0  0  0  0  0  0  0  0  0  0  0
   37.3999   32.4405   48.5660 H   0  0  0  0  0  0  0  0  0  0  0  0
   38.6535   32.2237   50.6359 H   0  0  0  0  0  0  0  0  0  0  0  0
   38.5041   30.1475   51.9638 H   0  0  0  0  0  0  0  0  0  0  0  0
   37.0681   28.2907   51.1661 H   0  0  0  0  0  0  0  0  0  0  0  0
  1  6  2  0
  2  1  1  0
  3  4  1  0
  3  2  2  0
  4  5  2  0
  5  7  1  0
  5  6  1  0
  7 11  1  0
  8  9  1  0
  8  7  1  0
  9 10  1  0
 10 11  1  0
 11 14  1  0
 12 13  1  0
 13 18  2  0
 14 15  2  0
 14 13  1  0
 15 16  1  0
 16 17  2  0
 18 17  1  0
  1 19  1  0
  2 20  1  0
  3 21  1  0
  8 22  1  0
  8 23  1  0
  9 24  1  0
  9 25  1  0
 10 26  1  0
 10 27  1  0
 11 28  1  1
 15 29  1  0
 16 30  1  0
 17 31  1  0
 18 32  1  0
M  ISO  8  19  14  20  14  21  14  22  13  23  13  24  13  25  13  26  13
M  ISO  6  27  13  28  13  29  14  30  14  31  14  32  14
M  END
>  <minimizedAffinity>  (1) 
-6.20624447

>  <minimizedRMSD>  (1) 
3.03669381

$$$$
