
     RDKit          3D

 34 36  0  0  1  0  0  0  0  0999 V2000
   39.6340   32.6660   46.1730 C   0  0  0  0  0  0  0  0  0  0  0  0
   40.4860   31.8300   45.4140 C   0  0  0  0  0  0  0  0  0  0  0  0
   39.9880   30.5810   44.9910 C   0  0  0  0  0  0  0  0  0  0  0  0
   38.7150   30.2480   45.3370 N   0  0  0  0  0  0  0  0  0  0  0  0
   37.9360   31.0690   46.0590 C   0  0  0  0  0  0  0  0  0  0  0  0
   38.3690   32.2770   46.4870 N   0  0  0  0  0  0  0  0  0  0  0  0
   36.6020   30.6460   46.3840 N   0  0  0  0  0  0  0  0  0  0  0  0
   35.6000   30.3370   45.3770 C   0  0  0  0  0  0  0  0  0  0  0  0
   34.4700   29.7230   46.1110 C   0  0  0  0  0  0  0  0  0  0  0  0
   34.9980   29.4450   47.5120 C   0  0  0  0  0  0  0  0  0  0  0  0
   36.0550   30.4640   47.6970 C   0  0  1  0  0  0  0  0  0  0  0  0
   36.9990   30.2530   48.7320 N   0  0  0  0  0  0  0  0  0  0  0  0
   37.0400   31.4170   49.5800 C   0  0  0  0  0  0  0  0  0  0  0  0
   36.9190   30.9630   50.9990 C   0  0  0  0  0  0  0  0  0  0  0  0
   37.3860   29.5210   50.8840 C   0  0  0  0  0  0  0  0  0  0  0  0
   36.7550   29.1140   49.5630 C   0  0  0  0  0  0  0  0  0  0  0  0
   40.0000   33.6455   46.5145 H   0  0  0  0  0  0  0  0  0  0  0  0
   41.5088   32.1458   45.1609 H   0  0  0  0  0  0  0  0  0  0  0  0
   40.6108   29.8951   44.3981 H   0  0  0  0  0  0  0  0  0  0  0  0
   36.0051   29.6314   44.6368 H   0  0  0  0  0  0  0  0  0  0  0  0
   35.2860   31.2366   44.8274 H   0  0  0  0  0  0  0  0  0  0  0  0
   33.6166   30.4158   46.1522 H   0  0  0  0  0  0  0  0  0  0  0  0
   34.1144   28.8055   45.6194 H   0  0  0  0  0  0  0  0  0  0  0  0
   34.2023   29.5646   48.2620 H   0  0  0  0  0  0  0  0  0  0  0  0
   35.3713   28.4171   47.6307 H   0  0  0  0  0  0  0  0  0  0  0  0
   35.6203   31.3902   48.1011 H   0  0  0  0  0  0  0  0  0  0  0  0
   37.9930   31.9479   49.4385 H   0  0  0  0  0  0  0  0  0  0  0  0
   36.2166   32.1013   49.3276 H   0  0  0  0  0  0  0  0  0  0  0  0
   37.5702   31.5463   51.6665 H   0  0  0  0  0  0  0  0  0  0  0  0
   35.9130   31.0806   51.4281 H   0  0  0  0  0  0  0  0  0  0  0  0
   38.4833   29.4540   50.8447 H   0  0  0  0  0  0  0  0  0  0  0  0
   37.1036   28.8845   51.7356 H   0  0  0  0  0  0  0  0  0  0  0  0
   35.6764   28.9314   49.6785 H   0  0  0  0  0  0  0  0  0  0  0  0
   37.1658   28.1795   49.1533 H   0  0  0  0  0  0  0  0  0  0  0  0
  1  6  2  0
  2  1  1  0
  3  4  1  0
  3  2  2  0
  4  5  2  0
  5  7  1  0
  5  6  1  0
  7 11  1  0
  8  9  1  0
  8  7  1  0
  9 10  1  0
 10 11  1  0
 11 12  1  0
 12 16  1  0
 12 13  1  0
 13 14  1  0
 15 14  1  0
 16 15  1  0
  1 17  1  0
  2 18  1  0
  3 19  1  0
  8 20  1  0
  8 21  1  0
  9 22  1  0
  9 23  1  0
 10 24  1  0
 10 25  1  0
 11 26  1  1
 13 27  1  0
 13 28  1  0
 14 29  1  0
 14 30  1  0
 15 31  1  0
 15 32  1  0
 16 33  1  0
 16 34  1  0
M  ISO  8  17  14  18  14  19  14  20  13  21  13  22  13  23  13  24  13
M  ISO  8  25  13  26  13  27  13  28  13  29  13  30  13  31  13  32  13
M  ISO  2  33  13  34  13
M  END
>  <minimizedAffinity>  (1) 
-5.04964399

>  <minimizedRMSD>  (1) 
2.90379071

$$$$
