
     RDKit          3D

 25 26  0  0  1  0  0  0  0  0999 V2000
   38.1510   33.2780   49.4370 C   0  0  0  0  0  0  0  0  0  0  0  0
   39.0500   33.1050   48.3520 C   0  0  0  0  0  0  0  0  0  0  0  0
   38.8580   32.0020   47.4830 C   0  0  0  0  0  0  0  0  0  0  0  0
   37.8160   31.1910   47.7660 N   0  0  0  0  0  0  0  0  0  0  0  0
   36.9770   31.3660   48.7930 C   0  0  0  0  0  0  0  0  0  0  0  0
   37.1500   32.4020   49.6150 N   0  0  0  0  0  0  0  0  0  0  0  0
   35.9050   30.4240   48.9850 N   0  0  0  0  0  0  0  0  0  0  0  0
   34.9050   30.1390   47.9840 C   0  0  0  0  0  0  0  0  0  0  0  0
   34.1990   28.9290   48.5050 C   0  0  0  0  0  0  0  0  0  0  0  0
   34.9990   28.4370   49.6970 C   0  0  0  0  0  0  0  0  0  0  0  0
   35.7030   29.6480   50.2060 C   0  0  1  0  0  0  0  0  0  0  0  0
   36.9750   29.3860   50.9480 C   0  0  0  0  0  0  0  0  0  0  0  0
   38.2742   34.1251   50.1278 H   0  0  0  0  0  0  0  0  0  0  0  0
   39.8773   33.8114   48.1893 H   0  0  0  0  0  0  0  0  0  0  0  0
   39.5213   31.8167   46.6252 H   0  0  0  0  0  0  0  0  0  0  0  0
   35.3750   29.9282   47.0120 H   0  0  0  0  0  0  0  0  0  0  0  0
   34.2228   30.9856   47.8170 H   0  0  0  0  0  0  0  0  0  0  0  0
   33.1770   29.1910   48.8164 H   0  0  0  0  0  0  0  0  0  0  0  0
   34.1232   28.1511   47.7310 H   0  0  0  0  0  0  0  0  0  0  0  0
   34.3320   28.0234   50.4678 H   0  0  0  0  0  0  0  0  0  0  0  0
   35.6982   27.6324   49.4255 H   0  0  0  0  0  0  0  0  0  0  0  0
   35.1169   30.1661   50.9793 H   0  0  0  0  0  0  0  0  0  0  0  0
   36.7829   29.4256   52.0304 H   0  0  0  0  0  0  0  0  0  0  0  0
   37.3576   28.3902   50.6797 H   0  0  0  0  0  0  0  0  0  0  0  0
   37.7200   30.1496   50.6797 H   0  0  0  0  0  0  0  0  0  0  0  0
  1  6  2  0
  2  1  1  0
  3  4  1  0
  3  2  2  0
  4  5  2  0
  5  7  1  0
  5  6  1  0
  7 11  1  0
  8  9  1  0
  8  7  1  0
  9 10  1  0
 10 11  1  0
 11 12  1  0
  1 13  1  0
  2 14  1  0
  3 15  1  0
  8 16  1  0
  8 17  1  0
  9 18  1  0
  9 19  1  0
 10 20  1  0
 10 21  1  0
 11 22  1  1
 12 23  1  0
 12 24  1  0
 12 25  1  0
M  ISO  8  13  14  14  14  15  14  16  13  17  13  18  13  19  13  20  13
M  ISO  5  21  13  22  13  23   8  24   8  25   8
M  END
>  <minimizedAffinity>  (1) 
-4.98553181

>  <minimizedRMSD>  (1) 
0.215237156

$$$$
