
     RDKit          3D

 23 24  0  0  1  0  0  0  0  0999 V2000
   38.1400   33.4090   49.4450 C   0  0  0  0  0  0  0  0  0  0  0  0
   39.0780   33.1990   48.4050 C   0  0  0  0  0  0  0  0  0  0  0  0
   38.9200   32.0630   47.5950 C   0  0  0  0  0  0  0  0  0  0  0  0
   37.8780   31.2480   47.8680 N   0  0  0  0  0  0  0  0  0  0  0  0
   36.9980   31.4660   48.8620 C   0  0  0  0  0  0  0  0  0  0  0  0
   37.1170   32.5370   49.6530 N   0  0  0  0  0  0  0  0  0  0  0  0
   35.9330   30.5200   49.0470 N   0  0  0  0  0  0  0  0  0  0  0  0
   34.9330   30.2300   48.0350 C   0  0  0  0  0  0  0  0  0  0  0  0
   34.1850   29.0680   48.5710 C   0  0  0  0  0  0  0  0  0  0  0  0
   34.9670   28.5600   49.7630 C   0  0  0  0  0  0  0  0  0  0  0  0
   35.7310   29.7420   50.2650 C   0  0  1  0  0  0  0  0  0  0  0  0
   37.3590   29.1490   50.8110 S   0  0  0  0  0  0  0  0  0  0  0  0
   38.2403   34.2910   50.0947 H   0  0  0  0  0  0  0  0  0  0  0  0
   39.9052   33.9044   48.2369 H   0  0  0  0  0  0  0  0  0  0  0  0
   39.6164   31.8456   46.7717 H   0  0  0  0  0  0  0  0  0  0  0  0
   35.4116   29.9758   47.0777 H   0  0  0  0  0  0  0  0  0  0  0  0
   34.2787   31.0916   47.8360 H   0  0  0  0  0  0  0  0  0  0  0  0
   33.1766   29.3774   48.8830 H   0  0  0  0  0  0  0  0  0  0  0  0
   34.0725   28.2836   47.8080 H   0  0  0  0  0  0  0  0  0  0  0  0
   34.2848   28.1838   50.5396 H   0  0  0  0  0  0  0  0  0  0  0  0
   35.6317   27.7262   49.4928 H   0  0  0  0  0  0  0  0  0  0  0  0
   35.2396   30.2907   51.0820 H   0  0  0  0  0  0  0  0  0  0  0  0
   37.4035   29.1328   52.1802 H   0  0  0  0  0  0  0  0  0  0  0  0
  1  6  2  0
  2  1  1  0
  3  4  1  0
  3  2  2  0
  4  5  2  0
  5  7  1  0
  5  6  1  0
  7 11  1  0
  8  9  1  0
  8  7  1  0
  9 10  1  0
 10 11  1  0
 11 12  1  0
  1 13  1  0
  2 14  1  0
  3 15  1  0
  8 16  1  0
  8 17  1  0
  9 18  1  0
  9 19  1  0
 10 20  1  0
 10 21  1  0
 11 22  1  1
 12 23  1  0
M  ISO  8  13  14  14  14  15  14  16  13  17  13  18  13  19  13  20  13
M  ISO  3  21  13  22  13  23  11
M  END
>  <minimizedAffinity>  (1) 
-4.67432165

>  <minimizedRMSD>  (1) 
0.326389313

$$$$
