
     RDKit          3D

 29 31  0  0  1  0  0  0  0  0999 V2000
   38.1170   33.2600   49.2310 C   0  0  0  0  0  0  0  0  0  0  0  0
   39.1400   33.0020   48.2860 C   0  0  0  0  0  0  0  0  0  0  0  0
   38.9950   31.8820   47.4600 C   0  0  0  0  0  0  0  0  0  0  0  0
   37.8950   31.1080   47.6060 N   0  0  0  0  0  0  0  0  0  0  0  0
   36.9420   31.3700   48.5060 C   0  0  0  0  0  0  0  0  0  0  0  0
   37.0430   32.4420   49.3240 N   0  0  0  0  0  0  0  0  0  0  0  0
   35.8040   30.5060   48.6070 N   0  0  0  0  0  0  0  0  0  0  0  0
   34.8950   30.2600   47.5050 C   0  0  0  0  0  0  0  0  0  0  0  0
   34.0520   29.1200   47.9460 C   0  0  0  0  0  0  0  0  0  0  0  0
   34.7010   28.5840   49.2120 C   0  0  0  0  0  0  0  0  0  0  0  0
   35.3940   29.7670   49.7890 C   0  0  1  0  0  0  0  0  0  0  0  0
   36.5050   29.4560   50.7030 C   0  0  0  0  0  0  0  0  0  0  0  0
   36.8370   30.0430   51.9110 C   0  0  0  0  0  0  0  0  0  0  0  0
   37.9450   29.4180   52.3870 C   0  0  0  0  0  0  0  0  0  0  0  0
   38.2930   28.4670   51.5010 N   0  0  0  0  0  0  0  0  0  0  0  0
   37.4210   28.4940   50.4860 N   0  0  0  0  0  0  0  0  0  0  0  0
   38.1962   34.1332   49.8953 H   0  0  0  0  0  0  0  0  0  0  0  0
   40.0181   33.6594   48.2043 H   0  0  0  0  0  0  0  0  0  0  0  0
   39.7591   31.6360   46.7079 H   0  0  0  0  0  0  0  0  0  0  0  0
   35.4539   29.9975   46.5946 H   0  0  0  0  0  0  0  0  0  0  0  0
   34.2929   31.1478   47.2613 H   0  0  0  0  0  0  0  0  0  0  0  0
   33.0277   29.4611   48.1566 H   0  0  0  0  0  0  0  0  0  0  0  0
   33.9842   28.3447   47.1687 H   0  0  0  0  0  0  0  0  0  0  0  0
   33.9414   28.1979   49.9076 H   0  0  0  0  0  0  0  0  0  0  0  0
   35.3860   27.7462   49.0148 H   0  0  0  0  0  0  0  0  0  0  0  0
   34.7358   30.3409   50.4579 H   0  0  0  0  0  0  0  0  0  0  0  0
   36.2992   30.8691   52.3992 H   0  0  0  0  0  0  0  0  0  0  0  0
   38.4650   29.6482   53.3286 H   0  0  0  0  0  0  0  0  0  0  0  0
   39.0949   27.8265   51.5890 H   0  0  0  0  0  0  0  0  0  0  0  0
  1  6  2  0
  2  1  1  0
  3  4  1  0
  3  2  2  0
  4  5  2  0
  5  7  1  0
  5  6  1  0
  7 11  1  0
  8  9  1  0
  8  7  1  0
  9 10  1  0
 10 11  1  0
 11 12  1  0
 12 13  1  0
 13 14  2  0
 15 14  1  0
 16 12  2  0
 16 15  1  0
  1 17  1  0
  2 18  1  0
  3 19  1  0
  8 20  1  0
  8 21  1  0
  9 22  1  0
  9 23  1  0
 10 24  1  0
 10 25  1  0
 11 26  1  1
 13 27  1  0
 14 28  1  0
 15 29  1  0
M  ISO  8  17  14  18  14  19  14  20  13  21  13  22  13  23  13  24  13
M  ISO  5  25  13  26  13  27  14  28  14  29   9
M  END
>  <minimizedAffinity>  (1) 
-4.38915491

>  <minimizedRMSD>  (1) 
0.56931448

$$$$
