
     RDKit          3D

 36 38  0  0  0  0  0  0  0  0999 V2000
   33.9900   29.0240   47.4250 C   0  0  0  0  0  0  0  0  0  0  0  0
   33.9690   28.2970   48.6360 C   0  0  0  0  0  0  0  0  0  0  0  0
   34.9260   28.3510   49.5980 C   0  0  0  0  0  0  0  0  0  0  0  0
   36.0040   29.1320   49.4550 C   0  0  0  0  0  0  0  0  0  0  0  0
   36.0300   29.8350   48.2890 C   0  0  0  0  0  0  0  0  0  0  0  0
   35.0800   29.7590   47.3740 N   0  0  0  0  0  0  0  0  0  0  0  0
   31.6780   28.5830   47.1800 C   0  0  0  0  0  0  0  0  0  0  0  0
   32.8940   28.8880   46.4780 C   0  0  0  0  0  0  0  0  0  0  0  0
   32.8010   28.9950   45.1190 C   0  0  0  0  0  0  0  0  0  0  0  0
   31.5750   28.8040   44.5500 N   0  0  0  0  0  0  0  0  0  0  0  0
   30.4600   28.5230   45.2150 C   0  0  0  0  0  0  0  0  0  0  0  0
   30.5270   28.4140   46.5410 N   0  0  0  0  0  0  0  0  0  0  0  0
   29.2890   28.3620   44.4380 N   0  0  0  0  0  0  0  0  0  0  0  0
   34.0000   29.3030   44.3560 C   0  0  0  0  0  0  0  0  0  0  0  0
   34.9520   28.4480   44.6520 F   0  0  0  0  0  0  0  0  0  0  0  0
   33.8190   29.3300   42.9830 F   0  0  0  0  0  0  0  0  0  0  0  0
   34.4980   30.6040   44.6730 F   0  0  0  0  0  0  0  0  0  0  0  0
   36.6420   32.0070   49.8930 F   0  0  0  0  0  0  0  0  0  0  0  0
   37.4470   31.8210   48.8010 C   0  0  0  0  0  0  0  0  0  0  0  0
   37.1580   30.7420   47.9900 C   0  0  0  0  0  0  0  0  0  0  0  0
   37.9930   30.6010   46.9110 C   0  0  0  0  0  0  0  0  0  0  0  0
   39.0350   31.4670   46.6600 C   0  0  0  0  0  0  0  0  0  0  0  0
   39.2720   32.5180   47.5010 C   0  0  0  0  0  0  0  0  0  0  0  0
   38.4770   32.7140   48.5910 C   0  0  0  0  0  0  0  0  0  0  0  0
   38.6720   33.7890   49.5050 N   0  0  0  0  0  0  0  0  0  0  0  0
   33.1091   27.6345   48.8139 H   0  0  0  0  0  0  0  0  0  0  0  0
   34.8138   27.7439   50.5084 H   0  0  0  0  0  0  0  0  0  0  0  0
   36.7986   29.1998   50.2126 H   0  0  0  0  0  0  0  0  0  0  0  0
   31.7016   28.4871   48.2756 H   0  0  0  0  0  0  0  0  0  0  0  0
   28.3929   28.1431   44.8963 H   0  0  0  0  0  0  0  0  0  0  0  0
   29.3324   28.4637   43.4140 H   0  0  0  0  0  0  0  0  0  0  0  0
   37.8241   29.7632   46.2185 H   0  0  0  0  0  0  0  0  0  0  0  0
   39.6776   31.3121   45.7807 H   0  0  0  0  0  0  0  0  0  0  0  0
   40.1054   33.2067   47.2981 H   0  0  0  0  0  0  0  0  0  0  0  0
   38.0450   33.8964   50.3151 H   0  0  0  0  0  0  0  0  0  0  0  0
   39.4400   34.4589   49.3558 H   0  0  0  0  0  0  0  0  0  0  0  0
  1  2  2  0
  2  3  1  0
  4  3  2  0
  5  4  1  0
  6  1  1  0
  6  5  2  0
  8  7  2  0
  8  1  1  0
  9  8  1  0
 10  9  2  0
 10 11  1  0
 11 12  2  0
 12  7  1  0
 13 11  1  0
 14 15  1  0
 14 17  1  0
 14  9  1  0
 16 14  1  0
 19 18  1  0
 20  5  1  0
 20 19  2  0
 21 20  1  0
 22 21  2  0
 22 23  1  0
 23 24  2  0
 24 19  1  0
 24 25  1  0
  2 26  1  0
  3 27  1  0
  4 28  1  0
  7 29  1  0
 13 30  1  0
 13 31  1  0
 21 32  1  0
 22 33  1  0
 23 34  1  0
 25 35  1  0
 25 36  1  0
M  ISO  7  26  14  27  14  28  14  29  14  32  14  33  14  34  14
M  END
>  <minimizedAffinity>  (1) 
-6.14281321

>  <minimizedRMSD>  (1) 
0.832530081

$$$$
