
     RDKit          3D

 46 49  0  0  1  0  0  0  0  0999 V2000
   38.4570   31.6210   44.5700 C   0  0  0  0  0  0  0  0  0  0  0  0
   39.5660   31.9400   43.7640 C   0  0  0  0  0  0  0  0  0  0  0  0
   40.7590   31.7540   44.4460 C   0  0  0  0  0  0  0  0  0  0  0  0
   40.8800   31.3050   45.7490 C   0  0  0  0  0  0  0  0  0  0  0  0
   39.7110   31.0080   46.4760 C   0  0  0  0  0  0  0  0  0  0  0  0
   38.4740   31.1690   45.8790 C   0  0  0  0  0  0  0  0  0  0  0  0
   40.2490   27.8980   42.0080 C   0  0  0  0  0  0  0  0  0  0  0  0
   39.0730   27.1660   41.8820 C   0  0  0  0  0  0  0  0  0  0  0  0
   37.8990   27.8460   41.6040 C   0  0  0  0  0  0  0  0  0  0  0  0
   37.9380   29.1950   41.4670 N   0  0  0  0  0  0  0  0  0  0  0  0
   39.0380   29.8900   41.5850 C   0  0  0  0  0  0  0  0  0  0  0  0
   40.1120   29.1940   41.8450 N   0  0  0  0  0  0  0  0  0  0  0  0
   39.0360   31.2900   41.4280 N   0  0  0  0  0  0  0  0  0  0  0  0
   38.5760   31.9430   40.1980 C   0  0  0  0  0  0  0  0  0  0  0  0
   38.6250   33.3810   40.4840 C   0  0  0  0  0  0  0  0  0  0  0  0
   38.7260   33.4670   42.0080 C   0  0  0  0  0  0  0  0  0  0  0  0
   39.5170   32.3060   42.3780 C   0  0  1  0  0  0  0  0  0  0  0  0
   37.0210   31.1690   47.9250 C   0  0  0  0  0  0  0  0  0  0  0  0
   37.2640   30.8660   46.6230 C   0  0  0  0  0  0  0  0  0  0  0  0
   36.3140   30.2080   45.8700 C   0  0  0  0  0  0  0  0  0  0  0  0
   35.0940   29.8310   46.3910 C   0  0  0  0  0  0  0  0  0  0  0  0
   34.8240   30.1270   47.7080 C   0  0  0  0  0  0  0  0  0  0  0  0
   35.8010   30.7910   48.4440 C   0  0  0  0  0  0  0  0  0  0  0  0
   38.2550   31.9950   48.8110 S   0  0  0  0  0  0  0  0  0  0  0  0
   37.8370   33.4330   49.0630 O   0  0  0  0  0  0  0  0  0  0  0  0
   38.5740   31.3390   50.1180 O   0  0  0  0  0  0  0  0  0  0  0  0
   36.1130   32.0800   43.6250 N   0  0  0  0  0  0  0  0  0  0  0  0
   37.1440   31.8770   44.0290 C   0  0  0  0  0  0  0  0  0  0  0  0
   41.6888   31.9831   43.9046 H   0  0  0  0  0  0  0  0  0  0  0  0
   41.8716   31.1822   46.2090 H   0  0  0  0  0  0  0  0  0  0  0  0
   39.7815   30.6497   47.5136 H   0  0  0  0  0  0  0  0  0  0  0  0
   41.2189   27.4277   42.2272 H   0  0  0  0  0  0  0  0  0  0  0  0
   39.0754   26.0724   42.0004 H   0  0  0  0  0  0  0  0  0  0  0  0
   36.9498   27.3007   41.4960 H   0  0  0  0  0  0  0  0  0  0  0  0
   37.5485   31.6324   39.9575 H   0  0  0  0  0  0  0  0  0  0  0  0
   39.1995   31.6747   39.3324 H   0  0  0  0  0  0  0  0  0  0  0  0
   39.5041   33.8417   40.0098 H   0  0  0  0  0  0  0  0  0  0  0  0
   37.7462   33.9147   40.0930 H   0  0  0  0  0  0  0  0  0  0  0  0
   39.2295   34.3959   42.3140 H   0  0  0  0  0  0  0  0  0  0  0  0
   37.7402   33.4785   42.4959 H   0  0  0  0  0  0  0  0  0  0  0  0
   40.5973   32.4948   42.2927 H   0  0  0  0  0  0  0  0  0  0  0  0
   36.5370   29.9760   44.8181 H   0  0  0  0  0  0  0  0  0  0  0  0
   34.3541   29.3061   45.7688 H   0  0  0  0  0  0  0  0  0  0  0  0
   33.8637   29.8468   48.1655 H   0  0  0  0  0  0  0  0  0  0  0  0
   35.5882   31.0270   49.4971 H   0  0  0  0  0  0  0  0  0  0  0  0
   39.3878   31.9498   48.0418 H   0  0  0  0  0  0  0  0  0  0  0  0
  1  6  2  0
  2  3  2  0
  2  1  1  0
  3  4  1  0
  4  5  2  0
  6  5  1  0
  6 19  1  0
  8  7  2  0
  9  8  1  0
 10 11  1  0
 10  9  2  0
 11 12  2  0
 12  7  1  0
 13 11  1  0
 13 17  1  0
 14 15  1  0
 14 13  1  0
 15 16  1  0
 16 17  1  0
 17  2  1  0
 18 23  2  0
 18 24  1  0
 19 18  1  0
 20 21  1  0
 20 19  2  0
 21 22  2  0
 22 23  1  0
 24 25  2  0
 24 26  2  0
 27 28  3  0
 28  1  1  0
  3 29  1  0
  4 30  1  0
  5 31  1  0
  7 32  1  0
  8 33  1  0
  9 34  1  0
 14 35  1  0
 14 36  1  0
 15 37  1  0
 15 38  1  0
 16 39  1  0
 16 40  1  0
 17 41  1  6
 20 42  1  0
 21 43  1  0
 22 44  1  0
 23 45  1  0
 24 46  1  0
M  ISO  8  29  14  30  14  31  14  32  14  33  14  34  14  35  13  36  13
M  ISO  8  37  13  38  13  39  13  40  13  41  13  42  14  43  14  44  14
M  ISO  2  45  14  46  11
M  END
>  <minimizedAffinity>  (1) 
-6.03996706

>  <minimizedRMSD>  (1) 
6.02026415

$$$$
