
     RDKit          3D

 43 46  0  0  1  0  0  0  0  0999 V2000
   37.0910   33.5800   41.8040 C   0  0  0  0  0  0  0  0  0  0  0  0
   37.9860   34.0360   40.8440 C   0  0  0  0  0  0  0  0  0  0  0  0
   38.8080   33.1150   40.2160 C   0  0  0  0  0  0  0  0  0  0  0  0
   38.7110   31.8060   40.5580 N   0  0  0  0  0  0  0  0  0  0  0  0
   37.8720   31.3700   41.4590 C   0  0  0  0  0  0  0  0  0  0  0  0
   37.1240   32.2850   42.0160 N   0  0  0  0  0  0  0  0  0  0  0  0
   37.8000   30.0000   41.7830 N   0  0  0  0  0  0  0  0  0  0  0  0
   37.4950   28.9730   40.7810 C   0  0  0  0  0  0  0  0  0  0  0  0
   37.6050   27.6960   41.5030 C   0  0  0  0  0  0  0  0  0  0  0  0
   38.3960   28.0370   42.7670 C   0  0  0  0  0  0  0  0  0  0  0  0
   37.9490   29.3750   43.1060 C   0  0  1  0  0  0  0  0  0  0  0  0
   38.2040   30.4520   45.3680 C   0  0  0  0  0  0  0  0  0  0  0  0
   38.6780   30.1040   44.1000 C   0  0  0  0  0  0  0  0  0  0  0  0
   40.0060   30.4690   43.9430 C   0  0  0  0  0  0  0  0  0  0  0  0
   40.7940   31.0840   44.8850 C   0  0  0  0  0  0  0  0  0  0  0  0
   40.2120   31.3890   46.1360 C   0  0  0  0  0  0  0  0  0  0  0  0
   38.8860   31.0770   46.4090 C   0  0  0  0  0  0  0  0  0  0  0  0
   38.2970   31.3940   47.6980 C   0  0  0  0  0  0  0  0  0  0  0  0
   38.4150   32.7490   48.0300 C   0  0  0  0  0  0  0  0  0  0  0  0
   37.9110   33.2250   49.2220 C   0  0  0  0  0  0  0  0  0  0  0  0
   37.2830   32.3300   50.0920 C   0  0  0  0  0  0  0  0  0  0  0  0
   37.1790   30.9950   49.7440 C   0  0  0  0  0  0  0  0  0  0  0  0
   37.6790   30.5030   48.5500 C   0  0  0  0  0  0  0  0  0  0  0  0
   35.7020   30.0560   45.8660 N   0  0  0  0  0  0  0  0  0  0  0  0
   36.8000   30.2180   45.6470 C   0  0  0  0  0  0  0  0  0  0  0  0
   36.4079   34.2519   42.3443 H   0  0  0  0  0  0  0  0  0  0  0  0
   38.0405   35.1045   40.5885 H   0  0  0  0  0  0  0  0  0  0  0  0
   39.5287   33.4402   39.4513 H   0  0  0  0  0  0  0  0  0  0  0  0
   38.2181   29.0131   39.9531 H   0  0  0  0  0  0  0  0  0  0  0  0
   36.4992   29.1123   40.3349 H   0  0  0  0  0  0  0  0  0  0  0  0
   36.6085   27.3081   41.7609 H   0  0  0  0  0  0  0  0  0  0  0  0
   38.0946   26.9162   40.9011 H   0  0  0  0  0  0  0  0  0  0  0  0
   38.1641   27.3297   43.5769 H   0  0  0  0  0  0  0  0  0  0  0  0
   39.4840   27.9779   42.6162 H   0  0  0  0  0  0  0  0  0  0  0  0
   37.0114   29.3596   43.6811 H   0  0  0  0  0  0  0  0  0  0  0  0
   40.4728   30.2450   42.9725 H   0  0  0  0  0  0  0  0  0  0  0  0
   41.8446   31.3312   44.6724 H   0  0  0  0  0  0  0  0  0  0  0  0
   40.8202   31.8827   46.9082 H   0  0  0  0  0  0  0  0  0  0  0  0
   38.9139   33.4396   47.3342 H   0  0  0  0  0  0  0  0  0  0  0  0
   38.0017   34.2897   49.4832 H   0  0  0  0  0  0  0  0  0  0  0  0
   36.8732   32.6851   51.0491 H   0  0  0  0  0  0  0  0  0  0  0  0
   36.6827   30.3014   50.4387 H   0  0  0  0  0  0  0  0  0  0  0  0
   37.5864   29.4382   48.2901 H   0  0  0  0  0  0  0  0  0  0  0  0
  1  6  2  0
  2  1  1  0
  3  4  1  0
  3  2  2  0
  4  5  2  0
  5  7  1  0
  5  6  1  0
  7 11  1  0
  8  9  1  0
  8  7  1  0
  9 10  1  0
 10 11  1  0
 11 13  1  0
 12 25  1  0
 12 17  2  0
 13 12  1  0
 14 13  2  0
 14 15  1  0
 15 16  2  0
 16 17  1  0
 17 18  1  0
 18 19  2  0
 18 23  1  0
 19 20  1  0
 20 21  2  0
 22 21  1  0
 23 22  2  0
 25 24  3  0
  1 26  1  0
  2 27  1  0
  3 28  1  0
  8 29  1  0
  8 30  1  0
  9 31  1  0
  9 32  1  0
 10 33  1  0
 10 34  1  0
 11 35  1  1
 14 36  1  0
 15 37  1  0
 16 38  1  0
 19 39  1  0
 20 40  1  0
 21 41  1  0
 22 42  1  0
 23 43  1  0
M  ISO  8  26  14  27  14  28  14  29  13  30  13  31  13  32  13  33  13
M  ISO  8  34  13  35  13  36  14  37  14  38  14  39  14  40  14  41  14
M  ISO  2  42  14  43  14
M  END
>  <minimizedAffinity>  (1) 
-5.88606977

>  <minimizedRMSD>  (1) 
5.43481112

$$$$
