
     RDKit          3D

 25 26  0  0  0  0  0  0  0  0999 V2000
   38.8540   32.7320   48.1160 C   0  0  0  0  0  0  0  0  0  0  0  0
   39.3550   32.2070   46.9070 C   0  0  0  0  0  0  0  0  0  0  0  0
   38.6880   31.1250   46.3310 C   0  0  0  0  0  0  0  0  0  0  0  0
   37.5880   30.6340   46.9660 N   0  0  0  0  0  0  0  0  0  0  0  0
   37.1320   31.1550   48.1210 C   0  0  0  0  0  0  0  0  0  0  0  0
   37.7600   32.2000   48.6950 N   0  0  0  0  0  0  0  0  0  0  0  0
   35.9630   30.6030   48.7580 N   0  0  0  0  0  0  0  0  0  0  0  0
   35.9670   30.3610   50.2000 C   0  0  0  0  0  0  0  0  0  0  0  0
   35.1280   29.1760   50.5960 C   0  0  0  0  0  0  0  0  0  0  0  0
   34.9340   28.2960   49.3830 C   0  0  0  0  0  0  0  0  0  0  0  0
   34.0590   29.0740   48.4250 C   0  0  0  0  0  0  0  0  0  0  0  0
   34.8000   30.2940   47.9610 C   0  0  0  0  0  0  0  0  0  0  0  0
   39.3615   33.5845   48.5912 H   0  0  0  0  0  0  0  0  0  0  0  0
   40.2476   32.6387   46.4307 H   0  0  0  0  0  0  0  0  0  0  0  0
   39.0415   30.6805   45.3889 H   0  0  0  0  0  0  0  0  0  0  0  0
   37.0030   30.1815   50.5231 H   0  0  0  0  0  0  0  0  0  0  0  0
   35.5354   31.2487   50.6855 H   0  0  0  0  0  0  0  0  0  0  0  0
   35.6387   28.6084   51.3878 H   0  0  0  0  0  0  0  0  0  0  0  0
   34.1524   29.5157   50.9739 H   0  0  0  0  0  0  0  0  0  0  0  0
   35.9046   28.0730   48.9159 H   0  0  0  0  0  0  0  0  0  0  0  0
   34.4701   27.3369   49.6568 H   0  0  0  0  0  0  0  0  0  0  0  0
   33.8098   28.4431   47.5590 H   0  0  0  0  0  0  0  0  0  0  0  0
   33.1312   29.3757   48.9332 H   0  0  0  0  0  0  0  0  0  0  0  0
   35.1239   30.1299   46.9226 H   0  0  0  0  0  0  0  0  0  0  0  0
   34.1097   31.1453   48.0550 H   0  0  0  0  0  0  0  0  0  0  0  0
  1  6  2  0
  2  1  1  0
  3  2  2  0
  3  4  1  0
  4  5  2  0
  5  6  1  0
  5  7  1  0
  7  8  1  0
  8  9  1  0
 10  9  1  0
 11 10  1  0
 12 11  1  0
 12  7  1  0
  1 13  1  0
  2 14  1  0
  3 15  1  0
  8 16  1  0
  8 17  1  0
  9 18  1  0
  9 19  1  0
 10 20  1  0
 10 21  1  0
 11 22  1  0
 11 23  1  0
 12 24  1  0
 12 25  1  0
M  ISO  8  13  14  14  14  15  14  16  13  17  13  18  13  19  13  20  13
M  ISO  5  21  13  22  13  23  13  24  13  25  13
M  END
>  <minimizedAffinity>  (1) 
-4.61852217

>  <minimizedRMSD>  (1) 
3.22020698

$$$$
