
     RDKit          3D

 38 40  0  0  0  0  0  0  0  0999 V2000
   34.2510   28.9940   48.7210 C   0  0  0  0  0  0  0  0  0  0  0  0
   34.3770   28.7970   50.0960 C   0  0  0  0  0  0  0  0  0  0  0  0
   35.3990   29.2220   50.8830 C   0  0  0  0  0  0  0  0  0  0  0  0
   36.4240   29.9070   50.3440 C   0  0  0  0  0  0  0  0  0  0  0  0
   36.3200   30.1090   49.0070 C   0  0  0  0  0  0  0  0  0  0  0  0
   35.2970   29.6710   48.2880 N   0  0  0  0  0  0  0  0  0  0  0  0
   32.2710   27.7310   48.8990 C   0  0  0  0  0  0  0  0  0  0  0  0
   33.0870   28.4920   48.0030 C   0  0  0  0  0  0  0  0  0  0  0  0
   32.6510   28.6150   46.7180 C   0  0  0  0  0  0  0  0  0  0  0  0
   31.4650   28.0000   46.3810 N   0  0  0  0  0  0  0  0  0  0  0  0
   30.7120   27.2910   47.2310 C   0  0  0  0  0  0  0  0  0  0  0  0
   31.1310   27.1650   48.4910 N   0  0  0  0  0  0  0  0  0  0  0  0
   29.5360   26.7510   46.7020 N   0  0  0  0  0  0  0  0  0  0  0  0
   33.4440   29.3760   45.7660 C   0  0  0  0  0  0  0  0  0  0  0  0
   34.6440   28.8320   45.6600 F   0  0  0  0  0  0  0  0  0  0  0  0
   32.8860   29.4810   44.5040 F   0  0  0  0  0  0  0  0  0  0  0  0
   33.6330   30.7120   46.2010 F   0  0  0  0  0  0  0  0  0  0  0  0
   37.0650   32.6740   49.7080 F   0  0  0  0  0  0  0  0  0  0  0  0
   37.7310   32.1250   48.6230 C   0  0  0  0  0  0  0  0  0  0  0  0
   37.3770   30.8580   48.2710 C   0  0  0  0  0  0  0  0  0  0  0  0
   38.0540   30.3380   47.2020 C   0  0  0  0  0  0  0  0  0  0  0  0
   39.0240   31.0560   46.5380 C   0  0  0  0  0  0  0  0  0  0  0  0
   39.3360   32.3300   46.9410 C   0  0  0  0  0  0  0  0  0  0  0  0
   38.6870   32.8830   47.9960 C   0  0  0  0  0  0  0  0  0  0  0  0
   39.5600   34.5910   49.6940 C   0  0  0  0  0  0  0  0  0  0  0  0
   39.9900   33.6820   50.4390 O   0  0  0  0  0  0  0  0  0  0  0  0
   38.9230   34.1840   48.5000 N   0  0  0  0  0  0  0  0  0  0  0  0
   33.5676   28.2419   50.5927 H   0  0  0  0  0  0  0  0  0  0  0  0
   35.3888   29.0061   51.9616 H   0  0  0  0  0  0  0  0  0  0  0  0
   37.2748   30.2724   50.9378 H   0  0  0  0  0  0  0  0  0  0  0  0
   32.5885   27.6093   49.9451 H   0  0  0  0  0  0  0  0  0  0  0  0
   28.9099   26.1943   47.3012 H   0  0  0  0  0  0  0  0  0  0  0  0
   29.2957   26.9098   45.7131 H   0  0  0  0  0  0  0  0  0  0  0  0
   37.8172   29.3185   46.8634 H   0  0  0  0  0  0  0  0  0  0  0  0
   39.5498   30.6069   45.6825 H   0  0  0  0  0  0  0  0  0  0  0  0
   40.1110   32.9018   46.4095 H   0  0  0  0  0  0  0  0  0  0  0  0
   39.6723   35.6536   49.9555 H   0  0  0  0  0  0  0  0  0  0  0  0
   38.5779   34.9514   47.9060 H   0  0  0  0  0  0  0  0  0  0  0  0
  1  2  2  0
  2  3  1  0
  4  3  2  0
  5  4  1  0
  6  1  1  0
  6  5  2  0
  8  1  1  0
  8  7  2  0
  9  8  1  0
 10  9  2  0
 10 11  1  0
 11 12  2  0
 12  7  1  0
 13 11  1  0
 14 17  1  0
 14  9  1  0
 15 14  1  0
 16 14  1  0
 19 18  1  0
 20 19  2  0
 20  5  1  0
 21 20  1  0
 22 23  1  0
 22 21  2  0
 23 24  2  0
 24 27  1  0
 24 19  1  0
 25 26  2  0
 27 25  1  0
  2 28  1  0
  3 29  1  0
  4 30  1  0
  7 31  1  0
 13 32  1  0
 13 33  1  0
 21 34  1  0
 22 35  1  0
 23 36  1  0
 25 37  1  0
 27 38  1  0
M  ISO  8  28  14  29  14  30  14  31  14  34  14  35  14  36  14  37   6
M  END
>  <minimizedAffinity>  (1) 
-6.09376097

>  <minimizedRMSD>  (1) 
2.07587099

$$$$
