
     RDKit          3D

 35 37  0  0  0  0  0  0  0  0999 V2000
   34.1090   29.1570   47.0870 C   0  0  0  0  0  0  0  0  0  0  0  0
   34.0450   28.5250   48.3430 C   0  0  0  0  0  0  0  0  0  0  0  0
   34.9800   28.6200   49.3190 C   0  0  0  0  0  0  0  0  0  0  0  0
   36.0820   29.3630   49.1350 C   0  0  0  0  0  0  0  0  0  0  0  0
   36.1550   29.9760   47.9310 C   0  0  0  0  0  0  0  0  0  0  0  0
   35.2200   29.8590   47.0030 N   0  0  0  0  0  0  0  0  0  0  0  0
   31.9380   29.8640   46.4560 C   0  0  0  0  0  0  0  0  0  0  0  0
   33.0240   28.9830   46.1290 C   0  0  0  0  0  0  0  0  0  0  0  0
   32.8590   28.1910   45.0310 C   0  0  0  0  0  0  0  0  0  0  0  0
   31.6870   28.2950   44.3360 N   0  0  0  0  0  0  0  0  0  0  0  0
   30.6820   29.1210   44.6510 C   0  0  0  0  0  0  0  0  0  0  0  0
   30.8380   29.9040   45.7320 N   0  0  0  0  0  0  0  0  0  0  0  0
   29.5560   29.0960   43.8190 N   0  0  0  0  0  0  0  0  0  0  0  0
   33.9230   27.2780   44.6480 C   0  0  0  0  0  0  0  0  0  0  0  0
   34.2280   26.5020   45.6640 F   0  0  0  0  0  0  0  0  0  0  0  0
   33.6400   26.4950   43.5410 F   0  0  0  0  0  0  0  0  0  0  0  0
   35.1100   27.9850   44.2930 F   0  0  0  0  0  0  0  0  0  0  0  0
   36.9870   32.0450   49.5770 F   0  0  0  0  0  0  0  0  0  0  0  0
   37.7120   31.8600   48.4240 C   0  0  0  0  0  0  0  0  0  0  0  0
   37.3140   30.8310   47.5900 C   0  0  0  0  0  0  0  0  0  0  0  0
   38.0650   30.6840   46.4560 C   0  0  0  0  0  0  0  0  0  0  0  0
   39.1370   31.5040   46.1750 C   0  0  0  0  0  0  0  0  0  0  0  0
   39.4860   32.5170   47.0520 C   0  0  0  0  0  0  0  0  0  0  0  0
   38.7690   32.7050   48.1940 C   0  0  0  0  0  0  0  0  0  0  0  0
   39.1540   33.9930   49.3820 S   0  0  0  0  0  0  0  0  0  0  0  0
   33.1623   27.9020   48.5495 H   0  0  0  0  0  0  0  0  0  0  0  0
   34.8346   28.0843   50.2687 H   0  0  0  0  0  0  0  0  0  0  0  0
   36.8639   29.4656   49.9019 H   0  0  0  0  0  0  0  0  0  0  0  0
   32.0268   30.5220   47.3330 H   0  0  0  0  0  0  0  0  0  0  0  0
   28.7550   29.7123   44.0177 H   0  0  0  0  0  0  0  0  0  0  0  0
   29.5287   28.4613   43.0083 H   0  0  0  0  0  0  0  0  0  0  0  0
   37.8051   29.8856   45.7454 H   0  0  0  0  0  0  0  0  0  0  0  0
   39.7163   31.3532   45.2521 H   0  0  0  0  0  0  0  0  0  0  0  0
   40.3422   33.1696   46.8262 H   0  0  0  0  0  0  0  0  0  0  0  0
   39.0070   33.5014   50.6523 H   0  0  0  0  0  0  0  0  0  0  0  0
  1  2  2  0
  2  3  1  0
  4  3  2  0
  5  4  1  0
  6  1  1  0
  6  5  2  0
  8  7  2  0
  8  1  1  0
  9  8  1  0
 10 11  1  0
 10  9  2  0
 11 12  2  0
 12  7  1  0
 13 11  1  0
 14  9  1  0
 14 15  1  0
 16 14  1  0
 17 14  1  0
 19 18  1  0
 20  5  1  0
 20 19  2  0
 21 20  1  0
 22 21  2  0
 22 23  1  0
 23 24  2  0
 24 19  1  0
 24 25  1  0
  2 26  1  0
  3 27  1  0
  4 28  1  0
  7 29  1  0
 13 30  1  0
 13 31  1  0
 21 32  1  0
 22 33  1  0
 23 34  1  0
 25 35  1  0
M  ISO  8  26  14  27  14  28  14  29  14  32  14  33  14  34  14  35  11
M  END
>  <minimizedAffinity>  (1) 
-5.68965006

>  <minimizedRMSD>  (1) 
1.42864215

$$$$
