
     RDKit          3D

 38 41  0  0  1  0  0  0  0  0999 V2000
   38.3500   32.4480   46.3600 C   0  0  0  0  0  0  0  0  0  0  0  0
   38.1450   31.4760   45.3430 C   0  0  0  0  0  0  0  0  0  0  0  0
   37.5490   30.2530   45.6980 C   0  0  0  0  0  0  0  0  0  0  0  0
   37.2010   30.0760   46.9980 N   0  0  0  0  0  0  0  0  0  0  0  0
   37.4030   31.0040   47.9370 C   0  0  0  0  0  0  0  0  0  0  0  0
   37.9760   32.1900   47.6210 N   0  0  0  0  0  0  0  0  0  0  0  0
   37.0090   30.7740   49.2920 N   0  0  0  0  0  0  0  0  0  0  0  0
   37.9110   31.1070   50.3880 C   0  0  0  0  0  0  0  0  0  0  0  0
   37.8070   30.1890   51.5710 C   0  0  0  0  0  0  0  0  0  0  0  0
   37.1540   28.9060   51.1130 C   0  0  0  0  0  0  0  0  0  0  0  0
   35.7140   29.2600   50.7460 C   0  0  0  0  0  0  0  0  0  0  0  0
   35.7230   30.2220   49.6040 C   0  0  2  0  0  0  0  0  0  0  0  0
   34.7880   28.5130   47.8920 C   0  0  0  0  0  0  0  0  0  0  0  0
   34.9420   29.7370   48.4710 C   0  0  0  0  0  0  0  0  0  0  0  0
   34.1510   30.7290   47.8690 C   0  0  0  0  0  0  0  0  0  0  0  0
   33.3040   30.5040   46.8070 C   0  0  0  0  0  0  0  0  0  0  0  0
   32.4670   31.2590   46.0740 N   0  0  0  0  0  0  0  0  0  0  0  0
   31.8870   30.5140   45.1550 N   0  0  0  0  0  0  0  0  0  0  0  0
   32.3020   29.2520   45.2300 C   0  0  0  0  0  0  0  0  0  0  0  0
   33.2010   29.2370   46.2740 C   0  0  0  0  0  0  0  0  0  0  0  0
   33.9600   28.2340   46.8350 C   0  0  0  0  0  0  0  0  0  0  0  0
   38.8161   33.4129   46.1117 H   0  0  0  0  0  0  0  0  0  0  0  0
   38.4453   31.6758   44.3038 H   0  0  0  0  0  0  0  0  0  0  0  0
   37.3711   29.4675   44.9488 H   0  0  0  0  0  0  0  0  0  0  0  0
   38.9431   31.0667   50.0097 H   0  0  0  0  0  0  0  0  0  0  0  0
   37.6248   32.1093   50.7395 H   0  0  0  0  0  0  0  0  0  0  0  0
   38.8109   29.9758   51.9670 H   0  0  0  0  0  0  0  0  0  0  0  0
   37.2093   30.6582   52.3663 H   0  0  0  0  0  0  0  0  0  0  0  0
   37.6817   28.5029   50.2360 H   0  0  0  0  0  0  0  0  0  0  0  0
   37.1869   28.1392   51.9010 H   0  0  0  0  0  0  0  0  0  0  0  0
   35.1732   28.3475   50.4546 H   0  0  0  0  0  0  0  0  0  0  0  0
   35.2127   29.7174   51.6118 H   0  0  0  0  0  0  0  0  0  0  0  0
   35.1852   31.1167   49.9508 H   0  0  0  0  0  0  0  0  0  0  0  0
   35.3759   27.6807   48.3064 H   0  0  0  0  0  0  0  0  0  0  0  0
   34.2120   31.7509   48.2715 H   0  0  0  0  0  0  0  0  0  0  0  0
   32.3040   32.2668   46.2102 H   0  0  0  0  0  0  0  0  0  0  0  0
   31.9948   28.4062   44.5973 H   0  0  0  0  0  0  0  0  0  0  0  0
   33.9021   27.2106   46.4358 H   0  0  0  0  0  0  0  0  0  0  0  0
  1  6  2  0
  2  3  2  0
  2  1  1  0
  3  4  1  0
  4  5  2  0
  5  7  1  0
  6  5  1  0
  7 12  1  0
  7  8  1  0
  8  9  1  0
 10  9  1  0
 11 10  1  0
 12 11  1  0
 13 14  2  0
 14 12  1  0
 15 14  1  0
 16 15  2  0
 17 16  1  0
 18 19  2  0
 18 17  1  0
 19 20  1  0
 20 16  1  0
 20 21  2  0
 21 13  1  0
  1 22  1  0
  2 23  1  0
  3 24  1  0
  8 25  1  0
  8 26  1  0
  9 27  1  0
  9 28  1  0
 10 29  1  0
 10 30  1  0
 11 31  1  0
 11 32  1  0
 12 33  1  1
 13 34  1  0
 15 35  1  0
 17 36  1  0
 19 37  1  0
 21 38  1  0
M  ISO  8  22  14  23  14  24  14  25  13  26  13  27  13  28  13  29  13
M  ISO  8  30  13  31  13  32  13  33  13  34  14  35  14  36   9  37  14
M  ISO  1  38  14
M  END
>  <minimizedAffinity>  (1) 
-5.28216124

>  <minimizedRMSD>  (1) 
2.44584537

$$$$
