
     RDKit          3D

 41 43  0  0  1  0  0  0  0  0999 V2000
   38.4390   32.7620   47.6310 C   0  0  0  0  0  0  0  0  0  0  0  0
   39.3650   32.0070   46.8820 C   0  0  0  0  0  0  0  0  0  0  0  0
   39.0670   30.6810   46.6170 C   0  0  0  0  0  0  0  0  0  0  0  0
   37.8920   30.1910   47.0980 N   0  0  0  0  0  0  0  0  0  0  0  0
   37.0190   30.9130   47.8070 C   0  0  0  0  0  0  0  0  0  0  0  0
   37.2910   32.2110   48.0780 N   0  0  0  0  0  0  0  0  0  0  0  0
   35.8000   30.3260   48.2790 N   0  0  0  0  0  0  0  0  0  0  0  0
   35.3430   30.5960   49.6380 C   0  0  0  0  0  0  0  0  0  0  0  0
   34.5960   29.4490   50.2470 C   0  0  0  0  0  0  0  0  0  0  0  0
   34.9360   28.1930   49.4800 C   0  0  0  0  0  0  0  0  0  0  0  0
   34.3430   28.3470   48.1070 C   0  0  0  0  0  0  0  0  0  0  0  0
   35.0520   29.4810   47.4030 C   0  0  1  0  0  0  0  0  0  0  0  0
   34.1570   30.2020   46.4330 C   0  0  0  0  0  0  0  0  0  0  0  0
   32.7470   29.6590   46.5340 C   0  0  0  0  0  0  0  0  0  0  0  0
   31.7670   30.5190   45.7650 C   0  0  0  0  0  0  0  0  0  0  0  0
   32.4380   31.3950   44.7510 C   0  0  0  0  0  0  0  0  0  0  0  0
   33.6780   30.8720   44.1400 C   0  0  0  0  0  0  0  0  0  0  0  0
   34.5440   30.0050   44.9840 C   0  0  0  0  0  0  0  0  0  0  0  0
   38.6559   33.8170   47.8545 H   0  0  0  0  0  0  0  0  0  0  0  0
   40.2992   32.4594   46.5179 H   0  0  0  0  0  0  0  0  0  0  0  0
   39.7550   30.0467   46.0387 H   0  0  0  0  0  0  0  0  0  0  0  0
   36.2199   30.8147   50.2650 H   0  0  0  0  0  0  0  0  0  0  0  0
   34.6494   31.4483   49.5869 H   0  0  0  0  0  0  0  0  0  0  0  0
   34.8910   29.3317   51.3002 H   0  0  0  0  0  0  0  0  0  0  0  0
   33.5133   29.6374   50.1999 H   0  0  0  0  0  0  0  0  0  0  0  0
   36.0275   28.0762   49.4099 H   0  0  0  0  0  0  0  0  0  0  0  0
   34.5347   27.3020   49.9850 H   0  0  0  0  0  0  0  0  0  0  0  0
   34.4774   27.4152   47.5381 H   0  0  0  0  0  0  0  0  0  0  0  0
   33.2674   28.5644   48.1832 H   0  0  0  0  0  0  0  0  0  0  0  0
   35.8306   29.0193   46.7780 H   0  0  0  0  0  0  0  0  0  0  0  0
   34.2450   31.2647   46.7032 H   0  0  0  0  0  0  0  0  0  0  0  0
   32.7263   28.6386   46.1236 H   0  0  0  0  0  0  0  0  0  0  0  0
   32.4509   29.6600   47.5934 H   0  0  0  0  0  0  0  0  0  0  0  0
   31.0542   29.8617   45.2455 H   0  0  0  0  0  0  0  0  0  0  0  0
   31.2619   31.1754   46.4889 H   0  0  0  0  0  0  0  0  0  0  0  0
   31.7180   31.5780   43.9398 H   0  0  0  0  0  0  0  0  0  0  0  0
   32.7450   32.2950   45.3039 H   0  0  0  0  0  0  0  0  0  0  0  0
   33.3884   30.2871   43.2546 H   0  0  0  0  0  0  0  0  0  0  0  0
   34.2881   31.7638   43.9340 H   0  0  0  0  0  0  0  0  0  0  0  0
   34.4009   28.9514   44.7020 H   0  0  0  0  0  0  0  0  0  0  0  0
   35.6009   30.2724   44.8373 H   0  0  0  0  0  0  0  0  0  0  0  0
  1  6  2  0
  2  1  1  0
  3  2  2  0
  3  4  1  0
  4  5  2  0
  5  6  1  0
  5  7  1  0
  7  8  1  0
  8  9  1  0
 10  9  1  0
 11 10  1  0
 12 11  1  0
 12  7  1  0
 13 14  1  0
 13 12  1  0
 15 14  1  0
 16 15  1  0
 17 16  1  0
 17 18  1  0
 18 13  1  0
  1 19  1  0
  2 20  1  0
  3 21  1  0
  8 22  1  0
  8 23  1  0
  9 24  1  0
  9 25  1  0
 10 26  1  0
 10 27  1  0
 11 28  1  0
 11 29  1  0
 12 30  1  6
 13 31  1  0
 14 32  1  0
 14 33  1  0
 15 34  1  0
 15 35  1  0
 16 36  1  0
 16 37  1  0
 17 38  1  0
 17 39  1  0
 18 40  1  0
 18 41  1  0
M  ISO  8  19  14  20  14  21  14  22  13  23  13  24  13  25  13  26  13
M  ISO  8  27  13  28  13  29  13  30  13  31  13  32  13  33  13  34  13
M  ISO  7  35  13  36  13  37  13  38  13  39  13  40  13  41  13
M  END
>  <minimizedAffinity>  (1) 
-4.41204739

>  <minimizedRMSD>  (1) 
1.81868744

$$$$
