
     RDKit          3D

 39 41  0  0  1  0  0  0  0  0999 V2000
   38.5340   32.8320   47.6810 C   0  0  0  0  0  0  0  0  0  0  0  0
   39.4920   32.0700   46.9650 C   0  0  0  0  0  0  0  0  0  0  0  0
   39.2000   30.7290   46.6780 C   0  0  0  0  0  0  0  0  0  0  0  0
   38.0010   30.2340   47.1080 N   0  0  0  0  0  0  0  0  0  0  0  0
   37.1100   30.9990   47.7910 C   0  0  0  0  0  0  0  0  0  0  0  0
   37.3790   32.2770   48.0690 N   0  0  0  0  0  0  0  0  0  0  0  0
   35.8710   30.4050   48.2090 N   0  0  0  0  0  0  0  0  0  0  0  0
   35.4010   30.6410   49.5650 C   0  0  0  0  0  0  0  0  0  0  0  0
   34.5920   29.4920   50.1220 C   0  0  0  0  0  0  0  0  0  0  0  0
   34.9420   28.2500   49.3310 C   0  0  0  0  0  0  0  0  0  0  0  0
   34.3530   28.4840   47.9460 C   0  0  0  0  0  0  0  0  0  0  0  0
   35.1130   29.5870   47.2900 C   0  0  1  0  0  0  0  0  0  0  0  0
   34.3070   30.2700   46.3580 N   0  0  0  0  0  0  0  0  0  0  0  0
   34.7430   30.3180   45.0110 C   0  0  0  0  0  0  0  0  0  0  0  0
   33.6440   30.6370   44.0450 C   0  0  0  0  0  0  0  0  0  0  0  0
   32.6070   31.4650   44.5540 N   0  0  0  0  0  0  0  0  0  0  0  0
   32.2120   31.2300   45.9010 C   0  0  0  0  0  0  0  0  0  0  0  0
   32.9070   29.9510   46.3960 C   0  0  0  0  0  0  0  0  0  0  0  0
   38.7412   33.8857   47.9191 H   0  0  0  0  0  0  0  0  0  0  0  0
   40.4422   32.5206   46.6423 H   0  0  0  0  0  0  0  0  0  0  0  0
   39.9114   30.0973   46.1259 H   0  0  0  0  0  0  0  0  0  0  0  0
   36.2739   30.8016   50.2148 H   0  0  0  0  0  0  0  0  0  0  0  0
   34.7418   31.5211   49.5345 H   0  0  0  0  0  0  0  0  0  0  0  0
   34.8388   29.3411   51.1833 H   0  0  0  0  0  0  0  0  0  0  0  0
   33.5161   29.7067   50.0420 H   0  0  0  0  0  0  0  0  0  0  0  0
   36.0332   28.1250   49.2707 H   0  0  0  0  0  0  0  0  0  0  0  0
   34.5452   27.3371   49.7993 H   0  0  0  0  0  0  0  0  0  0  0  0
   34.4389   27.5660   47.3461 H   0  0  0  0  0  0  0  0  0  0  0  0
   33.2902   28.7552   48.0288 H   0  0  0  0  0  0  0  0  0  0  0  0
   35.9185   29.1369   46.6911 H   0  0  0  0  0  0  0  0  0  0  0  0
   35.5209   31.0908   44.9229 H   0  0  0  0  0  0  0  0  0  0  0  0
   35.1225   29.3178   44.7549 H   0  0  0  0  0  0  0  0  0  0  0  0
   33.1921   29.6884   43.7196 H   0  0  0  0  0  0  0  0  0  0  0  0
   34.1132   31.2058   43.2287 H   0  0  0  0  0  0  0  0  0  0  0  0
   32.9252   32.4423   44.4869 H   0  0  0  0  0  0  0  0  0  0  0  0
   32.5108   32.0819   46.5295 H   0  0  0  0  0  0  0  0  0  0  0  0
   31.1198   31.1125   45.9589 H   0  0  0  0  0  0  0  0  0  0  0  0
   32.6824   29.1035   45.7317 H   0  0  0  0  0  0  0  0  0  0  0  0
   32.5713   29.6521   47.4000 H   0  0  0  0  0  0  0  0  0  0  0  0
  1  6  2  0
  2  1  1  0
  3  2  2  0
  3  4  1  0
  4  5  2  0
  5  6  1  0
  5  7  1  0
  7  8  1  0
  8  9  1  0
 10  9  1  0
 11 10  1  0
 12 11  1  0
 12  7  1  0
 13 18  1  0
 13 12  1  0
 14 13  1  0
 15 16  1  0
 15 14  1  0
 16 17  1  0
 17 18  1  0
  1 19  1  0
  2 20  1  0
  3 21  1  0
  8 22  1  0
  8 23  1  0
  9 24  1  0
  9 25  1  0
 10 26  1  0
 10 27  1  0
 11 28  1  0
 11 29  1  0
 12 30  1  6
 14 31  1  0
 14 32  1  0
 15 33  1  0
 15 34  1  0
 16 35  1  0
 17 36  1  0
 17 37  1  0
 18 38  1  0
 18 39  1  0
M  ISO  8  19  14  20  14  21  14  22  13  23  13  24  13  25  13  26  13
M  ISO  8  27  13  28  13  29  13  30  13  31  13  32  13  33  13  34  13
M  ISO  5  35   5  36  13  37  13  38  13  39  13
M  END
>  <minimizedAffinity>  (1) 
-4.33379412

>  <minimizedRMSD>  (1) 
1.6043849

$$$$
