
     RDKit          3D

 32 34  0  0  1  0  0  0  0  0999 V2000
   39.5690   33.0420   44.5130 C   0  0  0  0  0  0  0  0  0  0  0  0
   40.4610   32.0340   44.1250 C   0  0  0  0  0  0  0  0  0  0  0  0
   40.5560   30.9030   44.9250 C   0  0  0  0  0  0  0  0  0  0  0  0
   39.7790   30.8340   46.0400 N   0  0  0  0  0  0  0  0  0  0  0  0
   38.9240   31.8250   46.3900 C   0  0  0  0  0  0  0  0  0  0  0  0
   38.8210   32.9220   45.6290 N   0  0  0  0  0  0  0  0  0  0  0  0
   38.1310   31.6840   47.5830 N   0  0  0  0  0  0  0  0  0  0  0  0
   37.9990   32.8100   48.4890 C   0  0  0  0  0  0  0  0  0  0  0  0
   37.8060   32.3930   49.9230 C   0  0  0  0  0  0  0  0  0  0  0  0
   38.3240   30.9780   50.0750 C   0  0  0  0  0  0  0  0  0  0  0  0
   37.3720   30.1070   49.3130 C   0  0  0  0  0  0  0  0  0  0  0  0
   37.4840   30.4110   47.8450 C   0  0  1  0  0  0  0  0  0  0  0  0
   36.1950   30.2950   47.1330 C   0  0  0  0  0  0  0  0  0  0  0  0
   34.9140   30.2500   47.7090 C   0  0  0  0  0  0  0  0  0  0  0  0
   33.8340   30.1370   46.8830 C   0  0  0  0  0  0  0  0  0  0  0  0
   34.0900   30.0710   45.4430 C   0  0  0  0  0  0  0  0  0  0  0  0
   35.9860   30.1870   45.4320 S   0  0  0  0  0  0  0  0  0  0  0  0
   39.4769   33.9481   43.8962 H   0  0  0  0  0  0  0  0  0  0  0  0
   41.0683   32.1354   43.2135 H   0  0  0  0  0  0  0  0  0  0  0  0
   41.2419   30.0836   44.6640 H   0  0  0  0  0  0  0  0  0  0  0  0
   38.9103   33.4224   48.4218 H   0  0  0  0  0  0  0  0  0  0  0  0
   37.1029   33.3718   48.1867 H   0  0  0  0  0  0  0  0  0  0  0  0
   38.3661   33.0684   50.5864 H   0  0  0  0  0  0  0  0  0  0  0  0
   36.7409   32.4402   50.1937 H   0  0  0  0  0  0  0  0  0  0  0  0
   39.3376   30.8947   49.6559 H   0  0  0  0  0  0  0  0  0  0  0  0
   38.3837   30.6816   51.1326 H   0  0  0  0  0  0  0  0  0  0  0  0
   37.6203   29.0500   49.4890 H   0  0  0  0  0  0  0  0  0  0  0  0
   36.3437   30.3021   49.6515 H   0  0  0  0  0  0  0  0  0  0  0  0
   38.1408   29.6303   47.4337 H   0  0  0  0  0  0  0  0  0  0  0  0
   34.7851   30.3046   48.8001 H   0  0  0  0  0  0  0  0  0  0  0  0
   32.8103   30.0970   47.2835 H   0  0  0  0  0  0  0  0  0  0  0  0
   33.3839   29.9800   44.6044 H   0  0  0  0  0  0  0  0  0  0  0  0
  1  6  2  0
  2  1  1  0
  2  3  2  0
  3  4  1  0
  4  5  2  0
  5  7  1  0
  6  5  1  0
  7 12  1  0
  7  8  1  0
  8  9  1  0
  9 10  1  0
 11 10  1  0
 12 11  1  0
 13 14  2  0
 13 12  1  0
 15 14  1  0
 16 15  2  0
 17 16  1  0
 17 13  1  0
  1 18  1  0
  2 19  1  0
  3 20  1  0
  8 21  1  0
  8 22  1  0
  9 23  1  0
  9 24  1  0
 10 25  1  0
 10 26  1  0
 11 27  1  0
 11 28  1  0
 12 29  1  6
 14 30  1  0
 15 31  1  0
 16 32  1  0
M  ISO  8  18  14  19  14  20  14  21  13  22  13  23  13  24  13  25  13
M  ISO  7  26  13  27  13  28  13  29  13  30  14  31  14  32  14
M  END
>  <minimizedAffinity>  (1) 
-5.34773445

>  <minimizedRMSD>  (1) 
3.2846117

$$$$
