
     RDKit          3D

 47 51  0  0  1  0  0  0  0  0999 V2000
   39.5800   33.0400   44.5830 C   0  0  0  0  0  0  0  0  0  0  0  0
   40.4420   32.0310   44.1700 C   0  0  0  0  0  0  0  0  0  0  0  0
   40.5200   30.8920   44.9430 C   0  0  0  0  0  0  0  0  0  0  0  0
   39.7530   30.8200   46.0620 N   0  0  0  0  0  0  0  0  0  0  0  0
   38.9150   31.8260   46.4450 C   0  0  0  0  0  0  0  0  0  0  0  0
   38.8380   32.9200   45.7040 N   0  0  0  0  0  0  0  0  0  0  0  0
   38.1400   31.6680   47.6480 N   0  0  0  0  0  0  0  0  0  0  0  0
   38.0450   32.7600   48.5800 C   0  0  0  0  0  0  0  0  0  0  0  0
   37.8580   32.3050   50.0060 C   0  0  0  0  0  0  0  0  0  0  0  0
   38.3530   30.8840   50.1130 C   0  0  0  0  0  0  0  0  0  0  0  0
   37.3790   30.0330   49.3360 C   0  0  0  0  0  0  0  0  0  0  0  0
   37.4670   30.3910   47.8970 C   0  0  1  0  0  0  0  0  0  0  0  0
   36.1770   30.3140   47.1990 C   0  0  0  0  0  0  0  0  0  0  0  0
   34.9070   30.2230   47.7620 C   0  0  0  0  0  0  0  0  0  0  0  0
   33.8090   30.1620   46.9430 C   0  0  0  0  0  0  0  0  0  0  0  0
   34.0550   30.2000   45.5260 C   0  0  0  0  0  0  0  0  0  0  0  0
   35.9400   30.3240   45.4900 S   0  0  0  0  0  0  0  0  0  0  0  0
   33.2930   30.1670   44.3570 C   0  0  0  0  0  0  0  0  0  0  0  0
   33.1910   29.0230   43.6110 C   0  0  0  0  0  0  0  0  0  0  0  0
   32.4020   29.0960   42.4570 C   0  0  0  0  0  0  0  0  0  0  0  0
   31.7570   30.2810   42.0920 C   0  0  0  0  0  0  0  0  0  0  0  0
   30.9970   30.3650   40.9870 N   0  0  0  0  0  0  0  0  0  0  0  0
   30.3690   31.5020   40.6240 C   0  0  0  0  0  0  0  0  0  0  0  0
   30.4800   32.6620   41.3940 C   0  0  0  0  0  0  0  0  0  0  0  0
   31.2550   32.6030   42.5340 C   0  0  0  0  0  0  0  0  0  0  0  0
   31.8880   31.4290   42.8850 C   0  0  0  0  0  0  0  0  0  0  0  0
   32.6780   31.3540   44.0400 C   0  0  0  0  0  0  0  0  0  0  0  0
   39.5006   33.9580   43.9821 H   0  0  0  0  0  0  0  0  0  0  0  0
   41.0432   32.1378   43.2550 H   0  0  0  0  0  0  0  0  0  0  0  0
   41.1859   30.0631   44.6610 H   0  0  0  0  0  0  0  0  0  0  0  0
   38.9694   33.3532   48.5200 H   0  0  0  0  0  0  0  0  0  0  0  0
   37.1587   33.3505   48.3048 H   0  0  0  0  0  0  0  0  0  0  0  0
   38.4346   32.9527   50.6827 H   0  0  0  0  0  0  0  0  0  0  0  0
   36.7962   32.3610   50.2879 H   0  0  0  0  0  0  0  0  0  0  0  0
   39.3610   30.7989   49.6810 H   0  0  0  0  0  0  0  0  0  0  0  0
   38.4144   30.5615   51.1629 H   0  0  0  0  0  0  0  0  0  0  0  0
   37.6305   28.9703   49.4680 H   0  0  0  0  0  0  0  0  0  0  0  0
   36.3566   30.2094   49.7016 H   0  0  0  0  0  0  0  0  0  0  0  0
   38.1106   29.6124   47.4615 H   0  0  0  0  0  0  0  0  0  0  0  0
   34.7854   30.2002   48.8550 H   0  0  0  0  0  0  0  0  0  0  0  0
   32.7896   30.0876   47.3496 H   0  0  0  0  0  0  0  0  0  0  0  0
   33.7029   28.0944   43.9036 H   0  0  0  0  0  0  0  0  0  0  0  0
   32.2874   28.2031   41.8249 H   0  0  0  0  0  0  0  0  0  0  0  0
   29.7603   31.5160   39.7079 H   0  0  0  0  0  0  0  0  0  0  0  0
   29.9674   33.5903   41.1017 H   0  0  0  0  0  0  0  0  0  0  0  0
   31.3685   33.4963   43.1657 H   0  0  0  0  0  0  0  0  0  0  0  0
   32.8043   32.2356   44.6856 H   0  0  0  0  0  0  0  0  0  0  0  0
  1  6  2  0
  2  1  1  0
  2  3  2  0
  3  4  1  0
  4  5  2  0
  5  7  1  0
  6  5  1  0
  7 12  1  0
  7  8  1  0
  8  9  1  0
  9 10  1  0
 11 10  1  0
 12 11  1  0
 13 14  2  0
 13 12  1  0
 15 14  1  0
 16 15  2  0
 17 16  1  0
 17 13  1  0
 18 16  1  0
 19 18  2  0
 20 19  1  0
 21 20  2  0
 21 26  1  0
 22 21  1  0
 23 22  2  0
 23 24  1  0
 24 25  2  0
 25 26  1  0
 26 27  2  0
 27 18  1  0
  1 28  1  0
  2 29  1  0
  3 30  1  0
  8 31  1  0
  8 32  1  0
  9 33  1  0
  9 34  1  0
 10 35  1  0
 10 36  1  0
 11 37  1  0
 11 38  1  0
 12 39  1  6
 14 40  1  0
 15 41  1  0
 19 42  1  0
 20 43  1  0
 23 44  1  0
 24 45  1  0
 25 46  1  0
 27 47  1  0
M  ISO  8  28  14  29  14  30  14  31  13  32  13  33  13  34  13  35  13
M  ISO  8  36  13  37  13  38  13  39  13  40  14  41  14  42  14  43  14
M  ISO  4  44  14  45  14  46  14  47  14
M  END
>  <minimizedAffinity>  (1) 
-5.81223249

>  <minimizedRMSD>  (1) 
0.27012822

$$$$
