
     RDKit          3D

 45 48  0  0  1  0  0  0  0  0999 V2000
   39.6140   33.0520   44.5880 C   0  0  0  0  0  0  0  0  0  0  0  0
   40.4870   32.0470   44.1880 C   0  0  0  0  0  0  0  0  0  0  0  0
   40.5590   30.9090   44.9650 C   0  0  0  0  0  0  0  0  0  0  0  0
   39.7760   30.8340   46.0760 N   0  0  0  0  0  0  0  0  0  0  0  0
   38.9290   31.8390   46.4410 C   0  0  0  0  0  0  0  0  0  0  0  0
   38.8540   32.9360   45.7000 N   0  0  0  0  0  0  0  0  0  0  0  0
   38.1350   31.6770   47.6350 N   0  0  0  0  0  0  0  0  0  0  0  0
   38.0200   32.7690   48.5630 C   0  0  0  0  0  0  0  0  0  0  0  0
   37.8190   32.3120   49.9870 C   0  0  0  0  0  0  0  0  0  0  0  0
   38.3210   30.8970   50.1000 C   0  0  0  0  0  0  0  0  0  0  0  0
   37.3620   30.0370   49.3110 C   0  0  0  0  0  0  0  0  0  0  0  0
   37.4640   30.3950   47.8730 C   0  0  1  0  0  0  0  0  0  0  0  0
   36.1850   30.3090   47.1500 C   0  0  0  0  0  0  0  0  0  0  0  0
   34.9070   30.2320   47.6990 C   0  0  0  0  0  0  0  0  0  0  0  0
   33.8190   30.1660   46.8740 C   0  0  0  0  0  0  0  0  0  0  0  0
   34.0930   30.1840   45.4490 C   0  0  0  0  0  0  0  0  0  0  0  0
   35.9870   30.2980   45.4380 S   0  0  0  0  0  0  0  0  0  0  0  0
   33.4360   31.3980   43.4680 C   0  0  2  0  0  0  0  0  0  0  0  0
   33.2520   30.1350   44.2850 C   0  0  2  0  0  0  0  0  0  0  0  0
   31.9180   30.1320   44.6890 O   0  0  0  0  0  0  0  0  0  0  0  0
   31.2250   30.6140   43.5730 C   0  0  0  0  0  0  0  0  0  0  0  0
   32.0150   31.8590   43.2450 C   0  0  2  0  0  0  0  0  0  0  0  0
   34.0280   31.1480   42.2450 O   0  0  0  0  0  0  0  0  0  0  0  0
   31.8040   32.2290   41.9060 O   0  0  0  0  0  0  0  0  0  0  0  0
   39.5394   33.9675   43.9827 H   0  0  0  0  0  0  0  0  0  0  0  0
   41.1005   32.1554   43.2815 H   0  0  0  0  0  0  0  0  0  0  0  0
   41.2325   30.0828   44.6934 H   0  0  0  0  0  0  0  0  0  0  0  0
   38.9403   33.3695   48.5139 H   0  0  0  0  0  0  0  0  0  0  0  0
   37.1334   33.3535   48.2761 H   0  0  0  0  0  0  0  0  0  0  0  0
   38.3832   32.9634   50.6707 H   0  0  0  0  0  0  0  0  0  0  0  0
   36.7535   32.3607   50.2558 H   0  0  0  0  0  0  0  0  0  0  0  0
   39.3348   30.8189   49.6803 H   0  0  0  0  0  0  0  0  0  0  0  0
   38.3711   30.5756   51.1508 H   0  0  0  0  0  0  0  0  0  0  0  0
   37.6204   28.9764   49.4464 H   0  0  0  0  0  0  0  0  0  0  0  0
   36.3340   30.2055   49.6644 H   0  0  0  0  0  0  0  0  0  0  0  0
   38.1142   29.6166   47.4471 H   0  0  0  0  0  0  0  0  0  0  0  0
   34.7740   30.2243   48.7909 H   0  0  0  0  0  0  0  0  0  0  0  0
   32.7939   30.1028   47.2680 H   0  0  0  0  0  0  0  0  0  0  0  0
   34.0865   32.1260   43.9748 H   0  0  0  0  0  0  0  0  0  0  0  0
   33.5115   29.2380   43.7037 H   0  0  0  0  0  0  0  0  0  0  0  0
   31.2482   29.8927   42.7428 H   0  0  0  0  0  0  0  0  0  0  0  0
   30.1550   30.7952   43.7524 H   0  0  0  0  0  0  0  0  0  0  0  0
   31.7426   32.7406   43.8437 H   0  0  0  0  0  0  0  0  0  0  0  0
   34.9306   30.7668   42.3870 H   0  0  0  0  0  0  0  0  0  0  0  0
   31.3138   33.0886   41.8745 H   0  0  0  0  0  0  0  0  0  0  0  0
  1  6  2  0
  2  1  1  0
  2  3  2  0
  3  4  1  0
  4  5  2  0
  5  7  1  0
  6  5  1  0
  7 12  1  0
  7  8  1  0
  8  9  1  0
  9 10  1  0
 11 10  1  0
 12 11  1  0
 13 14  2  0
 13 12  1  0
 15 14  1  0
 16 15  2  0
 17 16  1  0
 17 13  1  0
 18 23  1  0
 18 19  1  0
 19 20  1  0
 19 16  1  0
 21 20  1  0
 22 24  1  0
 22 18  1  0
 22 21  1  0
  1 25  1  0
  2 26  1  0
  3 27  1  0
  8 28  1  0
  8 29  1  0
  9 30  1  0
  9 31  1  0
 10 32  1  0
 10 33  1  0
 11 34  1  0
 11 35  1  0
 12 36  1  6
 14 37  1  0
 15 38  1  0
 18 39  1  1
 19 40  1  6
 21 41  1  0
 21 42  1  0
 22 43  1  1
 23 44  1  0
 24 45  1  0
M  ISO  8  25  14  26  14  27  14  28  13  29  13  30  13  31  13  32  13
M  ISO  8  33  13  34  13  35  13  36  13  37  14  38  14  39  13  40  13
M  ISO  5  41  13  42  13  43  13  44   3  45   3
M  END
>  <minimizedAffinity>  (1) 
-5.79366589

>  <minimizedRMSD>  (1) 
0.151387349

$$$$
