
     RDKit          3D

 44 47  0  0  1  0  0  0  0  0999 V2000
   39.3970   32.9470   44.3370 C   0  0  0  0  0  0  0  0  0  0  0  0
   40.2810   31.9330   43.9600 C   0  0  0  0  0  0  0  0  0  0  0  0
   40.4020   30.8370   44.7900 C   0  0  0  0  0  0  0  0  0  0  0  0
   39.6500   30.8140   45.9250 N   0  0  0  0  0  0  0  0  0  0  0  0
   38.7990   31.8130   46.2660 C   0  0  0  0  0  0  0  0  0  0  0  0
   38.6750   32.8710   45.4760 N   0  0  0  0  0  0  0  0  0  0  0  0
   38.0450   31.6990   47.4950 N   0  0  0  0  0  0  0  0  0  0  0  0
   37.9380   32.8360   48.3710 C   0  0  0  0  0  0  0  0  0  0  0  0
   37.7900   32.4480   49.8230 C   0  0  0  0  0  0  0  0  0  0  0  0
   38.3260   31.0450   49.9920 C   0  0  0  0  0  0  0  0  0  0  0  0
   37.3580   30.1350   49.2750 C   0  0  0  0  0  0  0  0  0  0  0  0
   37.4100   30.4190   47.8180 C   0  0  1  0  0  0  0  0  0  0  0  0
   36.1110   30.2730   47.1470 C   0  0  0  0  0  0  0  0  0  0  0  0
   34.8470   30.2660   47.7360 C   0  0  0  0  0  0  0  0  0  0  0  0
   33.7370   30.1240   46.9520 C   0  0  0  0  0  0  0  0  0  0  0  0
   33.9740   29.9880   45.5190 C   0  0  0  0  0  0  0  0  0  0  0  0
   35.8580   30.0830   45.4510 S   0  0  0  0  0  0  0  0  0  0  0  0
   32.4420   31.0500   43.9160 C   0  0  1  0  0  0  0  0  0  0  0  0
   33.2520   29.8230   44.3020 C   0  0  2  0  0  0  0  0  0  0  0  0
   32.1760   28.7870   44.5040 C   0  0  0  0  0  0  0  0  0  0  0  0
   31.0000   29.3070   44.0090 O   0  0  0  0  0  0  0  0  0  0  0  0
   31.0670   30.6420   44.3870 C   0  0  0  0  0  0  0  0  0  0  0  0
   32.8990   32.1880   44.5600 O   0  0  0  0  0  0  0  0  0  0  0  0
   39.2862   33.8296   43.6899 H   0  0  0  0  0  0  0  0  0  0  0  0
   40.8631   32.0060   43.0295 H   0  0  0  0  0  0  0  0  0  0  0  0
   41.0833   30.0095   44.5429 H   0  0  0  0  0  0  0  0  0  0  0  0
   38.8447   33.4492   48.2623 H   0  0  0  0  0  0  0  0  0  0  0  0
   37.0321   33.3898   48.0836 H   0  0  0  0  0  0  0  0  0  0  0  0
   38.3614   33.1439   50.4548 H   0  0  0  0  0  0  0  0  0  0  0  0
   36.7324   32.4902   50.1224 H   0  0  0  0  0  0  0  0  0  0  0  0
   39.3281   30.9633   49.5457 H   0  0  0  0  0  0  0  0  0  0  0  0
   38.4169   30.7760   51.0547 H   0  0  0  0  0  0  0  0  0  0  0  0
   37.6360   29.0862   49.4557 H   0  0  0  0  0  0  0  0  0  0  0  0
   36.3388   30.3100   49.6499 H   0  0  0  0  0  0  0  0  0  0  0  0
   38.0635   29.6342   47.4092 H   0  0  0  0  0  0  0  0  0  0  0  0
   34.7441   30.3742   48.8258 H   0  0  0  0  0  0  0  0  0  0  0  0
   32.7225   30.1129   47.3771 H   0  0  0  0  0  0  0  0  0  0  0  0
   32.4917   31.3147   42.8495 H   0  0  0  0  0  0  0  0  0  0  0  0
   34.0136   29.5804   43.5462 H   0  0  0  0  0  0  0  0  0  0  0  0
   32.4360   27.8654   43.9626 H   0  0  0  0  0  0  0  0  0  0  0  0
   32.0712   28.5413   45.5711 H   0  0  0  0  0  0  0  0  0  0  0  0
   30.9724   30.7510   45.4775 H   0  0  0  0  0  0  0  0  0  0  0  0
   30.2595   31.2573   43.9635 H   0  0  0  0  0  0  0  0  0  0  0  0
   32.8462   32.0564   45.5398 H   0  0  0  0  0  0  0  0  0  0  0  0
  1  6  2  0
  2  1  1  0
  2  3  2  0
  3  4  1  0
  4  5  2  0
  5  7  1  0
  6  5  1  0
  7 12  1  0
  7  8  1  0
  8  9  1  0
  9 10  1  0
 11 10  1  0
 12 11  1  0
 13 14  2  0
 13 12  1  0
 15 14  1  0
 16 15  2  0
 17 16  1  0
 17 13  1  0
 18 19  1  0
 18 22  1  0
 18 23  1  0
 19 20  1  0
 19 16  1  0
 21 22  1  0
 21 20  1  0
  1 24  1  0
  2 25  1  0
  3 26  1  0
  8 27  1  0
  8 28  1  0
  9 29  1  0
  9 30  1  0
 10 31  1  0
 10 32  1  0
 11 33  1  0
 11 34  1  0
 12 35  1  6
 14 36  1  0
 15 37  1  0
 18 38  1  6
 19 39  1  6
 20 40  1  0
 20 41  1  0
 22 42  1  0
 22 43  1  0
 23 44  1  0
M  ISO  8  24  14  25  14  26  14  27  13  28  13  29  13  30  13  31  13
M  ISO  8  32  13  33  13  34  13  35  13  36  14  37  14  38  13  39  13
M  ISO  5  40  13  41  13  42  13  43  13  44   3
M  END
>  <minimizedAffinity>  (1) 
-5.78586769

>  <minimizedRMSD>  (1) 
0.445028573

$$$$
