
     RDKit          3D

 42 45  0  0  1  0  0  0  0  0999 V2000
   39.5390   32.9830   44.4440 C   0  0  0  0  0  0  0  0  0  0  0  0
   40.4140   31.9670   44.0670 C   0  0  0  0  0  0  0  0  0  0  0  0
   40.5270   30.8740   44.8970 C   0  0  0  0  0  0  0  0  0  0  0  0
   39.7760   30.8530   46.0340 N   0  0  0  0  0  0  0  0  0  0  0  0
   38.9340   31.8530   46.3750 C   0  0  0  0  0  0  0  0  0  0  0  0
   38.8180   32.9100   45.5840 N   0  0  0  0  0  0  0  0  0  0  0  0
   38.1740   31.7460   47.6010 N   0  0  0  0  0  0  0  0  0  0  0  0
   38.0690   32.8830   48.4760 C   0  0  0  0  0  0  0  0  0  0  0  0
   37.9200   32.4970   49.9290 C   0  0  0  0  0  0  0  0  0  0  0  0
   38.4490   31.0990   50.0930 C   0  0  0  0  0  0  0  0  0  0  0  0
   37.4820   30.1840   49.3810 C   0  0  0  0  0  0  0  0  0  0  0  0
   37.5280   30.4710   47.9250 C   0  0  1  0  0  0  0  0  0  0  0  0
   36.2340   30.3350   47.2510 C   0  0  0  0  0  0  0  0  0  0  0  0
   34.9730   30.2360   47.8360 C   0  0  0  0  0  0  0  0  0  0  0  0
   33.8690   30.1160   47.0470 C   0  0  0  0  0  0  0  0  0  0  0  0
   34.0910   30.1000   45.6280 C   0  0  0  0  0  0  0  0  0  0  0  0
   35.9740   30.2690   45.5460 S   0  0  0  0  0  0  0  0  0  0  0  0
   32.1300   32.0340   44.9490 F   0  0  0  0  0  0  0  0  0  0  0  0
   32.3650   30.9540   44.1670 C   0  0  0  0  0  0  0  0  0  0  0  0
   33.2990   29.9990   44.4550 C   0  0  0  0  0  0  0  0  0  0  0  0
   33.5750   28.8880   43.6960 C   0  0  0  0  0  0  0  0  0  0  0  0
   32.8470   28.6980   42.5210 C   0  0  0  0  0  0  0  0  0  0  0  0
   31.8760   29.6370   42.1670 C   0  0  0  0  0  0  0  0  0  0  0  0
   31.6430   30.7490   42.9850 C   0  0  0  0  0  0  0  0  0  0  0  0
   39.4325   33.8666   43.7975 H   0  0  0  0  0  0  0  0  0  0  0  0
   40.9961   32.0355   43.1361 H   0  0  0  0  0  0  0  0  0  0  0  0
   41.2034   30.0425   44.6496 H   0  0  0  0  0  0  0  0  0  0  0  0
   38.9769   33.4944   48.3669 H   0  0  0  0  0  0  0  0  0  0  0  0
   37.1638   33.4377   48.1881 H   0  0  0  0  0  0  0  0  0  0  0  0
   38.4946   33.1904   50.5606 H   0  0  0  0  0  0  0  0  0  0  0  0
   36.8635   32.5446   50.2315 H   0  0  0  0  0  0  0  0  0  0  0  0
   39.4497   31.0170   49.6436 H   0  0  0  0  0  0  0  0  0  0  0  0
   38.5378   30.8313   51.1562 H   0  0  0  0  0  0  0  0  0  0  0  0
   37.7660   29.1364   49.5596 H   0  0  0  0  0  0  0  0  0  0  0  0
   36.4634   30.3516   49.7609 H   0  0  0  0  0  0  0  0  0  0  0  0
   38.1714   29.6772   47.5177 H   0  0  0  0  0  0  0  0  0  0  0  0
   34.8695   30.2547   48.9310 H   0  0  0  0  0  0  0  0  0  0  0  0
   32.8588   30.0354   47.4749 H   0  0  0  0  0  0  0  0  0  0  0  0
   34.3476   28.1688   44.0056 H   0  0  0  0  0  0  0  0  0  0  0  0
   33.0351   27.8218   41.8832 H   0  0  0  0  0  0  0  0  0  0  0  0
   31.2932   29.5027   41.2438 H   0  0  0  0  0  0  0  0  0  0  0  0
   30.8742   31.4792   42.6921 H   0  0  0  0  0  0  0  0  0  0  0  0
  1  6  2  0
  2  1  1  0
  2  3  2  0
  3  4  1  0
  4  5  2  0
  5  7  1  0
  6  5  1  0
  7 12  1  0
  7  8  1  0
  8  9  1  0
  9 10  1  0
 11 10  1  0
 12 11  1  0
 13 14  2  0
 13 12  1  0
 15 14  1  0
 16 15  2  0
 17 16  1  0
 17 13  1  0
 19 20  2  0
 19 18  1  0
 20 16  1  0
 21 20  1  0
 22 21  2  0
 23 22  1  0
 23 24  2  0
 24 19  1  0
  1 25  1  0
  2 26  1  0
  3 27  1  0
  8 28  1  0
  8 29  1  0
  9 30  1  0
  9 31  1  0
 10 32  1  0
 10 33  1  0
 11 34  1  0
 11 35  1  0
 12 36  1  6
 14 37  1  0
 15 38  1  0
 21 39  1  0
 22 40  1  0
 23 41  1  0
 24 42  1  0
M  ISO  8  25  14  26  14  27  14  28  13  29  13  30  13  31  13  32  13
M  ISO  8  33  13  34  13  35  13  36  13  37  14  38  14  39  14  40  14
M  ISO  2  41  14  42  14
M  END
>  <minimizedAffinity>  (1) 
-5.71068001

>  <minimizedRMSD>  (1) 
0.705845177

$$$$
