
     RDKit          3D

 42 45  0  0  1  0  0  0  0  0999 V2000
   39.6090   33.0470   44.5940 C   0  0  0  0  0  0  0  0  0  0  0  0
   40.4760   32.0390   44.1880 C   0  0  0  0  0  0  0  0  0  0  0  0
   40.5470   30.8990   44.9600 C   0  0  0  0  0  0  0  0  0  0  0  0
   39.7620   30.8360   46.0720 N   0  0  0  0  0  0  0  0  0  0  0  0
   38.9300   31.8290   46.4420 C   0  0  0  0  0  0  0  0  0  0  0  0
   38.8530   32.9280   45.7080 N   0  0  0  0  0  0  0  0  0  0  0  0
   38.1360   31.6720   47.6440 N   0  0  0  0  0  0  0  0  0  0  0  0
   38.0280   32.7630   48.5740 C   0  0  0  0  0  0  0  0  0  0  0  0
   37.8240   32.3050   49.9980 C   0  0  0  0  0  0  0  0  0  0  0  0
   38.3270   30.8920   50.1050 C   0  0  0  0  0  0  0  0  0  0  0  0
   37.3730   30.0290   49.3190 C   0  0  0  0  0  0  0  0  0  0  0  0
   37.4610   30.3930   47.8780 C   0  0  1  0  0  0  0  0  0  0  0  0
   36.1800   30.3160   47.1700 C   0  0  0  0  0  0  0  0  0  0  0  0
   34.9040   30.2250   47.7230 C   0  0  0  0  0  0  0  0  0  0  0  0
   33.8240   30.1630   46.8930 C   0  0  0  0  0  0  0  0  0  0  0  0
   34.0760   30.1950   45.4760 C   0  0  0  0  0  0  0  0  0  0  0  0
   35.9650   30.3230   45.4580 S   0  0  0  0  0  0  0  0  0  0  0  0
   33.3330   30.1590   44.2970 C   0  0  0  0  0  0  0  0  0  0  0  0
   32.3510   29.2540   44.0930 C   0  0  0  0  0  0  0  0  0  0  0  0
   31.6710   29.3100   42.8700 C   0  0  0  0  0  0  0  0  0  0  0  0
   31.9990   30.2680   41.9030 C   0  0  0  0  0  0  0  0  0  0  0  0
   33.0210   31.1930   42.1440 C   0  0  0  0  0  0  0  0  0  0  0  0
   33.6860   31.1150   43.3740 C   0  0  0  0  0  0  0  0  0  0  0  0
   39.5364   33.9654   43.9929 H   0  0  0  0  0  0  0  0  0  0  0  0
   41.0862   32.1476   43.2793 H   0  0  0  0  0  0  0  0  0  0  0  0
   41.2147   30.0684   44.6875 H   0  0  0  0  0  0  0  0  0  0  0  0
   38.9521   33.3577   48.5258 H   0  0  0  0  0  0  0  0  0  0  0  0
   37.1450   33.3534   48.2881 H   0  0  0  0  0  0  0  0  0  0  0  0
   38.3868   32.9551   50.6840 H   0  0  0  0  0  0  0  0  0  0  0  0
   36.7587   32.3542   50.2677 H   0  0  0  0  0  0  0  0  0  0  0  0
   39.3401   30.8178   49.6830 H   0  0  0  0  0  0  0  0  0  0  0  0
   38.3768   30.5694   51.1555 H   0  0  0  0  0  0  0  0  0  0  0  0
   37.6419   28.9703   49.4486 H   0  0  0  0  0  0  0  0  0  0  0  0
   36.3461   30.1886   49.6795 H   0  0  0  0  0  0  0  0  0  0  0  0
   38.1003   29.6134   47.4381 H   0  0  0  0  0  0  0  0  0  0  0  0
   34.7699   30.2035   48.8146 H   0  0  0  0  0  0  0  0  0  0  0  0
   32.8008   30.0914   47.2904 H   0  0  0  0  0  0  0  0  0  0  0  0
   32.0960   28.5039   44.8561 H   0  0  0  0  0  0  0  0  0  0  0  0
   30.8656   28.5892   42.6656 H   0  0  0  0  0  0  0  0  0  0  0  0
   31.4509   30.2936   40.9496 H   0  0  0  0  0  0  0  0  0  0  0  0
   33.2917   31.9525   41.3958 H   0  0  0  0  0  0  0  0  0  0  0  0
   34.4960   31.8231   43.6032 H   0  0  0  0  0  0  0  0  0  0  0  0
  1  6  2  0
  2  1  1  0
  2  3  2  0
  3  4  1  0
  4  5  2  0
  5  7  1  0
  6  5  1  0
  7 12  1  0
  7  8  1  0
  8  9  1  0
  9 10  1  0
 11 10  1  0
 12 11  1  0
 13 14  2  0
 13 12  1  0
 15 14  1  0
 16 15  2  0
 17 16  1  0
 17 13  1  0
 18 16  1  0
 19 18  2  0
 20 19  1  0
 21 22  1  0
 21 20  2  0
 22 23  2  0
 23 18  1  0
  1 24  1  0
  2 25  1  0
  3 26  1  0
  8 27  1  0
  8 28  1  0
  9 29  1  0
  9 30  1  0
 10 31  1  0
 10 32  1  0
 11 33  1  0
 11 34  1  0
 12 35  1  6
 14 36  1  0
 15 37  1  0
 19 38  1  0
 20 39  1  0
 21 40  1  0
 22 41  1  0
 23 42  1  0
M  ISO  8  24  14  25  14  26  14  27  13  28  13  29  13  30  13  31  13
M  ISO  8  32  13  33  13  34  13  35  13  36  14  37  14  38  14  39  14
M  ISO  3  40  14  41  14  42  14
M  END
>  <minimizedAffinity>  (1) 
-5.57784081

>  <minimizedRMSD>  (1) 
0.177336469

$$$$
