
     RDKit          3D

 44 47  0  0  1  0  0  0  0  0999 V2000
   39.6750   33.1250   44.6920 C   0  0  0  0  0  0  0  0  0  0  0  0
   40.5610   32.1310   44.2950 C   0  0  0  0  0  0  0  0  0  0  0  0
   40.6440   30.9840   45.0640 C   0  0  0  0  0  0  0  0  0  0  0  0
   39.8530   30.8960   46.1630 N   0  0  0  0  0  0  0  0  0  0  0  0
   38.9920   31.8900   46.5270 C   0  0  0  0  0  0  0  0  0  0  0  0
   38.8990   33.0000   45.8000 N   0  0  0  0  0  0  0  0  0  0  0  0
   38.1830   31.7160   47.7180 N   0  0  0  0  0  0  0  0  0  0  0  0
   38.0360   32.8070   48.6470 C   0  0  0  0  0  0  0  0  0  0  0  0
   37.8190   32.3510   50.0680 C   0  0  0  0  0  0  0  0  0  0  0  0
   38.3380   30.9450   50.1890 C   0  0  0  0  0  0  0  0  0  0  0  0
   37.4070   30.0700   49.3850 C   0  0  0  0  0  0  0  0  0  0  0  0
   37.5310   30.4160   47.9410 C   0  0  1  0  0  0  0  0  0  0  0  0
   36.2590   30.3210   47.2030 C   0  0  0  0  0  0  0  0  0  0  0  0
   34.9750   30.2200   47.7430 C   0  0  0  0  0  0  0  0  0  0  0  0
   33.8950   30.1490   46.9000 C   0  0  0  0  0  0  0  0  0  0  0  0
   34.1890   30.1890   45.4830 C   0  0  0  0  0  0  0  0  0  0  0  0
   36.0740   30.3260   45.5000 S   0  0  0  0  0  0  0  0  0  0  0  0
   33.5200   30.1410   44.2960 N   0  0  0  0  0  0  0  0  0  0  0  0
   32.5370   29.2070   43.7500 C   0  0  0  0  0  0  0  0  0  0  0  0
   32.5380   29.4740   42.2710 C   0  0  0  0  0  0  0  0  0  0  0  0
   32.6490   30.9850   42.2620 C   0  0  0  0  0  0  0  0  0  0  0  0
   33.7290   31.1930   43.2920 C   0  0  0  0  0  0  0  0  0  0  0  0
   39.5995   34.0425   44.0899 H   0  0  0  0  0  0  0  0  0  0  0  0
   41.1797   32.2528   43.3937 H   0  0  0  0  0  0  0  0  0  0  0  0
   41.3303   30.1682   44.7928 H   0  0  0  0  0  0  0  0  0  0  0  0
   38.9478   33.4213   48.6122 H   0  0  0  0  0  0  0  0  0  0  0  0
   37.1437   33.3753   48.3458 H   0  0  0  0  0  0  0  0  0  0  0  0
   38.3639   33.0109   50.7592 H   0  0  0  0  0  0  0  0  0  0  0  0
   36.7493   32.3867   50.3217 H   0  0  0  0  0  0  0  0  0  0  0  0
   39.3599   30.8819   49.7868 H   0  0  0  0  0  0  0  0  0  0  0  0
   38.3734   30.6247   51.2407 H   0  0  0  0  0  0  0  0  0  0  0  0
   37.6751   29.0136   49.5341 H   0  0  0  0  0  0  0  0  0  0  0  0
   36.3706   30.2331   49.7155 H   0  0  0  0  0  0  0  0  0  0  0  0
   38.1936   29.6433   47.5240 H   0  0  0  0  0  0  0  0  0  0  0  0
   34.8311   30.1976   48.8333 H   0  0  0  0  0  0  0  0  0  0  0  0
   32.8655   30.0665   47.2787 H   0  0  0  0  0  0  0  0  0  0  0  0
   32.8325   28.1678   43.9568 H   0  0  0  0  0  0  0  0  0  0  0  0
   31.5410   29.3425   44.1968 H   0  0  0  0  0  0  0  0  0  0  0  0
   33.3976   29.0009   41.7737 H   0  0  0  0  0  0  0  0  0  0  0  0
   31.6650   29.0758   41.7332 H   0  0  0  0  0  0  0  0  0  0  0  0
   32.9526   31.3631   41.2746 H   0  0  0  0  0  0  0  0  0  0  0  0
   31.7077   31.5128   42.4751 H   0  0  0  0  0  0  0  0  0  0  0  0
   34.7233   31.0938   42.8322 H   0  0  0  0  0  0  0  0  0  0  0  0
   33.6812   32.1978   43.7370 H   0  0  0  0  0  0  0  0  0  0  0  0
  1  6  2  0
  2  1  1  0
  2  3  2  0
  3  4  1  0
  4  5  2  0
  5  7  1  0
  6  5  1  0
  7 12  1  0
  7  8  1  0
  8  9  1  0
  9 10  1  0
 11 10  1  0
 12 11  1  0
 13 14  2  0
 13 12  1  0
 15 14  1  0
 16 17  1  0
 16 15  2  0
 17 13  1  0
 18 16  1  0
 19 18  1  0
 20 19  1  0
 21 20  1  0
 21 22  1  0
 22 18  1  0
  1 23  1  0
  2 24  1  0
  3 25  1  0
  8 26  1  0
  8 27  1  0
  9 28  1  0
  9 29  1  0
 10 30  1  0
 10 31  1  0
 11 32  1  0
 11 33  1  0
 12 34  1  6
 14 35  1  0
 15 36  1  0
 19 37  1  0
 19 38  1  0
 20 39  1  0
 20 40  1  0
 21 41  1  0
 21 42  1  0
 22 43  1  0
 22 44  1  0
M  ISO  8  23  14  24  14  25  14  26  13  27  13  28  13  29  13  30  13
M  ISO  8  31  13  32  13  33  13  34  13  35  14  36  14  37  13  38  13
M  ISO  6  39  13  40  13  41  13  42  13  43  13  44  13
M  END
>  <minimizedAffinity>  (1) 
-5.47896194

>  <minimizedRMSD>  (1) 
0.367515981

$$$$
