
     RDKit          3D

 33 35  0  0  1  0  0  0  0  0999 V2000
   39.5820   33.0330   44.5370 C   0  0  0  0  0  0  0  0  0  0  0  0
   40.4750   32.0260   44.1560 C   0  0  0  0  0  0  0  0  0  0  0  0
   40.5650   30.9060   44.9570 C   0  0  0  0  0  0  0  0  0  0  0  0
   39.7740   30.8630   46.0600 N   0  0  0  0  0  0  0  0  0  0  0  0
   38.9200   31.8400   46.4120 C   0  0  0  0  0  0  0  0  0  0  0  0
   38.8250   32.9220   45.6520 N   0  0  0  0  0  0  0  0  0  0  0  0
   38.1230   31.6920   47.6130 N   0  0  0  0  0  0  0  0  0  0  0  0
   37.9850   32.8070   48.5140 C   0  0  0  0  0  0  0  0  0  0  0  0
   37.7970   32.3770   49.9490 C   0  0  0  0  0  0  0  0  0  0  0  0
   38.3230   30.9710   50.0960 C   0  0  0  0  0  0  0  0  0  0  0  0
   37.3730   30.0900   49.3250 C   0  0  0  0  0  0  0  0  0  0  0  0
   37.4820   30.4010   47.8760 C   0  0  1  0  0  0  0  0  0  0  0  0
   36.1910   30.2840   47.1490 C   0  0  0  0  0  0  0  0  0  0  0  0
   34.9100   30.2380   47.7050 C   0  0  0  0  0  0  0  0  0  0  0  0
   33.8590   30.1420   46.8740 C   0  0  0  0  0  0  0  0  0  0  0  0
   34.0990   30.0910   45.4590 C   0  0  0  0  0  0  0  0  0  0  0  0
   36.0000   30.1960   45.4470 S   0  0  0  0  0  0  0  0  0  0  0  0
   33.2910   29.9880   44.2340 O   0  0  0  0  0  0  0  0  0  0  0  0
   39.4935   33.9361   43.9152 H   0  0  0  0  0  0  0  0  0  0  0  0
   41.0861   32.1238   43.2466 H   0  0  0  0  0  0  0  0  0  0  0  0
   41.2501   30.0810   44.7119 H   0  0  0  0  0  0  0  0  0  0  0  0
   38.8914   33.4268   48.4483 H   0  0  0  0  0  0  0  0  0  0  0  0
   37.0867   33.3668   48.2146 H   0  0  0  0  0  0  0  0  0  0  0  0
   38.3523   33.0533   50.6155 H   0  0  0  0  0  0  0  0  0  0  0  0
   36.7311   32.4125   50.2183 H   0  0  0  0  0  0  0  0  0  0  0  0
   39.3378   30.8968   49.6781 H   0  0  0  0  0  0  0  0  0  0  0  0
   38.3832   30.6714   51.1527 H   0  0  0  0  0  0  0  0  0  0  0  0
   37.6310   29.0342   49.4947 H   0  0  0  0  0  0  0  0  0  0  0  0
   36.3428   30.2725   49.6648 H   0  0  0  0  0  0  0  0  0  0  0  0
   38.1452   29.6213   47.4732 H   0  0  0  0  0  0  0  0  0  0  0  0
   34.7659   30.2793   48.7947 H   0  0  0  0  0  0  0  0  0  0  0  0
   32.8335   30.1032   47.2700 H   0  0  0  0  0  0  0  0  0  0  0  0
   33.7339   29.9730   43.3487 H   0  0  0  0  0  0  0  0  0  0  0  0
  1  6  2  0
  2  1  1  0
  2  3  2  0
  3  4  1  0
  4  5  2  0
  5  7  1  0
  6  5  1  0
  7 12  1  0
  7  8  1  0
  8  9  1  0
  9 10  1  0
 11 10  1  0
 12 11  1  0
 13 14  2  0
 13 12  1  0
 15 14  1  0
 16 15  2  0
 17 16  1  0
 17 13  1  0
 18 16  1  0
  1 19  1  0
  2 20  1  0
  3 21  1  0
  8 22  1  0
  8 23  1  0
  9 24  1  0
  9 25  1  0
 10 26  1  0
 10 27  1  0
 11 28  1  0
 11 29  1  0
 12 30  1  6
 14 31  1  0
 15 32  1  0
 18 33  1  0
M  ISO  8  19  14  20  14  21  14  22  13  23  13  24  13  25  13  26  13
M  ISO  7  27  13  28  13  29  13  30  13  31  14  32  14  33   3
M  END
>  <minimizedAffinity>  (1) 
-5.43870401

>  <minimizedRMSD>  (1) 
0.0228533838

$$$$
