
     RDKit          3D

 39 42  0  0  1  0  0  0  0  0999 V2000
   39.6600   33.1280   44.7070 C   0  0  0  0  0  0  0  0  0  0  0  0
   40.5650   32.1400   44.3180 C   0  0  0  0  0  0  0  0  0  0  0  0
   40.6420   31.0010   45.0900 C   0  0  0  0  0  0  0  0  0  0  0  0
   39.8330   30.9080   46.1820 N   0  0  0  0  0  0  0  0  0  0  0  0
   38.9610   31.8890   46.5350 C   0  0  0  0  0  0  0  0  0  0  0  0
   38.8770   32.9900   45.8010 N   0  0  0  0  0  0  0  0  0  0  0  0
   38.1430   31.7020   47.7130 N   0  0  0  0  0  0  0  0  0  0  0  0
   37.9840   32.7880   48.6430 C   0  0  0  0  0  0  0  0  0  0  0  0
   37.7580   32.3200   50.0590 C   0  0  0  0  0  0  0  0  0  0  0  0
   38.2880   30.9170   50.1770 C   0  0  0  0  0  0  0  0  0  0  0  0
   37.3670   30.0410   49.3630 C   0  0  0  0  0  0  0  0  0  0  0  0
   37.5000   30.4030   47.9280 C   0  0  1  0  0  0  0  0  0  0  0  0
   36.2400   30.2960   47.1820 C   0  0  0  0  0  0  0  0  0  0  0  0
   34.9430   30.2290   47.6890 C   0  0  0  0  0  0  0  0  0  0  0  0
   33.8790   30.1440   46.8310 C   0  0  0  0  0  0  0  0  0  0  0  0
   34.1980   30.1330   45.4270 C   0  0  0  0  0  0  0  0  0  0  0  0
   36.0690   30.2460   45.4590 S   0  0  0  0  0  0  0  0  0  0  0  0
   33.4610   30.0600   44.2180 C   0  0  0  0  0  0  0  0  0  0  0  0
   32.1050   30.6990   44.2260 C   0  0  0  0  0  0  0  0  0  0  0  0
   33.1880   31.3130   43.3840 C   0  0  0  0  0  0  0  0  0  0  0  0
   39.5810   34.0461   44.1063 H   0  0  0  0  0  0  0  0  0  0  0  0
   41.1956   32.2659   43.4255 H   0  0  0  0  0  0  0  0  0  0  0  0
   41.3377   30.1891   44.8315 H   0  0  0  0  0  0  0  0  0  0  0  0
   38.8931   33.4068   48.6188 H   0  0  0  0  0  0  0  0  0  0  0  0
   37.0934   33.3567   48.3372 H   0  0  0  0  0  0  0  0  0  0  0  0
   38.2906   32.9800   50.7595 H   0  0  0  0  0  0  0  0  0  0  0  0
   36.6855   32.3442   50.3021 H   0  0  0  0  0  0  0  0  0  0  0  0
   39.3126   30.8632   49.7803 H   0  0  0  0  0  0  0  0  0  0  0  0
   38.3214   30.5914   51.2272 H   0  0  0  0  0  0  0  0  0  0  0  0
   37.6416   28.9852   49.5042 H   0  0  0  0  0  0  0  0  0  0  0  0
   36.3271   30.1897   49.6895 H   0  0  0  0  0  0  0  0  0  0  0  0
   38.1786   29.6429   47.5135 H   0  0  0  0  0  0  0  0  0  0  0  0
   34.7747   30.2444   48.7759 H   0  0  0  0  0  0  0  0  0  0  0  0
   32.8418   30.0875   47.1931 H   0  0  0  0  0  0  0  0  0  0  0  0
   33.8888   29.0749   43.9803 H   0  0  0  0  0  0  0  0  0  0  0  0
   31.2584   30.1904   43.7416 H   0  0  0  0  0  0  0  0  0  0  0  0
   31.4352   31.0748   45.0135 H   0  0  0  0  0  0  0  0  0  0  0  0
   33.6329   32.2765   43.6733 H   0  0  0  0  0  0  0  0  0  0  0  0
   33.2947   31.5855   42.3236 H   0  0  0  0  0  0  0  0  0  0  0  0
  1  6  2  0
  2  1  1  0
  2  3  2  0
  3  4  1  0
  4  5  2  0
  5  7  1  0
  6  5  1  0
  7 12  1  0
  7  8  1  0
  8  9  1  0
  9 10  1  0
 11 10  1  0
 12 11  1  0
 13 14  2  0
 13 12  1  0
 15 14  1  0
 16 17  1  0
 16 15  2  0
 17 13  1  0
 18 19  1  0
 18 16  1  0
 20 18  1  0
 20 19  1  0
  1 21  1  0
  2 22  1  0
  3 23  1  0
  8 24  1  0
  8 25  1  0
  9 26  1  0
  9 27  1  0
 10 28  1  0
 10 29  1  0
 11 30  1  0
 11 31  1  0
 12 32  1  6
 14 33  1  0
 15 34  1  0
 18 35  1  0
 19 36  1  0
 19 37  1  0
 20 38  1  0
 20 39  1  0
M  ISO  8  21  14  22  14  23  14  24  13  25  13  26  13  27  13  28  13
M  ISO  8  29  13  30  13  31  13  32  13  33  14  34  14  35  13  36  13
M  ISO  3  37  13  38  13  39  13
M  END
>  <minimizedAffinity>  (1) 
-5.40619946

>  <minimizedRMSD>  (1) 
0.495156676

$$$$
