
     RDKit          3D

 34 36  0  0  1  0  0  0  0  0999 V2000
   39.6650   33.1320   44.7240 C   0  0  0  0  0  0  0  0  0  0  0  0
   40.5690   32.1480   44.3380 C   0  0  0  0  0  0  0  0  0  0  0  0
   40.6450   31.0050   45.1030 C   0  0  0  0  0  0  0  0  0  0  0  0
   39.8280   30.9140   46.1890 N   0  0  0  0  0  0  0  0  0  0  0  0
   38.9570   31.8860   46.5440 C   0  0  0  0  0  0  0  0  0  0  0  0
   38.8780   32.9890   45.8130 N   0  0  0  0  0  0  0  0  0  0  0  0
   38.1300   31.6980   47.7160 N   0  0  0  0  0  0  0  0  0  0  0  0
   37.9640   32.7800   48.6500 C   0  0  0  0  0  0  0  0  0  0  0  0
   37.7410   32.3030   50.0650 C   0  0  0  0  0  0  0  0  0  0  0  0
   38.2890   30.9020   50.1710 C   0  0  0  0  0  0  0  0  0  0  0  0
   37.3530   30.0350   49.3590 C   0  0  0  0  0  0  0  0  0  0  0  0
   37.4840   30.4000   47.9250 C   0  0  1  0  0  0  0  0  0  0  0  0
   36.2280   30.2910   47.1710 C   0  0  0  0  0  0  0  0  0  0  0  0
   34.9260   30.2140   47.6880 C   0  0  0  0  0  0  0  0  0  0  0  0
   33.8960   30.1290   46.8130 C   0  0  0  0  0  0  0  0  0  0  0  0
   34.1820   30.1230   45.4060 C   0  0  0  0  0  0  0  0  0  0  0  0
   36.0760   30.2490   45.4510 S   0  0  0  0  0  0  0  0  0  0  0  0
   33.4630   30.0520   44.1810 C   0  0  0  0  0  0  0  0  0  0  0  0
   33.0960   31.0910   43.6330 O   0  0  0  0  0  0  0  0  0  0  0  0
   39.5886   34.0522   44.1261 H   0  0  0  0  0  0  0  0  0  0  0  0
   41.2038   32.2785   43.4491 H   0  0  0  0  0  0  0  0  0  0  0  0
   41.3416   30.1935   44.8457 H   0  0  0  0  0  0  0  0  0  0  0  0
   38.8691   33.4048   48.6284 H   0  0  0  0  0  0  0  0  0  0  0  0
   37.0704   33.3451   48.3465 H   0  0  0  0  0  0  0  0  0  0  0  0
   38.2659   32.9644   50.7700 H   0  0  0  0  0  0  0  0  0  0  0  0
   36.6688   32.3157   50.3103 H   0  0  0  0  0  0  0  0  0  0  0  0
   39.3081   30.8565   49.7595 H   0  0  0  0  0  0  0  0  0  0  0  0
   38.3485   30.5670   51.2170 H   0  0  0  0  0  0  0  0  0  0  0  0
   37.6175   28.9762   49.4965 H   0  0  0  0  0  0  0  0  0  0  0  0
   36.3162   30.1921   49.6910 H   0  0  0  0  0  0  0  0  0  0  0  0
   38.1596   29.6383   47.5088 H   0  0  0  0  0  0  0  0  0  0  0  0
   34.7470   30.2224   48.7733 H   0  0  0  0  0  0  0  0  0  0  0  0
   32.8588   30.0657   47.1737 H   0  0  0  0  0  0  0  0  0  0  0  0
   33.2367   29.0760   43.7269 H   0  0  0  0  0  0  0  0  0  0  0  0
  1  6  2  0
  2  1  1  0
  2  3  2  0
  3  4  1  0
  4  5  2  0
  5  7  1  0
  6  5  1  0
  7 12  1  0
  7  8  1  0
  8  9  1  0
  9 10  1  0
 11 10  1  0
 12 11  1  0
 13 14  2  0
 13 12  1  0
 15 14  1  0
 16 17  1  0
 16 15  2  0
 17 13  1  0
 18 16  1  0
 19 18  2  0
  1 20  1  0
  2 21  1  0
  3 22  1  0
  8 23  1  0
  8 24  1  0
  9 25  1  0
  9 26  1  0
 10 27  1  0
 10 28  1  0
 11 29  1  0
 11 30  1  0
 12 31  1  6
 14 32  1  0
 15 33  1  0
 18 34  1  0
M  ISO  8  20  14  21  14  22  14  23  13  24  13  25  13  26  13  27  13
M  ISO  7  28  13  29  13  30  13  31  13  32  14  33  14  34   6
M  END
>  <minimizedAffinity>  (1) 
-5.28674889

>  <minimizedRMSD>  (1) 
0.184483975

$$$$
