
     RDKit          3D

 33 36  0  0  0  0  0  0  0  0999 V2000
   39.1510   33.8210   49.1810 C   0  0  0  0  0  0  0  0  0  0  0  0
   39.5650   33.6170   47.8600 C   0  0  0  0  0  0  0  0  0  0  0  0
   39.0440   32.5330   47.1570 C   0  0  0  0  0  0  0  0  0  0  0  0
   38.1520   31.7120   47.7860 N   0  0  0  0  0  0  0  0  0  0  0  0
   37.7760   31.9410   49.0680 C   0  0  0  0  0  0  0  0  0  0  0  0
   38.2680   32.9770   49.7490 N   0  0  0  0  0  0  0  0  0  0  0  0
   40.4070   31.3180   45.5600 C   0  0  0  0  0  0  0  0  0  0  0  0
   39.3840   32.2010   45.7780 C   0  0  0  0  0  0  0  0  0  0  0  0
   38.6980   32.7600   44.7090 C   0  0  0  0  0  0  0  0  0  0  0  0
   39.0950   32.3830   43.4310 C   0  0  0  0  0  0  0  0  0  0  0  0
   38.5740   32.7950   42.2370 N   0  0  0  0  0  0  0  0  0  0  0  0
   39.2740   32.1670   41.2730 C   0  0  0  0  0  0  0  0  0  0  0  0
   40.2190   31.3730   41.8240 N   0  0  0  0  0  0  0  0  0  0  0  0
   40.1320   31.4860   43.1740 C   0  0  0  0  0  0  0  0  0  0  0  0
   40.7890   30.9530   44.2690 C   0  0  0  0  0  0  0  0  0  0  0  0
   38.2280   30.5170   51.4850 F   0  0  0  0  0  0  0  0  0  0  0  0
   37.0660   30.3300   50.8230 C   0  0  0  0  0  0  0  0  0  0  0  0
   36.8170   31.0060   49.6500 C   0  0  0  0  0  0  0  0  0  0  0  0
   35.6200   30.7930   48.9990 C   0  0  0  0  0  0  0  0  0  0  0  0
   34.6520   29.9230   49.4790 C   0  0  0  0  0  0  0  0  0  0  0  0
   34.9220   29.2510   50.6660 C   0  0  0  0  0  0  0  0  0  0  0  0
   36.1240   29.4440   51.3500 C   0  0  0  0  0  0  0  0  0  0  0  0
   39.5468   34.6711   49.7560 H   0  0  0  0  0  0  0  0  0  0  0  0
   40.2870   34.2985   47.3864 H   0  0  0  0  0  0  0  0  0  0  0  0
   40.9391   30.8872   46.4210 H   0  0  0  0  0  0  0  0  0  0  0  0
   37.8743   33.4719   44.8663 H   0  0  0  0  0  0  0  0  0  0  0  0
   37.7969   33.4572   42.1007 H   0  0  0  0  0  0  0  0  0  0  0  0
   39.1016   32.2834   40.1929 H   0  0  0  0  0  0  0  0  0  0  0  0
   41.6138   30.2404   44.1212 H   0  0  0  0  0  0  0  0  0  0  0  0
   35.4251   31.3346   48.0617 H   0  0  0  0  0  0  0  0  0  0  0  0
   33.7052   29.7703   48.9402 H   0  0  0  0  0  0  0  0  0  0  0  0
   34.1748   28.5543   51.0738 H   0  0  0  0  0  0  0  0  0  0  0  0
   36.3255   28.9069   52.2886 H   0  0  0  0  0  0  0  0  0  0  0  0
  1  6  2  0
  2  1  1  0
  3  4  1  0
  3  2  2  0
  4  5  2  0
  5 18  1  0
  5  6  1  0
  7  8  2  0
  8  3  1  0
  9  8  1  0
 10  9  2  0
 11 10  1  0
 12 13  2  0
 12 11  1  0
 13 14  1  0
 14 10  1  0
 14 15  2  0
 15  7  1  0
 17 22  2  0
 17 16  1  0
 18 17  1  0
 19 20  1  0
 19 18  2  0
 20 21  2  0
 21 22  1  0
  1 23  1  0
  2 24  1  0
  7 25  1  0
  9 26  1  0
 11 27  1  0
 12 28  1  0
 15 29  1  0
 19 30  1  0
 20 31  1  0
 21 32  1  0
 22 33  1  0
M  ISO  8  23  14  24  14  25  14  26  14  27   9  28  14  29  14  30  14
M  ISO  3  31  14  32  14  33  14
M  END
>  <minimizedAffinity>  (1) 
-7.5003705

>  <minimizedRMSD>  (1) 
3.71334839

$$$$
