
     RDKit          3D

 36 40  0  0  0  0  0  0  0  0999 V2000
   37.1830   29.4500   50.6390 C   0  0  0  0  0  0  0  0  0  0  0  0
   37.8010   30.1770   49.6230 C   0  0  0  0  0  0  0  0  0  0  0  0
   37.1720   30.3090   48.3960 C   0  0  0  0  0  0  0  0  0  0  0  0
   35.9640   29.7120   48.2450 N   0  0  0  0  0  0  0  0  0  0  0  0
   35.3770   29.0070   49.2460 C   0  0  0  0  0  0  0  0  0  0  0  0
   35.9800   28.8800   50.4240 N   0  0  0  0  0  0  0  0  0  0  0  0
   37.2120   30.7550   46.0280 C   0  0  0  0  0  0  0  0  0  0  0  0
   37.7340   31.0440   47.2810 C   0  0  0  0  0  0  0  0  0  0  0  0
   38.7250   31.9800   47.4040 C   0  0  0  0  0  0  0  0  0  0  0  0
   39.1820   32.6190   46.2650 C   0  0  0  0  0  0  0  0  0  0  0  0
   40.1500   33.5730   46.1580 N   0  0  0  0  0  0  0  0  0  0  0  0
   40.2460   33.8910   44.8550 C   0  0  0  0  0  0  0  0  0  0  0  0
   39.3690   33.1670   44.1260 N   0  0  0  0  0  0  0  0  0  0  0  0
   38.6960   32.3680   44.9890 C   0  0  0  0  0  0  0  0  0  0  0  0
   37.6930   31.4150   44.8890 C   0  0  0  0  0  0  0  0  0  0  0  0
   33.9340   27.3850   48.1020 C   0  0  0  0  0  0  0  0  0  0  0  0
   34.0800   28.3900   49.0200 C   0  0  0  0  0  0  0  0  0  0  0  0
   32.9520   28.7830   49.7080 C   0  0  0  0  0  0  0  0  0  0  0  0
   31.7260   28.1660   49.4620 C   0  0  0  0  0  0  0  0  0  0  0  0
   30.4700   28.3170   49.9570 N   0  0  0  0  0  0  0  0  0  0  0  0
   29.6410   27.4280   49.3410 C   0  0  0  0  0  0  0  0  0  0  0  0
   30.3770   26.7120   48.4540 N   0  0  0  0  0  0  0  0  0  0  0  0
   31.6670   27.1470   48.5070 C   0  0  0  0  0  0  0  0  0  0  0  0
   32.7670   26.7190   47.7950 C   0  0  0  0  0  0  0  0  0  0  0  0
   37.6765   29.3412   51.6160 H   0  0  0  0  0  0  0  0  0  0  0  0
   38.7825   30.6432   49.7946 H   0  0  0  0  0  0  0  0  0  0  0  0
   36.4155   30.0030   45.9281 H   0  0  0  0  0  0  0  0  0  0  0  0
   39.1501   32.2197   48.3898 H   0  0  0  0  0  0  0  0  0  0  0  0
   40.7029   33.9741   46.9289 H   0  0  0  0  0  0  0  0  0  0  0  0
   40.9411   34.6361   44.4408 H   0  0  0  0  0  0  0  0  0  0  0  0
   37.2696   31.1741   43.9028 H   0  0  0  0  0  0  0  0  0  0  0  0
   34.8378   27.0785   47.5550 H   0  0  0  0  0  0  0  0  0  0  0  0
   33.0194   29.5876   50.4550 H   0  0  0  0  0  0  0  0  0  0  0  0
   30.1896   28.9940   50.6809 H   0  0  0  0  0  0  0  0  0  0  0  0
   28.5636   27.3113   49.5298 H   0  0  0  0  0  0  0  0  0  0  0  0
   32.7177   25.9149   47.0460 H   0  0  0  0  0  0  0  0  0  0  0  0
  2  1  2  0
  3  2  1  0
  4  3  2  0
  4  5  1  0
  5  6  2  0
  6  1  1  0
  7  8  2  0
  8  9  1  0
  8  3  1  0
 10  9  2  0
 11 10  1  0
 12 11  1  0
 13 12  2  0
 13 14  1  0
 14 10  1  0
 15 14  2  0
 15  7  1  0
 16 17  2  0
 17  5  1  0
 17 18  1  0
 19 18  2  0
 19 20  1  0
 21 20  1  0
 22 23  1  0
 22 21  2  0
 23 19  1  0
 24 16  1  0
 24 23  2  0
  1 25  1  0
  2 26  1  0
  7 27  1  0
  9 28  1  0
 11 29  1  0
 12 30  1  0
 15 31  1  0
 16 32  1  0
 18 33  1  0
 20 34  1  0
 21 35  1  0
 24 36  1  0
M  ISO  8  25  14  26  14  27  14  28  14  29   9  30  14  31  14  32  14
M  ISO  4  33  14  34   9  35  14  36  14
M  END
>  <minimizedAffinity>  (1) 
-7.16563988

>  <minimizedRMSD>  (1) 
1.19180954

$$$$
