
     RDKit          3D

 23 25  0  0  0  0  0  0  0  0999 V2000
   38.2410   32.7020   49.5750 C   0  0  0  0  0  0  0  0  0  0  0  0
   38.7370   33.0340   48.3050 C   0  0  0  0  0  0  0  0  0  0  0  0
   38.2830   32.2810   47.2330 C   0  0  0  0  0  0  0  0  0  0  0  0
   37.3910   31.2680   47.4430 N   0  0  0  0  0  0  0  0  0  0  0  0
   36.9410   30.9820   48.6760 C   0  0  0  0  0  0  0  0  0  0  0  0
   37.3630   31.6920   49.7240 N   0  0  0  0  0  0  0  0  0  0  0  0
   38.7940   32.6290   45.9510 N   0  0  0  0  0  0  0  0  0  0  0  0
   36.0090   29.9240   48.8950 N   0  0  0  0  0  0  0  0  0  0  0  0
   35.9600   28.9250   49.8200 C   0  0  0  0  0  0  0  0  0  0  0  0
   34.8690   28.1690   49.6080 N   0  0  0  0  0  0  0  0  0  0  0  0
   34.1920   28.6570   48.5490 C   0  0  0  0  0  0  0  0  0  0  0  0
   33.0200   28.2450   47.9330 C   0  0  0  0  0  0  0  0  0  0  0  0
   32.5820   28.9640   46.8580 N   0  0  0  0  0  0  0  0  0  0  0  0
   33.2810   30.0320   46.4280 C   0  0  0  0  0  0  0  0  0  0  0  0
   34.4170   30.4090   47.0450 N   0  0  0  0  0  0  0  0  0  0  0  0
   34.9080   29.7510   48.1080 C   0  0  0  0  0  0  0  0  0  0  0  0
   38.5721   33.2714   50.4560 H   0  0  0  0  0  0  0  0  0  0  0  0
   39.4548   33.8559   48.1660 H   0  0  0  0  0  0  0  0  0  0  0  0
   39.4655   33.4044   45.8574 H   0  0  0  0  0  0  0  0  0  0  0  0
   38.4923   32.1054   45.1169 H   0  0  0  0  0  0  0  0  0  0  0  0
   36.6996   28.7621   50.6178 H   0  0  0  0  0  0  0  0  0  0  0  0
   32.4626   27.3696   48.2976 H   0  0  0  0  0  0  0  0  0  0  0  0
   32.9190   30.6041   45.5610 H   0  0  0  0  0  0  0  0  0  0  0  0
  1  6  2  0
  2  1  1  0
  3  4  1  0
  3  2  2  0
  4  5  2  0
  5  8  1  0
  5  6  1  0
  7  3  1  0
  8  9  1  0
 10  9  2  0
 11 10  1  0
 12 11  2  0
 13 12  1  0
 14 13  2  0
 14 15  1  0
 15 16  2  0
 16 11  1  0
 16  8  1  0
  1 17  1  0
  2 18  1  0
  7 19  1  0
  7 20  1  0
  9 21  1  0
 12 22  1  0
 14 23  1  0
M  ISO  5  17  14  18  14  21  14  22  14  23  14
M  END
>  <minimizedAffinity>  (1) 
-5.30402184

>  <minimizedRMSD>  (1) 
2.23764992

$$$$
