
     RDKit          3D

 30 33  0  0  0  0  0  0  0  0999 V2000
   36.6460   29.7930   50.8780 C   0  0  0  0  0  0  0  0  0  0  0  0
   37.3240   30.4690   49.8640 C   0  0  0  0  0  0  0  0  0  0  0  0
   36.8230   30.3850   48.5710 C   0  0  0  0  0  0  0  0  0  0  0  0
   35.7090   29.6550   48.3680 N   0  0  0  0  0  0  0  0  0  0  0  0
   35.0620   29.0030   49.3620 C   0  0  0  0  0  0  0  0  0  0  0  0
   35.5330   29.0780   50.6070 N   0  0  0  0  0  0  0  0  0  0  0  0
   36.9530   30.7130   46.1770 C   0  0  0  0  0  0  0  0  0  0  0  0
   37.4510   31.0520   47.4280 C   0  0  0  0  0  0  0  0  0  0  0  0
   38.4680   31.9590   47.5520 C   0  0  0  0  0  0  0  0  0  0  0  0
   38.9740   32.5200   46.3750 C   0  0  0  0  0  0  0  0  0  0  0  0
   39.9710   33.4320   46.2350 N   0  0  0  0  0  0  0  0  0  0  0  0
   40.1170   33.6790   44.9280 C   0  0  0  0  0  0  0  0  0  0  0  0
   39.2310   32.9420   44.2210 N   0  0  0  0  0  0  0  0  0  0  0  0
   38.5160   32.2180   45.1030 C   0  0  0  0  0  0  0  0  0  0  0  0
   37.4790   31.2900   45.0160 C   0  0  0  0  0  0  0  0  0  0  0  0
   33.8730   28.2620   48.9520 C   0  0  0  0  0  0  0  0  0  0  0  0
   34.0370   27.2780   47.9780 C   0  0  0  0  0  0  0  0  0  0  0  0
   32.7810   26.7060   47.7450 C   0  0  0  0  0  0  0  0  0  0  0  0
   31.9290   27.4010   48.6130 C   0  0  0  0  0  0  0  0  0  0  0  0
   32.6180   28.2830   49.2810 O   0  0  0  0  0  0  0  0  0  0  0  0
   37.0222   29.8428   51.9105 H   0  0  0  0  0  0  0  0  0  0  0  0
   38.2305   31.0527   50.0820 H   0  0  0  0  0  0  0  0  0  0  0  0
   36.1350   29.9819   46.0978 H   0  0  0  0  0  0  0  0  0  0  0  0
   38.8712   32.2357   48.5373 H   0  0  0  0  0  0  0  0  0  0  0  0
   40.5167   33.8572   46.9981 H   0  0  0  0  0  0  0  0  0  0  0  0
   40.8481   34.3769   44.4939 H   0  0  0  0  0  0  0  0  0  0  0  0
   37.0735   31.0109   44.0323 H   0  0  0  0  0  0  0  0  0  0  0  0
   34.9801   27.0020   47.4836 H   0  0  0  0  0  0  0  0  0  0  0  0
   32.5230   25.8988   47.0437 H   0  0  0  0  0  0  0  0  0  0  0  0
   30.8473   27.2292   48.7149 H   0  0  0  0  0  0  0  0  0  0  0  0
  2  1  2  0
  3  2  1  0
  4  3  2  0
  4  5  1  0
  5  6  2  0
  6  1  1  0
  7  8  2  0
  8  9  1  0
  8  3  1  0
 10  9  2  0
 11 10  1  0
 12 11  1  0
 13 12  2  0
 13 14  1  0
 14 10  1  0
 15 14  2  0
 15  7  1  0
 16 20  1  0
 16  5  1  0
 17 16  2  0
 18 17  1  0
 18 19  2  0
 19 20  1  0
  1 21  1  0
  2 22  1  0
  7 23  1  0
  9 24  1  0
 11 25  1  0
 12 26  1  0
 15 27  1  0
 17 28  1  0
 18 29  1  0
 19 30  1  0
M  ISO  8  21  14  22  14  23  14  24  14  25   9  26  14  27  14  28  14
M  ISO  2  29  14  30  14
M  END
>  <minimizedAffinity>  (1) 
-6.53668451

>  <minimizedRMSD>  (1) 
1.1307292

$$$$
