
     RDKit          3D

 39 42  0  0  0  0  0  0  0  0999 V2000
   36.7810   30.6160   46.1940 C   0  0  0  0  0  0  0  0  0  0  0  0
   37.2470   30.8970   47.4720 C   0  0  0  0  0  0  0  0  0  0  0  0
   38.2710   31.7910   47.6280 C   0  0  0  0  0  0  0  0  0  0  0  0
   38.8090   32.3870   46.4950 C   0  0  0  0  0  0  0  0  0  0  0  0
   39.8270   33.2990   46.4230 N   0  0  0  0  0  0  0  0  0  0  0  0
   40.0020   33.5900   45.1250 C   0  0  0  0  0  0  0  0  0  0  0  0
   39.1250   32.8890   44.3740 N   0  0  0  0  0  0  0  0  0  0  0  0
   38.3780   32.1380   45.2070 C   0  0  0  0  0  0  0  0  0  0  0  0
   37.3290   31.2210   45.0590 C   0  0  0  0  0  0  0  0  0  0  0  0
   36.2780   29.6510   50.8860 C   0  0  0  0  0  0  0  0  0  0  0  0
   36.9660   30.3620   49.8930 C   0  0  0  0  0  0  0  0  0  0  0  0
   36.5980   30.2060   48.5660 C   0  0  0  0  0  0  0  0  0  0  0  0
   35.5740   29.3560   48.2910 N   0  0  0  0  0  0  0  0  0  0  0  0
   34.9180   28.6740   49.2620 C   0  0  0  0  0  0  0  0  0  0  0  0
   35.2740   28.8260   50.5420 N   0  0  0  0  0  0  0  0  0  0  0  0
   33.8120   27.7720   48.8420 C   0  0  0  0  0  0  0  0  0  0  0  0
   32.5360   28.5500   48.5540 C   0  0  0  0  0  0  0  0  0  0  0  0
   31.3850   27.5960   48.7280 C   0  0  0  0  0  0  0  0  0  0  0  0
   31.7490   26.2850   48.0850 C   0  0  0  0  0  0  0  0  0  0  0  0
   32.8400   26.4300   47.0440 C   0  0  0  0  0  0  0  0  0  0  0  0
   34.1310   26.9240   47.6590 C   0  0  0  0  0  0  0  0  0  0  0  0
   35.9575   29.8971   46.0715 H   0  0  0  0  0  0  0  0  0  0  0  0
   38.6594   32.0322   48.6285 H   0  0  0  0  0  0  0  0  0  0  0  0
   40.3581   33.6882   47.2151 H   0  0  0  0  0  0  0  0  0  0  0  0
   40.7489   34.2949   44.7309 H   0  0  0  0  0  0  0  0  0  0  0  0
   36.9401   30.9793   44.0588 H   0  0  0  0  0  0  0  0  0  0  0  0
   36.5587   29.7678   51.9431 H   0  0  0  0  0  0  0  0  0  0  0  0
   37.7905   31.0376   50.1646 H   0  0  0  0  0  0  0  0  0  0  0  0
   33.6660   27.1001   49.7006 H   0  0  0  0  0  0  0  0  0  0  0  0
   32.5538   28.9354   47.5239 H   0  0  0  0  0  0  0  0  0  0  0  0
   32.4390   29.4078   49.2358 H   0  0  0  0  0  0  0  0  0  0  0  0
   31.1896   27.4420   49.7995 H   0  0  0  0  0  0  0  0  0  0  0  0
   30.4801   28.0078   48.2573 H   0  0  0  0  0  0  0  0  0  0  0  0
   32.0974   25.5939   48.8667 H   0  0  0  0  0  0  0  0  0  0  0  0
   30.8517   25.9028   47.5763 H   0  0  0  0  0  0  0  0  0  0  0  0
   32.5107   27.1484   46.2788 H   0  0  0  0  0  0  0  0  0  0  0  0
   33.0259   25.4414   46.5988 H   0  0  0  0  0  0  0  0  0  0  0  0
   34.7413   26.0651   47.9748 H   0  0  0  0  0  0  0  0  0  0  0  0
   34.6927   27.5139   46.9198 H   0  0  0  0  0  0  0  0  0  0  0  0
  1  2  2  0
  2  3  1  0
  2 12  1  0
  4  3  2  0
  5  4  1  0
  6  5  1  0
  7  6  2  0
  7  8  1  0
  8  4  1  0
  9  8  2  0
  9  1  1  0
 11 10  2  0
 12 11  1  0
 13 12  2  0
 13 14  1  0
 14 15  2  0
 15 10  1  0
 16 14  1  0
 17 18  1  0
 17 16  1  0
 19 18  1  0
 20 21  1  0
 20 19  1  0
 21 16  1  0
  1 22  1  0
  3 23  1  0
  5 24  1  0
  6 25  1  0
  9 26  1  0
 10 27  1  0
 11 28  1  0
 16 29  1  0
 17 30  1  0
 17 31  1  0
 18 32  1  0
 18 33  1  0
 19 34  1  0
 19 35  1  0
 20 36  1  0
 20 37  1  0
 21 38  1  0
 21 39  1  0
M  ISO  8  22  14  23  14  24   9  25  14  26  14  27  14  28  14  29  13
M  ISO  8  30  13  31  13  32  13  33  13  34  13  35  13  36  13  37  13
M  ISO  2  38  13  39  13
M  END
>  <minimizedAffinity>  (1) 
-6.3624053

>  <minimizedRMSD>  (1) 
1.2032671

$$$$
