
     RDKit          3D

 24 26  0  0  0  0  0  0  0  0999 V2000
   37.1450   30.7640   46.6320 C   0  0  0  0  0  0  0  0  0  0  0  0
   37.7620   31.1810   47.8020 C   0  0  0  0  0  0  0  0  0  0  0  0
   38.7660   32.1090   47.7310 C   0  0  0  0  0  0  0  0  0  0  0  0
   39.1460   32.6110   46.5010 C   0  0  0  0  0  0  0  0  0  0  0  0
   40.0990   33.5220   46.1920 N   0  0  0  0  0  0  0  0  0  0  0  0
   40.0970   33.6880   44.8640 C   0  0  0  0  0  0  0  0  0  0  0  0
   39.1540   32.8970   44.3050 N   0  0  0  0  0  0  0  0  0  0  0  0
   38.5450   32.2140   45.3010 C   0  0  0  0  0  0  0  0  0  0  0  0
   37.5300   31.2740   45.3890 C   0  0  0  0  0  0  0  0  0  0  0  0
   37.3760   30.1870   51.4060 C   0  0  0  0  0  0  0  0  0  0  0  0
   37.9070   30.8000   50.2630 C   0  0  0  0  0  0  0  0  0  0  0  0
   37.2920   30.5930   49.0380 C   0  0  0  0  0  0  0  0  0  0  0  0
   36.2010   29.8040   49.0130 N   0  0  0  0  0  0  0  0  0  0  0  0
   35.6870   29.2120   50.1160 C   0  0  0  0  0  0  0  0  0  0  0  0
   36.2720   29.4020   51.3050 N   0  0  0  0  0  0  0  0  0  0  0  0
   34.5620   28.3980   50.0870 O   0  0  0  0  0  0  0  0  0  0  0  0
   36.3380   30.0183   46.6833 H   0  0  0  0  0  0  0  0  0  0  0  0
   39.2673   32.4530   48.6477 H   0  0  0  0  0  0  0  0  0  0  0  0
   40.7169   34.0027   46.8614 H   0  0  0  0  0  0  0  0  0  0  0  0
   40.7628   34.3664   44.3104 H   0  0  0  0  0  0  0  0  0  0  0  0
   37.0247   30.9275   44.4754 H   0  0  0  0  0  0  0  0  0  0  0  0
   37.8532   30.3416   52.3850 H   0  0  0  0  0  0  0  0  0  0  0  0
   38.8005   31.4373   50.3370 H   0  0  0  0  0  0  0  0  0  0  0  0
   34.2258   27.9882   50.9232 H   0  0  0  0  0  0  0  0  0  0  0  0
  1  2  2  0
  2 12  1  0
  3  2  1  0
  4  3  2  0
  5  4  1  0
  6  5  1  0
  7  6  2  0
  7  8  1  0
  8  9  2  0
  8  4  1  0
  9  1  1  0
 11 10  2  0
 12 11  1  0
 13 12  2  0
 13 14  1  0
 14 15  2  0
 15 10  1  0
 16 14  1  0
  1 17  1  0
  3 18  1  0
  5 19  1  0
  6 20  1  0
  9 21  1  0
 10 22  1  0
 11 23  1  0
 16 24  1  0
M  ISO  8  17  14  18  14  19   9  20  14  21  14  22  14  23  14  24   3
M  END
>  <minimizedAffinity>  (1) 
-6.24239635

>  <minimizedRMSD>  (1) 
0.169497252

$$$$
