
     RDKit          3D

 42 46  0  0  1  0  0  0  0  0999 V2000
   35.8440   29.4500   50.7080 C   0  0  0  0  0  0  0  0  0  0  0  0
   36.5970   30.1710   49.8000 C   0  0  0  0  0  0  0  0  0  0  0  0
   36.2830   30.0670   48.4330 C   0  0  0  0  0  0  0  0  0  0  0  0
   35.2440   29.2550   48.0620 N   0  0  0  0  0  0  0  0  0  0  0  0
   34.5420   28.5730   48.9960 C   0  0  0  0  0  0  0  0  0  0  0  0
   34.8190   28.6550   50.2900 N   0  0  0  0  0  0  0  0  0  0  0  0
   36.6120   30.5380   46.0890 C   0  0  0  0  0  0  0  0  0  0  0  0
   37.0080   30.7850   47.4110 C   0  0  0  0  0  0  0  0  0  0  0  0
   38.0270   31.6680   47.6440 C   0  0  0  0  0  0  0  0  0  0  0  0
   38.6420   32.2950   46.5930 C   0  0  0  0  0  0  0  0  0  0  0  0
   39.6550   33.1930   46.6020 N   0  0  0  0  0  0  0  0  0  0  0  0
   39.9110   33.5190   45.3350 C   0  0  0  0  0  0  0  0  0  0  0  0
   39.0870   32.8540   44.5110 N   0  0  0  0  0  0  0  0  0  0  0  0
   38.2850   32.0830   45.2740 C   0  0  0  0  0  0  0  0  0  0  0  0
   37.2530   31.1890   45.0330 C   0  0  0  0  0  0  0  0  0  0  0  0
   33.4540   27.7400   48.5360 C   0  0  0  0  0  0  0  0  0  0  0  0
   33.6220   26.5890   48.0520 O   0  0  0  0  0  0  0  0  0  0  0  0
   32.0320   28.2610   48.6270 C   0  0  1  0  0  0  0  0  0  0  0  0
   31.2420   28.2350   47.3030 C   0  0  0  0  0  0  0  0  0  0  0  0
   30.9020   27.3560   48.4390 C   0  0  2  0  0  0  0  0  0  0  0  0
   28.8660   29.2930   47.3470 Cl  0  0  0  0  0  0  0  0  0  0  0  0
   28.6730   28.4400   48.8790 C   0  0  0  0  0  0  0  0  0  0  0  0
   29.6800   27.5910   49.2460 C   0  0  0  0  0  0  0  0  0  0  0  0
   29.4660   26.9520   50.4610 C   0  0  0  0  0  0  0  0  0  0  0  0
   28.3320   27.1660   51.2190 C   0  0  0  0  0  0  0  0  0  0  0  0
   27.3650   28.0410   50.7710 C   0  0  0  0  0  0  0  0  0  0  0  0
   27.5230   28.7060   49.5700 C   0  0  0  0  0  0  0  0  0  0  0  0
   26.2930   29.8180   49.0040 Cl  0  0  0  0  0  0  0  0  0  0  0  0
   36.0751   29.5189   51.7813 H   0  0  0  0  0  0  0  0  0  0  0  0
   37.4239   30.8122   50.1394 H   0  0  0  0  0  0  0  0  0  0  0  0
   35.7953   29.8304   45.8833 H   0  0  0  0  0  0  0  0  0  0  0  0
   38.3520   31.8741   48.6745 H   0  0  0  0  0  0  0  0  0  0  0  0
   40.1391   33.5575   47.4349 H   0  0  0  0  0  0  0  0  0  0  0  0
   40.6855   34.2301   45.0119 H   0  0  0  0  0  0  0  0  0  0  0  0
   36.9357   30.9904   43.9986 H   0  0  0  0  0  0  0  0  0  0  0  0
   32.2921   28.9913   49.4074 H   0  0  0  0  0  0  0  0  0  0  0  0
   31.6962   27.8165   46.3927 H   0  0  0  0  0  0  0  0  0  0  0  0
   30.7074   28.9730   46.6869 H   0  0  0  0  0  0  0  0  0  0  0  0
   30.7591   26.2680   48.5156 H   0  0  0  0  0  0  0  0  0  0  0  0
   30.2274   26.2504   50.8324 H   0  0  0  0  0  0  0  0  0  0  0  0
   28.2005   26.6406   52.1764 H   0  0  0  0  0  0  0  0  0  0  0  0
   26.4610   28.2109   51.3742 H   0  0  0  0  0  0  0  0  0  0  0  0
  2  1  2  0
  3  2  1  0
  4  3  2  0
  4  5  1  0
  5  6  2  0
  6  1  1  0
  7  8  2  0
  8  9  1  0
  8  3  1  0
 10 11  1  0
 10  9  2  0
 12 11  1  0
 13 14  1  0
 13 12  2  0
 14 10  1  0
 15 14  2  0
 15  7  1  0
 16 18  1  0
 16  5  1  0
 17 16  2  0
 19 20  1  0
 19 18  1  0
 20 18  1  0
 20 23  1  0
 21 22  1  0
 22 23  2  0
 22 27  1  0
 23 24  1  0
 24 25  2  0
 26 25  1  0
 27 26  2  0
 28 27  1  0
  1 29  1  0
  2 30  1  0
  7 31  1  0
  9 32  1  0
 11 33  1  0
 12 34  1  0
 15 35  1  0
 18 36  1  1
 19 37  1  0
 19 38  1  0
 20 39  1  6
 24 40  1  0
 25 41  1  0
 26 42  1  0
M  ISO  8  29  14  30  14  31  14  32  14  33   9  34  14  35  14  36  13
M  ISO  6  37  13  38  13  39  13  40  14  41  14  42  14
M  END
>  <minimizedAffinity>  (1) 
-7.85950422

>  <minimizedRMSD>  (1) 
1.02376771

$$$$
