
     RDKit          3D

 45 49  0  0  1  0  0  0  0  0999 V2000
   35.7330   29.4140   50.6780 C   0  0  0  0  0  0  0  0  0  0  0  0
   36.5020   30.1320   49.7820 C   0  0  0  0  0  0  0  0  0  0  0  0
   36.1870   30.0580   48.4230 C   0  0  0  0  0  0  0  0  0  0  0  0
   35.1280   29.2720   48.0330 N   0  0  0  0  0  0  0  0  0  0  0  0
   34.4130   28.5930   48.9520 C   0  0  0  0  0  0  0  0  0  0  0  0
   34.6920   28.6490   50.2490 N   0  0  0  0  0  0  0  0  0  0  0  0
   36.5540   30.5180   46.0730 C   0  0  0  0  0  0  0  0  0  0  0  0
   36.9220   30.7670   47.3980 C   0  0  0  0  0  0  0  0  0  0  0  0
   37.9430   31.6500   47.6440 C   0  0  0  0  0  0  0  0  0  0  0  0
   38.5790   32.2690   46.6000 C   0  0  0  0  0  0  0  0  0  0  0  0
   39.5970   33.1630   46.6240 N   0  0  0  0  0  0  0  0  0  0  0  0
   39.8770   33.4800   45.3600 C   0  0  0  0  0  0  0  0  0  0  0  0
   39.0660   32.8150   44.5220 N   0  0  0  0  0  0  0  0  0  0  0  0
   38.2420   32.0480   45.2720 C   0  0  0  0  0  0  0  0  0  0  0  0
   37.2190   31.1630   45.0280 C   0  0  0  0  0  0  0  0  0  0  0  0
   33.2950   27.7820   48.4790 C   0  0  0  0  0  0  0  0  0  0  0  0
   33.4600   26.6540   47.9470 O   0  0  0  0  0  0  0  0  0  0  0  0
   31.8880   28.3260   48.6370 C   0  0  1  0  0  0  0  0  0  0  0  0
   30.8590   27.7150   47.6690 C   0  0  0  0  0  0  0  0  0  0  0  0
   30.8350   27.4210   49.1160 C   0  0  2  0  0  0  0  0  0  0  0  0
   29.8390   28.0860   49.9610 N   0  0  0  0  0  0  0  0  0  0  0  0
   28.9140   28.8650   49.1640 C   0  0  0  0  0  0  0  0  0  0  0  0
   27.6020   28.9190   49.9210 C   0  0  0  0  0  0  0  0  0  0  0  0
   26.9390   27.7000   49.7640 O   0  0  0  0  0  0  0  0  0  0  0  0
   27.8790   26.6710   49.7290 C   0  0  0  0  0  0  0  0  0  0  0  0
   29.0690   27.0240   50.6120 C   0  0  0  0  0  0  0  0  0  0  0  0
   35.9652   29.4613   51.7522 H   0  0  0  0  0  0  0  0  0  0  0  0
   37.3436   30.7482   50.1312 H   0  0  0  0  0  0  0  0  0  0  0  0
   35.7391   29.8127   45.8528 H   0  0  0  0  0  0  0  0  0  0  0  0
   38.2508   31.8609   48.6788 H   0  0  0  0  0  0  0  0  0  0  0  0
   40.0674   33.5298   47.4637 H   0  0  0  0  0  0  0  0  0  0  0  0
   40.6608   34.1859   45.0480 H   0  0  0  0  0  0  0  0  0  0  0  0
   36.9184   30.9589   43.9898 H   0  0  0  0  0  0  0  0  0  0  0  0
   32.2232   29.3304   48.9350 H   0  0  0  0  0  0  0  0  0  0  0  0
   30.0788   28.3458   47.2180 H   0  0  0  0  0  0  0  0  0  0  0  0
   30.9029   27.1203   46.7447 H   0  0  0  0  0  0  0  0  0  0  0  0
   30.7947   26.4680   49.6638 H   0  0  0  0  0  0  0  0  0  0  0  0
   28.7644   28.3859   48.1852 H   0  0  0  0  0  0  0  0  0  0  0  0
   29.3061   29.8781   48.9913 H   0  0  0  0  0  0  0  0  0  0  0  0
   27.7986   29.0977   50.9884 H   0  0  0  0  0  0  0  0  0  0  0  0
   26.9785   29.7358   49.5285 H   0  0  0  0  0  0  0  0  0  0  0  0
   27.4166   25.7423   50.0946 H   0  0  0  0  0  0  0  0  0  0  0  0
   28.2251   26.5324   48.6941 H   0  0  0  0  0  0  0  0  0  0  0  0
   29.7046   26.1366   50.7485 H   0  0  0  0  0  0  0  0  0  0  0  0
   28.7165   27.3665   51.5961 H   0  0  0  0  0  0  0  0  0  0  0  0
  2  1  2  0
  3  2  1  0
  4  3  2  0
  4  5  1  0
  5  6  2  0
  6  1  1  0
  7  8  2  0
  8  9  1  0
  8  3  1  0
 10 11  1  0
 10  9  2  0
 12 11  1  0
 13 14  1  0
 13 12  2  0
 14 10  1  0
 15 14  2  0
 15  7  1  0
 16 18  1  0
 16  5  1  0
 17 16  2  0
 18 20  1  0
 19 18  1  0
 19 20  1  0
 20 21  1  0
 21 26  1  0
 22 23  1  0
 22 21  1  0
 24 23  1  0
 25 24  1  0
 25 26  1  0
  1 27  1  0
  2 28  1  0
  7 29  1  0
  9 30  1  0
 11 31  1  0
 12 32  1  0
 15 33  1  0
 18 34  1  1
 19 35  1  0
 19 36  1  0
 20 37  1  6
 22 38  1  0
 22 39  1  0
 23 40  1  0
 23 41  1  0
 25 42  1  0
 25 43  1  0
 26 44  1  0
 26 45  1  0
M  ISO  8  27  14  28  14  29  14  30  14  31   9  32  14  33  14  34  13
M  ISO  8  35  13  36  13  37  13  38  13  39  13  40  13  41  13  42  13
M  ISO  3  43  13  44  13  45  13
M  END
>  <minimizedAffinity>  (1) 
-6.89731693

>  <minimizedRMSD>  (1) 
0.852525234

$$$$
