
     RDKit          3D

 33 36  0  0  1  0  0  0  0  0999 V2000
   35.8420   29.5970   50.6690 C   0  0  0  0  0  0  0  0  0  0  0  0
   36.5920   30.3260   49.7670 C   0  0  0  0  0  0  0  0  0  0  0  0
   36.3650   30.1320   48.3910 C   0  0  0  0  0  0  0  0  0  0  0  0
   35.4050   29.2240   48.0030 N   0  0  0  0  0  0  0  0  0  0  0  0
   34.7070   28.5430   48.9370 C   0  0  0  0  0  0  0  0  0  0  0  0
   34.9050   28.7110   50.2400 N   0  0  0  0  0  0  0  0  0  0  0  0
   36.7080   30.6040   46.0490 C   0  0  0  0  0  0  0  0  0  0  0  0
   37.0920   30.8470   47.3680 C   0  0  0  0  0  0  0  0  0  0  0  0
   38.1090   31.7330   47.6050 C   0  0  0  0  0  0  0  0  0  0  0  0
   38.7280   32.3600   46.5530 C   0  0  0  0  0  0  0  0  0  0  0  0
   39.7370   33.2560   46.5550 N   0  0  0  0  0  0  0  0  0  0  0  0
   39.9930   33.5780   45.2780 C   0  0  0  0  0  0  0  0  0  0  0  0
   39.1720   32.9110   44.4580 N   0  0  0  0  0  0  0  0  0  0  0  0
   38.3720   32.1440   45.2370 C   0  0  0  0  0  0  0  0  0  0  0  0
   37.3430   31.2470   44.9940 C   0  0  0  0  0  0  0  0  0  0  0  0
   33.6980   27.6000   48.4640 C   0  0  0  0  0  0  0  0  0  0  0  0
   33.9930   26.5700   47.8050 O   0  0  0  0  0  0  0  0  0  0  0  0
   32.2410   27.8830   48.7800 C   0  0  1  0  0  0  0  0  0  0  0  0
   31.3400   28.0380   47.5440 C   0  0  0  0  0  0  0  0  0  0  0  0
   31.2390   26.8650   48.4340 C   0  0  2  0  0  0  0  0  0  0  0  0
   30.0630   26.8500   49.2190 O   0  0  0  0  0  0  0  0  0  0  0  0
   36.0051   29.7352   51.7480 H   0  0  0  0  0  0  0  0  0  0  0  0
   37.3501   31.0425   50.1160 H   0  0  0  0  0  0  0  0  0  0  0  0
   35.8929   29.8950   45.8420 H   0  0  0  0  0  0  0  0  0  0  0  0
   38.4290   31.9416   48.6365 H   0  0  0  0  0  0  0  0  0  0  0  0
   40.2220   33.6253   47.3852 H   0  0  0  0  0  0  0  0  0  0  0  0
   40.7668   34.2884   44.9517 H   0  0  0  0  0  0  0  0  0  0  0  0
   37.0277   31.0434   43.9600 H   0  0  0  0  0  0  0  0  0  0  0  0
   32.4663   28.4529   49.6935 H   0  0  0  0  0  0  0  0  0  0  0  0
   31.7618   27.9327   46.5336 H   0  0  0  0  0  0  0  0  0  0  0  0
   30.6449   28.8027   47.1672 H   0  0  0  0  0  0  0  0  0  0  0  0
   31.2991   25.7754   48.2956 H   0  0  0  0  0  0  0  0  0  0  0  0
   30.3067   26.8531   50.1785 H   0  0  0  0  0  0  0  0  0  0  0  0
  2  1  2  0
  3  2  1  0
  4  3  2  0
  4  5  1  0
  5  6  2  0
  6  1  1  0
  7  8  2  0
  8  9  1  0
  8  3  1  0
 10 11  1  0
 10  9  2  0
 12 11  1  0
 13 14  1  0
 13 12  2  0
 14 10  1  0
 15 14  2  0
 15  7  1  0
 16 18  1  0
 16  5  1  0
 17 16  2  0
 19 20  1  0
 19 18  1  0
 20 18  1  0
 20 21  1  0
  1 22  1  0
  2 23  1  0
  7 24  1  0
  9 25  1  0
 11 26  1  0
 12 27  1  0
 15 28  1  0
 18 29  1  1
 19 30  1  0
 19 31  1  0
 20 32  1  6
 21 33  1  0
M  ISO  8  22  14  23  14  24  14  25  14  26   9  27  14  28  14  29  13
M  ISO  4  30  13  31  13  32  13  33   3
M  END
>  <minimizedAffinity>  (1) 
-6.01897192

>  <minimizedRMSD>  (1) 
0.0438985452

$$$$
