
     RDKit          3D

 35 38  0  0  1  0  0  0  0  0999 V2000
   35.8480   29.6590   50.6210 C   0  0  0  0  0  0  0  0  0  0  0  0
   36.5940   30.3830   49.7190 C   0  0  0  0  0  0  0  0  0  0  0  0
   36.3870   30.1760   48.3530 C   0  0  0  0  0  0  0  0  0  0  0  0
   35.4460   29.2570   47.9610 N   0  0  0  0  0  0  0  0  0  0  0  0
   34.7420   28.5750   48.8900 C   0  0  0  0  0  0  0  0  0  0  0  0
   34.9220   28.7550   50.1930 N   0  0  0  0  0  0  0  0  0  0  0  0
   36.7460   30.6350   46.0030 C   0  0  0  0  0  0  0  0  0  0  0  0
   37.1180   30.8880   47.3220 C   0  0  0  0  0  0  0  0  0  0  0  0
   38.1340   31.7800   47.5730 C   0  0  0  0  0  0  0  0  0  0  0  0
   38.7580   32.4020   46.5150 C   0  0  0  0  0  0  0  0  0  0  0  0
   39.7670   33.3020   46.5180 N   0  0  0  0  0  0  0  0  0  0  0  0
   40.0300   33.6140   45.2510 C   0  0  0  0  0  0  0  0  0  0  0  0
   39.2280   32.9470   44.4350 N   0  0  0  0  0  0  0  0  0  0  0  0
   38.4150   32.1760   45.1920 C   0  0  0  0  0  0  0  0  0  0  0  0
   37.3890   31.2730   44.9450 C   0  0  0  0  0  0  0  0  0  0  0  0
   33.7470   27.6190   48.4150 C   0  0  0  0  0  0  0  0  0  0  0  0
   34.0570   26.6050   47.7360 O   0  0  0  0  0  0  0  0  0  0  0  0
   32.2880   27.8590   48.7490 C   0  0  1  0  0  0  0  0  0  0  0  0
   31.3870   28.0990   47.5220 C   0  0  0  0  0  0  0  0  0  0  0  0
   31.2910   26.8690   48.3430 C   0  0  1  0  0  0  0  0  0  0  0  0
   31.6450   25.5330   47.7840 C   0  0  0  0  0  0  0  0  0  0  0  0
   36.0008   29.8116   51.6996 H   0  0  0  0  0  0  0  0  0  0  0  0
   37.3403   31.1120   50.0676 H   0  0  0  0  0  0  0  0  0  0  0  0
   35.9343   29.9224   45.7949 H   0  0  0  0  0  0  0  0  0  0  0  0
   38.4444   31.9940   48.6064 H   0  0  0  0  0  0  0  0  0  0  0  0
   40.2451   33.6778   47.3493 H   0  0  0  0  0  0  0  0  0  0  0  0
   40.8041   34.3254   44.9274 H   0  0  0  0  0  0  0  0  0  0  0  0
   37.0831   31.0609   43.9099 H   0  0  0  0  0  0  0  0  0  0  0  0
   32.5119   28.3597   49.7025 H   0  0  0  0  0  0  0  0  0  0  0  0
   31.8081   28.0582   46.5066 H   0  0  0  0  0  0  0  0  0  0  0  0
   30.6924   28.8861   47.1933 H   0  0  0  0  0  0  0  0  0  0  0  0
   30.4764   26.3633   48.8822 H   0  0  0  0  0  0  0  0  0  0  0  0
   31.8317   24.8285   48.6080 H   0  0  0  0  0  0  0  0  0  0  0  0
   30.8141   25.1623   47.1658 H   0  0  0  0  0  0  0  0  0  0  0  0
   32.5504   25.6224   47.1658 H   0  0  0  0  0  0  0  0  0  0  0  0
  2  1  2  0
  3  2  1  0
  4  3  2  0
  4  5  1  0
  5  6  2  0
  6  1  1  0
  7  8  2  0
  8  9  1  0
  8  3  1  0
 10 11  1  0
 10  9  2  0
 12 11  1  0
 13 14  1  0
 13 12  2  0
 14 10  1  0
 15 14  2  0
 15  7  1  0
 16 18  1  0
 16  5  1  0
 17 16  2  0
 19 20  1  0
 19 18  1  0
 20 18  1  0
 21 20  1  0
  1 22  1  0
  2 23  1  0
  7 24  1  0
  9 25  1  0
 11 26  1  0
 12 27  1  0
 15 28  1  0
 18 29  1  1
 19 30  1  0
 19 31  1  0
 20 32  1  1
 21 33  1  0
 21 34  1  0
 21 35  1  0
M  ISO  8  22  14  23  14  24  14  25  14  26   9  27  14  28  14  29  13
M  ISO  6  30  13  31  13  32  13  33   8  34   8  35   8
M  END
>  <minimizedAffinity>  (1) 
-5.99101114

>  <minimizedRMSD>  (1) 
0.110844508

$$$$
