
     RDKit          3D

 39 43  0  0  1  0  0  0  0  0999 V2000
   35.6360   29.6490   50.4540 C   0  0  0  0  0  0  0  0  0  0  0  0
   36.4360   30.4000   49.6090 C   0  0  0  0  0  0  0  0  0  0  0  0
   36.3110   30.2040   48.2330 C   0  0  0  0  0  0  0  0  0  0  0  0
   35.4030   29.2780   47.7720 N   0  0  0  0  0  0  0  0  0  0  0  0
   34.6480   28.5730   48.6510 C   0  0  0  0  0  0  0  0  0  0  0  0
   34.7560   28.7480   49.9630 N   0  0  0  0  0  0  0  0  0  0  0  0
   36.7930   30.6850   45.9050 C   0  0  0  0  0  0  0  0  0  0  0  0
   37.0900   30.9300   47.2530 C   0  0  0  0  0  0  0  0  0  0  0  0
   38.0820   31.8250   47.5570 C   0  0  0  0  0  0  0  0  0  0  0  0
   38.7650   32.4610   46.5530 C   0  0  0  0  0  0  0  0  0  0  0  0
   39.7670   33.3660   46.6400 N   0  0  0  0  0  0  0  0  0  0  0  0
   40.1030   33.6920   45.3760 C   0  0  0  0  0  0  0  0  0  0  0  0
   39.3490   33.0230   44.5020 N   0  0  0  0  0  0  0  0  0  0  0  0
   38.5030   32.2470   45.2160 C   0  0  0  0  0  0  0  0  0  0  0  0
   37.5010   31.3430   44.9010 C   0  0  0  0  0  0  0  0  0  0  0  0
   33.6980   27.6160   48.1040 C   0  0  0  0  0  0  0  0  0  0  0  0
   33.9610   26.8400   47.1830 O   0  0  0  0  0  0  0  0  0  0  0  0
   32.3220   27.5620   48.6760 C   0  0  1  0  0  0  0  0  0  0  0  0
   31.1600   27.9120   47.7190 C   0  0  0  0  0  0  0  0  0  0  0  0
   31.3410   26.5590   48.2710 C   0  0  1  0  0  0  0  0  0  0  0  0
   31.5410   25.4920   47.3100 C   0  0  0  0  0  0  0  0  0  0  0  0
   31.1170   25.4920   46.0240 C   0  0  0  0  0  0  0  0  0  0  0  0
   31.3520   24.4860   45.1650 C   0  0  0  0  0  0  0  0  0  0  0  0
   32.1270   23.3760   45.7890 C   0  0  0  0  0  0  0  0  0  0  0  0
   32.4330   23.9250   47.5720 S   0  0  0  0  0  0  0  0  0  0  0  0
   35.7180   29.7879   51.5421 H   0  0  0  0  0  0  0  0  0  0  0  0
   37.1514   31.1320   50.0120 H   0  0  0  0  0  0  0  0  0  0  0  0
   35.9991   29.9716   45.6391 H   0  0  0  0  0  0  0  0  0  0  0  0
   38.3306   32.0334   48.6081 H   0  0  0  0  0  0  0  0  0  0  0  0
   40.1905   33.7341   47.5037 H   0  0  0  0  0  0  0  0  0  0  0  0
   40.8900   34.4103   45.1029 H   0  0  0  0  0  0  0  0  0  0  0  0
   37.2617   31.1425   43.8462 H   0  0  0  0  0  0  0  0  0  0  0  0
   32.7050   27.8863   49.6548 H   0  0  0  0  0  0  0  0  0  0  0  0
   31.3564   28.1091   46.6548 H   0  0  0  0  0  0  0  0  0  0  0  0
   30.3495   28.6554   47.6985 H   0  0  0  0  0  0  0  0  0  0  0  0
   30.7789   25.8471   48.8933 H   0  0  0  0  0  0  0  0  0  0  0  0
   30.5496   26.3625   45.6632 H   0  0  0  0  0  0  0  0  0  0  0  0
   31.0110   24.4819   44.1192 H   0  0  0  0  0  0  0  0  0  0  0  0
   32.4513   22.4384   45.3139 H   0  0  0  0  0  0  0  0  0  0  0  0
  2  1  2  0
  3  2  1  0
  4  3  2  0
  4  5  1  0
  5  6  2  0
  6  1  1  0
  7  8  2  0
  8  9  1  0
  8  3  1  0
 10 11  1  0
 10  9  2  0
 12 11  1  0
 13 14  1  0
 13 12  2  0
 14 10  1  0
 15 14  2  0
 15  7  1  0
 16  5  1  0
 16 18  1  0
 17 16  2  0
 19 20  1  0
 19 18  1  0
 20 18  1  0
 21 25  1  0
 21 20  1  0
 22 21  2  0
 23 24  2  0
 23 22  1  0
 24 25  1  0
  1 26  1  0
  2 27  1  0
  7 28  1  0
  9 29  1  0
 11 30  1  0
 12 31  1  0
 15 32  1  0
 18 33  1  1
 19 34  1  0
 19 35  1  0
 20 36  1  1
 22 37  1  0
 23 38  1  0
 24 39  1  0
M  ISO  8  26  14  27  14  28  14  29  14  30   9  31  14  32  14  33  13
M  ISO  6  34  13  35  13  36  13  37  14  38  14  39  14
M  END
>  <minimizedAffinity>  (1) 
-5.85588503

>  <minimizedRMSD>  (1) 
0.492959857

$$$$
