
     RDKit          3D

 36 38  0  0  1  0  0  0  0  0999 V2000
   35.3870   30.2210   49.9220 C   0  0  2  0  0  0  0  0  0  0  0  0
   36.2990   31.2000   49.2250 C   0  0  0  0  0  0  0  0  0  0  0  0
   37.7480   30.8470   49.3800 C   0  0  2  0  0  0  0  0  0  0  0  0
   38.2010   30.6320   50.7850 C   0  0  0  0  0  0  0  0  0  0  0  0
   37.1650   29.9370   51.6500 C   0  0  0  0  0  0  0  0  0  0  0  0
   36.0950   29.2730   50.8170 C   0  0  0  0  0  0  0  0  0  0  0  0
   34.6250   29.4300   48.9170 C   0  0  0  0  0  0  0  0  0  0  0  0
   34.3490   30.0830   47.7020 C   0  0  0  0  0  0  0  0  0  0  0  0
   33.6100   29.3490   46.7520 C   0  0  0  0  0  0  0  0  0  0  0  0
   33.2030   28.0650   47.0520 N   0  0  0  0  0  0  0  0  0  0  0  0
   33.5010   27.4840   48.2520 C   0  0  0  0  0  0  0  0  0  0  0  0
   34.2060   28.1780   49.1570 N   0  0  0  0  0  0  0  0  0  0  0  0
   38.7550   30.7530   46.8330 F   0  0  0  0  0  0  0  0  0  0  0  0
   38.9970   31.9150   47.5230 C   0  0  0  0  0  0  0  0  0  0  0  0
   38.5050   31.9960   48.8190 C   0  0  0  0  0  0  0  0  0  0  0  0
   38.8000   33.1960   49.4240 C   0  0  0  0  0  0  0  0  0  0  0  0
   39.5080   34.1950   48.7920 C   0  0  0  0  0  0  0  0  0  0  0  0
   39.9640   34.0380   47.5000 C   0  0  0  0  0  0  0  0  0  0  0  0
   39.7060   32.8610   46.8270 C   0  0  0  0  0  0  0  0  0  0  0  0
   34.7193   30.8318   50.5474 H   0  0  0  0  0  0  0  0  0  0  0  0
   36.1326   32.2009   49.6499 H   0  0  0  0  0  0  0  0  0  0  0  0
   36.0615   31.1712   48.1513 H   0  0  0  0  0  0  0  0  0  0  0  0
   37.9180   29.8880   48.8687 H   0  0  0  0  0  0  0  0  0  0  0  0
   39.1118   30.0155   50.7677 H   0  0  0  0  0  0  0  0  0  0  0  0
   38.3804   31.6241   51.2250 H   0  0  0  0  0  0  0  0  0  0  0  0
   37.6664   29.1722   52.2613 H   0  0  0  0  0  0  0  0  0  0  0  0
   36.6835   30.6960   52.2841 H   0  0  0  0  0  0  0  0  0  0  0  0
   35.3593   28.8129   51.4931 H   0  0  0  0  0  0  0  0  0  0  0  0
   36.5900   28.5254   50.1798 H   0  0  0  0  0  0  0  0  0  0  0  0
   34.6909   31.1096   47.5041 H   0  0  0  0  0  0  0  0  0  0  0  0
   33.3597   29.7965   45.7788 H   0  0  0  0  0  0  0  0  0  0  0  0
   33.1667   26.4596   48.4730 H   0  0  0  0  0  0  0  0  0  0  0  0
   38.4563   33.3649   50.4552 H   0  0  0  0  0  0  0  0  0  0  0  0
   39.7130   35.1339   49.3272 H   0  0  0  0  0  0  0  0  0  0  0  0
   40.5289   34.8445   47.0097 H   0  0  0  0  0  0  0  0  0  0  0  0
   40.0481   32.6917   45.7953 H   0  0  0  0  0  0  0  0  0  0  0  0
  1  6  1  0
  2  3  1  0
  2  1  1  0
  3  4  1  0
  4  5  1  0
  6  5  1  0
  7 12  1  0
  7  1  1  0
  8  7  2  0
  9 10  2  0
  9  8  1  0
 10 11  1  0
 11 12  2  0
 13 14  1  0
 14 15  2  0
 15  3  1  0
 15 16  1  0
 17 16  2  0
 18 17  1  0
 19 18  2  0
 19 14  1  0
  1 20  1  1
  2 21  1  0
  2 22  1  0
  3 23  1  6
  4 24  1  0
  4 25  1  0
  5 26  1  0
  5 27  1  0
  6 28  1  0
  6 29  1  0
  8 30  1  0
  9 31  1  0
 11 32  1  0
 16 33  1  0
 17 34  1  0
 18 35  1  0
 19 36  1  0
M  ISO  8  20  13  21  13  22  13  23  13  24  13  25  13  26  13  27  13
M  ISO  8  28  13  29  13  30  14  31  14  32  14  33  14  34  14  35  14
M  ISO  1  36  14
M  END
>  <minimizedAffinity>  (1) 
-7.1631794

>  <minimizedRMSD>  (1) 
0.387164265

$$$$
