
     RDKit          3D

 27 28  0  0  1  0  0  0  0  0999 V2000
   35.5250   30.3120   49.7030 C   0  0  2  0  0  0  0  0  0  0  0  0
   36.5440   31.1080   48.9180 C   0  0  0  0  0  0  0  0  0  0  0  0
   37.9570   30.6710   49.1720 C   0  0  2  0  0  0  0  0  0  0  0  0
   38.3100   30.7010   50.6320 C   0  0  0  0  0  0  0  0  0  0  0  0
   37.2370   30.1410   51.5150 C   0  0  0  0  0  0  0  0  0  0  0  0
   36.1440   29.4340   50.7360 C   0  0  0  0  0  0  0  0  0  0  0  0
   34.7440   29.4350   48.7750 C   0  0  0  0  0  0  0  0  0  0  0  0
   34.2310   30.0510   47.6190 C   0  0  0  0  0  0  0  0  0  0  0  0
   33.4950   29.2570   46.7490 C   0  0  0  0  0  0  0  0  0  0  0  0
   33.3000   27.9240   47.0500 N   0  0  0  0  0  0  0  0  0  0  0  0
   33.8170   27.3690   48.1860 C   0  0  0  0  0  0  0  0  0  0  0  0
   34.5290   28.1240   49.0300 N   0  0  0  0  0  0  0  0  0  0  0  0
   38.8190   31.4740   48.4710 O   0  0  0  0  0  0  0  0  0  0  0  0
   34.8820   31.0476   50.2084 H   0  0  0  0  0  0  0  0  0  0  0  0
   36.4502   32.1679   49.1969 H   0  0  0  0  0  0  0  0  0  0  0  0
   36.3370   30.9423   47.8504 H   0  0  0  0  0  0  0  0  0  0  0  0
   38.0474   29.6283   48.8335 H   0  0  0  0  0  0  0  0  0  0  0  0
   39.2270   30.1121   50.7812 H   0  0  0  0  0  0  0  0  0  0  0  0
   38.4434   31.7563   50.9123 H   0  0  0  0  0  0  0  0  0  0  0  0
   37.6941   29.4219   52.2107 H   0  0  0  0  0  0  0  0  0  0  0  0
   36.7721   30.9843   52.0468 H   0  0  0  0  0  0  0  0  0  0  0  0
   35.3623   29.1098   51.4388 H   0  0  0  0  0  0  0  0  0  0  0  0
   36.6007   28.5774   50.2187 H   0  0  0  0  0  0  0  0  0  0  0  0
   34.4055   31.1173   47.4127 H   0  0  0  0  0  0  0  0  0  0  0  0
   33.0716   29.6862   45.8290 H   0  0  0  0  0  0  0  0  0  0  0  0
   33.6484   26.3045   48.4061 H   0  0  0  0  0  0  0  0  0  0  0  0
   39.3757   31.9926   49.1044 H   0  0  0  0  0  0  0  0  0  0  0  0
  1  6  1  0
  2  3  1  0
  2  1  1  0
  3  4  1  0
  4  5  1  0
  6  5  1  0
  7 12  1  0
  7  1  1  0
  8  7  2  0
  9 10  2  0
  9  8  1  0
 10 11  1  0
 11 12  2  0
 13  3  1  0
  1 14  1  1
  2 15  1  0
  2 16  1  0
  3 17  1  6
  4 18  1  0
  4 19  1  0
  5 20  1  0
  5 21  1  0
  6 22  1  0
  6 23  1  0
  8 24  1  0
  9 25  1  0
 11 26  1  0
 13 27  1  0
M  ISO  8  14  13  15  13  16  13  17  13  18  13  19  13  20  13  21  13
M  ISO  6  22  13  23  13  24  14  25  14  26  14  27   3
M  END
>  <minimizedAffinity>  (1) 
-5.13350773

>  <minimizedRMSD>  (1) 
0.0871420577

$$$$
