
     RDKit          3D

 20 21  0  0  0  0  0  0  0  0999 V2000
   37.1690   30.2630   51.1010 C   0  0  0  0  0  0  0  0  0  0  0  0
   38.1770   30.8770   50.3200 C   0  0  0  0  0  0  0  0  0  0  0  0
   37.9700   30.9630   48.9410 C   0  0  0  0  0  0  0  0  0  0  0  0
   36.8250   30.4590   48.4230 N   0  0  0  0  0  0  0  0  0  0  0  0
   35.8870   29.8820   49.1820 C   0  0  0  0  0  0  0  0  0  0  0  0
   36.0600   29.7870   50.4990 N   0  0  0  0  0  0  0  0  0  0  0  0
   38.9950   31.5830   48.1920 N   0  0  0  0  0  0  0  0  0  0  0  0
   34.6550   29.3440   48.5790 C   0  0  0  0  0  0  0  0  0  0  0  0
   33.8970   28.3900   49.2100 C   0  0  0  0  0  0  0  0  0  0  0  0
   32.7360   27.8420   48.7110 C   0  0  0  0  0  0  0  0  0  0  0  0
   32.3600   28.3140   47.5060 N   0  0  0  0  0  0  0  0  0  0  0  0
   33.0950   29.2520   46.8750 C   0  0  0  0  0  0  0  0  0  0  0  0
   34.2400   29.7970   47.3610 N   0  0  0  0  0  0  0  0  0  0  0  0
   37.2892   30.1747   52.1908 H   0  0  0  0  0  0  0  0  0  0  0  0
   39.0927   31.2732   50.7832 H   0  0  0  0  0  0  0  0  0  0  0  0
   38.9016   31.6769   47.1705 H   0  0  0  0  0  0  0  0  0  0  0  0
   39.8356   31.9411   48.6674 H   0  0  0  0  0  0  0  0  0  0  0  0
   34.2438   28.0349   50.1916 H   0  0  0  0  0  0  0  0  0  0  0  0
   32.1602   27.0781   49.2541 H   0  0  0  0  0  0  0  0  0  0  0  0
   32.7409   29.6016   45.8940 H   0  0  0  0  0  0  0  0  0  0  0  0
  2  1  2  0
  3  2  1  0
  4  3  2  0
  4  5  1  0
  5  6  2  0
  6  1  1  0
  7  3  1  0
  8  5  1  0
  8  9  2  0
 10  9  1  0
 11 10  2  0
 12 13  2  0
 12 11  1  0
 13  8  1  0
  1 14  1  0
  2 15  1  0
  7 16  1  0
  7 17  1  0
  9 18  1  0
 10 19  1  0
 12 20  1  0
M  ISO  5  14  14  15  14  18  14  19  14  20  14
M  END
>  <minimizedAffinity>  (1) 
-4.55150223

>  <minimizedRMSD>  (1) 
1.57384264

$$$$
