
     RDKit          3D

 50 53  0  0  1  0  0  0  0  0999 V2000
   35.3410   30.3260   49.9110 C   0  0  2  0  0  0  0  0  0  0  0  0
   36.2640   31.2530   49.1960 C   0  0  0  0  0  0  0  0  0  0  0  0
   37.7110   30.7520   49.1910 C   0  0  2  0  0  0  0  0  0  0  0  0
   38.1950   30.7170   50.6200 C   0  0  0  0  0  0  0  0  0  0  0  0
   37.2270   29.9860   51.5320 C   0  0  0  0  0  0  0  0  0  0  0  0
   36.1130   29.3300   50.7520 C   0  0  0  0  0  0  0  0  0  0  0  0
   38.5670   31.4910   48.2560 C   0  0  2  0  0  0  0  0  0  0  0  0
   38.8960   32.9090   48.6310 C   0  0  0  0  0  0  0  0  0  0  0  0
   39.5450   33.3400   47.3050 C   0  0  0  0  0  0  0  0  0  0  0  0
   38.7850   32.7500   46.3230 O   0  0  0  0  0  0  0  0  0  0  0  0
   38.0640   31.6930   46.8760 C   0  0  1  0  0  0  0  0  0  0  0  0
   38.1580   30.5760   46.0050 N   0  0  0  0  0  0  0  0  0  0  0  0
   39.3110   30.4570   45.1850 C   0  0  0  0  0  0  0  0  0  0  0  0
   38.9720   29.3910   44.1320 C   0  0  0  0  0  0  0  0  0  0  0  0
   38.1870   29.9600   43.1320 O   0  0  0  0  0  0  0  0  0  0  0  0
   37.3500   30.9100   43.7110 C   0  0  0  0  0  0  0  0  0  0  0  0
   36.9970   30.5550   45.1380 C   0  0  0  0  0  0  0  0  0  0  0  0
   34.4700   29.5560   49.0010 C   0  0  0  0  0  0  0  0  0  0  0  0
   34.3450   30.0680   47.7090 C   0  0  0  0  0  0  0  0  0  0  0  0
   33.5640   29.3850   46.8050 C   0  0  0  0  0  0  0  0  0  0  0  0
   32.9330   28.2230   47.2060 N   0  0  0  0  0  0  0  0  0  0  0  0
   33.0790   27.7560   48.4750 C   0  0  0  0  0  0  0  0  0  0  0  0
   33.8370   28.4250   49.3400 N   0  0  0  0  0  0  0  0  0  0  0  0
   34.7140   30.9745   50.5405 H   0  0  0  0  0  0  0  0  0  0  0  0
   35.9231   31.3569   48.1553 H   0  0  0  0  0  0  0  0  0  0  0  0
   36.2460   32.2168   49.7258 H   0  0  0  0  0  0  0  0  0  0  0  0
   37.7629   29.7275   48.7940 H   0  0  0  0  0  0  0  0  0  0  0  0
   39.1683   30.2055   50.6526 H   0  0  0  0  0  0  0  0  0  0  0  0
   38.2779   31.7547   50.9754 H   0  0  0  0  0  0  0  0  0  0  0  0
   37.7764   29.2123   52.0884 H   0  0  0  0  0  0  0  0  0  0  0  0
   36.7795   30.7210   52.2172 H   0  0  0  0  0  0  0  0  0  0  0  0
   35.4199   28.8506   51.4590 H   0  0  0  0  0  0  0  0  0  0  0  0
   36.5649   28.5923   50.0726 H   0  0  0  0  0  0  0  0  0  0  0  0
   39.4173   30.7952   48.3093 H   0  0  0  0  0  0  0  0  0  0  0  0
   37.9962   33.4971   48.8643 H   0  0  0  0  0  0  0  0  0  0  0  0
   39.5125   33.0377   49.5329 H   0  0  0  0  0  0  0  0  0  0  0  0
   39.5240   34.4351   47.2033 H   0  0  0  0  0  0  0  0  0  0  0  0
   40.6006   33.0361   47.2461 H   0  0  0  0  0  0  0  0  0  0  0  0
   36.9850   31.8857   46.9690 H   0  0  0  0  0  0  0  0  0  0  0  0
   39.5349   31.4177   44.6983 H   0  0  0  0  0  0  0  0  0  0  0  0
   40.1970   30.1757   45.7731 H   0  0  0  0  0  0  0  0  0  0  0  0
   39.9018   29.0019   43.6915 H   0  0  0  0  0  0  0  0  0  0  0  0
   38.4195   28.5676   44.6082 H   0  0  0  0  0  0  0  0  0  0  0  0
   37.8591   31.8850   43.7025 H   0  0  0  0  0  0  0  0  0  0  0  0
   36.4181   30.9445   43.1276 H   0  0  0  0  0  0  0  0  0  0  0  0
   36.5590   29.5461   45.1552 H   0  0  0  0  0  0  0  0  0  0  0  0
   36.2825   31.3049   45.5082 H   0  0  0  0  0  0  0  0  0  0  0  0
   34.8591   30.9965   47.4197 H   0  0  0  0  0  0  0  0  0  0  0  0
   33.4437   29.7589   45.7775 H   0  0  0  0  0  0  0  0  0  0  0  0
   32.5729   26.8297   48.7847 H   0  0  0  0  0  0  0  0  0  0  0  0
  1  6  1  0
  2  1  1  0
  3  2  1  0
  3  4  1  0
  4  5  1  0
  6  5  1  0
  7  8  1  0
  7  3  1  0
  9  8  1  0
 10 11  1  0
 10  9  1  0
 11  7  1  0
 12 17  1  0
 12 11  1  0
 13 12  1  0
 14 13  1  0
 15 16  1  0
 15 14  1  0
 16 17  1  0
 18 23  1  0
 18  1  1  0
 19 18  2  0
 20 21  2  0
 20 19  1  0
 21 22  1  0
 22 23  2  0
  1 24  1  1
  2 25  1  0
  2 26  1  0
  3 27  1  6
  4 28  1  0
  4 29  1  0
  5 30  1  0
  5 31  1  0
  6 32  1  0
  6 33  1  0
  7 34  1  6
  8 35  1  0
  8 36  1  0
  9 37  1  0
  9 38  1  0
 11 39  1  1
 13 40  1  0
 13 41  1  0
 14 42  1  0
 14 43  1  0
 16 44  1  0
 16 45  1  0
 17 46  1  0
 17 47  1  0
 19 48  1  0
 20 49  1  0
 22 50  1  0
M  ISO  8  24  13  25  13  26  13  27  13  28  13  29  13  30  13  31  13
M  ISO  8  32  13  33  13  34  13  35  13  36  13  37  13  38  13  39  13
M  ISO  8  40  13  41  13  42  13  43  13  44  13  45  13  46  13  47  13
M  ISO  3  48  14  49  14  50  14
M  END
>  <minimizedAffinity>  (1) 
-6.91495085

>  <minimizedRMSD>  (1) 
1.10906303

$$$$
