
     RDKit          3D

 47 50  0  0  1  0  0  0  0  0999 V2000
   35.4070   29.8400   48.8700 C   0  0  2  0  0  0  0  0  0  0  0  0
   36.2670   30.8000   48.1300 C   0  0  0  0  0  0  0  0  0  0  0  0
   37.7580   30.4710   48.2290 C   0  0  2  0  0  0  0  0  0  0  0  0
   38.1670   30.5690   49.6780 C   0  0  0  0  0  0  0  0  0  0  0  0
   37.2440   29.7790   50.5870 C   0  0  0  0  0  0  0  0  0  0  0  0
   36.2250   28.9880   49.8170 C   0  0  0  0  0  0  0  0  0  0  0  0
   38.5740   31.2450   47.2880 C   0  0  2  0  0  0  0  0  0  0  0  0
   39.0530   32.5910   47.7700 C   0  0  0  0  0  0  0  0  0  0  0  0
   39.6000   33.1190   46.4330 C   0  0  0  0  0  0  0  0  0  0  0  0
   38.7090   32.6750   45.4770 O   0  0  0  0  0  0  0  0  0  0  0  0
   37.9560   31.6290   46.0000 C   0  0  1  0  0  0  0  0  0  0  0  0
   35.6840   31.1070   44.3620 F   0  0  0  0  0  0  0  0  0  0  0  0
   36.8120   30.3410   44.1960 C   0  0  0  0  0  0  0  0  0  0  0  0
   37.9490   30.5590   44.9740 C   0  0  0  0  0  0  0  0  0  0  0  0
   38.9900   29.7360   44.7090 C   0  0  0  0  0  0  0  0  0  0  0  0
   38.9840   28.7470   43.7610 C   0  0  0  0  0  0  0  0  0  0  0  0
   37.8300   28.5840   43.0260 C   0  0  0  0  0  0  0  0  0  0  0  0
   36.7070   29.3650   43.2090 C   0  0  0  0  0  0  0  0  0  0  0  0
   34.6770   28.9120   47.9740 C   0  0  0  0  0  0  0  0  0  0  0  0
   34.3940   29.3990   46.6970 C   0  0  0  0  0  0  0  0  0  0  0  0
   33.7370   28.5720   45.8130 C   0  0  0  0  0  0  0  0  0  0  0  0
   33.3840   27.3020   46.2190 N   0  0  0  0  0  0  0  0  0  0  0  0
   33.6740   26.8550   47.4740 C   0  0  0  0  0  0  0  0  0  0  0  0
   34.3100   27.6680   48.3120 N   0  0  0  0  0  0  0  0  0  0  0  0
   34.6865   30.4645   49.4185 H   0  0  0  0  0  0  0  0  0  0  0  0
   36.1026   31.8066   48.5420 H   0  0  0  0  0  0  0  0  0  0  0  0
   35.9877   30.7387   47.0678 H   0  0  0  0  0  0  0  0  0  0  0  0
   37.9461   29.4371   47.9039 H   0  0  0  0  0  0  0  0  0  0  0  0
   39.1897   30.1782   49.7850 H   0  0  0  0  0  0  0  0  0  0  0  0
   38.1104   31.6267   49.9748 H   0  0  0  0  0  0  0  0  0  0  0  0
   37.8492   29.0852   51.1889 H   0  0  0  0  0  0  0  0  0  0  0  0
   36.7033   30.4958   51.2225 H   0  0  0  0  0  0  0  0  0  0  0  0
   35.5428   28.5050   50.5321 H   0  0  0  0  0  0  0  0  0  0  0  0
   36.7710   28.2517   49.2089 H   0  0  0  0  0  0  0  0  0  0  0  0
   39.3671   30.4907   47.1785 H   0  0  0  0  0  0  0  0  0  0  0  0
   38.2310   33.2110   48.1572 H   0  0  0  0  0  0  0  0  0  0  0  0
   39.7641   32.5767   48.6091 H   0  0  0  0  0  0  0  0  0  0  0  0
   39.6418   34.2182   46.4404 H   0  0  0  0  0  0  0  0  0  0  0  0
   40.6228   32.7640   46.2383 H   0  0  0  0  0  0  0  0  0  0  0  0
   36.9074   31.8810   46.2169 H   0  0  0  0  0  0  0  0  0  0  0  0
   39.9089   29.8711   45.2983 H   0  0  0  0  0  0  0  0  0  0  0  0
   39.8644   28.1092   43.5935 H   0  0  0  0  0  0  0  0  0  0  0  0
   37.8026   27.7960   42.2590 H   0  0  0  0  0  0  0  0  0  0  0  0
   35.7914   29.2258   42.6154 H   0  0  0  0  0  0  0  0  0  0  0  0
   34.6882   30.4176   46.4040 H   0  0  0  0  0  0  0  0  0  0  0  0
   33.4971   28.9196   44.7973 H   0  0  0  0  0  0  0  0  0  0  0  0
   33.3871   25.8404   47.7874 H   0  0  0  0  0  0  0  0  0  0  0  0
  1  6  1  0
  2  3  1  0
  2  1  1  0
  3  4  1  0
  4  5  1  0
  6  5  1  0
  7  8  1  0
  7  3  1  0
  9  8  1  0
 10 11  1  0
 10  9  1  0
 11  7  1  0
 13 12  1  0
 13 14  2  0
 14 11  1  0
 15 14  1  0
 16 15  2  0
 17 18  2  0
 17 16  1  0
 18 13  1  0
 19 24  1  0
 19  1  1  0
 20 19  2  0
 21 22  2  0
 21 20  1  0
 22 23  1  0
 23 24  2  0
  1 25  1  1
  2 26  1  0
  2 27  1  0
  3 28  1  6
  4 29  1  0
  4 30  1  0
  5 31  1  0
  5 32  1  0
  6 33  1  0
  6 34  1  0
  7 35  1  6
  8 36  1  0
  8 37  1  0
  9 38  1  0
  9 39  1  0
 11 40  1  1
 15 41  1  0
 16 42  1  0
 17 43  1  0
 18 44  1  0
 20 45  1  0
 21 46  1  0
 23 47  1  0
M  ISO  8  25  13  26  13  27  13  28  13  29  13  30  13  31  13  32  13
M  ISO  8  33  13  34  13  35  13  36  13  37  13  38  13  39  13  40  13
M  ISO  7  41  14  42  14  43  14  44  14  45  14  46  14  47  14
M  END
>  <minimizedAffinity>  (1) 
-6.76801825

>  <minimizedRMSD>  (1) 
1.63619435

$$$$
