
     RDKit          3D

 49 52  0  0  1  0  0  0  0  0999 V2000
   35.2390   30.2530   49.6790 C   0  0  2  0  0  0  0  0  0  0  0  0
   36.1420   31.1010   48.8610 C   0  0  0  0  0  0  0  0  0  0  0  0
   37.5840   30.5970   48.8410 C   0  0  2  0  0  0  0  0  0  0  0  0
   38.1180   30.6540   50.2500 C   0  0  0  0  0  0  0  0  0  0  0  0
   37.1880   29.9730   51.2390 C   0  0  0  0  0  0  0  0  0  0  0  0
   36.0280   29.3010   50.5540 C   0  0  0  0  0  0  0  0  0  0  0  0
   38.4040   31.2750   47.8330 C   0  0  2  0  0  0  0  0  0  0  0  0
   38.9820   32.6090   48.2070 C   0  0  0  0  0  0  0  0  0  0  0  0
   39.4780   33.0460   46.8210 C   0  0  0  0  0  0  0  0  0  0  0  0
   38.4930   32.6160   45.9460 O   0  0  0  0  0  0  0  0  0  0  0  0
   37.7620   31.6000   46.5390 C   0  0  1  0  0  0  0  0  0  0  0  0
   37.8320   30.4470   45.6820 N   0  0  0  0  0  0  0  0  0  0  0  0
   39.0950   30.1600   45.1080 C   0  0  0  0  0  0  0  0  0  0  0  0
   38.8760   29.8700   43.6250 C   0  0  0  0  0  0  0  0  0  0  0  0
   37.4300   29.4350   43.6150 C   0  0  0  0  0  0  0  0  0  0  0  0
   36.8240   30.3770   44.6650 C   0  0  0  0  0  0  0  0  0  0  0  0
   34.3180   29.4340   48.8610 C   0  0  0  0  0  0  0  0  0  0  0  0
   34.2690   29.7500   47.5030 C   0  0  0  0  0  0  0  0  0  0  0  0
   33.4450   29.0070   46.6870 C   0  0  0  0  0  0  0  0  0  0  0  0
   32.7010   27.9810   47.2420 N   0  0  0  0  0  0  0  0  0  0  0  0
   32.7740   27.7010   48.5720 C   0  0  0  0  0  0  0  0  0  0  0  0
   33.5750   28.4290   49.3450 N   0  0  0  0  0  0  0  0  0  0  0  0
   34.6539   30.9587   50.2870 H   0  0  0  0  0  0  0  0  0  0  0  0
   35.7637   31.1202   47.8283 H   0  0  0  0  0  0  0  0  0  0  0  0
   36.1514   32.1027   49.3154 H   0  0  0  0  0  0  0  0  0  0  0  0
   37.6223   29.5478   48.5127 H   0  0  0  0  0  0  0  0  0  0  0  0
   39.0966   30.1524   50.2795 H   0  0  0  0  0  0  0  0  0  0  0  0
   38.2043   31.7121   50.5380 H   0  0  0  0  0  0  0  0  0  0  0  0
   37.7573   29.2156   51.7978 H   0  0  0  0  0  0  0  0  0  0  0  0
   36.7842   30.7444   51.9112 H   0  0  0  0  0  0  0  0  0  0  0  0
   35.3563   28.8886   51.3213 H   0  0  0  0  0  0  0  0  0  0  0  0
   36.4353   28.5114   49.9054 H   0  0  0  0  0  0  0  0  0  0  0  0
   39.1563   30.4763   47.7551 H   0  0  0  0  0  0  0  0  0  0  0  0
   38.2189   33.2926   48.6075 H   0  0  0  0  0  0  0  0  0  0  0  0
   39.7435   32.5915   49.0006 H   0  0  0  0  0  0  0  0  0  0  0  0
   39.5881   34.1395   46.7749 H   0  0  0  0  0  0  0  0  0  0  0  0
   40.4646   32.6241   46.5787 H   0  0  0  0  0  0  0  0  0  0  0  0
   36.7147   31.8982   46.6946 H   0  0  0  0  0  0  0  0  0  0  0  0
   39.7651   31.0243   45.2257 H   0  0  0  0  0  0  0  0  0  0  0  0
   39.5566   29.2944   45.6057 H   0  0  0  0  0  0  0  0  0  0  0  0
   39.0291   30.7707   43.0123 H   0  0  0  0  0  0  0  0  0  0  0  0
   39.5710   29.1279   43.2052 H   0  0  0  0  0  0  0  0  0  0  0  0
   36.9712   29.5856   42.6266 H   0  0  0  0  0  0  0  0  0  0  0  0
   37.2800   28.3665   43.8290 H   0  0  0  0  0  0  0  0  0  0  0  0
   36.6309   31.3710   44.2352 H   0  0  0  0  0  0  0  0  0  0  0  0
   35.8562   30.0214   45.0483 H   0  0  0  0  0  0  0  0  0  0  0  0
   34.8739   30.5727   47.0939 H   0  0  0  0  0  0  0  0  0  0  0  0
   33.3794   29.2259   45.6110 H   0  0  0  0  0  0  0  0  0  0  0  0
   32.1779   26.8827   49.0023 H   0  0  0  0  0  0  0  0  0  0  0  0
  1  6  1  0
  2  1  1  0
  3  2  1  0
  3  4  1  0
  4  5  1  0
  6  5  1  0
  7  8  1  0
  7  3  1  0
  9  8  1  0
 10 11  1  0
 10  9  1  0
 11  7  1  0
 12 13  1  0
 12 11  1  0
 14 13  1  0
 15 14  1  0
 15 16  1  0
 16 12  1  0
 17 22  1  0
 17  1  1  0
 18 17  2  0
 19 20  2  0
 19 18  1  0
 20 21  1  0
 21 22  2  0
  1 23  1  1
  2 24  1  0
  2 25  1  0
  3 26  1  6
  4 27  1  0
  4 28  1  0
  5 29  1  0
  5 30  1  0
  6 31  1  0
  6 32  1  0
  7 33  1  6
  8 34  1  0
  8 35  1  0
  9 36  1  0
  9 37  1  0
 11 38  1  1
 13 39  1  0
 13 40  1  0
 14 41  1  0
 14 42  1  0
 15 43  1  0
 15 44  1  0
 16 45  1  0
 16 46  1  0
 18 47  1  0
 19 48  1  0
 21 49  1  0
M  ISO  8  23  13  24  13  25  13  26  13  27  13  28  13  29  13  30  13
M  ISO  8  31  13  32  13  33  13  34  13  35  13  36  13  37  13  38  13
M  ISO  8  39  13  40  13  41  13  42  13  43  13  44  13  45  13  46  13
M  ISO  3  47  14  48  14  49  14
M  END
>  <minimizedAffinity>  (1) 
-6.6969161

>  <minimizedRMSD>  (1) 
0.983776629

$$$$
