
     RDKit          3D

 43 45  0  0  1  0  0  0  0  0999 V2000
   35.2430   30.2960   49.9970 C   0  0  2  0  0  0  0  0  0  0  0  0
   36.1950   31.2610   49.3930 C   0  0  0  0  0  0  0  0  0  0  0  0
   37.6400   30.7640   49.4170 C   0  0  2  0  0  0  0  0  0  0  0  0
   38.0730   30.5880   50.8480 C   0  0  0  0  0  0  0  0  0  0  0  0
   37.0610   29.7900   51.6540 C   0  0  0  0  0  0  0  0  0  0  0  0
   35.9690   29.2240   50.7850 C   0  0  0  0  0  0  0  0  0  0  0  0
   38.5310   31.5930   48.5960 C   0  0  2  0  0  0  0  0  0  0  0  0
   38.7270   33.0180   49.0140 C   0  0  0  0  0  0  0  0  0  0  0  0
   39.4820   33.5000   47.7590 C   0  0  0  0  0  0  0  0  0  0  0  0
   38.8040   32.9120   46.7070 O   0  0  0  0  0  0  0  0  0  0  0  0
   38.1690   31.7630   47.1700 C   0  0  1  0  0  0  0  0  0  0  0  0
   38.7610   30.5940   46.4070 C   0  0  0  0  0  0  0  0  0  0  0  0
   40.0010   30.9510   45.6480 C   0  0  0  0  0  0  0  0  0  0  0  0
   34.4030   29.6070   48.9930 C   0  0  0  0  0  0  0  0  0  0  0  0
   34.3950   30.1770   47.7200 C   0  0  0  0  0  0  0  0  0  0  0  0
   33.6460   29.5680   46.7360 C   0  0  0  0  0  0  0  0  0  0  0  0
   32.9320   28.4200   47.0480 N   0  0  0  0  0  0  0  0  0  0  0  0
   32.9650   27.8950   48.3040 C   0  0  0  0  0  0  0  0  0  0  0  0
   33.6940   28.4960   49.2380 N   0  0  0  0  0  0  0  0  0  0  0  0
   34.6018   30.9026   50.6534 H   0  0  0  0  0  0  0  0  0  0  0  0
   36.1395   32.2062   49.9529 H   0  0  0  0  0  0  0  0  0  0  0  0
   35.9083   31.3924   48.3392 H   0  0  0  0  0  0  0  0  0  0  0  0
   37.7051   29.7764   48.9371 H   0  0  0  0  0  0  0  0  0  0  0  0
   39.0373   30.0590   50.8650 H   0  0  0  0  0  0  0  0  0  0  0  0
   38.1591   31.5860   51.3026 H   0  0  0  0  0  0  0  0  0  0  0  0
   37.5811   28.9609   52.1562 H   0  0  0  0  0  0  0  0  0  0  0  0
   36.5968   30.4688   52.3846 H   0  0  0  0  0  0  0  0  0  0  0  0
   35.2421   28.7033   51.4256 H   0  0  0  0  0  0  0  0  0  0  0  0
   36.4364   28.5369   50.0643 H   0  0  0  0  0  0  0  0  0  0  0  0
   39.4249   30.9709   48.7505 H   0  0  0  0  0  0  0  0  0  0  0  0
   37.7729   33.5467   49.1564 H   0  0  0  0  0  0  0  0  0  0  0  0
   39.2351   33.1760   49.9767 H   0  0  0  0  0  0  0  0  0  0  0  0
   39.4478   34.5967   47.6806 H   0  0  0  0  0  0  0  0  0  0  0  0
   40.5474   33.2269   47.7781 H   0  0  0  0  0  0  0  0  0  0  0  0
   37.0780   31.8233   47.0430 H   0  0  0  0  0  0  0  0  0  0  0  0
   39.0076   29.7974   47.1244 H   0  0  0  0  0  0  0  0  0  0  0  0
   38.0099   30.2704   45.6714 H   0  0  0  0  0  0  0  0  0  0  0  0
   40.8100   31.1839   46.3560 H   0  0  0  0  0  0  0  0  0  0  0  0
   40.3006   30.1026   45.0151 H   0  0  0  0  0  0  0  0  0  0  0  0
   39.8036   31.8288   45.0151 H   0  0  0  0  0  0  0  0  0  0  0  0
   34.9716   31.0892   47.5067 H   0  0  0  0  0  0  0  0  0  0  0  0
   33.6148   29.9858   45.7189 H   0  0  0  0  0  0  0  0  0  0  0  0
   32.3952   26.9847   48.5423 H   0  0  0  0  0  0  0  0  0  0  0  0
  1  6  1  0
  2  3  1  0
  2  1  1  0
  3  4  1  0
  4  5  1  0
  6  5  1  0
  7  8  1  0
  7  3  1  0
  9  8  1  0
 10 11  1  0
 10  9  1  0
 11  7  1  0
 12 11  1  0
 13 12  1  0
 14 19  1  0
 14  1  1  0
 15 14  2  0
 16 17  2  0
 16 15  1  0
 17 18  1  0
 18 19  2  0
  1 20  1  1
  2 21  1  0
  2 22  1  0
  3 23  1  6
  4 24  1  0
  4 25  1  0
  5 26  1  0
  5 27  1  0
  6 28  1  0
  6 29  1  0
  7 30  1  6
  8 31  1  0
  8 32  1  0
  9 33  1  0
  9 34  1  0
 11 35  1  1
 12 36  1  0
 12 37  1  0
 13 38  1  0
 13 39  1  0
 13 40  1  0
 15 41  1  0
 16 42  1  0
 18 43  1  0
M  ISO  8  20  13  21  13  22  13  23  13  24  13  25  13  26  13  27  13
M  ISO  8  28  13  29  13  30  13  31  13  32  13  33  13  34  13  35  13
M  ISO  8  36   8  37   8  38   8  39   8  40   8  41  14  42  14  43  14
M  END
>  <minimizedAffinity>  (1) 
-6.38003826

>  <minimizedRMSD>  (1) 
0.844389439

$$$$
