
     RDKit          3D

 40 42  0  0  1  0  0  0  0  0999 V2000
   35.2040   30.2120   49.7690 C   0  0  2  0  0  0  0  0  0  0  0  0
   36.1580   31.2940   49.4100 C   0  0  0  0  0  0  0  0  0  0  0  0
   37.6170   30.8680   49.5610 C   0  0  2  0  0  0  0  0  0  0  0  0
   37.8640   30.5650   51.0180 C   0  0  0  0  0  0  0  0  0  0  0  0
   36.8500   29.5790   51.5620 C   0  0  0  0  0  0  0  0  0  0  0  0
   35.9010   29.0860   50.5040 C   0  0  0  0  0  0  0  0  0  0  0  0
   38.5510   31.8200   48.9470 C   0  0  2  0  0  0  0  0  0  0  0  0
   38.7590   33.1250   49.6690 C   0  0  0  0  0  0  0  0  0  0  0  0
   39.5630   33.8460   48.5720 C   0  0  0  0  0  0  0  0  0  0  0  0
   38.9490   33.4990   47.3930 O   0  0  0  0  0  0  0  0  0  0  0  0
   38.2470   32.3020   47.5870 C   0  0  1  0  0  0  0  0  0  0  0  0
   38.8680   31.3260   46.5790 C   0  0  0  0  0  0  0  0  0  0  0  0
   38.2380   30.0960   46.6540 F   0  0  0  0  0  0  0  0  0  0  0  0
   38.6090   31.8450   45.3250 F   0  0  0  0  0  0  0  0  0  0  0  0
   40.2200   31.2250   46.7180 F   0  0  0  0  0  0  0  0  0  0  0  0
   34.5400   29.6160   48.5890 C   0  0  0  0  0  0  0  0  0  0  0  0
   34.9440   30.1180   47.3510 C   0  0  0  0  0  0  0  0  0  0  0  0
   34.3760   29.5890   46.2110 C   0  0  0  0  0  0  0  0  0  0  0  0
   33.4310   28.5820   46.3400 N   0  0  0  0  0  0  0  0  0  0  0  0
   33.0660   28.1230   47.5640 C   0  0  0  0  0  0  0  0  0  0  0  0
   33.6200   28.6410   48.6510 N   0  0  0  0  0  0  0  0  0  0  0  0
   34.4502   30.6949   50.4082 H   0  0  0  0  0  0  0  0  0  0  0  0
   35.9739   32.1574   50.0662 H   0  0  0  0  0  0  0  0  0  0  0  0
   35.9930   31.5446   48.3517 H   0  0  0  0  0  0  0  0  0  0  0  0
   37.8139   29.9473   48.9922 H   0  0  0  0  0  0  0  0  0  0  0  0
   38.8718   30.1381   51.1280 H   0  0  0  0  0  0  0  0  0  0  0  0
   37.7708   31.5028   51.5852 H   0  0  0  0  0  0  0  0  0  0  0  0
   37.3874   28.7167   51.9834 H   0  0  0  0  0  0  0  0  0  0  0  0
   36.2559   30.0989   52.3280 H   0  0  0  0  0  0  0  0  0  0  0  0
   35.1385   28.4540   50.9828 H   0  0  0  0  0  0  0  0  0  0  0  0
   36.4918   28.5244   49.7653 H   0  0  0  0  0  0  0  0  0  0  0  0
   39.4205   31.1469   48.9774 H   0  0  0  0  0  0  0  0  0  0  0  0
   37.8099   33.6337   49.8933 H   0  0  0  0  0  0  0  0  0  0  0  0
   39.2378   33.0608   50.6573 H   0  0  0  0  0  0  0  0  0  0  0  0
   39.5277   34.9354   48.7200 H   0  0  0  0  0  0  0  0  0  0  0  0
   40.6252   33.5602   48.5837 H   0  0  0  0  0  0  0  0  0  0  0  0
   37.1592   32.4083   47.4629 H   0  0  0  0  0  0  0  0  0  0  0  0
   35.6976   30.9167   47.2861 H   0  0  0  0  0  0  0  0  0  0  0  0
   34.6673   29.9592   45.2170 H   0  0  0  0  0  0  0  0  0  0  0  0
   32.3141   27.3251   47.6535 H   0  0  0  0  0  0  0  0  0  0  0  0
  1  6  1  0
  2  3  1  0
  2  1  1  0
  3  4  1  0
  4  5  1  0
  6  5  1  0
  7  3  1  0
  7  8  1  0
  9  8  1  0
 10 11  1  0
 10  9  1  0
 11  7  1  0
 12 13  1  0
 12 15  1  0
 12 11  1  0
 14 12  1  0
 16 21  1  0
 16  1  1  0
 17 16  2  0
 18 19  2  0
 18 17  1  0
 19 20  1  0
 20 21  2  0
  1 22  1  1
  2 23  1  0
  2 24  1  0
  3 25  1  6
  4 26  1  0
  4 27  1  0
  5 28  1  0
  5 29  1  0
  6 30  1  0
  6 31  1  0
  7 32  1  6
  8 33  1  0
  8 34  1  0
  9 35  1  0
  9 36  1  0
 11 37  1  6
 17 38  1  0
 18 39  1  0
 20 40  1  0
M  ISO  8  22  13  23  13  24  13  25  13  26  13  27  13  28  13  29  13
M  ISO  8  30  13  31  13  32  13  33  13  34  13  35  13  36  13  37  13
M  ISO  3  38  14  39  14  40  14
M  END
>  <minimizedAffinity>  (1) 
-6.34324455

>  <minimizedRMSD>  (1) 
1.48047352

$$$$
