
     RDKit          3D

 39 41  0  0  1  0  0  0  0  0999 V2000
   35.3350   30.3540   49.9240 C   0  0  2  0  0  0  0  0  0  0  0  0
   36.2630   31.2560   49.1880 C   0  0  0  0  0  0  0  0  0  0  0  0
   37.7070   30.7550   49.1970 C   0  0  2  0  0  0  0  0  0  0  0  0
   38.1760   30.7590   50.6300 C   0  0  0  0  0  0  0  0  0  0  0  0
   37.2380   29.9750   51.5270 C   0  0  0  0  0  0  0  0  0  0  0  0
   36.0960   29.3590   50.7720 C   0  0  0  0  0  0  0  0  0  0  0  0
   38.5640   31.4780   48.2550 C   0  0  2  0  0  0  0  0  0  0  0  0
   38.8760   32.9070   48.5740 C   0  0  0  0  0  0  0  0  0  0  0  0
   39.5230   33.3020   47.2340 C   0  0  0  0  0  0  0  0  0  0  0  0
   38.8140   32.6370   46.2690 O   0  0  0  0  0  0  0  0  0  0  0  0
   38.0760   31.6130   46.8540 C   0  0  1  0  0  0  0  0  0  0  0  0
   38.2600   30.3570   46.1120 N   0  0  0  0  0  0  0  0  0  0  0  0
   34.4570   29.5760   49.0220 C   0  0  0  0  0  0  0  0  0  0  0  0
   34.3610   30.0530   47.7140 C   0  0  0  0  0  0  0  0  0  0  0  0
   33.5720   29.3590   46.8200 C   0  0  0  0  0  0  0  0  0  0  0  0
   32.9100   28.2230   47.2510 N   0  0  0  0  0  0  0  0  0  0  0  0
   33.0250   27.7850   48.5350 C   0  0  0  0  0  0  0  0  0  0  0  0
   33.7910   28.4690   49.3810 N   0  0  0  0  0  0  0  0  0  0  0  0
   34.7213   31.0190   50.5495 H   0  0  0  0  0  0  0  0  0  0  0  0
   36.2330   32.2502   49.6576 H   0  0  0  0  0  0  0  0  0  0  0  0
   35.9306   31.2897   48.1400 H   0  0  0  0  0  0  0  0  0  0  0  0
   37.7677   29.7234   48.8199 H   0  0  0  0  0  0  0  0  0  0  0  0
   39.1776   30.3069   50.6790 H   0  0  0  0  0  0  0  0  0  0  0  0
   38.1974   31.8010   50.9819 H   0  0  0  0  0  0  0  0  0  0  0  0
   37.8087   29.1731   52.0181 H   0  0  0  0  0  0  0  0  0  0  0  0
   36.8126   30.6776   52.2587 H   0  0  0  0  0  0  0  0  0  0  0  0
   35.3991   28.9120   51.4962 H   0  0  0  0  0  0  0  0  0  0  0  0
   36.5225   28.6082   50.0905 H   0  0  0  0  0  0  0  0  0  0  0  0
   39.4263   30.8029   48.3580 H   0  0  0  0  0  0  0  0  0  0  0  0
   37.9690   33.4924   48.7851 H   0  0  0  0  0  0  0  0  0  0  0  0
   39.4919   33.0736   49.4701 H   0  0  0  0  0  0  0  0  0  0  0  0
   39.4534   34.3890   47.0803 H   0  0  0  0  0  0  0  0  0  0  0  0
   40.5909   33.0395   47.2061 H   0  0  0  0  0  0  0  0  0  0  0  0
   37.0001   31.8415   46.8372 H   0  0  0  0  0  0  0  0  0  0  0  0
   38.3740   29.5788   46.7771 H   0  0  0  0  0  0  0  0  0  0  0  0
   37.4353   30.1843   45.5196 H   0  0  0  0  0  0  0  0  0  0  0  0
   34.9009   30.9597   47.4036 H   0  0  0  0  0  0  0  0  0  0  0  0
   33.4707   29.7036   45.7803 H   0  0  0  0  0  0  0  0  0  0  0  0
   32.4937   26.8810   48.8673 H   0  0  0  0  0  0  0  0  0  0  0  0
  1  6  1  0
  2  3  1  0
  2  1  1  0
  3  4  1  0
  4  5  1  0
  6  5  1  0
  7  8  1  0
  7  3  1  0
  9  8  1  0
 10 11  1  0
 10  9  1  0
 11  7  1  0
 12 11  1  0
 13 18  1  0
 13  1  1  0
 14 13  2  0
 15 16  2  0
 15 14  1  0
 16 17  1  0
 17 18  2  0
  1 19  1  1
  2 20  1  0
  2 21  1  0
  3 22  1  6
  4 23  1  0
  4 24  1  0
  5 25  1  0
  5 26  1  0
  6 27  1  0
  6 28  1  0
  7 29  1  6
  8 30  1  0
  8 31  1  0
  9 32  1  0
  9 33  1  0
 11 34  1  1
 12 35  1  0
 12 36  1  0
 14 37  1  0
 15 38  1  0
 17 39  1  0
M  ISO  8  19  13  20  13  21  13  22  13  23  13  24  13  25  13  26  13
M  ISO  8  27  13  28  13  29  13  30  13  31  13  32  13  33  13  34  13
M  ISO  5  35   5  36   5  37  14  38  14  39  14
M  END
>  <minimizedAffinity>  (1) 
-6.24477959

>  <minimizedRMSD>  (1) 
0.554840624

$$$$
