
     RDKit          3D

 39 41  0  0  1  0  0  0  0  0999 V2000
   35.2780   30.3290   49.9790 C   0  0  2  0  0  0  0  0  0  0  0  0
   36.2280   31.2760   49.3390 C   0  0  0  0  0  0  0  0  0  0  0  0
   37.6730   30.7750   49.3510 C   0  0  2  0  0  0  0  0  0  0  0  0
   38.1000   30.6660   50.7960 C   0  0  0  0  0  0  0  0  0  0  0  0
   37.1400   29.8120   51.5970 C   0  0  0  0  0  0  0  0  0  0  0  0
   36.0130   29.2700   50.7730 C   0  0  0  0  0  0  0  0  0  0  0  0
   38.5560   31.5670   48.4880 C   0  0  2  0  0  0  0  0  0  0  0  0
   38.7830   32.9950   48.8820 C   0  0  0  0  0  0  0  0  0  0  0  0
   39.4810   33.4790   47.6040 C   0  0  0  0  0  0  0  0  0  0  0  0
   38.8640   32.8170   46.5680 O   0  0  0  0  0  0  0  0  0  0  0  0
   38.1530   31.7320   47.0690 C   0  0  1  0  0  0  0  0  0  0  0  0
   38.5040   30.5430   46.2110 C   0  0  0  0  0  0  0  0  0  0  0  0
   39.6230   30.5760   45.6810 O   0  0  0  0  0  0  0  0  0  0  0  0
   34.4270   29.6170   48.9980 C   0  0  0  0  0  0  0  0  0  0  0  0
   34.3920   30.1640   47.7140 C   0  0  0  0  0  0  0  0  0  0  0  0
   33.6340   29.5310   46.7530 C   0  0  0  0  0  0  0  0  0  0  0  0
   32.9440   28.3910   47.0940 N   0  0  0  0  0  0  0  0  0  0  0  0
   32.9920   27.8730   48.3600 C   0  0  0  0  0  0  0  0  0  0  0  0
   33.7310   28.5040   49.2690 N   0  0  0  0  0  0  0  0  0  0  0  0
   34.6474   30.9515   50.6308 H   0  0  0  0  0  0  0  0  0  0  0  0
   36.1848   32.2336   49.8786 H   0  0  0  0  0  0  0  0  0  0  0  0
   35.9262   31.3827   48.2866 H   0  0  0  0  0  0  0  0  0  0  0  0
   37.7486   29.7754   48.8981 H   0  0  0  0  0  0  0  0  0  0  0  0
   39.1018   30.2137   50.8392 H   0  0  0  0  0  0  0  0  0  0  0  0
   38.1067   31.6766   51.2304 H   0  0  0  0  0  0  0  0  0  0  0  0
   37.6976   28.9671   52.0274 H   0  0  0  0  0  0  0  0  0  0  0  0
   36.7003   30.4526   52.3757 H   0  0  0  0  0  0  0  0  0  0  0  0
   35.2947   28.7793   51.4463 H   0  0  0  0  0  0  0  0  0  0  0  0
   36.4522   28.5698   50.0471 H   0  0  0  0  0  0  0  0  0  0  0  0
   39.4401   30.9252   48.6163 H   0  0  0  0  0  0  0  0  0  0  0  0
   37.8389   33.5288   49.0655 H   0  0  0  0  0  0  0  0  0  0  0  0
   39.3416   33.1482   49.8171 H   0  0  0  0  0  0  0  0  0  0  0  0
   39.3606   34.5664   47.4898 H   0  0  0  0  0  0  0  0  0  0  0  0
   40.5615   33.2743   47.6297 H   0  0  0  0  0  0  0  0  0  0  0  0
   37.0609   31.8606   47.0404 H   0  0  0  0  0  0  0  0  0  0  0  0
   37.8114   29.7010   46.0652 H   0  0  0  0  0  0  0  0  0  0  0  0
   34.9557   31.0779   47.4753 H   0  0  0  0  0  0  0  0  0  0  0  0
   33.5815   29.9309   45.7296 H   0  0  0  0  0  0  0  0  0  0  0  0
   32.4351   26.9604   48.6188 H   0  0  0  0  0  0  0  0  0  0  0  0
  1  6  1  0
  2  3  1  0
  2  1  1  0
  3  4  1  0
  4  5  1  0
  6  5  1  0
  7  8  1  0
  7  3  1  0
  9  8  1  0
 10 11  1  0
 10  9  1  0
 11  7  1  0
 12 11  1  0
 13 12  2  0
 14 19  1  0
 14  1  1  0
 15 14  2  0
 16 17  2  0
 16 15  1  0
 17 18  1  0
 18 19  2  0
  1 20  1  1
  2 21  1  0
  2 22  1  0
  3 23  1  6
  4 24  1  0
  4 25  1  0
  5 26  1  0
  5 27  1  0
  6 28  1  0
  6 29  1  0
  7 30  1  6
  8 31  1  0
  8 32  1  0
  9 33  1  0
  9 34  1  0
 11 35  1  1
 12 36  1  0
 15 37  1  0
 16 38  1  0
 18 39  1  0
M  ISO  8  20  13  21  13  22  13  23  13  24  13  25  13  26  13  27  13
M  ISO  8  28  13  29  13  30  13  31  13  32  13  33  13  34  13  35  13
M  ISO  4  36   6  37  14  38  14  39  14
M  END
>  <minimizedAffinity>  (1) 
-6.18794537

>  <minimizedRMSD>  (1) 
0.876532674

$$$$
