
     RDKit          3D

 38 40  0  0  1  0  0  0  0  0999 V2000
   35.2810   30.3130   49.9550 C   0  0  2  0  0  0  0  0  0  0  0  0
   36.2340   31.3100   49.3990 C   0  0  0  0  0  0  0  0  0  0  0  0
   37.6840   30.8240   49.4210 C   0  0  2  0  0  0  0  0  0  0  0  0
   38.0990   30.6040   50.8510 C   0  0  0  0  0  0  0  0  0  0  0  0
   37.0880   29.7660   51.6130 C   0  0  0  0  0  0  0  0  0  0  0  0
   36.0090   29.2260   50.7150 C   0  0  0  0  0  0  0  0  0  0  0  0
   38.5730   31.6910   48.6360 C   0  0  2  0  0  0  0  0  0  0  0  0
   38.8020   33.0800   49.1500 C   0  0  0  0  0  0  0  0  0  0  0  0
   39.5450   33.6360   47.9140 C   0  0  0  0  0  0  0  0  0  0  0  0
   38.8880   33.1050   46.8280 O   0  0  0  0  0  0  0  0  0  0  0  0
   38.1880   31.9740   47.2340 C   0  0  1  0  0  0  0  0  0  0  0  0
   38.6840   30.5220   46.2290 S   0  0  0  0  0  0  0  0  0  0  0  0
   34.4710   29.6460   48.9120 C   0  0  0  0  0  0  0  0  0  0  0  0
   34.5570   30.2070   47.6370 C   0  0  0  0  0  0  0  0  0  0  0  0
   33.8410   29.6190   46.6150 C   0  0  0  0  0  0  0  0  0  0  0  0
   33.0660   28.5040   46.8920 N   0  0  0  0  0  0  0  0  0  0  0  0
   33.0060   27.9870   48.1450 C   0  0  0  0  0  0  0  0  0  0  0  0
   33.7040   28.5650   49.1170 N   0  0  0  0  0  0  0  0  0  0  0  0
   34.6190   30.8878   50.6193 H   0  0  0  0  0  0  0  0  0  0  0  0
   36.1639   32.2324   49.9942 H   0  0  0  0  0  0  0  0  0  0  0  0
   35.9585   31.4793   48.3476 H   0  0  0  0  0  0  0  0  0  0  0  0
   37.7696   29.8538   48.9098 H   0  0  0  0  0  0  0  0  0  0  0  0
   39.0702   30.0876   50.8637 H   0  0  0  0  0  0  0  0  0  0  0  0
   38.1649   31.5866   51.3411 H   0  0  0  0  0  0  0  0  0  0  0  0
   37.6114   28.9219   52.0858 H   0  0  0  0  0  0  0  0  0  0  0  0
   36.6111   30.4117   52.3651 H   0  0  0  0  0  0  0  0  0  0  0  0
   35.2800   28.6791   51.3310 H   0  0  0  0  0  0  0  0  0  0  0  0
   36.4910   28.5702   49.9751 H   0  0  0  0  0  0  0  0  0  0  0  0
   39.4541   31.0381   48.7216 H   0  0  0  0  0  0  0  0  0  0  0  0
   37.8605   33.6136   49.3470 H   0  0  0  0  0  0  0  0  0  0  0  0
   39.3292   33.1619   50.1120 H   0  0  0  0  0  0  0  0  0  0  0  0
   39.4946   34.7347   47.8958 H   0  0  0  0  0  0  0  0  0  0  0  0
   40.6116   33.3671   47.9206 H   0  0  0  0  0  0  0  0  0  0  0  0
   37.1081   32.1510   47.1226 H   0  0  0  0  0  0  0  0  0  0  0  0
   39.0363   29.4908   47.0593 H   0  0  0  0  0  0  0  0  0  0  0  0
   35.1795   31.0948   47.4519 H   0  0  0  0  0  0  0  0  0  0  0  0
   33.8846   30.0291   45.5952 H   0  0  0  0  0  0  0  0  0  0  0  0
   32.3879   27.1013   48.3535 H   0  0  0  0  0  0  0  0  0  0  0  0
  1  6  1  0
  2  3  1  0
  2  1  1  0
  3  4  1  0
  4  5  1  0
  6  5  1  0
  7  8  1  0
  7  3  1  0
  9  8  1  0
 10 11  1  0
 10  9  1  0
 11  7  1  0
 12 11  1  0
 13 18  1  0
 13  1  1  0
 14 13  2  0
 15 16  2  0
 15 14  1  0
 16 17  1  0
 17 18  2  0
  1 19  1  1
  2 20  1  0
  2 21  1  0
  3 22  1  6
  4 23  1  0
  4 24  1  0
  5 25  1  0
  5 26  1  0
  6 27  1  0
  6 28  1  0
  7 29  1  6
  8 30  1  0
  8 31  1  0
  9 32  1  0
  9 33  1  0
 11 34  1  1
 12 35  1  0
 14 36  1  0
 15 37  1  0
 17 38  1  0
M  ISO  8  19  13  20  13  21  13  22  13  23  13  24  13  25  13  26  13
M  ISO  8  27  13  28  13  29  13  30  13  31  13  32  13  33  13  34  13
M  ISO  4  35  11  36  14  37  14  38  14
M  END
>  <minimizedAffinity>  (1) 
-5.96890211

>  <minimizedRMSD>  (1) 
0.926287234

$$$$
