
     RDKit          3D

 30 31  0  0  1  0  0  0  0  0999 V2000
   36.8370   29.4960   51.2020 C   0  0  0  0  0  0  0  0  0  0  0  0
   37.6070   30.1460   50.2350 C   0  0  0  0  0  0  0  0  0  0  0  0
   37.0280   30.6200   49.0610 C   0  0  0  0  0  0  0  0  0  0  0  0
   35.6900   30.4060   48.9330 N   0  0  0  0  0  0  0  0  0  0  0  0
   34.9350   29.7810   49.8560 C   0  0  0  0  0  0  0  0  0  0  0  0
   35.5210   29.3260   50.9960 N   0  0  0  0  0  0  0  0  0  0  0  0
   37.7840   31.2800   48.0690 N   0  0  0  0  0  0  0  0  0  0  0  0
   38.0650   30.5440   46.8770 C   0  0  0  0  0  0  0  0  0  0  0  0
   38.8030   31.2870   45.8260 C   0  0  0  0  0  0  0  0  0  0  0  0
   39.0770   32.6260   46.0290 N   0  0  0  0  0  0  0  0  0  0  0  0
   39.1900   33.1570   47.3250 C   0  0  0  0  0  0  0  0  0  0  0  0
   38.2080   32.6330   48.3350 C   0  0  2  0  0  0  0  0  0  0  0  0
   38.8410   32.8240   49.6880 C   0  0  0  0  0  0  0  0  0  0  0  0
   39.5440   34.1780   49.6610 C   0  0  0  0  0  0  0  0  0  0  0  0
   37.3053   29.1259   52.1260 H   0  0  0  0  0  0  0  0  0  0  0  0
   38.6851   30.2853   50.4032 H   0  0  0  0  0  0  0  0  0  0  0  0
   33.8568   29.6400   49.6901 H   0  0  0  0  0  0  0  0  0  0  0  0
   38.6649   29.6649   47.1551 H   0  0  0  0  0  0  0  0  0  0  0  0
   37.0873   30.2936   46.4394 H   0  0  0  0  0  0  0  0  0  0  0  0
   38.2112   31.2140   44.9016 H   0  0  0  0  0  0  0  0  0  0  0  0
   39.7945   30.8109   45.8083 H   0  0  0  0  0  0  0  0  0  0  0  0
   39.9724   32.8158   45.5566 H   0  0  0  0  0  0  0  0  0  0  0  0
   40.2028   32.9361   47.6930 H   0  0  0  0  0  0  0  0  0  0  0  0
   38.9735   34.2311   47.2275 H   0  0  0  0  0  0  0  0  0  0  0  0
   37.2629   33.1935   48.2840 H   0  0  0  0  0  0  0  0  0  0  0  0
   38.0691   32.8141   50.4716 H   0  0  0  0  0  0  0  0  0  0  0  0
   39.5531   32.0148   49.9074 H   0  0  0  0  0  0  0  0  0  0  0  0
   39.7214   34.5197   50.6914 H   0  0  0  0  0  0  0  0  0  0  0  0
   40.5058   34.0814   49.1360 H   0  0  0  0  0  0  0  0  0  0  0  0
   38.9116   34.9091   49.1360 H   0  0  0  0  0  0  0  0  0  0  0  0
  2  1  2  0
  3  2  1  0
  4  3  2  0
  4  5  1  0
  5  6  2  0
  6  1  1  0
  7 12  1  0
  7  3  1  0
  8  7  1  0
  9 10  1  0
  9  8  1  0
 10 11  1  0
 11 12  1  0
 12 13  1  0
 14 13  1  0
  1 15  1  0
  2 16  1  0
  5 17  1  0
  8 18  1  0
  8 19  1  0
  9 20  1  0
  9 21  1  0
 10 22  1  0
 11 23  1  0
 11 24  1  0
 12 25  1  1
 13 26  1  0
 13 27  1  0
 14 28  1  0
 14 29  1  0
 14 30  1  0
M  ISO  8  15  14  16  14  17  14  18  13  19  13  20  13  21  13  22   5
M  ISO  8  23  13  24  13  25  13  26   8  27   8  28   8  29   8  30   8
M  END
>  <minimizedAffinity>  (1) 
-4.95770693

>  <minimizedRMSD>  (1) 
1.27934277

$$$$
