
     RDKit          3D

 25 26  0  0  1  0  0  0  0  0999 V2000
   37.2290   29.9340   50.9740 C   0  0  0  0  0  0  0  0  0  0  0  0
   38.0360   30.4880   49.9780 C   0  0  0  0  0  0  0  0  0  0  0  0
   37.4650   30.7960   48.7420 C   0  0  0  0  0  0  0  0  0  0  0  0
   36.1330   30.5360   48.5730 N   0  0  0  0  0  0  0  0  0  0  0  0
   35.3650   30.0000   49.5460 C   0  0  0  0  0  0  0  0  0  0  0  0
   35.9120   29.6970   50.7510 N   0  0  0  0  0  0  0  0  0  0  0  0
   38.2410   31.3630   47.6900 N   0  0  0  0  0  0  0  0  0  0  0  0
   38.6130   30.4760   46.6180 C   0  0  0  0  0  0  0  0  0  0  0  0
   39.3290   31.1270   45.4950 C   0  0  0  0  0  0  0  0  0  0  0  0
   39.6340   32.4850   45.5920 N   0  0  0  0  0  0  0  0  0  0  0  0
   39.7350   33.0970   46.8480 C   0  0  0  0  0  0  0  0  0  0  0  0
   38.5890   32.7500   47.7690 C   0  0  2  0  0  0  0  0  0  0  0  0
   38.8160   33.3550   49.4420 S   0  0  0  0  0  0  0  0  0  0  0  0
   37.6670   29.6865   51.9522 H   0  0  0  0  0  0  0  0  0  0  0  0
   39.1033   30.6784   50.1642 H   0  0  0  0  0  0  0  0  0  0  0  0
   34.2974   29.8091   49.3624 H   0  0  0  0  0  0  0  0  0  0  0  0
   39.2652   29.6929   47.0320 H   0  0  0  0  0  0  0  0  0  0  0  0
   37.6744   30.0821   46.2011 H   0  0  0  0  0  0  0  0  0  0  0  0
   38.7074   30.9982   44.5967 H   0  0  0  0  0  0  0  0  0  0  0  0
   40.3117   30.6329   45.4827 H   0  0  0  0  0  0  0  0  0  0  0  0
   40.5412   32.6192   45.1231 H   0  0  0  0  0  0  0  0  0  0  0  0
   40.6743   32.7739   47.3205 H   0  0  0  0  0  0  0  0  0  0  0  0
   39.7087   34.1847   46.6864 H   0  0  0  0  0  0  0  0  0  0  0  0
   37.7097   33.2996   47.4021 H   0  0  0  0  0  0  0  0  0  0  0  0
   38.4505   32.3809   50.3334 H   0  0  0  0  0  0  0  0  0  0  0  0
  2  1  2  0
  3  2  1  0
  4  3  2  0
  4  5  1  0
  5  6  2  0
  6  1  1  0
  7 12  1  0
  7  3  1  0
  8  7  1  0
  9 10  1  0
  9  8  1  0
 10 11  1  0
 11 12  1  0
 12 13  1  0
  1 14  1  0
  2 15  1  0
  5 16  1  0
  8 17  1  0
  8 18  1  0
  9 19  1  0
  9 20  1  0
 10 21  1  0
 11 22  1  0
 11 23  1  0
 12 24  1  6
 13 25  1  0
M  ISO  8  14  14  15  14  16  14  17  13  18  13  19  13  20  13  21   5
M  ISO  4  22  13  23  13  24  13  25  11
M  END
>  <minimizedAffinity>  (1) 
-4.41875505

>  <minimizedRMSD>  (1) 
1.32322395

$$$$
