
     RDKit          3D

 45 47  0  0  1  0  0  0  0  0999 V2000
   37.3360   29.2900   50.5900 C   0  0  0  0  0  0  0  0  0  0  0  0
   36.7670   29.1300   49.3290 C   0  0  0  0  0  0  0  0  0  0  0  0
   35.4050   29.1620   49.1210 C   0  0  0  0  0  0  0  0  0  0  0  0
   34.6650   29.3590   50.2400 N   0  0  0  0  0  0  0  0  0  0  0  0
   35.1710   29.5180   51.4760 C   0  0  0  0  0  0  0  0  0  0  0  0
   36.5280   29.4800   51.6320 N   0  0  0  0  0  0  0  0  0  0  0  0
   34.8350   29.0060   47.8530 N   0  0  0  0  0  0  0  0  0  0  0  0
   34.1950   27.7530   47.5840 C   0  0  0  0  0  0  0  0  0  0  0  0
   33.6030   27.6130   46.2240 C   0  0  0  0  0  0  0  0  0  0  0  0
   33.4680   28.7670   45.4580 N   0  0  0  0  0  0  0  0  0  0  0  0
   34.4770   29.7540   45.5330 C   0  0  0  0  0  0  0  0  0  0  0  0
   34.9260   30.1020   46.9210 C   0  0  2  0  0  0  0  0  0  0  0  0
   36.3290   30.6360   46.7670 C   0  0  0  0  0  0  0  0  0  0  0  0
   36.6640   30.6070   45.2930 C   0  0  0  0  0  0  0  0  0  0  0  0
   37.6550   31.6930   45.1260 N   0  0  0  0  0  0  0  0  0  0  0  0
   38.6390   31.2810   44.1390 C   0  0  0  0  0  0  0  0  0  0  0  0
   39.8940   30.7610   44.8160 C   0  0  0  0  0  0  0  0  0  0  0  0
   40.5630   31.9980   45.4130 C   0  0  0  0  0  0  0  0  0  0  0  0
   39.5840   32.6440   46.3360 C   0  0  0  0  0  0  0  0  0  0  0  0
   38.2400   31.9620   46.4040 C   0  0  0  0  0  0  0  0  0  0  0  0
   38.4276   29.2602   50.7226 H   0  0  0  0  0  0  0  0  0  0  0  0
   37.4302   28.9720   48.4658 H   0  0  0  0  0  0  0  0  0  0  0  0
   34.5087   29.6748   52.3401 H   0  0  0  0  0  0  0  0  0  0  0  0
   34.9428   26.9564   47.7115 H   0  0  0  0  0  0  0  0  0  0  0  0
   33.3523   27.6876   48.2879 H   0  0  0  0  0  0  0  0  0  0  0  0
   34.2384   26.9153   45.6588 H   0  0  0  0  0  0  0  0  0  0  0  0
   32.5719   27.2737   46.4019 H   0  0  0  0  0  0  0  0  0  0  0  0
   32.5841   29.2153   45.7385 H   0  0  0  0  0  0  0  0  0  0  0  0
   35.3514   29.3904   44.9733 H   0  0  0  0  0  0  0  0  0  0  0  0
   34.0388   30.6719   45.1141 H   0  0  0  0  0  0  0  0  0  0  0  0
   34.2588   30.8530   47.3692 H   0  0  0  0  0  0  0  0  0  0  0  0
   36.3822   31.6678   47.1445 H   0  0  0  0  0  0  0  0  0  0  0  0
   37.0423   30.0251   47.3397 H   0  0  0  0  0  0  0  0  0  0  0  0
   37.0973   29.6363   45.0102 H   0  0  0  0  0  0  0  0  0  0  0  0
   35.7775   30.7432   44.6561 H   0  0  0  0  0  0  0  0  0  0  0  0
   38.9002   32.1433   43.5080 H   0  0  0  0  0  0  0  0  0  0  0  0
   38.2086   30.4754   43.5260 H   0  0  0  0  0  0  0  0  0  0  0  0
   39.6366   30.0411   45.6069 H   0  0  0  0  0  0  0  0  0  0  0  0
   40.5545   30.2332   44.1123 H   0  0  0  0  0  0  0  0  0  0  0  0
   41.4648   31.7039   45.9699 H   0  0  0  0  0  0  0  0  0  0  0  0
   40.8601   32.6967   44.6170 H   0  0  0  0  0  0  0  0  0  0  0  0
   40.0176   32.6492   47.3469 H   0  0  0  0  0  0  0  0  0  0  0  0
   39.4013   33.6536   45.9394 H   0  0  0  0  0  0  0  0  0  0  0  0
   37.5528   32.6089   46.9690 H   0  0  0  0  0  0  0  0  0  0  0  0
   38.4031   30.9883   46.8890 H   0  0  0  0  0  0  0  0  0  0  0  0
  1  6  2  0
  2  1  1  0
  3  2  2  0
  3  4  1  0
  4  5  2  0
  5  6  1  0
  7  3  1  0
  8  7  1  0
  9  8  1  0
 10 11  1  0
 10  9  1  0
 11 12  1  0
 12  7  1  0
 13 12  1  0
 14 13  1  0
 15 14  1  0
 15 20  1  0
 16 17  1  0
 16 15  1  0
 17 18  1  0
 18 19  1  0
 19 20  1  0
  1 21  1  0
  2 22  1  0
  5 23  1  0
  8 24  1  0
  8 25  1  0
  9 26  1  0
  9 27  1  0
 10 28  1  0
 11 29  1  0
 11 30  1  0
 12 31  1  1
 13 32  1  0
 13 33  1  0
 14 34  1  0
 14 35  1  0
 16 36  1  0
 16 37  1  0
 17 38  1  0
 17 39  1  0
 18 40  1  0
 18 41  1  0
 19 42  1  0
 19 43  1  0
 20 44  1  0
 20 45  1  0
M  ISO  8  21  14  22  14  23  14  24  13  25  13  26  13  27  13  28   5
M  ISO  8  29  13  30  13  31  13  32   8  33   8  34   8  35   8  36  13
M  ISO  8  37  13  38  13  39  13  40  13  41  13  42  13  43  13  44  13
M  ISO  1  45  13
M  END
>  <minimizedAffinity>  (1) 
-4.72880554

>  <minimizedRMSD>  (1) 
5.29931688

$$$$
