
     RDKit          3D

 26 28  0  0  0  0  0  0  0  0999 V2000
   38.0430   33.3190   49.6370 Cl  0  0  0  0  0  0  0  0  0  0  0  0
   38.4620   32.4540   48.1760 C   0  0  0  0  0  0  0  0  0  0  0  0
   38.0400   31.1410   47.9920 C   0  0  0  0  0  0  0  0  0  0  0  0
   38.4180   30.5520   46.8180 C   0  0  0  0  0  0  0  0  0  0  0  0
   39.1630   31.1520   45.8400 C   0  0  0  0  0  0  0  0  0  0  0  0
   39.5560   32.4710   46.0850 C   0  0  0  0  0  0  0  0  0  0  0  0
   40.5130   33.2600   44.8390 Cl  0  0  0  0  0  0  0  0  0  0  0  0
   39.2140   33.1400   47.2480 C   0  0  0  0  0  0  0  0  0  0  0  0
   37.0820   29.3760   51.1930 C   0  0  0  0  0  0  0  0  0  0  0  0
   37.8320   29.9690   50.1660 C   0  0  0  0  0  0  0  0  0  0  0  0
   37.2520   30.5310   49.0450 C   0  0  0  0  0  0  0  0  0  0  0  0
   35.9080   30.4690   49.0050 N   0  0  0  0  0  0  0  0  0  0  0  0
   35.1790   29.9040   49.9810 C   0  0  0  0  0  0  0  0  0  0  0  0
   35.7530   29.3680   51.0540 N   0  0  0  0  0  0  0  0  0  0  0  0
   39.5340   30.4570   44.6000 C   0  0  0  0  0  0  0  0  0  0  0  0
   40.6500   30.8720   43.8540 C   0  0  0  0  0  0  0  0  0  0  0  0
   40.6530   29.6840   42.4340 S   0  0  0  0  0  0  0  0  0  0  0  0
   39.1100   28.8260   43.1290 C   0  0  0  0  0  0  0  0  0  0  0  0
   38.8930   29.4170   44.0760 N   0  0  0  0  0  0  0  0  0  0  0  0
   38.0980   29.5137   46.6460 H   0  0  0  0  0  0  0  0  0  0  0  0
   39.5305   34.1787   47.4240 H   0  0  0  0  0  0  0  0  0  0  0  0
   37.5681   28.9358   52.0762 H   0  0  0  0  0  0  0  0  0  0  0  0
   38.9281   29.9872   50.2572 H   0  0  0  0  0  0  0  0  0  0  0  0
   34.0829   29.8841   49.8909 H   0  0  0  0  0  0  0  0  0  0  0  0
   41.3476   31.6967   44.0617 H   0  0  0  0  0  0  0  0  0  0  0  0
   38.5600   27.9672   42.7168 H   0  0  0  0  0  0  0  0  0  0  0  0
  2  1  1  0
  3  2  2  0
  3 11  1  0
  4  3  1  0
  5  6  1  0
  5  4  2  0
  6  8  2  0
  7  6  1  0
  8  2  1  0
 10  9  2  0
 11 10  1  0
 12 11  2  0
 12 13  1  0
 13 14  2  0
 14  9  1  0
 15  5  1  0
 16 15  2  0
 17 18  1  0
 17 16  1  0
 18 19  2  0
 19 15  1  0
  4 20  1  0
  8 21  1  0
  9 22  1  0
 10 23  1  0
 13 24  1  0
 16 25  1  0
 18 26  1  0
M  ISO  7  20  14  21  14  22  14  23  14  24  14  25  14  26  14
M  END
>  <minimizedAffinity>  (1) 
-6.39052582

>  <minimizedRMSD>  (1) 
0.348241776

$$$$
