
     RDKit          3D

 30 32  0  0  0  0  0  0  0  0999 V2000
   38.6730   32.9300   49.7710 Cl  0  0  0  0  0  0  0  0  0  0  0  0
   38.6110   32.2950   48.1410 C   0  0  0  0  0  0  0  0  0  0  0  0
   37.8440   31.1740   47.8420 C   0  0  0  0  0  0  0  0  0  0  0  0
   37.8460   30.7350   46.5460 C   0  0  0  0  0  0  0  0  0  0  0  0
   38.5750   31.3690   45.5580 C   0  0  0  0  0  0  0  0  0  0  0  0
   39.3310   32.4880   45.8900 C   0  0  0  0  0  0  0  0  0  0  0  0
   40.2240   33.2340   44.5910 Cl  0  0  0  0  0  0  0  0  0  0  0  0
   39.3590   32.9620   47.1770 C   0  0  0  0  0  0  0  0  0  0  0  0
   37.0410   29.3100   51.0390 C   0  0  0  0  0  0  0  0  0  0  0  0
   37.7530   29.8930   49.9820 C   0  0  0  0  0  0  0  0  0  0  0  0
   37.1080   30.5680   48.9390 C   0  0  0  0  0  0  0  0  0  0  0  0
   35.7610   30.6150   49.0240 N   0  0  0  0  0  0  0  0  0  0  0  0
   35.0840   30.0550   50.0360 C   0  0  0  0  0  0  0  0  0  0  0  0
   35.7030   29.4130   51.0300 N   0  0  0  0  0  0  0  0  0  0  0  0
   37.1210   32.4230   43.3550 F   0  0  0  0  0  0  0  0  0  0  0  0
   37.7650   31.2480   43.1480 C   0  0  0  0  0  0  0  0  0  0  0  0
   38.4600   30.7680   44.2390 C   0  0  0  0  0  0  0  0  0  0  0  0
   39.1620   29.5660   44.1460 C   0  0  0  0  0  0  0  0  0  0  0  0
   39.1690   28.8390   42.9510 C   0  0  0  0  0  0  0  0  0  0  0  0
   38.4650   29.3440   41.8730 C   0  0  0  0  0  0  0  0  0  0  0  0
   37.7700   30.5320   41.9670 C   0  0  0  0  0  0  0  0  0  0  0  0
   37.2486   29.8497   46.2824 H   0  0  0  0  0  0  0  0  0  0  0  0
   39.9576   33.8467   47.4396 H   0  0  0  0  0  0  0  0  0  0  0  0
   37.5632   28.7838   51.8516 H   0  0  0  0  0  0  0  0  0  0  0  0
   38.8504   29.8180   49.9717 H   0  0  0  0  0  0  0  0  0  0  0  0
   33.9864   30.1263   50.0482 H   0  0  0  0  0  0  0  0  0  0  0  0
   39.7140   29.1872   45.0188 H   0  0  0  0  0  0  0  0  0  0  0  0
   39.7201   27.8904   42.8708 H   0  0  0  0  0  0  0  0  0  0  0  0
   38.4591   28.7884   40.9236 H   0  0  0  0  0  0  0  0  0  0  0  0
   37.2162   30.9115   41.0956 H   0  0  0  0  0  0  0  0  0  0  0  0
  2  1  1  0
  3  2  2  0
  3 11  1  0
  4  3  1  0
  5  6  1  0
  5  4  2  0
  6  8  2  0
  7  6  1  0
  8  2  1  0
 10  9  2  0
 11 12  2  0
 11 10  1  0
 12 13  1  0
 13 14  2  0
 14  9  1  0
 16 15  1  0
 16 17  2  0
 17  5  1  0
 18 17  1  0
 19 18  2  0
 20 21  2  0
 20 19  1  0
 21 16  1  0
  4 22  1  0
  8 23  1  0
  9 24  1  0
 10 25  1  0
 13 26  1  0
 18 27  1  0
 19 28  1  0
 20 29  1  0
 21 30  1  0
M  ISO  8  22  14  23  14  24  14  25  14  26  14  27  14  28  14  29  14
M  ISO  1  30  14
M  END
>  <minimizedAffinity>  (1) 
-6.38059425

>  <minimizedRMSD>  (1) 
1.54190004

$$$$
