
     RDKit          3D

 22 23  0  0  0  0  0  0  0  0999 V2000
   37.9880   33.3280   49.4640 Cl  0  0  0  0  0  0  0  0  0  0  0  0
   38.4900   32.3760   48.0810 C   0  0  0  0  0  0  0  0  0  0  0  0
   38.0720   31.0760   47.9470 C   0  0  0  0  0  0  0  0  0  0  0  0
   38.5030   30.3850   46.8370 C   0  0  0  0  0  0  0  0  0  0  0  0
   39.3200   30.9530   45.8880 C   0  0  0  0  0  0  0  0  0  0  0  0
   39.7180   32.2740   46.0680 C   0  0  0  0  0  0  0  0  0  0  0  0
   40.7570   32.9620   44.8400 Cl  0  0  0  0  0  0  0  0  0  0  0  0
   39.3080   33.0060   47.1690 C   0  0  0  0  0  0  0  0  0  0  0  0
   36.8790   29.4250   51.1420 C   0  0  0  0  0  0  0  0  0  0  0  0
   37.7050   29.9470   50.1400 C   0  0  0  0  0  0  0  0  0  0  0  0
   37.2040   30.5310   48.9910 C   0  0  0  0  0  0  0  0  0  0  0  0
   35.8420   30.5700   48.8870 N   0  0  0  0  0  0  0  0  0  0  0  0
   35.0520   30.0650   49.8530 C   0  0  0  0  0  0  0  0  0  0  0  0
   35.5540   29.5030   50.9620 N   0  0  0  0  0  0  0  0  0  0  0  0
   39.7550   30.2210   44.7460 N   0  0  0  0  0  0  0  0  0  0  0  0
   38.1823   29.3412   46.7045 H   0  0  0  0  0  0  0  0  0  0  0  0
   39.6232   34.0504   47.3102 H   0  0  0  0  0  0  0  0  0  0  0  0
   37.3037   28.9661   52.0470 H   0  0  0  0  0  0  0  0  0  0  0  0
   38.7956   29.8905   50.2716 H   0  0  0  0  0  0  0  0  0  0  0  0
   33.9602   30.1150   49.7286 H   0  0  0  0  0  0  0  0  0  0  0  0
   39.4577   29.2433   44.6171 H   0  0  0  0  0  0  0  0  0  0  0  0
   40.3668   30.6694   44.0492 H   0  0  0  0  0  0  0  0  0  0  0  0
  2  1  1  0
  3  2  2  0
  3 11  1  0
  4  3  1  0
  5  6  1  0
  5  4  2  0
  6  8  2  0
  7  6  1  0
  8  2  1  0
 10  9  2  0
 11 10  1  0
 12 11  2  0
 12 13  1  0
 13 14  2  0
 14  9  1  0
 15  5  1  0
  4 16  1  0
  8 17  1  0
  9 18  1  0
 10 19  1  0
 13 20  1  0
 15 21  1  0
 15 22  1  0
M  ISO  5  16  14  17  14  18  14  19  14  20  14
M  END
>  <minimizedAffinity>  (1) 
-5.78655243

>  <minimizedRMSD>  (1) 
0.0994873717

$$$$
