
     RDKit          3D

 13 13  0  0  0  0  0  0  0  0999 V2000
   37.2980   30.2230   51.4500 C   0  0  0  0  0  0  0  0  0  0  0  0
   38.1090   30.7580   50.4210 C   0  0  0  0  0  0  0  0  0  0  0  0
   37.7920   30.4060   49.1160 C   0  0  0  0  0  0  0  0  0  0  0  0
   36.7380   29.5790   48.8910 N   0  0  0  0  0  0  0  0  0  0  0  0
   35.9950   29.0940   49.8960 C   0  0  0  0  0  0  0  0  0  0  0  0
   36.2730   29.4130   51.1590 N   0  0  0  0  0  0  0  0  0  0  0  0
   38.6280   30.9610   48.1030 N   0  0  0  0  0  0  0  0  0  0  0  0
   34.9420   28.2530   49.4980 O   0  0  0  0  0  0  0  0  0  0  0  0
   37.5121   30.4753   52.4991 H   0  0  0  0  0  0  0  0  0  0  0  0
   38.9547   31.4245   50.6457 H   0  0  0  0  0  0  0  0  0  0  0  0
   38.4509   30.7424   47.1122 H   0  0  0  0  0  0  0  0  0  0  0  0
   39.4090   31.5805   48.3621 H   0  0  0  0  0  0  0  0  0  0  0  0
   34.3445   27.8522   50.1781 H   0  0  0  0  0  0  0  0  0  0  0  0
  2  1  2  0
  3  2  1  0
  4  3  2  0
  4  5  1  0
  5  6  2  0
  6  1  1  0
  7  3  1  0
  8  5  1  0
  1  9  1  0
  2 10  1  0
  7 11  1  0
  7 12  1  0
  8 13  1  0
M  ISO  3   9  14  10  14  13   3
M  END
>  <minimizedAffinity>  (1) 
-3.79234719

>  <minimizedRMSD>  (1) 
0.0204621684

$$$$
