
     RDKit          3D

 21 22  0  0  0  0  0  0  0  0999 V2000
   37.9790   33.3300   49.4460 Cl  0  0  0  0  0  0  0  0  0  0  0  0
   38.4910   32.3670   48.0740 C   0  0  0  0  0  0  0  0  0  0  0  0
   38.0780   31.0590   47.9440 C   0  0  0  0  0  0  0  0  0  0  0  0
   38.5230   30.3760   46.8420 C   0  0  0  0  0  0  0  0  0  0  0  0
   39.3460   30.9390   45.8870 C   0  0  0  0  0  0  0  0  0  0  0  0
   39.7320   32.2750   46.0730 C   0  0  0  0  0  0  0  0  0  0  0  0
   40.7770   32.9600   44.8440 Cl  0  0  0  0  0  0  0  0  0  0  0  0
   39.3160   33.0140   47.1640 C   0  0  0  0  0  0  0  0  0  0  0  0
   36.8630   29.4300   51.1320 C   0  0  0  0  0  0  0  0  0  0  0  0
   37.7250   29.9400   50.1430 C   0  0  0  0  0  0  0  0  0  0  0  0
   37.2110   30.5240   48.9830 C   0  0  0  0  0  0  0  0  0  0  0  0
   35.8500   30.5680   48.8710 N   0  0  0  0  0  0  0  0  0  0  0  0
   35.0530   30.0700   49.8380 C   0  0  0  0  0  0  0  0  0  0  0  0
   35.5500   29.5150   50.9400 N   0  0  0  0  0  0  0  0  0  0  0  0
   39.7710   30.2130   44.7900 O   0  0  0  0  0  0  0  0  0  0  0  0
   38.2095   29.3296   46.7123 H   0  0  0  0  0  0  0  0  0  0  0  0
   39.6227   34.0610   47.3042 H   0  0  0  0  0  0  0  0  0  0  0  0
   37.2676   28.9702   52.0457 H   0  0  0  0  0  0  0  0  0  0  0  0
   38.8140   29.8780   50.2851 H   0  0  0  0  0  0  0  0  0  0  0  0
   33.9616   30.1242   49.7121 H   0  0  0  0  0  0  0  0  0  0  0  0
   39.4861   29.2714   44.6790 H   0  0  0  0  0  0  0  0  0  0  0  0
  2  1  1  0
  3  2  2  0
  3 11  1  0
  4  3  1  0
  5  6  1  0
  5  4  2  0
  6  8  2  0
  7  6  1  0
  8  2  1  0
 10  9  2  0
 11 10  1  0
 12 11  2  0
 12 13  1  0
 13 14  2  0
 14  9  1  0
 15  5  1  0
  4 16  1  0
  8 17  1  0
  9 18  1  0
 10 19  1  0
 13 20  1  0
 15 21  1  0
M  ISO  6  16  14  17  14  18  14  19  14  20  14  21   3
M  END
>  <minimizedAffinity>  (1) 
-5.72335148

>  <minimizedRMSD>  (1) 
0.118711993

$$$$
