
     RDKit          3D

 26 27  0  0  0  0  0  0  0  0999 V2000
   38.0700   33.2770   49.6010 Cl  0  0  0  0  0  0  0  0  0  0  0  0
   38.4720   32.3820   48.1480 C   0  0  0  0  0  0  0  0  0  0  0  0
   38.0050   31.1050   47.9790 C   0  0  0  0  0  0  0  0  0  0  0  0
   38.3540   30.4520   46.8040 C   0  0  0  0  0  0  0  0  0  0  0  0
   39.1400   31.0580   45.8390 C   0  0  0  0  0  0  0  0  0  0  0  0
   39.5890   32.3530   46.0560 C   0  0  0  0  0  0  0  0  0  0  0  0
   40.5800   33.0570   44.8090 Cl  0  0  0  0  0  0  0  0  0  0  0  0
   39.2620   33.0280   47.2070 C   0  0  0  0  0  0  0  0  0  0  0  0
   36.9450   29.3940   51.1750 C   0  0  0  0  0  0  0  0  0  0  0  0
   37.7530   29.9430   50.1610 C   0  0  0  0  0  0  0  0  0  0  0  0
   37.1840   30.5310   49.0340 C   0  0  0  0  0  0  0  0  0  0  0  0
   35.8180   30.5400   48.9760 N   0  0  0  0  0  0  0  0  0  0  0  0
   35.0580   30.0150   49.9460 C   0  0  0  0  0  0  0  0  0  0  0  0
   35.6160   29.4470   51.0360 N   0  0  0  0  0  0  0  0  0  0  0  0
   39.4150   30.2350   44.6420 C   0  0  0  0  0  0  0  0  0  0  0  0
   38.1580   29.7970   43.9290 C   0  0  0  0  0  0  0  0  0  0  0  0
   37.9962   29.4255   46.6356 H   0  0  0  0  0  0  0  0  0  0  0  0
   39.6173   34.0548   47.3786 H   0  0  0  0  0  0  0  0  0  0  0  0
   37.3979   28.9307   52.0639 H   0  0  0  0  0  0  0  0  0  0  0  0
   38.8479   29.9070   50.2602 H   0  0  0  0  0  0  0  0  0  0  0  0
   33.9624   30.0472   49.8529 H   0  0  0  0  0  0  0  0  0  0  0  0
   40.0274   30.8245   43.9438 H   0  0  0  0  0  0  0  0  0  0  0  0
   39.9373   29.3272   44.9783 H   0  0  0  0  0  0  0  0  0  0  0  0
   37.3904   29.5295   44.6701 H   0  0  0  0  0  0  0  0  0  0  0  0
   37.7885   30.6193   43.2988 H   0  0  0  0  0  0  0  0  0  0  0  0
   38.3795   28.9231   43.2988 H   0  0  0  0  0  0  0  0  0  0  0  0
  2  1  1  0
  3  2  2  0
  3 11  1  0
  4  3  1  0
  5  6  1  0
  5  4  2  0
  6  8  2  0
  7  6  1  0
  8  2  1  0
 10  9  2  0
 11 10  1  0
 12 11  2  0
 12 13  1  0
 13 14  2  0
 14  9  1  0
 15  5  1  0
 16 15  1  0
  4 17  1  0
  8 18  1  0
  9 19  1  0
 10 20  1  0
 13 21  1  0
 15 22  1  0
 15 23  1  0
 16 24  1  0
 16 25  1  0
 16 26  1  0
M  ISO  8  17  14  18  14  19  14  20  14  21  14  22   8  23   8  24   8
M  ISO  2  25   8  26   8
M  END
>  <minimizedAffinity>  (1) 
-5.67933178

>  <minimizedRMSD>  (1) 
0.122656554

$$$$
