
     RDKit          3D

 21 22  0  0  0  0  0  0  0  0999 V2000
   38.2050   33.2430   49.5950 Cl  0  0  0  0  0  0  0  0  0  0  0  0
   38.5100   32.3850   48.1100 C   0  0  0  0  0  0  0  0  0  0  0  0
   37.9900   31.1110   47.9130 C   0  0  0  0  0  0  0  0  0  0  0  0
   38.2710   30.4840   46.7090 C   0  0  0  0  0  0  0  0  0  0  0  0
   39.0330   31.0850   45.7340 C   0  0  0  0  0  0  0  0  0  0  0  0
   39.5330   32.3600   45.9700 C   0  0  0  0  0  0  0  0  0  0  0  0
   40.5000   33.0980   44.7090 Cl  0  0  0  0  0  0  0  0  0  0  0  0
   39.2830   33.0270   47.1530 C   0  0  0  0  0  0  0  0  0  0  0  0
   36.9920   29.3900   51.1330 C   0  0  0  0  0  0  0  0  0  0  0  0
   37.7630   29.9390   50.0990 C   0  0  0  0  0  0  0  0  0  0  0  0
   37.1940   30.5380   48.9890 C   0  0  0  0  0  0  0  0  0  0  0  0
   35.8380   30.5590   48.9660 N   0  0  0  0  0  0  0  0  0  0  0  0
   35.1020   30.0340   49.9530 C   0  0  0  0  0  0  0  0  0  0  0  0
   35.6560   29.4630   51.0140 N   0  0  0  0  0  0  0  0  0  0  0  0
   39.3150   30.1610   44.2270 S   0  0  0  0  0  0  0  0  0  0  0  0
   37.8724   29.4749   46.5277 H   0  0  0  0  0  0  0  0  0  0  0  0
   39.6841   34.0357   47.3312 H   0  0  0  0  0  0  0  0  0  0  0  0
   37.4627   28.9178   52.0079 H   0  0  0  0  0  0  0  0  0  0  0  0
   38.8595   29.8919   50.1726 H   0  0  0  0  0  0  0  0  0  0  0  0
   34.0052   30.0774   49.8820 H   0  0  0  0  0  0  0  0  0  0  0  0
   39.7044   28.8852   44.5396 H   0  0  0  0  0  0  0  0  0  0  0  0
  2  1  1  0
  3  2  2  0
  3 11  1  0
  4  3  1  0
  5  6  1  0
  5  4  2  0
  6  8  2  0
  7  6  1  0
  8  2  1  0
 10  9  2  0
 11 10  1  0
 12 11  2  0
 12 13  1  0
 13 14  2  0
 14  9  1  0
 15  5  1  0
  4 16  1  0
  8 17  1  0
  9 18  1  0
 10 19  1  0
 13 20  1  0
 15 21  1  0
M  ISO  6  16  14  17  14  18  14  19  14  20  14  21  11
M  END
>  <minimizedAffinity>  (1) 
-5.57667112

>  <minimizedRMSD>  (1) 
0.144823551

$$$$
