
     RDKit          3D

 45 48  0  0  0  0  0  0  0  0999 V2000
   38.6540   32.9360   49.7520 Cl  0  0  0  0  0  0  0  0  0  0  0  0
   38.6240   32.2850   48.1290 C   0  0  0  0  0  0  0  0  0  0  0  0
   37.8730   31.1570   47.8300 C   0  0  0  0  0  0  0  0  0  0  0  0
   37.9050   30.7110   46.5360 C   0  0  0  0  0  0  0  0  0  0  0  0
   38.6340   31.3230   45.5480 C   0  0  0  0  0  0  0  0  0  0  0  0
   39.3760   32.4520   45.8830 C   0  0  0  0  0  0  0  0  0  0  0  0
   40.2830   33.1890   44.5870 Cl  0  0  0  0  0  0  0  0  0  0  0  0
   39.3760   32.9370   47.1700 C   0  0  0  0  0  0  0  0  0  0  0  0
   36.8510   32.6130   43.4610 Cl  0  0  0  0  0  0  0  0  0  0  0  0
   37.8110   31.1670   43.1440 C   0  0  0  0  0  0  0  0  0  0  0  0
   38.5620   30.7230   44.2140 C   0  0  0  0  0  0  0  0  0  0  0  0
   39.3600   29.5840   44.0680 C   0  0  0  0  0  0  0  0  0  0  0  0
   39.4020   28.8970   42.8610 C   0  0  0  0  0  0  0  0  0  0  0  0
   38.6410   29.3710   41.8230 C   0  0  0  0  0  0  0  0  0  0  0  0
   37.8480   30.4910   41.9420 C   0  0  0  0  0  0  0  0  0  0  0  0
   37.0230   31.0670   40.9390 N   0  0  0  0  0  0  0  0  0  0  0  0
   35.5550   31.1460   40.9330 C   0  0  0  0  0  0  0  0  0  0  0  0
   35.1580   32.4280   40.2060 C   0  0  0  0  0  0  0  0  0  0  0  0
   36.2080   33.4820   40.4840 C   0  0  0  0  0  0  0  0  0  0  0  0
   37.5380   33.1440   39.8790 C   0  0  0  0  0  0  0  0  0  0  0  0
   37.6950   31.6430   39.7880 C   0  0  0  0  0  0  0  0  0  0  0  0
   37.0020   29.3180   51.0200 C   0  0  0  0  0  0  0  0  0  0  0  0
   37.7640   29.8780   49.9870 C   0  0  0  0  0  0  0  0  0  0  0  0
   37.1200   30.5540   48.9330 C   0  0  0  0  0  0  0  0  0  0  0  0
   35.7500   30.6280   48.9770 N   0  0  0  0  0  0  0  0  0  0  0  0
   35.0700   30.0680   50.0000 C   0  0  0  0  0  0  0  0  0  0  0  0
   35.6790   29.4260   51.0020 N   0  0  0  0  0  0  0  0  0  0  0  0
   37.3174   29.8182   46.2758 H   0  0  0  0  0  0  0  0  0  0  0  0
   39.9645   33.8287   47.4317 H   0  0  0  0  0  0  0  0  0  0  0  0
   39.9609   29.2281   44.9178 H   0  0  0  0  0  0  0  0  0  0  0  0
   40.0270   27.9997   42.7415 H   0  0  0  0  0  0  0  0  0  0  0  0
   38.6648   28.8377   40.8612 H   0  0  0  0  0  0  0  0  0  0  0  0
   35.1358   30.2741   40.4094 H   0  0  0  0  0  0  0  0  0  0  0  0
   35.1671   31.1530   41.9623 H   0  0  0  0  0  0  0  0  0  0  0  0
   34.1795   32.7737   40.5707 H   0  0  0  0  0  0  0  0  0  0  0  0
   35.0879   32.2417   39.1242 H   0  0  0  0  0  0  0  0  0  0  0  0
   35.8645   34.4402   40.0671 H   0  0  0  0  0  0  0  0  0  0  0  0
   36.3425   33.5392   41.5742 H   0  0  0  0  0  0  0  0  0  0  0  0
   37.6013   33.5792   38.8707 H   0  0  0  0  0  0  0  0  0  0  0  0
   38.3387   33.5543   40.5119 H   0  0  0  0  0  0  0  0  0  0  0  0
   37.2358   31.2723   38.8597 H   0  0  0  0  0  0  0  0  0  0  0  0
   38.7587   31.3630   39.7782 H   0  0  0  0  0  0  0  0  0  0  0  0
   37.4996   28.7888   51.8460 H   0  0  0  0  0  0  0  0  0  0  0  0
   38.8604   29.7902   49.9990 H   0  0  0  0  0  0  0  0  0  0  0  0
   33.9726   30.1429   50.0094 H   0  0  0  0  0  0  0  0  0  0  0  0
  2  1  1  0
  3  2  2  0
  3 24  1  0
  4  3  1  0
  5  6  1  0
  5  4  2  0
  6  8  2  0
  7  6  1  0
  8  2  1  0
 10  9  1  0
 10 11  2  0
 11  5  1  0
 12 11  1  0
 13 12  2  0
 14 15  2  0
 14 13  1  0
 15 10  1  0
 16 15  1  0
 17 16  1  0
 18 19  1  0
 18 17  1  0
 20 19  1  0
 21 20  1  0
 21 16  1  0
 23 22  2  0
 24 25  2  0
 24 23  1  0
 25 26  1  0
 26 27  2  0
 27 22  1  0
  4 28  1  0
  8 29  1  0
 12 30  1  0
 13 31  1  0
 14 32  1  0
 17 33  1  0
 17 34  1  0
 18 35  1  0
 18 36  1  0
 19 37  1  0
 19 38  1  0
 20 39  1  0
 20 40  1  0
 21 41  1  0
 21 42  1  0
 22 43  1  0
 23 44  1  0
 26 45  1  0
M  ISO  8  28  14  29  14  30  14  31  14  32  14  33  13  34  13  35  13
M  ISO  8  36  13  37  13  38  13  39  13  40  13  41  13  42  13  43  14
M  ISO  2  44  14  45  14
M  END
>  <minimizedAffinity>  (1) 
-6.5244751

>  <minimizedRMSD>  (1) 
0.41597724

$$$$
