
     RDKit          3D

 41 44  0  0  1  0  0  0  0  0999 V2000
   38.6600   32.9360   49.7540 Cl  0  0  0  0  0  0  0  0  0  0  0  0
   38.6260   32.2690   48.1370 C   0  0  0  0  0  0  0  0  0  0  0  0
   37.8860   31.1510   47.8540 C   0  0  0  0  0  0  0  0  0  0  0  0
   37.9070   30.6840   46.5670 C   0  0  0  0  0  0  0  0  0  0  0  0
   38.6330   31.2900   45.5640 C   0  0  0  0  0  0  0  0  0  0  0  0
   39.3760   32.4250   45.8870 C   0  0  0  0  0  0  0  0  0  0  0  0
   40.2770   33.1550   44.5920 Cl  0  0  0  0  0  0  0  0  0  0  0  0
   39.3770   32.9220   47.1740 C   0  0  0  0  0  0  0  0  0  0  0  0
   36.8650   32.5840   43.4650 Cl  0  0  0  0  0  0  0  0  0  0  0  0
   37.8200   31.1200   43.1640 C   0  0  0  0  0  0  0  0  0  0  0  0
   38.5600   30.6780   44.2330 C   0  0  0  0  0  0  0  0  0  0  0  0
   39.3490   29.5280   44.0960 C   0  0  0  0  0  0  0  0  0  0  0  0
   39.3860   28.8340   42.8900 C   0  0  0  0  0  0  0  0  0  0  0  0
   38.6220   29.3200   41.8450 C   0  0  0  0  0  0  0  0  0  0  0  0
   37.8450   30.4500   41.9720 C   0  0  0  0  0  0  0  0  0  0  0  0
   34.8490   30.1520   41.8650 O   0  0  0  0  0  0  0  0  0  0  0  0
   35.5640   30.9800   41.2050 C   0  0  0  0  0  0  0  0  0  0  0  0
   37.0080   31.0020   40.8670 C   0  0  1  0  0  0  0  0  0  0  0  0
   37.2500   32.4990   40.7130 C   0  0  0  0  0  0  0  0  0  0  0  0
   35.9400   32.9950   40.1230 C   0  0  0  0  0  0  0  0  0  0  0  0
   34.9020   32.1200   40.6660 N   0  0  0  0  0  0  0  0  0  0  0  0
   37.0120   29.3300   51.0580 C   0  0  0  0  0  0  0  0  0  0  0  0
   37.7610   29.8920   50.0140 C   0  0  0  0  0  0  0  0  0  0  0  0
   37.1310   30.5490   48.9650 C   0  0  0  0  0  0  0  0  0  0  0  0
   35.7740   30.6130   49.0110 N   0  0  0  0  0  0  0  0  0  0  0  0
   35.0790   30.0660   50.0230 C   0  0  0  0  0  0  0  0  0  0  0  0
   35.6830   29.4320   51.0360 N   0  0  0  0  0  0  0  0  0  0  0  0
   37.3193   29.7867   46.3230 H   0  0  0  0  0  0  0  0  0  0  0  0
   39.9619   33.8178   47.4298 H   0  0  0  0  0  0  0  0  0  0  0  0
   39.9444   29.1706   44.9491 H   0  0  0  0  0  0  0  0  0  0  0  0
   40.0018   27.9301   42.7723 H   0  0  0  0  0  0  0  0  0  0  0  0
   38.6352   28.7876   40.8825 H   0  0  0  0  0  0  0  0  0  0  0  0
   37.2657   30.3955   39.9863 H   0  0  0  0  0  0  0  0  0  0  0  0
   37.4491   32.9701   41.6869 H   0  0  0  0  0  0  0  0  0  0  0  0
   38.1248   32.7361   40.0897 H   0  0  0  0  0  0  0  0  0  0  0  0
   35.9637   32.9259   39.0254 H   0  0  0  0  0  0  0  0  0  0  0  0
   35.7548   34.0491   40.3773 H   0  0  0  0  0  0  0  0  0  0  0  0
   33.8869   32.2946   40.6599 H   0  0  0  0  0  0  0  0  0  0  0  0
   37.5159   28.8105   51.8864 H   0  0  0  0  0  0  0  0  0  0  0  0
   38.8580   29.8117   50.0261 H   0  0  0  0  0  0  0  0  0  0  0  0
   33.9816   30.1414   50.0190 H   0  0  0  0  0  0  0  0  0  0  0  0
  2  1  1  0
  3  2  2  0
  3 24  1  0
  4  3  1  0
  5  6  1  0
  5  4  2  0
  6  8  2  0
  7  6  1  0
  8  2  1  0
 10  9  1  0
 10 11  2  0
 11  5  1  0
 12 11  1  0
 13 12  2  0
 14 15  2  0
 14 13  1  0
 15 10  1  0
 17 16  2  0
 18 17  1  0
 18 15  1  0
 19 18  1  0
 20 21  1  0
 20 19  1  0
 21 17  1  0
 23 22  2  0
 24 25  2  0
 24 23  1  0
 25 26  1  0
 26 27  2  0
 27 22  1  0
  4 28  1  0
  8 29  1  0
 12 30  1  0
 13 31  1  0
 14 32  1  0
 18 33  1  6
 19 34  1  0
 19 35  1  0
 20 36  1  0
 20 37  1  0
 21 38  1  0
 22 39  1  0
 23 40  1  0
 26 41  1  0
M  ISO  8  28  14  29  14  30  14  31  14  32  14  33  13  34  13  35  13
M  ISO  6  36  13  37  13  38  10  39  14  40  14  41  14
M  END
>  <minimizedAffinity>  (1) 
-6.48464441

>  <minimizedRMSD>  (1) 
0.298100024

$$$$
