
     RDKit          3D

 33 35  0  0  0  0  0  0  0  0999 V2000
   38.6310   32.9730   49.6900 Cl  0  0  0  0  0  0  0  0  0  0  0  0
   38.6000   32.2900   48.0810 C   0  0  0  0  0  0  0  0  0  0  0  0
   37.8650   31.1570   47.8080 C   0  0  0  0  0  0  0  0  0  0  0  0
   37.8980   30.6870   46.5100 C   0  0  0  0  0  0  0  0  0  0  0  0
   38.6150   31.2870   45.5110 C   0  0  0  0  0  0  0  0  0  0  0  0
   39.3510   32.4380   45.8300 C   0  0  0  0  0  0  0  0  0  0  0  0
   40.2510   33.1740   44.5370 Cl  0  0  0  0  0  0  0  0  0  0  0  0
   39.3500   32.9460   47.1110 C   0  0  0  0  0  0  0  0  0  0  0  0
   36.7860   32.5190   43.4380 Cl  0  0  0  0  0  0  0  0  0  0  0  0
   37.7820   31.0960   43.1210 C   0  0  0  0  0  0  0  0  0  0  0  0
   38.5550   30.6770   44.1910 C   0  0  0  0  0  0  0  0  0  0  0  0
   39.3790   29.5570   44.0440 C   0  0  0  0  0  0  0  0  0  0  0  0
   39.4280   28.8680   42.8360 C   0  0  0  0  0  0  0  0  0  0  0  0
   38.6480   29.3140   41.8000 C   0  0  0  0  0  0  0  0  0  0  0  0
   37.8150   30.4290   41.9190 C   0  0  0  0  0  0  0  0  0  0  0  0
   36.9660   30.9400   40.8440 C   0  0  0  0  0  0  0  0  0  0  0  0
   37.0300   29.3280   51.0100 C   0  0  0  0  0  0  0  0  0  0  0  0
   37.7620   29.8920   49.9620 C   0  0  0  0  0  0  0  0  0  0  0  0
   37.1150   30.5580   48.9160 C   0  0  0  0  0  0  0  0  0  0  0  0
   35.7540   30.6260   48.9690 N   0  0  0  0  0  0  0  0  0  0  0  0
   35.0850   30.0660   50.0000 C   0  0  0  0  0  0  0  0  0  0  0  0
   35.7060   29.4320   50.9980 N   0  0  0  0  0  0  0  0  0  0  0  0
   37.3184   29.7843   46.2668 H   0  0  0  0  0  0  0  0  0  0  0  0
   39.9281   33.8481   47.3601 H   0  0  0  0  0  0  0  0  0  0  0  0
   39.9939   29.2176   44.8906 H   0  0  0  0  0  0  0  0  0  0  0  0
   40.0762   27.9876   42.7151 H   0  0  0  0  0  0  0  0  0  0  0  0
   38.6794   28.7748   40.8417 H   0  0  0  0  0  0  0  0  0  0  0  0
   36.0997   31.4614   41.2773 H   0  0  0  0  0  0  0  0  0  0  0  0
   37.5429   31.6411   40.2229 H   0  0  0  0  0  0  0  0  0  0  0  0
   36.6166   30.1020   40.2229 H   0  0  0  0  0  0  0  0  0  0  0  0
   37.5421   28.8062   51.8319 H   0  0  0  0  0  0  0  0  0  0  0  0
   38.8590   29.8114   49.9595 H   0  0  0  0  0  0  0  0  0  0  0  0
   33.9873   30.1347   50.0184 H   0  0  0  0  0  0  0  0  0  0  0  0
  2  1  1  0
  3  2  2  0
  3 19  1  0
  4  3  1  0
  5  6  1  0
  5  4  2  0
  6  8  2  0
  7  6  1  0
  8  2  1  0
 10  9  1  0
 10 11  2  0
 11  5  1  0
 12 11  1  0
 13 12  2  0
 14 15  2  0
 14 13  1  0
 15 10  1  0
 16 15  1  0
 18 17  2  0
 19 20  2  0
 19 18  1  0
 20 21  1  0
 21 22  2  0
 22 17  1  0
  4 23  1  0
  8 24  1  0
 12 25  1  0
 13 26  1  0
 14 27  1  0
 16 28  1  0
 16 29  1  0
 16 30  1  0
 17 31  1  0
 18 32  1  0
 21 33  1  0
M  ISO  8  23  14  24  14  25  14  26  14  27  14  28   8  29   8  30   8
M  ISO  3  31  14  32  14  33  14
M  END
>  <minimizedAffinity>  (1) 
-6.44674397

>  <minimizedRMSD>  (1) 
0.00591350207

$$$$
