
     RDKit          3D

 44 47  0  0  0  0  0  0  0  0999 V2000
   38.6710   32.9620   49.7620 Cl  0  0  0  0  0  0  0  0  0  0  0  0
   38.6380   32.3040   48.1410 C   0  0  0  0  0  0  0  0  0  0  0  0
   37.8940   31.1850   47.8590 C   0  0  0  0  0  0  0  0  0  0  0  0
   37.9070   30.7120   46.5630 C   0  0  0  0  0  0  0  0  0  0  0  0
   38.6260   31.3150   45.5660 C   0  0  0  0  0  0  0  0  0  0  0  0
   39.3720   32.4550   45.8930 C   0  0  0  0  0  0  0  0  0  0  0  0
   40.2790   33.1990   44.5960 Cl  0  0  0  0  0  0  0  0  0  0  0  0
   39.3840   32.9540   47.1730 C   0  0  0  0  0  0  0  0  0  0  0  0
   36.8240   32.5890   43.4900 Cl  0  0  0  0  0  0  0  0  0  0  0  0
   37.8050   31.1530   43.1760 C   0  0  0  0  0  0  0  0  0  0  0  0
   38.5580   30.7210   44.2400 C   0  0  0  0  0  0  0  0  0  0  0  0
   39.3720   29.5850   44.0900 C   0  0  0  0  0  0  0  0  0  0  0  0
   39.4160   28.9070   42.8800 C   0  0  0  0  0  0  0  0  0  0  0  0
   38.6470   29.3750   41.8460 C   0  0  0  0  0  0  0  0  0  0  0  0
   37.8410   30.4880   41.9750 C   0  0  0  0  0  0  0  0  0  0  0  0
   37.0080   31.0520   40.9670 N   0  0  0  0  0  0  0  0  0  0  0  0
   37.4650   32.0740   40.0390 C   0  0  0  0  0  0  0  0  0  0  0  0
   36.4270   33.1610   39.8600 C   0  0  0  0  0  0  0  0  0  0  0  0
   35.2760   32.5650   39.2090 N   0  0  0  0  0  0  0  0  0  0  0  0
   35.2930   31.1170   39.3200 C   0  0  0  0  0  0  0  0  0  0  0  0
   35.6100   30.6720   40.7510 C   0  0  0  0  0  0  0  0  0  0  0  0
   37.0410   29.3660   51.0640 C   0  0  0  0  0  0  0  0  0  0  0  0
   37.7930   29.9330   50.0320 C   0  0  0  0  0  0  0  0  0  0  0  0
   37.1410   30.5770   48.9630 C   0  0  0  0  0  0  0  0  0  0  0  0
   35.7710   30.6110   49.0000 N   0  0  0  0  0  0  0  0  0  0  0  0
   35.0950   30.0460   50.0240 C   0  0  0  0  0  0  0  0  0  0  0  0
   35.6960   29.4380   51.0330 N   0  0  0  0  0  0  0  0  0  0  0  0
   37.3169   29.8157   46.3214 H   0  0  0  0  0  0  0  0  0  0  0  0
   39.9726   33.8491   47.4227 H   0  0  0  0  0  0  0  0  0  0  0  0
   39.9780   29.2312   44.9371 H   0  0  0  0  0  0  0  0  0  0  0  0
   40.0510   28.0177   42.7539 H   0  0  0  0  0  0  0  0  0  0  0  0
   38.6732   28.8461   40.8819 H   0  0  0  0  0  0  0  0  0  0  0  0
   38.3903   32.5234   40.4287 H   0  0  0  0  0  0  0  0  0  0  0  0
   37.6425   31.6004   39.0622 H   0  0  0  0  0  0  0  0  0  0  0  0
   36.1355   33.5664   40.8401 H   0  0  0  0  0  0  0  0  0  0  0  0
   36.8308   33.9847   39.2530 H   0  0  0  0  0  0  0  0  0  0  0  0
   35.2835   32.8245   38.2122 H   0  0  0  0  0  0  0  0  0  0  0  0
   34.3065   30.7240   39.0328 H   0  0  0  0  0  0  0  0  0  0  0  0
   36.0765   30.7270   38.6536 H   0  0  0  0  0  0  0  0  0  0  0  0
   34.9545   31.1859   41.4695 H   0  0  0  0  0  0  0  0  0  0  0  0
   35.4492   29.5931   40.8927 H   0  0  0  0  0  0  0  0  0  0  0  0
   37.5464   28.8615   51.9007 H   0  0  0  0  0  0  0  0  0  0  0  0
   38.8913   29.8765   50.0546 H   0  0  0  0  0  0  0  0  0  0  0  0
   33.9961   30.0937   50.0183 H   0  0  0  0  0  0  0  0  0  0  0  0
  2  1  1  0
  3  2  2  0
  3 24  1  0
  4  3  1  0
  5  6  1  0
  5  4  2  0
  6  8  2  0
  7  6  1  0
  8  2  1  0
 10  9  1  0
 10 11  2  0
 11  5  1  0
 12 11  1  0
 13 12  2  0
 14 15  2  0
 14 13  1  0
 15 10  1  0
 16 15  1  0
 17 16  1  0
 18 17  1  0
 19 20  1  0
 19 18  1  0
 20 21  1  0
 21 16  1  0
 23 22  2  0
 24 25  2  0
 24 23  1  0
 25 26  1  0
 26 27  2  0
 27 22  1  0
  4 28  1  0
  8 29  1  0
 12 30  1  0
 13 31  1  0
 14 32  1  0
 17 33  1  0
 17 34  1  0
 18 35  1  0
 18 36  1  0
 19 37  1  0
 20 38  1  0
 20 39  1  0
 21 40  1  0
 21 41  1  0
 22 42  1  0
 23 43  1  0
 26 44  1  0
M  ISO  8  28  14  29  14  30  14  31  14  32  14  33  13  34  13  35  13
M  ISO  8  36  13  37   5  38  13  39  13  40  13  41  13  42  14  43  14
M  ISO  1  44  14
M  END
>  <minimizedAffinity>  (1) 
-6.43929625

>  <minimizedRMSD>  (1) 
0.272761434

$$$$
