
     RDKit          3D

 30 32  0  0  1  0  0  0  0  0999 V2000
   34.2480   30.2240   47.7760 C   0  0  0  0  0  0  0  0  0  0  0  0
   33.4740   30.4660   46.8650 N   0  0  0  0  0  0  0  0  0  0  0  0
   32.7140   30.7770   45.9620 C   0  0  0  0  0  0  0  0  0  0  0  0
   32.3270   29.5230   45.7180 N   0  0  0  0  0  0  0  0  0  0  0  0
   32.8720   28.5290   46.4860 C   0  0  0  0  0  0  0  0  0  0  0  0
   32.3630   27.2520   46.1080 C   0  0  0  0  0  0  0  0  0  0  0  0
   32.8520   26.1950   46.8190 C   0  0  0  0  0  0  0  0  0  0  0  0
   33.7680   26.2740   47.8390 C   0  0  0  0  0  0  0  0  0  0  0  0
   34.1460   27.5790   48.0660 C   0  0  0  0  0  0  0  0  0  0  0  0
   33.8220   28.8550   47.5070 C   0  0  0  0  0  0  0  0  0  0  0  0
   36.5370   29.4590   50.6230 C   0  0  0  0  0  0  0  0  0  0  0  0
   37.6920   29.9070   49.9900 C   0  0  0  0  0  0  0  0  0  0  0  0
   37.5070   30.3870   48.7080 C   0  0  0  0  0  0  0  0  0  0  0  0
   36.2460   30.3800   48.1960 N   0  0  0  0  0  0  0  0  0  0  0  0
   35.1570   29.9380   48.8430 C   0  0  0  0  0  0  0  0  0  0  0  0
   35.3690   29.5000   50.0310 N   0  0  0  0  0  0  0  0  0  0  0  0
   38.6800   30.8500   48.0180 N   0  0  0  0  0  0  0  0  0  0  0  0
   34.9770   30.9246   47.3427 H   0  0  0  0  0  0  0  0  0  0  0  0
   33.9824   29.8247   46.2396 H   0  0  0  0  0  0  0  0  0  0  0  0
   31.8905   31.4257   46.2952 H   0  0  0  0  0  0  0  0  0  0  0  0
   33.1187   31.3652   45.1252 H   0  0  0  0  0  0  0  0  0  0  0  0
   31.6426   29.3106   44.9781 H   0  0  0  0  0  0  0  0  0  0  0  0
   31.6274   27.1275   45.2996 H   0  0  0  0  0  0  0  0  0  0  0  0
   32.4808   25.1944   46.5524 H   0  0  0  0  0  0  0  0  0  0  0  0
   34.1497   25.4088   48.4009 H   0  0  0  0  0  0  0  0  0  0  0  0
   34.8806   27.6600   48.8808 H   0  0  0  0  0  0  0  0  0  0  0  0
   36.6062   29.0605   51.6459 H   0  0  0  0  0  0  0  0  0  0  0  0
   38.6793   29.8809   50.4744 H   0  0  0  0  0  0  0  0  0  0  0  0
   38.6018   31.2186   47.0594 H   0  0  0  0  0  0  0  0  0  0  0  0
   39.5987   30.8132   48.4822 H   0  0  0  0  0  0  0  0  0  0  0  0
  1 15  1  0
  2  1  1  0
  3  2  1  0
  4  3  1  0
  4  5  1  0
  5 10  2  0
  6  5  1  0
  6  7  2  0
  7  8  1  0
  8  9  2  0
 10  1  1  0
 10  9  1  0
 12 11  2  0
 13 12  1  0
 14 13  2  0
 14 15  1  0
 15 16  2  0
 16 11  1  0
 17 13  1  0
  1 18  1  0
  2 19  1  0
  3 20  1  0
  3 21  1  0
  4 22  1  0
  6 23  1  0
  7 24  1  0
  8 25  1  0
  9 26  1  0
 11 27  1  0
 12 28  1  0
 17 29  1  0
 17 30  1  0
M  ISO  8  18  13  19   5  20  13  21  13  23  14  24  14  25  14  26  14
M  ISO  2  27  14  28  14
M  END
>  <minimizedAffinity>  (1) 
-4.99403048

>  <minimizedRMSD>  (1) 
3.10455632

$$$$
