
     RDKit          3D

 36 38  0  0  0  0  0  0  0  0999 V2000
   38.6230   32.9630   49.7220 Cl  0  0  0  0  0  0  0  0  0  0  0  0
   38.6040   32.3000   48.1080 C   0  0  0  0  0  0  0  0  0  0  0  0
   37.8740   31.1600   47.8180 C   0  0  0  0  0  0  0  0  0  0  0  0
   37.9030   30.6930   46.5330 C   0  0  0  0  0  0  0  0  0  0  0  0
   38.6170   31.3010   45.5360 C   0  0  0  0  0  0  0  0  0  0  0  0
   39.3480   32.4500   45.8500 C   0  0  0  0  0  0  0  0  0  0  0  0
   40.2430   33.1940   44.5510 Cl  0  0  0  0  0  0  0  0  0  0  0  0
   39.3410   32.9510   47.1390 C   0  0  0  0  0  0  0  0  0  0  0  0
   36.7590   32.5230   43.4610 Cl  0  0  0  0  0  0  0  0  0  0  0  0
   37.7810   31.1060   43.1420 C   0  0  0  0  0  0  0  0  0  0  0  0
   38.5580   30.6950   44.2160 C   0  0  0  0  0  0  0  0  0  0  0  0
   39.3940   29.5860   44.0600 C   0  0  0  0  0  0  0  0  0  0  0  0
   39.4480   28.8990   42.8470 C   0  0  0  0  0  0  0  0  0  0  0  0
   38.6630   29.3440   41.8190 C   0  0  0  0  0  0  0  0  0  0  0  0
   37.8300   30.4340   41.9430 C   0  0  0  0  0  0  0  0  0  0  0  0
   36.9280   31.0210   40.9190 C   0  0  0  0  0  0  0  0  0  0  0  0
   37.6390   31.9190   39.9490 C   0  0  0  0  0  0  0  0  0  0  0  0
   37.0160   29.3240   51.0150 C   0  0  0  0  0  0  0  0  0  0  0  0
   37.7660   29.8880   49.9730 C   0  0  0  0  0  0  0  0  0  0  0  0
   37.1270   30.5510   48.9290 C   0  0  0  0  0  0  0  0  0  0  0  0
   35.7570   30.6140   48.9850 N   0  0  0  0  0  0  0  0  0  0  0  0
   35.0740   30.0580   50.0060 C   0  0  0  0  0  0  0  0  0  0  0  0
   35.6860   29.4290   50.9970 N   0  0  0  0  0  0  0  0  0  0  0  0
   37.3267   29.7882   46.2897 H   0  0  0  0  0  0  0  0  0  0  0  0
   39.9147   33.8557   47.3887 H   0  0  0  0  0  0  0  0  0  0  0  0
   40.0163   29.2511   44.9030 H   0  0  0  0  0  0  0  0  0  0  0  0
   40.1031   28.0244   42.7209 H   0  0  0  0  0  0  0  0  0  0  0  0
   38.6983   28.8114   40.8572 H   0  0  0  0  0  0  0  0  0  0  0  0
   36.4578   30.2012   40.3562 H   0  0  0  0  0  0  0  0  0  0  0  0
   36.1868   31.6360   41.4505 H   0  0  0  0  0  0  0  0  0  0  0  0
   38.2287   32.6638   40.5035 H   0  0  0  0  0  0  0  0  0  0  0  0
   38.3088   31.3181   39.3163 H   0  0  0  0  0  0  0  0  0  0  0  0
   36.9005   32.4332   39.3163 H   0  0  0  0  0  0  0  0  0  0  0  0
   37.5199   28.7995   51.8402 H   0  0  0  0  0  0  0  0  0  0  0  0
   38.8629   29.8063   49.9806 H   0  0  0  0  0  0  0  0  0  0  0  0
   33.9763   30.1292   50.0157 H   0  0  0  0  0  0  0  0  0  0  0  0
  2  1  1  0
  3  2  2  0
  3 20  1  0
  4  3  1  0
  5  6  1  0
  5  4  2  0
  6  8  2  0
  7  6  1  0
  8  2  1  0
 10  9  1  0
 10 11  2  0
 11  5  1  0
 12 11  1  0
 13 12  2  0
 14 15  2  0
 14 13  1  0
 15 10  1  0
 16 15  1  0
 17 16  1  0
 19 18  2  0
 20 21  2  0
 20 19  1  0
 21 22  1  0
 22 23  2  0
 23 18  1  0
  4 24  1  0
  8 25  1  0
 12 26  1  0
 13 27  1  0
 14 28  1  0
 16 29  1  0
 16 30  1  0
 17 31  1  0
 17 32  1  0
 17 33  1  0
 18 34  1  0
 19 35  1  0
 22 36  1  0
M  ISO  8  24  14  25  14  26  14  27  14  28  14  29   8  30   8  31   8
M  ISO  5  32   8  33   8  34  14  35  14  36  14
M  END
>  <minimizedAffinity>  (1) 
-6.18625355

>  <minimizedRMSD>  (1) 
0.182344124

$$$$
