
     RDKit          3D

 21 22  0  0  0  0  0  0  0  0999 V2000
   37.2910   30.8620   46.3390 C   0  0  0  0  0  0  0  0  0  0  0  0
   38.5110   31.4900   45.7830 C   0  0  0  0  0  0  0  0  0  0  0  0
   39.7260   30.8000   45.9410 C   0  0  0  0  0  0  0  0  0  0  0  0
   40.8870   31.3830   45.4190 C   0  0  0  0  0  0  0  0  0  0  0  0
   40.7650   32.5900   44.7890 N   0  0  0  0  0  0  0  0  0  0  0  0
   39.5950   33.2220   44.6540 C   0  0  0  0  0  0  0  0  0  0  0  0
   38.4580   32.6790   45.1500 N   0  0  0  0  0  0  0  0  0  0  0  0
   37.2250   30.9800   47.8180 C   0  0  0  0  0  0  0  0  0  0  0  0
   36.7610   29.8490   48.4790 C   0  0  0  0  0  0  0  0  0  0  0  0
   36.6270   29.7630   49.8630 C   0  0  0  0  0  0  0  0  0  0  0  0
   36.9840   30.8700   50.5600 N   0  0  0  0  0  0  0  0  0  0  0  0
   37.4350   31.9710   49.9130 C   0  0  0  0  0  0  0  0  0  0  0  0
   37.5660   32.0560   48.5560 N   0  0  0  0  0  0  0  0  0  0  0  0
   37.2860   29.7959   46.0679 H   0  0  0  0  0  0  0  0  0  0  0  0
   36.4196   31.3854   45.9187 H   0  0  0  0  0  0  0  0  0  0  0  0
   39.7632   29.8306   46.4595 H   0  0  0  0  0  0  0  0  0  0  0  0
   41.8642   30.8866   45.5127 H   0  0  0  0  0  0  0  0  0  0  0  0
   39.5554   34.1914   44.1356 H   0  0  0  0  0  0  0  0  0  0  0  0
   36.4839   28.9722   47.8753 H   0  0  0  0  0  0  0  0  0  0  0  0
   36.2551   28.8544   50.3591 H   0  0  0  0  0  0  0  0  0  0  0  0
   37.7121   32.8484   50.5158 H   0  0  0  0  0  0  0  0  0  0  0  0
  1  8  1  0
  2  3  2  0
  2  1  1  0
  4  3  1  0
  5  4  2  0
  6  5  1  0
  6  7  2  0
  7  2  1  0
  8  9  2  0
  8 13  1  0
  9 10  1  0
 10 11  2  0
 12 11  1  0
 13 12  2  0
  1 14  1  0
  1 15  1  0
  3 16  1  0
  4 17  1  0
  6 18  1  0
  9 19  1  0
 10 20  1  0
 12 21  1  0
M  ISO  8  14   8  15   8  16  14  17  14  18  14  19  14  20  14  21  14
M  END
>  <minimizedAffinity>  (1) 
-4.36576939

>  <minimizedRMSD>  (1) 
5.24341965

$$$$
