
     RDKit          3D

 25 26  0  0  1  0  0  0  0  0999 V2000
   34.3620   29.6490   49.9660 C   0  0  0  0  0  0  0  0  0  0  0  0
   34.1130   28.9230   48.7030 C   0  0  0  0  0  0  0  0  0  0  0  0
   33.8820   29.6980   47.5620 C   0  0  0  0  0  0  0  0  0  0  0  0
   33.6410   29.0190   46.3430 C   0  0  0  0  0  0  0  0  0  0  0  0
   33.6510   27.6620   46.3540 N   0  0  0  0  0  0  0  0  0  0  0  0
   33.8780   26.9590   47.4780 C   0  0  0  0  0  0  0  0  0  0  0  0
   34.1070   27.5870   48.6390 N   0  0  0  0  0  0  0  0  0  0  0  0
   37.8680   30.5830   49.2090 C   0  0  1  0  0  0  0  0  0  0  0  0
   36.6800   29.6310   49.0130 C   0  0  0  0  0  0  0  0  0  0  0  0
   35.7560   30.1970   50.0590 C   0  0  1  0  0  0  0  0  0  0  0  0
   35.8160   31.5550   49.7240 O   0  0  0  0  0  0  0  0  0  0  0  0
   37.1890   31.8120   49.7280 C   0  0  0  0  0  0  0  0  0  0  0  0
   38.6500   30.0330   50.2500 O   0  0  0  0  0  0  0  0  0  0  0  0
   33.6507   30.4851   50.0365 H   0  0  0  0  0  0  0  0  0  0  0  0
   34.2333   28.9319   50.7901 H   0  0  0  0  0  0  0  0  0  0  0  0
   33.8873   30.7969   47.6099 H   0  0  0  0  0  0  0  0  0  0  0  0
   33.4511   29.5757   45.4135 H   0  0  0  0  0  0  0  0  0  0  0  0
   33.8756   25.8595   47.4437 H   0  0  0  0  0  0  0  0  0  0  0  0
   38.4942   30.7579   48.3217 H   0  0  0  0  0  0  0  0  0  0  0  0
   36.2538   29.7047   48.0016 H   0  0  0  0  0  0  0  0  0  0  0  0
   36.9088   28.5595   49.1110 H   0  0  0  0  0  0  0  0  0  0  0  0
   36.0395   29.9588   51.0948 H   0  0  0  0  0  0  0  0  0  0  0  0
   37.5296   32.0276   50.7515 H   0  0  0  0  0  0  0  0  0  0  0  0
   37.4260   32.6845   49.1015 H   0  0  0  0  0  0  0  0  0  0  0  0
   38.2703   30.3001   51.1244 H   0  0  0  0  0  0  0  0  0  0  0  0
  2  1  1  0
  3  2  2  0
  4  5  2  0
  4  3  1  0
  5  6  1  0
  6  7  2  0
  7  2  1  0
  8 12  1  0
  8 13  1  0
  9  8  1  0
  9 10  1  0
 10  1  1  0
 11 12  1  0
 11 10  1  0
  1 14  1  0
  1 15  1  0
  3 16  1  0
  4 17  1  0
  6 18  1  0
  8 19  1  6
  9 20  1  0
  9 21  1  0
 10 22  1  1
 12 23  1  0
 12 24  1  0
 13 25  1  0
M  ISO  8  14   8  15   8  16  14  17  14  18  14  19  13  20  13  21  13
M  ISO  4  22  13  23  13  24  13  25   3
M  END
>  <minimizedAffinity>  (1) 
-4.2428937

>  <minimizedRMSD>  (1) 
4.55903339

$$$$
