
     RDKit          3D

 27 28  0  0  0  0  0  0  0  0999 V2000
   34.6800   30.2810   48.9560 C   0  0  0  0  0  0  0  0  0  0  0  0
   33.9910   29.1670   48.2620 C   0  0  0  0  0  0  0  0  0  0  0  0
   34.2410   29.0070   46.8830 C   0  0  0  0  0  0  0  0  0  0  0  0
   33.5960   27.9600   46.2170 C   0  0  0  0  0  0  0  0  0  0  0  0
   32.7670   27.1580   46.9300 N   0  0  0  0  0  0  0  0  0  0  0  0
   32.5490   27.3380   48.2450 C   0  0  0  0  0  0  0  0  0  0  0  0
   33.1600   28.3430   48.9170 N   0  0  0  0  0  0  0  0  0  0  0  0
   36.0900   30.0810   49.0860 N   0  0  0  0  0  0  0  0  0  0  0  0
   36.4800   28.9860   49.8830 C   0  0  0  0  0  0  0  0  0  0  0  0
   37.5800   29.1730   50.8540 C   0  0  0  0  0  0  0  0  0  0  0  0
   38.0400   30.5180   51.0530 N   0  0  0  0  0  0  0  0  0  0  0  0
   38.1960   31.1580   49.7630 C   0  0  0  0  0  0  0  0  0  0  0  0
   36.8240   31.2940   49.1920 C   0  0  0  0  0  0  0  0  0  0  0  0
   34.2481   30.3858   49.9622 H   0  0  0  0  0  0  0  0  0  0  0  0
   34.5341   31.1846   48.3459 H   0  0  0  0  0  0  0  0  0  0  0  0
   34.9223   29.6849   46.3479 H   0  0  0  0  0  0  0  0  0  0  0  0
   33.7571   27.7913   45.1420 H   0  0  0  0  0  0  0  0  0  0  0  0
   31.8669   26.6615   48.7808 H   0  0  0  0  0  0  0  0  0  0  0  0
   35.5946   28.6685   50.4533 H   0  0  0  0  0  0  0  0  0  0  0  0
   36.8800   28.2583   49.1616 H   0  0  0  0  0  0  0  0  0  0  0  0
   37.2354   28.7909   51.8262 H   0  0  0  0  0  0  0  0  0  0  0  0
   38.4382   28.6331   50.4274 H   0  0  0  0  0  0  0  0  0  0  0  0
   37.3523   31.0386   51.6160 H   0  0  0  0  0  0  0  0  0  0  0  0
   38.6581   32.1490   49.8833 H   0  0  0  0  0  0  0  0  0  0  0  0
   38.8470   30.5680   49.1010 H   0  0  0  0  0  0  0  0  0  0  0  0
   36.9159   31.7254   48.1843 H   0  0  0  0  0  0  0  0  0  0  0  0
   36.2632   31.9302   49.8926 H   0  0  0  0  0  0  0  0  0  0  0  0
  1  8  1  0
  2  7  1  0
  2  1  1  0
  3  2  2  0
  4  3  1  0
  4  5  2  0
  5  6  1  0
  6  7  2  0
  8 13  1  0
  8  9  1  0
  9 10  1  0
 10 11  1  0
 12 11  1  0
 13 12  1  0
  1 14  1  0
  1 15  1  0
  3 16  1  0
  4 17  1  0
  6 18  1  0
  9 19  1  0
  9 20  1  0
 10 21  1  0
 10 22  1  0
 11 23  1  0
 12 24  1  0
 12 25  1  0
 13 26  1  0
 13 27  1  0
M  ISO  8  14   8  15   8  16  14  17  14  18  14  19  13  20  13  21  13
M  ISO  6  22  13  23   5  24  13  25  13  26  13  27  13
M  END
>  <minimizedAffinity>  (1) 
-3.77591491

>  <minimizedRMSD>  (1) 
4.51966

$$$$
