
     RDKit          3D

 14 14  0  0  0  0  0  0  0  0999 V2000
   37.3340   30.5630   50.3310 C   0  0  0  0  0  0  0  0  0  0  0  0
   38.4030   31.4170   50.0410 C   0  0  0  0  0  0  0  0  0  0  0  0
   38.4800   31.9510   48.7490 C   0  0  0  0  0  0  0  0  0  0  0  0
   37.5110   31.6070   47.8620 N   0  0  0  0  0  0  0  0  0  0  0  0
   36.4960   30.7850   48.1730 C   0  0  0  0  0  0  0  0  0  0  0  0
   36.4030   30.2600   49.4060 N   0  0  0  0  0  0  0  0  0  0  0  0
   37.2550   29.9960   51.7080 C   0  0  0  0  0  0  0  0  0  0  0  0
   38.0420   28.8590   51.8300 O   0  0  0  0  0  0  0  0  0  0  0  0
   39.1582   31.6610   50.8027 H   0  0  0  0  0  0  0  0  0  0  0  0
   39.2987   32.6272   48.4618 H   0  0  0  0  0  0  0  0  0  0  0  0
   35.7374   30.5404   47.4149 H   0  0  0  0  0  0  0  0  0  0  0  0
   37.6030   30.7518   52.4275 H   0  0  0  0  0  0  0  0  0  0  0  0
   36.2099   29.7189   51.9105 H   0  0  0  0  0  0  0  0  0  0  0  0
   38.1824   28.6562   52.7888 H   0  0  0  0  0  0  0  0  0  0  0  0
  1  7  1  0
  2  1  2  0
  3  2  1  0
  4  5  1  0
  4  3  2  0
  5  6  2  0
  6  1  1  0
  7  8  1  0
  2  9  1  0
  3 10  1  0
  5 11  1  0
  7 12  1  0
  7 13  1  0
  8 14  1  0
M  ISO  6   9  14  10  14  11  14  12   8  13   8  14   3
M  END
>  <minimizedAffinity>  (1) 
-3.3629334

>  <minimizedRMSD>  (1) 
0.727959633

$$$$
