
     RDKit          3D

 15 15  0  0  0  0  0  0  0  0999 V2000
   37.3650   30.6450   50.1100 C   0  0  0  0  0  0  0  0  0  0  0  0
   38.4020   31.5530   49.8220 C   0  0  0  0  0  0  0  0  0  0  0  0
   38.5120   32.0340   48.5120 C   0  0  0  0  0  0  0  0  0  0  0  0
   37.6090   31.5940   47.5970 N   0  0  0  0  0  0  0  0  0  0  0  0
   36.6350   30.7290   47.9030 C   0  0  0  0  0  0  0  0  0  0  0  0
   36.5030   30.2450   49.1640 N   0  0  0  0  0  0  0  0  0  0  0  0
   37.2630   30.1470   51.4960 C   0  0  0  0  0  0  0  0  0  0  0  0
   37.9620   28.8620   51.5230 N   0  0  0  0  0  0  0  0  0  0  0  0
   39.1054   31.8751   50.6039 H   0  0  0  0  0  0  0  0  0  0  0  0
   39.3035   32.7449   48.2325 H   0  0  0  0  0  0  0  0  0  0  0  0
   35.9315   30.4057   47.1216 H   0  0  0  0  0  0  0  0  0  0  0  0
   37.7392   30.8543   52.1909 H   0  0  0  0  0  0  0  0  0  0  0  0
   36.2131   30.0376   51.8053 H   0  0  0  0  0  0  0  0  0  0  0  0
   38.1175   28.5762   52.5003 H   0  0  0  0  0  0  0  0  0  0  0  0
   37.3916   28.1507   51.0439 H   0  0  0  0  0  0  0  0  0  0  0  0
  1  7  1  0
  2  1  2  0
  3  2  1  0
  4  5  1  0
  4  3  2  0
  5  6  2  0
  6  1  1  0
  7  8  1  0
  2  9  1  0
  3 10  1  0
  5 11  1  0
  7 12  1  0
  7 13  1  0
  8 14  1  0
  8 15  1  0
M  ISO  7   9  14  10  14  11  14  12   8  13   8  14   5  15   5
M  END
>  <minimizedAffinity>  (1) 
-3.31380033

>  <minimizedRMSD>  (1) 
0.837064862

$$$$
