
     RDKit          3D

 14 14  0  0  0  0  0  0  0  0999 V2000
   37.3660   31.4820   49.0170 C   0  0  0  0  0  0  0  0  0  0  0  0
   38.4240   32.4040   48.9300 C   0  0  0  0  0  0  0  0  0  0  0  0
   38.9580   32.6940   47.6680 C   0  0  0  0  0  0  0  0  0  0  0  0
   38.4170   32.0610   46.5830 N   0  0  0  0  0  0  0  0  0  0  0  0
   37.4020   31.1830   46.7040 C   0  0  0  0  0  0  0  0  0  0  0  0
   36.8780   30.8910   47.9040 N   0  0  0  0  0  0  0  0  0  0  0  0
   36.8200   31.1930   50.3620 C   0  0  0  0  0  0  0  0  0  0  0  0
   37.1630   29.4500   50.8060 S   0  0  0  0  0  0  0  0  0  0  0  0
   38.8238   32.8872   49.8337 H   0  0  0  0  0  0  0  0  0  0  0  0
   39.7865   33.4084   47.5531 H   0  0  0  0  0  0  0  0  0  0  0  0
   36.9964   30.6977   45.8040 H   0  0  0  0  0  0  0  0  0  0  0  0
   37.2933   31.8581   51.0994 H   0  0  0  0  0  0  0  0  0  0  0  0
   35.7328   31.3606   50.3575 H   0  0  0  0  0  0  0  0  0  0  0  0
   37.1881   29.3226   52.1698 H   0  0  0  0  0  0  0  0  0  0  0  0
  1  7  1  0
  2  1  2  0
  3  2  1  0
  4  5  1  0
  4  3  2  0
  5  6  2  0
  6  1  1  0
  7  8  1  0
  2  9  1  0
  3 10  1  0
  5 11  1  0
  7 12  1  0
  7 13  1  0
  8 14  1  0
M  ISO  6   9  14  10  14  11  14  12   8  13   8  14  11
M  END
>  <minimizedAffinity>  (1) 
-2.96046472

>  <minimizedRMSD>  (1) 
2.12273073

$$$$
