
     RDKit          3D

 28 29  0  0  0  0  0  0  0  0999 V2000
   35.1590   28.6090   49.1670 C   0  0  0  0  0  0  0  0  0  0  0  0
   34.1920   28.1490   48.1520 C   0  0  0  0  0  0  0  0  0  0  0  0
   33.5550   29.1110   47.3660 C   0  0  0  0  0  0  0  0  0  0  0  0
   32.6340   28.6940   46.3950 C   0  0  0  0  0  0  0  0  0  0  0  0
   32.4060   27.3590   46.2710 N   0  0  0  0  0  0  0  0  0  0  0  0
   33.0290   26.4470   47.0370 C   0  0  0  0  0  0  0  0  0  0  0  0
   33.9090   26.8440   47.9630 N   0  0  0  0  0  0  0  0  0  0  0  0
   35.6670   29.8930   48.8780 N   0  0  0  0  0  0  0  0  0  0  0  0
   35.2820   30.9300   49.7880 C   0  0  0  0  0  0  0  0  0  0  0  0
   36.4650   31.7930   50.1340 C   0  0  0  0  0  0  0  0  0  0  0  0
   37.5550   30.8290   50.6090 C   0  0  0  0  0  0  0  0  0  0  0  0
   38.0820   30.1490   49.3830 C   0  0  0  0  0  0  0  0  0  0  0  0
   36.9930   29.9900   48.3780 C   0  0  0  0  0  0  0  0  0  0  0  0
   34.6576   28.6388   50.1457 H   0  0  0  0  0  0  0  0  0  0  0  0
   36.0043   27.9051   49.1705 H   0  0  0  0  0  0  0  0  0  0  0  0
   33.7725   30.1801   47.5065 H   0  0  0  0  0  0  0  0  0  0  0  0
   32.1134   29.4217   45.7552 H   0  0  0  0  0  0  0  0  0  0  0  0
   32.8157   25.3763   46.9027 H   0  0  0  0  0  0  0  0  0  0  0  0
   34.5046   31.5520   49.3202 H   0  0  0  0  0  0  0  0  0  0  0  0
   34.8957   30.4697   50.7093 H   0  0  0  0  0  0  0  0  0  0  0  0
   36.8051   32.3506   49.2489 H   0  0  0  0  0  0  0  0  0  0  0  0
   36.2145   32.5354   50.9061 H   0  0  0  0  0  0  0  0  0  0  0  0
   38.3606   31.3838   51.1123 H   0  0  0  0  0  0  0  0  0  0  0  0
   37.1559   30.0995   51.3291 H   0  0  0  0  0  0  0  0  0  0  0  0
   38.8912   30.7554   48.9499 H   0  0  0  0  0  0  0  0  0  0  0  0
   38.4655   29.1556   49.6588 H   0  0  0  0  0  0  0  0  0  0  0  0
   37.2002   29.0739   47.8054 H   0  0  0  0  0  0  0  0  0  0  0  0
   37.0099   30.9178   47.7873 H   0  0  0  0  0  0  0  0  0  0  0  0
  2  1  1  0
  3  2  2  0
  4  3  1  0
  5  4  2  0
  5  6  1  0
  6  7  2  0
  7  2  1  0
  8  1  1  0
  8  9  1  0
  9 10  1  0
 10 11  1  0
 12 11  1  0
 13  8  1  0
 13 12  1  0
  1 14  1  0
  1 15  1  0
  3 16  1  0
  4 17  1  0
  6 18  1  0
  9 19  1  0
  9 20  1  0
 10 21  1  0
 10 22  1  0
 11 23  1  0
 11 24  1  0
 12 25  1  0
 12 26  1  0
 13 27  1  0
 13 28  1  0
M  ISO  8  14   8  15   8  16  14  17  14  18  14  19  13  20  13  21  13
M  ISO  7  22  13  23  13  24  13  25  13  26  13  27  13  28  13
M  END
>  <minimizedAffinity>  (1) 
-3.5483005

>  <minimizedRMSD>  (1) 
4.87817669

$$$$
