
     RDKit          3D

 43 46  0  0  1  0  0  0  0  0999 V2000
   35.6170   29.8110   48.9520 N   0  0  0  0  0  0  0  0  0  0  0  0
   35.2000   30.9250   49.7570 C   0  0  0  0  0  0  0  0  0  0  0  0
   36.3500   31.7150   50.2470 C   0  0  0  0  0  0  0  0  0  0  0  0
   37.3520   30.7730   50.8390 C   0  0  0  0  0  0  0  0  0  0  0  0
   37.9490   29.9310   49.7790 C   0  0  0  0  0  0  0  0  0  0  0  0
   36.9870   29.7780   48.6360 C   0  0  2  0  0  0  0  0  0  0  0  0
   37.3590   30.4970   47.4170 C   0  0  0  0  0  0  0  0  0  0  0  0
   36.6400   30.4750   46.2450 C   0  0  0  0  0  0  0  0  0  0  0  0
   36.9640   31.1530   45.0890 C   0  0  0  0  0  0  0  0  0  0  0  0
   38.0970   31.9350   45.0610 C   0  0  0  0  0  0  0  0  0  0  0  0
   38.4200   32.6000   43.9410 N   0  0  0  0  0  0  0  0  0  0  0  0
   39.5230   33.3670   43.8930 C   0  0  0  0  0  0  0  0  0  0  0  0
   40.3360   33.4810   44.9970 C   0  0  0  0  0  0  0  0  0  0  0  0
   39.9890   32.7940   46.1350 C   0  0  0  0  0  0  0  0  0  0  0  0
   38.8730   32.0100   46.1970 C   0  0  0  0  0  0  0  0  0  0  0  0
   38.4810   31.3010   47.3130 C   0  0  0  0  0  0  0  0  0  0  0  0
   34.9810   28.5830   49.3040 C   0  0  0  0  0  0  0  0  0  0  0  0
   34.1420   28.0540   48.2300 C   0  0  0  0  0  0  0  0  0  0  0  0
   33.4930   28.9680   47.4170 C   0  0  0  0  0  0  0  0  0  0  0  0
   32.6770   28.5660   46.3620 C   0  0  0  0  0  0  0  0  0  0  0  0
   32.5530   27.2270   46.1770 N   0  0  0  0  0  0  0  0  0  0  0  0
   33.1730   26.3360   46.9540 C   0  0  0  0  0  0  0  0  0  0  0  0
   33.9570   26.7560   47.9660 N   0  0  0  0  0  0  0  0  0  0  0  0
   34.5526   31.5774   49.1526 H   0  0  0  0  0  0  0  0  0  0  0  0
   34.6616   30.5301   50.6312 H   0  0  0  0  0  0  0  0  0  0  0  0
   36.8061   32.2653   49.4108 H   0  0  0  0  0  0  0  0  0  0  0  0
   36.0162   32.4379   51.0059 H   0  0  0  0  0  0  0  0  0  0  0  0
   38.1460   31.3511   51.3343 H   0  0  0  0  0  0  0  0  0  0  0  0
   36.8474   30.1251   51.5709 H   0  0  0  0  0  0  0  0  0  0  0  0
   38.8729   30.4048   49.4156 H   0  0  0  0  0  0  0  0  0  0  0  0
   38.1749   28.9376   50.1939 H   0  0  0  0  0  0  0  0  0  0  0  0
   37.1233   28.7185   48.3736 H   0  0  0  0  0  0  0  0  0  0  0  0
   35.7263   29.8628   46.2283 H   0  0  0  0  0  0  0  0  0  0  0  0
   36.3239   31.0701   44.1982 H   0  0  0  0  0  0  0  0  0  0  0  0
   39.7764   33.9053   42.9678 H   0  0  0  0  0  0  0  0  0  0  0  0
   41.2406   34.1062   44.9692 H   0  0  0  0  0  0  0  0  0  0  0  0
   40.6307   32.8783   47.0245 H   0  0  0  0  0  0  0  0  0  0  0  0
   39.1202   31.3820   48.2046 H   0  0  0  0  0  0  0  0  0  0  0  0
   35.7569   27.8406   49.5426 H   0  0  0  0  0  0  0  0  0  0  0  0
   34.3292   28.7820   50.1674 H   0  0  0  0  0  0  0  0  0  0  0  0
   33.6257   30.0428   47.6099 H   0  0  0  0  0  0  0  0  0  0  0  0
   32.1624   29.2923   45.7157 H   0  0  0  0  0  0  0  0  0  0  0  0
   33.0439   25.2595   46.7681 H   0  0  0  0  0  0  0  0  0  0  0  0
  1 17  1  0
  1  2  1  0
  2  3  1  0
  3  4  1  0
  5  4  1  0
  6  1  1  0
  6  5  1  0
  7  6  1  0
  8  7  2  0
  9  8  1  0
 10  9  2  0
 10 15  1  0
 11 10  1  0
 12 11  2  0
 12 13  1  0
 13 14  2  0
 14 15  1  0
 15 16  2  0
 16  7  1  0
 18 17  1  0
 19 18  2  0
 20 19  1  0
 21 20  2  0
 21 22  1  0
 22 23  2  0
 23 18  1  0
  2 24  1  0
  2 25  1  0
  3 26  1  0
  3 27  1  0
  4 28  1  0
  4 29  1  0
  5 30  1  0
  5 31  1  0
  6 32  1  6
  8 33  1  0
  9 34  1  0
 12 35  1  0
 13 36  1  0
 14 37  1  0
 16 38  1  0
 17 39  1  0
 17 40  1  0
 19 41  1  0
 20 42  1  0
 22 43  1  0
M  ISO  8  24  13  25  13  26  13  27  13  28  13  29  13  30  13  31  13
M  ISO  8  32  13  33  14  34  14  35  14  36  14  37  14  38  14  39   8
M  ISO  4  40   8  41  14  42  14  43  14
M  END
>  <minimizedAffinity>  (1) 
-6.3281641

>  <minimizedRMSD>  (1) 
0.947556198

$$$$
