
     RDKit          3D

 39 42  0  0  1  0  0  0  0  0999 V2000
   35.8500   30.1610   48.5040 N   0  0  0  0  0  0  0  0  0  0  0  0
   35.2640   31.0060   49.4860 C   0  0  0  0  0  0  0  0  0  0  0  0
   36.2810   31.5280   50.4410 C   0  0  0  0  0  0  0  0  0  0  0  0
   37.0790   30.3230   50.9400 C   0  0  0  0  0  0  0  0  0  0  0  0
   37.9550   29.9130   49.8130 C   0  0  0  0  0  0  0  0  0  0  0  0
   37.2700   30.1030   48.5070 C   0  0  2  0  0  0  0  0  0  0  0  0
   37.9090   31.0990   47.6480 N   0  0  0  0  0  0  0  0  0  0  0  0
   38.7810   32.0550   47.9830 C   0  0  0  0  0  0  0  0  0  0  0  0
   39.1520   32.7840   46.9140 N   0  0  0  0  0  0  0  0  0  0  0  0
   38.4900   32.2710   45.8610 C   0  0  0  0  0  0  0  0  0  0  0  0
   38.3890   32.5120   44.5060 C   0  0  0  0  0  0  0  0  0  0  0  0
   37.6000   31.7870   43.6850 N   0  0  0  0  0  0  0  0  0  0  0  0
   36.8630   30.7740   44.1680 C   0  0  0  0  0  0  0  0  0  0  0  0
   36.9200   30.4930   45.4780 N   0  0  0  0  0  0  0  0  0  0  0  0
   37.7040   31.2100   46.3080 C   0  0  0  0  0  0  0  0  0  0  0  0
   35.1680   28.9470   48.2680 C   0  0  0  0  0  0  0  0  0  0  0  0
   33.9090   29.1500   47.5440 C   0  0  0  0  0  0  0  0  0  0  0  0
   33.8120   30.2630   46.7180 C   0  0  0  0  0  0  0  0  0  0  0  0
   32.6220   30.4900   46.0070 C   0  0  0  0  0  0  0  0  0  0  0  0
   31.6070   29.6080   46.1580 N   0  0  0  0  0  0  0  0  0  0  0  0
   31.7260   28.5300   46.9700 C   0  0  0  0  0  0  0  0  0  0  0  0
   32.8490   28.3090   47.6440 N   0  0  0  0  0  0  0  0  0  0  0  0
   34.7791   31.8551   48.9822 H   0  0  0  0  0  0  0  0  0  0  0  0
   34.5313   30.4144   50.0545 H   0  0  0  0  0  0  0  0  0  0  0  0
   36.9481   32.2394   49.9322 H   0  0  0  0  0  0  0  0  0  0  0  0
   35.8014   32.0573   51.2776 H   0  0  0  0  0  0  0  0  0  0  0  0
   37.6865   30.6027   51.8133 H   0  0  0  0  0  0  0  0  0  0  0  0
   36.4153   29.5030   51.2517 H   0  0  0  0  0  0  0  0  0  0  0  0
   38.8712   30.5215   49.8302 H   0  0  0  0  0  0  0  0  0  0  0  0
   38.1975   28.8463   49.9288 H   0  0  0  0  0  0  0  0  0  0  0  0
   37.4370   29.1251   48.0318 H   0  0  0  0  0  0  0  0  0  0  0  0
   39.1497   32.2249   49.0054 H   0  0  0  0  0  0  0  0  0  0  0  0
   38.9794   33.3338   44.0745 H   0  0  0  0  0  0  0  0  0  0  0  0
   36.2212   30.1827   43.4983 H   0  0  0  0  0  0  0  0  0  0  0  0
   35.8161   28.2866   47.6732 H   0  0  0  0  0  0  0  0  0  0  0  0
   34.9278   28.4997   49.2438 H   0  0  0  0  0  0  0  0  0  0  0  0
   34.6583   30.9591   46.6218 H   0  0  0  0  0  0  0  0  0  0  0  0
   32.5180   31.3621   45.3447 H   0  0  0  0  0  0  0  0  0  0  0  0
   30.8835   27.8302   47.0722 H   0  0  0  0  0  0  0  0  0  0  0  0
  1  6  1  0
  1  2  1  0
  2  3  1  0
  3  4  1  0
  5  4  1  0
  6  5  1  0
  7  8  1  0
  7  6  1  0
  9  8  2  0
 10 15  2  0
 10  9  1  0
 11 10  1  0
 12 13  1  0
 12 11  2  0
 13 14  2  0
 14 15  1  0
 15  7  1  0
 16  1  1  0
 17 22  1  0
 17 16  1  0
 18 17  2  0
 19 20  2  0
 19 18  1  0
 20 21  1  0
 21 22  2  0
  2 23  1  0
  2 24  1  0
  3 25  1  0
  3 26  1  0
  4 27  1  0
  4 28  1  0
  5 29  1  0
  5 30  1  0
  6 31  1  6
  8 32  1  0
 11 33  1  0
 13 34  1  0
 16 35  1  0
 16 36  1  0
 18 37  1  0
 19 38  1  0
 21 39  1  0
M  ISO  8  23  13  24  13  25  13  26  13  27  13  28  13  29  13  30  13
M  ISO  8  31  13  32  14  33  14  34  14  35   8  36   8  37  14  38  14
M  ISO  1  39  14
M  END
>  <minimizedAffinity>  (1) 
-5.57917213

>  <minimizedRMSD>  (1) 
1.71519208

$$$$
