
     RDKit          3D

 38 40  0  0  1  0  0  0  0  0999 V2000
   35.8190   30.1750   48.5780 N   0  0  0  0  0  0  0  0  0  0  0  0
   35.3240   31.0950   49.5290 C   0  0  0  0  0  0  0  0  0  0  0  0
   36.4110   31.7110   50.3370 C   0  0  0  0  0  0  0  0  0  0  0  0
   37.2750   30.5710   50.8690 C   0  0  0  0  0  0  0  0  0  0  0  0
   38.0550   30.0840   49.6880 C   0  0  0  0  0  0  0  0  0  0  0  0
   37.2450   30.1210   48.4550 C   0  0  2  0  0  0  0  0  0  0  0  0
   37.7910   30.9590   47.3510 C   0  0  0  0  0  0  0  0  0  0  0  0
   38.9030   31.7900   47.5460 C   0  0  0  0  0  0  0  0  0  0  0  0
   39.4800   32.5930   46.5850 C   0  0  0  0  0  0  0  0  0  0  0  0
   38.9190   32.5780   45.3250 C   0  0  0  0  0  0  0  0  0  0  0  0
   37.8240   31.7830   45.0650 C   0  0  0  0  0  0  0  0  0  0  0  0
   37.3010   31.0110   46.0630 C   0  0  0  0  0  0  0  0  0  0  0  0
   35.1560   28.9170   48.5350 C   0  0  0  0  0  0  0  0  0  0  0  0
   33.9110   29.0090   47.7390 C   0  0  0  0  0  0  0  0  0  0  0  0
   33.8330   29.9640   46.7260 C   0  0  0  0  0  0  0  0  0  0  0  0
   32.6610   30.0600   45.9660 C   0  0  0  0  0  0  0  0  0  0  0  0
   31.6410   29.1960   46.2680 N   0  0  0  0  0  0  0  0  0  0  0  0
   31.7300   28.2850   47.2410 C   0  0  0  0  0  0  0  0  0  0  0  0
   32.8530   28.1940   47.9670 N   0  0  0  0  0  0  0  0  0  0  0  0
   34.7807   31.8922   49.0006 H   0  0  0  0  0  0  0  0  0  0  0  0
   34.6633   30.5462   50.2162 H   0  0  0  0  0  0  0  0  0  0  0  0
   37.0156   32.3809   49.7080 H   0  0  0  0  0  0  0  0  0  0  0  0
   35.9956   32.3063   51.1635 H   0  0  0  0  0  0  0  0  0  0  0  0
   37.9528   30.9354   51.6550 H   0  0  0  0  0  0  0  0  0  0  0  0
   36.6682   29.7711   51.3185 H   0  0  0  0  0  0  0  0  0  0  0  0
   38.9394   30.7244   49.5545 H   0  0  0  0  0  0  0  0  0  0  0  0
   38.3523   29.0417   49.8756 H   0  0  0  0  0  0  0  0  0  0  0  0
   37.3901   29.0805   48.1288 H   0  0  0  0  0  0  0  0  0  0  0  0
   39.3529   31.8025   48.5497 H   0  0  0  0  0  0  0  0  0  0  0  0
   40.3535   33.2210   46.8142 H   0  0  0  0  0  0  0  0  0  0  0  0
   39.3465   33.2018   44.5262 H   0  0  0  0  0  0  0  0  0  0  0  0
   37.3744   31.7702   44.0612 H   0  0  0  0  0  0  0  0  0  0  0  0
   36.4277   30.3869   45.8225 H   0  0  0  0  0  0  0  0  0  0  0  0
   35.8235   28.1724   48.0767 H   0  0  0  0  0  0  0  0  0  0  0  0
   34.8983   28.6176   49.5616 H   0  0  0  0  0  0  0  0  0  0  0  0
   34.6822   30.6341   46.5263 H   0  0  0  0  0  0  0  0  0  0  0  0
   32.5628   30.8000   45.1581 H   0  0  0  0  0  0  0  0  0  0  0  0
   30.8845   27.6118   47.4457 H   0  0  0  0  0  0  0  0  0  0  0  0
  1  2  1  0
  2  3  1  0
  3  4  1  0
  5  4  1  0
  6  1  1  0
  6  5  1  0
  7  8  2  0
  7  6  1  0
  9  8  1  0
 10  9  2  0
 11 10  1  0
 11 12  2  0
 12  7  1  0
 13  1  1  0
 14 19  1  0
 14 13  1  0
 15 14  2  0
 16 17  2  0
 16 15  1  0
 17 18  1  0
 18 19  2  0
  2 20  1  0
  2 21  1  0
  3 22  1  0
  3 23  1  0
  4 24  1  0
  4 25  1  0
  5 26  1  0
  5 27  1  0
  6 28  1  6
  8 29  1  0
  9 30  1  0
 10 31  1  0
 11 32  1  0
 12 33  1  0
 13 34  1  0
 13 35  1  0
 15 36  1  0
 16 37  1  0
 18 38  1  0
M  ISO  8  20  13  21  13  22  13  23  13  24  13  25  13  26  13  27  13
M  ISO  8  28  13  29  14  30  14  31  14  32  14  33  14  34   8  35   8
M  ISO  3  36  14  37  14  38  14
M  END
>  <minimizedAffinity>  (1) 
-5.52105999

>  <minimizedRMSD>  (1) 
1.43019903

$$$$
