
     RDKit          3D

 43 45  0  0  1  0  0  0  0  0999 V2000
   36.1990   30.4390   48.4620 N   0  0  0  0  0  0  0  0  0  0  0  0
   35.7390   31.2190   49.5690 C   0  0  0  0  0  0  0  0  0  0  0  0
   36.8040   32.1440   50.0730 C   0  0  0  0  0  0  0  0  0  0  0  0
   38.0880   31.3520   50.1970 C   0  0  0  0  0  0  0  0  0  0  0  0
   38.5790   31.0400   48.8170 C   0  0  0  0  0  0  0  0  0  0  0  0
   37.4040   30.9360   47.8930 C   0  0  1  0  0  0  0  0  0  0  0  0
   37.7020   30.5300   46.5670 N   0  0  0  0  0  0  0  0  0  0  0  0
   39.0300   30.5250   46.1160 C   0  0  0  0  0  0  0  0  0  0  0  0
   39.1810   31.1390   44.7320 C   0  0  0  0  0  0  0  0  0  0  0  0
   38.3070   30.4830   43.7040 C   0  0  0  0  0  0  0  0  0  0  0  0
   36.9260   30.3570   44.2620 C   0  0  0  0  0  0  0  0  0  0  0  0
   36.7640   31.0560   45.5860 C   0  0  0  0  0  0  0  0  0  0  0  0
   35.9440   29.0740   48.4950 C   0  0  0  0  0  0  0  0  0  0  0  0
   34.5530   28.7490   48.1680 C   0  0  0  0  0  0  0  0  0  0  0  0
   34.0530   29.1610   46.9430 C   0  0  0  0  0  0  0  0  0  0  0  0
   32.7210   28.8720   46.6060 C   0  0  0  0  0  0  0  0  0  0  0  0
   31.9690   28.1900   47.5070 N   0  0  0  0  0  0  0  0  0  0  0  0
   32.4730   27.7950   48.7000 C   0  0  0  0  0  0  0  0  0  0  0  0
   33.7510   28.0720   49.0250 N   0  0  0  0  0  0  0  0  0  0  0  0
   34.8710   31.8145   49.2498 H   0  0  0  0  0  0  0  0  0  0  0  0
   35.4664   30.5322   50.3838 H   0  0  0  0  0  0  0  0  0  0  0  0
   36.9438   32.9740   49.3648 H   0  0  0  0  0  0  0  0  0  0  0  0
   36.5169   32.5634   51.0486 H   0  0  0  0  0  0  0  0  0  0  0  0
   38.8415   31.9458   50.7352 H   0  0  0  0  0  0  0  0  0  0  0  0
   37.9089   30.4220   50.7564 H   0  0  0  0  0  0  0  0  0  0  0  0
   39.2484   31.8425   48.4735 H   0  0  0  0  0  0  0  0  0  0  0  0
   39.1307   30.0884   48.8252 H   0  0  0  0  0  0  0  0  0  0  0  0
   37.1303   31.9904   47.7405 H   0  0  0  0  0  0  0  0  0  0  0  0
   39.6448   31.0990   46.8249 H   0  0  0  0  0  0  0  0  0  0  0  0
   39.3559   29.4763   46.0523 H   0  0  0  0  0  0  0  0  0  0  0  0
   38.9154   32.2049   44.7900 H   0  0  0  0  0  0  0  0  0  0  0  0
   40.2254   30.9940   44.4186 H   0  0  0  0  0  0  0  0  0  0  0  0
   38.7022   29.4849   43.4642 H   0  0  0  0  0  0  0  0  0  0  0  0
   38.2874   31.0886   42.7860 H   0  0  0  0  0  0  0  0  0  0  0  0
   36.2161   30.7946   43.5447 H   0  0  0  0  0  0  0  0  0  0  0  0
   36.7327   29.2868   44.4274 H   0  0  0  0  0  0  0  0  0  0  0  0
   36.9492   32.1318   45.4508 H   0  0  0  0  0  0  0  0  0  0  0  0
   35.7403   30.8864   45.9511 H   0  0  0  0  0  0  0  0  0  0  0  0
   36.6018   28.5757   47.7677 H   0  0  0  0  0  0  0  0  0  0  0  0
   36.1334   28.7260   49.5212 H   0  0  0  0  0  0  0  0  0  0  0  0
   34.6954   29.7108   46.2394 H   0  0  0  0  0  0  0  0  0  0  0  0
   32.2994   29.1888   45.6406 H   0  0  0  0  0  0  0  0  0  0  0  0
   31.8356   27.2449   49.4079 H   0  0  0  0  0  0  0  0  0  0  0  0
  1 13  1  0
  1  2  1  0
  2  3  1  0
  3  4  1  0
  5  4  1  0
  6  1  1  0
  6  5  1  0
  7  6  1  0
  8  7  1  0
  9  8  1  0
 10 11  1  0
 10  9  1  0
 11 12  1  0
 12  7  1  0
 14 13  1  0
 14 19  1  0
 15 14  2  0
 16 15  1  0
 16 17  2  0
 17 18  1  0
 18 19  2  0
  2 20  1  0
  2 21  1  0
  3 22  1  0
  3 23  1  0
  4 24  1  0
  4 25  1  0
  5 26  1  0
  5 27  1  0
  6 28  1  6
  8 29  1  0
  8 30  1  0
  9 31  1  0
  9 32  1  0
 10 33  1  0
 10 34  1  0
 11 35  1  0
 11 36  1  0
 12 37  1  0
 12 38  1  0
 13 39  1  0
 13 40  1  0
 15 41  1  0
 16 42  1  0
 18 43  1  0
M  ISO  8  20  13  21  13  22  13  23  13  24  13  25  13  26  13  27  13
M  ISO  8  28  13  29  13  30  13  31  13  32  13  33  13  34  13  35  13
M  ISO  8  36  13  37  13  38  13  39   8  40   8  41  14  42  14  43  14
M  END
>  <minimizedAffinity>  (1) 
-4.43916798

>  <minimizedRMSD>  (1) 
1.42067242

$$$$
