
     RDKit          3D

 42 44  0  0  1  0  0  0  0  0999 V2000
   36.5740   30.9280   48.3610 N   0  0  0  0  0  0  0  0  0  0  0  0
   36.2080   31.6640   49.5510 C   0  0  0  0  0  0  0  0  0  0  0  0
   37.2380   32.6960   49.8870 C   0  0  0  0  0  0  0  0  0  0  0  0
   38.6000   32.0030   49.7950 C   0  0  0  0  0  0  0  0  0  0  0  0
   38.8790   31.8090   48.3430 C   0  0  0  0  0  0  0  0  0  0  0  0
   37.5960   31.5450   47.6090 C   0  0  1  0  0  0  0  0  0  0  0  0
   37.7340   31.0660   46.2790 N   0  0  0  0  0  0  0  0  0  0  0  0
   38.8730   30.3190   45.9240 C   0  0  0  0  0  0  0  0  0  0  0  0
   39.3920   30.5670   44.5110 C   0  0  0  0  0  0  0  0  0  0  0  0
   38.2890   30.4610   43.6070 N   0  0  0  0  0  0  0  0  0  0  0  0
   37.3640   31.5270   43.9020 C   0  0  0  0  0  0  0  0  0  0  0  0
   37.5500   32.0980   45.2740 C   0  0  0  0  0  0  0  0  0  0  0  0
   36.4390   29.5500   48.4120 C   0  0  0  0  0  0  0  0  0  0  0  0
   35.0600   29.1050   48.1710 C   0  0  0  0  0  0  0  0  0  0  0  0
   34.4390   29.5060   46.9760 C   0  0  0  0  0  0  0  0  0  0  0  0
   33.1140   29.0960   46.7290 C   0  0  0  0  0  0  0  0  0  0  0  0
   32.4970   28.3260   47.6690 N   0  0  0  0  0  0  0  0  0  0  0  0
   33.1050   27.9560   48.7970 C   0  0  0  0  0  0  0  0  0  0  0  0
   34.3680   28.3370   49.0500 N   0  0  0  0  0  0  0  0  0  0  0  0
   35.2423   32.1627   49.3816 H   0  0  0  0  0  0  0  0  0  0  0  0
   36.1371   30.9564   50.3902 H   0  0  0  0  0  0  0  0  0  0  0  0
   37.1874   33.5295   49.1710 H   0  0  0  0  0  0  0  0  0  0  0  0
   37.0711   33.1094   50.8926 H   0  0  0  0  0  0  0  0  0  0  0  0
   39.3783   32.6327   50.2507 H   0  0  0  0  0  0  0  0  0  0  0  0
   38.5946   31.0424   50.3309 H   0  0  0  0  0  0  0  0  0  0  0  0
   39.3516   32.7158   47.9377 H   0  0  0  0  0  0  0  0  0  0  0  0
   39.5540   30.9500   48.2146 H   0  0  0  0  0  0  0  0  0  0  0  0
   37.2090   32.5644   47.4635 H   0  0  0  0  0  0  0  0  0  0  0  0
   39.6779   30.5670   46.6316 H   0  0  0  0  0  0  0  0  0  0  0  0
   38.5707   29.2619   45.9594 H   0  0  0  0  0  0  0  0  0  0  0  0
   39.8314   31.5734   44.4466 H   0  0  0  0  0  0  0  0  0  0  0  0
   40.1666   29.8292   44.2548 H   0  0  0  0  0  0  0  0  0  0  0  0
   37.8232   29.5506   43.7298 H   0  0  0  0  0  0  0  0  0  0  0  0
   37.5083   32.3307   43.1650 H   0  0  0  0  0  0  0  0  0  0  0  0
   36.3491   31.1054   43.8551 H   0  0  0  0  0  0  0  0  0  0  0  0
   36.6607   32.6909   45.5342 H   0  0  0  0  0  0  0  0  0  0  0  0
   38.4570   32.7202   45.2599 H   0  0  0  0  0  0  0  0  0  0  0  0
   37.0912   29.1042   47.6466 H   0  0  0  0  0  0  0  0  0  0  0  0
   36.7197   29.2265   49.4252 H   0  0  0  0  0  0  0  0  0  0  0  0
   34.9777   30.1288   46.2466 H   0  0  0  0  0  0  0  0  0  0  0  0
   32.5932   29.3885   45.8053 H   0  0  0  0  0  0  0  0  0  0  0  0
   32.5672   27.3331   49.5269 H   0  0  0  0  0  0  0  0  0  0  0  0
  1 13  1  0
  1  2  1  0
  2  3  1  0
  4  3  1  0
  5  4  1  0
  6  5  1  0
  6  1  1  0
  7 12  1  0
  7  6  1  0
  8  7  1  0
  9  8  1  0
 10 11  1  0
 10  9  1  0
 11 12  1  0
 14 13  1  0
 14 19  1  0
 15 14  2  0
 16 15  1  0
 16 17  2  0
 17 18  1  0
 18 19  2  0
  2 20  1  0
  2 21  1  0
  3 22  1  0
  3 23  1  0
  4 24  1  0
  4 25  1  0
  5 26  1  0
  5 27  1  0
  6 28  1  6
  8 29  1  0
  8 30  1  0
  9 31  1  0
  9 32  1  0
 10 33  1  0
 11 34  1  0
 11 35  1  0
 12 36  1  0
 12 37  1  0
 13 38  1  0
 13 39  1  0
 15 40  1  0
 16 41  1  0
 18 42  1  0
M  ISO  8  20  13  21  13  22  13  23  13  24  13  25  13  26  13  27  13
M  ISO  8  28  13  29  13  30  13  31  13  32  13  33   5  34  13  35  13
M  ISO  7  36  13  37  13  38   8  39   8  40  14  41  14  42  14
M  END
>  <minimizedAffinity>  (1) 
-4.43605471

>  <minimizedRMSD>  (1) 
2.01024437

$$$$
