
     RDKit          3D

 29 30  0  0  1  0  0  0  0  0999 V2000
   35.5910   29.7910   48.9620 N   0  0  0  0  0  0  0  0  0  0  0  0
   35.1840   30.9050   49.7590 C   0  0  0  0  0  0  0  0  0  0  0  0
   36.3830   31.6980   50.2110 C   0  0  0  0  0  0  0  0  0  0  0  0
   37.3300   30.6940   50.8600 C   0  0  0  0  0  0  0  0  0  0  0  0
   37.9560   29.9320   49.7370 C   0  0  0  0  0  0  0  0  0  0  0  0
   36.9760   29.7660   48.6180 C   0  0  2  0  0  0  0  0  0  0  0  0
   34.9590   28.5750   49.2560 C   0  0  0  0  0  0  0  0  0  0  0  0
   34.1540   28.0660   48.1410 C   0  0  0  0  0  0  0  0  0  0  0  0
   33.6290   28.9950   47.2370 C   0  0  0  0  0  0  0  0  0  0  0  0
   32.8560   28.5420   46.1630 C   0  0  0  0  0  0  0  0  0  0  0  0
   32.6520   27.2090   46.0510 N   0  0  0  0  0  0  0  0  0  0  0  0
   33.1630   26.3210   46.9300 C   0  0  0  0  0  0  0  0  0  0  0  0
   33.8970   26.7450   47.9520 N   0  0  0  0  0  0  0  0  0  0  0  0
   37.2890   30.8960   47.2240 S   0  0  0  0  0  0  0  0  0  0  0  0
   34.5245   31.5538   49.1640 H   0  0  0  0  0  0  0  0  0  0  0  0
   34.6503   30.5316   50.6454 H   0  0  0  0  0  0  0  0  0  0  0  0
   36.8689   32.1805   49.3501 H   0  0  0  0  0  0  0  0  0  0  0  0
   36.0977   32.4952   50.9132 H   0  0  0  0  0  0  0  0  0  0  0  0
   38.1016   31.2182   51.4430 H   0  0  0  0  0  0  0  0  0  0  0  0
   36.7961   30.0258   51.5517 H   0  0  0  0  0  0  0  0  0  0  0  0
   38.8362   30.4810   49.3711 H   0  0  0  0  0  0  0  0  0  0  0  0
   38.2584   28.9389   50.1007 H   0  0  0  0  0  0  0  0  0  0  0  0
   37.1750   28.7293   48.3087 H   0  0  0  0  0  0  0  0  0  0  0  0
   35.7295   27.8294   49.5017 H   0  0  0  0  0  0  0  0  0  0  0  0
   34.2775   28.7530   50.1009 H   0  0  0  0  0  0  0  0  0  0  0  0
   33.8218   30.0699   47.3692 H   0  0  0  0  0  0  0  0  0  0  0  0
   32.4282   29.2458   45.4338 H   0  0  0  0  0  0  0  0  0  0  0  0
   32.9712   25.2457   46.7995 H   0  0  0  0  0  0  0  0  0  0  0  0
   37.6313   32.1319   47.7060 H   0  0  0  0  0  0  0  0  0  0  0  0
  1  7  1  0
  1  2  1  0
  2  3  1  0
  3  4  1  0
  5  4  1  0
  6  1  1  0
  6  5  1  0
  8  7  1  0
  9  8  2  0
 10  9  1  0
 11 10  2  0
 11 12  1  0
 12 13  2  0
 13  8  1  0
 14  6  1  0
  2 15  1  0
  2 16  1  0
  3 17  1  0
  3 18  1  0
  4 19  1  0
  4 20  1  0
  5 21  1  0
  5 22  1  0
  6 23  1  6
  7 24  1  0
  7 25  1  0
  9 26  1  0
 10 27  1  0
 12 28  1  0
 14 29  1  0
M  ISO  8  15  13  16  13  17  13  18  13  19  13  20  13  21  13  22  13
M  ISO  7  23  13  24   8  25   8  26  14  27  14  28  14  29  11
M  END
>  <minimizedAffinity>  (1) 
-3.82905245

>  <minimizedRMSD>  (1) 
0.275354505

$$$$
