
     RDKit          3D

 26 27  0  0  0  0  0  0  0  0999 V2000
   37.2850   30.1890   51.4430 C   0  0  0  0  0  0  0  0  0  0  0  0
   37.9920   30.6180   50.2980 C   0  0  0  0  0  0  0  0  0  0  0  0
   37.4830   30.2410   49.0470 C   0  0  0  0  0  0  0  0  0  0  0  0
   36.3440   29.4900   49.0070 N   0  0  0  0  0  0  0  0  0  0  0  0
   35.6980   29.0990   50.1220 C   0  0  0  0  0  0  0  0  0  0  0  0
   36.1670   29.4480   51.3420 N   0  0  0  0  0  0  0  0  0  0  0  0
   38.1870   30.6680   47.8360 C   0  0  0  0  0  0  0  0  0  0  0  0
   37.3600   30.8050   46.6090 C   0  0  0  0  0  0  0  0  0  0  0  0
   38.3270   30.8740   45.4420 C   0  0  0  0  0  0  0  0  0  0  0  0
   39.4980   31.7320   45.7470 C   0  0  0  0  0  0  0  0  0  0  0  0
   39.3600   32.6740   46.8950 C   0  0  0  0  0  0  0  0  0  0  0  0
   38.7320   32.0740   48.1220 C   0  0  0  0  0  0  0  0  0  0  0  0
   37.6572   30.4672   52.4400 H   0  0  0  0  0  0  0  0  0  0  0  0
   38.9060   31.2240   50.3842 H   0  0  0  0  0  0  0  0  0  0  0  0
   34.7839   28.4925   50.0404 H   0  0  0  0  0  0  0  0  0  0  0  0
   38.9321   29.8852   47.6311 H   0  0  0  0  0  0  0  0  0  0  0  0
   36.6948   29.9357   46.5002 H   0  0  0  0  0  0  0  0  0  0  0  0
   36.7273   31.7037   46.6545 H   0  0  0  0  0  0  0  0  0  0  0  0
   37.8015   31.2863   44.5680 H   0  0  0  0  0  0  0  0  0  0  0  0
   38.6922   29.8563   45.2399 H   0  0  0  0  0  0  0  0  0  0  0  0
   40.3496   31.0693   45.9607 H   0  0  0  0  0  0  0  0  0  0  0  0
   39.6238   32.3730   44.8619 H   0  0  0  0  0  0  0  0  0  0  0  0
   40.3630   33.0362   47.1646 H   0  0  0  0  0  0  0  0  0  0  0  0
   38.6877   33.4779   46.5608 H   0  0  0  0  0  0  0  0  0  0  0  0
   37.9048   32.7188   48.4534 H   0  0  0  0  0  0  0  0  0  0  0  0
   39.5013   31.9967   48.9045 H   0  0  0  0  0  0  0  0  0  0  0  0
  2  1  2  0
  3  2  1  0
  4  3  2  0
  4  5  1  0
  5  6  2  0
  6  1  1  0
  7 12  1  0
  7  3  1  0
  8  7  1  0
  9 10  1  0
  9  8  1  0
 10 11  1  0
 11 12  1  0
  1 13  1  0
  2 14  1  0
  5 15  1  0
  7 16  1  0
  8 17  1  0
  8 18  1  0
  9 19  1  0
  9 20  1  0
 10 21  1  0
 10 22  1  0
 11 23  1  0
 11 24  1  0
 12 25  1  0
 12 26  1  0
M  ISO  8  13  14  14  14  15  14  16  13  17  13  18  13  19  13  20  13
M  ISO  6  21  13  22  13  23  13  24  13  25  13  26  13
M  END
>  <minimizedAffinity>  (1) 
-4.92339611

>  <minimizedRMSD>  (1) 
0.926277101

$$$$
