
     RDKit          3D

 32 33  0  0  1  0  0  0  0  0999 V2000
   37.8660   30.5050   47.7990 C   0  0  1  0  0  0  0  0  0  0  0  0
   37.0710   30.7590   46.5970 C   0  0  0  0  0  0  0  0  0  0  0  0
   37.9770   30.7260   45.3910 C   0  0  0  0  0  0  0  0  0  0  0  0
   39.3170   31.2690   45.6810 C   0  0  0  0  0  0  0  0  0  0  0  0
   39.3970   32.2040   46.8300 C   0  0  0  0  0  0  0  0  0  0  0  0
   38.7350   31.7050   48.0970 C   0  0  1  0  0  0  0  0  0  0  0  0
   37.1910   29.5610   51.3230 C   0  0  0  0  0  0  0  0  0  0  0  0
   37.9170   29.9210   50.1570 C   0  0  0  0  0  0  0  0  0  0  0  0
   37.1440   30.1490   49.0220 C   0  0  0  0  0  0  0  0  0  0  0  0
   35.7870   30.0240   49.0730 N   0  0  0  0  0  0  0  0  0  0  0  0
   35.1370   29.6790   50.2020 C   0  0  0  0  0  0  0  0  0  0  0  0
   35.8380   29.4470   51.3280 N   0  0  0  0  0  0  0  0  0  0  0  0
   38.1200   32.7870   48.8960 C   0  0  0  0  0  0  0  0  0  0  0  0
   39.0280   33.8460   49.4300 C   0  0  0  0  0  0  0  0  0  0  0  0
   38.4398   29.6040   47.5365 H   0  0  0  0  0  0  0  0  0  0  0  0
   36.2962   29.9846   46.4972 H   0  0  0  0  0  0  0  0  0  0  0  0
   36.5893   31.7450   46.6723 H   0  0  0  0  0  0  0  0  0  0  0  0
   37.5195   31.3235   44.5887 H   0  0  0  0  0  0  0  0  0  0  0  0
   38.0983   29.6748   45.0907 H   0  0  0  0  0  0  0  0  0  0  0  0
   39.9877   30.4218   45.8872 H   0  0  0  0  0  0  0  0  0  0  0  0
   39.6006   31.8569   44.7956 H   0  0  0  0  0  0  0  0  0  0  0  0
   40.4591   32.3892   47.0481 H   0  0  0  0  0  0  0  0  0  0  0  0
   38.8527   33.1120   46.5311 H   0  0  0  0  0  0  0  0  0  0  0  0
   39.5074   31.3323   48.7858 H   0  0  0  0  0  0  0  0  0  0  0  0
   37.7437   29.3678   52.2542 H   0  0  0  0  0  0  0  0  0  0  0  0
   39.0131   30.0132   50.1510 H   0  0  0  0  0  0  0  0  0  0  0  0
   34.0408   29.5875   50.2037 H   0  0  0  0  0  0  0  0  0  0  0  0
   37.3721   33.2831   48.2599 H   0  0  0  0  0  0  0  0  0  0  0  0
   37.7170   32.2849   49.7879 H   0  0  0  0  0  0  0  0  0  0  0  0
   39.0096   33.8245   50.5296 H   0  0  0  0  0  0  0  0  0  0  0  0
   40.0534   33.6621   49.0768 H   0  0  0  0  0  0  0  0  0  0  0  0
   38.6897   34.8313   49.0768 H   0  0  0  0  0  0  0  0  0  0  0  0
  1  6  1  0
  1  9  1  0
  2  1  1  0
  3  4  1  0
  3  2  1  0
  4  5  1  0
  5  6  1  0
  6 13  1  0
  7 12  2  0
  8  7  1  0
  9 10  1  0
  9  8  2  0
 10 11  2  0
 11 12  1  0
 13 14  1  0
  1 15  1  6
  2 16  1  0
  2 17  1  0
  3 18  1  0
  3 19  1  0
  4 20  1  0
  4 21  1  0
  5 22  1  0
  5 23  1  0
  6 24  1  1
  7 25  1  0
  8 26  1  0
 11 27  1  0
 13 28  1  0
 13 29  1  0
 14 30  1  0
 14 31  1  0
 14 32  1  0
M  ISO  8  15  13  16  13  17  13  18  13  19  13  20  13  21  13  22  13
M  ISO  8  23  13  24  13  25  14  26  14  27  14  28   8  29   8  30   8
M  ISO  2  31   8  32   8
M  END
>  <minimizedAffinity>  (1) 
-5.52647924

>  <minimizedRMSD>  (1) 
0.570841134

$$$$
