
     RDKit          3D

 34 35  0  0  1  0  0  0  0  0999 V2000
   38.0880   31.4900   45.6870 C   0  0  1  0  0  0  0  0  0  0  0  0
   38.0600   32.4440   44.5180 C   0  0  0  0  0  0  0  0  0  0  0  0
   39.4810   32.7050   44.0990 C   0  0  0  0  0  0  0  0  0  0  0  0
   40.3760   32.8280   45.2650 C   0  0  0  0  0  0  0  0  0  0  0  0
   39.7170   33.1360   46.5590 C   0  0  0  0  0  0  0  0  0  0  0  0
   38.5060   32.2550   46.8890 C   0  0  2  0  0  0  0  0  0  0  0  0
   34.8960   29.7490   44.9750 C   0  0  0  0  0  0  0  0  0  0  0  0
   36.1400   30.4170   44.7970 C   0  0  0  0  0  0  0  0  0  0  0  0
   36.8410   30.8010   45.9260 C   0  0  0  0  0  0  0  0  0  0  0  0
   36.3130   30.5240   47.1570 N   0  0  0  0  0  0  0  0  0  0  0  0
   35.1440   29.8980   47.3050 C   0  0  0  0  0  0  0  0  0  0  0  0
   34.4230   29.5030   46.2260 N   0  0  0  0  0  0  0  0  0  0  0  0
   39.0000   31.4700   47.9950 N   0  0  0  0  0  0  0  0  0  0  0  0
   38.4670   32.1880   49.5040 S   0  0  0  0  0  0  0  0  0  0  0  0
   37.0490   32.6450   49.4320 O   0  0  0  0  0  0  0  0  0  0  0  0
   38.5910   31.1340   50.5440 O   0  0  0  0  0  0  0  0  0  0  0  0
   39.3860   33.5610   49.8380 O   0  0  0  0  0  0  0  0  0  0  0  0
   38.8042   30.6901   45.4480 H   0  0  0  0  0  0  0  0  0  0  0  0
   37.5007   31.9959   43.6835 H   0  0  0  0  0  0  0  0  0  0  0  0
   37.5661   33.3846   44.8032 H   0  0  0  0  0  0  0  0  0  0  0  0
   39.8266   31.8716   43.4698 H   0  0  0  0  0  0  0  0  0  0  0  0
   39.5074   33.6537   43.5428 H   0  0  0  0  0  0  0  0  0  0  0  0
   40.9137   31.8752   45.3791 H   0  0  0  0  0  0  0  0  0  0  0  0
   41.0273   33.6882   45.0507 H   0  0  0  0  0  0  0  0  0  0  0  0
   40.4602   33.0103   47.3601 H   0  0  0  0  0  0  0  0  0  0  0  0
   39.3381   34.1654   46.4766 H   0  0  0  0  0  0  0  0  0  0  0  0
   37.5819   32.7815   47.1699 H   0  0  0  0  0  0  0  0  0  0  0  0
   34.3148   29.4304   44.0971 H   0  0  0  0  0  0  0  0  0  0  0  0
   36.5329   30.6221   43.7902 H   0  0  0  0  0  0  0  0  0  0  0  0
   34.7595   29.6994   48.3163 H   0  0  0  0  0  0  0  0  0  0  0  0
   38.6356   30.5092   47.9241 H   0  0  0  0  0  0  0  0  0  0  0  0
   36.6924   32.7599   50.3484 H   0  0  0  0  0  0  0  0  0  0  0  0
   38.5422   31.5487   51.4416 H   0  0  0  0  0  0  0  0  0  0  0  0
   39.4630   33.6761   50.8183 H   0  0  0  0  0  0  0  0  0  0  0  0
  1  9  1  0
  1  6  1  0
  2  1  1  0
  3  2  1  0
  3  4  1  0
  4  5  1  0
  5  6  1  0
  6 13  1  0
  7 12  2  0
  8  7  1  0
  8  9  2  0
  9 10  1  0
 10 11  2  0
 12 11  1  0
 13 14  1  0
 14 17  1  0
 14 16  1  0
 15 14  1  0
  1 18  1  6
  2 19  1  0
  2 20  1  0
  3 21  1  0
  3 22  1  0
  4 23  1  0
  4 24  1  0
  5 25  1  0
  5 26  1  0
  6 27  1  1
  7 28  1  0
  8 29  1  0
 11 30  1  0
 13 31  1  0
 15 32  1  0
 16 33  1  0
 17 34  1  0
M  ISO  8  18  13  19  13  20  13  21  13  22  13  23  13  24  13  25  13
M  ISO  8  26  13  27  13  28  14  29  14  30  14  31   5  32   3  33   3
M  ISO  1  34   3
M  END
>  <minimizedAffinity>  (1) 
-4.97401047

>  <minimizedRMSD>  (1) 
3.21430492

$$$$
