
     RDKit          3D

 33 35  0  0  1  0  0  0  0  0999 V2000
   37.4370   30.1250   46.9690 C   0  0  1  0  0  0  0  0  0  0  0  0
   36.8500   30.8780   45.8510 C   0  0  0  0  0  0  0  0  0  0  0  0
   37.6420   30.5600   44.6100 C   0  0  0  0  0  0  0  0  0  0  0  0
   39.0910   30.4840   44.8870 C   0  0  0  0  0  0  0  0  0  0  0  0
   39.5570   31.1580   46.1240 C   0  0  0  0  0  0  0  0  0  0  0  0
   38.7500   30.8230   47.3500 C   0  0  1  0  0  0  0  0  0  0  0  0
   36.3810   29.3610   50.4610 C   0  0  0  0  0  0  0  0  0  0  0  0
   37.1840   29.4090   49.3080 C   0  0  0  0  0  0  0  0  0  0  0  0
   36.6340   30.0550   48.2030 C   0  0  0  0  0  0  0  0  0  0  0  0
   35.3720   30.5980   48.2850 N   0  0  0  0  0  0  0  0  0  0  0  0
   34.6360   30.5280   49.4110 C   0  0  0  0  0  0  0  0  0  0  0  0
   35.1410   29.9050   50.5130 N   0  0  0  0  0  0  0  0  0  0  0  0
   38.5430   32.0000   48.2160 C   0  0  0  0  0  0  0  0  0  0  0  0
   37.6520   32.3090   49.2520 C   0  0  0  0  0  0  0  0  0  0  0  0
   37.9160   33.5770   49.7150 C   0  0  0  0  0  0  0  0  0  0  0  0
   38.9710   33.9690   48.9190 C   0  0  0  0  0  0  0  0  0  0  0  0
   39.3160   33.0470   48.0620 O   0  0  0  0  0  0  0  0  0  0  0  0
   37.5367   29.0921   46.6039 H   0  0  0  0  0  0  0  0  0  0  0  0
   35.8004   30.5804   45.7106 H   0  0  0  0  0  0  0  0  0  0  0  0
   36.8816   31.9578   46.0587 H   0  0  0  0  0  0  0  0  0  0  0  0
   37.4634   31.3470   43.8625 H   0  0  0  0  0  0  0  0  0  0  0  0
   37.3137   29.5784   44.2377 H   0  0  0  0  0  0  0  0  0  0  0  0
   39.3634   29.4208   44.9609 H   0  0  0  0  0  0  0  0  0  0  0  0
   39.5779   31.0192   44.0585 H   0  0  0  0  0  0  0  0  0  0  0  0
   40.6006   30.8618   46.3062 H   0  0  0  0  0  0  0  0  0  0  0  0
   39.4443   32.2394   45.9568 H   0  0  0  0  0  0  0  0  0  0  0  0
   39.3310   30.1084   47.9514 H   0  0  0  0  0  0  0  0  0  0  0  0
   36.7756   28.8612   51.3579 H   0  0  0  0  0  0  0  0  0  0  0  0
   38.1888   28.9622   49.2800 H   0  0  0  0  0  0  0  0  0  0  0  0
   33.6302   30.9724   49.4410 H   0  0  0  0  0  0  0  0  0  0  0  0
   36.8651   31.6425   49.6349 H   0  0  0  0  0  0  0  0  0  0  0  0
   37.4127   34.1365   50.5173 H   0  0  0  0  0  0  0  0  0  0  0  0
   39.4661   34.9482   48.9972 H   0  0  0  0  0  0  0  0  0  0  0  0
  1  6  1  0
  1  9  1  0
  2  1  1  0
  3  4  1  0
  3  2  1  0
  4  5  1  0
  5  6  1  0
  6 13  1  0
  7 12  2  0
  8  7  1  0
  9 10  1  0
  9  8  2  0
 10 11  2  0
 11 12  1  0
 13 14  2  0
 14 15  1  0
 16 15  2  0
 17 13  1  0
 17 16  1  0
  1 18  1  6
  2 19  1  0
  2 20  1  0
  3 21  1  0
  3 22  1  0
  4 23  1  0
  4 24  1  0
  5 25  1  0
  5 26  1  0
  6 27  1  1
  7 28  1  0
  8 29  1  0
 11 30  1  0
 14 31  1  0
 15 32  1  0
 16 33  1  0
M  ISO  8  18  13  19  13  20  13  21  13  22  13  23  13  24  13  25  13
M  ISO  8  26  13  27  13  28  14  29  14  30  14  31  14  32  14  33  14
M  END
>  <minimizedAffinity>  (1) 
-4.92401886

>  <minimizedRMSD>  (1) 
1.60027933

$$$$
