
     RDKit          3D

 36 38  0  0  1  0  0  0  0  0999 V2000
   37.3320   30.0910   46.7780 C   0  0  1  0  0  0  0  0  0  0  0  0
   36.6700   30.6760   45.6290 C   0  0  0  0  0  0  0  0  0  0  0  0
   37.3660   30.3270   44.3650 C   0  0  0  0  0  0  0  0  0  0  0  0
   38.8150   30.1210   44.5340 C   0  0  0  0  0  0  0  0  0  0  0  0
   39.4440   30.8080   45.6860 C   0  0  0  0  0  0  0  0  0  0  0  0
   38.7130   30.6110   46.9940 C   0  0  1  0  0  0  0  0  0  0  0  0
   36.4320   29.3710   50.3070 C   0  0  0  0  0  0  0  0  0  0  0  0
   37.1490   29.3450   49.0760 C   0  0  0  0  0  0  0  0  0  0  0  0
   36.6000   30.1400   48.0450 C   0  0  0  0  0  0  0  0  0  0  0  0
   35.4490   30.8740   48.2530 N   0  0  0  0  0  0  0  0  0  0  0  0
   34.8270   30.8500   49.4380 C   0  0  0  0  0  0  0  0  0  0  0  0
   35.3040   30.1080   50.4690 N   0  0  0  0  0  0  0  0  0  0  0  0
   38.8530   31.7970   47.8730 C   0  0  0  0  0  0  0  0  0  0  0  0
   39.3460   33.0340   47.4340 C   0  0  0  0  0  0  0  0  0  0  0  0
   39.4970   34.1730   48.1840 C   0  0  0  0  0  0  0  0  0  0  0  0
   39.1260   34.1030   49.5100 C   0  0  0  0  0  0  0  0  0  0  0  0
   38.6320   32.9420   50.0360 C   0  0  0  0  0  0  0  0  0  0  0  0
   38.5170   31.8480   49.2060 C   0  0  0  0  0  0  0  0  0  0  0  0
   37.3734   29.0316   46.4848 H   0  0  0  0  0  0  0  0  0  0  0  0
   35.6365   30.3022   45.5831 H   0  0  0  0  0  0  0  0  0  0  0  0
   36.6856   31.7701   45.7413 H   0  0  0  0  0  0  0  0  0  0  0  0
   37.2114   31.1437   43.6445 H   0  0  0  0  0  0  0  0  0  0  0  0
   36.9412   29.3758   44.0117 H   0  0  0  0  0  0  0  0  0  0  0  0
   38.9889   29.0412   44.6516 H   0  0  0  0  0  0  0  0  0  0  0  0
   39.2808   30.5603   43.6395 H   0  0  0  0  0  0  0  0  0  0  0  0
   40.4681   30.4233   45.8009 H   0  0  0  0  0  0  0  0  0  0  0  0
   39.4180   31.8856   45.4664 H   0  0  0  0  0  0  0  0  0  0  0  0
   39.1938   29.8074   47.5710 H   0  0  0  0  0  0  0  0  0  0  0  0
   36.8046   28.7747   51.1530 H   0  0  0  0  0  0  0  0  0  0  0  0
   38.0634   28.7493   48.9383 H   0  0  0  0  0  0  0  0  0  0  0  0
   33.9115   31.4433   49.5787 H   0  0  0  0  0  0  0  0  0  0  0  0
   39.6430   33.0981   46.3768 H   0  0  0  0  0  0  0  0  0  0  0  0
   39.8961   35.1002   47.7470 H   0  0  0  0  0  0  0  0  0  0  0  0
   39.2286   34.9907   50.1514 H   0  0  0  0  0  0  0  0  0  0  0  0
   38.3343   32.8826   51.0933 H   0  0  0  0  0  0  0  0  0  0  0  0
   38.1176   30.9256   49.6529 H   0  0  0  0  0  0  0  0  0  0  0  0
  1  6  1  0
  1  9  1  0
  2  1  1  0
  3  4  1  0
  3  2  1  0
  4  5  1  0
  5  6  1  0
  6 13  1  0
  7 12  2  0
  8  7  1  0
  9 10  1  0
  9  8  2  0
 10 11  2  0
 11 12  1  0
 13 18  1  0
 14 13  2  0
 14 15  1  0
 15 16  2  0
 16 17  1  0
 18 17  2  0
  1 19  1  6
  2 20  1  0
  2 21  1  0
  3 22  1  0
  3 23  1  0
  4 24  1  0
  4 25  1  0
  5 26  1  0
  5 27  1  0
  6 28  1  1
  7 29  1  0
  8 30  1  0
 11 31  1  0
 14 32  1  0
 15 33  1  0
 16 34  1  0
 17 35  1  0
 18 36  1  0
M  ISO  8  19  13  20  13  21  13  22  13  23  13  24  13  25  13  26  13
M  ISO  8  27  13  28  13  29  14  30  14  31  14  32  14  33  14  34  14
M  ISO  2  35  14  36  14
M  END
>  <minimizedAffinity>  (1) 
-4.7105751

>  <minimizedRMSD>  (1) 
2.09032965

$$$$
