
     RDKit          3D

 42 45  0  0  1  0  0  0  0  0999 V2000
   32.3760   28.0570   48.9140 C   0  0  1  0  0  0  0  0  0  0  0  0
   31.2470   28.0160   48.3770 N   0  0  0  0  0  0  0  0  0  0  0  0
   30.1150   27.5340   48.6130 C   0  0  0  0  0  0  0  0  0  0  0  0
   30.2430   26.6650   47.5740 N   0  0  0  0  0  0  0  0  0  0  0  0
   31.5420   26.2770   47.3490 C   0  0  0  0  0  0  0  0  0  0  0  0
   31.6560   25.1710   46.4550 C   0  0  0  0  0  0  0  0  0  0  0  0
   32.9060   24.7100   46.2140 C   0  0  0  0  0  0  0  0  0  0  0  0
   34.0470   25.2180   46.7540 C   0  0  0  0  0  0  0  0  0  0  0  0
   33.7950   26.2790   47.5930 C   0  0  0  0  0  0  0  0  0  0  0  0
   32.6310   26.9450   48.0120 C   0  0  0  0  0  0  0  0  0  0  0  0
   35.8850   28.9660   49.8020 C   0  0  0  0  0  0  0  0  0  0  0  0
   36.1130   29.7550   48.7070 C   0  0  0  0  0  0  0  0  0  0  0  0
   35.0710   29.8800   47.7980 C   0  0  0  0  0  0  0  0  0  0  0  0
   33.9210   29.2110   48.0700 N   0  0  0  0  0  0  0  0  0  0  0  0
   33.7310   28.4440   49.1530 C   0  0  0  0  0  0  0  0  0  0  0  0
   34.7470   28.3880   49.9420 N   0  0  0  0  0  0  0  0  0  0  0  0
   35.2780   30.7220   46.6590 N   0  0  0  0  0  0  0  0  0  0  0  0
   37.3640   30.4140   48.5130 N   0  0  0  0  0  0  0  0  0  0  0  0
   38.1960   30.5740   47.3290 C   0  0  0  0  0  0  0  0  0  0  0  0
   38.3440   32.0790   47.2610 C   0  0  0  0  0  0  0  0  0  0  0  0
   38.5010   32.4390   48.7240 C   0  0  0  0  0  0  0  0  0  0  0  0
   38.1970   31.1410   49.4820 C   0  0  0  0  0  0  0  0  0  0  0  0
   32.1449   28.6082   49.8375 H   0  0  0  0  0  0  0  0  0  0  0  0
   31.4647   27.6043   47.4583 H   0  0  0  0  0  0  0  0  0  0  0  0
   30.0352   27.0451   49.5951 H   0  0  0  0  0  0  0  0  0  0  0  0
   29.2382   28.1959   48.6691 H   0  0  0  0  0  0  0  0  0  0  0  0
   29.4465   26.3315   47.0126 H   0  0  0  0  0  0  0  0  0  0  0  0
   30.7721   24.7154   45.9848 H   0  0  0  0  0  0  0  0  0  0  0  0
   33.0072   23.8569   45.5270 H   0  0  0  0  0  0  0  0  0  0  0  0
   35.0532   24.8262   46.5443 H   0  0  0  0  0  0  0  0  0  0  0  0
   34.7101   26.7003   48.0348 H   0  0  0  0  0  0  0  0  0  0  0  0
   36.6722   28.8279   50.5578 H   0  0  0  0  0  0  0  0  0  0  0  0
   36.1833   31.1950   46.5259 H   0  0  0  0  0  0  0  0  0  0  0  0
   34.5217   30.8549   45.9725 H   0  0  0  0  0  0  0  0  0  0  0  0
   39.1709   30.0802   47.4540 H   0  0  0  0  0  0  0  0  0  0  0  0
   37.7704   30.1250   46.4194 H   0  0  0  0  0  0  0  0  0  0  0  0
   39.2316   32.3687   46.6794 H   0  0  0  0  0  0  0  0  0  0  0  0
   37.5052   32.5880   46.7636 H   0  0  0  0  0  0  0  0  0  0  0  0
   39.5267   32.7778   48.9317 H   0  0  0  0  0  0  0  0  0  0  0  0
   37.8335   33.2605   49.0233 H   0  0  0  0  0  0  0  0  0  0  0  0
   37.6463   31.3406   50.4131 H   0  0  0  0  0  0  0  0  0  0  0  0
   39.0947   30.5900   49.7991 H   0  0  0  0  0  0  0  0  0  0  0  0
  1 15  1  0
  2  3  1  0
  2  1  1  0
  4  3  1  0
  5  4  1  0
  5 10  2  0
  6  5  1  0
  7  6  2  0
  7  8  1  0
  8  9  2  0
  9 10  1  0
 10  1  1  0
 11 16  2  0
 12 11  1  0
 13 14  1  0
 13 12  2  0
 14 15  2  0
 15 16  1  0
 17 13  1  0
 18 12  1  0
 18 22  1  0
 19 18  1  0
 20 19  1  0
 20 21  1  0
 21 22  1  0
  1 23  1  1
  2 24  1  0
  3 25  1  0
  3 26  1  0
  4 27  1  0
  6 28  1  0
  7 29  1  0
  8 30  1  0
  9 31  1  0
 11 32  1  0
 17 33  1  0
 17 34  1  0
 19 35  1  0
 19 36  1  0
 20 37  1  0
 20 38  1  0
 21 39  1  0
 21 40  1  0
 22 41  1  0
 22 42  1  0
M  ISO  8  23  13  24   5  25  13  26  13  28  14  29  14  30  14  31  14
M  ISO  8  32  14  35  13  36  13  37  13  38  13  39  13  40  13  41  13
M  ISO  1  42  13
M  END
>  <minimizedAffinity>  (1) 
-6.10890818

>  <minimizedRMSD>  (1) 
3.00140691

$$$$
