
     RDKit          3D

 41 43  0  0  1  0  0  0  0  0999 V2000
   33.7740   29.7050   45.0490 C   0  0  1  0  0  0  0  0  0  0  0  0
   32.9670   30.9120   44.9760 C   0  0  0  0  0  0  0  0  0  0  0  0
   32.7050   31.2260   43.5350 C   0  0  0  0  0  0  0  0  0  0  0  0
   33.9310   31.0510   42.7150 C   0  0  0  0  0  0  0  0  0  0  0  0
   35.2030   31.0020   43.4500 C   0  0  0  0  0  0  0  0  0  0  0  0
   35.2040   30.0740   44.6650 C   0  0  1  0  0  0  0  0  0  0  0  0
   34.0110   29.2220   48.7240 C   0  0  0  0  0  0  0  0  0  0  0  0
   33.9020   29.8760   47.4660 C   0  0  0  0  0  0  0  0  0  0  0  0
   33.8630   29.0410   46.3570 C   0  0  0  0  0  0  0  0  0  0  0  0
   33.9280   27.6640   46.5100 N   0  0  0  0  0  0  0  0  0  0  0  0
   34.0310   27.0950   47.7180 C   0  0  0  0  0  0  0  0  0  0  0  0
   34.0730   27.8670   48.8350 N   0  0  0  0  0  0  0  0  0  0  0  0
   37.3430   30.6660   46.1180 C   0  0  0  0  0  0  0  0  0  0  0  0
   38.0330   30.0600   45.2450 O   0  0  0  0  0  0  0  0  0  0  0  0
   35.9660   30.6620   45.7340 N   0  0  0  0  0  0  0  0  0  0  0  0
   38.6070   32.3660   47.2440 C   0  0  0  0  0  0  0  0  0  0  0  0
   37.6950   31.3220   47.3700 C   0  0  0  0  0  0  0  0  0  0  0  0
   37.2140   30.9990   48.6170 C   0  0  0  0  0  0  0  0  0  0  0  0
   37.6460   31.7190   49.7220 C   0  0  0  0  0  0  0  0  0  0  0  0
   38.5510   32.7630   49.6250 C   0  0  0  0  0  0  0  0  0  0  0  0
   39.0070   33.0530   48.3590 C   0  0  0  0  0  0  0  0  0  0  0  0
   39.6010   33.0800   44.9650 N   0  0  0  0  0  0  0  0  0  0  0  0
   39.1620   32.7720   45.9830 C   0  0  0  0  0  0  0  0  0  0  0  0
   33.2682   28.9962   44.3768 H   0  0  0  0  0  0  0  0  0  0  0  0
   32.0130   30.7520   45.4997 H   0  0  0  0  0  0  0  0  0  0  0  0
   33.4991   31.7489   45.4520 H   0  0  0  0  0  0  0  0  0  0  0  0
   31.9219   30.5520   43.1577 H   0  0  0  0  0  0  0  0  0  0  0  0
   32.3832   32.2752   43.4603 H   0  0  0  0  0  0  0  0  0  0  0  0
   33.9844   31.8919   42.0079 H   0  0  0  0  0  0  0  0  0  0  0  0
   33.8282   30.0645   42.2394 H   0  0  0  0  0  0  0  0  0  0  0  0
   35.9860   30.6601   42.7572 H   0  0  0  0  0  0  0  0  0  0  0  0
   35.3785   32.0174   43.8348 H   0  0  0  0  0  0  0  0  0  0  0  0
   35.7041   29.1254   44.4198 H   0  0  0  0  0  0  0  0  0  0  0  0
   34.0464   29.8321   49.6386 H   0  0  0  0  0  0  0  0  0  0  0  0
   33.8519   30.9713   47.3771 H   0  0  0  0  0  0  0  0  0  0  0  0
   34.0817   25.9997   47.8059 H   0  0  0  0  0  0  0  0  0  0  0  0
   35.3787   31.2120   46.3769 H   0  0  0  0  0  0  0  0  0  0  0  0
   36.4930   30.1770   48.7377 H   0  0  0  0  0  0  0  0  0  0  0  0
   37.2542   31.4499   50.7140 H   0  0  0  0  0  0  0  0  0  0  0  0
   38.8857   33.3273   50.5079 H   0  0  0  0  0  0  0  0  0  0  0  0
   39.7269   33.8757   48.2372 H   0  0  0  0  0  0  0  0  0  0  0  0
  1  9  1  0
  2  1  1  0
  3  2  1  0
  4  5  1  0
  4  3  1  0
  5  6  1  0
  6  1  1  0
  6 15  1  0
  7 12  2  0
  8  7  1  0
  9 10  1  0
  9  8  2  0
 10 11  2  0
 11 12  1  0
 13 17  1  0
 14 13  2  0
 15 13  1  0
 16 17  2  0
 16 21  1  0
 17 18  1  0
 18 19  2  0
 20 19  1  0
 21 20  2  0
 22 23  3  0
 23 16  1  0
  1 24  1  6
  2 25  1  0
  2 26  1  0
  3 27  1  0
  3 28  1  0
  4 29  1  0
  4 30  1  0
  5 31  1  0
  5 32  1  0
  6 33  1  6
  7 34  1  0
  8 35  1  0
 11 36  1  0
 15 37  1  0
 18 38  1  0
 19 39  1  0
 20 40  1  0
 21 41  1  0
M  ISO  8  24  13  25  13  26  13  27  13  28  13  29  13  30  13  31  13
M  ISO  8  32  13  33  13  34  14  35  14  36  14  38  14  39  14  40  14
M  ISO  1  41  14
M  END
>  <minimizedAffinity>  (1) 
-5.3893733

>  <minimizedRMSD>  (1) 
4.71521759

$$$$
