
     RDKit          3D

 43 45  0  0  1  0  0  0  0  0999 V2000
   33.8470   29.6490   45.2250 C   0  0  1  0  0  0  0  0  0  0  0  0
   33.0920   30.8910   45.3150 C   0  0  0  0  0  0  0  0  0  0  0  0
   32.9080   31.4480   43.9360 C   0  0  0  0  0  0  0  0  0  0  0  0
   34.1450   31.3060   43.1300 C   0  0  0  0  0  0  0  0  0  0  0  0
   35.3910   31.1130   43.9040 C   0  0  0  0  0  0  0  0  0  0  0  0
   35.3120   30.0020   44.9520 C   0  0  1  0  0  0  0  0  0  0  0  0
   33.8690   26.5970   47.3410 C   0  0  0  0  0  0  0  0  0  0  0  0
   33.8840   27.4210   46.1820 C   0  0  0  0  0  0  0  0  0  0  0  0
   33.8510   28.7900   46.4160 C   0  0  0  0  0  0  0  0  0  0  0  0
   33.8070   29.2850   47.7110 N   0  0  0  0  0  0  0  0  0  0  0  0
   33.7950   28.4680   48.7740 C   0  0  0  0  0  0  0  0  0  0  0  0
   33.8250   27.1100   48.5950 N   0  0  0  0  0  0  0  0  0  0  0  0
   37.4190   30.5530   46.4390 C   0  0  0  0  0  0  0  0  0  0  0  0
   38.1310   30.3710   45.4250 O   0  0  0  0  0  0  0  0  0  0  0  0
   36.0380   30.3800   46.1300 N   0  0  0  0  0  0  0  0  0  0  0  0
   37.7470   30.9050   47.8680 C   0  0  0  0  0  0  0  0  0  0  0  0
   38.2820   32.3270   47.8090 C   0  0  0  0  0  0  0  0  0  0  0  0
   38.1820   32.7220   49.2650 C   0  0  0  0  0  0  0  0  0  0  0  0
   36.9880   31.9300   49.8120 C   0  0  0  0  0  0  0  0  0  0  0  0
   36.4800   31.1050   48.6220 C   0  0  0  0  0  0  0  0  0  0  0  0
   33.3428   29.0790   44.4307 H   0  0  0  0  0  0  0  0  0  0  0  0
   32.1091   30.6937   45.7678 H   0  0  0  0  0  0  0  0  0  0  0  0
   33.6371   31.6142   45.9395 H   0  0  0  0  0  0  0  0  0  0  0  0
   32.0906   30.9071   43.4368 H   0  0  0  0  0  0  0  0  0  0  0  0
   32.6696   32.5184   44.0220 H   0  0  0  0  0  0  0  0  0  0  0  0
   34.2605   32.2163   42.5233 H   0  0  0  0  0  0  0  0  0  0  0  0
   34.0142   30.3901   42.5350 H   0  0  0  0  0  0  0  0  0  0  0  0
   36.1997   30.8665   43.2002 H   0  0  0  0  0  0  0  0  0  0  0  0
   35.5724   32.0505   44.4501 H   0  0  0  0  0  0  0  0  0  0  0  0
   35.7922   29.0875   44.5737 H   0  0  0  0  0  0  0  0  0  0  0  0
   33.8940   25.5045   47.2154 H   0  0  0  0  0  0  0  0  0  0  0  0
   33.9194   27.0014   45.1658 H   0  0  0  0  0  0  0  0  0  0  0  0
   33.7611   28.8881   49.7901 H   0  0  0  0  0  0  0  0  0  0  0  0
   35.4227   30.5691   46.9341 H   0  0  0  0  0  0  0  0  0  0  0  0
   38.4036   30.1395   48.3072 H   0  0  0  0  0  0  0  0  0  0  0  0
   39.3219   32.3547   47.4516 H   0  0  0  0  0  0  0  0  0  0  0  0
   37.7427   32.9904   47.1169 H   0  0  0  0  0  0  0  0  0  0  0  0
   39.1031   32.4526   49.8025 H   0  0  0  0  0  0  0  0  0  0  0  0
   38.0494   33.8068   49.3899 H   0  0  0  0  0  0  0  0  0  0  0  0
   37.3052   31.2699   50.6328 H   0  0  0  0  0  0  0  0  0  0  0  0
   36.2078   32.5887   50.2212 H   0  0  0  0  0  0  0  0  0  0  0  0
   35.7387   31.6612   48.0295 H   0  0  0  0  0  0  0  0  0  0  0  0
   35.9600   30.1758   48.8979 H   0  0  0  0  0  0  0  0  0  0  0  0
  1  2  1  0
  1  9  1  0
  3  2  1  0
  4  5  1  0
  4  3  1  0
  5  6  1  0
  6  1  1  0
  6 15  1  0
  7 12  2  0
  8  9  2  0
  8  7  1  0
  9 10  1  0
 10 11  2  0
 12 11  1  0
 13 16  1  0
 14 13  2  0
 15 13  1  0
 16 20  1  0
 17 16  1  0
 17 18  1  0
 18 19  1  0
 20 19  1  0
  1 21  1  6
  2 22  1  0
  2 23  1  0
  3 24  1  0
  3 25  1  0
  4 26  1  0
  4 27  1  0
  5 28  1  0
  5 29  1  0
  6 30  1  6
  7 31  1  0
  8 32  1  0
 11 33  1  0
 15 34  1  0
 16 35  1  0
 17 36  1  0
 17 37  1  0
 18 38  1  0
 18 39  1  0
 19 40  1  0
 19 41  1  0
 20 42  1  0
 20 43  1  0
M  ISO  8  21  13  22  13  23  13  24  13  25  13  26  13  27  13  28  13
M  ISO  8  29  13  30  13  31  14  32  14  33  14  35  13  36  13  37  13
M  ISO  6  38  13  39  13  40  13  41  13  42  13  43  13
M  END
>  <minimizedAffinity>  (1) 
-4.61144161

>  <minimizedRMSD>  (1) 
4.58769608

$$$$
