
     RDKit          3D

 34 37  0  0  0  0  0  0  0  0999 V2000
   34.0910   28.3260   49.0750 C   0  0  0  0  0  0  0  0  0  0  0  0
   34.5940   29.4160   48.3350 C   0  0  0  0  0  0  0  0  0  0  0  0
   33.9930   29.6730   47.1060 C   0  0  0  0  0  0  0  0  0  0  0  0
   32.9630   28.8750   46.6730 N   0  0  0  0  0  0  0  0  0  0  0  0
   32.5180   27.8350   47.4290 C   0  0  0  0  0  0  0  0  0  0  0  0
   33.0900   27.5800   48.6130 N   0  0  0  0  0  0  0  0  0  0  0  0
   35.9590   30.7080   49.9610 C   0  0  0  0  0  0  0  0  0  0  0  0
   35.6580   30.3200   48.6720 C   0  0  0  0  0  0  0  0  0  0  0  0
   36.4440   30.8500   47.6560 C   0  0  0  0  0  0  0  0  0  0  0  0
   37.4900   31.7240   47.8630 C   0  0  0  0  0  0  0  0  0  0  0  0
   38.3550   32.3420   47.0470 N   0  0  0  0  0  0  0  0  0  0  0  0
   39.1760   33.0950   47.8090 C   0  0  0  0  0  0  0  0  0  0  0  0
   38.8540   32.9800   49.1530 C   0  0  0  0  0  0  0  0  0  0  0  0
   37.7790   32.1030   49.1580 C   0  0  0  0  0  0  0  0  0  0  0  0
   37.0070   31.5840   50.1620 C   0  0  0  0  0  0  0  0  0  0  0  0
   33.4790   25.2640   45.9130 Br  0  0  0  0  0  0  0  0  0  0  0  0
   31.6860   25.8020   46.2990 C   0  0  0  0  0  0  0  0  0  0  0  0
   31.4290   26.9830   46.9860 C   0  0  0  0  0  0  0  0  0  0  0  0
   30.1120   27.2970   47.2210 C   0  0  0  0  0  0  0  0  0  0  0  0
   29.0510   26.5010   46.8100 C   0  0  0  0  0  0  0  0  0  0  0  0
   29.3420   25.3440   46.1340 C   0  0  0  0  0  0  0  0  0  0  0  0
   30.6730   25.0010   45.8810 C   0  0  0  0  0  0  0  0  0  0  0  0
   34.5345   28.0876   50.0530 H   0  0  0  0  0  0  0  0  0  0  0  0
   34.3415   30.5112   46.4848 H   0  0  0  0  0  0  0  0  0  0  0  0
   35.3755   30.3269   50.8121 H   0  0  0  0  0  0  0  0  0  0  0  0
   36.2173   30.5535   46.6212 H   0  0  0  0  0  0  0  0  0  0  0  0
   38.3875   32.2574   46.0210 H   0  0  0  0  0  0  0  0  0  0  0  0
   39.9929   33.7179   47.4158 H   0  0  0  0  0  0  0  0  0  0  0  0
   39.3368   33.4687   50.0121 H   0  0  0  0  0  0  0  0  0  0  0  0
   37.2362   31.8840   51.1952 H   0  0  0  0  0  0  0  0  0  0  0  0
   29.8865   28.2273   47.7629 H   0  0  0  0  0  0  0  0  0  0  0  0
   28.0104   26.7893   47.0200 H   0  0  0  0  0  0  0  0  0  0  0  0
   28.5291   24.6869   45.7914 H   0  0  0  0  0  0  0  0  0  0  0  0
   30.9020   24.0724   45.3376 H   0  0  0  0  0  0  0  0  0  0  0  0
  2  8  1  0
  2  1  2  0
  3  2  1  0
  4  3  2  0
  4  5  1  0
  5  6  2  0
  6  1  1  0
  7 15  2  0
  8  7  1  0
  9 10  1  0
  9  8  2  0
 10 14  2  0
 11 12  1  0
 11 10  1  0
 12 13  2  0
 13 14  1  0
 14 15  1  0
 16 17  1  0
 17 18  2  0
 18 19  1  0
 18  5  1  0
 20 19  2  0
 21 20  1  0
 22 21  2  0
 22 17  1  0
  1 23  1  0
  3 24  1  0
  7 25  1  0
  9 26  1  0
 11 27  1  0
 12 28  1  0
 13 29  1  0
 15 30  1  0
 19 31  1  0
 20 32  1  0
 21 33  1  0
 22 34  1  0
M  ISO  8  23  14  24  14  25  14  26  14  27   9  28  14  29  14  30  14
M  ISO  4  31  14  32  14  33  14  34  14
M  END
>  <minimizedAffinity>  (1) 
-6.09894753

>  <minimizedRMSD>  (1) 
6.04997253

$$$$
