
     RDKit          3D

 30 32  0  0  0  0  0  0  0  0999 V2000
   36.5940   31.1220   48.9400 C   0  0  0  0  0  0  0  0  0  0  0  0
   37.3050   31.5590   47.8010 C   0  0  0  0  0  0  0  0  0  0  0  0
   36.9490   31.0000   46.5610 C   0  0  0  0  0  0  0  0  0  0  0  0
   35.9450   30.0760   46.5210 N   0  0  0  0  0  0  0  0  0  0  0  0
   35.2910   29.6870   47.6410 C   0  0  0  0  0  0  0  0  0  0  0  0
   35.6230   30.2130   48.8320 N   0  0  0  0  0  0  0  0  0  0  0  0
   33.7850   29.3500   50.3720 Br  0  0  0  0  0  0  0  0  0  0  0  0
   33.4580   28.4300   48.7220 C   0  0  0  0  0  0  0  0  0  0  0  0
   34.2190   28.6980   47.6040 C   0  0  0  0  0  0  0  0  0  0  0  0
   33.9240   27.9940   46.4550 C   0  0  0  0  0  0  0  0  0  0  0  0
   32.9120   27.0450   46.3730 C   0  0  0  0  0  0  0  0  0  0  0  0
   32.1780   26.8140   47.5220 C   0  0  0  0  0  0  0  0  0  0  0  0
   32.4540   27.5050   48.6830 C   0  0  0  0  0  0  0  0  0  0  0  0
   38.3640   32.5490   47.9320 C   0  0  0  0  0  0  0  0  0  0  0  0
   39.2440   32.7480   46.8660 C   0  0  0  0  0  0  0  0  0  0  0  0
   40.2310   33.6780   46.9990 C   0  0  0  0  0  0  0  0  0  0  0  0
   40.3860   34.4300   48.1600 C   0  0  0  0  0  0  0  0  0  0  0  0
   39.4870   34.1690   49.1400 C   0  0  0  0  0  0  0  0  0  0  0  0
   38.4480   33.2600   49.1320 C   0  0  0  0  0  0  0  0  0  0  0  0
   36.8435   31.5358   49.9282 H   0  0  0  0  0  0  0  0  0  0  0  0
   37.4698   31.3016   45.6403 H   0  0  0  0  0  0  0  0  0  0  0  0
   34.5226   28.1948   45.5542 H   0  0  0  0  0  0  0  0  0  0  0  0
   32.7047   26.5033   45.4384 H   0  0  0  0  0  0  0  0  0  0  0  0
   31.3661   26.0719   47.5097 H   0  0  0  0  0  0  0  0  0  0  0  0
   31.8592   27.3091   49.5873 H   0  0  0  0  0  0  0  0  0  0  0  0
   39.1425   32.1660   45.9381 H   0  0  0  0  0  0  0  0  0  0  0  0
   40.9271   33.8395   46.1627 H   0  0  0  0  0  0  0  0  0  0  0  0
   41.1808   35.1819   48.2739 H   0  0  0  0  0  0  0  0  0  0  0  0
   39.5999   34.7583   50.0620 H   0  0  0  0  0  0  0  0  0  0  0  0
   37.7610   33.1116   49.9782 H   0  0  0  0  0  0  0  0  0  0  0  0
  2 14  1  0
  2  1  2  0
  3  2  1  0
  4  3  2  0
  4  5  1  0
  5  6  2  0
  6  1  1  0
  8  7  1  0
  9  5  1  0
  9  8  2  0
 10  9  1  0
 11 10  2  0
 11 12  1  0
 12 13  2  0
 13  8  1  0
 14 19  2  0
 15 16  2  0
 15 14  1  0
 16 17  1  0
 17 18  2  0
 19 18  1  0
  1 20  1  0
  3 21  1  0
 10 22  1  0
 11 23  1  0
 12 24  1  0
 13 25  1  0
 15 26  1  0
 16 27  1  0
 17 28  1  0
 18 29  1  0
 19 30  1  0
M  ISO  8  20  14  21  14  22  14  23  14  24  14  25  14  26  14  27  14
M  ISO  3  28  14  29  14  30  14
M  END
>  <minimizedAffinity>  (1) 
-5.2292881

>  <minimizedRMSD>  (1) 
2.72731781

$$$$
