
     RDKit          3D

 21 22  0  0  0  0  0  0  0  0999 V2000
   37.2750   29.4450   51.1190 Br  0  0  0  0  0  0  0  0  0  0  0  0
   35.9960   29.3180   49.7160 C   0  0  0  0  0  0  0  0  0  0  0  0
   36.0240   30.1960   48.6570 C   0  0  0  0  0  0  0  0  0  0  0  0
   35.0610   30.0380   47.6720 C   0  0  0  0  0  0  0  0  0  0  0  0
   34.0880   29.0600   47.7010 C   0  0  0  0  0  0  0  0  0  0  0  0
   34.1000   28.1990   48.7880 C   0  0  0  0  0  0  0  0  0  0  0  0
   35.0630   28.3370   49.7930 C   0  0  0  0  0  0  0  0  0  0  0  0
   37.8580   33.2440   49.4670 C   0  0  0  0  0  0  0  0  0  0  0  0
   38.8920   33.2760   48.4980 C   0  0  0  0  0  0  0  0  0  0  0  0
   38.9450   32.2390   47.5710 C   0  0  0  0  0  0  0  0  0  0  0  0
   38.0040   31.2480   47.6390 N   0  0  0  0  0  0  0  0  0  0  0  0
   37.0330   31.2510   48.5780 C   0  0  0  0  0  0  0  0  0  0  0  0
   36.9560   32.2530   49.4990 N   0  0  0  0  0  0  0  0  0  0  0  0
   39.7900   34.3200   48.5160 O   0  0  0  0  0  0  0  0  0  0  0  0
   35.0734   30.7320   46.8186 H   0  0  0  0  0  0  0  0  0  0  0  0
   33.3391   28.9678   46.9006 H   0  0  0  0  0  0  0  0  0  0  0  0
   33.3462   27.4012   48.8605 H   0  0  0  0  0  0  0  0  0  0  0  0
   35.0635   27.6468   50.6495 H   0  0  0  0  0  0  0  0  0  0  0  0
   37.7942   34.0520   50.2107 H   0  0  0  0  0  0  0  0  0  0  0  0
   39.7281   32.2166   46.7988 H   0  0  0  0  0  0  0  0  0  0  0  0
   40.5183   34.3580   47.8465 H   0  0  0  0  0  0  0  0  0  0  0  0
  2  7  2  0
  2  1  1  0
  3  2  1  0
  4  5  1  0
  4  3  2  0
  5  6  2  0
  6  7  1  0
  8 13  2  0
  9 14  1  0
  9  8  1  0
 10 11  1  0
 10  9  2  0
 11 12  2  0
 12  3  1  0
 12 13  1  0
  4 15  1  0
  5 16  1  0
  6 17  1  0
  7 18  1  0
  8 19  1  0
 10 20  1  0
 14 21  1  0
M  ISO  7  15  14  16  14  17  14  18  14  19  14  20  14  21   3
M  END
>  <minimizedAffinity>  (1) 
-5.76429558

>  <minimizedRMSD>  (1) 
0.129885495

$$$$
