
     RDKit          3D

 37 40  0  0  1  0  0  0  0  0999 V2000
   32.8670   29.0580   47.1890 C   0  0  1  0  0  0  0  0  0  0  0  0
   32.1370   28.9760   46.1770 N   0  0  0  0  0  0  0  0  0  0  0  0
   30.9090   28.9690   45.9160 C   0  0  0  0  0  0  0  0  0  0  0  0
   30.9210   27.6540   45.6470 N   0  0  0  0  0  0  0  0  0  0  0  0
   31.9260   26.9430   46.2540 C   0  0  0  0  0  0  0  0  0  0  0  0
   31.8360   25.5350   46.0330 C   0  0  0  0  0  0  0  0  0  0  0  0
   32.7920   24.7680   46.6010 C   0  0  0  0  0  0  0  0  0  0  0  0
   33.8270   25.2360   47.3600 C   0  0  0  0  0  0  0  0  0  0  0  0
   33.8000   26.6160   47.4980 C   0  0  0  0  0  0  0  0  0  0  0  0
   32.9200   27.6050   47.0090 C   0  0  0  0  0  0  0  0  0  0  0  0
   35.7760   29.4130   49.4890 C   0  0  0  0  0  0  0  0  0  0  0  0
   36.5810   30.1200   48.6170 C   0  0  0  0  0  0  0  0  0  0  0  0
   36.0270   30.3530   47.3840 C   0  0  0  0  0  0  0  0  0  0  0  0
   34.7780   29.8880   47.1320 N   0  0  0  0  0  0  0  0  0  0  0  0
   34.0290   29.2070   48.0080 C   0  0  0  0  0  0  0  0  0  0  0  0
   34.5900   29.0090   49.1570 N   0  0  0  0  0  0  0  0  0  0  0  0
   36.8250   31.0700   46.4290 N   0  0  0  0  0  0  0  0  0  0  0  0
   37.9390   30.5750   49.0190 C   0  0  0  0  0  0  0  0  0  0  0  0
   38.1120   31.9840   49.5160 C   0  0  0  0  0  0  0  0  0  0  0  0
   38.2620   30.8450   50.4240 C   0  0  0  0  0  0  0  0  0  0  0  0
   32.5897   30.0541   47.5644 H   0  0  0  0  0  0  0  0  0  0  0  0
   32.4734   29.7640   45.6054 H   0  0  0  0  0  0  0  0  0  0  0  0
   30.2749   29.2372   46.7739 H   0  0  0  0  0  0  0  0  0  0  0  0
   30.5161   29.6677   45.1627 H   0  0  0  0  0  0  0  0  0  0  0  0
   30.2261   27.2104   45.0296 H   0  0  0  0  0  0  0  0  0  0  0  0
   31.0276   25.0964   45.4296 H   0  0  0  0  0  0  0  0  0  0  0  0
   32.7324   23.6815   46.4397 H   0  0  0  0  0  0  0  0  0  0  0  0
   34.5954   24.5910   47.8110 H   0  0  0  0  0  0  0  0  0  0  0  0
   34.6240   27.0171   48.1064 H   0  0  0  0  0  0  0  0  0  0  0  0
   36.1534   29.1857   50.4969 H   0  0  0  0  0  0  0  0  0  0  0  0
   36.4504   31.2681   45.4902 H   0  0  0  0  0  0  0  0  0  0  0  0
   37.7718   31.3861   46.6830 H   0  0  0  0  0  0  0  0  0  0  0  0
   38.3845   29.9465   48.2338 H   0  0  0  0  0  0  0  0  0  0  0  0
   38.9927   32.5710   49.2163 H   0  0  0  0  0  0  0  0  0  0  0  0
   37.5015   32.8989   49.5027 H   0  0  0  0  0  0  0  0  0  0  0  0
   37.5053   30.6645   51.2017 H   0  0  0  0  0  0  0  0  0  0  0  0
   39.0551   30.5078   51.1076 H   0  0  0  0  0  0  0  0  0  0  0  0
  1 15  1  0
  2  1  1  0
  3  2  1  0
  4  3  1  0
  4  5  1  0
  5 10  2  0
  6  5  1  0
  6  7  2  0
  7  8  1  0
  8  9  2  0
 10  1  1  0
 10  9  1  0
 12 18  1  0
 12 11  2  0
 13 12  1  0
 14 13  2  0
 14 15  1  0
 15 16  2  0
 16 11  1  0
 17 13  1  0
 18 19  1  0
 18 20  1  0
 19 20  1  0
  1 21  1  1
  2 22  1  0
  3 23  1  0
  3 24  1  0
  4 25  1  0
  6 26  1  0
  7 27  1  0
  8 28  1  0
  9 29  1  0
 11 30  1  0
 17 31  1  0
 17 32  1  0
 18 33  1  0
 19 34  1  0
 19 35  1  0
 20 36  1  0
 20 37  1  0
M  ISO  8  21  13  22   5  23  13  24  13  26  14  27  14  28  14  29  14
M  ISO  6  30  14  33  13  34  13  35  13  36  13  37  13
M  END
>  <minimizedAffinity>  (1) 
-5.30200481

>  <minimizedRMSD>  (1) 
1.85863805

$$$$
