
     RDKit          3D

 24 25  0  0  0  0  0  0  0  0999 V2000
   37.3820   31.8180   49.2430 C   0  0  0  0  0  0  0  0  0  0  0  0
   38.2410   31.9980   48.1170 C   0  0  0  0  0  0  0  0  0  0  0  0
   37.8930   31.3680   46.9140 C   0  0  0  0  0  0  0  0  0  0  0  0
   36.7490   30.6150   46.8820 N   0  0  0  0  0  0  0  0  0  0  0  0
   35.9600   30.4720   47.9800 C   0  0  0  0  0  0  0  0  0  0  0  0
   36.2770   31.0700   49.1490 N   0  0  0  0  0  0  0  0  0  0  0  0
   35.3830   28.9180   50.6300 Br  0  0  0  0  0  0  0  0  0  0  0  0
   34.3480   28.9180   49.0230 C   0  0  0  0  0  0  0  0  0  0  0  0
   34.7500   29.6700   47.9350 C   0  0  0  0  0  0  0  0  0  0  0  0
   33.9420   29.6090   46.8220 C   0  0  0  0  0  0  0  0  0  0  0  0
   32.7900   28.8710   46.7150 C   0  0  0  0  0  0  0  0  0  0  0  0
   32.4320   28.1350   47.8310 C   0  0  0  0  0  0  0  0  0  0  0  0
   33.2230   28.1620   48.9960 C   0  0  0  0  0  0  0  0  0  0  0  0
   39.3650   32.7800   48.2720 O   0  0  0  0  0  0  0  0  0  0  0  0
   39.3050   34.0110   48.9610 C   0  0  0  0  0  0  0  0  0  0  0  0
   40.1300   34.8880   48.2910 F   0  0  0  0  0  0  0  0  0  0  0  0
   39.7810   33.9380   50.2560 F   0  0  0  0  0  0  0  0  0  0  0  0
   38.0140   34.5190   49.0340 F   0  0  0  0  0  0  0  0  0  0  0  0
   37.6319   32.3003   50.1995 H   0  0  0  0  0  0  0  0  0  0  0  0
   38.5226   31.4756   46.0184 H   0  0  0  0  0  0  0  0  0  0  0  0
   34.2450   30.2010   45.9458 H   0  0  0  0  0  0  0  0  0  0  0  0
   32.1862   28.8648   45.7956 H   0  0  0  0  0  0  0  0  0  0  0  0
   31.5191   27.5218   47.8079 H   0  0  0  0  0  0  0  0  0  0  0  0
   32.9299   27.5736   49.8780 H   0  0  0  0  0  0  0  0  0  0  0  0
  2 14  1  0
  2  1  2  0
  3  2  1  0
  4  3  2  0
  4  5  1  0
  5  6  2  0
  6  1  1  0
  8  7  1  0
  9  5  1  0
  9  8  2  0
 10  9  1  0
 11 10  2  0
 11 12  1  0
 12 13  2  0
 13  8  1  0
 14 15  1  0
 15 18  1  0
 15 17  1  0
 16 15  1  0
  1 19  1  0
  3 20  1  0
 10 21  1  0
 11 22  1  0
 12 23  1  0
 13 24  1  0
M  ISO  6  19  14  20  14  21  14  22  14  23  14  24  14
M  END
>  <minimizedAffinity>  (1) 
-5.47827101

>  <minimizedRMSD>  (1) 
1.82249594

$$$$
