
     RDKit          3D

 20 21  0  0  0  0  0  0  0  0999 V2000
   37.0130   31.4000   48.5590 N   0  0  0  0  0  0  0  0  0  0  0  0
   37.1850   32.1590   49.6590 C   0  0  0  0  0  0  0  0  0  0  0  0
   38.1540   33.1610   49.6770 C   0  0  0  0  0  0  0  0  0  0  0  0
   38.8620   33.2600   48.4950 C   0  0  0  0  0  0  0  0  0  0  0  0
   39.7610   34.1710   48.4770 O   0  0  0  0  0  0  0  0  0  0  0  0
   38.7180   32.5200   47.3800 N   0  0  0  0  0  0  0  0  0  0  0  0
   37.7560   31.5700   47.4460 C   0  0  0  0  0  0  0  0  0  0  0  0
   37.6000   30.8630   46.4130 O   0  0  0  0  0  0  0  0  0  0  0  0
   36.2060   29.2450   49.3610 C   0  0  0  0  0  0  0  0  0  0  0  0
   36.0300   30.3670   48.5130 C   0  0  0  0  0  0  0  0  0  0  0  0
   34.9050   30.3860   47.6890 C   0  0  0  0  0  0  0  0  0  0  0  0
   34.0430   29.3370   47.7400 N   0  0  0  0  0  0  0  0  0  0  0  0
   34.2310   28.2830   48.5540 C   0  0  0  0  0  0  0  0  0  0  0  0
   35.3120   28.2310   49.3690 N   0  0  0  0  0  0  0  0  0  0  0  0
   36.5582   31.9872   50.5465 H   0  0  0  0  0  0  0  0  0  0  0  0
   38.3368   33.8090   50.5468 H   0  0  0  0  0  0  0  0  0  0  0  0
   39.2961   32.6656   46.5400 H   0  0  0  0  0  0  0  0  0  0  0  0
   37.0835   29.1986   50.0227 H   0  0  0  0  0  0  0  0  0  0  0  0
   34.7194   31.2327   47.0118 H   0  0  0  0  0  0  0  0  0  0  0  0
   33.5029   27.4585   48.5581 H   0  0  0  0  0  0  0  0  0  0  0  0
  1  2  1  0
  2  3  2  0
  4  3  1  0
  5  4  2  0
  6  7  1  0
  6  4  1  0
  7  1  1  0
  8  7  2  0
  9 14  2  0
 10  1  1  0
 10  9  1  0
 11 12  1  0
 11 10  2  0
 12 13  2  0
 13 14  1  0
  2 15  1  0
  3 16  1  0
  6 17  1  0
  9 18  1  0
 11 19  1  0
 13 20  1  0
M  ISO  6  15  14  16  14  17   9  18  14  19  14  20  14
M  END
>  <minimizedAffinity>  (1) 
-4.72448063

>  <minimizedRMSD>  (1) 
3.18169451

$$$$
