
     RDKit          3D

 33 35  0  0  1  0  0  0  0  0999 V2000
   36.2250   29.4220   49.3000 C   0  0  0  0  0  0  0  0  0  0  0  0
   36.2180   30.4490   48.3370 C   0  0  0  0  0  0  0  0  0  0  0  0
   35.2760   30.3520   47.3260 C   0  0  0  0  0  0  0  0  0  0  0  0
   34.4250   29.2980   47.3130 N   0  0  0  0  0  0  0  0  0  0  0  0
   34.4540   28.3350   48.2410 C   0  0  0  0  0  0  0  0  0  0  0  0
   35.3640   28.3830   49.2580 N   0  0  0  0  0  0  0  0  0  0  0  0
   37.1680   31.4990   48.4700 N   0  0  0  0  0  0  0  0  0  0  0  0
   37.2390   32.2470   49.5760 C   0  0  0  0  0  0  0  0  0  0  0  0
   38.1880   33.2700   49.6620 C   0  0  0  0  0  0  0  0  0  0  0  0
   38.9780   33.3970   48.5500 C   0  0  0  0  0  0  0  0  0  0  0  0
   39.8550   34.3200   48.5970 O   0  0  0  0  0  0  0  0  0  0  0  0
   38.9320   32.6670   47.4300 N   0  0  0  0  0  0  0  0  0  0  0  0
   37.9900   31.6890   47.4050 C   0  0  0  0  0  0  0  0  0  0  0  0
   37.9300   30.9870   46.3530 O   0  0  0  0  0  0  0  0  0  0  0  0
   32.1120   27.6290   48.6550 C   0  0  2  0  0  0  0  0  0  0  0  0
   33.5020   27.2260   48.1600 C   0  0  1  0  0  0  0  0  0  0  0  0
   33.1880   26.8700   46.8490 O   0  0  0  0  0  0  0  0  0  0  0  0
   32.0930   26.0360   46.9450 C   0  0  0  0  0  0  0  0  0  0  0  0
   31.3140   26.4370   48.1640 C   0  0  2  0  0  0  0  0  0  0  0  0
   31.7210   28.7250   47.9070 O   0  0  0  0  0  0  0  0  0  0  0  0
   30.0000   26.7890   47.8760 O   0  0  0  0  0  0  0  0  0  0  0  0
   36.9597   29.4679   50.1174 H   0  0  0  0  0  0  0  0  0  0  0  0
   35.2196   31.1221   46.5426 H   0  0  0  0  0  0  0  0  0  0  0  0
   36.5533   32.0582   50.4151 H   0  0  0  0  0  0  0  0  0  0  0  0
   38.2914   33.9167   50.5458 H   0  0  0  0  0  0  0  0  0  0  0  0
   39.5692   32.8356   46.6385 H   0  0  0  0  0  0  0  0  0  0  0  0
   32.0220   27.8611   49.7265 H   0  0  0  0  0  0  0  0  0  0  0  0
   34.0013   26.4355   48.7395 H   0  0  0  0  0  0  0  0  0  0  0  0
   31.4641   26.1399   46.0485 H   0  0  0  0  0  0  0  0  0  0  0  0
   32.4154   24.9873   47.0238 H   0  0  0  0  0  0  0  0  0  0  0  0
   31.2084   25.6233   48.8966 H   0  0  0  0  0  0  0  0  0  0  0  0
   31.4581   29.4618   48.5137 H   0  0  0  0  0  0  0  0  0  0  0  0
   29.5014   26.9226   48.7208 H   0  0  0  0  0  0  0  0  0  0  0  0
  2  7  1  0
  2  1  2  0
  3  2  1  0
  4  3  2  0
  4  5  1  0
  5  6  2  0
  6  1  1  0
  7  8  1  0
  8  9  2  0
 10 11  2  0
 10  9  1  0
 12 10  1  0
 13 12  1  0
 13  7  1  0
 14 13  2  0
 15 20  1  0
 16  5  1  0
 16 15  1  0
 17 18  1  0
 17 16  1  0
 18 19  1  0
 19 21  1  0
 19 15  1  0
  1 22  1  0
  3 23  1  0
  8 24  1  0
  9 25  1  0
 12 26  1  0
 15 27  1  1
 16 28  1  1
 18 29  1  0
 18 30  1  0
 19 31  1  1
 20 32  1  0
 21 33  1  0
M  ISO  8  22  14  23  14  24  14  25  14  26   9  27  13  28  13  29  13
M  ISO  4  30  13  31  13  32   3  33   3
M  END
>  <minimizedAffinity>  (1) 
-5.95905685

>  <minimizedRMSD>  (1) 
1.46668565

$$$$
