
     RDKit          3D

 34 36  0  0  0  0  0  0  0  0999 V2000
   36.0580   29.2610   49.2120 C   0  0  0  0  0  0  0  0  0  0  0  0
   35.9710   30.3980   48.3540 C   0  0  0  0  0  0  0  0  0  0  0  0
   34.9110   30.4460   47.4490 C   0  0  0  0  0  0  0  0  0  0  0  0
   34.0270   29.4040   47.4430 N   0  0  0  0  0  0  0  0  0  0  0  0
   34.1260   28.3490   48.2540 C   0  0  0  0  0  0  0  0  0  0  0  0
   35.1370   28.2730   49.1370 N   0  0  0  0  0  0  0  0  0  0  0  0
   33.1680   27.2970   48.1930 N   0  0  0  0  0  0  0  0  0  0  0  0
   33.5160   26.0240   47.5690 C   0  0  0  0  0  0  0  0  0  0  0  0
   32.2960   25.1780   47.3710 C   0  0  0  0  0  0  0  0  0  0  0  0
   31.1090   25.8730   47.0150 N   0  0  0  0  0  0  0  0  0  0  0  0
   30.8410   27.0880   47.7060 C   0  0  0  0  0  0  0  0  0  0  0  0
   31.8420   27.4800   48.7470 C   0  0  0  0  0  0  0  0  0  0  0  0
   36.9670   31.4040   48.4780 N   0  0  0  0  0  0  0  0  0  0  0  0
   37.1190   32.1090   49.6110 C   0  0  0  0  0  0  0  0  0  0  0  0
   38.1070   33.0920   49.7010 C   0  0  0  0  0  0  0  0  0  0  0  0
   38.8540   33.2300   48.5510 C   0  0  0  0  0  0  0  0  0  0  0  0
   39.7710   34.1130   48.5770 O   0  0  0  0  0  0  0  0  0  0  0  0
   38.7280   32.5450   47.4090 N   0  0  0  0  0  0  0  0  0  0  0  0
   37.7470   31.6050   47.3930 C   0  0  0  0  0  0  0  0  0  0  0  0
   37.6150   30.9490   46.3170 O   0  0  0  0  0  0  0  0  0  0  0  0
   36.8798   29.1874   49.9395 H   0  0  0  0  0  0  0  0  0  0  0  0
   34.7903   31.2961   46.7615 H   0  0  0  0  0  0  0  0  0  0  0  0
   33.9835   26.2170   46.5922 H   0  0  0  0  0  0  0  0  0  0  0  0
   34.2142   25.4873   48.2281 H   0  0  0  0  0  0  0  0  0  0  0  0
   32.5144   24.4535   46.5727 H   0  0  0  0  0  0  0  0  0  0  0  0
   32.0900   24.7197   48.3495 H   0  0  0  0  0  0  0  0  0  0  0  0
   31.1669   26.0929   46.0104 H   0  0  0  0  0  0  0  0  0  0  0  0
   30.7943   27.8964   46.9615 H   0  0  0  0  0  0  0  0  0  0  0  0
   29.8974   26.9222   48.2465 H   0  0  0  0  0  0  0  0  0  0  0  0
   31.7201   26.8463   49.6378 H   0  0  0  0  0  0  0  0  0  0  0  0
   31.6943   28.5302   49.0391 H   0  0  0  0  0  0  0  0  0  0  0  0
   36.4628   31.9114   50.4714 H   0  0  0  0  0  0  0  0  0  0  0  0
   38.2731   33.6983   50.6037 H   0  0  0  0  0  0  0  0  0  0  0  0
   39.3349   32.7187   46.5951 H   0  0  0  0  0  0  0  0  0  0  0  0
  2 13  1  0
  2  1  2  0
  3  2  1  0
  4  3  2  0
  4  5  1  0
  5  6  2  0
  6  1  1  0
  7  5  1  0
  7 12  1  0
  8  7  1  0
  9  8  1  0
 10  9  1  0
 10 11  1  0
 11 12  1  0
 13 14  1  0
 14 15  2  0
 16 17  2  0
 16 15  1  0
 18 16  1  0
 19 18  1  0
 19 13  1  0
 20 19  2  0
  1 21  1  0
  3 22  1  0
  8 23  1  0
  8 24  1  0
  9 25  1  0
  9 26  1  0
 10 27  1  0
 11 28  1  0
 11 29  1  0
 12 30  1  0
 12 31  1  0
 14 32  1  0
 15 33  1  0
 18 34  1  0
M  ISO  8  21  14  22  14  23  13  24  13  25  13  26  13  27   5  28  13
M  ISO  6  29  13  30  13  31  13  32  14  33  14  34   9
M  END
>  <minimizedAffinity>  (1) 
-5.71804905

>  <minimizedRMSD>  (1) 
0.306753039

$$$$
