
     RDKit          3D

 29 31  0  0  0  0  0  0  0  0999 V2000
   36.1870   29.4140   49.1960 C   0  0  0  0  0  0  0  0  0  0  0  0
   36.1860   30.4800   48.2630 C   0  0  0  0  0  0  0  0  0  0  0  0
   35.2420   30.4440   47.2510 C   0  0  0  0  0  0  0  0  0  0  0  0
   34.3770   29.4050   47.2050 N   0  0  0  0  0  0  0  0  0  0  0  0
   34.3890   28.4060   48.0930 C   0  0  0  0  0  0  0  0  0  0  0  0
   35.2930   28.4100   49.0890 N   0  0  0  0  0  0  0  0  0  0  0  0
   37.1620   31.5190   48.4320 N   0  0  0  0  0  0  0  0  0  0  0  0
   37.2250   32.2300   49.5810 C   0  0  0  0  0  0  0  0  0  0  0  0
   38.1860   33.2350   49.7130 C   0  0  0  0  0  0  0  0  0  0  0  0
   38.9860   33.3830   48.6090 C   0  0  0  0  0  0  0  0  0  0  0  0
   39.8830   34.2990   48.6970 O   0  0  0  0  0  0  0  0  0  0  0  0
   38.9420   32.6890   47.4600 N   0  0  0  0  0  0  0  0  0  0  0  0
   37.9900   31.7370   47.4040 C   0  0  0  0  0  0  0  0  0  0  0  0
   37.9250   31.0670   46.3310 O   0  0  0  0  0  0  0  0  0  0  0  0
   33.4310   27.3090   47.9950 C   0  0  0  0  0  0  0  0  0  0  0  0
   33.8050   26.1050   47.4410 C   0  0  0  0  0  0  0  0  0  0  0  0
   32.9490   25.0240   47.3150 C   0  0  0  0  0  0  0  0  0  0  0  0
   31.6600   25.2410   47.7960 C   0  0  0  0  0  0  0  0  0  0  0  0
   31.2740   26.4460   48.3530 C   0  0  0  0  0  0  0  0  0  0  0  0
   32.1720   27.4670   48.4430 N   0  0  0  0  0  0  0  0  0  0  0  0
   36.9225   29.4051   50.0139 H   0  0  0  0  0  0  0  0  0  0  0  0
   35.1962   31.2451   46.4986 H   0  0  0  0  0  0  0  0  0  0  0  0
   36.5260   32.0187   50.4037 H   0  0  0  0  0  0  0  0  0  0  0  0
   38.2914   33.8506   50.6185 H   0  0  0  0  0  0  0  0  0  0  0  0
   39.5884   32.8711   46.6790 H   0  0  0  0  0  0  0  0  0  0  0  0
   34.8382   25.9963   47.0795 H   0  0  0  0  0  0  0  0  0  0  0  0
   33.2625   24.0683   46.8697 H   0  0  0  0  0  0  0  0  0  0  0  0
   30.9242   24.4260   47.7305 H   0  0  0  0  0  0  0  0  0  0  0  0
   30.2464   26.5800   48.7219 H   0  0  0  0  0  0  0  0  0  0  0  0
  2  7  1  0
  2  1  2  0
  3  2  1  0
  4  3  2  0
  4  5  1  0
  5  6  2  0
  6  1  1  0
  7  8  1  0
  8  9  2  0
 10 11  2  0
 10  9  1  0
 12 10  1  0
 13 12  1  0
 13  7  1  0
 14 13  2  0
 15  5  1  0
 15 20  1  0
 16 15  2  0
 17 16  1  0
 17 18  2  0
 18 19  1  0
 19 20  2  0
  1 21  1  0
  3 22  1  0
  8 23  1  0
  9 24  1  0
 12 25  1  0
 16 26  1  0
 17 27  1  0
 18 28  1  0
 19 29  1  0
M  ISO  8  21  14  22  14  23  14  24  14  25   9  26  14  27  14  28  14
M  ISO  1  29  14
M  END
>  <minimizedAffinity>  (1) 
-5.7012372

>  <minimizedRMSD>  (1) 
0.847171187

$$$$
