
     RDKit          3D

 31 33  0  0  1  0  0  0  0  0999 V2000
   34.1530   30.0510   47.0560 C   0  0  1  0  0  0  0  0  0  0  0  0
   34.2030   30.1550   45.8070 N   0  0  0  0  0  0  0  0  0  0  0  0
   33.4690   30.5240   44.8620 C   0  0  0  0  0  0  0  0  0  0  0  0
   33.1970   29.2740   44.4830 N   0  0  0  0  0  0  0  0  0  0  0  0
   33.4150   28.3010   45.4170 C   0  0  0  0  0  0  0  0  0  0  0  0
   33.1160   26.9860   44.9670 C   0  0  0  0  0  0  0  0  0  0  0  0
   33.3210   25.9750   45.8410 C   0  0  0  0  0  0  0  0  0  0  0  0
   33.7890   26.1170   47.1110 C   0  0  0  0  0  0  0  0  0  0  0  0
   34.0450   27.4390   47.4360 C   0  0  0  0  0  0  0  0  0  0  0  0
   33.9100   28.6410   46.7080 C   0  0  0  0  0  0  0  0  0  0  0  0
   35.0940   29.5560   50.6290 C   0  0  0  0  0  0  0  0  0  0  0  0
   36.4380   29.8460   50.4830 C   0  0  0  0  0  0  0  0  0  0  0  0
   36.8130   30.1490   49.1950 C   0  0  0  0  0  0  0  0  0  0  0  0
   35.8780   30.1390   48.2180 N   0  0  0  0  0  0  0  0  0  0  0  0
   34.5840   29.8520   48.4030 C   0  0  0  0  0  0  0  0  0  0  0  0
   34.2650   29.5720   49.6240 N   0  0  0  0  0  0  0  0  0  0  0  0
   38.2080   30.4520   48.9800 N   0  0  0  0  0  0  0  0  0  0  0  0
   37.5280   29.8110   51.8910 S   0  0  0  0  0  0  0  0  0  0  0  0
   33.9713   31.0943   47.3533 H   0  0  0  0  0  0  0  0  0  0  0  0
   35.0270   30.7598   45.6803 H   0  0  0  0  0  0  0  0  0  0  0  0
   32.5807   31.0824   45.1924 H   0  0  0  0  0  0  0  0  0  0  0  0
   33.8793   31.2226   44.1180 H   0  0  0  0  0  0  0  0  0  0  0  0
   32.8431   29.0552   43.5408 H   0  0  0  0  0  0  0  0  0  0  0  0
   32.7346   26.7993   43.9523 H   0  0  0  0  0  0  0  0  0  0  0  0
   33.0910   24.9555   45.4979 H   0  0  0  0  0  0  0  0  0  0  0  0
   33.9464   25.2759   47.8022 H   0  0  0  0  0  0  0  0  0  0  0  0
   34.4270   27.5792   48.4580 H   0  0  0  0  0  0  0  0  0  0  0  0
   34.7112   29.3029   51.6287 H   0  0  0  0  0  0  0  0  0  0  0  0
   38.5445   30.6859   48.0350 H   0  0  0  0  0  0  0  0  0  0  0  0
   38.8668   30.4343   49.7716 H   0  0  0  0  0  0  0  0  0  0  0  0
   36.7869   29.8348   53.0430 H   0  0  0  0  0  0  0  0  0  0  0  0
  1 15  1  0
  2  1  1  0
  3  2  1  0
  4  3  1  0
  4  5  1  0
  5 10  2  0
  6  5  1  0
  6  7  2  0
  7  8  1  0
  8  9  2  0
 10  1  1  0
 10  9  1  0
 12 11  2  0
 12 18  1  0
 13 12  1  0
 14 15  1  0
 14 13  2  0
 15 16  2  0
 16 11  1  0
 17 13  1  0
  1 19  1  1
  2 20  1  0
  3 21  1  0
  3 22  1  0
  4 23  1  0
  6 24  1  0
  7 25  1  0
  8 26  1  0
  9 27  1  0
 11 28  1  0
 17 29  1  0
 17 30  1  0
 18 31  1  0
M  ISO  8  19  13  20   5  21  13  22  13  24  14  25  14  26  14  27  14
M  ISO  2  28  14  31  11
M  END
>  <minimizedAffinity>  (1) 
-4.66056061

>  <minimizedRMSD>  (1) 
1.16915691

$$$$
