
     RDKit          3D

 27 29  0  0  0  0  0  0  0  0999 V2000
   37.6490   31.7980   48.4240 N   0  0  0  0  0  0  0  0  0  0  0  0
   37.8060   32.6540   49.4620 C   0  0  0  0  0  0  0  0  0  0  0  0
   38.7390   33.6880   49.3850 C   0  0  0  0  0  0  0  0  0  0  0  0
   39.4320   33.7150   48.1940 C   0  0  0  0  0  0  0  0  0  0  0  0
   40.2900   34.6510   48.1010 O   0  0  0  0  0  0  0  0  0  0  0  0
   39.2980   32.8800   47.1490 N   0  0  0  0  0  0  0  0  0  0  0  0
   38.3710   31.9060   47.3030 C   0  0  0  0  0  0  0  0  0  0  0  0
   38.2330   31.1100   46.3280 O   0  0  0  0  0  0  0  0  0  0  0  0
   36.8890   29.7410   49.4830 C   0  0  0  0  0  0  0  0  0  0  0  0
   36.7020   30.7300   48.4740 C   0  0  0  0  0  0  0  0  0  0  0  0
   35.6230   30.5950   47.6130 C   0  0  0  0  0  0  0  0  0  0  0  0
   34.8010   29.5250   47.7780 N   0  0  0  0  0  0  0  0  0  0  0  0
   34.9940   28.5950   48.7410 C   0  0  0  0  0  0  0  0  0  0  0  0
   36.0310   28.6980   49.5920 N   0  0  0  0  0  0  0  0  0  0  0  0
   34.0260   27.4640   48.8260 C   0  0  0  0  0  0  0  0  0  0  0  0
   33.6690   26.6580   47.6380 C   0  0  0  0  0  0  0  0  0  0  0  0
   32.6410   27.6140   48.3140 C   0  0  0  0  0  0  0  0  0  0  0  0
   37.1955   32.5333   50.3690 H   0  0  0  0  0  0  0  0  0  0  0  0
   38.9056   34.4119   50.1964 H   0  0  0  0  0  0  0  0  0  0  0  0
   39.8610   32.9748   46.2917 H   0  0  0  0  0  0  0  0  0  0  0  0
   37.7367   29.8251   50.1789 H   0  0  0  0  0  0  0  0  0  0  0  0
   35.4376   31.3332   46.8188 H   0  0  0  0  0  0  0  0  0  0  0  0
   34.4535   27.2079   49.8066 H   0  0  0  0  0  0  0  0  0  0  0  0
   33.5510   25.5677   47.7230 H   0  0  0  0  0  0  0  0  0  0  0  0
   34.0747   26.5290   46.6237 H   0  0  0  0  0  0  0  0  0  0  0  0
   32.3325   28.5425   47.8113 H   0  0  0  0  0  0  0  0  0  0  0  0
   31.6295   27.5142   48.7347 H   0  0  0  0  0  0  0  0  0  0  0  0
  1 10  1  0
  1  2  1  0
  3  2  2  0
  4  3  1  0
  5  4  2  0
  6  7  1  0
  6  4  1  0
  7  1  1  0
  8  7  2  0
  9 14  2  0
 10  9  1  0
 11 12  1  0
 11 10  2  0
 12 13  2  0
 13 15  1  0
 13 14  1  0
 16 17  1  0
 16 15  1  0
 17 15  1  0
  2 18  1  0
  3 19  1  0
  6 20  1  0
  9 21  1  0
 11 22  1  0
 15 23  1  0
 16 24  1  0
 16 25  1  0
 17 26  1  0
 17 27  1  0
M  ISO  8  18  14  19  14  20   9  21  14  22  14  23  13  24  13  25  13
M  ISO  2  26  13  27  13
M  END
>  <minimizedAffinity>  (1) 
-5.40504026

>  <minimizedRMSD>  (1) 
0.803598523

$$$$
