
     RDKit          3D

 33 35  0  0  0  0  0  0  0  0999 V2000
   35.6930   28.9100   49.3850 C   0  0  0  0  0  0  0  0  0  0  0  0
   35.8520   29.9510   48.4430 C   0  0  0  0  0  0  0  0  0  0  0  0
   35.1460   29.8370   47.2480 C   0  0  0  0  0  0  0  0  0  0  0  0
   34.3540   28.7480   47.0570 N   0  0  0  0  0  0  0  0  0  0  0  0
   34.2180   27.7740   47.9640 C   0  0  0  0  0  0  0  0  0  0  0  0
   34.8880   27.8560   49.1270 N   0  0  0  0  0  0  0  0  0  0  0  0
   36.7100   31.0290   48.7720 N   0  0  0  0  0  0  0  0  0  0  0  0
   36.4110   31.8800   49.7730 C   0  0  0  0  0  0  0  0  0  0  0  0
   37.2740   32.9340   50.0790 C   0  0  0  0  0  0  0  0  0  0  0  0
   38.3940   32.9840   49.2760 C   0  0  0  0  0  0  0  0  0  0  0  0
   39.1970   33.9410   49.5370 O   0  0  0  0  0  0  0  0  0  0  0  0
   38.7150   32.1550   48.2770 N   0  0  0  0  0  0  0  0  0  0  0  0
   37.8350   31.1560   48.0360 C   0  0  0  0  0  0  0  0  0  0  0  0
   38.1140   30.3620   47.1020 O   0  0  0  0  0  0  0  0  0  0  0  0
   31.9720   26.7210   47.7890 C   0  0  0  0  0  0  0  0  0  0  0  0
   33.3400   26.6530   47.6480 C   0  0  0  0  0  0  0  0  0  0  0  0
   33.9180   25.4860   47.1930 C   0  0  0  0  0  0  0  0  0  0  0  0
   33.2070   24.3490   46.8570 C   0  0  0  0  0  0  0  0  0  0  0  0
   31.8370   24.4000   46.9930 C   0  0  0  0  0  0  0  0  0  0  0  0
   31.2630   25.5640   47.4470 C   0  0  0  0  0  0  0  0  0  0  0  0
   31.2150   28.1690   48.3590 S   0  0  0  0  0  0  0  0  0  0  0  0
   30.0700   28.6100   47.4860 O   0  0  0  0  0  0  0  0  0  0  0  0
   30.5830   27.8280   49.7010 O   0  0  0  0  0  0  0  0  0  0  0  0
   36.2325   28.9584   50.3424 H   0  0  0  0  0  0  0  0  0  0  0  0
   35.2274   30.6133   46.4730 H   0  0  0  0  0  0  0  0  0  0  0  0
   35.4847   31.7440   50.3505 H   0  0  0  0  0  0  0  0  0  0  0  0
   37.0789   33.6567   50.8850 H   0  0  0  0  0  0  0  0  0  0  0  0
   39.5776   32.2698   47.7259 H   0  0  0  0  0  0  0  0  0  0  0  0
   35.0129   25.4584   47.0912 H   0  0  0  0  0  0  0  0  0  0  0  0
   33.7138   23.4418   46.4963 H   0  0  0  0  0  0  0  0  0  0  0  0
   31.2152   23.5276   46.7435 H   0  0  0  0  0  0  0  0  0  0  0  0
   30.1680   25.5874   47.5487 H   0  0  0  0  0  0  0  0  0  0  0  0
   32.1641   29.1564   48.3943 H   0  0  0  0  0  0  0  0  0  0  0  0
  2  7  1  0
  2  1  2  0
  3  2  1  0
  4  3  2  0
  4  5  1  0
  5  6  2  0
  6  1  1  0
  7  8  1  0
  8  9  2  0
 10 11  2  0
 10  9  1  0
 12 10  1  0
 13 12  1  0
 13  7  1  0
 14 13  2  0
 15 21  1  0
 16 15  2  0
 16  5  1  0
 17 16  1  0
 18 19  1  0
 18 17  2  0
 19 20  2  0
 20 15  1  0
 21 23  2  0
 22 21  2  0
  1 24  1  0
  3 25  1  0
  8 26  1  0
  9 27  1  0
 12 28  1  0
 17 29  1  0
 18 30  1  0
 19 31  1  0
 20 32  1  0
 21 33  1  0
M  ISO  8  24  14  25  14  26  14  27  14  28   9  29  14  30  14  31  14
M  ISO  2  32  14  33  11
M  END
>  <minimizedAffinity>  (1) 
-5.3377943

>  <minimizedRMSD>  (1) 
1.39064634

$$$$
