
     RDKit          3D

 23 24  0  0  0  0  0  0  0  0999 V2000
   36.1630   29.3930   49.1900 C   0  0  0  0  0  0  0  0  0  0  0  0
   36.1590   30.4580   48.2400 C   0  0  0  0  0  0  0  0  0  0  0  0
   35.2270   30.4270   47.2110 C   0  0  0  0  0  0  0  0  0  0  0  0
   34.3630   29.3730   47.1700 N   0  0  0  0  0  0  0  0  0  0  0  0
   34.3740   28.3810   48.0640 C   0  0  0  0  0  0  0  0  0  0  0  0
   35.2760   28.3790   49.0880 N   0  0  0  0  0  0  0  0  0  0  0  0
   37.1270   31.4880   48.4190 N   0  0  0  0  0  0  0  0  0  0  0  0
   37.2120   32.2000   49.5510 C   0  0  0  0  0  0  0  0  0  0  0  0
   38.1580   33.1980   49.7080 C   0  0  0  0  0  0  0  0  0  0  0  0
   38.9700   33.3580   48.5890 C   0  0  0  0  0  0  0  0  0  0  0  0
   39.8550   34.2690   48.6960 O   0  0  0  0  0  0  0  0  0  0  0  0
   38.9120   32.6680   47.4470 N   0  0  0  0  0  0  0  0  0  0  0  0
   37.9630   31.7180   47.3810 C   0  0  0  0  0  0  0  0  0  0  0  0
   37.8980   31.0570   46.3040 O   0  0  0  0  0  0  0  0  0  0  0  0
   33.3850   27.2590   47.9430 C   0  0  0  0  0  0  0  0  0  0  0  0
   34.0040   26.0260   48.0200 F   0  0  0  0  0  0  0  0  0  0  0  0
   32.4160   27.3930   48.9430 F   0  0  0  0  0  0  0  0  0  0  0  0
   32.6880   27.3870   46.7460 F   0  0  0  0  0  0  0  0  0  0  0  0
   36.8941   29.3977   50.0119 H   0  0  0  0  0  0  0  0  0  0  0  0
   35.1872   31.2252   46.4551 H   0  0  0  0  0  0  0  0  0  0  0  0
   36.5142   31.9865   50.3741 H   0  0  0  0  0  0  0  0  0  0  0  0
   38.2577   33.8019   50.6220 H   0  0  0  0  0  0  0  0  0  0  0  0
   39.5554   32.8525   46.6641 H   0  0  0  0  0  0  0  0  0  0  0  0
  2  7  1  0
  2  1  2  0
  3  2  1  0
  4  3  2  0
  4  5  1  0
  5  6  2  0
  6  1  1  0
  7  8  1  0
  8  9  2  0
 10 11  2  0
 10  9  1  0
 12 10  1  0
 13 12  1  0
 13  7  1  0
 14 13  2  0
 15 16  1  0
 15  5  1  0
 15 17  1  0
 18 15  1  0
  1 19  1  0
  3 20  1  0
  8 21  1  0
  9 22  1  0
 12 23  1  0
M  ISO  5  19  14  20  14  21  14  22  14  23   9
M  END
>  <minimizedAffinity>  (1) 
-5.29277706

>  <minimizedRMSD>  (1) 
0.602845371

$$$$
