
     RDKit          3D

 22 23  0  0  0  0  0  0  0  0999 V2000
   37.2680   31.5660   48.4450 N   0  0  0  0  0  0  0  0  0  0  0  0
   37.3800   32.3490   49.5480 C   0  0  0  0  0  0  0  0  0  0  0  0
   38.3380   33.3640   49.5750 C   0  0  0  0  0  0  0  0  0  0  0  0
   39.0870   33.4460   48.4280 C   0  0  0  0  0  0  0  0  0  0  0  0
   39.9680   34.3690   48.4350 O   0  0  0  0  0  0  0  0  0  0  0  0
   38.9950   32.6860   47.3290 N   0  0  0  0  0  0  0  0  0  0  0  0
   38.0480   31.7240   47.3690 C   0  0  0  0  0  0  0  0  0  0  0  0
   37.9390   30.9890   46.3430 O   0  0  0  0  0  0  0  0  0  0  0  0
   36.4100   29.4490   49.3140 C   0  0  0  0  0  0  0  0  0  0  0  0
   36.3000   30.5220   48.3880 C   0  0  0  0  0  0  0  0  0  0  0  0
   35.2430   30.4730   47.4820 C   0  0  0  0  0  0  0  0  0  0  0  0
   34.3830   29.4180   47.5290 N   0  0  0  0  0  0  0  0  0  0  0  0
   34.5150   28.4130   48.4230 C   0  0  0  0  0  0  0  0  0  0  0  0
   35.5250   28.4310   49.3110 N   0  0  0  0  0  0  0  0  0  0  0  0
   33.5440   27.3240   48.3990 C   0  0  0  0  0  0  0  0  0  0  0  0
   32.3520   27.5770   48.7140 O   0  0  0  0  0  0  0  0  0  0  0  0
   36.7213   32.1851   50.4136 H   0  0  0  0  0  0  0  0  0  0  0  0
   38.4793   34.0351   50.4350 H   0  0  0  0  0  0  0  0  0  0  0  0
   39.6042   32.8255   46.5102 H   0  0  0  0  0  0  0  0  0  0  0  0
   37.2312   29.4489   50.0458 H   0  0  0  0  0  0  0  0  0  0  0  0
   35.1051   31.2737   46.7404 H   0  0  0  0  0  0  0  0  0  0  0  0
   33.8467   26.3060   48.1124 H   0  0  0  0  0  0  0  0  0  0  0  0
  1  2  1  0
  2  3  2  0
  4  5  2  0
  4  3  1  0
  6  7  1  0
  6  4  1  0
  7  1  1  0
  8  7  2  0
 10  1  1  0
 10  9  2  0
 11 12  2  0
 11 10  1  0
 12 13  1  0
 13 14  2  0
 14  9  1  0
 15 13  1  0
 15 16  2  0
  2 17  1  0
  3 18  1  0
  6 19  1  0
  9 20  1  0
 11 21  1  0
 15 22  1  0
M  ISO  6  17  14  18  14  19   9  20  14  21  14  22   6
M  END
>  <minimizedAffinity>  (1) 
-4.89884377

>  <minimizedRMSD>  (1) 
0.468450397

$$$$
