
     RDKit          3D

 13 13  0  0  0  0  0  0  0  0999 V2000
   37.3000   30.1940   51.4260 C   0  0  0  0  0  0  0  0  0  0  0  0
   38.0980   30.7240   50.3990 C   0  0  0  0  0  0  0  0  0  0  0  0
   37.7380   30.4140   49.0850 C   0  0  0  0  0  0  0  0  0  0  0  0
   36.6500   29.6280   48.8510 N   0  0  0  0  0  0  0  0  0  0  0  0
   35.9040   29.1370   49.8810 C   0  0  0  0  0  0  0  0  0  0  0  0
   36.2390   29.4250   51.1450 N   0  0  0  0  0  0  0  0  0  0  0  0
   34.7410   28.2900   49.4700 C   0  0  0  0  0  0  0  0  0  0  0  0
   37.5491   30.4130   52.4748 H   0  0  0  0  0  0  0  0  0  0  0  0
   38.9702   31.3569   50.6199 H   0  0  0  0  0  0  0  0  0  0  0  0
   38.3302   30.8027   48.2434 H   0  0  0  0  0  0  0  0  0  0  0  0
   34.2257   27.9147   50.3665 H   0  0  0  0  0  0  0  0  0  0  0  0
   34.0424   28.8923   48.8707 H   0  0  0  0  0  0  0  0  0  0  0  0
   35.0999   27.4403   48.8707 H   0  0  0  0  0  0  0  0  0  0  0  0
  2  1  2  0
  3  2  1  0
  4  3  2  0
  4  5  1  0
  5  6  2  0
  6  1  1  0
  7  5  1  0
  1  8  1  0
  2  9  1  0
  3 10  1  0
  7 11  1  0
  7 12  1  0
  7 13  1  0
M  ISO  6   8  14   9  14  10  14  11   8  12   8  13   8
M  END
>  <minimizedAffinity>  (1) 
-3.39723396

>  <minimizedRMSD>  (1) 
0.0926726088

$$$$
