
     RDKit          3D

 31 33  0  0  0  0  0  0  0  0999 V2000
   35.4970   28.9190   49.1610 C   0  0  0  0  0  0  0  0  0  0  0  0
   35.4290   30.0960   48.3940 C   0  0  0  0  0  0  0  0  0  0  0  0
   34.3310   30.2480   47.5420 C   0  0  0  0  0  0  0  0  0  0  0  0
   33.3910   29.2710   47.4890 N   0  0  0  0  0  0  0  0  0  0  0  0
   33.4880   28.1590   48.2370 C   0  0  0  0  0  0  0  0  0  0  0  0
   34.5500   27.9690   49.0870 N   0  0  0  0  0  0  0  0  0  0  0  0
   36.4670   31.0490   48.5280 N   0  0  0  0  0  0  0  0  0  0  0  0
   36.6390   31.7570   49.6520 C   0  0  0  0  0  0  0  0  0  0  0  0
   37.6790   32.6830   49.7310 C   0  0  0  0  0  0  0  0  0  0  0  0
   38.4500   32.7850   48.6130 C   0  0  0  0  0  0  0  0  0  0  0  0
   39.4020   33.6230   48.6630 O   0  0  0  0  0  0  0  0  0  0  0  0
   38.3100   32.1020   47.4840 N   0  0  0  0  0  0  0  0  0  0  0  0
   37.2840   31.2050   47.4430 C   0  0  0  0  0  0  0  0  0  0  0  0
   37.1320   30.5450   46.3770 O   0  0  0  0  0  0  0  0  0  0  0  0
   32.5400   27.1300   48.2120 O   0  0  0  0  0  0  0  0  0  0  0  0
   31.2060   27.5600   48.2480 C   0  0  0  0  0  0  0  0  0  0  0  0
   30.7710   27.7060   49.5650 C   0  0  0  0  0  0  0  0  0  0  0  0
   29.4850   28.1230   49.8430 C   0  0  0  0  0  0  0  0  0  0  0  0
   28.6240   28.3980   48.7770 C   0  0  0  0  0  0  0  0  0  0  0  0
   29.0730   28.2480   47.4790 C   0  0  0  0  0  0  0  0  0  0  0  0
   30.3510   27.8330   47.2000 C   0  0  0  0  0  0  0  0  0  0  0  0
   36.3495   28.7722   49.8405 H   0  0  0  0  0  0  0  0  0  0  0  0
   34.2302   31.1504   46.9210 H   0  0  0  0  0  0  0  0  0  0  0  0
   35.9639   31.6090   50.5078 H   0  0  0  0  0  0  0  0  0  0  0  0
   37.8632   33.2874   50.6314 H   0  0  0  0  0  0  0  0  0  0  0  0
   38.9417   32.2418   46.6826 H   0  0  0  0  0  0  0  0  0  0  0  0
   31.4615   27.4861   50.3926 H   0  0  0  0  0  0  0  0  0  0  0  0
   29.1445   28.2366   50.8828 H   0  0  0  0  0  0  0  0  0  0  0  0
   27.5940   28.7322   48.9704 H   0  0  0  0  0  0  0  0  0  0  0  0
   28.3877   28.4671   46.6469 H   0  0  0  0  0  0  0  0  0  0  0  0
   30.6879   27.7200   46.1590 H   0  0  0  0  0  0  0  0  0  0  0  0
  2  7  1  0
  2  1  2  0
  3  2  1  0
  4  3  2  0
  4  5  1  0
  5  6  2  0
  6  1  1  0
  7  8  1  0
  8  9  2  0
 10 11  2  0
 10  9  1  0
 12 10  1  0
 13 12  1  0
 13  7  1  0
 14 13  2  0
 15  5  1  0
 15 16  1  0
 16 17  2  0
 17 18  1  0
 19 18  2  0
 20 19  1  0
 21 20  2  0
 21 16  1  0
  1 22  1  0
  3 23  1  0
  8 24  1  0
  9 25  1  0
 12 26  1  0
 17 27  1  0
 18 28  1  0
 19 29  1  0
 20 30  1  0
 21 31  1  0
M  ISO  8  22  14  23  14  24  14  25  14  26   9  27  14  28  14  29  14
M  ISO  2  30  14  31  14
M  END
>  <minimizedAffinity>  (1) 
-5.74421406

>  <minimizedRMSD>  (1) 
1.43472433

$$$$
