
     RDKit          3D

 33 35  0  0  1  0  0  0  0  0999 V2000
   36.1140   29.2280   49.3250 C   0  0  0  0  0  0  0  0  0  0  0  0
   35.9180   30.3690   48.5010 C   0  0  0  0  0  0  0  0  0  0  0  0
   34.7580   30.4350   47.7600 C   0  0  0  0  0  0  0  0  0  0  0  0
   33.8680   29.4100   47.8540 N   0  0  0  0  0  0  0  0  0  0  0  0
   34.0650   28.3400   48.6340 C   0  0  0  0  0  0  0  0  0  0  0  0
   35.1960   28.2470   49.3760 N   0  0  0  0  0  0  0  0  0  0  0  0
   36.9370   31.3590   48.5060 N   0  0  0  0  0  0  0  0  0  0  0  0
   37.2150   32.0910   49.6040 C   0  0  0  0  0  0  0  0  0  0  0  0
   38.2310   33.0540   49.5490 C   0  0  0  0  0  0  0  0  0  0  0  0
   38.8590   33.1560   48.3420 C   0  0  0  0  0  0  0  0  0  0  0  0
   39.7740   34.0340   48.3180 O   0  0  0  0  0  0  0  0  0  0  0  0
   38.6030   32.4440   47.2410 N   0  0  0  0  0  0  0  0  0  0  0  0
   37.6150   31.5320   47.3530 C   0  0  0  0  0  0  0  0  0  0  0  0
   37.3630   30.8510   46.3120 O   0  0  0  0  0  0  0  0  0  0  0  0
   33.1270   27.3200   48.6970 O   0  0  0  0  0  0  0  0  0  0  0  0
   30.8570   27.7370   47.9820 C   0  0  2  0  0  0  0  0  0  0  0  0
   32.2080   27.1300   47.6640 C   0  0  2  0  0  0  0  0  0  0  0  0
   31.8430   25.6930   47.4420 C   0  0  0  0  0  0  0  0  0  0  0  0
   30.5760   25.6830   46.8790 O   0  0  0  0  0  0  0  0  0  0  0  0
   29.8970   26.7870   47.3570 C   0  0  0  0  0  0  0  0  0  0  0  0
   30.7480   29.0250   47.4760 O   0  0  0  0  0  0  0  0  0  0  0  0
   37.0294   29.1462   49.9295 H   0  0  0  0  0  0  0  0  0  0  0  0
   34.5561   31.2970   47.1072 H   0  0  0  0  0  0  0  0  0  0  0  0
   36.6493   31.9334   50.5341 H   0  0  0  0  0  0  0  0  0  0  0  0
   38.5016   33.6797   50.4123 H   0  0  0  0  0  0  0  0  0  0  0  0
   39.1255   32.5822   46.3642 H   0  0  0  0  0  0  0  0  0  0  0  0
   30.6746   27.8575   49.0601 H   0  0  0  0  0  0  0  0  0  0  0  0
   32.7202   27.5830   46.8024 H   0  0  0  0  0  0  0  0  0  0  0  0
   32.5644   25.2204   46.7592 H   0  0  0  0  0  0  0  0  0  0  0  0
   31.8587   25.1315   48.3878 H   0  0  0  0  0  0  0  0  0  0  0  0
   29.3790   27.2859   46.5246 H   0  0  0  0  0  0  0  0  0  0  0  0
   29.1629   26.4642   48.1099 H   0  0  0  0  0  0  0  0  0  0  0  0
   30.6934   29.6702   48.2249 H   0  0  0  0  0  0  0  0  0  0  0  0
  1  6  2  0
  2  7  1  0
  2  1  1  0
  3  4  1  0
  3  2  2  0
  4  5  2  0
  5 15  1  0
  5  6  1  0
  7  8  1  0
  9  8  2  0
 10  9  1  0
 11 10  2  0
 12 13  1  0
 12 10  1  0
 13  7  1  0
 14 13  2  0
 16 21  1  0
 17 16  1  0
 17 15  1  0
 18 17  1  0
 19 20  1  0
 19 18  1  0
 20 16  1  0
  1 22  1  0
  3 23  1  0
  8 24  1  0
  9 25  1  0
 12 26  1  0
 16 27  1  1
 17 28  1  6
 18 29  1  0
 18 30  1  0
 20 31  1  0
 20 32  1  0
 21 33  1  0
M  ISO  8  22  14  23  14  24  14  25  14  26   9  27  13  28  13  29  13
M  ISO  4  30  13  31  13  32  13  33   3
M  END
>  <minimizedAffinity>  (1) 
-5.595397

>  <minimizedRMSD>  (1) 
2.36975312

$$$$
