
     RDKit          3D

 28 30  0  0  0  0  0  0  0  0999 V2000
   36.3800   29.4690   49.4180 C   0  0  0  0  0  0  0  0  0  0  0  0
   36.2440   30.5330   48.4940 C   0  0  0  0  0  0  0  0  0  0  0  0
   35.1630   30.4890   47.6110 C   0  0  0  0  0  0  0  0  0  0  0  0
   34.3000   29.4470   47.6690 N   0  0  0  0  0  0  0  0  0  0  0  0
   34.4440   28.4520   48.5470 C   0  0  0  0  0  0  0  0  0  0  0  0
   35.4910   28.4500   49.4380 N   0  0  0  0  0  0  0  0  0  0  0  0
   37.2110   31.5620   48.5340 N   0  0  0  0  0  0  0  0  0  0  0  0
   37.3770   32.3700   49.5760 C   0  0  0  0  0  0  0  0  0  0  0  0
   38.3430   33.3660   49.5650 C   0  0  0  0  0  0  0  0  0  0  0  0
   39.0800   33.4180   48.3980 C   0  0  0  0  0  0  0  0  0  0  0  0
   39.9700   34.3260   48.3740 O   0  0  0  0  0  0  0  0  0  0  0  0
   38.9510   32.6350   47.3340 N   0  0  0  0  0  0  0  0  0  0  0  0
   37.9880   31.6870   47.4190 C   0  0  0  0  0  0  0  0  0  0  0  0
   37.8620   30.9340   46.4000 O   0  0  0  0  0  0  0  0  0  0  0  0
   33.5900   27.3630   48.6510 O   0  0  0  0  0  0  0  0  0  0  0  0
   32.4500   27.1760   47.8670 C   0  0  0  0  0  0  0  0  0  0  0  0
   31.1480   27.2030   48.6370 C   0  0  0  0  0  0  0  0  0  0  0  0
   31.6120   25.9650   47.9490 C   0  0  0  0  0  0  0  0  0  0  0  0
   37.2195   29.4711   50.1288 H   0  0  0  0  0  0  0  0  0  0  0  0
   35.0139   31.2931   46.8753 H   0  0  0  0  0  0  0  0  0  0  0  0
   36.7375   32.2471   50.4625 H   0  0  0  0  0  0  0  0  0  0  0  0
   38.5070   34.0520   50.4091 H   0  0  0  0  0  0  0  0  0  0  0  0
   39.5443   32.7415   46.4988 H   0  0  0  0  0  0  0  0  0  0  0  0
   32.9157   27.6851   47.0103 H   0  0  0  0  0  0  0  0  0  0  0  0
   31.1560   27.2616   49.7354 H   0  0  0  0  0  0  0  0  0  0  0  0
   30.2362   27.8179   48.6154 H   0  0  0  0  0  0  0  0  0  0  0  0
   31.0820   25.6059   47.0545 H   0  0  0  0  0  0  0  0  0  0  0  0
   31.7882   24.9271   48.2679 H   0  0  0  0  0  0  0  0  0  0  0  0
  1  6  2  0
  2  7  1  0
  2  1  1  0
  3  4  1  0
  3  2  2  0
  4  5  2  0
  5 15  1  0
  5  6  1  0
  7  8  1  0
  9  8  2  0
 10  9  1  0
 11 10  2  0
 12 13  1  0
 12 10  1  0
 13  7  1  0
 14 13  2  0
 16 18  1  0
 16 17  1  0
 16 15  1  0
 18 17  1  0
  1 19  1  0
  3 20  1  0
  8 21  1  0
  9 22  1  0
 12 23  1  0
 16 24  1  0
 17 25  1  0
 17 26  1  0
 18 27  1  0
 18 28  1  0
M  ISO  8  19  14  20  14  21  14  22  14  23   9  24  13  25  13  26  13
M  ISO  2  27  13  28  13
M  END
>  <minimizedAffinity>  (1) 
-5.1388607

>  <minimizedRMSD>  (1) 
0.691221118

$$$$
