
     RDKit          3D

 24 25  0  0  0  0  0  0  0  0999 V2000
   36.1780   29.2670   49.3210 C   0  0  0  0  0  0  0  0  0  0  0  0
   36.0060   30.4060   48.5100 C   0  0  0  0  0  0  0  0  0  0  0  0
   34.8730   30.4720   47.7110 C   0  0  0  0  0  0  0  0  0  0  0  0
   33.9750   29.4530   47.7340 N   0  0  0  0  0  0  0  0  0  0  0  0
   34.1550   28.3760   48.5150 C   0  0  0  0  0  0  0  0  0  0  0  0
   35.2660   28.2750   49.3200 N   0  0  0  0  0  0  0  0  0  0  0  0
   37.0010   31.4150   48.5570 N   0  0  0  0  0  0  0  0  0  0  0  0
   37.2100   32.1780   49.6420 C   0  0  0  0  0  0  0  0  0  0  0  0
   38.2020   33.1550   49.6330 C   0  0  0  0  0  0  0  0  0  0  0  0
   38.9030   33.2450   48.4500 C   0  0  0  0  0  0  0  0  0  0  0  0
   39.8080   34.1360   48.4390 O   0  0  0  0  0  0  0  0  0  0  0  0
   38.7270   32.5120   47.3570 N   0  0  0  0  0  0  0  0  0  0  0  0
   37.7480   31.5820   47.4360 C   0  0  0  0  0  0  0  0  0  0  0  0
   37.5720   30.8720   46.3860 O   0  0  0  0  0  0  0  0  0  0  0  0
   33.2640   27.3100   48.5710 O   0  0  0  0  0  0  0  0  0  0  0  0
   33.0870   26.4220   47.4730 C   0  0  0  0  0  0  0  0  0  0  0  0
   32.2550   27.0040   46.5280 F   0  0  0  0  0  0  0  0  0  0  0  0
   34.2990   26.1310   46.9280 F   0  0  0  0  0  0  0  0  0  0  0  0
   32.4520   25.2760   47.9500 F   0  0  0  0  0  0  0  0  0  0  0  0
   37.0676   29.1864   49.9629 H   0  0  0  0  0  0  0  0  0  0  0  0
   34.7032   31.3444   47.0629 H   0  0  0  0  0  0  0  0  0  0  0  0
   36.5948   32.0305   50.5419 H   0  0  0  0  0  0  0  0  0  0  0  0
   38.4090   33.8015   50.4986 H   0  0  0  0  0  0  0  0  0  0  0  0
   39.2961   32.6424   46.5084 H   0  0  0  0  0  0  0  0  0  0  0  0
  2  7  1  0
  2  1  2  0
  3  4  2  0
  3  2  1  0
  4  5  1  0
  5 15  1  0
  5  6  2  0
  6  1  1  0
  7  8  1  0
  9  8  2  0
 10  9  1  0
 11 10  2  0
 12 13  1  0
 12 10  1  0
 13  7  1  0
 14 13  2  0
 16 19  1  0
 16 15  1  0
 17 16  1  0
 18 16  1  0
  1 20  1  0
  3 21  1  0
  8 22  1  0
  9 23  1  0
 12 24  1  0
M  ISO  5  20  14  21  14  22  14  23  14  24   9
M  END
>  <minimizedAffinity>  (1) 
-5.05298233

>  <minimizedRMSD>  (1) 
0.331178516

$$$$
