
     RDKit          3D

 23 24  0  0  0  0  0  0  0  0999 V2000
   36.1790   29.2620   49.3300 C   0  0  0  0  0  0  0  0  0  0  0  0
   36.0050   30.3910   48.5060 C   0  0  0  0  0  0  0  0  0  0  0  0
   34.8710   30.4540   47.6910 C   0  0  0  0  0  0  0  0  0  0  0  0
   33.9870   29.4250   47.7290 N   0  0  0  0  0  0  0  0  0  0  0  0
   34.1630   28.3670   48.5110 C   0  0  0  0  0  0  0  0  0  0  0  0
   35.2570   28.2710   49.3190 N   0  0  0  0  0  0  0  0  0  0  0  0
   37.0030   31.4110   48.5540 N   0  0  0  0  0  0  0  0  0  0  0  0
   37.1910   32.1660   49.6570 C   0  0  0  0  0  0  0  0  0  0  0  0
   38.1800   33.1480   49.6480 C   0  0  0  0  0  0  0  0  0  0  0  0
   38.8880   33.2490   48.4730 C   0  0  0  0  0  0  0  0  0  0  0  0
   39.7830   34.1460   48.4800 O   0  0  0  0  0  0  0  0  0  0  0  0
   38.7200   32.5140   47.3710 N   0  0  0  0  0  0  0  0  0  0  0  0
   37.7450   31.5780   47.4400 C   0  0  0  0  0  0  0  0  0  0  0  0
   37.5740   30.8740   46.4060 O   0  0  0  0  0  0  0  0  0  0  0  0
   33.2720   27.2960   48.5720 O   0  0  0  0  0  0  0  0  0  0  0  0
   33.1840   26.4110   47.5040 C   0  0  0  0  0  0  0  0  0  0  0  0
   34.1290   25.8830   46.8380 O   0  0  0  0  0  0  0  0  0  0  0  0
   37.0623   29.1858   49.9811 H   0  0  0  0  0  0  0  0  0  0  0  0
   34.6989   31.3187   47.0333 H   0  0  0  0  0  0  0  0  0  0  0  0
   36.5713   32.0082   50.5520 H   0  0  0  0  0  0  0  0  0  0  0  0
   38.3795   33.7940   50.5157 H   0  0  0  0  0  0  0  0  0  0  0  0
   39.2933   32.6501   46.5262 H   0  0  0  0  0  0  0  0  0  0  0  0
   32.1658   26.1317   47.1955 H   0  0  0  0  0  0  0  0  0  0  0  0
  2  7  1  0
  2  1  2  0
  3  4  2  0
  3  2  1  0
  4  5  1  0
  5 15  1  0
  5  6  2  0
  6  1  1  0
  7  8  1  0
  9  8  2  0
 10 11  2  0
 10  9  1  0
 12 13  1  0
 12 10  1  0
 13  7  1  0
 14 13  2  0
 16 15  1  0
 17 16  2  0
  1 18  1  0
  3 19  1  0
  8 20  1  0
  9 21  1  0
 12 22  1  0
 16 23  1  0
M  ISO  6  18  14  19  14  20  14  21  14  22   9  23   6
M  END
>  <minimizedAffinity>  (1) 
-4.7251606

>  <minimizedRMSD>  (1) 
0.204789162

$$$$
