
     RDKit          3D

 43 46  0  0  0  0  0  0  0  0999 V2000
   31.1550   27.5690   48.2710 C   0  0  0  0  0  0  0  0  0  0  0  0
   30.8140   27.6860   49.6100 C   0  0  0  0  0  0  0  0  0  0  0  0
   29.5480   28.0830   49.9800 C   0  0  0  0  0  0  0  0  0  0  0  0
   28.6080   28.3670   48.9930 C   0  0  0  0  0  0  0  0  0  0  0  0
   28.9620   28.2440   47.6520 C   0  0  0  0  0  0  0  0  0  0  0  0
   30.2190   27.8510   47.3030 C   0  0  0  0  0  0  0  0  0  0  0  0
   30.9640   28.9590   45.4010 C   0  0  0  0  0  0  0  0  0  0  0  0
   30.5920   27.7180   45.9180 C   0  0  0  0  0  0  0  0  0  0  0  0
   30.6440   26.6300   45.0710 C   0  0  0  0  0  0  0  0  0  0  0  0
   31.0490   26.7710   43.7610 C   0  0  0  0  0  0  0  0  0  0  0  0
   31.4170   27.9990   43.2500 C   0  0  0  0  0  0  0  0  0  0  0  0
   31.3760   29.1060   44.0720 C   0  0  0  0  0  0  0  0  0  0  0  0
   30.9840   30.1860   46.0880 O   0  0  0  0  0  0  0  0  0  0  0  0
   31.7560   30.2980   43.4970 O   0  0  0  0  0  0  0  0  0  0  0  0
   32.4660   27.1610   48.0520 O   0  0  0  0  0  0  0  0  0  0  0  0
   35.4340   28.8860   49.1220 C   0  0  0  0  0  0  0  0  0  0  0  0
   35.3830   30.0890   48.4140 C   0  0  0  0  0  0  0  0  0  0  0  0
   34.2880   30.2760   47.5570 C   0  0  0  0  0  0  0  0  0  0  0  0
   33.3540   29.2870   47.4710 N   0  0  0  0  0  0  0  0  0  0  0  0
   33.4360   28.1500   48.1640 C   0  0  0  0  0  0  0  0  0  0  0  0
   34.4890   27.9410   49.0040 N   0  0  0  0  0  0  0  0  0  0  0  0
   36.4180   31.0330   48.5960 N   0  0  0  0  0  0  0  0  0  0  0  0
   36.5810   31.7000   49.7330 C   0  0  0  0  0  0  0  0  0  0  0  0
   37.6290   32.6220   49.8360 C   0  0  0  0  0  0  0  0  0  0  0  0
   38.4060   32.7540   48.7380 C   0  0  0  0  0  0  0  0  0  0  0  0
   39.3550   33.5930   48.8410 O   0  0  0  0  0  0  0  0  0  0  0  0
   38.2790   32.1110   47.5940 N   0  0  0  0  0  0  0  0  0  0  0  0
   37.2510   31.2180   47.5150 C   0  0  0  0  0  0  0  0  0  0  0  0
   37.1090   30.5910   46.4290 O   0  0  0  0  0  0  0  0  0  0  0  0
   31.5618   27.4596   50.3843 H   0  0  0  0  0  0  0  0  0  0  0  0
   29.2826   28.1747   51.0436 H   0  0  0  0  0  0  0  0  0  0  0  0
   27.5927   28.6864   49.2707 H   0  0  0  0  0  0  0  0  0  0  0  0
   28.2218   28.4656   46.8691 H   0  0  0  0  0  0  0  0  0  0  0  0
   30.3583   25.6363   45.4464 H   0  0  0  0  0  0  0  0  0  0  0  0
   31.0795   25.8857   43.1089 H   0  0  0  0  0  0  0  0  0  0  0  0
   31.7384   28.0937   42.2023 H   0  0  0  0  0  0  0  0  0  0  0  0
   31.2674   31.0109   45.6197 H   0  0  0  0  0  0  0  0  0  0  0  0
   31.7491   31.1305   44.0328 H   0  0  0  0  0  0  0  0  0  0  0  0
   36.2803   28.7068   49.8015 H   0  0  0  0  0  0  0  0  0  0  0  0
   34.1856   31.1994   46.9681 H   0  0  0  0  0  0  0  0  0  0  0  0
   35.9020   31.5302   50.5816 H   0  0  0  0  0  0  0  0  0  0  0  0
   37.8089   33.2026   50.7528 H   0  0  0  0  0  0  0  0  0  0  0  0
   38.9200   32.2738   46.8044 H   0  0  0  0  0  0  0  0  0  0  0  0
  1  2  2  0
  2  3  1  0
  4  3  2  0
  5  4  1  0
  6  5  2  0
  6  1  1  0
  7  8  2  0
  7 13  1  0
  8  6  1  0
  9  8  1  0
 10  9  2  0
 11 10  1  0
 11 12  2  0
 12  7  1  0
 14 12  1  0
 15 20  1  0
 15  1  1  0
 17 22  1  0
 17 16  2  0
 18 17  1  0
 19 18  2  0
 19 20  1  0
 20 21  2  0
 21 16  1  0
 22 23  1  0
 23 24  2  0
 25 26  2  0
 25 24  1  0
 27 25  1  0
 28 27  1  0
 28 22  1  0
 29 28  2  0
  2 30  1  0
  3 31  1  0
  4 32  1  0
  5 33  1  0
  9 34  1  0
 10 35  1  0
 11 36  1  0
 13 37  1  0
 14 38  1  0
 16 39  1  0
 18 40  1  0
 23 41  1  0
 24 42  1  0
 27 43  1  0
M  ISO  8  30  14  31  14  32  14  33  14  34  14  35  14  36  14  37   3
M  ISO  6  38   3  39  14  40  14  41  14  42  14  43   9
M  END
>  <minimizedAffinity>  (1) 
-6.09028196

>  <minimizedRMSD>  (1) 
0.273612827

$$$$
