
     RDKit          3D

 34 36  0  0  0  0  0  0  0  0999 V2000
   35.4180   28.8600   49.1010 C   0  0  0  0  0  0  0  0  0  0  0  0
   35.3600   30.0600   48.3570 C   0  0  0  0  0  0  0  0  0  0  0  0
   34.2740   30.2130   47.5020 C   0  0  0  0  0  0  0  0  0  0  0  0
   33.3410   29.2380   47.4190 N   0  0  0  0  0  0  0  0  0  0  0  0
   33.4290   28.1180   48.1400 C   0  0  0  0  0  0  0  0  0  0  0  0
   34.4770   27.9030   49.0030 N   0  0  0  0  0  0  0  0  0  0  0  0
   36.3910   31.0070   48.5250 N   0  0  0  0  0  0  0  0  0  0  0  0
   36.5490   31.6960   49.6580 C   0  0  0  0  0  0  0  0  0  0  0  0
   37.5890   32.6260   49.7730 C   0  0  0  0  0  0  0  0  0  0  0  0
   38.3720   32.7380   48.6650 C   0  0  0  0  0  0  0  0  0  0  0  0
   39.3190   33.5800   48.7630 O   0  0  0  0  0  0  0  0  0  0  0  0
   38.2490   32.0790   47.5320 N   0  0  0  0  0  0  0  0  0  0  0  0
   37.2290   31.1800   47.4460 C   0  0  0  0  0  0  0  0  0  0  0  0
   37.0910   30.5390   46.3770 O   0  0  0  0  0  0  0  0  0  0  0  0
   32.4830   27.0920   48.0760 O   0  0  0  0  0  0  0  0  0  0  0  0
   31.1530   27.5040   48.2170 C   0  0  0  0  0  0  0  0  0  0  0  0
   30.8360   27.7540   49.5400 C   0  0  0  0  0  0  0  0  0  0  0  0
   29.5630   28.1710   49.8790 C   0  0  0  0  0  0  0  0  0  0  0  0
   28.6090   28.3380   48.8860 C   0  0  0  0  0  0  0  0  0  0  0  0
   28.9420   28.0840   47.5720 C   0  0  0  0  0  0  0  0  0  0  0  0
   30.2010   27.6720   47.2390 C   0  0  0  0  0  0  0  0  0  0  0  0
   30.6600   27.3740   45.8720 C   0  0  0  0  0  0  0  0  0  0  0  0
   36.2641   28.7022   49.7860 H   0  0  0  0  0  0  0  0  0  0  0  0
   34.1743   31.1248   46.8948 H   0  0  0  0  0  0  0  0  0  0  0  0
   35.8617   31.5327   50.5012 H   0  0  0  0  0  0  0  0  0  0  0  0
   37.7596   33.2180   50.6843 H   0  0  0  0  0  0  0  0  0  0  0  0
   38.8952   32.2361   46.7455 H   0  0  0  0  0  0  0  0  0  0  0  0
   31.5976   27.6208   50.3225 H   0  0  0  0  0  0  0  0  0  0  0  0
   29.3076   28.3694   50.9304 H   0  0  0  0  0  0  0  0  0  0  0  0
   27.5931   28.6710   49.1450 H   0  0  0  0  0  0  0  0  0  0  0  0
   28.1858   28.2146   46.7839 H   0  0  0  0  0  0  0  0  0  0  0  0
   31.5818   26.7755   45.9170 H   0  0  0  0  0  0  0  0  0  0  0  0
   29.8815   26.8086   45.3389 H   0  0  0  0  0  0  0  0  0  0  0  0
   30.8596   28.3152   45.3389 H   0  0  0  0  0  0  0  0  0  0  0  0
  2  7  1  0
  2  1  2  0
  3  2  1  0
  4  3  2  0
  4  5  1  0
  5  6  2  0
  6  1  1  0
  7  8  1  0
  8  9  2  0
 10 11  2  0
 10  9  1  0
 12 10  1  0
 13 12  1  0
 13  7  1  0
 14 13  2  0
 15  5  1  0
 15 16  1  0
 16 17  2  0
 17 18  1  0
 19 18  2  0
 20 19  1  0
 21 20  2  0
 21 16  1  0
 22 21  1  0
  1 23  1  0
  3 24  1  0
  8 25  1  0
  9 26  1  0
 12 27  1  0
 17 28  1  0
 18 29  1  0
 19 30  1  0
 20 31  1  0
 22 32  1  0
 22 33  1  0
 22 34  1  0
M  ISO  8  23  14  24  14  25  14  26  14  27   9  28  14  29  14  30  14
M  ISO  4  31  14  32   8  33   8  34   8
M  END
>  <minimizedAffinity>  (1) 
-5.76705551

>  <minimizedRMSD>  (1) 
0.139978737

$$$$
