
     RDKit          3D

 37 39  0  0  0  0  0  0  0  0999 V2000
   35.4320   28.8640   49.1430 C   0  0  0  0  0  0  0  0  0  0  0  0
   35.3730   30.0580   48.4050 C   0  0  0  0  0  0  0  0  0  0  0  0
   34.2860   30.2250   47.5400 C   0  0  0  0  0  0  0  0  0  0  0  0
   33.3580   29.2300   47.4650 N   0  0  0  0  0  0  0  0  0  0  0  0
   33.4430   28.1080   48.1800 C   0  0  0  0  0  0  0  0  0  0  0  0
   34.4870   27.9100   49.0330 N   0  0  0  0  0  0  0  0  0  0  0  0
   36.4000   31.0140   48.5710 N   0  0  0  0  0  0  0  0  0  0  0  0
   36.5600   31.6970   49.7020 C   0  0  0  0  0  0  0  0  0  0  0  0
   37.5940   32.6250   49.7960 C   0  0  0  0  0  0  0  0  0  0  0  0
   38.3730   32.7510   48.6860 C   0  0  0  0  0  0  0  0  0  0  0  0
   39.3190   33.5930   48.7580 O   0  0  0  0  0  0  0  0  0  0  0  0
   38.2460   32.0890   47.5460 N   0  0  0  0  0  0  0  0  0  0  0  0
   37.2250   31.1890   47.4820 C   0  0  0  0  0  0  0  0  0  0  0  0
   37.0910   30.5510   46.4010 O   0  0  0  0  0  0  0  0  0  0  0  0
   32.4880   27.0870   48.1010 O   0  0  0  0  0  0  0  0  0  0  0  0
   31.1680   27.4960   48.2550 C   0  0  0  0  0  0  0  0  0  0  0  0
   30.8140   27.7620   49.5670 C   0  0  0  0  0  0  0  0  0  0  0  0
   29.5430   28.1790   49.8970 C   0  0  0  0  0  0  0  0  0  0  0  0
   28.6040   28.3330   48.8810 C   0  0  0  0  0  0  0  0  0  0  0  0
   28.9670   28.0640   47.5650 C   0  0  0  0  0  0  0  0  0  0  0  0
   30.2410   27.6460   47.2320 C   0  0  0  0  0  0  0  0  0  0  0  0
   30.6690   27.3450   45.8670 C   0  0  0  0  0  0  0  0  0  0  0  0
   30.2000   25.9150   45.5660 C   0  0  0  0  0  0  0  0  0  0  0  0
   36.2749   28.7032   49.8312 H   0  0  0  0  0  0  0  0  0  0  0  0
   34.1830   31.1378   46.9349 H   0  0  0  0  0  0  0  0  0  0  0  0
   35.8831   31.5303   50.5529 H   0  0  0  0  0  0  0  0  0  0  0  0
   37.7699   33.2170   50.7063 H   0  0  0  0  0  0  0  0  0  0  0  0
   38.8834   32.2457   46.7522 H   0  0  0  0  0  0  0  0  0  0  0  0
   31.5634   27.6377   50.3626 H   0  0  0  0  0  0  0  0  0  0  0  0
   29.2753   28.3863   50.9436 H   0  0  0  0  0  0  0  0  0  0  0  0
   27.5822   28.6650   49.1169 H   0  0  0  0  0  0  0  0  0  0  0  0
   28.2191   28.1875   46.7679 H   0  0  0  0  0  0  0  0  0  0  0  0
   30.2094   28.0518   45.1605 H   0  0  0  0  0  0  0  0  0  0  0  0
   31.7606   27.4344   45.7646 H   0  0  0  0  0  0  0  0  0  0  0  0
   30.0246   25.3801   46.5110 H   0  0  0  0  0  0  0  0  0  0  0  0
   29.2662   25.9499   44.9856 H   0  0  0  0  0  0  0  0  0  0  0  0
   30.9731   25.3901   44.9856 H   0  0  0  0  0  0  0  0  0  0  0  0
  2  7  1  0
  2  1  2  0
  3  2  1  0
  4  3  2  0
  4  5  1  0
  5  6  2  0
  6  1  1  0
  7  8  1  0
  8  9  2  0
 10 11  2  0
 10  9  1  0
 12 10  1  0
 13 12  1  0
 13  7  1  0
 14 13  2  0
 15  5  1  0
 15 16  1  0
 16 17  2  0
 17 18  1  0
 19 18  2  0
 20 19  1  0
 21 20  2  0
 21 16  1  0
 22 21  1  0
 23 22  1  0
  1 24  1  0
  3 25  1  0
  8 26  1  0
  9 27  1  0
 12 28  1  0
 17 29  1  0
 18 30  1  0
 19 31  1  0
 20 32  1  0
 22 33  1  0
 22 34  1  0
 23 35  1  0
 23 36  1  0
 23 37  1  0
M  ISO  8  24  14  25  14  26  14  27  14  28   9  29  14  30  14  31  14
M  ISO  6  32  14  33   8  34   8  35   8  36   8  37   8
M  END
>  <minimizedAffinity>  (1) 
-5.5942049

>  <minimizedRMSD>  (1) 
0.161189869

$$$$
