
     RDKit          3D

 37 39  0  0  0  0  0  0  0  0999 V2000
   35.3080   28.8350   49.0310 C   0  0  0  0  0  0  0  0  0  0  0  0
   35.2840   30.0360   48.3190 C   0  0  0  0  0  0  0  0  0  0  0  0
   34.1990   30.2400   47.4570 C   0  0  0  0  0  0  0  0  0  0  0  0
   33.2340   29.2930   47.3460 N   0  0  0  0  0  0  0  0  0  0  0  0
   33.2960   28.1570   48.0470 C   0  0  0  0  0  0  0  0  0  0  0  0
   34.3420   27.9090   48.9070 N   0  0  0  0  0  0  0  0  0  0  0  0
   36.3310   30.9620   48.4990 N   0  0  0  0  0  0  0  0  0  0  0  0
   36.5120   31.6220   49.6530 C   0  0  0  0  0  0  0  0  0  0  0  0
   37.5640   32.5270   49.7810 C   0  0  0  0  0  0  0  0  0  0  0  0
   38.3450   32.6680   48.6800 C   0  0  0  0  0  0  0  0  0  0  0  0
   39.3020   33.4820   48.7730 O   0  0  0  0  0  0  0  0  0  0  0  0
   38.2010   32.0400   47.5290 N   0  0  0  0  0  0  0  0  0  0  0  0
   37.1640   31.1580   47.4320 C   0  0  0  0  0  0  0  0  0  0  0  0
   37.0060   30.5420   46.3330 O   0  0  0  0  0  0  0  0  0  0  0  0
   32.3250   27.1570   47.9610 O   0  0  0  0  0  0  0  0  0  0  0  0
   31.0190   27.5820   48.2100 C   0  0  0  0  0  0  0  0  0  0  0  0
   30.7550   27.6890   49.5730 C   0  0  0  0  0  0  0  0  0  0  0  0
   29.5190   28.0950   50.0100 C   0  0  0  0  0  0  0  0  0  0  0  0
   28.5320   28.3970   49.0610 C   0  0  0  0  0  0  0  0  0  0  0  0
   28.8030   28.2890   47.7210 C   0  0  0  0  0  0  0  0  0  0  0  0
   30.0430   27.8820   47.2870 C   0  0  0  0  0  0  0  0  0  0  0  0
   30.5030   27.7130   45.9850 O   0  0  0  0  0  0  0  0  0  0  0  0
   29.5070   29.0510   43.8820 O   0  0  0  0  0  0  0  0  0  0  0  0
   30.6620   28.9120   44.8150 P   0  0  0  0  0  0  0  0  0  0  0  0
   30.9970   30.3890   45.6080 O   0  0  0  0  0  0  0  0  0  0  0  0
   32.0980   28.5520   43.9530 O   0  0  0  0  0  0  0  0  0  0  0  0
   36.1459   28.6403   49.7165 H   0  0  0  0  0  0  0  0  0  0  0  0
   34.1294   31.1678   46.8702 H   0  0  0  0  0  0  0  0  0  0  0  0
   35.8298   31.4487   50.4984 H   0  0  0  0  0  0  0  0  0  0  0  0
   37.7484   33.0877   50.7092 H   0  0  0  0  0  0  0  0  0  0  0  0
   38.8415   32.2075   46.7400 H   0  0  0  0  0  0  0  0  0  0  0  0
   31.5412   27.4469   50.3033 H   0  0  0  0  0  0  0  0  0  0  0  0
   29.3064   28.1820   51.0858 H   0  0  0  0  0  0  0  0  0  0  0  0
   27.5350   28.7223   49.3931 H   0  0  0  0  0  0  0  0  0  0  0  0
   28.0209   28.5303   46.9860 H   0  0  0  0  0  0  0  0  0  0  0  0
   30.9659   30.2519   46.5880 H   0  0  0  0  0  0  0  0  0  0  0  0
   32.8302   28.3684   44.5936 H   0  0  0  0  0  0  0  0  0  0  0  0
  2  7  1  0
  2  1  2  0
  3  2  1  0
  4  3  2  0
  4  5  1  0
  5  6  2  0
  6  1  1  0
  7  8  1  0
  8  9  2  0
 10 11  2  0
 10  9  1  0
 12 10  1  0
 13 12  1  0
 13  7  1  0
 14 13  2  0
 15  5  1  0
 15 16  1  0
 16 17  2  0
 17 18  1  0
 19 18  2  0
 20 19  1  0
 21 20  2  0
 21 16  1  0
 22 21  1  0
 23 24  2  0
 24 25  1  0
 24 22  1  0
 26 24  1  0
  1 27  1  0
  3 28  1  0
  8 29  1  0
  9 30  1  0
 12 31  1  0
 17 32  1  0
 18 33  1  0
 19 34  1  0
 20 35  1  0
 25 36  1  0
 26 37  1  0
M  ISO  8  27  14  28  14  29  14  30  14  31   9  32  14  33  14  34  14
M  ISO  3  35  14  36   3  37   3
M  END
>  <minimizedAffinity>  (1) 
-5.55941677

>  <minimizedRMSD>  (1) 
1.21509635

$$$$
