
     RDKit          3D

 13 13  0  0  0  0  0  0  0  0999 V2000
   35.5290   29.0350   50.2040 C   0  0  0  0  0  0  0  0  0  0  0  0
   36.2340   30.1310   49.6550 C   0  0  0  0  0  0  0  0  0  0  0  0
   36.0170   30.4620   48.3100 C   0  0  0  0  0  0  0  0  0  0  0  0
   35.1300   29.6940   47.6070 N   0  0  0  0  0  0  0  0  0  0  0  0
   34.4740   28.6560   48.1580 C   0  0  0  0  0  0  0  0  0  0  0  0
   34.6640   28.3220   49.4420 N   0  0  0  0  0  0  0  0  0  0  0  0
   37.1760   30.8790   50.5550 C   0  0  0  0  0  0  0  0  0  0  0  0
   38.4880   30.7620   50.0770 F   0  0  0  0  0  0  0  0  0  0  0  0
   36.8350   32.2150   50.4910 F   0  0  0  0  0  0  0  0  0  0  0  0
   37.1360   30.4530   51.8480 F   0  0  0  0  0  0  0  0  0  0  0  0
   35.6838   28.7590   51.2575 H   0  0  0  0  0  0  0  0  0  0  0  0
   36.5400   31.3069   47.8382 H   0  0  0  0  0  0  0  0  0  0  0  0
   33.7711   28.0728   47.5451 H   0  0  0  0  0  0  0  0  0  0  0  0
  2  1  2  0
  2  7  1  0
  3  2  1  0
  4  5  1  0
  4  3  2  0
  5  6  2  0
  6  1  1  0
  7 10  1  0
  8  7  1  0
  9  7  1  0
  1 11  1  0
  3 12  1  0
  5 13  1  0
M  ISO  3  11  14  12  14  13  14
M  END
>  <minimizedAffinity>  (1) 
-4.19249153

>  <minimizedRMSD>  (1) 
2.24364448

$$$$
