
     RDKit          3D

 27 29  0  0  0  0  0  0  0  0999 V2000
   35.5770   29.2790   50.5440 C   0  0  0  0  0  0  0  0  0  0  0  0
   36.1720   30.2490   49.7260 C   0  0  0  0  0  0  0  0  0  0  0  0
   35.5990   30.4730   48.4780 C   0  0  0  0  0  0  0  0  0  0  0  0
   34.5100   29.7500   48.1290 N   0  0  0  0  0  0  0  0  0  0  0  0
   33.9570   28.8350   48.9080 C   0  0  0  0  0  0  0  0  0  0  0  0
   34.4890   28.6070   50.1020 N   0  0  0  0  0  0  0  0  0  0  0  0
   32.7840   27.9590   48.7050 C   0  0  0  0  0  0  0  0  0  0  0  0
   31.5830   28.1550   49.2520 N   0  0  0  0  0  0  0  0  0  0  0  0
   30.5400   27.3500   49.0520 C   0  0  0  0  0  0  0  0  0  0  0  0
   30.5890   26.2550   48.2780 N   0  0  0  0  0  0  0  0  0  0  0  0
   31.7670   25.9890   47.6910 C   0  0  0  0  0  0  0  0  0  0  0  0
   31.8030   24.8710   46.9040 C   0  0  0  0  0  0  0  0  0  0  0  0
   32.9670   24.5230   46.2660 C   0  0  0  0  0  0  0  0  0  0  0  0
   34.0800   25.3510   46.4560 C   0  0  0  0  0  0  0  0  0  0  0  0
   33.9700   26.4520   47.2550 C   0  0  0  0  0  0  0  0  0  0  0  0
   32.8280   26.8400   47.9160 C   0  0  0  0  0  0  0  0  0  0  0  0
   37.3710   30.9860   50.2350 C   0  0  0  0  0  0  0  0  0  0  0  0
   38.4500   30.8320   49.3750 F   0  0  0  0  0  0  0  0  0  0  0  0
   37.0410   32.3360   50.2640 F   0  0  0  0  0  0  0  0  0  0  0  0
   37.7300   30.5790   51.4980 F   0  0  0  0  0  0  0  0  0  0  0  0
   35.9922   29.0651   51.5399 H   0  0  0  0  0  0  0  0  0  0  0  0
   36.0217   31.2208   47.7909 H   0  0  0  0  0  0  0  0  0  0  0  0
   29.5892   27.5960   49.5473 H   0  0  0  0  0  0  0  0  0  0  0  0
   30.9014   24.2525   46.7828 H   0  0  0  0  0  0  0  0  0  0  0  0
   33.0235   23.6276   45.6295 H   0  0  0  0  0  0  0  0  0  0  0  0
   35.0358   25.1159   45.9650 H   0  0  0  0  0  0  0  0  0  0  0  0
   34.8654   27.0785   47.3802 H   0  0  0  0  0  0  0  0  0  0  0  0
  2 17  1  0
  2  1  2  0
  3  2  1  0
  4  3  2  0
  4  5  1  0
  5  6  2  0
  6  1  1  0
  7  5  1  0
  7  8  2  0
  9  8  1  0
 10  9  2  0
 11 16  2  0
 11 10  1  0
 12 11  1  0
 13 14  1  0
 13 12  2  0
 14 15  2  0
 15 16  1  0
 16  7  1  0
 17 19  1  0
 17 20  1  0
 18 17  1  0
  1 21  1  0
  3 22  1  0
  9 23  1  0
 12 24  1  0
 13 25  1  0
 14 26  1  0
 15 27  1  0
M  ISO  7  21  14  22  14  23  14  24  14  25  14  26  14  27  14
M  END
>  <minimizedAffinity>  (1) 
-5.5760293

>  <minimizedRMSD>  (1) 
1.35918093

$$$$
