
     RDKit          3D

 28 29  0  0  0  0  0  0  0  0999 V2000
   35.4220   29.1770   50.4030 C   0  0  0  0  0  0  0  0  0  0  0  0
   36.1800   30.1360   49.7070 C   0  0  0  0  0  0  0  0  0  0  0  0
   35.9690   30.2450   48.3330 C   0  0  0  0  0  0  0  0  0  0  0  0
   35.0470   29.4260   47.7390 N   0  0  0  0  0  0  0  0  0  0  0  0
   34.3460   28.5230   48.4540 C   0  0  0  0  0  0  0  0  0  0  0  0
   34.5220   28.3890   49.7760 N   0  0  0  0  0  0  0  0  0  0  0  0
   33.3970   27.6920   47.7930 N   0  0  0  0  0  0  0  0  0  0  0  0
   31.9680   27.9190   47.9110 C   0  0  0  0  0  0  0  0  0  0  0  0
   31.3230   26.6230   48.3540 C   0  0  0  0  0  0  0  0  0  0  0  0
   31.6460   25.5420   47.3410 C   0  0  0  0  0  0  0  0  0  0  0  0
   33.1390   25.3010   47.3270 C   0  0  0  0  0  0  0  0  0  0  0  0
   33.8290   26.5770   46.9700 C   0  0  0  0  0  0  0  0  0  0  0  0
   37.1540   30.9650   50.4760 C   0  0  0  0  0  0  0  0  0  0  0  0
   38.4220   30.8910   49.8910 F   0  0  0  0  0  0  0  0  0  0  0  0
   36.7360   32.2790   50.3910 F   0  0  0  0  0  0  0  0  0  0  0  0
   37.2580   30.5960   51.7890 F   0  0  0  0  0  0  0  0  0  0  0  0
   35.5662   29.0658   51.4878 H   0  0  0  0  0  0  0  0  0  0  0  0
   36.5338   30.9766   47.7366 H   0  0  0  0  0  0  0  0  0  0  0  0
   31.7753   28.7054   48.6556 H   0  0  0  0  0  0  0  0  0  0  0  0
   31.5516   28.2424   46.9456 H   0  0  0  0  0  0  0  0  0  0  0  0
   31.7150   26.3338   49.3403 H   0  0  0  0  0  0  0  0  0  0  0  0
   30.2331   26.7542   48.4242 H   0  0  0  0  0  0  0  0  0  0  0  0
   31.1262   24.6126   47.6169 H   0  0  0  0  0  0  0  0  0  0  0  0
   31.3147   25.8619   46.3420 H   0  0  0  0  0  0  0  0  0  0  0  0
   33.4691   24.9680   48.3220 H   0  0  0  0  0  0  0  0  0  0  0  0
   33.3853   24.5236   46.5888 H   0  0  0  0  0  0  0  0  0  0  0  0
   34.9126   26.4407   47.1013 H   0  0  0  0  0  0  0  0  0  0  0  0
   33.5745   26.8138   45.9264 H   0  0  0  0  0  0  0  0  0  0  0  0
  2  1  2  0
  2 13  1  0
  3  2  1  0
  4  3  2  0
  4  5  1  0
  5  6  2  0
  6  1  1  0
  7  8  1  0
  7  5  1  0
  8  9  1  0
 10  9  1  0
 11 10  1  0
 12 11  1  0
 12  7  1  0
 13 16  1  0
 14 13  1  0
 15 13  1  0
  1 17  1  0
  3 18  1  0
  8 19  1  0
  8 20  1  0
  9 21  1  0
  9 22  1  0
 10 23  1  0
 10 24  1  0
 11 25  1  0
 11 26  1  0
 12 27  1  0
 12 28  1  0
M  ISO  8  17  14  18  14  19  13  20  13  21  13  22  13  23  13  24  13
M  ISO  4  25  13  26  13  27  13  28  13
M  END
>  <minimizedAffinity>  (1) 
-5.39781523

>  <minimizedRMSD>  (1) 
0.465655029

$$$$
