
     RDKit          3D

 23 24  0  0  0  0  0  0  0  0999 V2000
   35.4260   29.2240   50.3630 C   0  0  0  0  0  0  0  0  0  0  0  0
   36.3180   30.1220   49.7520 C   0  0  0  0  0  0  0  0  0  0  0  0
   36.2910   30.2460   48.3460 C   0  0  0  0  0  0  0  0  0  0  0  0
   35.3940   29.4800   47.6630 N   0  0  0  0  0  0  0  0  0  0  0  0
   34.5490   28.6250   48.2870 C   0  0  0  0  0  0  0  0  0  0  0  0
   34.5590   28.4940   49.6110 N   0  0  0  0  0  0  0  0  0  0  0  0
   32.7750   30.2360   46.4670 Cl  0  0  0  0  0  0  0  0  0  0  0  0
   32.7340   28.4750   46.6190 C   0  0  0  0  0  0  0  0  0  0  0  0
   33.6060   27.8260   47.4960 C   0  0  0  0  0  0  0  0  0  0  0  0
   33.5670   26.4470   47.6090 C   0  0  0  0  0  0  0  0  0  0  0  0
   32.6740   25.7270   46.8590 C   0  0  0  0  0  0  0  0  0  0  0  0
   31.8120   26.3730   45.9900 C   0  0  0  0  0  0  0  0  0  0  0  0
   31.8360   27.7470   45.8640 C   0  0  0  0  0  0  0  0  0  0  0  0
   37.2500   30.9020   50.6220 C   0  0  0  0  0  0  0  0  0  0  0  0
   38.5530   30.8180   50.1440 F   0  0  0  0  0  0  0  0  0  0  0  0
   36.8640   32.2340   50.5480 F   0  0  0  0  0  0  0  0  0  0  0  0
   37.2200   30.4910   51.9300 F   0  0  0  0  0  0  0  0  0  0  0  0
   35.4291   29.1107   51.4571 H   0  0  0  0  0  0  0  0  0  0  0  0
   36.9688   30.9353   47.8211 H   0  0  0  0  0  0  0  0  0  0  0  0
   34.2507   25.9305   48.2987 H   0  0  0  0  0  0  0  0  0  0  0  0
   32.6422   24.6311   46.9481 H   0  0  0  0  0  0  0  0  0  0  0  0
   31.0997   25.7845   45.3930 H   0  0  0  0  0  0  0  0  0  0  0  0
   31.1490   28.2554   45.1715 H   0  0  0  0  0  0  0  0  0  0  0  0
  2  1  2  0
  2 14  1  0
  3  2  1  0
  4  5  1  0
  4  3  2  0
  5  6  2  0
  6  1  1  0
  7  8  1  0
  8  9  2  0
  9 10  1  0
  9  5  1  0
 11 10  2  0
 12 11  1  0
 13 12  2  0
 13  8  1  0
 14 17  1  0
 15 14  1  0
 16 14  1  0
  1 18  1  0
  3 19  1  0
 10 20  1  0
 11 21  1  0
 12 22  1  0
 13 23  1  0
M  ISO  6  18  14  19  14  20  14  21  14  22  14  23  14
M  END
>  <minimizedAffinity>  (1) 
-5.11964464

>  <minimizedRMSD>  (1) 
0.454961926

$$$$
