
     RDKit          3D

 20 21  0  0  0  0  0  0  0  0999 V2000
   35.7000   29.3550   50.4660 C   0  0  0  0  0  0  0  0  0  0  0  0
   36.2470   30.3200   49.6040 C   0  0  0  0  0  0  0  0  0  0  0  0
   35.7350   30.4120   48.3020 C   0  0  0  0  0  0  0  0  0  0  0  0
   34.7360   29.5580   47.9500 N   0  0  0  0  0  0  0  0  0  0  0  0
   34.2330   28.6480   48.7890 C   0  0  0  0  0  0  0  0  0  0  0  0
   34.7010   28.5330   50.0440 N   0  0  0  0  0  0  0  0  0  0  0  0
   33.1650   27.7190   48.4450 C   0  0  0  0  0  0  0  0  0  0  0  0
   33.2950   26.5940   47.6640 C   0  0  0  0  0  0  0  0  0  0  0  0
   32.0730   25.9510   47.5500 C   0  0  0  0  0  0  0  0  0  0  0  0
   31.2220   26.7210   48.2770 N   0  0  0  0  0  0  0  0  0  0  0  0
   31.8860   27.7460   48.7900 N   0  0  0  0  0  0  0  0  0  0  0  0
   37.3490   31.2020   50.1210 C   0  0  0  0  0  0  0  0  0  0  0  0
   38.3960   31.2380   49.2040 F   0  0  0  0  0  0  0  0  0  0  0  0
   36.8410   32.4720   50.2630 F   0  0  0  0  0  0  0  0  0  0  0  0
   37.8480   30.7570   51.3200 F   0  0  0  0  0  0  0  0  0  0  0  0
   36.0833   29.2629   51.4929 H   0  0  0  0  0  0  0  0  0  0  0  0
   36.1283   31.1508   47.5881 H   0  0  0  0  0  0  0  0  0  0  0  0
   34.2319   26.2546   47.1982 H   0  0  0  0  0  0  0  0  0  0  0  0
   31.8442   25.0280   46.9972 H   0  0  0  0  0  0  0  0  0  0  0  0
   30.2172   26.5366   48.4087 H   0  0  0  0  0  0  0  0  0  0  0  0
  2 12  1  0
  2  1  2  0
  3  2  1  0
  4  3  2  0
  4  5  1  0
  5  6  2  0
  6  1  1  0
  7  5  1  0
  7 11  2  0
  8  7  1  0
  9  8  2  0
  9 10  1  0
 10 11  1  0
 12 14  1  0
 12 15  1  0
 13 12  1  0
  1 16  1  0
  3 17  1  0
  8 18  1  0
  9 19  1  0
 10 20  1  0
M  ISO  5  16  14  17  14  18  14  19  14  20   9
M  END
>  <minimizedAffinity>  (1) 
-4.88970375

>  <minimizedRMSD>  (1) 
0.967532992

$$$$
