
     RDKit          3D

 16 16  0  0  0  0  0  0  0  0999 V2000
   35.5730   29.0480   50.3270 C   0  0  0  0  0  0  0  0  0  0  0  0
   36.2850   30.1030   49.7140 C   0  0  0  0  0  0  0  0  0  0  0  0
   36.0630   30.3290   48.3560 C   0  0  0  0  0  0  0  0  0  0  0  0
   35.1800   29.5320   47.6980 N   0  0  0  0  0  0  0  0  0  0  0  0
   34.5190   28.5320   48.3210 C   0  0  0  0  0  0  0  0  0  0  0  0
   34.7020   28.2770   49.6280 N   0  0  0  0  0  0  0  0  0  0  0  0
   37.2210   30.8940   50.5660 C   0  0  0  0  0  0  0  0  0  0  0  0
   38.5180   30.8130   50.0710 F   0  0  0  0  0  0  0  0  0  0  0  0
   36.8350   32.2230   50.4660 F   0  0  0  0  0  0  0  0  0  0  0  0
   37.2310   30.5230   51.8780 F   0  0  0  0  0  0  0  0  0  0  0  0
   33.5600   27.6640   47.6050 C   0  0  0  0  0  0  0  0  0  0  0  0
   35.7284   28.8465   51.3972 H   0  0  0  0  0  0  0  0  0  0  0  0
   36.5918   31.1361   47.8278 H   0  0  0  0  0  0  0  0  0  0  0  0
   32.9498   27.1117   48.3348 H   0  0  0  0  0  0  0  0  0  0  0  0
   32.9056   28.2831   46.9737 H   0  0  0  0  0  0  0  0  0  0  0  0
   34.1111   26.9514   46.9737 H   0  0  0  0  0  0  0  0  0  0  0  0
  2  1  2  0
  2  7  1  0
  3  2  1  0
  4  5  1  0
  4  3  2  0
  5  6  2  0
  6  1  1  0
  7 10  1  0
  8  7  1  0
  9  7  1  0
 11  5  1  0
  1 12  1  0
  3 13  1  0
 11 14  1  0
 11 15  1  0
 11 16  1  0
M  ISO  5  12  14  13  14  14   8  15   8  16   8
M  END
>  <minimizedAffinity>  (1) 
-4.47295284

>  <minimizedRMSD>  (1) 
0.155144662

$$$$
