
     RDKit          3D

 14 14  0  0  0  0  0  0  0  0999 V2000
   35.6120   29.0070   50.1810 C   0  0  0  0  0  0  0  0  0  0  0  0
   36.2660   30.1400   49.6650 C   0  0  0  0  0  0  0  0  0  0  0  0
   36.0200   30.5100   48.3390 C   0  0  0  0  0  0  0  0  0  0  0  0
   35.1530   29.7480   47.6080 N   0  0  0  0  0  0  0  0  0  0  0  0
   34.5420   28.6620   48.1460 C   0  0  0  0  0  0  0  0  0  0  0  0
   34.7620   28.2920   49.4050 N   0  0  0  0  0  0  0  0  0  0  0  0
   37.2020   30.8920   50.5780 C   0  0  0  0  0  0  0  0  0  0  0  0
   38.5200   30.7810   50.0900 F   0  0  0  0  0  0  0  0  0  0  0  0
   36.8710   32.2190   50.5080 F   0  0  0  0  0  0  0  0  0  0  0  0
   37.1660   30.4590   51.8580 F   0  0  0  0  0  0  0  0  0  0  0  0
   33.7020   28.0270   47.2410 O   0  0  0  0  0  0  0  0  0  0  0  0
   35.7917   28.6991   51.2216 H   0  0  0  0  0  0  0  0  0  0  0  0
   36.5107   31.3897   47.8970 H   0  0  0  0  0  0  0  0  0  0  0  0
   33.1983   27.2200   47.5153 H   0  0  0  0  0  0  0  0  0  0  0  0
  2  1  2  0
  2  7  1  0
  3  2  1  0
  4  5  1  0
  4  3  2  0
  5  6  2  0
  6  1  1  0
  7 10  1  0
  8  7  1  0
  9  7  1  0
 11  5  1  0
  1 12  1  0
  3 13  1  0
 11 14  1  0
M  ISO  3  12  14  13  14  14   3
M  END
>  <minimizedAffinity>  (1) 
-4.36311626

>  <minimizedRMSD>  (1) 
0.062181551

$$$$
