
     RDKit          3D

 33 35  0  0  0  0  0  0  0  0999 V2000
   32.5510   30.5800   46.4930 Cl  0  0  0  0  0  0  0  0  0  0  0  0
   32.2840   28.8700   46.7710 C   0  0  0  0  0  0  0  0  0  0  0  0
   33.0770   28.1780   47.6840 C   0  0  0  0  0  0  0  0  0  0  0  0
   32.8830   26.8240   47.9210 C   0  0  0  0  0  0  0  0  0  0  0  0
   31.8750   26.1750   47.2230 C   0  0  0  0  0  0  0  0  0  0  0  0
   31.0750   26.8530   46.3080 C   0  0  0  0  0  0  0  0  0  0  0  0
   29.8260   25.9700   45.4650 Cl  0  0  0  0  0  0  0  0  0  0  0  0
   31.2860   28.2040   46.0860 C   0  0  0  0  0  0  0  0  0  0  0  0
   28.8910   29.2900   47.3890 Cl  0  0  0  0  0  0  0  0  0  0  0  0
   29.3100   29.4690   45.6980 C   0  0  0  0  0  0  0  0  0  0  0  0
   30.4550   28.9370   45.1260 C   0  0  0  0  0  0  0  0  0  0  0  0
   30.7630   29.0920   43.7900 C   0  0  0  0  0  0  0  0  0  0  0  0
   29.8910   29.8090   42.9900 C   0  0  0  0  0  0  0  0  0  0  0  0
   28.7450   30.3540   43.5160 C   0  0  0  0  0  0  0  0  0  0  0  0
   28.4510   30.1880   44.8580 C   0  0  0  0  0  0  0  0  0  0  0  0
   26.9790   30.8870   45.5390 Cl  0  0  0  0  0  0  0  0  0  0  0  0
   35.1110   29.5540   50.4150 C   0  0  0  0  0  0  0  0  0  0  0  0
   36.1890   30.1500   49.7060 C   0  0  0  0  0  0  0  0  0  0  0  0
   36.1810   30.0600   48.3160 C   0  0  0  0  0  0  0  0  0  0  0  0
   35.1420   29.4080   47.7250 N   0  0  0  0  0  0  0  0  0  0  0  0
   34.1330   28.8500   48.4170 C   0  0  0  0  0  0  0  0  0  0  0  0
   34.1130   28.9190   49.7430 N   0  0  0  0  0  0  0  0  0  0  0  0
   37.2530   30.8300   50.5020 C   0  0  0  0  0  0  0  0  0  0  0  0
   38.5100   30.5010   49.9650 F   0  0  0  0  0  0  0  0  0  0  0  0
   37.0870   32.1810   50.3760 F   0  0  0  0  0  0  0  0  0  0  0  0
   37.2410   30.4760   51.8370 F   0  0  0  0  0  0  0  0  0  0  0  0
   33.5112   26.2808   48.6423 H   0  0  0  0  0  0  0  0  0  0  0  0
   31.7045   25.1022   47.3963 H   0  0  0  0  0  0  0  0  0  0  0  0
   31.6812   28.6553   43.3703 H   0  0  0  0  0  0  0  0  0  0  0  0
   30.1177   29.9440   41.9221 H   0  0  0  0  0  0  0  0  0  0  0  0
   28.0603   30.9229   42.8698 H   0  0  0  0  0  0  0  0  0  0  0  0
   35.0835   29.6065   51.5134 H   0  0  0  0  0  0  0  0  0  0  0  0
   36.9890   30.5019   47.7145 H   0  0  0  0  0  0  0  0  0  0  0  0
  1  2  1  0
  2  3  2  0
  3  4  1  0
  3 21  1  0
  5  4  2  0
  6  5  1  0
  7  6  1  0
  8  6  2  0
  8  2  1  0
 10  9  1  0
 11 10  2  0
 11  8  1  0
 12 11  1  0
 13 14  1  0
 13 12  2  0
 14 15  2  0
 15 16  1  0
 15 10  1  0
 18 17  2  0
 18 23  1  0
 19 18  1  0
 20 19  2  0
 20 21  1  0
 21 22  2  0
 22 17  1  0
 23 26  1  0
 24 23  1  0
 25 23  1  0
  4 27  1  0
  5 28  1  0
 12 29  1  0
 13 30  1  0
 14 31  1  0
 17 32  1  0
 19 33  1  0
M  ISO  7  27  14  28  14  29  14  30  14  31  14  32  14  33  14
M  END
>  <minimizedAffinity>  (1) 
-5.75311995

>  <minimizedRMSD>  (1) 
1.07840097

$$$$
