
     RDKit          3D

 38 40  0  0  0  0  0  0  0  0999 V2000
   32.8650   30.9010   46.4600 Cl  0  0  0  0  0  0  0  0  0  0  0  0
   32.9450   29.2360   46.9870 C   0  0  0  0  0  0  0  0  0  0  0  0
   34.0070   28.8110   47.7620 C   0  0  0  0  0  0  0  0  0  0  0  0
   34.1180   27.4940   48.2080 C   0  0  0  0  0  0  0  0  0  0  0  0
   33.1140   26.6100   47.8450 C   0  0  0  0  0  0  0  0  0  0  0  0
   32.0400   27.0060   47.0710 C   0  0  0  0  0  0  0  0  0  0  0  0
   30.8130   25.8290   46.6550 Cl  0  0  0  0  0  0  0  0  0  0  0  0
   31.9620   28.3370   46.6410 C   0  0  0  0  0  0  0  0  0  0  0  0
   36.1470   31.0650   49.7540 C   0  0  0  0  0  0  0  0  0  0  0  0
   37.1200   31.4470   48.7850 C   0  0  0  0  0  0  0  0  0  0  0  0
   37.0180   30.9280   47.4980 C   0  0  0  0  0  0  0  0  0  0  0  0
   35.9860   30.0800   47.2300 N   0  0  0  0  0  0  0  0  0  0  0  0
   35.0770   29.7310   48.1560 C   0  0  0  0  0  0  0  0  0  0  0  0
   35.1440   30.2100   49.4070 N   0  0  0  0  0  0  0  0  0  0  0  0
   38.1970   32.3850   49.2170 C   0  0  0  0  0  0  0  0  0  0  0  0
   39.0660   32.6440   48.1520 F   0  0  0  0  0  0  0  0  0  0  0  0
   37.6110   33.5730   49.5730 F   0  0  0  0  0  0  0  0  0  0  0  0
   38.9410   31.9150   50.2700 F   0  0  0  0  0  0  0  0  0  0  0  0
   30.8440   28.7490   45.8360 N   0  0  0  0  0  0  0  0  0  0  0  0
   29.6720   29.2200   46.5210 C   0  0  0  0  0  0  0  0  0  0  0  0
   28.8060   30.1230   45.7100 C   0  0  0  0  0  0  0  0  0  0  0  0
   28.8450   29.8230   44.2290 C   0  0  0  0  0  0  0  0  0  0  0  0
   30.2460   29.8010   43.7060 C   0  0  0  0  0  0  0  0  0  0  0  0
   30.9720   28.6640   44.3860 C   0  0  0  0  0  0  0  0  0  0  0  0
   34.9695   27.1695   48.8241 H   0  0  0  0  0  0  0  0  0  0  0  0
   33.1738   25.5647   48.1823 H   0  0  0  0  0  0  0  0  0  0  0  0
   36.2055   31.4593   50.7792 H   0  0  0  0  0  0  0  0  0  0  0  0
   37.7488   31.1945   46.7202 H   0  0  0  0  0  0  0  0  0  0  0  0
   29.0738   28.3466   46.8198 H   0  0  0  0  0  0  0  0  0  0  0  0
   30.0258   29.8110   47.3786 H   0  0  0  0  0  0  0  0  0  0  0  0
   27.7684   30.0175   46.0597 H   0  0  0  0  0  0  0  0  0  0  0  0
   29.1885   31.1456   45.8439 H   0  0  0  0  0  0  0  0  0  0  0  0
   28.3829   28.8406   44.0519 H   0  0  0  0  0  0  0  0  0  0  0  0
   28.2951   30.6176   43.7035 H   0  0  0  0  0  0  0  0  0  0  0  0
   30.2372   29.6422   42.6176 H   0  0  0  0  0  0  0  0  0  0  0  0
   30.7492   30.7573   43.9116 H   0  0  0  0  0  0  0  0  0  0  0  0
   30.5452   27.7098   44.0434 H   0  0  0  0  0  0  0  0  0  0  0  0
   32.0390   28.7271   44.1262 H   0  0  0  0  0  0  0  0  0  0  0  0
  1  2  1  0
  2  3  2  0
  3 13  1  0
  3  4  1  0
  5  4  2  0
  6  5  1  0
  7  6  1  0
  8  2  1  0
  8  6  2  0
 10 15  1  0
 10  9  2  0
 11 10  1  0
 12 11  2  0
 12 13  1  0
 13 14  2  0
 14  9  1  0
 15 17  1  0
 15 18  1  0
 16 15  1  0
 19 20  1  0
 19  8  1  0
 21 20  1  0
 22 21  1  0
 23 22  1  0
 23 24  1  0
 24 19  1  0
  4 25  1  0
  5 26  1  0
  9 27  1  0
 11 28  1  0
 20 29  1  0
 20 30  1  0
 21 31  1  0
 21 32  1  0
 22 33  1  0
 22 34  1  0
 23 35  1  0
 23 36  1  0
 24 37  1  0
 24 38  1  0
M  ISO  8  25  14  26  14  27  14  28  14  29  13  30  13  31  13  32  13
M  ISO  6  33  13  34  13  35  13  36  13  37  13  38  13
M  END
>  <minimizedAffinity>  (1) 
-5.70417404

>  <minimizedRMSD>  (1) 
1.60248029

$$$$
