
     RDKit          3D

 35 37  0  0  0  0  0  0  0  0999 V2000
   32.9260   30.9180   46.4560 Cl  0  0  0  0  0  0  0  0  0  0  0  0
   33.0120   29.2680   47.0360 C   0  0  0  0  0  0  0  0  0  0  0  0
   34.0920   28.8620   47.8080 C   0  0  0  0  0  0  0  0  0  0  0  0
   34.1930   27.5450   48.2890 C   0  0  0  0  0  0  0  0  0  0  0  0
   33.1580   26.6740   47.9510 C   0  0  0  0  0  0  0  0  0  0  0  0
   32.0830   27.0580   47.1880 C   0  0  0  0  0  0  0  0  0  0  0  0
   30.8290   25.8980   46.8130 Cl  0  0  0  0  0  0  0  0  0  0  0  0
   32.0150   28.3760   46.7270 C   0  0  0  0  0  0  0  0  0  0  0  0
   36.2360   31.1670   49.7070 C   0  0  0  0  0  0  0  0  0  0  0  0
   37.2020   31.5320   48.7310 C   0  0  0  0  0  0  0  0  0  0  0  0
   37.0870   30.9780   47.4600 C   0  0  0  0  0  0  0  0  0  0  0  0
   36.0600   30.1180   47.2130 N   0  0  0  0  0  0  0  0  0  0  0  0
   35.1630   29.7900   48.1490 C   0  0  0  0  0  0  0  0  0  0  0  0
   35.2430   30.3040   49.3820 N   0  0  0  0  0  0  0  0  0  0  0  0
   38.2730   32.4860   49.1400 C   0  0  0  0  0  0  0  0  0  0  0  0
   39.1750   32.6660   48.0700 F   0  0  0  0  0  0  0  0  0  0  0  0
   37.6900   33.7110   49.3730 F   0  0  0  0  0  0  0  0  0  0  0  0
   38.9760   32.0740   50.2350 F   0  0  0  0  0  0  0  0  0  0  0  0
   30.8830   28.7280   45.9400 N   0  0  0  0  0  0  0  0  0  0  0  0
   29.6590   29.2510   46.5610 C   0  0  0  0  0  0  0  0  0  0  0  0
   28.9940   30.0660   45.4730 C   0  0  0  0  0  0  0  0  0  0  0  0
   29.9690   30.0420   44.3000 C   0  0  0  0  0  0  0  0  0  0  0  0
   30.6280   28.6850   44.5190 C   0  0  0  0  0  0  0  0  0  0  0  0
   35.0461   27.2179   48.9015 H   0  0  0  0  0  0  0  0  0  0  0  0
   33.2047   25.6355   48.3107 H   0  0  0  0  0  0  0  0  0  0  0  0
   36.2940   31.5837   50.7234 H   0  0  0  0  0  0  0  0  0  0  0  0
   37.8107   31.2294   46.6706 H   0  0  0  0  0  0  0  0  0  0  0  0
   29.0050   28.4273   46.8832 H   0  0  0  0  0  0  0  0  0  0  0  0
   29.8712   29.8501   47.4588 H   0  0  0  0  0  0  0  0  0  0  0  0
   28.0335   29.6136   45.1851 H   0  0  0  0  0  0  0  0  0  0  0  0
   28.7757   31.0920   45.8042 H   0  0  0  0  0  0  0  0  0  0  0  0
   30.6986   30.8630   44.3607 H   0  0  0  0  0  0  0  0  0  0  0  0
   29.5031   30.1728   43.3122 H   0  0  0  0  0  0  0  0  0  0  0  0
   29.9504   27.8597   44.2551 H   0  0  0  0  0  0  0  0  0  0  0  0
   31.5226   28.5109   43.9030 H   0  0  0  0  0  0  0  0  0  0  0  0
  1  2  1  0
  2  3  2  0
  3 13  1  0
  3  4  1  0
  5  4  2  0
  6  5  1  0
  7  6  1  0
  8  2  1  0
  8  6  2  0
 10 15  1  0
 10  9  2  0
 11 10  1  0
 12 11  2  0
 12 13  1  0
 13 14  2  0
 14  9  1  0
 15 17  1  0
 15 18  1  0
 16 15  1  0
 19 20  1  0
 19  8  1  0
 21 20  1  0
 22 23  1  0
 22 21  1  0
 23 19  1  0
  4 24  1  0
  5 25  1  0
  9 26  1  0
 11 27  1  0
 20 28  1  0
 20 29  1  0
 21 30  1  0
 21 31  1  0
 22 32  1  0
 22 33  1  0
 23 34  1  0
 23 35  1  0
M  ISO  8  24  14  25  14  26  14  27  14  28  13  29  13  30  13  31  13
M  ISO  4  32  13  33  13  34  13  35  13
M  END
>  <minimizedAffinity>  (1) 
-5.6398654

>  <minimizedRMSD>  (1) 
1.68676746

$$$$
