
     RDKit          3D

 36 38  0  0  0  0  0  0  0  0999 V2000
   32.8080   30.7350   46.3240 Cl  0  0  0  0  0  0  0  0  0  0  0  0
   32.9000   29.0780   46.8630 C   0  0  0  0  0  0  0  0  0  0  0  0
   33.9580   28.6670   47.6820 C   0  0  0  0  0  0  0  0  0  0  0  0
   34.0680   27.3520   48.1230 C   0  0  0  0  0  0  0  0  0  0  0  0
   33.0910   26.4500   47.7210 C   0  0  0  0  0  0  0  0  0  0  0  0
   32.0360   26.8450   46.9060 C   0  0  0  0  0  0  0  0  0  0  0  0
   30.8340   25.6580   46.4340 Cl  0  0  0  0  0  0  0  0  0  0  0  0
   31.9410   28.1850   46.4720 C   0  0  0  0  0  0  0  0  0  0  0  0
   35.9410   30.9770   49.7540 C   0  0  0  0  0  0  0  0  0  0  0  0
   36.9270   31.3930   48.8290 C   0  0  0  0  0  0  0  0  0  0  0  0
   36.9030   30.8840   47.5150 C   0  0  0  0  0  0  0  0  0  0  0  0
   35.9100   30.0010   47.2110 N   0  0  0  0  0  0  0  0  0  0  0  0
   34.9780   29.6140   48.1000 C   0  0  0  0  0  0  0  0  0  0  0  0
   34.9860   30.0900   49.3600 N   0  0  0  0  0  0  0  0  0  0  0  0
   37.9620   32.3690   49.2970 C   0  0  0  0  0  0  0  0  0  0  0  0
   38.7570   32.7860   48.2090 F   0  0  0  0  0  0  0  0  0  0  0  0
   37.3420   33.4700   49.7970 F   0  0  0  0  0  0  0  0  0  0  0  0
   38.8070   31.8330   50.2400 F   0  0  0  0  0  0  0  0  0  0  0  0
   30.7780   28.5100   45.6200 C   0  0  0  0  0  0  0  0  0  0  0  0
   31.1440   28.7280   44.1690 C   0  0  0  0  0  0  0  0  0  0  0  0
   30.7790   30.1670   43.8620 C   0  0  0  0  0  0  0  0  0  0  0  0
   29.8300   30.6240   44.9380 C   0  0  0  0  0  0  0  0  0  0  0  0
   29.9280   29.6390   46.0790 C   0  0  0  0  0  0  0  0  0  0  0  0
   34.9010   27.0370   48.7686 H   0  0  0  0  0  0  0  0  0  0  0  0
   33.1532   25.4034   48.0538 H   0  0  0  0  0  0  0  0  0  0  0  0
   35.9457   31.3667   50.7827 H   0  0  0  0  0  0  0  0  0  0  0  0
   37.6521   31.1858   46.7681 H   0  0  0  0  0  0  0  0  0  0  0  0
   30.1695   27.5990   45.7187 H   0  0  0  0  0  0  0  0  0  0  0  0
   32.2213   28.5655   44.0172 H   0  0  0  0  0  0  0  0  0  0  0  0
   30.6139   28.0263   43.5082 H   0  0  0  0  0  0  0  0  0  0  0  0
   31.6827   30.7941   43.8651 H   0  0  0  0  0  0  0  0  0  0  0  0
   30.3126   30.2486   42.8691 H   0  0  0  0  0  0  0  0  0  0  0  0
   30.1114   31.6293   45.2846 H   0  0  0  0  0  0  0  0  0  0  0  0
   28.8006   30.6691   44.5528 H   0  0  0  0  0  0  0  0  0  0  0  0
   28.9261   29.2712   46.3452 H   0  0  0  0  0  0  0  0  0  0  0  0
   30.3646   30.1171   46.9683 H   0  0  0  0  0  0  0  0  0  0  0  0
  1  2  1  0
  2  3  2  0
  3 13  1  0
  3  4  1  0
  5  4  2  0
  6  5  1  0
  7  6  1  0
  8  2  1  0
  8  6  2  0
 10 15  1  0
 10  9  2  0
 11 10  1  0
 12 11  2  0
 12 13  1  0
 13 14  2  0
 14  9  1  0
 15 17  1  0
 15 18  1  0
 16 15  1  0
 19 23  1  0
 19  8  1  0
 20 19  1  0
 21 20  1  0
 21 22  1  0
 22 23  1  0
  4 24  1  0
  5 25  1  0
  9 26  1  0
 11 27  1  0
 19 28  1  0
 20 29  1  0
 20 30  1  0
 21 31  1  0
 21 32  1  0
 22 33  1  0
 22 34  1  0
 23 35  1  0
 23 36  1  0
M  ISO  8  24  14  25  14  26  14  27  14  28  13  29  13  30  13  31  13
M  ISO  5  32  13  33  13  34  13  35  13  36  13
M  END
>  <minimizedAffinity>  (1) 
-5.57576227

>  <minimizedRMSD>  (1) 
1.50698853

$$$$
