
     RDKit          3D

 39 41  0  0  0  0  0  0  0  0999 V2000
   32.7060   30.3080   46.5750 Cl  0  0  0  0  0  0  0  0  0  0  0  0
   32.6520   28.5760   46.7310 C   0  0  0  0  0  0  0  0  0  0  0  0
   33.5280   27.9290   47.6030 C   0  0  0  0  0  0  0  0  0  0  0  0
   33.5090   26.5390   47.7490 C   0  0  0  0  0  0  0  0  0  0  0  0
   32.5940   25.8260   47.0030 C   0  0  0  0  0  0  0  0  0  0  0  0
   31.7150   26.4580   46.1310 C   0  0  0  0  0  0  0  0  0  0  0  0
   30.5830   25.4830   45.2190 Cl  0  0  0  0  0  0  0  0  0  0  0  0
   31.7480   27.8620   45.9950 C   0  0  0  0  0  0  0  0  0  0  0  0
   35.3780   29.3310   50.4650 C   0  0  0  0  0  0  0  0  0  0  0  0
   36.3320   30.1340   49.8030 C   0  0  0  0  0  0  0  0  0  0  0  0
   36.3290   30.1850   48.4100 C   0  0  0  0  0  0  0  0  0  0  0  0
   35.3920   29.4450   47.7470 N   0  0  0  0  0  0  0  0  0  0  0  0
   34.4870   28.6830   48.3850 C   0  0  0  0  0  0  0  0  0  0  0  0
   34.4770   28.6230   49.7310 N   0  0  0  0  0  0  0  0  0  0  0  0
   37.3100   30.9020   50.6310 C   0  0  0  0  0  0  0  0  0  0  0  0
   38.6030   30.7760   50.1160 F   0  0  0  0  0  0  0  0  0  0  0  0
   36.9740   32.2380   50.5850 F   0  0  0  0  0  0  0  0  0  0  0  0
   37.3210   30.4980   51.9540 F   0  0  0  0  0  0  0  0  0  0  0  0
   30.7650   28.4220   45.0390 C   0  0  0  0  0  0  0  0  0  0  0  0
   31.4020   29.0950   43.8430 C   0  0  0  0  0  0  0  0  0  0  0  0
   30.4980   30.0970   43.1900 C   0  0  0  0  0  0  0  0  0  0  0  0
   29.0420   29.8740   43.3370 C   0  0  0  0  0  0  0  0  0  0  0  0
   28.5580   29.3260   44.6280 C   0  0  0  0  0  0  0  0  0  0  0  0
   29.7190   29.3080   45.6440 C   0  0  0  0  0  0  0  0  0  0  0  0
   34.2011   26.0305   48.4363 H   0  0  0  0  0  0  0  0  0  0  0  0
   32.5589   24.7309   47.1004 H   0  0  0  0  0  0  0  0  0  0  0  0
   35.3631   29.2782   51.5636 H   0  0  0  0  0  0  0  0  0  0  0  0
   37.0575   30.8011   47.8626 H   0  0  0  0  0  0  0  0  0  0  0  0
   30.2373   27.5238   44.6858 H   0  0  0  0  0  0  0  0  0  0  0  0
   32.3157   29.6098   44.1748 H   0  0  0  0  0  0  0  0  0  0  0  0
   31.6206   28.3132   43.1007 H   0  0  0  0  0  0  0  0  0  0  0  0
   30.7275   30.1017   42.1142 H   0  0  0  0  0  0  0  0  0  0  0  0
   30.6985   31.0471   43.7068 H   0  0  0  0  0  0  0  0  0  0  0  0
   28.5435   30.8424   43.1830 H   0  0  0  0  0  0  0  0  0  0  0  0
   28.8022   29.0970   42.5962 H   0  0  0  0  0  0  0  0  0  0  0  0
   27.7435   29.9574   45.0125 H   0  0  0  0  0  0  0  0  0  0  0  0
   28.1862   28.3019   44.4764 H   0  0  0  0  0  0  0  0  0  0  0  0
   29.3803   28.9004   46.6079 H   0  0  0  0  0  0  0  0  0  0  0  0
   30.1045   30.3190   45.8419 H   0  0  0  0  0  0  0  0  0  0  0  0
  1  2  1  0
  2  3  2  0
  3  4  1  0
  3 13  1  0
  5  4  2  0
  6  5  1  0
  7  6  1  0
  8  6  2  0
  8  2  1  0
 10  9  2  0
 10 15  1  0
 11 10  1  0
 12 13  1  0
 12 11  2  0
 13 14  2  0
 14  9  1  0
 15 18  1  0
 16 15  1  0
 17 15  1  0
 19 24  1  0
 19  8  1  0
 20 19  1  0
 21 22  1  0
 21 20  1  0
 22 23  1  0
 23 24  1  0
  4 25  1  0
  5 26  1  0
  9 27  1  0
 11 28  1  0
 19 29  1  0
 20 30  1  0
 20 31  1  0
 21 32  1  0
 21 33  1  0
 22 34  1  0
 22 35  1  0
 23 36  1  0
 23 37  1  0
 24 38  1  0
 24 39  1  0
M  ISO  8  25  14  26  14  27  14  28  14  29  13  30  13  31  13  32  13
M  ISO  7  33  13  34  13  35  13  36  13  37  13  38  13  39  13
M  END
>  <minimizedAffinity>  (1) 
-5.35691261

>  <minimizedRMSD>  (1) 
0.163513482

$$$$
