
     RDKit          3D

 31 33  0  0  0  0  0  0  0  0999 V2000
   32.6530   30.2540   46.5770 Cl  0  0  0  0  0  0  0  0  0  0  0  0
   32.6380   28.5090   46.7390 C   0  0  0  0  0  0  0  0  0  0  0  0
   33.5300   27.8920   47.5980 C   0  0  0  0  0  0  0  0  0  0  0  0
   33.5440   26.4960   47.7510 C   0  0  0  0  0  0  0  0  0  0  0  0
   32.6270   25.7690   47.0050 C   0  0  0  0  0  0  0  0  0  0  0  0
   31.7360   26.3620   46.1480 C   0  0  0  0  0  0  0  0  0  0  0  0
   30.6080   25.3820   45.2380 Cl  0  0  0  0  0  0  0  0  0  0  0  0
   31.7460   27.7390   46.0180 C   0  0  0  0  0  0  0  0  0  0  0  0
   35.3810   29.3130   50.4410 C   0  0  0  0  0  0  0  0  0  0  0  0
   36.3200   30.1470   49.7790 C   0  0  0  0  0  0  0  0  0  0  0  0
   36.2920   30.1990   48.3820 C   0  0  0  0  0  0  0  0  0  0  0  0
   35.3610   29.4410   47.7470 N   0  0  0  0  0  0  0  0  0  0  0  0
   34.4860   28.6630   48.3760 C   0  0  0  0  0  0  0  0  0  0  0  0
   34.4860   28.5910   49.7130 N   0  0  0  0  0  0  0  0  0  0  0  0
   37.2820   30.9200   50.6190 C   0  0  0  0  0  0  0  0  0  0  0  0
   38.5780   30.7810   50.1070 F   0  0  0  0  0  0  0  0  0  0  0  0
   36.9470   32.2350   50.5520 F   0  0  0  0  0  0  0  0  0  0  0  0
   37.3050   30.5020   51.9320 F   0  0  0  0  0  0  0  0  0  0  0  0
   30.7900   28.3500   45.1030 C   0  0  0  0  0  0  0  0  0  0  0  0
   29.5360   28.7310   45.5890 C   0  0  0  0  0  0  0  0  0  0  0  0
   28.5740   29.3140   44.7970 C   0  0  0  0  0  0  0  0  0  0  0  0
   28.8780   29.5150   43.5030 N   0  0  0  0  0  0  0  0  0  0  0  0
   30.0890   29.1560   42.9980 C   0  0  0  0  0  0  0  0  0  0  0  0
   30.9890   28.5970   43.7940 N   0  0  0  0  0  0  0  0  0  0  0  0
   34.2511   26.0004   48.4325 H   0  0  0  0  0  0  0  0  0  0  0  0
   32.6145   24.6736   47.1052 H   0  0  0  0  0  0  0  0  0  0  0  0
   35.3768   29.2505   51.5392 H   0  0  0  0  0  0  0  0  0  0  0  0
   36.9965   30.8292   47.8193 H   0  0  0  0  0  0  0  0  0  0  0  0
   29.3084   28.5571   46.6511 H   0  0  0  0  0  0  0  0  0  0  0  0
   27.5950   29.6041   45.2062 H   0  0  0  0  0  0  0  0  0  0  0  0
   30.3196   29.3285   41.9364 H   0  0  0  0  0  0  0  0  0  0  0  0
  1  2  1  0
  2  3  2  0
  3  4  1  0
  3 13  1  0
  5  4  2  0
  6  5  1  0
  7  6  1  0
  8  6  2  0
  8  2  1  0
 10  9  2  0
 10 15  1  0
 11 10  1  0
 12 13  1  0
 12 11  2  0
 13 14  2  0
 14  9  1  0
 15 18  1  0
 16 15  1  0
 17 15  1  0
 19 20  2  0
 19  8  1  0
 21 20  1  0
 22 21  2  0
 23 22  1  0
 23 24  2  0
 24 19  1  0
  4 25  1  0
  5 26  1  0
  9 27  1  0
 11 28  1  0
 20 29  1  0
 21 30  1  0
 23 31  1  0
M  ISO  7  25  14  26  14  27  14  28  14  29  14  30  14  31  14
M  END
>  <minimizedAffinity>  (1) 
-5.33338928

>  <minimizedRMSD>  (1) 
0.398841202

$$$$
