
     RDKit          3D

 33 35  0  0  0  0  0  0  0  0999 V2000
   32.6730   30.3410   46.5780 Cl  0  0  0  0  0  0  0  0  0  0  0  0
   32.6110   28.5930   46.7470 C   0  0  0  0  0  0  0  0  0  0  0  0
   33.4900   27.9360   47.6150 C   0  0  0  0  0  0  0  0  0  0  0  0
   33.4620   26.5570   47.7660 C   0  0  0  0  0  0  0  0  0  0  0  0
   32.5300   25.8480   47.0270 C   0  0  0  0  0  0  0  0  0  0  0  0
   31.6460   26.4800   46.1590 C   0  0  0  0  0  0  0  0  0  0  0  0
   30.5040   25.5030   45.2670 Cl  0  0  0  0  0  0  0  0  0  0  0  0
   31.6950   27.8560   46.0260 C   0  0  0  0  0  0  0  0  0  0  0  0
   30.7780   28.5420   45.1210 C   0  0  0  0  0  0  0  0  0  0  0  0
   29.5590   29.0150   45.5840 C   0  0  0  0  0  0  0  0  0  0  0  0
   28.6380   29.6780   44.7730 C   0  0  0  0  0  0  0  0  0  0  0  0
   28.9420   29.8810   43.4370 C   0  0  0  0  0  0  0  0  0  0  0  0
   30.1610   29.3990   43.0070 C   0  0  0  0  0  0  0  0  0  0  0  0
   31.0940   28.7410   43.7800 C   0  0  0  0  0  0  0  0  0  0  0  0
   35.3510   29.3480   50.4600 C   0  0  0  0  0  0  0  0  0  0  0  0
   36.3140   30.1420   49.7980 C   0  0  0  0  0  0  0  0  0  0  0  0
   36.3090   30.1800   48.4030 C   0  0  0  0  0  0  0  0  0  0  0  0
   35.3680   29.4430   47.7440 N   0  0  0  0  0  0  0  0  0  0  0  0
   34.4690   28.7000   48.3890 C   0  0  0  0  0  0  0  0  0  0  0  0
   34.4550   28.6500   49.7220 N   0  0  0  0  0  0  0  0  0  0  0  0
   37.2920   30.9040   50.6310 C   0  0  0  0  0  0  0  0  0  0  0  0
   38.5930   30.7630   50.0970 F   0  0  0  0  0  0  0  0  0  0  0  0
   36.9730   32.2410   50.5660 F   0  0  0  0  0  0  0  0  0  0  0  0
   37.3130   30.4870   51.9400 F   0  0  0  0  0  0  0  0  0  0  0  0
   34.1559   26.0449   48.4489 H   0  0  0  0  0  0  0  0  0  0  0  0
   32.4876   24.7536   47.1294 H   0  0  0  0  0  0  0  0  0  0  0  0
   29.3061   28.8595   46.6432 H   0  0  0  0  0  0  0  0  0  0  0  0
   27.6839   30.0345   45.1885 H   0  0  0  0  0  0  0  0  0  0  0  0
   28.2496   30.3980   42.7564 H   0  0  0  0  0  0  0  0  0  0  0  0
   30.4123   29.5543   41.9474 H   0  0  0  0  0  0  0  0  0  0  0  0
   32.0459   28.3889   43.3558 H   0  0  0  0  0  0  0  0  0  0  0  0
   35.3292   29.2974   51.5586 H   0  0  0  0  0  0  0  0  0  0  0  0
   37.0421   30.7862   47.8506 H   0  0  0  0  0  0  0  0  0  0  0  0
  1  2  1  0
  2  3  2  0
  3  4  1  0
  3 19  1  0
  5  4  2  0
  6  5  1  0
  7  6  1  0
  8  6  2  0
  8  2  1  0
  9 10  2  0
  9  8  1  0
 11 10  1  0
 12 11  2  0
 13 12  1  0
 13 14  2  0
 14  9  1  0
 16 15  2  0
 16 21  1  0
 17 16  1  0
 18 19  1  0
 18 17  2  0
 19 20  2  0
 20 15  1  0
 21 24  1  0
 22 21  1  0
 23 21  1  0
  4 25  1  0
  5 26  1  0
 10 27  1  0
 11 28  1  0
 12 29  1  0
 13 30  1  0
 14 31  1  0
 15 32  1  0
 17 33  1  0
M  ISO  8  25  14  26  14  27  14  28  14  29  14  30  14  31  14  32  14
M  ISO  1  33  14
M  END
>  <minimizedAffinity>  (1) 
-5.32887316

>  <minimizedRMSD>  (1) 
0.379498959

$$$$
