
     RDKit          3D

 27 28  0  0  0  0  0  0  0  0999 V2000
   32.6610   30.5460   46.4020 Cl  0  0  0  0  0  0  0  0  0  0  0  0
   32.3370   28.8570   46.7180 C   0  0  0  0  0  0  0  0  0  0  0  0
   33.0870   28.1650   47.6740 C   0  0  0  0  0  0  0  0  0  0  0  0
   32.8380   26.8210   47.9340 C   0  0  0  0  0  0  0  0  0  0  0  0
   31.8350   26.1860   47.2290 C   0  0  0  0  0  0  0  0  0  0  0  0
   31.0840   26.8380   46.2850 C   0  0  0  0  0  0  0  0  0  0  0  0
   29.8280   25.9850   45.4210 Cl  0  0  0  0  0  0  0  0  0  0  0  0
   31.3470   28.1740   46.0410 C   0  0  0  0  0  0  0  0  0  0  0  0
   35.0710   29.5090   50.4620 C   0  0  0  0  0  0  0  0  0  0  0  0
   36.1450   30.1180   49.7740 C   0  0  0  0  0  0  0  0  0  0  0  0
   36.1650   30.0550   48.3810 C   0  0  0  0  0  0  0  0  0  0  0  0
   35.1400   29.4050   47.7490 N   0  0  0  0  0  0  0  0  0  0  0  0
   34.1400   28.8390   48.4130 C   0  0  0  0  0  0  0  0  0  0  0  0
   34.0900   28.8810   49.7580 N   0  0  0  0  0  0  0  0  0  0  0  0
   37.2090   30.8000   50.5640 C   0  0  0  0  0  0  0  0  0  0  0  0
   38.4700   30.5440   50.0170 F   0  0  0  0  0  0  0  0  0  0  0  0
   36.9860   32.1510   50.5180 F   0  0  0  0  0  0  0  0  0  0  0  0
   37.2210   30.3990   51.8870 F   0  0  0  0  0  0  0  0  0  0  0  0
   29.4260   29.4950   45.6150 C   0  0  0  0  0  0  0  0  0  0  0  0
   29.0140   29.4820   46.8190 O   0  0  0  0  0  0  0  0  0  0  0  0
   30.5860   28.8810   45.0680 N   0  0  0  0  0  0  0  0  0  0  0  0
   33.4279   26.2758   48.6855 H   0  0  0  0  0  0  0  0  0  0  0  0
   31.6320   25.1239   47.4309 H   0  0  0  0  0  0  0  0  0  0  0  0
   35.0282   29.5424   51.5607 H   0  0  0  0  0  0  0  0  0  0  0  0
   36.9822   30.5151   47.8061 H   0  0  0  0  0  0  0  0  0  0  0  0
   28.8021   30.0555   44.9032 H   0  0  0  0  0  0  0  0  0  0  0  0
   30.8477   28.9414   44.0736 H   0  0  0  0  0  0  0  0  0  0  0  0
  1  2  1  0
  2  3  2  0
  3  4  1  0
  3 13  1  0
  5  4  2  0
  6  5  1  0
  7  6  1  0
  8  6  2  0
  8  2  1  0
 10  9  2  0
 10 15  1  0
 11 10  1  0
 12 11  2  0
 12 13  1  0
 13 14  2  0
 14  9  1  0
 15 18  1  0
 16 15  1  0
 17 15  1  0
 19 20  2  0
 21 19  1  0
 21  8  1  0
  4 22  1  0
  5 23  1  0
  9 24  1  0
 11 25  1  0
 19 26  1  0
 21 27  1  0
M  ISO  5  22  14  23  14  24  14  25  14  26   6
M  END
>  <minimizedAffinity>  (1) 
-5.31688595

>  <minimizedRMSD>  (1) 
0.547818661

$$$$
