
     RDKit          3D

 25 26  0  0  0  0  0  0  0  0999 V2000
   32.6860   30.1820   46.5310 Cl  0  0  0  0  0  0  0  0  0  0  0  0
   32.6780   28.4410   46.7050 C   0  0  0  0  0  0  0  0  0  0  0  0
   33.5700   27.8250   47.5800 C   0  0  0  0  0  0  0  0  0  0  0  0
   33.5930   26.4460   47.7440 C   0  0  0  0  0  0  0  0  0  0  0  0
   32.6870   25.6940   46.9970 C   0  0  0  0  0  0  0  0  0  0  0  0
   31.7910   26.2890   46.1210 C   0  0  0  0  0  0  0  0  0  0  0  0
   30.7010   25.2490   45.2390 Cl  0  0  0  0  0  0  0  0  0  0  0  0
   31.7990   27.6680   45.9860 C   0  0  0  0  0  0  0  0  0  0  0  0
   35.3780   29.2820   50.4340 C   0  0  0  0  0  0  0  0  0  0  0  0
   36.3090   30.1260   49.7890 C   0  0  0  0  0  0  0  0  0  0  0  0
   36.2950   30.1730   48.3900 C   0  0  0  0  0  0  0  0  0  0  0  0
   35.3830   29.4040   47.7290 N   0  0  0  0  0  0  0  0  0  0  0  0
   34.5160   28.6190   48.3590 C   0  0  0  0  0  0  0  0  0  0  0  0
   34.5050   28.5500   49.6950 N   0  0  0  0  0  0  0  0  0  0  0  0
   37.2550   30.9180   50.6190 C   0  0  0  0  0  0  0  0  0  0  0  0
   38.5620   30.7830   50.1250 F   0  0  0  0  0  0  0  0  0  0  0  0
   36.9010   32.2360   50.5500 F   0  0  0  0  0  0  0  0  0  0  0  0
   37.2740   30.5060   51.9380 F   0  0  0  0  0  0  0  0  0  0  0  0
   30.8790   28.2800   45.0860 N   0  0  0  0  0  0  0  0  0  0  0  0
   34.2992   25.9653   48.4369 H   0  0  0  0  0  0  0  0  0  0  0  0
   32.6827   24.5994   47.1053 H   0  0  0  0  0  0  0  0  0  0  0  0
   35.3602   29.2178   51.5320 H   0  0  0  0  0  0  0  0  0  0  0  0
   37.0002   30.8126   47.8390 H   0  0  0  0  0  0  0  0  0  0  0  0
   30.8720   29.3039   44.9740 H   0  0  0  0  0  0  0  0  0  0  0  0
   30.2211   27.6985   44.5476 H   0  0  0  0  0  0  0  0  0  0  0  0
  1  2  1  0
  2  3  2  0
  3  4  1  0
  3 13  1  0
  5  4  2  0
  6  5  1  0
  7  6  1  0
  8  6  2  0
  8  2  1  0
 10  9  2  0
 10 15  1  0
 11 10  1  0
 12 13  1  0
 12 11  2  0
 13 14  2  0
 14  9  1  0
 15 18  1  0
 16 15  1  0
 17 15  1  0
 19  8  1  0
  4 20  1  0
  5 21  1  0
  9 22  1  0
 11 23  1  0
 19 24  1  0
 19 25  1  0
M  ISO  4  20  14  21  14  22  14  23  14
M  END
>  <minimizedAffinity>  (1) 
-5.25250721

>  <minimizedRMSD>  (1) 
0.103232428

$$$$
