
     RDKit          3D

 26 27  0  0  0  0  0  0  0  0999 V2000
   35.3740   29.2950   50.4450 C   0  0  0  0  0  0  0  0  0  0  0  0
   36.3080   30.1290   49.7880 C   0  0  0  0  0  0  0  0  0  0  0  0
   36.2920   30.1740   48.3850 C   0  0  0  0  0  0  0  0  0  0  0  0
   35.3750   29.4070   47.7320 N   0  0  0  0  0  0  0  0  0  0  0  0
   34.5000   28.6250   48.3730 C   0  0  0  0  0  0  0  0  0  0  0  0
   34.4960   28.5660   49.7120 N   0  0  0  0  0  0  0  0  0  0  0  0
   32.6710   30.2070   46.5470 Cl  0  0  0  0  0  0  0  0  0  0  0  0
   32.6630   28.4670   46.7110 C   0  0  0  0  0  0  0  0  0  0  0  0
   33.5560   27.8410   47.5870 C   0  0  0  0  0  0  0  0  0  0  0  0
   33.5760   26.4600   47.7410 C   0  0  0  0  0  0  0  0  0  0  0  0
   32.6860   25.7050   47.0020 C   0  0  0  0  0  0  0  0  0  0  0  0
   31.7900   26.3040   46.1250 C   0  0  0  0  0  0  0  0  0  0  0  0
   30.6830   25.2990   45.2130 Cl  0  0  0  0  0  0  0  0  0  0  0  0
   31.7900   27.6800   45.9910 C   0  0  0  0  0  0  0  0  0  0  0  0
   30.8350   28.3580   45.0530 C   0  0  0  0  0  0  0  0  0  0  0  0
   37.2650   30.9220   50.6220 C   0  0  0  0  0  0  0  0  0  0  0  0
   38.5630   30.7810   50.1190 F   0  0  0  0  0  0  0  0  0  0  0  0
   36.9220   32.2360   50.5520 F   0  0  0  0  0  0  0  0  0  0  0  0
   37.2850   30.5030   51.9390 F   0  0  0  0  0  0  0  0  0  0  0  0
   35.3596   29.2378   51.5434 H   0  0  0  0  0  0  0  0  0  0  0  0
   36.9982   30.8091   47.8300 H   0  0  0  0  0  0  0  0  0  0  0  0
   34.2828   25.9801   48.4340 H   0  0  0  0  0  0  0  0  0  0  0  0
   32.6866   24.6103   47.1097 H   0  0  0  0  0  0  0  0  0  0  0  0
   30.0730   28.8990   45.6333 H   0  0  0  0  0  0  0  0  0  0  0  0
   31.3859   29.0684   44.4190 H   0  0  0  0  0  0  0  0  0  0  0  0
   30.3460   27.6037   44.4190 H   0  0  0  0  0  0  0  0  0  0  0  0
  2  1  2  0
  2 16  1  0
  3  2  1  0
  4  5  1  0
  4  3  2  0
  5  6  2  0
  6  1  1  0
  7  8  1  0
  8  9  2  0
  9 10  1  0
  9  5  1  0
 11 10  2  0
 12 11  1  0
 13 12  1  0
 14 12  2  0
 14  8  1  0
 15 14  1  0
 16 19  1  0
 17 16  1  0
 18 16  1  0
  1 20  1  0
  3 21  1  0
 10 22  1  0
 11 23  1  0
 15 24  1  0
 15 25  1  0
 15 26  1  0
M  ISO  7  20  14  21  14  22  14  23  14  24   8  25   8  26   8
M  END
>  <minimizedAffinity>  (1) 
-5.24339151

>  <minimizedRMSD>  (1) 
0.0879342481

$$$$
