
     RDKit          3D

 24 25  0  0  0  0  0  0  0  0999 V2000
   35.3460   29.3390   50.4500 C   0  0  0  0  0  0  0  0  0  0  0  0
   36.3050   30.1470   49.7990 C   0  0  0  0  0  0  0  0  0  0  0  0
   36.2980   30.1810   48.3970 C   0  0  0  0  0  0  0  0  0  0  0  0
   35.3650   29.4310   47.7490 N   0  0  0  0  0  0  0  0  0  0  0  0
   34.4660   28.6730   48.3910 C   0  0  0  0  0  0  0  0  0  0  0  0
   34.4540   28.6260   49.7190 N   0  0  0  0  0  0  0  0  0  0  0  0
   32.6870   30.2770   46.5350 Cl  0  0  0  0  0  0  0  0  0  0  0  0
   32.6480   28.5260   46.7190 C   0  0  0  0  0  0  0  0  0  0  0  0
   33.5140   27.9120   47.6010 C   0  0  0  0  0  0  0  0  0  0  0  0
   33.5010   26.5150   47.7640 C   0  0  0  0  0  0  0  0  0  0  0  0
   32.5980   25.7900   47.0150 C   0  0  0  0  0  0  0  0  0  0  0  0
   31.7280   26.3910   46.1300 C   0  0  0  0  0  0  0  0  0  0  0  0
   30.6060   25.4110   45.2100 Cl  0  0  0  0  0  0  0  0  0  0  0  0
   31.7590   27.7790   45.9850 C   0  0  0  0  0  0  0  0  0  0  0  0
   30.6490   28.5990   44.8510 S   0  0  0  0  0  0  0  0  0  0  0  0
   37.2760   30.9210   50.6220 C   0  0  0  0  0  0  0  0  0  0  0  0
   38.5790   30.7710   50.1000 F   0  0  0  0  0  0  0  0  0  0  0  0
   36.9530   32.2410   50.5640 F   0  0  0  0  0  0  0  0  0  0  0  0
   37.2980   30.5060   51.9390 F   0  0  0  0  0  0  0  0  0  0  0  0
   35.3231   29.2885   51.5486 H   0  0  0  0  0  0  0  0  0  0  0  0
   37.0222   30.7933   47.8396 H   0  0  0  0  0  0  0  0  0  0  0  0
   34.1876   26.0177   48.4649 H   0  0  0  0  0  0  0  0  0  0  0  0
   32.5709   24.6961   47.1273 H   0  0  0  0  0  0  0  0  0  0  0  0
   29.7056   29.2959   45.5590 H   0  0  0  0  0  0  0  0  0  0  0  0
  2  1  2  0
  2 16  1  0
  3  2  1  0
  4  5  1  0
  4  3  2  0
  5  6  2  0
  6  1  1  0
  7  8  1  0
  8  9  2  0
  9 10  1  0
  9  5  1  0
 11 10  2  0
 12 11  1  0
 13 12  1  0
 14 12  2  0
 14  8  1  0
 15 14  1  0
 16 19  1  0
 17 16  1  0
 18 16  1  0
  1 20  1  0
  3 21  1  0
 10 22  1  0
 11 23  1  0
 15 24  1  0
M  ISO  5  20  14  21  14  22  14  23  14  24  11
M  END
>  <minimizedAffinity>  (1) 
-5.22337008

>  <minimizedRMSD>  (1) 
0.0476865396

$$$$
