
     RDKit          3D

 25 26  0  0  0  0  0  0  0  0999 V2000
   32.7020   30.2630   46.5230 Cl  0  0  0  0  0  0  0  0  0  0  0  0
   32.6550   28.5220   46.7130 C   0  0  0  0  0  0  0  0  0  0  0  0
   33.5360   27.8870   47.5970 C   0  0  0  0  0  0  0  0  0  0  0  0
   33.5160   26.5040   47.7640 C   0  0  0  0  0  0  0  0  0  0  0  0
   32.5870   25.7840   47.0190 C   0  0  0  0  0  0  0  0  0  0  0  0
   31.7130   26.3800   46.1470 C   0  0  0  0  0  0  0  0  0  0  0  0
   30.5940   25.3720   45.2680 Cl  0  0  0  0  0  0  0  0  0  0  0  0
   31.7550   27.7530   46.0010 C   0  0  0  0  0  0  0  0  0  0  0  0
   35.3770   29.3060   50.4420 C   0  0  0  0  0  0  0  0  0  0  0  0
   36.3180   30.1440   49.7800 C   0  0  0  0  0  0  0  0  0  0  0  0
   36.2950   30.2010   48.3800 C   0  0  0  0  0  0  0  0  0  0  0  0
   35.3660   29.4410   47.7370 N   0  0  0  0  0  0  0  0  0  0  0  0
   34.4930   28.6630   48.3610 C   0  0  0  0  0  0  0  0  0  0  0  0
   34.4890   28.5870   49.7070 N   0  0  0  0  0  0  0  0  0  0  0  0
   37.2760   30.9180   50.6260 C   0  0  0  0  0  0  0  0  0  0  0  0
   38.5750   30.7790   50.1050 F   0  0  0  0  0  0  0  0  0  0  0  0
   36.9380   32.2390   50.5600 F   0  0  0  0  0  0  0  0  0  0  0  0
   37.2890   30.5070   51.9370 F   0  0  0  0  0  0  0  0  0  0  0  0
   30.8330   28.4080   45.0780 C   0  0  0  0  0  0  0  0  0  0  0  0
   29.6960   28.9300   45.2100 O   0  0  0  0  0  0  0  0  0  0  0  0
   34.2068   26.0014   48.4569 H   0  0  0  0  0  0  0  0  0  0  0  0
   32.5525   24.6906   47.1346 H   0  0  0  0  0  0  0  0  0  0  0  0
   35.3688   29.2410   51.5401 H   0  0  0  0  0  0  0  0  0  0  0  0
   37.0000   30.8350   47.8222 H   0  0  0  0  0  0  0  0  0  0  0  0
   31.2137   28.4552   44.0470 H   0  0  0  0  0  0  0  0  0  0  0  0
  1  2  1  0
  2  3  2  0
  3  4  1  0
  3 13  1  0
  5  4  2  0
  6  5  1  0
  7  6  1  0
  8  6  2  0
  8  2  1  0
 10  9  2  0
 10 15  1  0
 11 10  1  0
 12 13  1  0
 12 11  2  0
 13 14  2  0
 14  9  1  0
 15 18  1  0
 16 15  1  0
 17 15  1  0
 19 20  2  0
 19  8  1  0
  4 21  1  0
  5 22  1  0
  9 23  1  0
 11 24  1  0
 19 25  1  0
M  ISO  5  21  14  22  14  23  14  24  14  25   6
M  END
>  <minimizedAffinity>  (1) 
-5.08978796

>  <minimizedRMSD>  (1) 
0.0754515529

$$$$
