
     RDKit          3D

 36 38  0  0  0  0  0  0  0  0999 V2000
   35.4090   29.1990   50.5230 C   0  0  0  0  0  0  0  0  0  0  0  0
   36.3550   30.0510   49.9210 C   0  0  0  0  0  0  0  0  0  0  0  0
   36.3670   30.1700   48.5330 C   0  0  0  0  0  0  0  0  0  0  0  0
   35.4550   29.4510   47.8230 N   0  0  0  0  0  0  0  0  0  0  0  0
   34.5660   28.6510   48.4080 C   0  0  0  0  0  0  0  0  0  0  0  0
   34.5340   28.5190   49.7360 N   0  0  0  0  0  0  0  0  0  0  0  0
   32.8030   30.3510   46.6200 Cl  0  0  0  0  0  0  0  0  0  0  0  0
   32.7440   28.5880   46.7030 C   0  0  0  0  0  0  0  0  0  0  0  0
   33.6190   27.9120   47.5700 C   0  0  0  0  0  0  0  0  0  0  0  0
   33.6150   26.5210   47.6680 C   0  0  0  0  0  0  0  0  0  0  0  0
   32.6970   25.8390   46.8620 C   0  0  0  0  0  0  0  0  0  0  0  0
   31.8380   26.4860   46.0140 C   0  0  0  0  0  0  0  0  0  0  0  0
   30.7380   25.5190   45.0660 Cl  0  0  0  0  0  0  0  0  0  0  0  0
   31.8740   27.8690   45.9470 C   0  0  0  0  0  0  0  0  0  0  0  0
   30.9490   28.5790   45.0260 C   0  0  0  0  0  0  0  0  0  0  0  0
   30.0340   27.6820   44.4570 F   0  0  0  0  0  0  0  0  0  0  0  0
   31.6040   29.2670   44.0560 F   0  0  0  0  0  0  0  0  0  0  0  0
   30.1790   29.4810   45.7470 F   0  0  0  0  0  0  0  0  0  0  0  0
   36.0160   30.0870   45.8530 F   0  0  0  0  0  0  0  0  0  0  0  0
   37.0050   30.8410   46.4180 C   0  0  0  0  0  0  0  0  0  0  0  0
   37.3090   30.9760   47.7810 C   0  0  0  0  0  0  0  0  0  0  0  0
   38.3570   31.8000   48.1100 C   0  0  0  0  0  0  0  0  0  0  0  0
   39.0590   32.4490   47.1200 C   0  0  0  0  0  0  0  0  0  0  0  0
   38.7860   32.3380   45.7730 C   0  0  0  0  0  0  0  0  0  0  0  0
   37.7280   31.5080   45.4250 C   0  0  0  0  0  0  0  0  0  0  0  0
   37.3290   30.8000   50.7750 C   0  0  0  0  0  0  0  0  0  0  0  0
   38.6420   30.5830   50.3580 F   0  0  0  0  0  0  0  0  0  0  0  0
   37.0430   32.1330   50.7090 F   0  0  0  0  0  0  0  0  0  0  0  0
   37.2310   30.4190   52.1060 F   0  0  0  0  0  0  0  0  0  0  0  0
   35.3786   29.0852   51.6167 H   0  0  0  0  0  0  0  0  0  0  0  0
   34.2987   25.9872   48.3445 H   0  0  0  0  0  0  0  0  0  0  0  0
   32.6639   24.7406   46.9113 H   0  0  0  0  0  0  0  0  0  0  0  0
   38.6354   31.9414   49.1647 H   0  0  0  0  0  0  0  0  0  0  0  0
   39.8929   33.0991   47.4233 H   0  0  0  0  0  0  0  0  0  0  0  0
   39.3738   32.8772   45.0155 H   0  0  0  0  0  0  0  0  0  0  0  0
   37.4588   31.3755   44.3667 H   0  0  0  0  0  0  0  0  0  0  0  0
  2  1  2  0
  2 26  1  0
  3  2  1  0
  4  5  1  0
  4  3  2  0
  5  6  2  0
  6  1  1  0
  7  8  1  0
  8  9  2  0
  9 10  1  0
  9  5  1  0
 11 10  2  0
 12 11  1  0
 13 12  1  0
 14 12  2  0
 14  8  1  0
 15 18  1  0
 15 14  1  0
 16 15  1  0
 17 15  1  0
 19 20  1  0
 20 21  2  0
 21 22  1  0
 21  3  1  0
 23 22  2  0
 24 23  1  0
 25 24  2  0
 25 20  1  0
 26 29  1  0
 27 26  1  0
 28 26  1  0
  1 30  1  0
 10 31  1  0
 11 32  1  0
 22 33  1  0
 23 34  1  0
 24 35  1  0
 25 36  1  0
M  ISO  7  30  14  31  14  32  14  33  14  34  14  35  14  36  14
M  END
>  <minimizedAffinity>  (1) 
-6.97102833

>  <minimizedRMSD>  (1) 
0.350318611

$$$$
