
     RDKit          3D

 41 43  0  0  0  0  0  0  0  0999 V2000
   35.4490   29.2140   50.4480 C   0  0  0  0  0  0  0  0  0  0  0  0
   36.3160   30.1250   49.8190 C   0  0  0  0  0  0  0  0  0  0  0  0
   36.2260   30.2630   48.4430 C   0  0  0  0  0  0  0  0  0  0  0  0
   35.3220   29.5310   47.7480 N   0  0  0  0  0  0  0  0  0  0  0  0
   34.5070   28.6720   48.3650 C   0  0  0  0  0  0  0  0  0  0  0  0
   34.5670   28.5150   49.6880 N   0  0  0  0  0  0  0  0  0  0  0  0
   37.0420   31.1640   47.7150 N   0  0  0  0  0  0  0  0  0  0  0  0
   37.8520   32.3440   47.9450 C   0  0  0  0  0  0  0  0  0  0  0  0
   39.2520   32.2480   47.4410 C   0  0  0  0  0  0  0  0  0  0  0  0
   39.2970   31.5920   46.0760 C   0  0  0  0  0  0  0  0  0  0  0  0
   37.9100   31.5960   45.4670 C   0  0  0  0  0  0  0  0  0  0  0  0
   37.0210   30.7130   46.3150 C   0  0  0  0  0  0  0  0  0  0  0  0
   32.6940   30.3120   46.5760 Cl  0  0  0  0  0  0  0  0  0  0  0  0
   32.6530   28.5560   46.7140 C   0  0  0  0  0  0  0  0  0  0  0  0
   33.5420   27.9000   47.5770 C   0  0  0  0  0  0  0  0  0  0  0  0
   33.5460   26.5160   47.7190 C   0  0  0  0  0  0  0  0  0  0  0  0
   32.6100   25.8180   46.9500 C   0  0  0  0  0  0  0  0  0  0  0  0
   31.7320   26.4270   46.1020 C   0  0  0  0  0  0  0  0  0  0  0  0
   30.6160   25.4360   45.2000 Cl  0  0  0  0  0  0  0  0  0  0  0  0
   31.7620   27.8130   45.9900 C   0  0  0  0  0  0  0  0  0  0  0  0
   30.8160   28.4920   45.0740 C   0  0  0  0  0  0  0  0  0  0  0  0
   29.8500   27.5990   44.6100 F   0  0  0  0  0  0  0  0  0  0  0  0
   31.4410   29.1060   44.0240 F   0  0  0  0  0  0  0  0  0  0  0  0
   30.1130   29.4660   45.7720 F   0  0  0  0  0  0  0  0  0  0  0  0
   37.2920   30.8940   50.6330 C   0  0  0  0  0  0  0  0  0  0  0  0
   38.6070   30.7070   50.1710 F   0  0  0  0  0  0  0  0  0  0  0  0
   36.9830   32.2230   50.5690 F   0  0  0  0  0  0  0  0  0  0  0  0
   37.2730   30.5170   51.9670 F   0  0  0  0  0  0  0  0  0  0  0  0
   35.4846   29.0699   51.5379 H   0  0  0  0  0  0  0  0  0  0  0  0
   37.3661   33.1955   47.4461 H   0  0  0  0  0  0  0  0  0  0  0  0
   37.9227   32.4638   49.0362 H   0  0  0  0  0  0  0  0  0  0  0  0
   39.6774   33.2597   47.3675 H   0  0  0  0  0  0  0  0  0  0  0  0
   39.8345   31.6335   48.1431 H   0  0  0  0  0  0  0  0  0  0  0  0
   39.9853   32.1497   45.4238 H   0  0  0  0  0  0  0  0  0  0  0  0
   39.6487   30.5549   46.1794 H   0  0  0  0  0  0  0  0  0  0  0  0
   37.5122   32.6214   45.4527 H   0  0  0  0  0  0  0  0  0  0  0  0
   37.9466   31.2196   44.4340 H   0  0  0  0  0  0  0  0  0  0  0  0
   35.9905   30.7616   45.9332 H   0  0  0  0  0  0  0  0  0  0  0  0
   37.3918   29.6785   46.2661 H   0  0  0  0  0  0  0  0  0  0  0  0
   34.2440   26.0016   48.3959 H   0  0  0  0  0  0  0  0  0  0  0  0
   32.5800   24.7215   47.0330 H   0  0  0  0  0  0  0  0  0  0  0  0
  2  1  2  0
  2 25  1  0
  3  2  1  0
  4  5  1  0
  4  3  2  0
  5  6  2  0
  6  1  1  0
  7  8  1  0
  7  3  1  0
  9  8  1  0
 10  9  1  0
 11 10  1  0
 11 12  1  0
 12  7  1  0
 13 14  1  0
 14 15  2  0
 15 16  1  0
 15  5  1  0
 17 16  2  0
 18 17  1  0
 19 18  1  0
 20 18  2  0
 20 14  1  0
 21 24  1  0
 21 20  1  0
 22 21  1  0
 23 21  1  0
 25 28  1  0
 26 25  1  0
 27 25  1  0
  1 29  1  0
  8 30  1  0
  8 31  1  0
  9 32  1  0
  9 33  1  0
 10 34  1  0
 10 35  1  0
 11 36  1  0
 11 37  1  0
 12 38  1  0
 12 39  1  0
 16 40  1  0
 17 41  1  0
M  ISO  8  29  14  30  13  31  13  32  13  33  13  34  13  35  13  36  13
M  ISO  5  37  13  38  13  39  13  40  14  41  14
M  END
>  <minimizedAffinity>  (1) 
-6.82888937

>  <minimizedRMSD>  (1) 
0.169512674

$$$$
