
     RDKit          3D

 37 39  0  0  1  0  0  0  0  0999 V2000
   35.4430   29.1930   50.4460 C   0  0  0  0  0  0  0  0  0  0  0  0
   36.3040   30.1080   49.7840 C   0  0  0  0  0  0  0  0  0  0  0  0
   36.1910   30.2840   48.4080 C   0  0  0  0  0  0  0  0  0  0  0  0
   35.2240   29.5360   47.7830 N   0  0  0  0  0  0  0  0  0  0  0  0
   34.4310   28.6930   48.3990 C   0  0  0  0  0  0  0  0  0  0  0  0
   34.5250   28.5100   49.7190 N   0  0  0  0  0  0  0  0  0  0  0  0
   32.6780   30.3560   46.5710 Cl  0  0  0  0  0  0  0  0  0  0  0  0
   32.5650   28.6070   46.7500 C   0  0  0  0  0  0  0  0  0  0  0  0
   33.4280   27.9420   47.6270 C   0  0  0  0  0  0  0  0  0  0  0  0
   33.3770   26.5660   47.8010 C   0  0  0  0  0  0  0  0  0  0  0  0
   32.4160   25.8770   47.0560 C   0  0  0  0  0  0  0  0  0  0  0  0
   31.5590   26.5070   46.1920 C   0  0  0  0  0  0  0  0  0  0  0  0
   30.4000   25.5410   45.3130 Cl  0  0  0  0  0  0  0  0  0  0  0  0
   31.6440   27.8880   46.0460 C   0  0  0  0  0  0  0  0  0  0  0  0
   30.7220   28.5830   45.1130 C   0  0  0  0  0  0  0  0  0  0  0  0
   29.7420   27.7060   44.6480 F   0  0  0  0  0  0  0  0  0  0  0  0
   31.3670   29.1770   44.0780 F   0  0  0  0  0  0  0  0  0  0  0  0
   30.0290   29.5710   45.8100 F   0  0  0  0  0  0  0  0  0  0  0  0
   37.0450   31.2070   47.6780 C   0  0  2  0  0  0  0  0  0  0  0  0
   38.4040   30.6860   47.2830 C   0  0  0  0  0  0  0  0  0  0  0  0
   39.1830   32.0070   47.1860 C   0  0  0  0  0  0  0  0  0  0  0  0
   38.6130   32.8660   48.0850 O   0  0  0  0  0  0  0  0  0  0  0  0
   37.5690   32.2340   48.7070 C   0  0  0  0  0  0  0  0  0  0  0  0
   37.3100   30.8520   50.5910 C   0  0  0  0  0  0  0  0  0  0  0  0
   38.6020   30.6180   50.1530 F   0  0  0  0  0  0  0  0  0  0  0  0
   37.0290   32.1960   50.5410 F   0  0  0  0  0  0  0  0  0  0  0  0
   37.2730   30.4920   51.9300 F   0  0  0  0  0  0  0  0  0  0  0  0
   35.5199   29.0407   51.5327 H   0  0  0  0  0  0  0  0  0  0  0  0
   34.0579   26.0446   48.4898 H   0  0  0  0  0  0  0  0  0  0  0  0
   32.3447   24.7850   47.1677 H   0  0  0  0  0  0  0  0  0  0  0  0
   36.4262   31.5062   46.8192 H   0  0  0  0  0  0  0  0  0  0  0  0
   38.8244   30.0204   48.0513 H   0  0  0  0  0  0  0  0  0  0  0  0
   38.4162   30.0745   46.3687 H   0  0  0  0  0  0  0  0  0  0  0  0
   40.2412   31.8425   47.4372 H   0  0  0  0  0  0  0  0  0  0  0  0
   39.1418   32.4168   46.1660 H   0  0  0  0  0  0  0  0  0  0  0  0
   36.7808   32.9560   48.9669 H   0  0  0  0  0  0  0  0  0  0  0  0
   37.8807   31.7526   49.6457 H   0  0  0  0  0  0  0  0  0  0  0  0
  2  1  2  0
  2 24  1  0
  3  2  1  0
  4  5  1  0
  4  3  2  0
  5  6  2  0
  6  1  1  0
  7  8  1  0
  8  9  2  0
  9 10  1  0
  9  5  1  0
 11 10  2  0
 12 11  1  0
 13 12  1  0
 14 12  2  0
 14  8  1  0
 15 18  1  0
 15 14  1  0
 16 15  1  0
 17 15  1  0
 19  3  1  0
 19 23  1  0
 20 19  1  0
 21 20  1  0
 21 22  1  0
 22 23  1  0
 24 27  1  0
 25 24  1  0
 26 24  1  0
  1 28  1  0
 10 29  1  0
 11 30  1  0
 19 31  1  6
 20 32  1  0
 20 33  1  0
 21 34  1  0
 21 35  1  0
 23 36  1  0
 23 37  1  0
M  ISO  8  28  14  29  14  30  14  31  13  32  13  33  13  34  13  35  13
M  ISO  2  36  13  37  13
M  END
>  <minimizedAffinity>  (1) 
-6.48061657

>  <minimizedRMSD>  (1) 
0.193721756

$$$$
