
     RDKit          3D

 33 35  0  0  0  0  0  0  0  0999 V2000
   35.3730   29.2380   50.4590 C   0  0  0  0  0  0  0  0  0  0  0  0
   36.3140   30.0660   49.8090 C   0  0  0  0  0  0  0  0  0  0  0  0
   36.3260   30.1150   48.4180 C   0  0  0  0  0  0  0  0  0  0  0  0
   35.4130   29.3470   47.7590 N   0  0  0  0  0  0  0  0  0  0  0  0
   34.5410   28.5790   48.3690 C   0  0  0  0  0  0  0  0  0  0  0  0
   34.4990   28.5060   49.7220 N   0  0  0  0  0  0  0  0  0  0  0  0
   32.6810   30.1590   46.5850 Cl  0  0  0  0  0  0  0  0  0  0  0  0
   32.6890   28.4100   46.7270 C   0  0  0  0  0  0  0  0  0  0  0  0
   33.5930   27.7850   47.5830 C   0  0  0  0  0  0  0  0  0  0  0  0
   33.6300   26.3930   47.7250 C   0  0  0  0  0  0  0  0  0  0  0  0
   32.7140   25.6610   46.9620 C   0  0  0  0  0  0  0  0  0  0  0  0
   31.8250   26.2550   46.1200 C   0  0  0  0  0  0  0  0  0  0  0  0
   30.7270   25.2320   45.2170 Cl  0  0  0  0  0  0  0  0  0  0  0  0
   31.8130   27.6310   46.0040 C   0  0  0  0  0  0  0  0  0  0  0  0
   30.8480   28.2840   45.0890 C   0  0  0  0  0  0  0  0  0  0  0  0
   29.8870   27.3710   44.6620 F   0  0  0  0  0  0  0  0  0  0  0  0
   31.4580   28.8820   44.0270 F   0  0  0  0  0  0  0  0  0  0  0  0
   30.1500   29.2730   45.7690 F   0  0  0  0  0  0  0  0  0  0  0  0
   37.2940   30.9670   47.7310 C   0  0  0  0  0  0  0  0  0  0  0  0
   38.4410   31.5740   48.2120 C   0  0  0  0  0  0  0  0  0  0  0  0
   39.0250   32.2810   47.1770 C   0  0  0  0  0  0  0  0  0  0  0  0
   38.2370   32.1020   46.0860 N   0  0  0  0  0  0  0  0  0  0  0  0
   37.2400   31.3350   46.4390 N   0  0  0  0  0  0  0  0  0  0  0  0
   37.2710   30.8680   50.6420 C   0  0  0  0  0  0  0  0  0  0  0  0
   38.5860   30.6670   50.2170 F   0  0  0  0  0  0  0  0  0  0  0  0
   36.9560   32.1980   50.5140 F   0  0  0  0  0  0  0  0  0  0  0  0
   37.1940   30.5420   51.9810 F   0  0  0  0  0  0  0  0  0  0  0  0
   35.3482   29.1863   51.5575 H   0  0  0  0  0  0  0  0  0  0  0  0
   34.3430   25.8998   48.4020 H   0  0  0  0  0  0  0  0  0  0  0  0
   32.7122   24.5642   47.0458 H   0  0  0  0  0  0  0  0  0  0  0  0
   38.8227   31.5057   49.2414 H   0  0  0  0  0  0  0  0  0  0  0  0
   39.9499   32.8742   47.2278 H   0  0  0  0  0  0  0  0  0  0  0  0
   38.3964   32.4992   45.1491 H   0  0  0  0  0  0  0  0  0  0  0  0
  2  1  2  0
  2 24  1  0
  3  2  1  0
  4  5  1  0
  4  3  2  0
  5  6  2  0
  6  1  1  0
  7  8  1  0
  8  9  2  0
  9 10  1  0
  9  5  1  0
 11 10  2  0
 12 11  1  0
 13 12  1  0
 14 12  2  0
 14  8  1  0
 15 18  1  0
 15 14  1  0
 16 15  1  0
 17 15  1  0
 19 20  1  0
 19  3  1  0
 21 20  2  0
 22 23  1  0
 22 21  1  0
 23 19  2  0
 24 27  1  0
 25 24  1  0
 26 24  1  0
  1 28  1  0
 10 29  1  0
 11 30  1  0
 20 31  1  0
 21 32  1  0
 22 33  1  0
M  ISO  6  28  14  29  14  30  14  31  14  32  14  33   9
M  END
>  <minimizedAffinity>  (1) 
-6.36112595

>  <minimizedRMSD>  (1) 
0.143652961

$$$$
