
     RDKit          3D

 39 41  0  0  0  0  0  0  0  0999 V2000
   35.5350   29.1540   50.4190 C   0  0  0  0  0  0  0  0  0  0  0  0
   36.3460   30.1100   49.7630 C   0  0  0  0  0  0  0  0  0  0  0  0
   36.2160   30.2820   48.3800 C   0  0  0  0  0  0  0  0  0  0  0  0
   35.2940   29.5020   47.7240 N   0  0  0  0  0  0  0  0  0  0  0  0
   34.5430   28.6110   48.3630 C   0  0  0  0  0  0  0  0  0  0  0  0
   34.6480   28.4250   49.6910 N   0  0  0  0  0  0  0  0  0  0  0  0
   32.6950   30.1870   46.5510 Cl  0  0  0  0  0  0  0  0  0  0  0  0
   32.6740   28.4440   46.7190 C   0  0  0  0  0  0  0  0  0  0  0  0
   33.5750   27.8120   47.5920 C   0  0  0  0  0  0  0  0  0  0  0  0
   33.5920   26.4350   47.7580 C   0  0  0  0  0  0  0  0  0  0  0  0
   32.6600   25.7060   47.0100 C   0  0  0  0  0  0  0  0  0  0  0  0
   31.7800   26.2930   46.1630 C   0  0  0  0  0  0  0  0  0  0  0  0
   30.6720   25.2690   45.2800 Cl  0  0  0  0  0  0  0  0  0  0  0  0
   31.7900   27.6730   46.0190 C   0  0  0  0  0  0  0  0  0  0  0  0
   30.8310   28.3220   45.0950 C   0  0  0  0  0  0  0  0  0  0  0  0
   29.8180   27.4240   44.7330 F   0  0  0  0  0  0  0  0  0  0  0  0
   31.4310   28.8460   43.9890 F   0  0  0  0  0  0  0  0  0  0  0  0
   30.1910   29.3590   45.7480 F   0  0  0  0  0  0  0  0  0  0  0  0
   37.3120   30.9050   50.5860 C   0  0  0  0  0  0  0  0  0  0  0  0
   38.5950   30.8070   50.0780 F   0  0  0  0  0  0  0  0  0  0  0  0
   36.9280   32.2290   50.5310 F   0  0  0  0  0  0  0  0  0  0  0  0
   37.3190   30.5250   51.9060 F   0  0  0  0  0  0  0  0  0  0  0  0
   37.0510   31.2650   47.7030 C   0  0  0  0  0  0  0  0  0  0  0  0
   39.7510   31.0610   47.0170 F   0  0  0  0  0  0  0  0  0  0  0  0
   38.8260   30.7460   46.0810 C   0  0  0  0  0  0  0  0  0  0  0  0
   37.4510   30.8210   46.3460 C   0  0  0  0  0  0  0  0  0  0  0  0
   36.6170   30.4730   45.3090 C   0  0  0  0  0  0  0  0  0  0  0  0
   37.0590   30.0700   44.0720 C   0  0  0  0  0  0  0  0  0  0  0  0
   38.4270   30.0050   43.8360 C   0  0  0  0  0  0  0  0  0  0  0  0
   39.3090   30.3450   44.8430 C   0  0  0  0  0  0  0  0  0  0  0  0
   35.6212   29.0024   51.5051 H   0  0  0  0  0  0  0  0  0  0  0  0
   34.2999   25.9423   48.4408 H   0  0  0  0  0  0  0  0  0  0  0  0
   32.6412   24.6111   47.1141 H   0  0  0  0  0  0  0  0  0  0  0  0
   36.4897   32.2070   47.6163 H   0  0  0  0  0  0  0  0  0  0  0  0
   37.9664   31.3976   48.2983 H   0  0  0  0  0  0  0  0  0  0  0  0
   35.5314   30.5201   45.4802 H   0  0  0  0  0  0  0  0  0  0  0  0
   36.3420   29.8033   43.2816 H   0  0  0  0  0  0  0  0  0  0  0  0
   38.8048   29.6849   42.8538 H   0  0  0  0  0  0  0  0  0  0  0  0
   40.3933   30.2980   44.6641 H   0  0  0  0  0  0  0  0  0  0  0  0
  2  1  2  0
  2 19  1  0
  3  2  1  0
  4  5  1  0
  4  3  2  0
  5  6  2  0
  6  1  1  0
  7  8  1  0
  8  9  2  0
  9 10  1  0
  9  5  1  0
 11 10  2  0
 12 11  1  0
 13 12  1  0
 14 12  2  0
 14  8  1  0
 15 18  1  0
 15 14  1  0
 16 15  1  0
 17 15  1  0
 19 22  1  0
 20 19  1  0
 21 19  1  0
 23  3  1  0
 25 26  2  0
 25 24  1  0
 26 23  1  0
 27 26  1  0
 28 27  2  0
 29 28  1  0
 29 30  2  0
 30 25  1  0
  1 31  1  0
 10 32  1  0
 11 33  1  0
 23 34  1  0
 23 35  1  0
 27 36  1  0
 28 37  1  0
 29 38  1  0
 30 39  1  0
M  ISO  8  31  14  32  14  33  14  34   8  35   8  36  14  37  14  38  14
M  ISO  1  39  14
M  END
>  <minimizedAffinity>  (1) 
-6.69468164

>  <minimizedRMSD>  (1) 
1.32269168

$$$$
