
     RDKit          3D

 43 45  0  0  0  0  0  0  0  0999 V2000
   35.0380   29.5350   50.5630 C   0  0  0  0  0  0  0  0  0  0  0  0
   36.2370   29.9980   49.9590 C   0  0  0  0  0  0  0  0  0  0  0  0
   36.4060   29.8290   48.5790 C   0  0  0  0  0  0  0  0  0  0  0  0
   35.3820   29.2180   47.8960 N   0  0  0  0  0  0  0  0  0  0  0  0
   34.2830   28.7960   48.4620 C   0  0  0  0  0  0  0  0  0  0  0  0
   34.0910   28.9430   49.7940 N   0  0  0  0  0  0  0  0  0  0  0  0
   32.9010   30.6050   46.4680 Cl  0  0  0  0  0  0  0  0  0  0  0  0
   32.5350   28.9070   46.7010 C   0  0  0  0  0  0  0  0  0  0  0  0
   33.2370   28.1540   47.6530 C   0  0  0  0  0  0  0  0  0  0  0  0
   32.9790   26.8040   47.8690 C   0  0  0  0  0  0  0  0  0  0  0  0
   31.9740   26.2360   47.0780 C   0  0  0  0  0  0  0  0  0  0  0  0
   31.2760   26.9410   46.1460 C   0  0  0  0  0  0  0  0  0  0  0  0
   30.0410   26.1110   45.2220 Cl  0  0  0  0  0  0  0  0  0  0  0  0
   31.5550   28.2960   45.9490 C   0  0  0  0  0  0  0  0  0  0  0  0
   30.8080   29.0670   44.9490 C   0  0  0  0  0  0  0  0  0  0  0  0
   29.7560   28.3020   44.4270 F   0  0  0  0  0  0  0  0  0  0  0  0
   31.6180   29.5110   43.9350 F   0  0  0  0  0  0  0  0  0  0  0  0
   30.2250   30.1700   45.5350 F   0  0  0  0  0  0  0  0  0  0  0  0
   37.2590   30.6440   50.8310 C   0  0  0  0  0  0  0  0  0  0  0  0
   38.5480   30.3320   50.3750 F   0  0  0  0  0  0  0  0  0  0  0  0
   37.0980   31.9980   50.7470 F   0  0  0  0  0  0  0  0  0  0  0  0
   37.1700   30.2440   52.1400 F   0  0  0  0  0  0  0  0  0  0  0  0
   37.6200   30.2940   47.9380 C   0  0  0  0  0  0  0  0  0  0  0  0
   37.4400   31.5900   47.2920 N   0  0  0  0  0  0  0  0  0  0  0  0
   38.4220   32.5440   47.7230 C   0  0  0  0  0  0  0  0  0  0  0  0
   39.6400   32.4920   46.8230 C   0  0  0  0  0  0  0  0  0  0  0  0
   39.1660   33.0950   45.5820 N   0  0  0  0  0  0  0  0  0  0  0  0
   38.0740   32.3510   45.0080 C   0  0  0  0  0  0  0  0  0  0  0  0
   37.4560   31.3180   45.8830 C   0  0  0  0  0  0  0  0  0  0  0  0
   34.8790   29.6555   51.6448 H   0  0  0  0  0  0  0  0  0  0  0  0
   33.5323   26.2177   48.6174 H   0  0  0  0  0  0  0  0  0  0  0  0
   31.7372   25.1707   47.2157 H   0  0  0  0  0  0  0  0  0  0  0  0
   38.4101   30.3836   48.6981 H   0  0  0  0  0  0  0  0  0  0  0  0
   37.8929   29.5643   47.1614 H   0  0  0  0  0  0  0  0  0  0  0  0
   37.9870   33.5537   47.6861 H   0  0  0  0  0  0  0  0  0  0  0  0
   38.7278   32.3013   48.7514 H   0  0  0  0  0  0  0  0  0  0  0  0
   40.4711   33.0720   47.2507 H   0  0  0  0  0  0  0  0  0  0  0  0
   40.0301   31.4728   46.6849 H   0  0  0  0  0  0  0  0  0  0  0  0
   38.8486   34.0551   45.7779 H   0  0  0  0  0  0  0  0  0  0  0  0
   37.2885   33.0684   44.7282 H   0  0  0  0  0  0  0  0  0  0  0  0
   38.5048   31.8005   44.1587 H   0  0  0  0  0  0  0  0  0  0  0  0
   36.4136   31.1863   45.5575 H   0  0  0  0  0  0  0  0  0  0  0  0
   38.0903   30.4266   45.7687 H   0  0  0  0  0  0  0  0  0  0  0  0
  2  1  2  0
  2 19  1  0
  3  2  1  0
  4  5  1  0
  4  3  2  0
  5  6  2  0
  6  1  1  0
  7  8  1  0
  8  9  2  0
  9 10  1  0
  9  5  1  0
 11 10  2  0
 12 11  1  0
 13 12  1  0
 14 12  2  0
 14  8  1  0
 15 18  1  0
 15 14  1  0
 16 15  1  0
 17 15  1  0
 19 22  1  0
 20 19  1  0
 21 19  1  0
 23  3  1  0
 24 25  1  0
 24 23  1  0
 26 25  1  0
 27 26  1  0
 28 27  1  0
 28 29  1  0
 29 24  1  0
  1 30  1  0
 10 31  1  0
 11 32  1  0
 23 33  1  0
 23 34  1  0
 25 35  1  0
 25 36  1  0
 26 37  1  0
 26 38  1  0
 27 39  1  0
 28 40  1  0
 28 41  1  0
 29 42  1  0
 29 43  1  0
M  ISO  8  30  14  31  14  32  14  33   8  34   8  35  13  36  13  37  13
M  ISO  6  38  13  39   5  40  13  41  13  42  13  43  13
M  END
>  <minimizedAffinity>  (1) 
-6.42567348

>  <minimizedRMSD>  (1) 
1.51440299

$$$$
