
     RDKit          3D

 36 38  0  0  0  0  0  0  0  0999 V2000
   35.1750   29.8240   50.2540 C   0  0  0  0  0  0  0  0  0  0  0  0
   36.3890   30.2710   49.6760 C   0  0  0  0  0  0  0  0  0  0  0  0
   36.6260   30.0250   48.3300 C   0  0  0  0  0  0  0  0  0  0  0  0
   35.6630   29.3580   47.6260 N   0  0  0  0  0  0  0  0  0  0  0  0
   34.5410   28.9470   48.1690 C   0  0  0  0  0  0  0  0  0  0  0  0
   34.2770   29.1680   49.4730 N   0  0  0  0  0  0  0  0  0  0  0  0
   32.8360   30.6950   46.3760 Cl  0  0  0  0  0  0  0  0  0  0  0  0
   32.7040   28.9450   46.4770 C   0  0  0  0  0  0  0  0  0  0  0  0
   33.5470   28.2310   47.3440 C   0  0  0  0  0  0  0  0  0  0  0  0
   33.4800   26.8520   47.4580 C   0  0  0  0  0  0  0  0  0  0  0  0
   32.5280   26.2060   46.6640 C   0  0  0  0  0  0  0  0  0  0  0  0
   31.6980   26.8750   45.8140 C   0  0  0  0  0  0  0  0  0  0  0  0
   30.5480   25.9530   44.8720 Cl  0  0  0  0  0  0  0  0  0  0  0  0
   31.7930   28.2590   45.7260 C   0  0  0  0  0  0  0  0  0  0  0  0
   30.9030   29.0050   44.8100 C   0  0  0  0  0  0  0  0  0  0  0  0
   29.8380   28.1960   44.3990 F   0  0  0  0  0  0  0  0  0  0  0  0
   31.5510   29.5210   43.7300 F   0  0  0  0  0  0  0  0  0  0  0  0
   30.3260   30.0700   45.4710 F   0  0  0  0  0  0  0  0  0  0  0  0
   37.3690   30.9940   50.5590 C   0  0  0  0  0  0  0  0  0  0  0  0
   38.6730   30.7600   50.1340 F   0  0  0  0  0  0  0  0  0  0  0  0
   37.1300   32.3360   50.4370 F   0  0  0  0  0  0  0  0  0  0  0  0
   37.2600   30.6290   51.8840 F   0  0  0  0  0  0  0  0  0  0  0  0
   37.8770   30.4820   47.7230 C   0  0  0  0  0  0  0  0  0  0  0  0
   37.5480   31.0420   46.3840 C   0  0  0  0  0  0  0  0  0  0  0  0
   36.8450   30.4970   45.3310 C   0  0  0  0  0  0  0  0  0  0  0  0
   36.8010   31.4160   44.2770 C   0  0  0  0  0  0  0  0  0  0  0  0
   37.4890   32.5050   44.7310 N   0  0  0  0  0  0  0  0  0  0  0  0
   37.9150   32.2650   45.9600 N   0  0  0  0  0  0  0  0  0  0  0  0
   34.9628   30.0051   51.3180 H   0  0  0  0  0  0  0  0  0  0  0  0
   34.1413   26.2946   48.1377 H   0  0  0  0  0  0  0  0  0  0  0  0
   32.4449   25.1110   46.7277 H   0  0  0  0  0  0  0  0  0  0  0  0
   38.3375   31.2584   48.3516 H   0  0  0  0  0  0  0  0  0  0  0  0
   38.5886   29.6484   47.6294 H   0  0  0  0  0  0  0  0  0  0  0  0
   36.3896   29.4957   45.3209 H   0  0  0  0  0  0  0  0  0  0  0  0
   36.3179   31.2892   43.2969 H   0  0  0  0  0  0  0  0  0  0  0  0
   37.6502   33.3736   44.2014 H   0  0  0  0  0  0  0  0  0  0  0  0
  2  1  2  0
  2 19  1  0
  3  2  1  0
  4  5  1  0
  4  3  2  0
  5  6  2  0
  6  1  1  0
  7  8  1  0
  8  9  2  0
  9 10  1  0
  9  5  1  0
 11 10  2  0
 12 11  1  0
 13 12  1  0
 14 12  2  0
 14  8  1  0
 15 18  1  0
 15 14  1  0
 16 15  1  0
 17 15  1  0
 19 22  1  0
 20 19  1  0
 21 19  1  0
 23  3  1  0
 24 23  1  0
 25 24  1  0
 26 27  1  0
 26 25  2  0
 27 28  1  0
 28 24  2  0
  1 29  1  0
 10 30  1  0
 11 31  1  0
 23 32  1  0
 23 33  1  0
 25 34  1  0
 26 35  1  0
 27 36  1  0
M  ISO  8  29  14  30  14  31  14  32   8  33   8  34  14  35  14  36   9
M  END
>  <minimizedAffinity>  (1) 
-6.030159

>  <minimizedRMSD>  (1) 
0.665251553

$$$$
