
     RDKit          3D

 30 31  0  0  0  0  0  0  0  0999 V2000
   35.4500   29.2430   50.4820 C   0  0  0  0  0  0  0  0  0  0  0  0
   36.3850   30.1140   49.8680 C   0  0  0  0  0  0  0  0  0  0  0  0
   36.3690   30.2280   48.4750 C   0  0  0  0  0  0  0  0  0  0  0  0
   35.4510   29.4970   47.7830 N   0  0  0  0  0  0  0  0  0  0  0  0
   34.5900   28.6940   48.3650 C   0  0  0  0  0  0  0  0  0  0  0  0
   34.5730   28.5530   49.7170 N   0  0  0  0  0  0  0  0  0  0  0  0
   32.7680   30.3410   46.6110 Cl  0  0  0  0  0  0  0  0  0  0  0  0
   32.7420   28.5910   46.7050 C   0  0  0  0  0  0  0  0  0  0  0  0
   33.6260   27.9290   47.5510 C   0  0  0  0  0  0  0  0  0  0  0  0
   33.6390   26.5330   47.6620 C   0  0  0  0  0  0  0  0  0  0  0  0
   32.7190   25.8470   46.8780 C   0  0  0  0  0  0  0  0  0  0  0  0
   31.8480   26.4690   46.0460 C   0  0  0  0  0  0  0  0  0  0  0  0
   30.7390   25.4890   45.1070 Cl  0  0  0  0  0  0  0  0  0  0  0  0
   31.8560   27.8630   45.9540 C   0  0  0  0  0  0  0  0  0  0  0  0
   30.9150   28.5510   45.0560 C   0  0  0  0  0  0  0  0  0  0  0  0
   30.0300   27.6480   44.4810 F   0  0  0  0  0  0  0  0  0  0  0  0
   31.5620   29.2540   44.0660 F   0  0  0  0  0  0  0  0  0  0  0  0
   30.1520   29.4480   45.7600 F   0  0  0  0  0  0  0  0  0  0  0  0
   37.3370   30.8690   50.7310 C   0  0  0  0  0  0  0  0  0  0  0  0
   38.6410   30.7390   50.2700 F   0  0  0  0  0  0  0  0  0  0  0  0
   37.0120   32.1990   50.6760 F   0  0  0  0  0  0  0  0  0  0  0  0
   37.2730   30.4720   52.0530 F   0  0  0  0  0  0  0  0  0  0  0  0
   37.3350   31.1150   47.8130 C   0  0  0  0  0  0  0  0  0  0  0  0
   38.4560   30.4550   47.3230 O   0  0  0  0  0  0  0  0  0  0  0  0
   35.4376   29.1286   51.5760 H   0  0  0  0  0  0  0  0  0  0  0  0
   34.3374   26.0094   48.3314 H   0  0  0  0  0  0  0  0  0  0  0  0
   32.6966   24.7487   46.9352 H   0  0  0  0  0  0  0  0  0  0  0  0
   36.8298   31.6125   46.9720 H   0  0  0  0  0  0  0  0  0  0  0  0
   37.6885   31.8284   48.5720 H   0  0  0  0  0  0  0  0  0  0  0  0
   39.0056   30.1314   48.0801 H   0  0  0  0  0  0  0  0  0  0  0  0
  2  1  2  0
  2 19  1  0
  3  2  1  0
  4  5  1  0
  4  3  2  0
  5  6  2  0
  6  1  1  0
  7  8  1  0
  8  9  2  0
  9 10  1  0
  9  5  1  0
 11 10  2  0
 12 11  1  0
 13 12  1  0
 14 12  2  0
 14  8  1  0
 15 18  1  0
 15 14  1  0
 16 15  1  0
 17 15  1  0
 19 22  1  0
 20 19  1  0
 21 19  1  0
 23  3  1  0
 24 23  1  0
  1 25  1  0
 10 26  1  0
 11 27  1  0
 23 28  1  0
 23 29  1  0
 24 30  1  0
M  ISO  6  25  14  26  14  27  14  28   8  29   8  30   3
M  END
>  <minimizedAffinity>  (1) 
-5.51740885

>  <minimizedRMSD>  (1) 
0.155291989

$$$$
