
     RDKit          3D

 30 32  0  0  0  0  0  0  0  0999 V2000
   36.8110   31.3900   50.0840 C   0  0  0  0  0  0  0  0  0  0  0  0
   37.7810   31.7850   49.0410 C   0  0  0  0  0  0  0  0  0  0  0  0
   38.3810   33.0450   49.1000 C   0  0  0  0  0  0  0  0  0  0  0  0
   39.2160   33.1650   48.0230 C   0  0  0  0  0  0  0  0  0  0  0  0
   39.1210   32.0100   47.3350 N   0  0  0  0  0  0  0  0  0  0  0  0
   38.2740   31.2150   47.9520 N   0  0  0  0  0  0  0  0  0  0  0  0
   39.6760   31.4200   46.1430 C   0  0  0  0  0  0  0  0  0  0  0  0
   40.8750   31.4670   45.4740 C   0  0  0  0  0  0  0  0  0  0  0  0
   40.7220   30.6620   44.4090 N   0  0  0  0  0  0  0  0  0  0  0  0
   39.4800   30.1230   44.3980 C   0  0  0  0  0  0  0  0  0  0  0  0
   38.8200   30.5990   45.4890 N   0  0  0  0  0  0  0  0  0  0  0  0
   36.4610   29.9580   50.0860 C   0  0  0  0  0  0  0  0  0  0  0  0
   35.3910   29.4870   49.2450 C   0  0  0  0  0  0  0  0  0  0  0  0
   34.8760   30.2870   48.2620 C   0  0  0  0  0  0  0  0  0  0  0  0
   33.8350   29.8320   47.4320 C   0  0  0  0  0  0  0  0  0  0  0  0
   33.3940   28.5520   47.6890 N   0  0  0  0  0  0  0  0  0  0  0  0
   33.9200   27.7810   48.6660 C   0  0  0  0  0  0  0  0  0  0  0  0
   34.9240   28.2660   49.4400 N   0  0  0  0  0  0  0  0  0  0  0  0
   35.8880   31.9685   49.9309 H   0  0  0  0  0  0  0  0  0  0  0  0
   37.2930   31.5944   51.0514 H   0  0  0  0  0  0  0  0  0  0  0  0
   38.2119   33.8065   49.8756 H   0  0  0  0  0  0  0  0  0  0  0  0
   39.8417   34.0332   47.7686 H   0  0  0  0  0  0  0  0  0  0  0  0
   41.7708   32.0420   45.7515 H   0  0  0  0  0  0  0  0  0  0  0  0
   41.4475   30.4805   43.7007 H   0  0  0  0  0  0  0  0  0  0  0  0
   39.0783   29.4282   43.6457 H   0  0  0  0  0  0  0  0  0  0  0  0
   37.3661   29.4073   49.7902 H   0  0  0  0  0  0  0  0  0  0  0  0
   36.0827   29.7866   51.1046 H   0  0  0  0  0  0  0  0  0  0  0  0
   35.2812   31.2995   48.1186 H   0  0  0  0  0  0  0  0  0  0  0  0
   33.4035   30.4542   46.6341 H   0  0  0  0  0  0  0  0  0  0  0  0
   33.5359   26.7639   48.8335 H   0  0  0  0  0  0  0  0  0  0  0  0
  1 12  1  0
  2  3  1  0
  2  1  1  0
  4  3  2  0
  5  6  1  0
  5  4  1  0
  6  2  2  0
  7  5  1  0
  8  7  2  0
  9  8  1  0
 10  9  1  0
 10 11  2  0
 11  7  1  0
 13 18  1  0
 13 12  1  0
 14 13  2  0
 15 16  2  0
 15 14  1  0
 16 17  1  0
 17 18  2  0
  1 19  1  0
  1 20  1  0
  3 21  1  0
  4 22  1  0
  8 23  1  0
  9 24  1  0
 10 25  1  0
 12 26  1  0
 12 27  1  0
 14 28  1  0
 15 29  1  0
 17 30  1  0
M  ISO  8  19   8  20   8  21  14  22  14  23  14  24   9  25  14  26   8
M  ISO  4  27   8  28  14  29  14  30  14
M  END
>  <minimizedAffinity>  (1) 
-5.60062981

>  <minimizedRMSD>  (1) 
6.42386246

$$$$
