
     RDKit          3D

 40 42  0  0  1  0  0  0  0  0999 V2000
   34.2670   29.3840   49.2150 C   0  0  0  0  0  0  0  0  0  0  0  0
   35.2970   30.2070   48.8180 C   0  0  0  0  0  0  0  0  0  0  0  0
   35.5270   30.2240   47.4740 C   0  0  0  0  0  0  0  0  0  0  0  0
   34.7620   29.4620   46.6560 N   0  0  0  0  0  0  0  0  0  0  0  0
   33.7730   28.6770   47.0760 C   0  0  0  0  0  0  0  0  0  0  0  0
   33.5910   28.6940   48.3640 N   0  0  0  0  0  0  0  0  0  0  0  0
   36.5980   31.0820   47.0110 N   0  0  0  0  0  0  0  0  0  0  0  0
   33.3230   28.1760   45.8230 C   0  0  1  0  0  0  0  0  0  0  0  0
   33.4790   27.8190   44.6190 N   0  0  0  0  0  0  0  0  0  0  0  0
   32.6110   27.5930   43.7060 C   0  0  0  0  0  0  0  0  0  0  0  0
   32.9110   26.2760   43.7470 N   0  0  0  0  0  0  0  0  0  0  0  0
   33.2830   25.8320   44.9830 C   0  0  0  0  0  0  0  0  0  0  0  0
   33.4210   24.4180   45.1250 C   0  0  0  0  0  0  0  0  0  0  0  0
   33.7860   23.9290   46.3220 C   0  0  0  0  0  0  0  0  0  0  0  0
   34.0350   24.6820   47.4200 C   0  0  0  0  0  0  0  0  0  0  0  0
   33.8810   26.0310   47.2030 C   0  0  0  0  0  0  0  0  0  0  0  0
   33.5160   26.7470   46.0640 C   0  0  0  0  0  0  0  0  0  0  0  0
   36.0490   30.9860   49.8170 C   0  0  0  0  0  0  0  0  0  0  0  0
   37.0690   30.1760   50.5380 C   0  0  0  0  0  0  0  0  0  0  0  0
   38.5730   31.7600   49.6460 C   0  0  0  0  0  0  0  0  0  0  0  0
   37.8240   32.7680   49.6230 O   0  0  0  0  0  0  0  0  0  0  0  0
   38.4270   30.3860   50.0490 N   0  0  0  0  0  0  0  0  0  0  0  0
   34.0160   29.3145   50.2837 H   0  0  0  0  0  0  0  0  0  0  0  0
   36.8172   31.1353   46.0060 H   0  0  0  0  0  0  0  0  0  0  0  0
   37.1404   31.6389   47.6867 H   0  0  0  0  0  0  0  0  0  0  0  0
   32.7389   29.1031   45.7267 H   0  0  0  0  0  0  0  0  0  0  0  0
   34.0811   28.5513   44.2165 H   0  0  0  0  0  0  0  0  0  0  0  0
   32.8360   28.0751   42.7432 H   0  0  0  0  0  0  0  0  0  0  0  0
   31.5717   27.9314   43.8298 H   0  0  0  0  0  0  0  0  0  0  0  0
   32.8633   25.6629   42.9207 H   0  0  0  0  0  0  0  0  0  0  0  0
   33.2331   23.7454   44.2751 H   0  0  0  0  0  0  0  0  0  0  0  0
   33.8902   22.8381   46.4172 H   0  0  0  0  0  0  0  0  0  0  0  0
   34.3313   24.2562   48.3900 H   0  0  0  0  0  0  0  0  0  0  0  0
   34.0815   26.6566   48.0853 H   0  0  0  0  0  0  0  0  0  0  0  0
   36.5583   31.8152   49.3041 H   0  0  0  0  0  0  0  0  0  0  0  0
   35.3271   31.3472   50.5643 H   0  0  0  0  0  0  0  0  0  0  0  0
   37.0370   30.4441   51.6043 H   0  0  0  0  0  0  0  0  0  0  0  0
   36.8227   29.1175   50.3678 H   0  0  0  0  0  0  0  0  0  0  0  0
   39.5821   31.9800   49.2675 H   0  0  0  0  0  0  0  0  0  0  0  0
   39.1629   29.6670   50.0000 H   0  0  0  0  0  0  0  0  0  0  0  0
  2  1  2  0
  2 18  1  0
  3  2  1  0
  4  5  1  0
  4  3  2  0
  5  6  2  0
  6  1  1  0
  7  3  1  0
  8 17  1  0
  8  5  1  0
  9  8  1  0
 10 11  1  0
 10  9  1  0
 11 12  1  0
 12 13  2  0
 12 17  1  0
 13 14  1  0
 14 15  2  0
 16 15  1  0
 17 16  2  0
 18 19  1  0
 20 22  1  0
 21 20  2  0
 22 19  1  0
  1 23  1  0
  7 24  1  0
  7 25  1  0
  8 26  1  6
  9 27  1  0
 10 28  1  0
 10 29  1  0
 11 30  1  0
 13 31  1  0
 14 32  1  0
 15 33  1  0
 16 34  1  0
 18 35  1  0
 18 36  1  0
 19 37  1  0
 19 38  1  0
 20 39  1  0
 22 40  1  0
M  ISO  8  23  14  26  13  27   5  28  13  29  13  31  14  32  14  33  14
M  ISO  6  34  14  35   8  36   8  37   8  38   8  39   6
M  END
>  <minimizedAffinity>  (1) 
-4.86791039

>  <minimizedRMSD>  (1) 
2.44205475

$$$$
