
     RDKit          3D

 34 35  0  0  0  0  0  0  0  0999 V2000
   39.7870   32.2950   46.9910 C   0  0  0  0  0  0  0  0  0  0  0  0
   39.6910   32.0190   45.5830 C   0  0  0  0  0  0  0  0  0  0  0  0
   39.6840   33.0630   44.6890 C   0  0  0  0  0  0  0  0  0  0  0  0
   39.5920   32.8220   43.3100 C   0  0  0  0  0  0  0  0  0  0  0  0
   39.5100   31.4800   42.9380 N   0  0  0  0  0  0  0  0  0  0  0  0
   39.5200   30.4960   43.8490 C   0  0  0  0  0  0  0  0  0  0  0  0
   39.6110   30.7820   45.1570 N   0  0  0  0  0  0  0  0  0  0  0  0
   39.4350   29.1390   43.4320 N   0  0  0  0  0  0  0  0  0  0  0  0
   40.3820   28.5600   42.1110 S   0  0  0  0  0  0  0  0  0  0  0  0
   40.1410   27.0730   41.9150 O   0  0  0  0  0  0  0  0  0  0  0  0
   39.9350   29.2320   40.8480 O   0  0  0  0  0  0  0  0  0  0  0  0
   42.0220   28.8420   42.4240 O   0  0  0  0  0  0  0  0  0  0  0  0
   38.6050   32.7080   47.7550 C   0  0  0  0  0  0  0  0  0  0  0  0
   37.9460   31.6200   48.5020 C   0  0  0  0  0  0  0  0  0  0  0  0
   37.0450   30.7680   47.8620 C   0  0  0  0  0  0  0  0  0  0  0  0
   36.5900   29.8600   48.7900 C   0  0  0  0  0  0  0  0  0  0  0  0
   37.1950   30.1590   49.9400 N   0  0  0  0  0  0  0  0  0  0  0  0
   37.9780   31.1870   49.7450 N   0  0  0  0  0  0  0  0  0  0  0  0
   37.0490   29.4880   51.2360 C   0  0  0  0  0  0  0  0  0  0  0  0
   37.8380   28.3490   51.2700 F   0  0  0  0  0  0  0  0  0  0  0  0
   35.7390   29.1110   51.4720 F   0  0  0  0  0  0  0  0  0  0  0  0
   37.4720   30.2940   52.2690 F   0  0  0  0  0  0  0  0  0  0  0  0
   40.5305   33.0978   47.1039 H   0  0  0  0  0  0  0  0  0  0  0  0
   40.0236   31.3095   47.4187 H   0  0  0  0  0  0  0  0  0  0  0  0
   39.7512   34.0970   45.0582 H   0  0  0  0  0  0  0  0  0  0  0  0
   39.5850   33.6370   42.5713 H   0  0  0  0  0  0  0  0  0  0  0  0
   38.8005   28.4941   43.9244 H   0  0  0  0  0  0  0  0  0  0  0  0
   40.0694   26.6311   42.7980 H   0  0  0  0  0  0  0  0  0  0  0  0
   39.4010   30.0348   41.0725 H   0  0  0  0  0  0  0  0  0  0  0  0
   42.1716   28.8677   43.4023 H   0  0  0  0  0  0  0  0  0  0  0  0
   38.9142   33.4802   48.4748 H   0  0  0  0  0  0  0  0  0  0  0  0
   37.8707   33.0717   47.0211 H   0  0  0  0  0  0  0  0  0  0  0  0
   36.7507   30.8142   46.8031 H   0  0  0  0  0  0  0  0  0  0  0  0
   35.8691   29.0473   48.6173 H   0  0  0  0  0  0  0  0  0  0  0  0
  1 13  1  0
  2  1  1  0
  3  2  2  0
  4  3  1  0
  5  4  2  0
  5  6  1  0
  6  7  2  0
  7  2  1  0
  8  6  1  0
  9 12  1  0
  9  8  1  0
 10  9  1  0
 11  9  1  0
 13 14  1  0
 14 18  2  0
 15 14  1  0
 15 16  2  0
 16 17  1  0
 17 19  1  0
 18 17  1  0
 19 20  1  0
 19 21  1  0
 19 22  1  0
  1 23  1  0
  1 24  1  0
  3 25  1  0
  4 26  1  0
  8 27  1  0
 10 28  1  0
 11 29  1  0
 12 30  1  0
 13 31  1  0
 13 32  1  0
 15 33  1  0
 16 34  1  0
M  ISO  8  23   8  24   8  25  14  26  14  28   3  29   3  30   3  31   8
M  ISO  3  32   8  33  14  34  14
M  END
>  <minimizedAffinity>  (1) 
-6.48101425

>  <minimizedRMSD>  (1) 
1.46826339

$$$$
