
     RDKit          3D

 32 33  0  0  0  0  0  0  0  0999 V2000
   39.7610   31.2090   46.2170 C   0  0  0  0  0  0  0  0  0  0  0  0
   39.6790   31.5730   44.8380 C   0  0  0  0  0  0  0  0  0  0  0  0
   39.5200   32.8690   44.4340 C   0  0  0  0  0  0  0  0  0  0  0  0
   39.4390   33.2390   43.0900 C   0  0  0  0  0  0  0  0  0  0  0  0
   39.5310   32.1900   42.1990 N   0  0  0  0  0  0  0  0  0  0  0  0
   39.6880   30.9150   42.6150 C   0  0  0  0  0  0  0  0  0  0  0  0
   39.7590   30.6330   43.9250 N   0  0  0  0  0  0  0  0  0  0  0  0
   39.7670   29.9630   41.6080 O   0  0  0  0  0  0  0  0  0  0  0  0
   40.6420   27.7020   40.5750 O   0  0  0  0  0  0  0  0  0  0  0  0
   40.5690   28.4720   41.8680 P   0  0  0  0  0  0  0  0  0  0  0  0
   39.7290   27.6420   43.0770 O   0  0  0  0  0  0  0  0  0  0  0  0
   42.1340   28.8170   42.4480 O   0  0  0  0  0  0  0  0  0  0  0  0
   39.0330   31.9930   47.2260 C   0  0  0  0  0  0  0  0  0  0  0  0
   38.1780   31.1870   48.1260 C   0  0  0  0  0  0  0  0  0  0  0  0
   36.9840   30.6230   47.6550 C   0  0  0  0  0  0  0  0  0  0  0  0
   36.4000   29.9400   48.6820 C   0  0  0  0  0  0  0  0  0  0  0  0
   37.2010   30.0790   49.7380 N   0  0  0  0  0  0  0  0  0  0  0  0
   38.2320   30.8130   49.3820 N   0  0  0  0  0  0  0  0  0  0  0  0
   37.0350   29.5380   51.0980 C   0  0  0  0  0  0  0  0  0  0  0  0
   37.8270   28.4300   51.2670 F   0  0  0  0  0  0  0  0  0  0  0  0
   35.7210   29.1780   51.3280 F   0  0  0  0  0  0  0  0  0  0  0  0
   37.4060   30.4770   52.0510 F   0  0  0  0  0  0  0  0  0  0  0  0
   40.8252   31.2453   46.4929 H   0  0  0  0  0  0  0  0  0  0  0  0
   39.2649   30.2278   46.2509 H   0  0  0  0  0  0  0  0  0  0  0  0
   39.4529   33.6547   45.2009 H   0  0  0  0  0  0  0  0  0  0  0  0
   39.3120   34.2830   42.7677 H   0  0  0  0  0  0  0  0  0  0  0  0
   40.0399   27.9492   43.9653 H   0  0  0  0  0  0  0  0  0  0  0  0
   42.1268   28.8154   43.4380 H   0  0  0  0  0  0  0  0  0  0  0  0
   39.7695   32.5306   47.8412 H   0  0  0  0  0  0  0  0  0  0  0  0
   38.3610   32.6673   46.6750 H   0  0  0  0  0  0  0  0  0  0  0  0
   36.5864   30.7152   46.6335 H   0  0  0  0  0  0  0  0  0  0  0  0
   35.4522   29.3829   48.6453 H   0  0  0  0  0  0  0  0  0  0  0  0
  1 13  1  0
  2  1  1  0
  3  2  2  0
  4  3  1  0
  5  6  1  0
  5  4  2  0
  6  7  2  0
  7  2  1  0
  8 10  1  0
  8  6  1  0
  9 10  2  0
 10 12  1  0
 10 11  1  0
 13 14  1  0
 14 18  2  0
 15 14  1  0
 15 16  2  0
 16 17  1  0
 17 19  1  0
 18 17  1  0
 19 20  1  0
 19 21  1  0
 19 22  1  0
  1 23  1  0
  1 24  1  0
  3 25  1  0
  4 26  1  0
 11 27  1  0
 12 28  1  0
 13 29  1  0
 13 30  1  0
 15 31  1  0
 16 32  1  0
M  ISO  8  23   8  24   8  25  14  26  14  27   3  28   3  29   8  30   8
M  ISO  2  31  14  32  14
M  END
>  <minimizedAffinity>  (1) 
-6.28192759

>  <minimizedRMSD>  (1) 
0.572587848

$$$$
