
     RDKit          3D

 32 34  0  0  0  0  0  0  0  0999 V2000
   39.7130   31.8360   46.4680 C   0  0  0  0  0  0  0  0  0  0  0  0
   39.3470   31.8760   45.0860 C   0  0  0  0  0  0  0  0  0  0  0  0
   38.2310   32.5360   44.6780 C   0  0  0  0  0  0  0  0  0  0  0  0
   37.8610   32.5810   43.3250 C   0  0  0  0  0  0  0  0  0  0  0  0
   38.7100   31.9110   42.4580 N   0  0  0  0  0  0  0  0  0  0  0  0
   39.8060   31.2670   42.8900 C   0  0  0  0  0  0  0  0  0  0  0  0
   40.1030   31.2650   44.2070 N   0  0  0  0  0  0  0  0  0  0  0  0
   40.6270   30.5960   41.8840 C   0  0  0  0  0  0  0  0  0  0  0  0
   40.8900   30.6990   40.5770 N   0  0  0  0  0  0  0  0  0  0  0  0
   41.7740   29.7280   40.2580 C   0  0  0  0  0  0  0  0  0  0  0  0
   42.0690   29.0090   41.3760 N   0  0  0  0  0  0  0  0  0  0  0  0
   41.3630   29.5510   42.3490 N   0  0  0  0  0  0  0  0  0  0  0  0
   38.8470   32.4230   47.4940 C   0  0  0  0  0  0  0  0  0  0  0  0
   38.0800   31.4370   48.2950 C   0  0  0  0  0  0  0  0  0  0  0  0
   37.0230   30.7070   47.7410 C   0  0  0  0  0  0  0  0  0  0  0  0
   36.5300   29.8970   48.7260 C   0  0  0  0  0  0  0  0  0  0  0  0
   37.2380   30.1110   49.8250 N   0  0  0  0  0  0  0  0  0  0  0  0
   38.1530   31.0280   49.5520 N   0  0  0  0  0  0  0  0  0  0  0  0
   37.1020   29.4940   51.1400 C   0  0  0  0  0  0  0  0  0  0  0  0
   37.8670   28.3550   51.2170 F   0  0  0  0  0  0  0  0  0  0  0  0
   35.7820   29.1740   51.4100 F   0  0  0  0  0  0  0  0  0  0  0  0
   37.5330   30.3570   52.1460 F   0  0  0  0  0  0  0  0  0  0  0  0
   40.6845   32.3455   46.5494 H   0  0  0  0  0  0  0  0  0  0  0  0
   39.6693   30.7615   46.6995 H   0  0  0  0  0  0  0  0  0  0  0  0
   37.6043   33.0459   45.4245 H   0  0  0  0  0  0  0  0  0  0  0  0
   36.9615   33.1102   42.9774 H   0  0  0  0  0  0  0  0  0  0  0  0
   42.1889   29.5473   39.2554 H   0  0  0  0  0  0  0  0  0  0  0  0
   42.7113   28.2069   41.4471 H   0  0  0  0  0  0  0  0  0  0  0  0
   39.4769   33.0071   48.1811 H   0  0  0  0  0  0  0  0  0  0  0  0
   38.1049   33.0358   46.9613 H   0  0  0  0  0  0  0  0  0  0  0  0
   36.6568   30.7725   46.7058 H   0  0  0  0  0  0  0  0  0  0  0  0
   35.6924   29.1914   48.6238 H   0  0  0  0  0  0  0  0  0  0  0  0
  1 13  1  0
  2  1  1  0
  3  2  2  0
  4  3  1  0
  5  6  1  0
  5  4  2  0
  6  7  2  0
  7  2  1  0
  8 12  2  0
  8  6  1  0
  9  8  1  0
 10  9  2  0
 10 11  1  0
 11 12  1  0
 13 14  1  0
 14 18  2  0
 15 14  1  0
 15 16  2  0
 16 17  1  0
 17 19  1  0
 18 17  1  0
 19 20  1  0
 19 21  1  0
 19 22  1  0
  1 23  1  0
  1 24  1  0
  3 25  1  0
  4 26  1  0
 10 27  1  0
 11 28  1  0
 13 29  1  0
 13 30  1  0
 15 31  1  0
 16 32  1  0
M  ISO  8  23   8  24   8  25  14  26  14  27  14  28   9  29   8  30   8
M  ISO  2  31  14  32  14
M  END
>  <minimizedAffinity>  (1) 
-6.25119305

>  <minimizedRMSD>  (1) 
0.68583411

$$$$
