
     RDKit          3D

 33 35  0  0  0  0  0  0  0  0999 V2000
   38.8390   32.2050   47.3100 C   0  0  0  0  0  0  0  0  0  0  0  0
   38.0660   31.3040   48.1840 C   0  0  0  0  0  0  0  0  0  0  0  0
   36.9660   30.6120   47.6960 C   0  0  0  0  0  0  0  0  0  0  0  0
   36.4390   29.8550   48.7060 C   0  0  0  0  0  0  0  0  0  0  0  0
   37.2000   30.0820   49.7840 N   0  0  0  0  0  0  0  0  0  0  0  0
   38.1510   30.9350   49.4540 N   0  0  0  0  0  0  0  0  0  0  0  0
   37.0580   29.5130   51.1200 C   0  0  0  0  0  0  0  0  0  0  0  0
   37.8440   28.4010   51.2570 F   0  0  0  0  0  0  0  0  0  0  0  0
   35.7410   29.1730   51.3980 F   0  0  0  0  0  0  0  0  0  0  0  0
   37.4720   30.4300   52.0860 F   0  0  0  0  0  0  0  0  0  0  0  0
   39.8190   31.5360   46.4450 C   0  0  0  0  0  0  0  0  0  0  0  0
   39.7830   31.7260   45.0290 C   0  0  0  0  0  0  0  0  0  0  0  0
   39.5210   32.9600   44.4830 C   0  0  0  0  0  0  0  0  0  0  0  0
   39.4810   33.1710   43.1010 C   0  0  0  0  0  0  0  0  0  0  0  0
   39.7270   32.0430   42.3280 N   0  0  0  0  0  0  0  0  0  0  0  0
   39.9800   30.8520   42.8930 C   0  0  0  0  0  0  0  0  0  0  0  0
   40.0080   30.6930   44.2280 N   0  0  0  0  0  0  0  0  0  0  0  0
   40.2240   29.7340   41.9700 C   0  0  0  0  0  0  0  0  0  0  0  0
   41.6450   29.1390   41.9980 C   0  0  0  0  0  0  0  0  0  0  0  0
   41.1180   29.8590   40.7980 C   0  0  0  0  0  0  0  0  0  0  0  0
   38.1307   32.7485   46.6674 H   0  0  0  0  0  0  0  0  0  0  0  0
   39.4147   32.8633   47.9772 H   0  0  0  0  0  0  0  0  0  0  0  0
   36.5815   30.6639   46.6667 H   0  0  0  0  0  0  0  0  0  0  0  0
   35.5638   29.1915   48.6448 H   0  0  0  0  0  0  0  0  0  0  0  0
   40.8133   31.8640   46.7822 H   0  0  0  0  0  0  0  0  0  0  0  0
   39.5653   30.4718   46.5592 H   0  0  0  0  0  0  0  0  0  0  0  0
   39.3365   33.8104   45.1559 H   0  0  0  0  0  0  0  0  0  0  0  0
   39.2706   34.1561   42.6592 H   0  0  0  0  0  0  0  0  0  0  0  0
   39.1870   29.3843   42.0815 H   0  0  0  0  0  0  0  0  0  0  0  0
   42.4264   29.5981   42.6215 H   0  0  0  0  0  0  0  0  0  0  0  0
   42.0803   28.1479   42.1938 H   0  0  0  0  0  0  0  0  0  0  0  0
   40.8936   29.2946   39.8809 H   0  0  0  0  0  0  0  0  0  0  0  0
   41.4770   30.7087   40.1988 H   0  0  0  0  0  0  0  0  0  0  0  0
  1  2  1  0
  2  6  2  0
  3  2  1  0
  3  4  2  0
  4  5  1  0
  5  7  1  0
  6  5  1  0
  7  8  1  0
  7  9  1  0
  7 10  1  0
 11  1  1  0
 12 11  1  0
 13 12  2  0
 14 13  1  0
 15 16  1  0
 15 14  2  0
 16 17  2  0
 17 12  1  0
 18 19  1  0
 18 16  1  0
 20 18  1  0
 20 19  1  0
  1 21  1  0
  1 22  1  0
  3 23  1  0
  4 24  1  0
 11 25  1  0
 11 26  1  0
 13 27  1  0
 14 28  1  0
 18 29  1  0
 19 30  1  0
 19 31  1  0
 20 32  1  0
 20 33  1  0
M  ISO  8  21   8  22   8  23  14  24  14  25   8  26   8  27  14  28  14
M  ISO  5  29  13  30  13  31  13  32  13  33  13
M  END
>  <minimizedAffinity>  (1) 
-5.77326918

>  <minimizedRMSD>  (1) 
0.598721325

$$$$
