
     RDKit          3D

 27 28  0  0  0  0  0  0  0  0999 V2000
   38.6970   32.3930   47.3220 C   0  0  0  0  0  0  0  0  0  0  0  0
   37.9800   31.4210   48.1740 C   0  0  0  0  0  0  0  0  0  0  0  0
   36.9340   30.6590   47.6790 C   0  0  0  0  0  0  0  0  0  0  0  0
   36.4670   29.8560   48.6810 C   0  0  0  0  0  0  0  0  0  0  0  0
   37.2050   30.1200   49.7580 N   0  0  0  0  0  0  0  0  0  0  0  0
   38.0790   31.0340   49.4370 N   0  0  0  0  0  0  0  0  0  0  0  0
   37.0990   29.5200   51.0930 C   0  0  0  0  0  0  0  0  0  0  0  0
   37.8640   28.3800   51.1630 F   0  0  0  0  0  0  0  0  0  0  0  0
   35.7890   29.1940   51.4000 F   0  0  0  0  0  0  0  0  0  0  0  0
   37.5580   30.3870   52.0600 F   0  0  0  0  0  0  0  0  0  0  0  0
   39.8250   31.8250   46.5700 C   0  0  0  0  0  0  0  0  0  0  0  0
   39.8190   31.8680   45.1430 C   0  0  0  0  0  0  0  0  0  0  0  0
   39.2010   32.8690   44.4610 C   0  0  0  0  0  0  0  0  0  0  0  0
   39.1820   32.9310   43.0620 C   0  0  0  0  0  0  0  0  0  0  0  0
   39.8410   31.8980   42.4270 N   0  0  0  0  0  0  0  0  0  0  0  0
   40.4470   30.9150   43.1250 C   0  0  0  0  0  0  0  0  0  0  0  0
   40.4250   30.9180   44.4730 N   0  0  0  0  0  0  0  0  0  0  0  0
   41.0910   29.9060   42.3960 O   0  0  0  0  0  0  0  0  0  0  0  0
   37.9800   32.8135   46.6015 H   0  0  0  0  0  0  0  0  0  0  0  0
   39.1200   33.1508   47.9979 H   0  0  0  0  0  0  0  0  0  0  0  0
   36.5445   30.6946   46.6509 H   0  0  0  0  0  0  0  0  0  0  0  0
   35.6417   29.1320   48.6117 H   0  0  0  0  0  0  0  0  0  0  0  0
   40.7289   32.3573   46.9010 H   0  0  0  0  0  0  0  0  0  0  0  0
   39.7651   30.7496   46.7933 H   0  0  0  0  0  0  0  0  0  0  0  0
   38.6955   33.6623   45.0313 H   0  0  0  0  0  0  0  0  0  0  0  0
   38.6804   33.7407   42.5117 H   0  0  0  0  0  0  0  0  0  0  0  0
   41.5475   29.1668   42.8707 H   0  0  0  0  0  0  0  0  0  0  0  0
  1  2  1  0
  2  6  2  0
  3  2  1  0
  3  4  2  0
  4  5  1  0
  5  7  1  0
  6  5  1  0
  7  8  1  0
  7  9  1  0
  7 10  1  0
 11  1  1  0
 12 11  1  0
 13 12  2  0
 14 13  1  0
 15 14  2  0
 15 16  1  0
 16 17  2  0
 17 12  1  0
 18 16  1  0
  1 19  1  0
  1 20  1  0
  3 21  1  0
  4 22  1  0
 11 23  1  0
 11 24  1  0
 13 25  1  0
 14 26  1  0
 18 27  1  0
M  ISO  8  19   8  20   8  21  14  22  14  23   8  24   8  25  14  26  14
M  ISO  1  27   3
M  END
>  <minimizedAffinity>  (1) 
-5.60065937

>  <minimizedRMSD>  (1) 
0.16759637

$$$$
