
     RDKit          3D

 30 32  0  0  0  0  0  0  0  0999 V2000
   36.7020   30.3550   46.0230 Cl  0  0  0  0  0  0  0  0  0  0  0  0
   36.9640   30.5680   47.7420 C   0  0  0  0  0  0  0  0  0  0  0  0
   38.1210   31.2150   48.0850 C   0  0  0  0  0  0  0  0  0  0  0  0
   38.3600   31.4020   49.4590 C   0  0  0  0  0  0  0  0  0  0  0  0
   37.4480   30.9400   50.3770 C   0  0  0  0  0  0  0  0  0  0  0  0
   36.3170   30.3040   49.9410 C   0  0  0  0  0  0  0  0  0  0  0  0
   36.0240   30.0900   48.6180 C   0  0  0  0  0  0  0  0  0  0  0  0
   40.1750   33.5060   46.1310 C   0  0  0  0  0  0  0  0  0  0  0  0
   40.8650   32.6660   45.2360 C   0  0  0  0  0  0  0  0  0  0  0  0
   40.6020   31.2920   45.3230 C   0  0  0  0  0  0  0  0  0  0  0  0
   39.7150   30.8540   46.2490 N   0  0  0  0  0  0  0  0  0  0  0  0
   39.0750   31.6970   47.0910 C   0  0  0  0  0  0  0  0  0  0  0  0
   39.3070   33.0250   47.0290 N   0  0  0  0  0  0  0  0  0  0  0  0
   34.8010   29.4050   48.2150 C   0  0  0  0  0  0  0  0  0  0  0  0
   33.9360   29.9670   47.2970 C   0  0  0  0  0  0  0  0  0  0  0  0
   32.7700   29.3410   46.8960 C   0  0  0  0  0  0  0  0  0  0  0  0
   32.4550   28.0970   47.4360 C   0  0  0  0  0  0  0  0  0  0  0  0
   33.3130   27.5010   48.3680 C   0  0  0  0  0  0  0  0  0  0  0  0
   34.4840   28.1670   48.7480 C   0  0  0  0  0  0  0  0  0  0  0  0
   39.2724   31.9155   49.7965 H   0  0  0  0  0  0  0  0  0  0  0  0
   37.6253   31.0801   51.4535 H   0  0  0  0  0  0  0  0  0  0  0  0
   35.6017   29.9437   50.6950 H   0  0  0  0  0  0  0  0  0  0  0  0
   40.3548   34.5905   46.0909 H   0  0  0  0  0  0  0  0  0  0  0  0
   41.5779   33.0697   44.5020 H   0  0  0  0  0  0  0  0  0  0  0  0
   41.1067   30.5819   44.6515 H   0  0  0  0  0  0  0  0  0  0  0  0
   34.1837   30.9494   46.8687 H   0  0  0  0  0  0  0  0  0  0  0  0
   32.1027   29.8178   46.1629 H   0  0  0  0  0  0  0  0  0  0  0  0
   31.5320   27.5825   47.1304 H   0  0  0  0  0  0  0  0  0  0  0  0
   33.0691   26.5182   48.7978 H   0  0  0  0  0  0  0  0  0  0  0  0
   35.1609   27.7010   49.4792 H   0  0  0  0  0  0  0  0  0  0  0  0
  1  2  1  0
  2  3  2  0
  2  7  1  0
  3  4  1  0
  4  5  2  0
  6  5  1  0
  7  6  2  0
  8 13  2  0
  9 10  2  0
  9  8  1  0
 10 11  1  0
 11 12  2  0
 12  3  1  0
 13 12  1  0
 14  7  1  0
 14 19  1  0
 15 14  2  0
 16 15  1  0
 16 17  2  0
 17 18  1  0
 18 19  2  0
  4 20  1  0
  5 21  1  0
  6 22  1  0
  8 23  1  0
  9 24  1  0
 10 25  1  0
 15 26  1  0
 16 27  1  0
 17 28  1  0
 18 29  1  0
 19 30  1  0
M  ISO  8  20  14  21  14  22  14  23  14  24  14  25  14  26  14  27  14
M  ISO  3  28  14  29  14  30  14
M  END
>  <minimizedAffinity>  (1) 
-6.59390545

>  <minimizedRMSD>  (1) 
0.517015219

$$$$
