
     RDKit          3D

 30 32  0  0  0  0  0  0  0  0999 V2000
   36.5270   30.3940   45.7180 Cl  0  0  0  0  0  0  0  0  0  0  0  0
   36.6150   30.8220   47.4180 C   0  0  0  0  0  0  0  0  0  0  0  0
   37.7790   31.4470   47.8210 C   0  0  0  0  0  0  0  0  0  0  0  0
   37.8650   31.7970   49.1800 C   0  0  0  0  0  0  0  0  0  0  0  0
   36.8060   31.5040   50.0170 C   0  0  0  0  0  0  0  0  0  0  0  0
   35.6920   30.8840   49.5320 C   0  0  0  0  0  0  0  0  0  0  0  0
   35.5440   30.5170   48.2250 C   0  0  0  0  0  0  0  0  0  0  0  0
   35.0250   27.9030   49.5550 Cl  0  0  0  0  0  0  0  0  0  0  0  0
   34.0400   28.6450   48.3110 C   0  0  0  0  0  0  0  0  0  0  0  0
   34.3550   29.8630   47.7470 C   0  0  0  0  0  0  0  0  0  0  0  0
   33.6020   30.4760   46.7660 C   0  0  0  0  0  0  0  0  0  0  0  0
   32.4640   29.7800   46.3560 C   0  0  0  0  0  0  0  0  0  0  0  0
   32.0930   28.5460   46.8870 C   0  0  0  0  0  0  0  0  0  0  0  0
   30.6590   27.7220   46.3330 Cl  0  0  0  0  0  0  0  0  0  0  0  0
   32.9070   27.9890   47.8780 C   0  0  0  0  0  0  0  0  0  0  0  0
   40.1610   33.3380   45.8280 C   0  0  0  0  0  0  0  0  0  0  0  0
   40.8960   32.3640   45.1490 C   0  0  0  0  0  0  0  0  0  0  0  0
   40.5490   31.0310   45.3970 C   0  0  0  0  0  0  0  0  0  0  0  0
   39.5330   30.7610   46.2680 N   0  0  0  0  0  0  0  0  0  0  0  0
   38.8610   31.7300   46.8910 C   0  0  0  0  0  0  0  0  0  0  0  0
   39.1800   33.0180   46.6670 N   0  0  0  0  0  0  0  0  0  0  0  0
   38.7632   32.2972   49.5712 H   0  0  0  0  0  0  0  0  0  0  0  0
   36.8614   31.7726   51.0823 H   0  0  0  0  0  0  0  0  0  0  0  0
   34.8698   30.6684   50.2302 H   0  0  0  0  0  0  0  0  0  0  0  0
   33.8806   31.4492   46.3356 H   0  0  0  0  0  0  0  0  0  0  0  0
   31.8295   30.2267   45.5764 H   0  0  0  0  0  0  0  0  0  0  0  0
   32.6405   27.0164   48.3173 H   0  0  0  0  0  0  0  0  0  0  0  0
   40.4000   34.3992   45.6644 H   0  0  0  0  0  0  0  0  0  0  0  0
   41.7064   32.6308   44.4546 H   0  0  0  0  0  0  0  0  0  0  0  0
   41.0874   30.2123   44.8971 H   0  0  0  0  0  0  0  0  0  0  0  0
  1  2  1  0
  2  3  2  0
  2  7  1  0
  3  4  1  0
  4  5  2  0
  6  5  1  0
  7  6  2  0
  9  8  1  0
 10  7  1  0
 10  9  2  0
 11 10  1  0
 12 11  2  0
 12 13  1  0
 13 15  2  0
 14 13  1  0
 15  9  1  0
 16 21  2  0
 17 18  2  0
 17 16  1  0
 18 19  1  0
 19 20  2  0
 20  3  1  0
 21 20  1  0
  4 22  1  0
  5 23  1  0
  6 24  1  0
 11 25  1  0
 12 26  1  0
 15 27  1  0
 16 28  1  0
 17 29  1  0
 18 30  1  0
M  ISO  8  22  14  23  14  24  14  25  14  26  14  27  14  28  14  29  14
M  ISO  1  30  14
M  END
>  <minimizedAffinity>  (1) 
-6.40978479

>  <minimizedRMSD>  (1) 
0.882393658

$$$$
