
     RDKit          3D

 26 28  0  0  0  0  0  0  0  0999 V2000
   36.0100   30.2750   47.2680 Cl  0  0  0  0  0  0  0  0  0  0  0  0
   36.5710   30.1860   48.9320 C   0  0  0  0  0  0  0  0  0  0  0  0
   37.7500   30.8330   49.2070 C   0  0  0  0  0  0  0  0  0  0  0  0
   38.2100   30.7730   50.5190 C   0  0  0  0  0  0  0  0  0  0  0  0
   37.4940   30.0930   51.4660 C   0  0  0  0  0  0  0  0  0  0  0  0
   36.3170   29.4670   51.1180 C   0  0  0  0  0  0  0  0  0  0  0  0
   35.8180   29.4920   49.8480 C   0  0  0  0  0  0  0  0  0  0  0  0
   39.4710   33.5430   47.4690 C   0  0  0  0  0  0  0  0  0  0  0  0
   39.8860   32.9670   46.2620 C   0  0  0  0  0  0  0  0  0  0  0  0
   39.5630   31.6210   46.0530 C   0  0  0  0  0  0  0  0  0  0  0  0
   38.8710   30.9540   47.0220 N   0  0  0  0  0  0  0  0  0  0  0  0
   38.4920   31.5520   48.1700 C   0  0  0  0  0  0  0  0  0  0  0  0
   38.7950   32.8500   48.3900 N   0  0  0  0  0  0  0  0  0  0  0  0
   34.5810   28.8480   49.4260 C   0  0  0  0  0  0  0  0  0  0  0  0
   34.4730   27.8130   48.5560 N   0  0  0  0  0  0  0  0  0  0  0  0
   33.1750   27.4880   48.4130 C   0  0  0  0  0  0  0  0  0  0  0  0
   32.4730   28.3360   49.2050 N   0  0  0  0  0  0  0  0  0  0  0  0
   33.3290   29.1470   49.8090 N   0  0  0  0  0  0  0  0  0  0  0  0
   39.1502   31.2728   50.7950 H   0  0  0  0  0  0  0  0  0  0  0  0
   37.8573   30.0462   52.5032 H   0  0  0  0  0  0  0  0  0  0  0  0
   35.7572   28.9255   51.8948 H   0  0  0  0  0  0  0  0  0  0  0  0
   39.7089   34.5989   47.6651 H   0  0  0  0  0  0  0  0  0  0  0  0
   40.4418   33.5471   45.5106 H   0  0  0  0  0  0  0  0  0  0  0  0
   39.8613   31.1106   45.1254 H   0  0  0  0  0  0  0  0  0  0  0  0
   32.7635   26.6900   47.7775 H   0  0  0  0  0  0  0  0  0  0  0  0
   31.4492   28.3476   49.3177 H   0  0  0  0  0  0  0  0  0  0  0  0
  1  2  1  0
  2  3  2  0
  2  7  1  0
  3  4  1  0
  4  5  2  0
  6  5  1  0
  7  6  2  0
  8 13  2  0
  9  8  1  0
 10  9  2  0
 10 11  1  0
 11 12  2  0
 12 13  1  0
 12  3  1  0
 14 18  2  0
 14  7  1  0
 15 14  1  0
 16 15  2  0
 16 17  1  0
 17 18  1  0
  4 19  1  0
  5 20  1  0
  6 21  1  0
  8 22  1  0
  9 23  1  0
 10 24  1  0
 16 25  1  0
 17 26  1  0
M  ISO  8  19  14  20  14  21  14  22  14  23  14  24  14  25  14  26   9
M  END
>  <minimizedAffinity>  (1) 
-6.2739563

>  <minimizedRMSD>  (1) 
1.13753271

$$$$
