
     RDKit          3D

 27 29  0  0  0  0  0  0  0  0999 V2000
   36.6370   30.2770   46.2270 Cl  0  0  0  0  0  0  0  0  0  0  0  0
   36.9650   30.4890   47.9330 C   0  0  0  0  0  0  0  0  0  0  0  0
   38.1330   31.1680   48.2310 C   0  0  0  0  0  0  0  0  0  0  0  0
   38.4230   31.3530   49.5960 C   0  0  0  0  0  0  0  0  0  0  0  0
   37.5540   30.8640   50.5440 C   0  0  0  0  0  0  0  0  0  0  0  0
   36.4250   30.2060   50.1600 C   0  0  0  0  0  0  0  0  0  0  0  0
   36.0780   29.9890   48.8610 C   0  0  0  0  0  0  0  0  0  0  0  0
   40.0710   33.4900   46.2120 C   0  0  0  0  0  0  0  0  0  0  0  0
   40.7100   32.6880   45.2650 C   0  0  0  0  0  0  0  0  0  0  0  0
   40.4550   31.3140   45.3410 C   0  0  0  0  0  0  0  0  0  0  0  0
   39.6170   30.8590   46.3120 N   0  0  0  0  0  0  0  0  0  0  0  0
   39.0270   31.6700   47.1980 C   0  0  0  0  0  0  0  0  0  0  0  0
   39.2600   32.9960   47.1430 N   0  0  0  0  0  0  0  0  0  0  0  0
   34.8730   29.2870   48.4780 C   0  0  0  0  0  0  0  0  0  0  0  0
   34.5220   28.0290   48.9240 C   0  0  0  0  0  0  0  0  0  0  0  0
   33.3140   27.7590   48.3110 C   0  0  0  0  0  0  0  0  0  0  0  0
   32.9890   28.8500   47.5300 C   0  0  0  0  0  0  0  0  0  0  0  0
   33.9550   29.7550   47.6570 O   0  0  0  0  0  0  0  0  0  0  0  0
   39.3365   31.8839   49.9021 H   0  0  0  0  0  0  0  0  0  0  0  0
   37.7713   31.0046   51.6131 H   0  0  0  0  0  0  0  0  0  0  0  0
   35.7540   29.8276   50.9452 H   0  0  0  0  0  0  0  0  0  0  0  0
   40.2455   34.5758   46.1872 H   0  0  0  0  0  0  0  0  0  0  0  0
   41.3775   33.1127   44.5008 H   0  0  0  0  0  0  0  0  0  0  0  0
   40.9223   30.6162   44.6305 H   0  0  0  0  0  0  0  0  0  0  0  0
   35.0817   27.3828   49.6162 H   0  0  0  0  0  0  0  0  0  0  0  0
   32.7188   26.8410   48.4246 H   0  0  0  0  0  0  0  0  0  0  0  0
   32.0865   28.9529   46.9096 H   0  0  0  0  0  0  0  0  0  0  0  0
  1  2  1  0
  2  3  2  0
  2  7  1  0
  3  4  1  0
  4  5  2  0
  6  5  1  0
  7  6  2  0
  8 13  2  0
  9 10  2  0
  9  8  1  0
 10 11  1  0
 11 12  2  0
 12  3  1  0
 13 12  1  0
 14  7  1  0
 14 15  2  0
 16 15  1  0
 17 18  1  0
 17 16  2  0
 18 14  1  0
  4 19  1  0
  5 20  1  0
  6 21  1  0
  8 22  1  0
  9 23  1  0
 10 24  1  0
 15 25  1  0
 16 26  1  0
 17 27  1  0
M  ISO  8  19  14  20  14  21  14  22  14  23  14  24  14  25  14  26  14
M  ISO  1  27  14
M  END
>  <minimizedAffinity>  (1) 
-6.24620581

>  <minimizedRMSD>  (1) 
0.383493781

$$$$
