
     RDKit          3D

 26 27  0  0  0  0  0  0  0  0999 V2000
   36.3850   30.3900   46.1770 Cl  0  0  0  0  0  0  0  0  0  0  0  0
   37.0050   31.1780   47.6080 C   0  0  0  0  0  0  0  0  0  0  0  0
   38.2010   31.8300   47.4750 C   0  0  0  0  0  0  0  0  0  0  0  0
   38.6980   32.4610   48.6190 C   0  0  0  0  0  0  0  0  0  0  0  0
   37.9960   32.4100   49.7930 C   0  0  0  0  0  0  0  0  0  0  0  0
   36.8130   31.7420   49.8410 C   0  0  0  0  0  0  0  0  0  0  0  0
   36.2630   31.0950   48.7510 C   0  0  0  0  0  0  0  0  0  0  0  0
   39.1070   32.7180   44.0570 C   0  0  0  0  0  0  0  0  0  0  0  0
   40.2560   31.9810   43.7910 C   0  0  0  0  0  0  0  0  0  0  0  0
   40.7320   31.1470   44.8310 C   0  0  0  0  0  0  0  0  0  0  0  0
   40.0420   31.1250   46.0050 N   0  0  0  0  0  0  0  0  0  0  0  0
   38.9300   31.8660   46.2050 C   0  0  0  0  0  0  0  0  0  0  0  0
   38.4560   32.6690   45.2270 N   0  0  0  0  0  0  0  0  0  0  0  0
   35.0730   30.4760   48.9750 O   0  0  0  0  0  0  0  0  0  0  0  0
   34.5190   27.9890   49.5140 O   0  0  0  0  0  0  0  0  0  0  0  0
   34.6500   29.3540   50.1490 P   0  0  0  0  0  0  0  0  0  0  0  0
   33.1280   29.6890   50.8320 O   0  0  0  0  0  0  0  0  0  0  0  0
   35.7550   29.2400   51.4310 O   0  0  0  0  0  0  0  0  0  0  0  0
   39.6559   33.0000   48.5757 H   0  0  0  0  0  0  0  0  0  0  0  0
   38.3871   32.9070   50.6930 H   0  0  0  0  0  0  0  0  0  0  0  0
   36.2663   31.7152   50.7952 H   0  0  0  0  0  0  0  0  0  0  0  0
   38.7128   33.3742   43.2670 H   0  0  0  0  0  0  0  0  0  0  0  0
   40.7696   32.0431   42.8203 H   0  0  0  0  0  0  0  0  0  0  0  0
   41.6347   30.5333   44.6947 H   0  0  0  0  0  0  0  0  0  0  0  0
   33.1987   29.6734   51.8193 H   0  0  0  0  0  0  0  0  0  0  0  0
   35.2683   29.2902   52.2916 H   0  0  0  0  0  0  0  0  0  0  0  0
  1  2  1  0
  2  7  2  0
  3  2  1  0
  3  4  2  0
  4  5  1  0
  5  6  2  0
  7 14  1  0
  7  6  1  0
  8 13  2  0
  9  8  1  0
  9 10  2  0
 10 11  1  0
 11 12  2  0
 12  3  1  0
 13 12  1  0
 14 16  1  0
 15 16  2  0
 16 17  1  0
 16 18  1  0
  4 19  1  0
  5 20  1  0
  6 21  1  0
  8 22  1  0
  9 23  1  0
 10 24  1  0
 17 25  1  0
 18 26  1  0
M  ISO  8  19  14  20  14  21  14  22  14  23  14  24  14  25   3  26   3
M  END
>  <minimizedAffinity>  (1) 
-6.15150023

>  <minimizedRMSD>  (1) 
1.75301504

$$$$
