
     RDKit          3D

 35 37  0  0  0  0  0  0  0  0999 V2000
   36.5120   30.3850   46.1460 Cl  0  0  0  0  0  0  0  0  0  0  0  0
   36.8780   30.3800   47.8560 C   0  0  0  0  0  0  0  0  0  0  0  0
   38.0590   30.9740   48.2200 C   0  0  0  0  0  0  0  0  0  0  0  0
   38.3750   30.9830   49.5810 C   0  0  0  0  0  0  0  0  0  0  0  0
   37.5090   30.4110   50.4850 C   0  0  0  0  0  0  0  0  0  0  0  0
   36.3450   29.8370   50.0360 C   0  0  0  0  0  0  0  0  0  0  0  0
   35.9880   29.7990   48.7180 C   0  0  0  0  0  0  0  0  0  0  0  0
   39.9840   33.4970   46.4290 C   0  0  0  0  0  0  0  0  0  0  0  0
   40.6310   32.7850   45.4080 C   0  0  0  0  0  0  0  0  0  0  0  0
   40.3890   31.4110   45.3510 C   0  0  0  0  0  0  0  0  0  0  0  0
   39.5550   30.8560   46.2710 N   0  0  0  0  0  0  0  0  0  0  0  0
   38.9580   31.5760   47.2280 C   0  0  0  0  0  0  0  0  0  0  0  0
   39.1760   32.9010   47.3030 N   0  0  0  0  0  0  0  0  0  0  0  0
   34.7650   29.1860   48.3250 N   0  0  0  0  0  0  0  0  0  0  0  0
   33.7520   28.6450   49.2000 C   0  0  0  0  0  0  0  0  0  0  0  0
   32.9040   27.6620   48.4000 C   0  0  0  0  0  0  0  0  0  0  0  0
   32.1510   28.3820   47.3020 C   0  0  0  0  0  0  0  0  0  0  0  0
   32.9960   29.5390   46.7530 C   0  0  0  0  0  0  0  0  0  0  0  0
   34.4410   29.0600   46.9200 C   0  0  0  0  0  0  0  0  0  0  0  0
   39.3110   31.4448   49.9282 H   0  0  0  0  0  0  0  0  0  0  0  0
   37.7474   30.4136   51.5589 H   0  0  0  0  0  0  0  0  0  0  0  0
   35.6663   29.3853   50.7745 H   0  0  0  0  0  0  0  0  0  0  0  0
   40.1495   34.5815   46.5099 H   0  0  0  0  0  0  0  0  0  0  0  0
   41.2960   33.2844   44.6880 H   0  0  0  0  0  0  0  0  0  0  0  0
   40.8635   30.7896   44.5772 H   0  0  0  0  0  0  0  0  0  0  0  0
   34.2286   28.1243   50.0437 H   0  0  0  0  0  0  0  0  0  0  0  0
   33.1215   29.4546   49.5962 H   0  0  0  0  0  0  0  0  0  0  0  0
   33.5591   26.9011   47.9507 H   0  0  0  0  0  0  0  0  0  0  0  0
   32.1782   27.1864   49.0760 H   0  0  0  0  0  0  0  0  0  0  0  0
   31.9302   27.6751   46.4886 H   0  0  0  0  0  0  0  0  0  0  0  0
   31.2137   28.7848   47.7132 H   0  0  0  0  0  0  0  0  0  0  0  0
   32.8205   30.4587   47.3304 H   0  0  0  0  0  0  0  0  0  0  0  0
   32.7504   29.7820   45.7087 H   0  0  0  0  0  0  0  0  0  0  0  0
   34.5307   28.0103   46.6036 H   0  0  0  0  0  0  0  0  0  0  0  0
   35.1280   29.6568   46.3020 H   0  0  0  0  0  0  0  0  0  0  0  0
  1  2  1  0
  2  3  2  0
  2  7  1  0
  3  4  1  0
  4  5  2  0
  6  5  1  0
  7  6  2  0
  8 13  2  0
  9  8  1  0
 10  9  2  0
 10 11  1  0
 11 12  2  0
 12 13  1  0
 12  3  1  0
 14  7  1  0
 14 15  1  0
 16 15  1  0
 17 16  1  0
 18 19  1  0
 18 17  1  0
 19 14  1  0
  4 20  1  0
  5 21  1  0
  6 22  1  0
  8 23  1  0
  9 24  1  0
 10 25  1  0
 15 26  1  0
 15 27  1  0
 16 28  1  0
 16 29  1  0
 17 30  1  0
 17 31  1  0
 18 32  1  0
 18 33  1  0
 19 34  1  0
 19 35  1  0
M  ISO  8  20  14  21  14  22  14  23  14  24  14  25  14  26  13  27  13
M  ISO  8  28  13  29  13  30  13  31  13  32  13  33  13  34  13  35  13
M  END
>  <minimizedAffinity>  (1) 
-6.04201698

>  <minimizedRMSD>  (1) 
0.431074858

$$$$
