
     RDKit          3D

 26 28  0  0  0  0  0  0  0  0999 V2000
   36.6280   30.3460   46.1360 Cl  0  0  0  0  0  0  0  0  0  0  0  0
   36.9570   30.5450   47.8620 C   0  0  0  0  0  0  0  0  0  0  0  0
   38.1230   31.1840   48.1780 C   0  0  0  0  0  0  0  0  0  0  0  0
   38.3910   31.3470   49.5310 C   0  0  0  0  0  0  0  0  0  0  0  0
   37.5140   30.8820   50.4670 C   0  0  0  0  0  0  0  0  0  0  0  0
   36.3610   30.2490   50.0550 C   0  0  0  0  0  0  0  0  0  0  0  0
   36.0310   30.0520   48.7380 C   0  0  0  0  0  0  0  0  0  0  0  0
   40.1130   33.4720   46.1640 C   0  0  0  0  0  0  0  0  0  0  0  0
   40.7620   32.6650   45.2330 C   0  0  0  0  0  0  0  0  0  0  0  0
   40.4970   31.2970   45.3120 C   0  0  0  0  0  0  0  0  0  0  0  0
   39.6420   30.8320   46.2700 N   0  0  0  0  0  0  0  0  0  0  0  0
   39.0410   31.6700   47.1480 C   0  0  0  0  0  0  0  0  0  0  0  0
   39.2800   33.0050   47.0940 N   0  0  0  0  0  0  0  0  0  0  0  0
   34.7830   29.3670   48.3360 C   0  0  0  0  0  0  0  0  0  0  0  0
   34.3870   28.1940   48.9210 C   0  0  0  0  0  0  0  0  0  0  0  0
   32.8300   27.7990   48.0780 S   0  0  0  0  0  0  0  0  0  0  0  0
   32.9770   29.3670   47.0170 C   0  0  0  0  0  0  0  0  0  0  0  0
   33.9550   29.8070   47.4040 N   0  0  0  0  0  0  0  0  0  0  0  0
   39.3143   31.8532   49.8493 H   0  0  0  0  0  0  0  0  0  0  0  0
   37.7248   31.0109   51.5389 H   0  0  0  0  0  0  0  0  0  0  0  0
   35.6668   29.8813   50.8250 H   0  0  0  0  0  0  0  0  0  0  0  0
   40.2982   34.5558   46.1301 H   0  0  0  0  0  0  0  0  0  0  0  0
   41.4448   33.0821   44.4781 H   0  0  0  0  0  0  0  0  0  0  0  0
   40.9732   30.5987   44.6080 H   0  0  0  0  0  0  0  0  0  0  0  0
   34.8935   27.6254   49.7148 H   0  0  0  0  0  0  0  0  0  0  0  0
   32.3003   29.7484   46.2382 H   0  0  0  0  0  0  0  0  0  0  0  0
  1  2  1  0
  2  3  2  0
  2  7  1  0
  3  4  1  0
  4  5  2  0
  6  5  1  0
  7  6  2  0
  8 13  2  0
  9 10  2  0
  9  8  1  0
 10 11  1  0
 11 12  2  0
 12  3  1  0
 13 12  1  0
 14  7  1  0
 14 15  2  0
 16 15  1  0
 17 18  2  0
 17 16  1  0
 18 14  1  0
  4 19  1  0
  5 20  1  0
  6 21  1  0
  8 22  1  0
  9 23  1  0
 10 24  1  0
 15 25  1  0
 17 26  1  0
M  ISO  8  19  14  20  14  21  14  22  14  23  14  24  14  25  14  26  14
M  END
>  <minimizedAffinity>  (1) 
-5.99581814

>  <minimizedRMSD>  (1) 
0.40689978

$$$$
