
     RDKit          3D

 32 34  0  0  0  0  0  0  0  0999 V2000
   36.6720   30.2280   46.2250 Cl  0  0  0  0  0  0  0  0  0  0  0  0
   36.9850   30.4970   47.9320 C   0  0  0  0  0  0  0  0  0  0  0  0
   38.1370   31.2030   48.2430 C   0  0  0  0  0  0  0  0  0  0  0  0
   38.3960   31.4240   49.5980 C   0  0  0  0  0  0  0  0  0  0  0  0
   37.5270   30.9470   50.5460 C   0  0  0  0  0  0  0  0  0  0  0  0
   36.4150   30.2620   50.1660 C   0  0  0  0  0  0  0  0  0  0  0  0
   36.0890   30.0030   48.8560 C   0  0  0  0  0  0  0  0  0  0  0  0
   40.0810   33.4940   46.1870 C   0  0  0  0  0  0  0  0  0  0  0  0
   40.7110   32.6760   45.2510 C   0  0  0  0  0  0  0  0  0  0  0  0
   40.4540   31.3030   45.3390 C   0  0  0  0  0  0  0  0  0  0  0  0
   39.6180   30.8600   46.3160 N   0  0  0  0  0  0  0  0  0  0  0  0
   39.0280   31.6880   47.2020 C   0  0  0  0  0  0  0  0  0  0  0  0
   39.2680   33.0090   47.1290 N   0  0  0  0  0  0  0  0  0  0  0  0
   34.9370   29.2910   48.4060 N   0  0  0  0  0  0  0  0  0  0  0  0
   33.9290   29.7170   47.4320 C   0  0  0  0  0  0  0  0  0  0  0  0
   32.8230   28.7010   47.6190 C   0  0  0  0  0  0  0  0  0  0  0  0
   33.5880   27.4280   47.9200 C   0  0  0  0  0  0  0  0  0  0  0  0
   34.6090   27.9460   48.9050 C   0  0  0  0  0  0  0  0  0  0  0  0
   39.2949   31.9793   49.9039 H   0  0  0  0  0  0  0  0  0  0  0  0
   37.7294   31.1184   51.6135 H   0  0  0  0  0  0  0  0  0  0  0  0
   35.7383   29.8945   50.9515 H   0  0  0  0  0  0  0  0  0  0  0  0
   40.2599   34.5787   46.1485 H   0  0  0  0  0  0  0  0  0  0  0  0
   41.3781   33.0895   44.4802 H   0  0  0  0  0  0  0  0  0  0  0  0
   40.9179   30.5979   44.6336 H   0  0  0  0  0  0  0  0  0  0  0  0
   34.3291   29.6816   46.4080 H   0  0  0  0  0  0  0  0  0  0  0  0
   33.5941   30.7542   47.5807 H   0  0  0  0  0  0  0  0  0  0  0  0
   32.1677   28.9778   48.4580 H   0  0  0  0  0  0  0  0  0  0  0  0
   32.1574   28.6147   46.7475 H   0  0  0  0  0  0  0  0  0  0  0  0
   32.9402   26.6622   48.3717 H   0  0  0  0  0  0  0  0  0  0  0  0
   34.0149   26.9304   47.0368 H   0  0  0  0  0  0  0  0  0  0  0  0
   35.5025   27.3044   48.9153 H   0  0  0  0  0  0  0  0  0  0  0  0
   34.2312   27.9589   49.9380 H   0  0  0  0  0  0  0  0  0  0  0  0
  1  2  1  0
  2  3  2  0
  2  7  1  0
  3  4  1  0
  4  5  2  0
  6  5  1  0
  7  6  2  0
  8 13  2  0
  9 10  2  0
  9  8  1  0
 10 11  1  0
 11 12  2  0
 12  3  1  0
 13 12  1  0
 14  7  1  0
 14 18  1  0
 15 16  1  0
 15 14  1  0
 16 17  1  0
 17 18  1  0
  4 19  1  0
  5 20  1  0
  6 21  1  0
  8 22  1  0
  9 23  1  0
 10 24  1  0
 15 25  1  0
 15 26  1  0
 16 27  1  0
 16 28  1  0
 17 29  1  0
 17 30  1  0
 18 31  1  0
 18 32  1  0
M  ISO  8  19  14  20  14  21  14  22  14  23  14  24  14  25  13  26  13
M  ISO  6  27  13  28  13  29  13  30  13  31  13  32  13
M  END
>  <minimizedAffinity>  (1) 
-5.87159538

>  <minimizedRMSD>  (1) 
0.519751787

$$$$
