
     RDKit          3D

 23 24  0  0  0  0  0  0  0  0999 V2000
   36.3500   30.4980   46.3830 Cl  0  0  0  0  0  0  0  0  0  0  0  0
   36.7890   30.5510   48.0870 C   0  0  0  0  0  0  0  0  0  0  0  0
   38.0180   31.0890   48.3790 C   0  0  0  0  0  0  0  0  0  0  0  0
   38.3900   31.1420   49.7250 C   0  0  0  0  0  0  0  0  0  0  0  0
   37.5230   30.6610   50.6790 C   0  0  0  0  0  0  0  0  0  0  0  0
   36.3190   30.1410   50.3150 C   0  0  0  0  0  0  0  0  0  0  0  0
   35.8860   30.0560   49.0030 C   0  0  0  0  0  0  0  0  0  0  0  0
   40.0050   33.4170   46.3910 C   0  0  0  0  0  0  0  0  0  0  0  0
   40.5670   32.6120   45.3820 C   0  0  0  0  0  0  0  0  0  0  0  0
   40.2420   31.2500   45.4040 C   0  0  0  0  0  0  0  0  0  0  0  0
   39.4170   30.7680   46.3790 N   0  0  0  0  0  0  0  0  0  0  0  0
   38.9040   31.5870   47.3270 C   0  0  0  0  0  0  0  0  0  0  0  0
   39.2090   32.8910   47.3120 N   0  0  0  0  0  0  0  0  0  0  0  0
   34.5820   29.4960   48.5740 C   0  0  0  0  0  0  0  0  0  0  0  0
   39.3632   31.5628   50.0180 H   0  0  0  0  0  0  0  0  0  0  0  0
   37.8045   30.6969   51.7418 H   0  0  0  0  0  0  0  0  0  0  0  0
   35.6533   29.7677   51.1071 H   0  0  0  0  0  0  0  0  0  0  0  0
   40.2285   34.4938   46.4157 H   0  0  0  0  0  0  0  0  0  0  0  0
   41.2304   33.0332   44.6123 H   0  0  0  0  0  0  0  0  0  0  0  0
   40.6494   30.5720   44.6396 H   0  0  0  0  0  0  0  0  0  0  0  0
   33.9838   29.2391   49.4606 H   0  0  0  0  0  0  0  0  0  0  0  0
   34.0430   30.2420   47.9715 H   0  0  0  0  0  0  0  0  0  0  0  0
   34.7518   28.5914   47.9715 H   0  0  0  0  0  0  0  0  0  0  0  0
  1  2  1  0
  2  3  2  0
  2  7  1  0
  3  4  1  0
  4  5  2  0
  6  5  1  0
  7  6  2  0
  8 13  2  0
  9 10  2  0
  9  8  1  0
 10 11  1  0
 11 12  2  0
 12  3  1  0
 13 12  1  0
 14  7  1  0
  4 15  1  0
  5 16  1  0
  6 17  1  0
  8 18  1  0
  9 19  1  0
 10 20  1  0
 14 21  1  0
 14 22  1  0
 14 23  1  0
M  ISO  8  15  14  16  14  17  14  18  14  19  14  20  14  21   8  22   8
M  ISO  1  23   8
M  END
>  <minimizedAffinity>  (1) 
-5.60900354

>  <minimizedRMSD>  (1) 
0.0856961086

$$$$
