
     RDKit          3D

 22 23  0  0  0  0  0  0  0  0999 V2000
   36.3130   30.5190   46.3370 Cl  0  0  0  0  0  0  0  0  0  0  0  0
   36.7560   30.5780   48.0280 C   0  0  0  0  0  0  0  0  0  0  0  0
   37.9960   31.0920   48.3200 C   0  0  0  0  0  0  0  0  0  0  0  0
   38.3620   31.1450   49.6690 C   0  0  0  0  0  0  0  0  0  0  0  0
   37.4950   30.6950   50.6260 C   0  0  0  0  0  0  0  0  0  0  0  0
   36.2740   30.1950   50.2640 C   0  0  0  0  0  0  0  0  0  0  0  0
   35.8480   30.1120   48.9570 C   0  0  0  0  0  0  0  0  0  0  0  0
   40.0260   33.3280   46.2760 C   0  0  0  0  0  0  0  0  0  0  0  0
   40.5820   32.5030   45.2970 C   0  0  0  0  0  0  0  0  0  0  0  0
   40.2430   31.1460   45.3500 C   0  0  0  0  0  0  0  0  0  0  0  0
   39.4020   30.7160   46.3410 N   0  0  0  0  0  0  0  0  0  0  0  0
   38.8930   31.5630   47.2660 C   0  0  0  0  0  0  0  0  0  0  0  0
   39.2090   32.8610   47.2260 N   0  0  0  0  0  0  0  0  0  0  0  0
   34.5820   29.5970   48.5400 N   0  0  0  0  0  0  0  0  0  0  0  0
   39.3439   31.5473   49.9591 H   0  0  0  0  0  0  0  0  0  0  0  0
   37.7795   30.7351   51.6878 H   0  0  0  0  0  0  0  0  0  0  0  0
   35.5985   29.8415   51.0569 H   0  0  0  0  0  0  0  0  0  0  0  0
   40.2686   34.4009   46.2657 H   0  0  0  0  0  0  0  0  0  0  0  0
   41.2538   32.8999   44.5217 H   0  0  0  0  0  0  0  0  0  0  0  0
   40.6446   30.4386   44.6096 H   0  0  0  0  0  0  0  0  0  0  0  0
   33.9106   29.2514   49.2405 H   0  0  0  0  0  0  0  0  0  0  0  0
   34.3409   29.5714   47.5390 H   0  0  0  0  0  0  0  0  0  0  0  0
  1  2  1  0
  2  3  2  0
  2  7  1  0
  3  4  1  0
  4  5  2  0
  6  5  1  0
  7  6  2  0
  8 13  2  0
  9 10  2  0
  9  8  1  0
 10 11  1  0
 11 12  2  0
 12  3  1  0
 13 12  1  0
 14  7  1  0
  4 15  1  0
  5 16  1  0
  6 17  1  0
  8 18  1  0
  9 19  1  0
 10 20  1  0
 14 21  1  0
 14 22  1  0
M  ISO  6  15  14  16  14  17  14  18  14  19  14  20  14
M  END
>  <minimizedAffinity>  (1) 
-5.36092806

>  <minimizedRMSD>  (1) 
0.0454582237

$$$$
