
     RDKit          3D

 39 41  0  0  1  0  0  0  0  0999 V2000
   36.5390   30.5100   46.1080 Cl  0  0  0  0  0  0  0  0  0  0  0  0
   36.9160   31.0300   47.7310 C   0  0  0  0  0  0  0  0  0  0  0  0
   38.1430   31.6240   47.8550 C   0  0  0  0  0  0  0  0  0  0  0  0
   38.4900   32.1240   49.1040 C   0  0  0  0  0  0  0  0  0  0  0  0
   37.5810   31.9930   50.1420 C   0  0  0  0  0  0  0  0  0  0  0  0
   36.3630   31.3760   49.9190 C   0  0  0  0  0  0  0  0  0  0  0  0
   35.9820   30.8700   48.7080 C   0  0  0  0  0  0  0  0  0  0  0  0
   34.6990   30.1540   48.4860 C   0  0  1  0  0  0  0  0  0  0  0  0
   34.3610   30.1290   47.0730 C   0  0  0  0  0  0  0  0  0  0  0  0
   33.0650   29.3070   47.0600 C   0  0  0  0  0  0  0  0  0  0  0  0
   33.5930   27.8650   47.1910 C   0  0  0  0  0  0  0  0  0  0  0  0
   34.3900   27.6530   48.4050 C   0  0  0  0  0  0  0  0  0  0  0  0
   34.6670   28.8410   49.2310 C   0  0  1  0  0  0  0  0  0  0  0  0
   35.9240   28.6400   50.0710 C   0  0  0  0  0  0  0  0  0  0  0  0
   40.0930   33.2010   45.2020 C   0  0  0  0  0  0  0  0  0  0  0  0
   40.6980   32.1550   44.5240 C   0  0  0  0  0  0  0  0  0  0  0  0
   40.4250   30.8670   45.0110 C   0  0  0  0  0  0  0  0  0  0  0  0
   39.6040   30.7250   46.0940 N   0  0  0  0  0  0  0  0  0  0  0  0
   39.0500   31.7810   46.7030 C   0  0  0  0  0  0  0  0  0  0  0  0
   39.2930   33.0370   46.2580 N   0  0  0  0  0  0  0  0  0  0  0  0
   39.4626   32.6120   49.2651 H   0  0  0  0  0  0  0  0  0  0  0  0
   37.8277   32.3792   51.1420 H   0  0  0  0  0  0  0  0  0  0  0  0
   35.6628   31.2879   50.7627 H   0  0  0  0  0  0  0  0  0  0  0  0
   33.8635   30.7089   48.9377 H   0  0  0  0  0  0  0  0  0  0  0  0
   34.1922   31.1447   46.6860 H   0  0  0  0  0  0  0  0  0  0  0  0
   35.1549   29.7089   46.4380 H   0  0  0  0  0  0  0  0  0  0  0  0
   32.4157   29.5725   47.9073 H   0  0  0  0  0  0  0  0  0  0  0  0
   32.4467   29.4713   46.1652 H   0  0  0  0  0  0  0  0  0  0  0  0
   32.7342   27.1780   47.2114 H   0  0  0  0  0  0  0  0  0  0  0  0
   34.2503   27.6763   46.3294 H   0  0  0  0  0  0  0  0  0  0  0  0
   33.8528   26.9278   49.0339 H   0  0  0  0  0  0  0  0  0  0  0  0
   35.3737   27.3129   48.0490 H   0  0  0  0  0  0  0  0  0  0  0  0
   33.7966   28.9319   49.8974 H   0  0  0  0  0  0  0  0  0  0  0  0
   35.6622   28.6819   51.1386 H   0  0  0  0  0  0  0  0  0  0  0  0
   36.3664   27.6597   49.8401 H   0  0  0  0  0  0  0  0  0  0  0  0
   36.6500   29.4335   49.8401 H   0  0  0  0  0  0  0  0  0  0  0  0
   40.2829   34.2256   44.8498 H   0  0  0  0  0  0  0  0  0  0  0  0
   41.3528   32.3237   43.6564 H   0  0  0  0  0  0  0  0  0  0  0  0
   40.8664   29.9833   44.5269 H   0  0  0  0  0  0  0  0  0  0  0  0
  1  2  1  0
  2  3  2  0
  2  7  1  0
  3  4  1  0
  4  5  2  0
  6  5  1  0
  7  6  2  0
  8  7  1  0
  8 13  1  0
  9  8  1  0
 10  9  1  0
 10 11  1  0
 11 12  1  0
 12 13  1  0
 13 14  1  0
 15 20  2  0
 16 17  2  0
 16 15  1  0
 17 18  1  0
 18 19  2  0
 19  3  1  0
 20 19  1  0
  4 21  1  0
  5 22  1  0
  6 23  1  0
  8 24  1  1
  9 25  1  0
  9 26  1  0
 10 27  1  0
 10 28  1  0
 11 29  1  0
 11 30  1  0
 12 31  1  0
 12 32  1  0
 13 33  1  1
 14 34  1  0
 14 35  1  0
 14 36  1  0
 15 37  1  0
 16 38  1  0
 17 39  1  0
M  ISO  8  21  14  22  14  23  14  24  13  25  13  26  13  27  13  28  13
M  ISO  8  29  13  30  13  31  13  32  13  33  13  34   8  35   8  36   8
M  ISO  3  37  14  38  14  39  14
M  END
>  <minimizedAffinity>  (1) 
-6.78952646

>  <minimizedRMSD>  (1) 
0.793227017

$$$$
