
     RDKit          3D

 42 44  0  0  1  0  0  0  0  0999 V2000
   36.9100   30.4460   46.4710 Cl  0  0  0  0  0  0  0  0  0  0  0  0
   37.5580   31.5420   47.6630 C   0  0  0  0  0  0  0  0  0  0  0  0
   38.6400   32.2570   47.2310 C   0  0  0  0  0  0  0  0  0  0  0  0
   39.1760   33.1980   48.1090 C   0  0  0  0  0  0  0  0  0  0  0  0
   38.5860   33.3530   49.3490 C   0  0  0  0  0  0  0  0  0  0  0  0
   37.4890   32.5800   49.6950 C   0  0  0  0  0  0  0  0  0  0  0  0
   36.9360   31.6530   48.8770 C   0  0  0  0  0  0  0  0  0  0  0  0
   35.8100   30.7590   49.2790 C   0  0  1  0  0  0  0  0  0  0  0  0
   34.8740   30.5990   48.1770 C   0  0  0  0  0  0  0  0  0  0  0  0
   33.8230   29.6490   48.7570 C   0  0  0  0  0  0  0  0  0  0  0  0
   34.5310   28.2970   48.6810 C   0  0  0  0  0  0  0  0  0  0  0  0
   35.8070   28.2450   49.4030 C   0  0  0  0  0  0  0  0  0  0  0  0
   36.3400   29.5030   49.9460 C   0  0  2  0  0  0  0  0  0  0  0  0
   36.3330   29.4980   51.4300 C   0  0  0  0  0  0  0  0  0  0  0  0
   37.5860   29.8370   52.1430 C   0  0  0  0  0  0  0  0  0  0  0  0
   39.1670   32.6620   43.6370 C   0  0  0  0  0  0  0  0  0  0  0  0
   40.1910   31.7620   43.3250 C   0  0  0  0  0  0  0  0  0  0  0  0
   40.7000   31.0160   44.3870 C   0  0  0  0  0  0  0  0  0  0  0  0
   40.1880   31.1970   45.6420 N   0  0  0  0  0  0  0  0  0  0  0  0
   39.2060   32.0750   45.8830 C   0  0  0  0  0  0  0  0  0  0  0  0
   38.6860   32.8170   44.8760 N   0  0  0  0  0  0  0  0  0  0  0  0
   40.0484   33.8031   47.8214 H   0  0  0  0  0  0  0  0  0  0  0  0
   38.9868   34.0895   50.0610 H   0  0  0  0  0  0  0  0  0  0  0  0
   37.0425   32.7276   50.6894 H   0  0  0  0  0  0  0  0  0  0  0  0
   35.1924   31.2138   50.0675 H   0  0  0  0  0  0  0  0  0  0  0  0
   35.3675   30.1553   47.2997 H   0  0  0  0  0  0  0  0  0  0  0  0
   34.4515   31.5512   47.8239 H   0  0  0  0  0  0  0  0  0  0  0  0
   33.5777   29.9126   49.7964 H   0  0  0  0  0  0  0  0  0  0  0  0
   32.8623   29.6744   48.2219 H   0  0  0  0  0  0  0  0  0  0  0  0
   33.8629   27.5334   49.1058 H   0  0  0  0  0  0  0  0  0  0  0  0
   34.7607   28.1197   47.6200 H   0  0  0  0  0  0  0  0  0  0  0  0
   35.6780   27.5519   50.2474 H   0  0  0  0  0  0  0  0  0  0  0  0
   36.5418   27.9378   48.6443 H   0  0  0  0  0  0  0  0  0  0  0  0
   37.4019   29.5496   49.6627 H   0  0  0  0  0  0  0  0  0  0  0  0
   35.5693   30.2205   51.7537 H   0  0  0  0  0  0  0  0  0  0  0  0
   36.1479   28.4466   51.6952 H   0  0  0  0  0  0  0  0  0  0  0  0
   37.4143   29.7905   53.2285 H   0  0  0  0  0  0  0  0  0  0  0  0
   38.3718   29.1192   51.8650 H   0  0  0  0  0  0  0  0  0  0  0  0
   37.9026   30.8531   51.8650 H   0  0  0  0  0  0  0  0  0  0  0  0
   38.7375   33.2700   42.8271 H   0  0  0  0  0  0  0  0  0  0  0  0
   40.5731   31.6491   42.2997 H   0  0  0  0  0  0  0  0  0  0  0  0
   41.5068   30.2878   44.2169 H   0  0  0  0  0  0  0  0  0  0  0  0
  1  2  1  0
  2  7  2  0
  3  2  1  0
  3  4  2  0
  4  5  1  0
  5  6  2  0
  7  8  1  0
  7  6  1  0
  8 13  1  0
  9 10  1  0
  9  8  1  0
 11 10  1  0
 11 12  1  0
 12 13  1  0
 13 14  1  0
 14 15  1  0
 16 21  2  0
 17 16  1  0
 17 18  2  0
 18 19  1  0
 19 20  2  0
 20  3  1  0
 21 20  1  0
  4 22  1  0
  5 23  1  0
  6 24  1  0
  8 25  1  1
  9 26  1  0
  9 27  1  0
 10 28  1  0
 10 29  1  0
 11 30  1  0
 11 31  1  0
 12 32  1  0
 12 33  1  0
 13 34  1  1
 14 35  1  0
 14 36  1  0
 15 37  1  0
 15 38  1  0
 15 39  1  0
 16 40  1  0
 17 41  1  0
 18 42  1  0
M  ISO  8  22  14  23  14  24  14  25  13  26  13  27  13  28  13  29  13
M  ISO  8  30  13  31  13  32  13  33  13  34  13  35   8  36   8  37   8
M  ISO  5  38   8  39   8  40  14  41  14  42  14
M  END
>  <minimizedAffinity>  (1) 
-6.78783226

>  <minimizedRMSD>  (1) 
2.29363203

$$$$
