
     RDKit          3D

 37 39  0  0  1  0  0  0  0  0999 V2000
   36.4750   30.3580   46.1860 Cl  0  0  0  0  0  0  0  0  0  0  0  0
   36.9780   31.1170   47.6720 C   0  0  0  0  0  0  0  0  0  0  0  0
   38.1630   31.7950   47.5810 C   0  0  0  0  0  0  0  0  0  0  0  0
   38.6090   32.4670   48.7130 C   0  0  0  0  0  0  0  0  0  0  0  0
   37.8300   32.4110   49.8590 C   0  0  0  0  0  0  0  0  0  0  0  0
   36.6440   31.7010   49.8580 C   0  0  0  0  0  0  0  0  0  0  0  0
   36.1730   31.0290   48.7730 C   0  0  0  0  0  0  0  0  0  0  0  0
   34.9380   30.1990   48.7800 C   0  0  1  0  0  0  0  0  0  0  0  0
   34.3540   30.1190   47.4570 C   0  0  0  0  0  0  0  0  0  0  0  0
   33.1480   29.1980   47.6850 C   0  0  0  0  0  0  0  0  0  0  0  0
   33.8010   27.8060   47.7510 C   0  0  0  0  0  0  0  0  0  0  0  0
   34.8010   27.6800   48.8150 C   0  0  0  0  0  0  0  0  0  0  0  0
   35.1670   28.9060   49.5400 C   0  0  1  0  0  0  0  0  0  0  0  0
   36.5310   28.8480   49.8450 O   0  0  0  0  0  0  0  0  0  0  0  0
   39.1610   32.7430   44.1930 C   0  0  0  0  0  0  0  0  0  0  0  0
   40.2950   31.9910   43.9300 C   0  0  0  0  0  0  0  0  0  0  0  0
   40.7230   31.1370   44.9630 C   0  0  0  0  0  0  0  0  0  0  0  0
   40.0170   31.1030   46.1320 N   0  0  0  0  0  0  0  0  0  0  0  0
   38.9270   31.8560   46.3240 C   0  0  0  0  0  0  0  0  0  0  0  0
   38.4970   32.6830   45.3470 N   0  0  0  0  0  0  0  0  0  0  0  0
   39.5549   33.0284   48.7002 H   0  0  0  0  0  0  0  0  0  0  0  0
   38.1566   32.9327   50.7707 H   0  0  0  0  0  0  0  0  0  0  0  0
   36.0497   31.6782   50.7834 H   0  0  0  0  0  0  0  0  0  0  0  0
   34.1374   30.6836   49.3582 H   0  0  0  0  0  0  0  0  0  0  0  0
   35.0596   29.6799   46.7363 H   0  0  0  0  0  0  0  0  0  0  0  0
   34.0856   31.0987   47.0348 H   0  0  0  0  0  0  0  0  0  0  0  0
   32.6342   29.4413   48.6267 H   0  0  0  0  0  0  0  0  0  0  0  0
   32.3763   29.2843   46.9058 H   0  0  0  0  0  0  0  0  0  0  0  0
   33.0122   27.0591   47.9241 H   0  0  0  0  0  0  0  0  0  0  0  0
   34.3228   27.6474   46.7957 H   0  0  0  0  0  0  0  0  0  0  0  0
   34.4113   26.9629   49.5525 H   0  0  0  0  0  0  0  0  0  0  0  0
   35.7228   27.3667   48.3030 H   0  0  0  0  0  0  0  0  0  0  0  0
   34.5121   28.9321   50.4234 H   0  0  0  0  0  0  0  0  0  0  0  0
   36.6494   28.8430   50.8279 H   0  0  0  0  0  0  0  0  0  0  0  0
   38.7909   33.4225   43.4112 H   0  0  0  0  0  0  0  0  0  0  0  0
   40.8288   32.0578   42.9705 H   0  0  0  0  0  0  0  0  0  0  0  0
   41.6139   30.5054   44.8311 H   0  0  0  0  0  0  0  0  0  0  0  0
  1  2  1  0
  2  7  2  0
  3  2  1  0
  3  4  2  0
  4  5  1  0
  6  5  2  0
  7  8  1  0
  7  6  1  0
  8 13  1  0
  9 10  1  0
  9  8  1  0
 10 11  1  0
 11 12  1  0
 12 13  1  0
 13 14  1  0
 15 20  2  0
 16 15  1  0
 16 17  2  0
 17 18  1  0
 18 19  2  0
 19  3  1  0
 20 19  1  0
  4 21  1  0
  5 22  1  0
  6 23  1  0
  8 24  1  1
  9 25  1  0
  9 26  1  0
 10 27  1  0
 10 28  1  0
 11 29  1  0
 11 30  1  0
 12 31  1  0
 12 32  1  0
 13 33  1  1
 14 34  1  0
 15 35  1  0
 16 36  1  0
 17 37  1  0
M  ISO  8  21  14  22  14  23  14  24  13  25  13  26  13  27  13  28  13
M  ISO  8  29  13  30  13  31  13  32  13  33  13  34   3  35  14  36  14
M  ISO  1  37  14
M  END
>  <minimizedAffinity>  (1) 
-6.58156013

>  <minimizedRMSD>  (1) 
1.26039541

$$$$
