
     RDKit          3D

 13 13  0  0  0  0  0  0  0  0999 V2000
   37.3330   30.2850   49.9790 C   0  0  0  0  0  0  0  0  0  0  0  0
   38.2920   31.3050   50.0510 C   0  0  0  0  0  0  0  0  0  0  0  0
   38.5190   32.0820   48.9070 C   0  0  0  0  0  0  0  0  0  0  0  0
   37.7860   31.7920   47.7870 N   0  0  0  0  0  0  0  0  0  0  0  0
   36.8720   30.8010   47.7610 C   0  0  0  0  0  0  0  0  0  0  0  0
   36.6510   30.0530   48.8530 N   0  0  0  0  0  0  0  0  0  0  0  0
   37.0920   29.4540   51.2030 C   0  0  0  0  0  0  0  0  0  0  0  0
   35.7400   29.1870   51.3300 F   0  0  0  0  0  0  0  0  0  0  0  0
   37.8690   28.3310   51.1110 F   0  0  0  0  0  0  0  0  0  0  0  0
   37.4580   30.2240   52.3030 F   0  0  0  0  0  0  0  0  0  0  0  0
   38.8510   31.4904   50.9800 H   0  0  0  0  0  0  0  0  0  0  0  0
   39.2593   32.8956   48.9085 H   0  0  0  0  0  0  0  0  0  0  0  0
   36.3043   30.6046   46.8395 H   0  0  0  0  0  0  0  0  0  0  0  0
  1  2  2  0
  1  7  1  0
  3  2  1  0
  4  3  2  0
  5  4  1  0
  5  6  2  0
  6  1  1  0
  7  8  1  0
  7 10  1  0
  9  7  1  0
  2 11  1  0
  3 12  1  0
  5 13  1  0
M  ISO  3  11  14  12  14  13  14
M  END
>  <minimizedAffinity>  (1) 
-4.34255838

>  <minimizedRMSD>  (1) 
2.26651478

$$$$
