
     RDKit          3D

 34 37  0  0  0  0  0  0  0  0999 V2000
   38.0160   30.8530   46.2370 C   0  0  0  0  0  0  0  0  0  0  0  0
   36.8070   30.5440   45.6410 C   0  0  0  0  0  0  0  0  0  0  0  0
   36.8270   30.2280   44.2980 C   0  0  0  0  0  0  0  0  0  0  0  0
   37.9410   30.1890   43.4870 C   0  0  0  0  0  0  0  0  0  0  0  0
   39.1030   30.5040   44.1450 C   0  0  0  0  0  0  0  0  0  0  0  0
   39.1580   30.8260   45.4650 C   0  0  0  0  0  0  0  0  0  0  0  0
   40.6440   30.5030   43.2490 S   0  0  0  0  0  0  0  0  0  0  0  0
   40.2340   30.0500   41.5770 C   0  0  0  0  0  0  0  0  0  0  0  0
   41.1870   29.9550   40.6280 C   0  0  0  0  0  0  0  0  0  0  0  0
   40.9650   29.6120   39.3110 C   0  0  0  0  0  0  0  0  0  0  0  0
   39.6450   29.3530   38.9880 C   0  0  0  0  0  0  0  0  0  0  0  0
   38.6670   29.4500   39.9590 C   0  0  0  0  0  0  0  0  0  0  0  0
   38.9220   29.7950   41.2640 C   0  0  0  0  0  0  0  0  0  0  0  0
   37.8220   29.8490   42.1240 N   0  0  0  0  0  0  0  0  0  0  0  0
   37.6420   30.6080   49.8640 C   0  0  0  0  0  0  0  0  0  0  0  0
   38.1230   31.8480   50.3140 C   0  0  0  0  0  0  0  0  0  0  0  0
   38.5790   32.7740   49.3610 C   0  0  0  0  0  0  0  0  0  0  0  0
   38.5190   32.3950   48.0540 N   0  0  0  0  0  0  0  0  0  0  0  0
   38.0510   31.1940   47.6550 C   0  0  0  0  0  0  0  0  0  0  0  0
   37.6170   30.3110   48.5670 N   0  0  0  0  0  0  0  0  0  0  0  0
   37.1580   29.6260   50.8950 C   0  0  0  0  0  0  0  0  0  0  0  0
   35.7730   29.5010   50.7980 F   0  0  0  0  0  0  0  0  0  0  0  0
   37.8380   28.4620   50.7140 F   0  0  0  0  0  0  0  0  0  0  0  0
   37.4190   30.1800   52.1500 F   0  0  0  0  0  0  0  0  0  0  0  0
   35.8680   30.5499   46.2140 H   0  0  0  0  0  0  0  0  0  0  0  0
   35.8620   29.9839   43.8299 H   0  0  0  0  0  0  0  0  0  0  0  0
   40.1280   31.0685   45.9236 H   0  0  0  0  0  0  0  0  0  0  0  0
   42.2236   30.1680   40.9281 H   0  0  0  0  0  0  0  0  0  0  0  0
   41.7773   29.5490   38.5720 H   0  0  0  0  0  0  0  0  0  0  0  0
   39.3746   29.0703   37.9599 H   0  0  0  0  0  0  0  0  0  0  0  0
   37.6264   29.2393   39.6712 H   0  0  0  0  0  0  0  0  0  0  0  0
   36.8881   29.6320   41.7476 H   0  0  0  0  0  0  0  0  0  0  0  0
   38.1423   32.0887   51.3872 H   0  0  0  0  0  0  0  0  0  0  0  0
   38.9668   33.7600   49.6567 H   0  0  0  0  0  0  0  0  0  0  0  0
  1 19  1  0
  2  1  2  0
  3  2  1  0
  4  5  1  0
  4  3  2  0
  5  6  2  0
  6  1  1  0
  7  5  1  0
  8  7  1  0
  9  8  2  0
 10  9  1  0
 11 10  2  0
 11 12  1  0
 12 13  2  0
 13  8  1  0
 13 14  1  0
 14  4  1  0
 15 16  2  0
 15 21  1  0
 17 16  1  0
 18 17  2  0
 19 18  1  0
 19 20  2  0
 20 15  1  0
 21 24  1  0
 22 21  1  0
 23 21  1  0
  2 25  1  0
  3 26  1  0
  6 27  1  0
  9 28  1  0
 10 29  1  0
 11 30  1  0
 12 31  1  0
 14 32  1  0
 16 33  1  0
 17 34  1  0
M  ISO  8  25  14  26  14  27  14  28  14  29  14  30  14  31  14  33  14
M  ISO  1  34  14
M  END
>  <minimizedAffinity>  (1) 
-6.38457251

>  <minimizedRMSD>  (1) 
3.4846828

$$$$
