
     RDKit          3D

 20 21  0  0  0  0  0  0  0  0999 V2000
   37.3620   30.2650   50.0380 C   0  0  0  0  0  0  0  0  0  0  0  0
   38.2740   31.3140   50.1110 C   0  0  0  0  0  0  0  0  0  0  0  0
   38.5000   32.0930   48.9610 C   0  0  0  0  0  0  0  0  0  0  0  0
   37.8010   31.7620   47.8420 N   0  0  0  0  0  0  0  0  0  0  0  0
   36.9220   30.7360   47.8040 C   0  0  0  0  0  0  0  0  0  0  0  0
   36.7020   29.9880   48.8990 N   0  0  0  0  0  0  0  0  0  0  0  0
   36.2000   30.4220   46.5840 C   0  0  0  0  0  0  0  0  0  0  0  0
   34.8510   29.9000   46.5130 C   0  0  0  0  0  0  0  0  0  0  0  0
   34.3910   29.6860   45.2370 C   0  0  0  0  0  0  0  0  0  0  0  0
   35.1700   29.9550   44.1770 C   0  0  0  0  0  0  0  0  0  0  0  0
   36.7130   30.5700   44.8690 S   0  0  0  0  0  0  0  0  0  0  0  0
   37.1340   29.4430   51.2750 C   0  0  0  0  0  0  0  0  0  0  0  0
   35.7810   29.1890   51.4170 F   0  0  0  0  0  0  0  0  0  0  0  0
   37.8990   28.3050   51.1550 F   0  0  0  0  0  0  0  0  0  0  0  0
   37.5320   30.2110   52.3610 F   0  0  0  0  0  0  0  0  0  0  0  0
   38.8073   31.5297   51.0486 H   0  0  0  0  0  0  0  0  0  0  0  0
   39.2106   32.9326   48.9667 H   0  0  0  0  0  0  0  0  0  0  0  0
   34.2450   29.6922   47.4072 H   0  0  0  0  0  0  0  0  0  0  0  0
   33.3761   29.2910   45.0820 H   0  0  0  0  0  0  0  0  0  0  0  0
   34.9189   29.8269   43.1137 H   0  0  0  0  0  0  0  0  0  0  0  0
  1  2  2  0
  1 12  1  0
  3  2  1  0
  4  3  2  0
  5  4  1  0
  5  6  2  0
  6  1  1  0
  7  5  1  0
  8  7  2  0
  9  8  1  0
 10 11  1  0
 10  9  2  0
 11  7  1  0
 12 13  1  0
 12 15  1  0
 14 12  1  0
  2 16  1  0
  3 17  1  0
  8 18  1  0
  9 19  1  0
 10 20  1  0
M  ISO  5  16  14  17  14  18  14  19  14  20  14
M  END
>  <minimizedAffinity>  (1) 
-5.07701588

>  <minimizedRMSD>  (1) 
0.208030343

$$$$
