
     RDKit          3D

 14 14  0  0  0  0  0  0  0  0999 V2000
   37.2890   30.3230   50.0110 C   0  0  0  0  0  0  0  0  0  0  0  0
   38.3120   31.2780   50.0510 C   0  0  0  0  0  0  0  0  0  0  0  0
   38.5260   32.0620   48.9090 C   0  0  0  0  0  0  0  0  0  0  0  0
   37.7180   31.8390   47.8380 N   0  0  0  0  0  0  0  0  0  0  0  0
   36.7350   30.9060   47.8300 C   0  0  0  0  0  0  0  0  0  0  0  0
   36.5340   30.1570   48.9250 N   0  0  0  0  0  0  0  0  0  0  0  0
   37.0550   29.4800   51.2300 C   0  0  0  0  0  0  0  0  0  0  0  0
   35.7220   29.1890   51.3740 F   0  0  0  0  0  0  0  0  0  0  0  0
   37.8440   28.3560   51.1060 F   0  0  0  0  0  0  0  0  0  0  0  0
   37.4400   30.2170   52.3330 F   0  0  0  0  0  0  0  0  0  0  0  0
   35.9320   30.7100   46.7130 O   0  0  0  0  0  0  0  0  0  0  0  0
   38.9294   31.4092   50.9519 H   0  0  0  0  0  0  0  0  0  0  0  0
   39.3159   32.8270   48.8802 H   0  0  0  0  0  0  0  0  0  0  0  0
   35.2198   30.0225   46.7298 H   0  0  0  0  0  0  0  0  0  0  0  0
  1  2  2  0
  1  7  1  0
  3  2  1  0
  4  3  2  0
  5  4  1  0
  5  6  2  0
  6  1  1  0
  7  8  1  0
  7 10  1  0
  9  7  1  0
 11  5  1  0
  2 12  1  0
  3 13  1  0
 11 14  1  0
M  ISO  3  12  14  13  14  14   3
M  END
>  <minimizedAffinity>  (1) 
-4.78954744

>  <minimizedRMSD>  (1) 
0.124717586

$$$$
