
     RDKit          3D

 16 16  0  0  0  0  0  0  0  0999 V2000
   37.3350   30.2600   50.0000 C   0  0  0  0  0  0  0  0  0  0  0  0
   38.2890   31.2930   50.0450 C   0  0  0  0  0  0  0  0  0  0  0  0
   38.4930   32.0400   48.8830 C   0  0  0  0  0  0  0  0  0  0  0  0
   37.7640   31.7300   47.7760 N   0  0  0  0  0  0  0  0  0  0  0  0
   36.8550   30.7300   47.7740 C   0  0  0  0  0  0  0  0  0  0  0  0
   36.6600   30.0170   48.8820 N   0  0  0  0  0  0  0  0  0  0  0  0
   37.0990   29.4430   51.2450 C   0  0  0  0  0  0  0  0  0  0  0  0
   35.7540   29.1820   51.3820 F   0  0  0  0  0  0  0  0  0  0  0  0
   37.8740   28.3260   51.1530 F   0  0  0  0  0  0  0  0  0  0  0  0
   37.4920   30.2370   52.3180 F   0  0  0  0  0  0  0  0  0  0  0  0
   36.0450   30.3690   46.5810 C   0  0  0  0  0  0  0  0  0  0  0  0
   38.8549   31.5050   50.9641 H   0  0  0  0  0  0  0  0  0  0  0  0
   39.2259   32.8600   48.8626 H   0  0  0  0  0  0  0  0  0  0  0  0
   35.0850   29.9411   46.9054 H   0  0  0  0  0  0  0  0  0  0  0  0
   35.8597   31.2697   45.9774 H   0  0  0  0  0  0  0  0  0  0  0  0
   36.5909   29.6290   45.9774 H   0  0  0  0  0  0  0  0  0  0  0  0
  1  2  2  0
  1  7  1  0
  3  2  1  0
  4  3  2  0
  5  4  1  0
  5  6  2  0
  6  1  1  0
  7  8  1  0
  7 10  1  0
  9  7  1  0
 11  5  1  0
  2 12  1  0
  3 13  1  0
 11 14  1  0
 11 15  1  0
 11 16  1  0
M  ISO  5  12  14  13  14  14   8  15   8  16   8
M  END
>  <minimizedAffinity>  (1) 
-4.6129446

>  <minimizedRMSD>  (1) 
0.0551696531

$$$$
