
     RDKit          3D

 15 15  0  0  0  0  0  0  0  0999 V2000
   37.4000   30.2930   49.9850 C   0  0  0  0  0  0  0  0  0  0  0  0
   38.3020   31.3670   50.1240 C   0  0  0  0  0  0  0  0  0  0  0  0
   38.5520   32.1550   48.9880 C   0  0  0  0  0  0  0  0  0  0  0  0
   37.9030   31.8300   47.8130 N   0  0  0  0  0  0  0  0  0  0  0  0
   37.0580   30.7940   47.7490 C   0  0  0  0  0  0  0  0  0  0  0  0
   36.8060   30.0330   48.8160 N   0  0  0  0  0  0  0  0  0  0  0  0
   37.1340   29.4560   51.1890 C   0  0  0  0  0  0  0  0  0  0  0  0
   35.7800   29.1920   51.2820 F   0  0  0  0  0  0  0  0  0  0  0  0
   37.8910   28.3190   51.1000 F   0  0  0  0  0  0  0  0  0  0  0  0
   37.4810   30.1940   52.3050 F   0  0  0  0  0  0  0  0  0  0  0  0
   36.3940   30.4840   46.4970 C   0  0  0  0  0  0  0  0  0  0  0  0
   35.2220   30.0430   46.4160 O   0  0  0  0  0  0  0  0  0  0  0  0
   38.7918   31.5802   51.0856 H   0  0  0  0  0  0  0  0  0  0  0  0
   39.2457   33.0075   49.0332 H   0  0  0  0  0  0  0  0  0  0  0  0
   36.9514   30.6452   45.5625 H   0  0  0  0  0  0  0  0  0  0  0  0
  1  2  2  0
  1  7  1  0
  3  2  1  0
  4  3  2  0
  5  4  1  0
  5  6  2  0
  6  1  1  0
  7  8  1  0
  7 10  1  0
  9  7  1  0
 11  5  1  0
 12 11  2  0
  2 13  1  0
  3 14  1  0
 11 15  1  0
M  ISO  3  13  14  14  14  15   6
M  END
>  <minimizedAffinity>  (1) 
-4.50920153

>  <minimizedRMSD>  (1) 
0.374032915

$$$$
