
     RDKit          3D

 32 33  0  0  1  0  0  0  0  0999 V2000
   36.7730   31.2160   49.0630 C   0  0  0  0  0  0  0  0  0  0  0  0
   37.1890   32.2520   49.9020 C   0  0  0  0  0  0  0  0  0  0  0  0
   38.1630   33.1400   49.4250 C   0  0  0  0  0  0  0  0  0  0  0  0
   38.6400   32.9290   48.1620 N   0  0  0  0  0  0  0  0  0  0  0  0
   38.2180   31.9210   47.3810 C   0  0  0  0  0  0  0  0  0  0  0  0
   37.2790   31.0640   47.8390 N   0  0  0  0  0  0  0  0  0  0  0  0
   38.7850   31.7980   46.0830 N   0  0  0  0  0  0  0  0  0  0  0  0
   39.9680   30.9880   45.9040 C   0  0  0  0  0  0  0  0  0  0  0  0
   40.8910   31.8440   45.0310 C   0  0  0  0  0  0  0  0  0  0  0  0
   40.2360   31.8490   43.6700 C   0  0  0  0  0  0  0  0  0  0  0  0
   38.9630   32.6080   43.7560 C   0  0  0  0  0  0  0  0  0  0  0  0
   38.1720   32.4730   45.0070 C   0  0  1  0  0  0  0  0  0  0  0  0
   36.8000   30.5180   44.2050 C   0  0  0  0  0  0  0  0  0  0  0  0
   37.8330   29.8180   43.9250 O   0  0  0  0  0  0  0  0  0  0  0  0
   36.8660   31.8470   44.7450 N   0  0  0  0  0  0  0  0  0  0  0  0
   35.7350   30.2550   49.5520 C   0  0  0  0  0  0  0  0  0  0  0  0
   34.4910   30.8910   49.6100 F   0  0  0  0  0  0  0  0  0  0  0  0
   35.7590   29.1510   48.7800 F   0  0  0  0  0  0  0  0  0  0  0  0
   36.0700   29.9450   50.8810 F   0  0  0  0  0  0  0  0  0  0  0  0
   36.7638   32.3680   50.9099 H   0  0  0  0  0  0  0  0  0  0  0  0
   38.5288   33.9734   50.0427 H   0  0  0  0  0  0  0  0  0  0  0  0
   40.4408   30.7709   46.8732 H   0  0  0  0  0  0  0  0  0  0  0  0
   39.7425   30.0143   45.4445 H   0  0  0  0  0  0  0  0  0  0  0  0
   40.9640   32.8665   45.4301 H   0  0  0  0  0  0  0  0  0  0  0  0
   41.9168   31.4484   44.9976 H   0  0  0  0  0  0  0  0  0  0  0  0
   40.0299   30.8155   43.3548 H   0  0  0  0  0  0  0  0  0  0  0  0
   40.9043   32.3210   42.9347 H   0  0  0  0  0  0  0  0  0  0  0  0
   39.2047   33.6738   43.6313 H   0  0  0  0  0  0  0  0  0  0  0  0
   38.3243   32.1781   42.9703 H   0  0  0  0  0  0  0  0  0  0  0  0
   38.0699   33.5174   45.3369 H   0  0  0  0  0  0  0  0  0  0  0  0
   35.8082   30.0787   44.0225 H   0  0  0  0  0  0  0  0  0  0  0  0
   35.9982   32.3628   44.9492 H   0  0  0  0  0  0  0  0  0  0  0  0
  1 16  1  0
  1  2  2  0
  3  2  1  0
  4  3  2  0
  5  6  2  0
  5  4  1  0
  6  1  1  0
  7  5  1  0
  8  7  1  0
  9  8  1  0
 10 11  1  0
 10  9  1  0
 11 12  1  0
 12  7  1  0
 13 15  1  0
 14 13  2  0
 15 12  1  0
 16 17  1  0
 16 19  1  0
 18 16  1  0
  2 20  1  0
  3 21  1  0
  8 22  1  0
  8 23  1  0
  9 24  1  0
  9 25  1  0
 10 26  1  0
 10 27  1  0
 11 28  1  0
 11 29  1  0
 12 30  1  1
 13 31  1  0
 15 32  1  0
M  ISO  8  20  14  21  14  22  13  23  13  24  13  25  13  26  13  27  13
M  ISO  4  28  13  29  13  30  13  31   6
M  END
>  <minimizedAffinity>  (1) 
-6.47946262

>  <minimizedRMSD>  (1) 
0.17220372

$$$$
