
     RDKit          3D

 36 38  0  0  1  0  0  0  0  0999 V2000
   36.9970   30.5820   49.0900 C   0  0  0  0  0  0  0  0  0  0  0  0
   37.0780   31.7020   49.9220 C   0  0  0  0  0  0  0  0  0  0  0  0
   37.7630   32.8300   49.4340 C   0  0  0  0  0  0  0  0  0  0  0  0
   38.2980   32.7590   48.1890 N   0  0  0  0  0  0  0  0  0  0  0  0
   38.1990   31.6630   47.4180 C   0  0  0  0  0  0  0  0  0  0  0  0
   37.5510   30.5790   47.8670 N   0  0  0  0  0  0  0  0  0  0  0  0
   38.7940   31.6790   46.1230 N   0  0  0  0  0  0  0  0  0  0  0  0
   40.1740   31.2490   45.9720 C   0  0  0  0  0  0  0  0  0  0  0  0
   40.8290   32.2950   45.0920 C   0  0  0  0  0  0  0  0  0  0  0  0
   40.2010   32.1590   43.7330 C   0  0  0  0  0  0  0  0  0  0  0  0
   38.7710   32.5900   43.8270 C   0  0  0  0  0  0  0  0  0  0  0  0
   38.0350   32.1040   45.0150 C   0  0  1  0  0  0  0  0  0  0  0  0
   37.1950   30.9370   44.6020 C   0  0  0  0  0  0  0  0  0  0  0  0
   35.8980   30.7410   44.9950 C   0  0  0  0  0  0  0  0  0  0  0  0
   35.1800   29.6240   44.5660 C   0  0  0  0  0  0  0  0  0  0  0  0
   35.7370   28.7040   43.7520 N   0  0  0  0  0  0  0  0  0  0  0  0
   37.0250   28.9100   43.3690 C   0  0  0  0  0  0  0  0  0  0  0  0
   37.7190   29.9860   43.7830 N   0  0  0  0  0  0  0  0  0  0  0  0
   36.2720   29.3640   49.5850 C   0  0  0  0  0  0  0  0  0  0  0  0
   35.3380   29.7550   50.5590 F   0  0  0  0  0  0  0  0  0  0  0  0
   35.7280   28.7140   48.5400 F   0  0  0  0  0  0  0  0  0  0  0  0
   37.2090   28.5800   50.2570 F   0  0  0  0  0  0  0  0  0  0  0  0
   36.6223   31.7017   50.9232 H   0  0  0  0  0  0  0  0  0  0  0  0
   37.8617   33.7409   50.0427 H   0  0  0  0  0  0  0  0  0  0  0  0
   40.6722   31.2039   46.9517 H   0  0  0  0  0  0  0  0  0  0  0  0
   40.2427   30.2434   45.5315 H   0  0  0  0  0  0  0  0  0  0  0  0
   40.6462   33.3014   45.4967 H   0  0  0  0  0  0  0  0  0  0  0  0
   41.9185   32.1509   45.0444 H   0  0  0  0  0  0  0  0  0  0  0  0
   40.2520   31.1107   43.4036 H   0  0  0  0  0  0  0  0  0  0  0  0
   40.7371   32.7856   43.0050 H   0  0  0  0  0  0  0  0  0  0  0  0
   38.7489   33.6897   43.8414 H   0  0  0  0  0  0  0  0  0  0  0  0
   38.2647   32.1471   42.9566 H   0  0  0  0  0  0  0  0  0  0  0  0
   37.4778   32.9882   45.3582 H   0  0  0  0  0  0  0  0  0  0  0  0
   35.4154   31.4742   45.6580 H   0  0  0  0  0  0  0  0  0  0  0  0
   34.1398   29.4912   44.8981 H   0  0  0  0  0  0  0  0  0  0  0  0
   37.5113   28.1800   42.7051 H   0  0  0  0  0  0  0  0  0  0  0  0
  1 19  1  0
  1  2  2  0
  3  2  1  0
  4  3  2  0
  5  6  2  0
  5  4  1  0
  6  1  1  0
  7  5  1  0
  8  7  1  0
  9  8  1  0
 10 11  1  0
 10  9  1  0
 11 12  1  0
 12  7  1  0
 13 14  2  0
 13 12  1  0
 15 14  1  0
 16 15  2  0
 17 16  1  0
 17 18  2  0
 18 13  1  0
 19 22  1  0
 19 20  1  0
 21 19  1  0
  2 23  1  0
  3 24  1  0
  8 25  1  0
  8 26  1  0
  9 27  1  0
  9 28  1  0
 10 29  1  0
 10 30  1  0
 11 31  1  0
 11 32  1  0
 12 33  1  1
 14 34  1  0
 15 35  1  0
 17 36  1  0
M  ISO  8  23  14  24  14  25  13  26  13  27  13  28  13  29  13  30  13
M  ISO  6  31  13  32  13  33  13  34  14  35  14  36  14
M  END
>  <minimizedAffinity>  (1) 
-6.3737216

>  <minimizedRMSD>  (1) 
1.03584933

$$$$
