
     RDKit          3D

 38 40  0  0  1  0  0  0  0  0999 V2000
   36.7340   31.1530   48.9150 C   0  0  0  0  0  0  0  0  0  0  0  0
   37.0570   32.2630   49.7160 C   0  0  0  0  0  0  0  0  0  0  0  0
   38.0090   33.1690   49.2160 C   0  0  0  0  0  0  0  0  0  0  0  0
   38.5460   32.9050   47.9950 N   0  0  0  0  0  0  0  0  0  0  0  0
   38.2060   31.8210   47.2540 C   0  0  0  0  0  0  0  0  0  0  0  0
   37.3030   30.9590   47.7240 N   0  0  0  0  0  0  0  0  0  0  0  0
   38.8430   31.6570   45.9890 N   0  0  0  0  0  0  0  0  0  0  0  0
   40.0730   30.9250   45.9180 C   0  0  0  0  0  0  0  0  0  0  0  0
   40.9760   31.7660   45.0050 C   0  0  0  0  0  0  0  0  0  0  0  0
   40.3580   31.6320   43.6280 C   0  0  0  0  0  0  0  0  0  0  0  0
   39.0670   32.3770   43.6280 C   0  0  0  0  0  0  0  0  0  0  0  0
   38.2280   32.2280   44.8430 C   0  0  1  0  0  0  0  0  0  0  0  0
   36.2210   33.2410   43.1020 F   0  0  0  0  0  0  0  0  0  0  0  0
   36.0020   32.0400   43.6950 C   0  0  0  0  0  0  0  0  0  0  0  0
   36.9540   31.5260   44.5400 C   0  0  0  0  0  0  0  0  0  0  0  0
   36.7030   30.3020   45.1270 C   0  0  0  0  0  0  0  0  0  0  0  0
   35.5340   29.6190   44.8720 C   0  0  0  0  0  0  0  0  0  0  0  0
   34.5590   30.1110   44.0260 C   0  0  0  0  0  0  0  0  0  0  0  0
   34.8180   31.3410   43.4400 C   0  0  0  0  0  0  0  0  0  0  0  0
   35.7210   30.1830   49.4380 C   0  0  0  0  0  0  0  0  0  0  0  0
   34.4570   30.7780   49.4290 F   0  0  0  0  0  0  0  0  0  0  0  0
   35.7990   29.0370   48.6990 F   0  0  0  0  0  0  0  0  0  0  0  0
   36.0190   29.9500   50.7720 F   0  0  0  0  0  0  0  0  0  0  0  0
   36.5828   32.4166   50.6966 H   0  0  0  0  0  0  0  0  0  0  0  0
   38.3081   34.0578   49.7909 H   0  0  0  0  0  0  0  0  0  0  0  0
   40.5208   30.8214   46.9174 H   0  0  0  0  0  0  0  0  0  0  0  0
   39.9280   29.9046   45.5337 H   0  0  0  0  0  0  0  0  0  0  0  0
   40.9823   32.8178   45.3272 H   0  0  0  0  0  0  0  0  0  0  0  0
   42.0226   31.4280   45.0273 H   0  0  0  0  0  0  0  0  0  0  0  0
   40.1766   30.5709   43.4019 H   0  0  0  0  0  0  0  0  0  0  0  0
   41.0352   32.0411   42.8638 H   0  0  0  0  0  0  0  0  0  0  0  0
   39.2957   33.4461   43.5064 H   0  0  0  0  0  0  0  0  0  0  0  0
   38.4766   31.9457   42.8062 H   0  0  0  0  0  0  0  0  0  0  0  0
   38.0380   33.2717   45.1340 H   0  0  0  0  0  0  0  0  0  0  0  0
   37.4477   29.8654   45.8087 H   0  0  0  0  0  0  0  0  0  0  0  0
   35.3711   28.6466   45.3598 H   0  0  0  0  0  0  0  0  0  0  0  0
   33.6290   29.5579   43.8282 H   0  0  0  0  0  0  0  0  0  0  0  0
   34.0737   31.7775   42.7578 H   0  0  0  0  0  0  0  0  0  0  0  0
  1 20  1  0
  1  2  2  0
  3  2  1  0
  4  3  2  0
  5  6  2  0
  5  4  1  0
  6  1  1  0
  7  5  1  0
  8  7  1  0
  9  8  1  0
 10 11  1  0
 10  9  1  0
 11 12  1  0
 12  7  1  0
 13 14  1  0
 14 15  2  0
 15 12  1  0
 15 16  1  0
 17 16  2  0
 18 17  1  0
 19 14  1  0
 19 18  2  0
 20 23  1  0
 21 20  1  0
 22 20  1  0
  2 24  1  0
  3 25  1  0
  8 26  1  0
  8 27  1  0
  9 28  1  0
  9 29  1  0
 10 30  1  0
 10 31  1  0
 11 32  1  0
 11 33  1  0
 12 34  1  1
 16 35  1  0
 17 36  1  0
 18 37  1  0
 19 38  1  0
M  ISO  8  24  14  25  14  26  13  27  13  28  13  29  13  30  13  31  13
M  ISO  7  32  13  33  13  34  13  35  14  36  14  37  14  38  14
M  END
>  <minimizedAffinity>  (1) 
-6.25502491

>  <minimizedRMSD>  (1) 
0.348353177

$$$$
