
     RDKit          3D

 34 35  0  0  1  0  0  0  0  0999 V2000
   37.0130   30.6240   49.1470 C   0  0  0  0  0  0  0  0  0  0  0  0
   37.1530   31.7440   49.9990 C   0  0  0  0  0  0  0  0  0  0  0  0
   37.8540   32.8530   49.5260 C   0  0  0  0  0  0  0  0  0  0  0  0
   38.3640   32.7770   48.2560 N   0  0  0  0  0  0  0  0  0  0  0  0
   38.2140   31.6930   47.4660 C   0  0  0  0  0  0  0  0  0  0  0  0
   37.5390   30.6390   47.9330 N   0  0  0  0  0  0  0  0  0  0  0  0
   38.7830   31.7200   46.1630 N   0  0  0  0  0  0  0  0  0  0  0  0
   40.1290   31.2660   45.9640 C   0  0  0  0  0  0  0  0  0  0  0  0
   40.7980   32.3530   45.1060 C   0  0  0  0  0  0  0  0  0  0  0  0
   40.1410   32.1980   43.7490 C   0  0  0  0  0  0  0  0  0  0  0  0
   38.7220   32.6460   43.8690 C   0  0  0  0  0  0  0  0  0  0  0  0
   38.0070   32.1990   45.0800 C   0  0  1  0  0  0  0  0  0  0  0  0
   36.2610   29.4360   49.6570 C   0  0  0  0  0  0  0  0  0  0  0  0
   35.3340   29.8570   50.6190 F   0  0  0  0  0  0  0  0  0  0  0  0
   35.7100   28.7960   48.5930 F   0  0  0  0  0  0  0  0  0  0  0  0
   37.1730   28.6280   50.3340 F   0  0  0  0  0  0  0  0  0  0  0  0
   37.0450   31.0770   44.6720 C   0  0  0  0  0  0  0  0  0  0  0  0
   36.3020   31.4410   43.4070 C   0  0  0  0  0  0  0  0  0  0  0  0
   36.7196   31.7406   51.0100 H   0  0  0  0  0  0  0  0  0  0  0  0
   37.9918   33.7510   50.1461 H   0  0  0  0  0  0  0  0  0  0  0  0
   40.6477   31.1621   46.9284 H   0  0  0  0  0  0  0  0  0  0  0  0
   40.1628   30.2797   45.4781 H   0  0  0  0  0  0  0  0  0  0  0  0
   40.6069   33.3533   45.5219 H   0  0  0  0  0  0  0  0  0  0  0  0
   41.8921   32.2477   45.0633 H   0  0  0  0  0  0  0  0  0  0  0  0
   40.1744   31.1439   43.4364 H   0  0  0  0  0  0  0  0  0  0  0  0
   40.6700   32.8023   42.9973 H   0  0  0  0  0  0  0  0  0  0  0  0
   38.7135   33.7459   43.8589 H   0  0  0  0  0  0  0  0  0  0  0  0
   38.1913   32.1863   43.0223 H   0  0  0  0  0  0  0  0  0  0  0  0
   37.5253   33.1110   45.4625 H   0  0  0  0  0  0  0  0  0  0  0  0
   37.6189   30.1544   44.5004 H   0  0  0  0  0  0  0  0  0  0  0  0
   36.3137   30.9281   45.4801 H   0  0  0  0  0  0  0  0  0  0  0  0
   35.3423   31.9111   43.6678 H   0  0  0  0  0  0  0  0  0  0  0  0
   36.9066   32.1449   42.8163 H   0  0  0  0  0  0  0  0  0  0  0  0
   36.1163   30.5318   42.8163 H   0  0  0  0  0  0  0  0  0  0  0  0
  1 13  1  0
  1  2  2  0
  3  2  1  0
  4  3  2  0
  5  6  2  0
  5  4  1  0
  6  1  1  0
  7  5  1  0
  8  7  1  0
  9  8  1  0
 10 11  1  0
 10  9  1  0
 11 12  1  0
 12  7  1  0
 13 16  1  0
 13 14  1  0
 15 13  1  0
 17 12  1  0
 18 17  1  0
  2 19  1  0
  3 20  1  0
  8 21  1  0
  8 22  1  0
  9 23  1  0
  9 24  1  0
 10 25  1  0
 10 26  1  0
 11 27  1  0
 11 28  1  0
 12 29  1  1
 17 30  1  0
 17 31  1  0
 18 32  1  0
 18 33  1  0
 18 34  1  0
M  ISO  8  19  14  20  14  21  13  22  13  23  13  24  13  25  13  26  13
M  ISO  8  27  13  28  13  29  13  30   8  31   8  32   8  33   8  34   8
M  END
>  <minimizedAffinity>  (1) 
-6.11391115

>  <minimizedRMSD>  (1) 
0.871937871

$$$$
