
     RDKit          3D

 27 28  0  0  0  0  0  0  0  0999 V2000
   30.4620   27.7990   49.3930 C   0  0  0  0  0  0  0  0  0  0  0  0
   28.3830   29.4750   47.9600 Cl  0  0  0  0  0  0  0  0  0  0  0  0
   28.0840   28.5410   49.4010 C   0  0  0  0  0  0  0  0  0  0  0  0
   29.0990   27.8050   49.9830 C   0  0  0  0  0  0  0  0  0  0  0  0
   28.8060   27.0780   51.1280 C   0  0  0  0  0  0  0  0  0  0  0  0
   27.5640   27.0440   51.7240 C   0  0  0  0  0  0  0  0  0  0  0  0
   26.5920   27.7880   51.1100 C   0  0  0  0  0  0  0  0  0  0  0  0
   26.8110   28.5410   49.9600 C   0  0  0  0  0  0  0  0  0  0  0  0
   25.5100   29.4670   49.2390 Cl  0  0  0  0  0  0  0  0  0  0  0  0
   30.7960   26.4410   47.3500 C   0  0  0  0  0  0  0  0  0  0  0  0
   30.7860   26.5750   48.6490 C   0  0  0  0  0  0  0  0  0  0  0  0
   30.8610   23.4570   45.2390 C   0  0  0  0  0  0  0  0  0  0  0  0
   31.8740   22.6910   45.8450 C   0  0  0  0  0  0  0  0  0  0  0  0
   32.5270   23.2220   46.9860 C   0  0  0  0  0  0  0  0  0  0  0  0
   32.1120   24.4560   47.4120 N   0  0  0  0  0  0  0  0  0  0  0  0
   31.1440   25.1440   46.8010 C   0  0  0  0  0  0  0  0  0  0  0  0
   30.5230   24.6460   45.7190 N   0  0  0  0  0  0  0  0  0  0  0  0
   30.5450   28.6537   48.7056 H   0  0  0  0  0  0  0  0  0  0  0  0
   31.1717   27.8588   50.2313 H   0  0  0  0  0  0  0  0  0  0  0  0
   29.6154   26.4925   51.5885 H   0  0  0  0  0  0  0  0  0  0  0  0
   27.3663   26.4576   52.6334 H   0  0  0  0  0  0  0  0  0  0  0  0
   25.5836   27.7907   51.5494 H   0  0  0  0  0  0  0  0  0  0  0  0
   30.5479   27.2865   46.6916 H   0  0  0  0  0  0  0  0  0  0  0  0
   31.0451   25.6860   49.2427 H   0  0  0  0  0  0  0  0  0  0  0  0
   30.3413   23.0632   44.3531 H   0  0  0  0  0  0  0  0  0  0  0  0
   32.1522   21.7053   45.4437 H   0  0  0  0  0  0  0  0  0  0  0  0
   33.3264   22.6709   47.5030 H   0  0  0  0  0  0  0  0  0  0  0  0
  1  4  1  0
  2  3  1  0
  3  8  2  0
  3  4  1  0
  4  5  2  0
  5  6  1  0
  7  6  2  0
  8  7  1  0
  9  8  1  0
 10 11  2  0
 11  1  1  0
 12 17  2  0
 12 13  1  0
 13 14  2  0
 14 15  1  0
 16 10  1  0
 16 15  2  0
 17 16  1  0
  1 18  1  0
  1 19  1  0
  5 20  1  0
  6 21  1  0
  7 22  1  0
 10 23  1  0
 11 24  1  0
 12 25  1  0
 13 26  1  0
 14 27  1  0
M  ISO  8  18   8  19   8  20  14  21  14  22  14  25  14  26  14  27  14
M  END
>  <minimizedAffinity>  (1) 
-4.39858389

>  <minimizedRMSD>  (1) 
6.49888754

$$$$
