
     RDKit          3D

 21 21  0  0  0  0  0  0  0  0999 V2000
   34.8610   28.2780   49.6300 C   0  0  0  0  0  0  0  0  0  0  0  0
   33.9270   28.7210   48.8440 C   0  0  0  0  0  0  0  0  0  0  0  0
   37.3770   30.2770   51.4010 C   0  0  0  0  0  0  0  0  0  0  0  0
   38.1220   30.8040   50.3140 C   0  0  0  0  0  0  0  0  0  0  0  0
   37.7530   30.4670   49.0050 C   0  0  0  0  0  0  0  0  0  0  0  0
   36.6710   29.6330   48.8710 N   0  0  0  0  0  0  0  0  0  0  0  0
   35.9900   29.1540   49.9180 C   0  0  0  0  0  0  0  0  0  0  0  0
   36.3380   29.4720   51.1660 N   0  0  0  0  0  0  0  0  0  0  0  0
   32.7170   27.9660   48.4490 C   0  0  0  0  0  0  0  0  0  0  0  0
   30.3850   27.6160   49.2910 C   0  0  0  0  0  0  0  0  0  0  0  0
   30.1360   26.7080   48.4310 O   0  0  0  0  0  0  0  0  0  0  0  0
   31.6370   28.2790   49.3570 N   0  0  0  0  0  0  0  0  0  0  0  0
   34.8019   27.2699   50.0663 H   0  0  0  0  0  0  0  0  0  0  0  0
   34.0445   29.7374   48.4400 H   0  0  0  0  0  0  0  0  0  0  0  0
   37.6549   30.5311   52.4345 H   0  0  0  0  0  0  0  0  0  0  0  0
   38.9789   31.4691   50.4970 H   0  0  0  0  0  0  0  0  0  0  0  0
   38.3010   30.8502   48.1316 H   0  0  0  0  0  0  0  0  0  0  0  0
   32.4281   28.2457   47.4251 H   0  0  0  0  0  0  0  0  0  0  0  0
   32.9284   26.8872   48.4882 H   0  0  0  0  0  0  0  0  0  0  0  0
   29.5994   27.8955   50.0085 H   0  0  0  0  0  0  0  0  0  0  0  0
   31.7808   29.0051   50.0733 H   0  0  0  0  0  0  0  0  0  0  0  0
  1  7  1  0
  2  1  2  0
  4  3  2  0
  5  4  1  0
  6  5  2  0
  6  7  1  0
  7  8  2  0
  8  3  1  0
  9  2  1  0
  9 12  1  0
 10 12  1  0
 11 10  2  0
  1 13  1  0
  2 14  1  0
  3 15  1  0
  4 16  1  0
  5 17  1  0
  9 18  1  0
  9 19  1  0
 10 20  1  0
 12 21  1  0
M  ISO  6  15  14  16  14  17  14  18   8  19   8  20   6
M  END
>  <minimizedAffinity>  (1) 
-4.38538647

>  <minimizedRMSD>  (1) 
1.65305483

$$$$
