
     RDKit          3D

 23 24  0  0  1  0  0  0  0  0999 V2000
   34.5520   30.2440   48.9450 C   0  0  1  0  0  0  0  0  0  0  0  0
   33.9500   28.9980   49.4140 C   0  0  0  0  0  0  0  0  0  0  0  0
   35.2510   29.4310   50.0220 C   0  0  1  0  0  0  0  0  0  0  0  0
   35.3170   30.2880   47.6470 C   0  0  0  0  0  0  0  0  0  0  0  0
   36.5510   30.9600   47.6550 C   0  0  0  0  0  0  0  0  0  0  0  0
   37.2270   31.0100   46.4390 C   0  0  0  0  0  0  0  0  0  0  0  0
   36.6780   30.4250   45.3280 N   0  0  0  0  0  0  0  0  0  0  0  0
   35.4750   29.7850   45.3710 C   0  0  0  0  0  0  0  0  0  0  0  0
   34.7920   29.7180   46.5460 N   0  0  0  0  0  0  0  0  0  0  0  0
   36.4420   28.8020   49.7260 O   0  0  0  0  0  0  0  0  0  0  0  0
   36.9120   30.0120   52.0210 O   0  0  0  0  0  0  0  0  0  0  0  0
   37.6080   29.3000   50.8640 P   0  0  0  0  0  0  0  0  0  0  0  0
   38.6930   30.3960   50.1900 O   0  0  0  0  0  0  0  0  0  0  0  0
   38.3800   27.9490   51.5060 O   0  0  0  0  0  0  0  0  0  0  0  0
   34.1384   31.2555   48.8195 H   0  0  0  0  0  0  0  0  0  0  0  0
   33.0297   29.0299   50.0157 H   0  0  0  0  0  0  0  0  0  0  0  0
   33.6025   28.0795   48.9185 H   0  0  0  0  0  0  0  0  0  0  0  0
   35.6095   29.5932   51.0492 H   0  0  0  0  0  0  0  0  0  0  0  0
   36.9586   31.4192   48.5677 H   0  0  0  0  0  0  0  0  0  0  0  0
   38.2001   31.5182   46.3701 H   0  0  0  0  0  0  0  0  0  0  0  0
   35.0593   29.3259   44.4620 H   0  0  0  0  0  0  0  0  0  0  0  0
   39.1687   30.8765   50.9131 H   0  0  0  0  0  0  0  0  0  0  0  0
   38.3547   27.9932   52.4947 H   0  0  0  0  0  0  0  0  0  0  0  0
  1  2  1  0
  1  3  1  0
  2  3  1  0
  4  5  2  0
  4  1  1  0
  6  5  1  0
  7  8  1  0
  7  6  2  0
  8  9  2  0
  9  4  1  0
 10  3  1  0
 10 12  1  0
 12 14  1  0
 12 11  2  0
 13 12  1  0
  1 15  1  1
  2 16  1  0
  2 17  1  0
  3 18  1  1
  5 19  1  0
  6 20  1  0
  8 21  1  0
 13 22  1  0
 14 23  1  0
M  ISO  8  15  13  16  13  17  13  18  13  19  14  20  14  21  14  22   3
M  ISO  1  23   3
M  END
>  <minimizedAffinity>  (1) 
-4.18212509

>  <minimizedRMSD>  (1) 
2.74795032

$$$$
