
     RDKit          3D

 18 19  0  0  1  0  0  0  0  0999 V2000
   36.9650   31.2190   49.1220 C   0  0  0  0  0  0  0  0  0  0  0  0
   37.1620   32.4360   49.7980 C   0  0  0  0  0  0  0  0  0  0  0  0
   38.1920   33.2470   49.2930 C   0  0  0  0  0  0  0  0  0  0  0  0
   38.9200   32.8240   48.2140 N   0  0  0  0  0  0  0  0  0  0  0  0
   38.6800   31.6310   47.6030 C   0  0  0  0  0  0  0  0  0  0  0  0
   37.6940   30.8200   48.0590 N   0  0  0  0  0  0  0  0  0  0  0  0
   35.8480   30.3430   49.6320 C   0  0  1  0  0  0  0  0  0  0  0  0
   35.8730   28.9050   49.3670 C   0  0  0  0  0  0  0  0  0  0  0  0
   36.2970   29.3940   50.7240 C   0  0  2  0  0  0  0  0  0  0  0  0
   35.3820   29.2600   51.7650 O   0  0  0  0  0  0  0  0  0  0  0  0
   36.5512   32.7329   50.6633 H   0  0  0  0  0  0  0  0  0  0  0  0
   38.4123   34.2171   49.7624 H   0  0  0  0  0  0  0  0  0  0  0  0
   39.2870   31.3249   46.7382 H   0  0  0  0  0  0  0  0  0  0  0  0
   35.0682   31.1043   49.4829 H   0  0  0  0  0  0  0  0  0  0  0  0
   34.9276   28.3537   49.2561 H   0  0  0  0  0  0  0  0  0  0  0  0
   36.3388   28.2725   48.5969 H   0  0  0  0  0  0  0  0  0  0  0  0
   37.1863   29.2465   51.3544 H   0  0  0  0  0  0  0  0  0  0  0  0
   35.8556   29.3294   52.6316 H   0  0  0  0  0  0  0  0  0  0  0  0
  1  7  1  0
  1  2  2  0
  3  2  1  0
  4  3  2  0
  5  6  2  0
  5  4  1  0
  6  1  1  0
  7  9  1  0
  8  7  1  0
  8  9  1  0
  9 10  1  0
  2 11  1  0
  3 12  1  0
  5 13  1  0
  7 14  1  1
  8 15  1  0
  8 16  1  0
  9 17  1  1
 10 18  1  0
M  ISO  8  11  14  12  14  13  14  14  13  15  13  16  13  17  13  18   3
M  END
>  <minimizedAffinity>  (1) 
-4.09111214

>  <minimizedRMSD>  (1) 
0.377448201

$$$$
