
     RDKit          3D

 32 34  0  0  1  0  0  0  0  0999 V2000
   37.1530   31.5450   45.8780 C   0  0  1  0  0  0  0  0  0  0  0  0
   36.3970   30.3120   46.0990 C   0  0  0  0  0  0  0  0  0  0  0  0
   36.8240   31.1070   47.2870 C   0  0  1  0  0  0  0  0  0  0  0  0
   38.6060   31.5070   45.5390 C   0  0  0  0  0  0  0  0  0  0  0  0
   39.3230   32.6950   45.7720 C   0  0  0  0  0  0  0  0  0  0  0  0
   40.6870   32.6720   45.4280 C   0  0  0  0  0  0  0  0  0  0  0  0
   41.2160   31.5230   44.9030 N   0  0  0  0  0  0  0  0  0  0  0  0
   40.4680   30.4030   44.7010 C   0  0  0  0  0  0  0  0  0  0  0  0
   39.1490   30.4070   45.0270 N   0  0  0  0  0  0  0  0  0  0  0  0
   37.7930   30.7130   48.2360 N   0  0  0  0  0  0  0  0  0  0  0  0
   37.5730   29.5460   49.0190 C   0  0  0  0  0  0  0  0  0  0  0  0
   37.8570   29.8140   50.5080 C   0  0  0  0  0  0  0  0  0  0  0  0
   36.8190   30.8150   50.9580 C   0  0  0  0  0  0  0  0  0  0  0  0
   36.8120   31.9650   49.9990 C   0  0  0  0  0  0  0  0  0  0  0  0
   38.0160   31.8570   49.1190 C   0  0  0  0  0  0  0  0  0  0  0  0
   36.9727   32.4176   45.2330 H   0  0  0  0  0  0  0  0  0  0  0  0
   35.3324   30.2682   45.8257 H   0  0  0  0  0  0  0  0  0  0  0  0
   36.5263   29.2648   45.7880 H   0  0  0  0  0  0  0  0  0  0  0  0
   36.3134   31.5387   48.1605 H   0  0  0  0  0  0  0  0  0  0  0  0
   38.8451   33.5894   46.1982 H   0  0  0  0  0  0  0  0  0  0  0  0
   41.3173   33.5610   45.5780 H   0  0  0  0  0  0  0  0  0  0  0  0
   40.9295   29.4995   44.2760 H   0  0  0  0  0  0  0  0  0  0  0  0
   36.5258   29.2292   48.9047 H   0  0  0  0  0  0  0  0  0  0  0  0
   38.2565   28.7580   48.6700 H   0  0  0  0  0  0  0  0  0  0  0  0
   37.7667   28.8834   51.0875 H   0  0  0  0  0  0  0  0  0  0  0  0
   38.8771   30.1963   50.6604 H   0  0  0  0  0  0  0  0  0  0  0  0
   35.8275   30.3389   50.9719 H   0  0  0  0  0  0  0  0  0  0  0  0
   37.0584   31.1731   51.9702 H   0  0  0  0  0  0  0  0  0  0  0  0
   35.8997   31.9307   49.3853 H   0  0  0  0  0  0  0  0  0  0  0  0
   36.8332   32.9161   50.5513 H   0  0  0  0  0  0  0  0  0  0  0  0
   38.9172   31.6948   49.7286 H   0  0  0  0  0  0  0  0  0  0  0  0
   38.1650   32.7798   48.5392 H   0  0  0  0  0  0  0  0  0  0  0  0
  1  2  1  0
  1  3  1  0
  2  3  1  0
  3 10  1  0
  4  5  2  0
  4  1  1  0
  6  5  1  0
  7  6  2  0
  8  7  1  0
  8  9  2  0
  9  4  1  0
 10 11  1  0
 10 15  1  0
 11 12  1  0
 12 13  1  0
 14 13  1  0
 15 14  1  0
  1 16  1  6
  2 17  1  0
  2 18  1  0
  3 19  1  1
  5 20  1  0
  6 21  1  0
  8 22  1  0
 11 23  1  0
 11 24  1  0
 12 25  1  0
 12 26  1  0
 13 27  1  0
 13 28  1  0
 14 29  1  0
 14 30  1  0
 15 31  1  0
 15 32  1  0
M  ISO  8  16  13  17  13  18  13  19  13  20  14  21  14  22  14  23  13
M  ISO  8  24  13  25  13  26  13  27  13  28  13  29  13  30  13  31  13
M  ISO  1  32  13
M  END
>  <minimizedAffinity>  (1) 
-3.71447062

>  <minimizedRMSD>  (1) 
4.04847002

$$$$
