
     RDKit          3D

 31 32  0  0  0  0  0  0  0  0999 V2000
   33.2960   28.0390   47.4020 C   0  0  0  0  0  0  0  0  0  0  0  0
   32.5010   27.0680   48.1400 N   0  0  0  0  0  0  0  0  0  0  0  0
   31.4250   27.8270   48.7290 C   0  0  0  0  0  0  0  0  0  0  0  0
   30.2250   27.9470   47.8440 C   0  0  0  0  0  0  0  0  0  0  0  0
   29.6950   26.5720   47.7830 N   0  0  0  0  0  0  0  0  0  0  0  0
   30.6390   25.8680   46.9760 C   0  0  0  0  0  0  0  0  0  0  0  0
   32.0630   25.9860   47.3150 C   0  0  0  0  0  0  0  0  0  0  0  0
   34.9290   28.3970   49.2780 C   0  0  0  0  0  0  0  0  0  0  0  0
   34.3790   28.6740   48.1490 C   0  0  0  0  0  0  0  0  0  0  0  0
   37.2490   30.1140   51.5150 C   0  0  0  0  0  0  0  0  0  0  0  0
   38.1400   30.7300   50.5990 C   0  0  0  0  0  0  0  0  0  0  0  0
   37.9040   30.5270   49.2370 C   0  0  0  0  0  0  0  0  0  0  0  0
   36.8330   29.7510   48.8660 N   0  0  0  0  0  0  0  0  0  0  0  0
   36.0280   29.1970   49.7740 C   0  0  0  0  0  0  0  0  0  0  0  0
   36.2150   29.3640   51.0870 N   0  0  0  0  0  0  0  0  0  0  0  0
   33.7394   27.5243   46.5369 H   0  0  0  0  0  0  0  0  0  0  0  0
   32.6030   28.8500   47.1336 H   0  0  0  0  0  0  0  0  0  0  0  0
   31.1206   27.3322   49.6631 H   0  0  0  0  0  0  0  0  0  0  0  0
   31.8036   28.8455   48.9004 H   0  0  0  0  0  0  0  0  0  0  0  0
   29.4841   28.6338   48.2792 H   0  0  0  0  0  0  0  0  0  0  0  0
   30.4671   28.3544   46.8513 H   0  0  0  0  0  0  0  0  0  0  0  0
   29.6404   26.1595   48.7252 H   0  0  0  0  0  0  0  0  0  0  0  0
   30.5182   26.2274   45.9434 H   0  0  0  0  0  0  0  0  0  0  0  0
   30.4048   24.8065   47.1441 H   0  0  0  0  0  0  0  0  0  0  0  0
   32.3482   25.0559   47.8284 H   0  0  0  0  0  0  0  0  0  0  0  0
   32.5442   26.1872   46.3465 H   0  0  0  0  0  0  0  0  0  0  0  0
   34.5615   27.5462   49.8706 H   0  0  0  0  0  0  0  0  0  0  0  0
   34.8052   29.5573   47.6509 H   0  0  0  0  0  0  0  0  0  0  0  0
   37.4053   30.2513   52.5951 H   0  0  0  0  0  0  0  0  0  0  0  0
   38.9838   31.3436   50.9475 H   0  0  0  0  0  0  0  0  0  0  0  0
   38.5610   30.9784   48.4789 H   0  0  0  0  0  0  0  0  0  0  0  0
  1  2  1  0
  1  9  1  0
  2  3  1  0
  4  3  1  0
  5  4  1  0
  6  7  1  0
  6  5  1  0
  7  2  1  0
  8 14  1  0
  9  8  2  0
 11 10  2  0
 12 11  1  0
 13 12  2  0
 13 14  1  0
 14 15  2  0
 15 10  1  0
  1 16  1  0
  1 17  1  0
  3 18  1  0
  3 19  1  0
  4 20  1  0
  4 21  1  0
  5 22  1  0
  6 23  1  0
  6 24  1  0
  7 25  1  0
  7 26  1  0
  8 27  1  0
  9 28  1  0
 10 29  1  0
 11 30  1  0
 12 31  1  0
M  ISO  8  16   8  17   8  18  13  19  13  20  13  21  13  22   5  23  13
M  ISO  6  24  13  25  13  26  13  29  14  30  14  31  14
M  END
>  <minimizedAffinity>  (1) 
-4.31052446

>  <minimizedRMSD>  (1) 
0.960145295

$$$$
