
     RDKit          3D

 29 31  0  0  1  0  0  0  0  0999 V2000
   37.2100   31.6130   47.8400 C   0  0  1  0  0  0  0  0  0  0  0  0
   37.1480   30.5830   46.8110 C   0  0  0  0  0  0  0  0  0  0  0  0
   37.6500   30.1970   48.1760 C   0  0  2  0  0  0  0  0  0  0  0  0
   38.3500   32.6020   47.8750 C   0  0  0  0  0  0  0  0  0  0  0  0
   38.5160   33.3550   49.0520 C   0  0  0  0  0  0  0  0  0  0  0  0
   39.5620   34.2600   49.0430 C   0  0  0  0  0  0  0  0  0  0  0  0
   40.3540   34.3890   47.9570 N   0  0  0  0  0  0  0  0  0  0  0  0
   40.1710   33.6480   46.8320 C   0  0  0  0  0  0  0  0  0  0  0  0
   39.1610   32.7550   46.8070 N   0  0  0  0  0  0  0  0  0  0  0  0
   37.2840   29.1100   50.3830 C   0  0  2  0  0  0  0  0  0  0  0  0
   36.7150   29.3550   49.0020 C   0  0  1  0  0  0  0  0  0  0  0  0
   35.4400   30.1340   49.2670 C   0  0  0  0  0  0  0  0  0  0  0  0
   35.5170   30.5510   50.5750 O   0  0  0  0  0  0  0  0  0  0  0  0
   36.1540   29.5310   51.2890 C   0  0  0  0  0  0  0  0  0  0  0  0
   38.3950   29.9130   50.6250 O   0  0  0  0  0  0  0  0  0  0  0  0
   36.4641   32.3447   48.1839 H   0  0  0  0  0  0  0  0  0  0  0  0
   36.1704   30.2156   46.4657 H   0  0  0  0  0  0  0  0  0  0  0  0
   37.5503   30.4918   45.7913 H   0  0  0  0  0  0  0  0  0  0  0  0
   38.5567   29.7390   48.5982 H   0  0  0  0  0  0  0  0  0  0  0  0
   37.8562   33.2318   49.9235 H   0  0  0  0  0  0  0  0  0  0  0  0
   39.7508   34.8817   49.9306 H   0  0  0  0  0  0  0  0  0  0  0  0
   40.8319   33.7741   45.9618 H   0  0  0  0  0  0  0  0  0  0  0  0
   37.6177   28.0713   50.5237 H   0  0  0  0  0  0  0  0  0  0  0  0
   36.5536   28.4182   48.4485 H   0  0  0  0  0  0  0  0  0  0  0  0
   35.3741   31.0005   48.5926 H   0  0  0  0  0  0  0  0  0  0  0  0
   34.5464   29.5168   49.0923 H   0  0  0  0  0  0  0  0  0  0  0  0
   35.4660   28.6927   51.4730 H   0  0  0  0  0  0  0  0  0  0  0  0
   36.5022   29.8584   52.2797 H   0  0  0  0  0  0  0  0  0  0  0  0
   38.5269   30.0083   51.6015 H   0  0  0  0  0  0  0  0  0  0  0  0
  1  4  1  0
  1  3  1  0
  2  1  1  0
  2  3  1  0
  3 11  1  0
  4  5  2  0
  6  5  1  0
  7  6  2  0
  8  7  1  0
  9  8  2  0
  9  4  1  0
 10 15  1  0
 10 14  1  0
 11 12  1  0
 11 10  1  0
 12 13  1  0
 13 14  1  0
  1 16  1  1
  2 17  1  0
  2 18  1  0
  3 19  1  6
  5 20  1  0
  6 21  1  0
  8 22  1  0
 10 23  1  6
 11 24  1  6
 12 25  1  0
 12 26  1  0
 14 27  1  0
 14 28  1  0
 15 29  1  0
M  ISO  8  16  13  17  13  18  13  19  13  20  14  21  14  22  14  23  13
M  ISO  6  24  13  25  13  26  13  27  13  28  13  29   3
M  END
>  <minimizedAffinity>  (1) 
-4.69292593

>  <minimizedRMSD>  (1) 
2.97899175

$$$$
