
     RDKit          3D

 32 34  0  0  1  0  0  0  0  0999 V2000
   37.4830   31.5660   47.3520 C   0  0  1  0  0  0  0  0  0  0  0  0
   37.8980   30.4040   46.6010 C   0  0  0  0  0  0  0  0  0  0  0  0
   37.6790   30.2470   48.0890 C   0  0  2  0  0  0  0  0  0  0  0  0
   36.4830   29.0750   49.9510 C   0  0  2  0  0  0  0  0  0  0  0  0
   36.4650   29.4760   48.4940 C   0  0  1  0  0  0  0  0  0  0  0  0
   35.2440   30.3460   48.4240 C   0  0  0  0  0  0  0  0  0  0  0  0
   34.9430   30.7460   49.7090 O   0  0  0  0  0  0  0  0  0  0  0  0
   35.1700   29.5810   50.4540 C   0  0  0  0  0  0  0  0  0  0  0  0
   37.5310   29.6860   50.6090 O   0  0  0  0  0  0  0  0  0  0  0  0
   37.3200   29.8990   51.9450 C   0  0  0  0  0  0  0  0  0  0  0  0
   38.4780   32.6130   47.7990 C   0  0  0  0  0  0  0  0  0  0  0  0
   38.3290   33.1170   49.0960 C   0  0  0  0  0  0  0  0  0  0  0  0
   39.2420   34.1020   49.4600 C   0  0  0  0  0  0  0  0  0  0  0  0
   40.1890   34.5100   48.5860 N   0  0  0  0  0  0  0  0  0  0  0  0
   40.3130   34.0050   47.3320 C   0  0  0  0  0  0  0  0  0  0  0  0
   39.4410   33.0470   46.9490 N   0  0  0  0  0  0  0  0  0  0  0  0
   36.6822   32.2949   47.1586 H   0  0  0  0  0  0  0  0  0  0  0  0
   37.1979   29.9335   45.8950 H   0  0  0  0  0  0  0  0  0  0  0  0
   38.7377   30.1896   45.9236 H   0  0  0  0  0  0  0  0  0  0  0  0
   38.2602   29.9160   48.9623 H   0  0  0  0  0  0  0  0  0  0  0  0
   36.6184   27.9945   50.1066 H   0  0  0  0  0  0  0  0  0  0  0  0
   36.4536   28.6080   47.8184 H   0  0  0  0  0  0  0  0  0  0  0  0
   35.4456   31.2255   47.7949 H   0  0  0  0  0  0  0  0  0  0  0  0
   34.4007   29.7937   47.9837 H   0  0  0  0  0  0  0  0  0  0  0  0
   34.3737   28.8431   50.2768 H   0  0  0  0  0  0  0  0  0  0  0  0
   35.1777   29.7685   51.5379 H   0  0  0  0  0  0  0  0  0  0  0  0
   37.9757   29.2371   52.5299 H   0  0  0  0  0  0  0  0  0  0  0  0
   37.5455   30.9476   52.1892 H   0  0  0  0  0  0  0  0  0  0  0  0
   36.2693   29.6834   52.1892 H   0  0  0  0  0  0  0  0  0  0  0  0
   37.5450   32.7595   49.7798 H   0  0  0  0  0  0  0  0  0  0  0  0
   39.1929   34.5505   50.4632 H   0  0  0  0  0  0  0  0  0  0  0  0
   41.0979   34.3641   46.6501 H   0  0  0  0  0  0  0  0  0  0  0  0
  1 11  1  0
  1  3  1  0
  2  1  1  0
  2  3  1  0
  3  5  1  0
  4  8  1  0
  4  9  1  0
  5  4  1  0
  6  5  1  0
  6  7  1  0
  7  8  1  0
  9 10  1  0
 11 12  2  0
 12 13  1  0
 14 13  2  0
 15 14  1  0
 16 15  2  0
 16 11  1  0
  1 17  1  6
  2 18  1  0
  2 19  1  0
  3 20  1  1
  4 21  1  6
  5 22  1  6
  6 23  1  0
  6 24  1  0
  8 25  1  0
  8 26  1  0
 10 27  1  0
 10 28  1  0
 10 29  1  0
 12 30  1  0
 13 31  1  0
 15 32  1  0
M  ISO  8  17  13  18  13  19  13  20  13  21  13  22  13  23  13  24  13
M  ISO  8  25  13  26  13  27   8  28   8  29   8  30  14  31  14  32  14
M  END
>  <minimizedAffinity>  (1) 
-4.65105391

>  <minimizedRMSD>  (1) 
0.947461128

$$$$
