
     RDKit          3D

 36 38  0  0  1  0  0  0  0  0999 V2000
   36.3950   31.1460   48.0310 C   0  0  1  0  0  0  0  0  0  0  0  0
   36.2970   30.1750   46.9810 C   0  0  0  0  0  0  0  0  0  0  0  0
   36.7350   29.7620   48.3560 C   0  0  2  0  0  0  0  0  0  0  0  0
   37.5710   32.1040   48.1570 C   0  0  0  0  0  0  0  0  0  0  0  0
   37.7700   32.7220   49.3820 C   0  0  0  0  0  0  0  0  0  0  0  0
   38.8430   33.5940   49.4500 C   0  0  0  0  0  0  0  0  0  0  0  0
   39.6220   33.7940   48.3470 N   0  0  0  0  0  0  0  0  0  0  0  0
   39.4060   33.1750   47.1590 C   0  0  0  0  0  0  0  0  0  0  0  0
   38.3580   32.3140   47.0690 N   0  0  0  0  0  0  0  0  0  0  0  0
   40.0290   33.4160   44.6460 C   0  0  0  0  0  0  0  0  0  0  0  0
   38.8050   33.1130   44.4450 O   0  0  0  0  0  0  0  0  0  0  0  0
   40.2560   33.4280   46.0460 N   0  0  0  0  0  0  0  0  0  0  0  0
   36.1950   28.7420   50.5510 C   0  0  2  0  0  0  0  0  0  0  0  0
   35.8290   28.8630   49.1360 C   0  0  1  0  0  0  0  0  0  0  0  0
   34.4610   29.4560   49.1440 C   0  0  0  0  0  0  0  0  0  0  0  0
   34.2950   30.1210   50.3620 O   0  0  0  0  0  0  0  0  0  0  0  0
   34.8120   29.2220   51.2390 C   0  0  0  0  0  0  0  0  0  0  0  0
   37.0290   29.7700   50.9550 O   0  0  0  0  0  0  0  0  0  0  0  0
   37.4440   29.8600   52.1540 C   0  0  0  0  0  0  0  0  0  0  0  0
   35.6752   31.9103   48.3593 H   0  0  0  0  0  0  0  0  0  0  0  0
   35.3100   29.8705   46.6026 H   0  0  0  0  0  0  0  0  0  0  0  0
   36.7141   30.0776   45.9678 H   0  0  0  0  0  0  0  0  0  0  0  0
   37.6046   29.2842   48.8307 H   0  0  0  0  0  0  0  0  0  0  0  0
   37.1162   32.5314   50.2458 H   0  0  0  0  0  0  0  0  0  0  0  0
   39.0668   34.1231   50.3881 H   0  0  0  0  0  0  0  0  0  0  0  0
   40.7772   33.6304   43.8687 H   0  0  0  0  0  0  0  0  0  0  0  0
   41.2233   33.6659   46.3078 H   0  0  0  0  0  0  0  0  0  0  0  0
   36.6354   27.7577   50.7682 H   0  0  0  0  0  0  0  0  0  0  0  0
   35.8960   27.8770   48.6531 H   0  0  0  0  0  0  0  0  0  0  0  0
   34.3556   30.1669   48.3113 H   0  0  0  0  0  0  0  0  0  0  0  0
   33.6994   28.6711   49.0258 H   0  0  0  0  0  0  0  0  0  0  0  0
   34.1279   28.3712   51.3735 H   0  0  0  0  0  0  0  0  0  0  0  0
   34.9676   29.6525   52.2393 H   0  0  0  0  0  0  0  0  0  0  0  0
   36.6082   29.6788   52.8459 H   0  0  0  0  0  0  0  0  0  0  0  0
   38.2317   29.1118   52.3265 H   0  0  0  0  0  0  0  0  0  0  0  0
   37.8510   30.8673   52.3265 H   0  0  0  0  0  0  0  0  0  0  0  0
  1  4  1  0
  1  3  1  0
  2  1  1  0
  2  3  1  0
  3 14  1  0
  4  5  2  0
  5  6  1  0
  7  6  2  0
  8  7  1  0
  9  8  2  0
  9  4  1  0
 10 12  1  0
 11 10  2  0
 12  8  1  0
 13 18  1  0
 13 17  1  0
 14 15  1  0
 14 13  1  0
 15 16  1  0
 16 17  1  0
 18 19  1  0
  1 20  1  1
  2 21  1  0
  2 22  1  0
  3 23  1  6
  5 24  1  0
  6 25  1  0
 10 26  1  0
 12 27  1  0
 13 28  1  1
 14 29  1  6
 15 30  1  0
 15 31  1  0
 17 32  1  0
 17 33  1  0
 19 34  1  0
 19 35  1  0
 19 36  1  0
M  ISO  8  20  13  21  13  22  13  23  13  24  14  25  14  26   6  28  13
M  ISO  8  29  13  30  13  31  13  32  13  33  13  34   8  35   8  36   8
M  END
>  <minimizedAffinity>  (1) 
-5.05960989

>  <minimizedRMSD>  (1) 
1.2050159

$$$$
