
     RDKit          3D

 35 37  0  0  1  0  0  0  0  0999 V2000
   36.4460   31.1740   47.8480 C   0  0  1  0  0  0  0  0  0  0  0  0
   36.2880   30.2030   46.8080 C   0  0  0  0  0  0  0  0  0  0  0  0
   36.7390   29.7780   48.1770 C   0  0  2  0  0  0  0  0  0  0  0  0
   36.2260   28.7650   50.3820 C   0  0  2  0  0  0  0  0  0  0  0  0
   35.8110   28.9250   48.9810 C   0  0  1  0  0  0  0  0  0  0  0  0
   34.4790   29.5920   49.0540 C   0  0  0  0  0  0  0  0  0  0  0  0
   34.3990   30.2450   50.2890 O   0  0  0  0  0  0  0  0  0  0  0  0
   34.8970   29.2890   51.1160 C   0  0  0  0  0  0  0  0  0  0  0  0
   37.1260   29.7500   50.7620 O   0  0  0  0  0  0  0  0  0  0  0  0
   37.4320   29.9400   51.9800 C   0  0  0  0  0  0  0  0  0  0  0  0
   37.6520   32.0910   47.9490 C   0  0  0  0  0  0  0  0  0  0  0  0
   37.8590   32.7570   49.1460 C   0  0  0  0  0  0  0  0  0  0  0  0
   38.9620   33.5940   49.1850 C   0  0  0  0  0  0  0  0  0  0  0  0
   39.7540   33.7190   48.0940 N   0  0  0  0  0  0  0  0  0  0  0  0
   39.5320   33.0530   46.9210 C   0  0  0  0  0  0  0  0  0  0  0  0
   38.4560   32.2250   46.8590 N   0  0  0  0  0  0  0  0  0  0  0  0
   40.4350   33.2290   45.7560 C   0  0  0  0  0  0  0  0  0  0  0  0
   35.7631   31.9681   48.1842 H   0  0  0  0  0  0  0  0  0  0  0  0
   35.2819   29.9361   46.4522 H   0  0  0  0  0  0  0  0  0  0  0  0
   36.6797   30.0843   45.7870 H   0  0  0  0  0  0  0  0  0  0  0  0
   37.5986   29.2673   48.6356 H   0  0  0  0  0  0  0  0  0  0  0  0
   36.6303   27.7607   50.5769 H   0  0  0  0  0  0  0  0  0  0  0  0
   35.8003   27.9455   48.4806 H   0  0  0  0  0  0  0  0  0  0  0  0
   34.3798   30.3218   48.2369 H   0  0  0  0  0  0  0  0  0  0  0  0
   33.6710   28.8521   48.9556 H   0  0  0  0  0  0  0  0  0  0  0  0
   34.1741   28.4693   51.2406 H   0  0  0  0  0  0  0  0  0  0  0  0
   35.1046   29.6781   52.1237 H   0  0  0  0  0  0  0  0  0  0  0  0
   36.6754   29.4702   52.6257 H   0  0  0  0  0  0  0  0  0  0  0  0
   38.4166   29.4941   52.1846 H   0  0  0  0  0  0  0  0  0  0  0  0
   37.4690   31.0202   52.1846 H   0  0  0  0  0  0  0  0  0  0  0  0
   37.1903   32.6293   50.0100 H   0  0  0  0  0  0  0  0  0  0  0  0
   39.1942   34.1565   50.1013 H   0  0  0  0  0  0  0  0  0  0  0  0
   41.4569   33.4282   46.1110 H   0  0  0  0  0  0  0  0  0  0  0  0
   40.4304   32.3131   45.1469 H   0  0  0  0  0  0  0  0  0  0  0  0
   40.0868   34.0762   45.1469 H   0  0  0  0  0  0  0  0  0  0  0  0
  1 11  1  0
  1  3  1  0
  2  1  1  0
  2  3  1  0
  3  5  1  0
  4  9  1  0
  4  8  1  0
  5  6  1  0
  5  4  1  0
  6  7  1  0
  7  8  1  0
  9 10  1  0
 11 12  2  0
 12 13  1  0
 14 13  2  0
 15 14  1  0
 16 15  2  0
 16 11  1  0
 17 15  1  0
  1 18  1  1
  2 19  1  0
  2 20  1  0
  3 21  1  6
  4 22  1  1
  5 23  1  6
  6 24  1  0
  6 25  1  0
  8 26  1  0
  8 27  1  0
 10 28  1  0
 10 29  1  0
 10 30  1  0
 12 31  1  0
 13 32  1  0
 17 33  1  0
 17 34  1  0
 17 35  1  0
M  ISO  8  18  13  19  13  20  13  21  13  22  13  23  13  24  13  25  13
M  ISO  8  26  13  27  13  28   8  29   8  30   8  31  14  32  14  33   8
M  ISO  2  34   8  35   8
M  END
>  <minimizedAffinity>  (1) 
-4.44535398

>  <minimizedRMSD>  (1) 
1.05380571

$$$$
