
     RDKit          3D

 33 35  0  0  1  0  0  0  0  0999 V2000
   36.6570   31.2690   47.7560 C   0  0  1  0  0  0  0  0  0  0  0  0
   36.6620   30.2490   46.7510 C   0  0  0  0  0  0  0  0  0  0  0  0
   36.9590   29.8950   48.1830 C   0  0  2  0  0  0  0  0  0  0  0  0
   36.2780   28.8460   50.3290 C   0  0  2  0  0  0  0  0  0  0  0  0
   35.9690   29.0420   48.9060 C   0  0  1  0  0  0  0  0  0  0  0  0
   34.6440   29.7300   48.9040 C   0  0  0  0  0  0  0  0  0  0  0  0
   34.4850   30.3630   50.1410 O   0  0  0  0  0  0  0  0  0  0  0  0
   34.9080   29.3840   50.9830 C   0  0  0  0  0  0  0  0  0  0  0  0
   37.1650   29.7980   50.7940 O   0  0  0  0  0  0  0  0  0  0  0  0
   37.4290   29.9160   52.0280 C   0  0  0  0  0  0  0  0  0  0  0  0
   37.8140   32.2300   47.9560 C   0  0  0  0  0  0  0  0  0  0  0  0
   37.9430   32.8320   49.1990 C   0  0  0  0  0  0  0  0  0  0  0  0
   38.9970   33.7090   49.3460 C   0  0  0  0  0  0  0  0  0  0  0  0
   39.8380   33.9360   48.2870 N   0  0  0  0  0  0  0  0  0  0  0  0
   39.6900   33.3350   47.0830 C   0  0  0  0  0  0  0  0  0  0  0  0
   38.6580   32.4660   46.9160 N   0  0  0  0  0  0  0  0  0  0  0  0
   40.5810   33.6190   46.0690 O   0  0  0  0  0  0  0  0  0  0  0  0
   35.9105   32.0478   47.9708 H   0  0  0  0  0  0  0  0  0  0  0  0
   35.7168   29.9270   46.2896 H   0  0  0  0  0  0  0  0  0  0  0  0
   37.1796   30.1056   45.7910 H   0  0  0  0  0  0  0  0  0  0  0  0
   37.7740   29.4371   48.7627 H   0  0  0  0  0  0  0  0  0  0  0  0
   36.6465   27.8288   50.5277 H   0  0  0  0  0  0  0  0  0  0  0  0
   35.9844   28.0732   48.3852 H   0  0  0  0  0  0  0  0  0  0  0  0
   34.6116   30.4757   48.0960 H   0  0  0  0  0  0  0  0  0  0  0  0
   33.8354   29.0025   48.7397 H   0  0  0  0  0  0  0  0  0  0  0  0
   34.1638   28.5763   51.0437 H   0  0  0  0  0  0  0  0  0  0  0  0
   35.0532   29.7519   52.0094 H   0  0  0  0  0  0  0  0  0  0  0  0
   36.5835   29.5381   52.6216 H   0  0  0  0  0  0  0  0  0  0  0  0
   38.3328   29.3362   52.2667 H   0  0  0  0  0  0  0  0  0  0  0  0
   37.5998   30.9761   52.2667 H   0  0  0  0  0  0  0  0  0  0  0  0
   37.2436   32.6216   50.0215 H   0  0  0  0  0  0  0  0  0  0  0  0
   39.1617   34.2222   50.3049 H   0  0  0  0  0  0  0  0  0  0  0  0
   40.4803   33.1841   45.1854 H   0  0  0  0  0  0  0  0  0  0  0  0
  1 11  1  0
  1  3  1  0
  2  1  1  0
  2  3  1  0
  3  5  1  0
  4  9  1  0
  4  8  1  0
  5  4  1  0
  6  5  1  0
  6  7  1  0
  7  8  1  0
  9 10  1  0
 11 12  2  0
 12 13  1  0
 14 13  2  0
 15 14  1  0
 16 15  2  0
 16 11  1  0
 17 15  1  0
  1 18  1  1
  2 19  1  0
  2 20  1  0
  3 21  1  6
  4 22  1  6
  5 23  1  6
  6 24  1  0
  6 25  1  0
  8 26  1  0
  8 27  1  0
 10 28  1  0
 10 29  1  0
 10 30  1  0
 12 31  1  0
 13 32  1  0
 17 33  1  0
M  ISO  8  18  13  19  13  20  13  21  13  22  13  23  13  24  13  25  13
M  ISO  8  26  13  27  13  28   8  29   8  30   8  31  14  32  14  33   3
M  END
>  <minimizedAffinity>  (1) 
-4.30208063

>  <minimizedRMSD>  (1) 
0.803853869

$$$$
