
     RDKit          3D

 28 29  0  0  1  0  0  0  0  0999 V2000
   39.3070   31.9090   46.4070 C   0  0  0  0  0  0  0  0  0  0  0  0
   38.8540   31.6570   45.0910 C   0  0  0  0  0  0  0  0  0  0  0  0
   37.6360   31.0040   44.9170 C   0  0  0  0  0  0  0  0  0  0  0  0
   36.9560   30.6480   46.0390 N   0  0  0  0  0  0  0  0  0  0  0  0
   37.3980   30.8950   47.2810 C   0  0  0  0  0  0  0  0  0  0  0  0
   38.5720   31.5250   47.4770 N   0  0  0  0  0  0  0  0  0  0  0  0
   36.6290   30.4930   48.4260 N   0  0  0  0  0  0  0  0  0  0  0  0
   37.2650   29.8590   49.5680 C   0  0  2  0  0  0  0  0  0  0  0  0
   36.3870   28.8290   50.2420 C   0  0  0  0  0  0  0  0  0  0  0  0
   35.2710   28.4520   49.2910 C   0  0  0  0  0  0  0  0  0  0  0  0
   34.4050   29.6730   49.1330 C   0  0  0  0  0  0  0  0  0  0  0  0
   35.1980   30.7290   48.4230 C   0  0  0  0  0  0  0  0  0  0  0  0
   37.4820   30.9430   50.6320 C   0  0  0  0  0  0  0  0  0  0  0  0
   37.1640   30.4300   51.8600 F   0  0  0  0  0  0  0  0  0  0  0  0
   38.8210   31.2800   50.6240 F   0  0  0  0  0  0  0  0  0  0  0  0
   36.7190   32.0530   50.3600 F   0  0  0  0  0  0  0  0  0  0  0  0
   40.2671   32.4227   46.5627 H   0  0  0  0  0  0  0  0  0  0  0  0
   39.4516   31.9704   44.2223 H   0  0  0  0  0  0  0  0  0  0  0  0
   37.2410   30.7856   43.9139 H   0  0  0  0  0  0  0  0  0  0  0  0
   38.1819   29.3764   49.1988 H   0  0  0  0  0  0  0  0  0  0  0  0
   36.9825   27.9372   50.4872 H   0  0  0  0  0  0  0  0  0  0  0  0
   35.9669   29.2421   51.1709 H   0  0  0  0  0  0  0  0  0  0  0  0
   35.6873   28.1541   48.3174 H   0  0  0  0  0  0  0  0  0  0  0  0
   34.6899   27.6030   49.6803 H   0  0  0  0  0  0  0  0  0  0  0  0
   33.5114   29.4205   48.5433 H   0  0  0  0  0  0  0  0  0  0  0  0
   34.0866   30.0400   50.1199 H   0  0  0  0  0  0  0  0  0  0  0  0
   35.0055   31.6946   48.9134 H   0  0  0  0  0  0  0  0  0  0  0  0
   34.8753   30.7167   47.3715 H   0  0  0  0  0  0  0  0  0  0  0  0
  1  6  2  0
  2  1  1  0
  3  2  2  0
  3  4  1  0
  4  5  2  0
  5  6  1  0
  5  7  1  0
  7  8  1  0
  8  9  1  0
  8 13  1  0
 10  9  1  0
 11 10  1  0
 12  7  1  0
 12 11  1  0
 13 14  1  0
 15 13  1  0
 16 13  1  0
  1 17  1  0
  2 18  1  0
  3 19  1  0
  8 20  1  6
  9 21  1  0
  9 22  1  0
 10 23  1  0
 10 24  1  0
 11 25  1  0
 11 26  1  0
 12 27  1  0
 12 28  1  0
M  ISO  8  17  14  18  14  19  14  20  13  21  13  22  13  23  13  24  13
M  ISO  4  25  13  26  13  27  13  28  13
M  END
>  <minimizedAffinity>  (1) 
-5.96002054

>  <minimizedRMSD>  (1) 
1.76063895

$$$$
