
     RDKit          3D

 31 32  0  0  1  0  0  0  0  0999 V2000
   39.1610   32.7440   47.5230 C   0  0  0  0  0  0  0  0  0  0  0  0
   39.6770   32.0590   46.4080 C   0  0  0  0  0  0  0  0  0  0  0  0
   39.0290   30.9110   45.9800 C   0  0  0  0  0  0  0  0  0  0  0  0
   37.9280   30.5050   46.6570 N   0  0  0  0  0  0  0  0  0  0  0  0
   37.4440   31.1650   47.7160 C   0  0  0  0  0  0  0  0  0  0  0  0
   38.0670   32.2730   48.1330 N   0  0  0  0  0  0  0  0  0  0  0  0
   36.2670   30.7080   48.4180 N   0  0  0  0  0  0  0  0  0  0  0  0
   36.2470   30.6760   49.8750 C   0  0  1  0  0  0  0  0  0  0  0  0
   35.3970   29.5360   50.4060 C   0  0  0  0  0  0  0  0  0  0  0  0
   35.2260   28.5080   49.3240 C   0  0  0  0  0  0  0  0  0  0  0  0
   34.3710   29.1410   48.2580 C   0  0  0  0  0  0  0  0  0  0  0  0
   35.1260   30.2880   47.6530 C   0  0  0  0  0  0  0  0  0  0  0  0
   37.5990   30.5300   50.5060 C   0  0  0  0  0  0  0  0  0  0  0  0
   37.3690   29.9590   51.8950 C   0  0  0  0  0  0  0  0  0  0  0  0
   39.6518   33.6576   47.8898 H   0  0  0  0  0  0  0  0  0  0  0  0
   40.5741   32.4260   45.8878 H   0  0  0  0  0  0  0  0  0  0  0  0
   39.3991   30.3442   45.1130 H   0  0  0  0  0  0  0  0  0  0  0  0
   35.8257   31.6552   50.1462 H   0  0  0  0  0  0  0  0  0  0  0  0
   35.8943   29.0785   51.2740 H   0  0  0  0  0  0  0  0  0  0  0  0
   34.4127   29.9186   50.7139 H   0  0  0  0  0  0  0  0  0  0  0  0
   36.2053   28.2284   48.9083 H   0  0  0  0  0  0  0  0  0  0  0  0
   34.7569   27.5939   49.7168 H   0  0  0  0  0  0  0  0  0  0  0  0
   34.1398   28.3987   47.4799 H   0  0  0  0  0  0  0  0  0  0  0  0
   33.4301   29.5026   48.6983 H   0  0  0  0  0  0  0  0  0  0  0  0
   35.4725   29.9848   46.6540 H   0  0  0  0  0  0  0  0  0  0  0  0
   34.4335   31.1421   47.6215 H   0  0  0  0  0  0  0  0  0  0  0  0
   38.2231   29.8456   49.9126 H   0  0  0  0  0  0  0  0  0  0  0  0
   38.1207   31.4971   50.5555 H   0  0  0  0  0  0  0  0  0  0  0  0
   37.6677   30.7007   52.6504 H   0  0  0  0  0  0  0  0  0  0  0  0
   36.3033   29.7170   52.0201 H   0  0  0  0  0  0  0  0  0  0  0  0
   37.9695   29.0459   52.0201 H   0  0  0  0  0  0  0  0  0  0  0  0
  1  6  2  0
  2  1  1  0
  3  2  2  0
  3  4  1  0
  4  5  2  0
  5  6  1  0
  5  7  1  0
  7  8  1  0
  8  9  1  0
  8 13  1  0
 10  9  1  0
 11 10  1  0
 12 11  1  0
 12  7  1  0
 13 14  1  0
  1 15  1  0
  2 16  1  0
  3 17  1  0
  8 18  1  1
  9 19  1  0
  9 20  1  0
 10 21  1  0
 10 22  1  0
 11 23  1  0
 11 24  1  0
 12 25  1  0
 12 26  1  0
 13 27  1  0
 13 28  1  0
 14 29  1  0
 14 30  1  0
 14 31  1  0
M  ISO  8  15  14  16  14  17  14  18  13  19  13  20  13  21  13  22  13
M  ISO  8  23  13  24  13  25  13  26  13  27   8  28   8  29   8  30   8
M  ISO  1  31   8
M  END
>  <minimizedAffinity>  (1) 
-5.61793756

>  <minimizedRMSD>  (1) 
0.650040627

$$$$
