
     RDKit          3D

 18 18  0  0  0  0  0  0  0  0999 V2000
   37.3230   30.1140   51.1800 C   0  0  0  0  0  0  0  0  0  0  0  0
   38.3250   30.9050   50.5500 C   0  0  0  0  0  0  0  0  0  0  0  0
   38.0340   31.4700   49.3020 C   0  0  0  0  0  0  0  0  0  0  0  0
   36.7970   31.2240   48.7660 N   0  0  0  0  0  0  0  0  0  0  0  0
   35.8910   30.4730   49.3970 C   0  0  0  0  0  0  0  0  0  0  0  0
   36.1460   29.9190   50.5980 N   0  0  0  0  0  0  0  0  0  0  0  0
   34.6100   30.2720   48.7440 C   0  0  0  0  0  0  0  0  0  0  0  0
   34.5900   30.1940   47.4490 C   0  0  0  0  0  0  0  0  0  0  0  0
   33.3710   29.9910   46.6170 C   0  0  0  0  0  0  0  0  0  0  0  0
   32.7300   31.2110   46.5340 O   0  0  0  0  0  0  0  0  0  0  0  0
   37.5265   29.6590   52.1606 H   0  0  0  0  0  0  0  0  0  0  0  0
   39.3011   31.0680   51.0303 H   0  0  0  0  0  0  0  0  0  0  0  0
   38.7720   32.0891   48.7710 H   0  0  0  0  0  0  0  0  0  0  0  0
   33.6830   30.1882   49.3303 H   0  0  0  0  0  0  0  0  0  0  0  0
   35.5515   30.2852   46.9225 H   0  0  0  0  0  0  0  0  0  0  0  0
   33.6532   29.6436   45.6122 H   0  0  0  0  0  0  0  0  0  0  0  0
   32.7127   29.2318   47.0646 H   0  0  0  0  0  0  0  0  0  0  0  0
   32.5507   31.5523   47.4459 H   0  0  0  0  0  0  0  0  0  0  0  0
  2  1  2  0
  3  2  1  0
  4  3  2  0
  4  5  1  0
  5  6  2  0
  6  1  1  0
  7  5  1  0
  8  7  2  0
  9  8  1  0
 10  9  1  0
  1 11  1  0
  2 12  1  0
  3 13  1  0
  7 14  1  0
  8 15  1  0
  9 16  1  0
  9 17  1  0
 10 18  1  0
M  ISO  6  11  14  12  14  13  14  16   8  17   8  18   3
M  END
>  <minimizedAffinity>  (1) 
-3.84777093

>  <minimizedRMSD>  (1) 
2.29096842

$$$$
