
     RDKit          3D

 35 37  0  0  1  0  0  0  0  0999 V2000
   37.4840   31.1560   45.8580 C   0  0  0  0  0  0  0  0  0  0  0  0
   37.2510   31.4230   44.5010 C   0  0  0  0  0  0  0  0  0  0  0  0
   36.0390   30.9970   43.9300 C   0  0  0  0  0  0  0  0  0  0  0  0
   35.1570   30.3450   44.7380 N   0  0  0  0  0  0  0  0  0  0  0  0
   35.4150   30.1050   46.0440 C   0  0  0  0  0  0  0  0  0  0  0  0
   36.5660   30.5080   46.5910 N   0  0  0  0  0  0  0  0  0  0  0  0
   34.4350   29.4090   46.8380 N   0  0  0  0  0  0  0  0  0  0  0  0
   34.8850   28.3380   47.7390 C   0  0  2  0  0  0  0  0  0  0  0  0
   33.8340   27.2830   47.9310 C   0  0  0  0  0  0  0  0  0  0  0  0
   32.8860   27.3280   46.7460 C   0  0  0  0  0  0  0  0  0  0  0  0
   32.1050   28.6200   46.9120 C   0  0  0  0  0  0  0  0  0  0  0  0
   33.0380   29.7720   46.7370 C   0  0  0  0  0  0  0  0  0  0  0  0
   33.2890   28.8070   49.9620 F   0  0  0  0  0  0  0  0  0  0  0  0
   34.6250   29.0610   50.0910 C   0  0  0  0  0  0  0  0  0  0  0  0
   35.4610   28.8360   48.9900 C   0  0  0  0  0  0  0  0  0  0  0  0
   36.7880   29.1240   49.2270 C   0  0  0  0  0  0  0  0  0  0  0  0
   37.2570   29.5910   50.4370 C   0  0  0  0  0  0  0  0  0  0  0  0
   36.3930   29.7970   51.4940 C   0  0  0  0  0  0  0  0  0  0  0  0
   35.0590   29.5260   51.3130 C   0  0  0  0  0  0  0  0  0  0  0  0
   38.4259   31.4801   46.3245 H   0  0  0  0  0  0  0  0  0  0  0  0
   38.0006   31.9544   43.8963 H   0  0  0  0  0  0  0  0  0  0  0  0
   35.8113   31.1832   42.8701 H   0  0  0  0  0  0  0  0  0  0  0  0
   35.7238   27.8371   47.2336 H   0  0  0  0  0  0  0  0  0  0  0  0
   34.3086   26.2924   47.9894 H   0  0  0  0  0  0  0  0  0  0  0  0
   33.2810   27.4666   48.8640 H   0  0  0  0  0  0  0  0  0  0  0  0
   32.2077   26.4622   46.7612 H   0  0  0  0  0  0  0  0  0  0  0  0
   33.4235   27.2920   45.7870 H   0  0  0  0  0  0  0  0  0  0  0  0
   31.3089   28.6707   46.1546 H   0  0  0  0  0  0  0  0  0  0  0  0
   31.6504   28.6559   47.9130 H   0  0  0  0  0  0  0  0  0  0  0  0
   32.8164   30.5195   47.5130 H   0  0  0  0  0  0  0  0  0  0  0  0
   32.8798   30.1626   45.7209 H   0  0  0  0  0  0  0  0  0  0  0  0
   37.5091   28.9738   48.4100 H   0  0  0  0  0  0  0  0  0  0  0  0
   38.3296   29.8013   50.5611 H   0  0  0  0  0  0  0  0  0  0  0  0
   36.7649   30.1699   52.4597 H   0  0  0  0  0  0  0  0  0  0  0  0
   34.3444   29.6786   52.1352 H   0  0  0  0  0  0  0  0  0  0  0  0
  1  6  2  0
  2  1  1  0
  3  2  2  0
  3  4  1  0
  4  5  2  0
  5  6  1  0
  5  7  1  0
  7  8  1  0
  8  9  1  0
  8 15  1  0
 10 11  1  0
 10  9  1  0
 12  7  1  0
 12 11  1  0
 13 14  1  0
 14 19  2  0
 15 16  2  0
 15 14  1  0
 16 17  1  0
 17 18  2  0
 19 18  1  0
  1 20  1  0
  2 21  1  0
  3 22  1  0
  8 23  1  6
  9 24  1  0
  9 25  1  0
 10 26  1  0
 10 27  1  0
 11 28  1  0
 11 29  1  0
 12 30  1  0
 12 31  1  0
 16 32  1  0
 17 33  1  0
 18 34  1  0
 19 35  1  0
M  ISO  8  20  14  21  14  22  14  23  13  24  13  25  13  26  13  27  13
M  ISO  8  28  13  29  13  30  13  31  13  32  14  33  14  34  14  35  14
M  END
>  <minimizedAffinity>  (1) 
-4.83735466

>  <minimizedRMSD>  (1) 
3.48710608

$$$$
