
     RDKit          3D

 35 37  0  0  1  0  0  0  0  0999 V2000
   39.4460   32.8720   46.7970 C   0  0  0  0  0  0  0  0  0  0  0  0
   40.3540   33.5760   45.9910 C   0  0  0  0  0  0  0  0  0  0  0  0
   40.1490   33.5900   44.6080 C   0  0  0  0  0  0  0  0  0  0  0  0
   39.0750   32.9160   44.1200 N   0  0  0  0  0  0  0  0  0  0  0  0
   38.2160   32.2480   44.9040 C   0  0  0  0  0  0  0  0  0  0  0  0
   38.4150   32.2370   46.2270 N   0  0  0  0  0  0  0  0  0  0  0  0
   37.1000   31.5540   44.3330 N   0  0  0  0  0  0  0  0  0  0  0  0
   36.7620   30.2120   44.8110 C   0  0  2  0  0  0  0  0  0  0  0  0
   36.1520   29.3580   43.7410 C   0  0  0  0  0  0  0  0  0  0  0  0
   36.5580   29.9210   42.3860 C   0  0  0  0  0  0  0  0  0  0  0  0
   35.8000   31.2340   42.2670 C   0  0  0  0  0  0  0  0  0  0  0  0
   36.3210   32.1880   43.2880 C   0  0  0  0  0  0  0  0  0  0  0  0
   33.8050   30.0670   44.5670 Cl  0  0  0  0  0  0  0  0  0  0  0  0
   34.6370   30.1430   46.1250 C   0  0  0  0  0  0  0  0  0  0  0  0
   36.0350   30.2080   46.0850 C   0  0  0  0  0  0  0  0  0  0  0  0
   36.6070   30.2640   47.3420 C   0  0  0  0  0  0  0  0  0  0  0  0
   35.8730   30.2570   48.5130 C   0  0  0  0  0  0  0  0  0  0  0  0
   34.5010   30.1910   48.4850 C   0  0  0  0  0  0  0  0  0  0  0  0
   33.8620   30.1320   47.2660 C   0  0  0  0  0  0  0  0  0  0  0  0
   39.5806   32.8424   47.8883 H   0  0  0  0  0  0  0  0  0  0  0  0
   41.2085   34.1054   46.4377 H   0  0  0  0  0  0  0  0  0  0  0  0
   40.8345   34.1288   43.9373 H   0  0  0  0  0  0  0  0  0  0  0  0
   37.7166   29.7231   45.0552 H   0  0  0  0  0  0  0  0  0  0  0  0
   36.5162   28.3246   43.8380 H   0  0  0  0  0  0  0  0  0  0  0  0
   35.0562   29.3579   43.8369 H   0  0  0  0  0  0  0  0  0  0  0  0
   37.6434   30.0956   42.3485 H   0  0  0  0  0  0  0  0  0  0  0  0
   36.3234   29.2304   41.5626 H   0  0  0  0  0  0  0  0  0  0  0  0
   35.9456   31.6543   41.2609 H   0  0  0  0  0  0  0  0  0  0  0  0
   34.7266   31.0605   42.4332 H   0  0  0  0  0  0  0  0  0  0  0  0
   36.9578   32.9271   42.7799 H   0  0  0  0  0  0  0  0  0  0  0  0
   35.4478   32.6493   43.7725 H   0  0  0  0  0  0  0  0  0  0  0  0
   37.7034   30.3169   47.4141 H   0  0  0  0  0  0  0  0  0  0  0  0
   36.3943   30.3049   49.4804 H   0  0  0  0  0  0  0  0  0  0  0  0
   33.9223   30.1854   49.4205 H   0  0  0  0  0  0  0  0  0  0  0  0
   32.7651   30.0777   47.2043 H   0  0  0  0  0  0  0  0  0  0  0  0
  2  1  2  0
  3  2  1  0
  4  3  2  0
  4  5  1  0
  5  6  2  0
  6  1  1  0
  7  8  1  0
  7  5  1  0
  8 15  1  0
  9  8  1  0
 10  9  1  0
 11 10  1  0
 11 12  1  0
 12  7  1  0
 13 14  1  0
 14 19  2  0
 15 14  1  0
 15 16  2  0
 16 17  1  0
 18 17  2  0
 19 18  1  0
  1 20  1  0
  2 21  1  0
  3 22  1  0
  8 23  1  1
  9 24  1  0
  9 25  1  0
 10 26  1  0
 10 27  1  0
 11 28  1  0
 11 29  1  0
 12 30  1  0
 12 31  1  0
 16 32  1  0
 17 33  1  0
 18 34  1  0
 19 35  1  0
M  ISO  8  20  14  21  14  22  14  23  13  24  13  25  13  26  13  27  13
M  ISO  8  28  13  29  13  30  13  31  13  32  14  33  14  34  14  35  14
M  END
>  <minimizedAffinity>  (1) 
-4.77784252

>  <minimizedRMSD>  (1) 
4.965168

$$$$
