
     RDKit          3D

 34 36  0  0  1  0  0  0  0  0999 V2000
   39.3560   32.8370   46.8000 C   0  0  0  0  0  0  0  0  0  0  0  0
   40.3040   33.4950   46.0020 C   0  0  0  0  0  0  0  0  0  0  0  0
   40.1250   33.4860   44.6200 C   0  0  0  0  0  0  0  0  0  0  0  0
   39.0360   32.8390   44.1070 N   0  0  0  0  0  0  0  0  0  0  0  0
   38.1410   32.2150   44.9080 C   0  0  0  0  0  0  0  0  0  0  0  0
   38.3080   32.2200   46.2350 N   0  0  0  0  0  0  0  0  0  0  0  0
   37.0150   31.5490   44.3230 N   0  0  0  0  0  0  0  0  0  0  0  0
   36.6470   30.2220   44.7880 C   0  0  2  0  0  0  0  0  0  0  0  0
   35.9990   29.3850   43.7150 C   0  0  0  0  0  0  0  0  0  0  0  0
   36.4300   29.9300   42.3760 C   0  0  0  0  0  0  0  0  0  0  0  0
   35.7180   31.2650   42.2450 C   0  0  0  0  0  0  0  0  0  0  0  0
   36.2530   32.2010   43.2770 C   0  0  0  0  0  0  0  0  0  0  0  0
   35.9230   30.2150   46.0630 C   0  0  0  0  0  0  0  0  0  0  0  0
   36.5740   30.2300   47.2870 C   0  0  0  0  0  0  0  0  0  0  0  0
   35.8790   30.2240   48.4810 C   0  0  0  0  0  0  0  0  0  0  0  0
   34.5000   30.2020   48.4730 C   0  0  0  0  0  0  0  0  0  0  0  0
   33.8790   30.1880   47.2460 C   0  0  0  0  0  0  0  0  0  0  0  0
   34.5660   30.1940   46.0940 N   0  0  0  0  0  0  0  0  0  0  0  0
   39.4729   32.8272   47.8937 H   0  0  0  0  0  0  0  0  0  0  0  0
   41.1666   34.0050   46.4557 H   0  0  0  0  0  0  0  0  0  0  0  0
   40.8443   33.9886   43.9567 H   0  0  0  0  0  0  0  0  0  0  0  0
   37.5988   29.7210   45.0183 H   0  0  0  0  0  0  0  0  0  0  0  0
   36.3208   28.3377   43.8130 H   0  0  0  0  0  0  0  0  0  0  0  0
   34.9037   29.4236   43.8091 H   0  0  0  0  0  0  0  0  0  0  0  0
   37.5208   30.0697   42.3488 H   0  0  0  0  0  0  0  0  0  0  0  0
   36.1785   29.2460   41.5521 H   0  0  0  0  0  0  0  0  0  0  0  0
   35.8946   31.6809   41.2421 H   0  0  0  0  0  0  0  0  0  0  0  0
   34.6366   31.1268   42.3917 H   0  0  0  0  0  0  0  0  0  0  0  0
   36.9060   32.9313   42.7768 H   0  0  0  0  0  0  0  0  0  0  0  0
   35.3849   32.6723   43.7611 H   0  0  0  0  0  0  0  0  0  0  0  0
   37.6737   30.2471   47.3080 H   0  0  0  0  0  0  0  0  0  0  0  0
   36.4244   30.2367   49.4362 H   0  0  0  0  0  0  0  0  0  0  0  0
   33.9213   30.1959   49.4085 H   0  0  0  0  0  0  0  0  0  0  0  0
   32.7798   30.1713   47.2080 H   0  0  0  0  0  0  0  0  0  0  0  0
  2  1  2  0
  3  2  1  0
  4  3  2  0
  4  5  1  0
  5  6  2  0
  6  1  1  0
  7  8  1  0
  7  5  1  0
  8 13  1  0
  9  8  1  0
 10  9  1  0
 11 10  1  0
 11 12  1  0
 12  7  1  0
 13 18  1  0
 13 14  2  0
 14 15  1  0
 16 15  2  0
 17 16  1  0
 18 17  2  0
  1 19  1  0
  2 20  1  0
  3 21  1  0
  8 22  1  1
  9 23  1  0
  9 24  1  0
 10 25  1  0
 10 26  1  0
 11 27  1  0
 11 28  1  0
 12 29  1  0
 12 30  1  0
 14 31  1  0
 15 32  1  0
 16 33  1  0
 17 34  1  0
M  ISO  8  19  14  20  14  21  14  22  13  23  13  24  13  25  13  26  13
M  ISO  8  27  13  28  13  29  13  30  13  31  14  32  14  33  14  34  14
M  END
>  <minimizedAffinity>  (1) 
-4.5827632

>  <minimizedRMSD>  (1) 
4.95713854

$$$$
