
     RDKit          3D

 17 18  0  0  0  0  0  0  0  0999 V2000
   37.4880   30.4800   50.8930 C   0  0  0  0  0  0  0  0  0  0  0  0
   37.1130   31.0860   49.6850 C   0  0  0  0  0  0  0  0  0  0  0  0
   35.8590   30.7540   49.1610 C   0  0  0  0  0  0  0  0  0  0  0  0
   35.0820   29.8670   49.8510 N   0  0  0  0  0  0  0  0  0  0  0  0
   35.4890   29.3060   51.0170 C   0  0  0  0  0  0  0  0  0  0  0  0
   36.6940   29.6150   51.5360 N   0  0  0  0  0  0  0  0  0  0  0  0
   37.9470   32.0210   48.9720 C   0  0  0  0  0  0  0  0  0  0  0  0
   38.5510   31.7290   47.7490 C   0  0  0  0  0  0  0  0  0  0  0  0
   39.2810   32.8430   47.3420 C   0  0  0  0  0  0  0  0  0  0  0  0
   39.1050   33.7760   48.3150 N   0  0  0  0  0  0  0  0  0  0  0  0
   38.3220   33.2620   49.2500 N   0  0  0  0  0  0  0  0  0  0  0  0
   38.4688   30.7240   51.3272 H   0  0  0  0  0  0  0  0  0  0  0  0
   35.5074   31.1961   48.2171 H   0  0  0  0  0  0  0  0  0  0  0  0
   34.8328   28.5958   51.5413 H   0  0  0  0  0  0  0  0  0  0  0  0
   38.4653   30.7800   47.1994 H   0  0  0  0  0  0  0  0  0  0  0  0
   39.8768   32.9466   46.4232 H   0  0  0  0  0  0  0  0  0  0  0  0
   39.5119   34.7222   48.3231 H   0  0  0  0  0  0  0  0  0  0  0  0
  1  6  2  0
  2  1  1  0
  3  2  2  0
  3  4  1  0
  4  5  2  0
  5  6  1  0
  7 11  2  0
  7  2  1  0
  8  7  1  0
  9  8  2  0
  9 10  1  0
 10 11  1  0
  1 12  1  0
  3 13  1  0
  5 14  1  0
  8 15  1  0
  9 16  1  0
 10 17  1  0
M  ISO  6  12  14  13  14  14  14  15  14  16  14  17   9
M  END
>  <minimizedAffinity>  (1) 
-4.52376938

>  <minimizedRMSD>  (1) 
2.38300347

$$$$
