
     RDKit          3D

 20 21  0  0  0  0  0  0  0  0999 V2000
   37.2920   31.4860   48.6570 C   0  0  0  0  0  0  0  0  0  0  0  0
   37.9840   31.3950   47.4620 C   0  0  0  0  0  0  0  0  0  0  0  0
   38.9310   32.4140   47.4220 C   0  0  0  0  0  0  0  0  0  0  0  0
   38.7870   33.0870   48.5880 N   0  0  0  0  0  0  0  0  0  0  0  0
   37.8280   32.5310   49.2920 N   0  0  0  0  0  0  0  0  0  0  0  0
   36.1460   29.9880   50.3080 C   0  0  0  0  0  0  0  0  0  0  0  0
   36.2280   30.5820   49.0370 C   0  0  0  0  0  0  0  0  0  0  0  0
   35.2300   30.2750   48.1140 C   0  0  0  0  0  0  0  0  0  0  0  0
   34.2440   29.4200   48.5080 N   0  0  0  0  0  0  0  0  0  0  0  0
   34.1950   28.8660   49.7350 C   0  0  0  0  0  0  0  0  0  0  0  0
   35.1480   29.1530   50.6350 N   0  0  0  0  0  0  0  0  0  0  0  0
   39.5540   34.2400   49.0180 C   0  0  0  0  0  0  0  0  0  0  0  0
   40.6210   34.4900   48.1770 F   0  0  0  0  0  0  0  0  0  0  0  0
   38.7860   35.3980   48.9810 F   0  0  0  0  0  0  0  0  0  0  0  0
   40.0410   34.1130   50.3010 F   0  0  0  0  0  0  0  0  0  0  0  0
   37.8142   30.6440   46.6764 H   0  0  0  0  0  0  0  0  0  0  0  0
   39.6457   32.6276   46.6136 H   0  0  0  0  0  0  0  0  0  0  0  0
   36.9211   30.2138   51.0551 H   0  0  0  0  0  0  0  0  0  0  0  0
   35.2376   30.7076   47.1026 H   0  0  0  0  0  0  0  0  0  0  0  0
   33.3761   28.1804   49.9983 H   0  0  0  0  0  0  0  0  0  0  0  0
  1  7  1  0
  1  5  2  0
  2  1  1  0
  3  2  2  0
  3  4  1  0
  4 12  1  0
  4  5  1  0
  6 11  2  0
  7  6  1  0
  8  9  1  0
  8  7  2  0
  9 10  2  0
 10 11  1  0
 12 15  1  0
 13 12  1  0
 14 12  1  0
  2 16  1  0
  3 17  1  0
  6 18  1  0
  8 19  1  0
 10 20  1  0
M  ISO  5  16  14  17  14  18  14  19  14  20  14
M  END
>  <minimizedAffinity>  (1) 
-5.08034706

>  <minimizedRMSD>  (1) 
1.33737957

$$$$
