
     RDKit          3D

 23 24  0  0  0  0  0  0  0  0999 V2000
   37.0190   31.0430   48.5520 C   0  0  0  0  0  0  0  0  0  0  0  0
   37.9730   31.0140   47.5210 C   0  0  0  0  0  0  0  0  0  0  0  0
   38.8690   32.0670   47.7350 C   0  0  0  0  0  0  0  0  0  0  0  0
   38.4360   32.6930   48.8730 N   0  0  0  0  0  0  0  0  0  0  0  0
   37.3580   32.0680   49.3200 N   0  0  0  0  0  0  0  0  0  0  0  0
   35.8810   29.0640   49.5760 C   0  0  0  0  0  0  0  0  0  0  0  0
   35.9430   30.0900   48.6350 C   0  0  0  0  0  0  0  0  0  0  0  0
   34.8790   30.1840   47.7190 C   0  0  0  0  0  0  0  0  0  0  0  0
   33.8600   29.2770   47.8010 N   0  0  0  0  0  0  0  0  0  0  0  0
   33.8540   28.3010   48.7370 C   0  0  0  0  0  0  0  0  0  0  0  0
   34.8600   28.1950   49.6210 N   0  0  0  0  0  0  0  0  0  0  0  0
   39.1330   33.8450   49.4040 C   0  0  0  0  0  0  0  0  0  0  0  0
   39.9940   34.5120   48.3500 C   0  0  0  0  0  0  0  0  0  0  0  0
   38.0091   30.2914   46.6924 H   0  0  0  0  0  0  0  0  0  0  0  0
   39.7392   32.3357   47.1181 H   0  0  0  0  0  0  0  0  0  0  0  0
   36.6970   28.9633   50.3067 H   0  0  0  0  0  0  0  0  0  0  0  0
   34.8676   30.9722   46.9518 H   0  0  0  0  0  0  0  0  0  0  0  0
   33.0178   27.5874   48.7749 H   0  0  0  0  0  0  0  0  0  0  0  0
   38.3933   34.5711   49.7723 H   0  0  0  0  0  0  0  0  0  0  0  0
   39.7891   33.5044   50.2186 H   0  0  0  0  0  0  0  0  0  0  0  0
   40.7724   35.1150   48.8403 H   0  0  0  0  0  0  0  0  0  0  0  0
   40.4673   33.7425   47.7224 H   0  0  0  0  0  0  0  0  0  0  0  0
   39.3672   35.1625   47.7224 H   0  0  0  0  0  0  0  0  0  0  0  0
  1  7  1  0
  1  5  2  0
  2  3  2  0
  2  1  1  0
  3  4  1  0
  4  5  1  0
  4 12  1  0
  6 11  2  0
  7  6  1  0
  8  9  1  0
  8  7  2  0
  9 10  2  0
 10 11  1  0
 13 12  1  0
  2 14  1  0
  3 15  1  0
  6 16  1  0
  8 17  1  0
 10 18  1  0
 12 19  1  0
 12 20  1  0
 13 21  1  0
 13 22  1  0
 13 23  1  0
M  ISO  8  14  14  15  14  16  14  17  14  18  14  19   8  20   8  21   8
M  ISO  2  22   8  23   8
M  END
>  <minimizedAffinity>  (1) 
-4.53033686

>  <minimizedRMSD>  (1) 
1.96604109

$$$$
