
     RDKit          3D

 23 23  0  0  0  0  0  0  0  0999 V2000
   34.8140   28.3880   49.3680 C   0  0  0  0  0  0  0  0  0  0  0  0
   34.1250   28.8060   48.3530 C   0  0  0  0  0  0  0  0  0  0  0  0
   37.2550   30.1500   51.4540 C   0  0  0  0  0  0  0  0  0  0  0  0
   38.1070   30.7280   50.5000 C   0  0  0  0  0  0  0  0  0  0  0  0
   37.8220   30.4960   49.1490 C   0  0  0  0  0  0  0  0  0  0  0  0
   36.7240   29.7180   48.8480 N   0  0  0  0  0  0  0  0  0  0  0  0
   35.9480   29.1950   49.7990 C   0  0  0  0  0  0  0  0  0  0  0  0
   36.2130   29.4100   51.0910 N   0  0  0  0  0  0  0  0  0  0  0  0
   32.9420   28.1480   47.7530 C   0  0  0  0  0  0  0  0  0  0  0  0
   32.2710   27.3610   48.7010 O   0  0  0  0  0  0  0  0  0  0  0  0
   29.8510   26.5660   48.4990 O   0  0  0  0  0  0  0  0  0  0  0  0
   30.6400   27.8570   48.7340 P   0  0  0  0  0  0  0  0  0  0  0  0
   30.3990   28.9550   47.4730 O   0  0  0  0  0  0  0  0  0  0  0  0
   30.2320   28.5430   50.2280 O   0  0  0  0  0  0  0  0  0  0  0  0
   34.5513   27.4545   49.8871 H   0  0  0  0  0  0  0  0  0  0  0  0
   34.4533   29.7477   47.8889 H   0  0  0  0  0  0  0  0  0  0  0  0
   37.4540   30.3130   52.5235 H   0  0  0  0  0  0  0  0  0  0  0  0
   38.9682   31.3416   50.8031 H   0  0  0  0  0  0  0  0  0  0  0  0
   38.4530   30.9202   48.3541 H   0  0  0  0  0  0  0  0  0  0  0  0
   32.2549   28.9189   47.3740 H   0  0  0  0  0  0  0  0  0  0  0  0
   33.2804   27.4975   46.9331 H   0  0  0  0  0  0  0  0  0  0  0  0
   30.2026   29.8500   47.8478 H   0  0  0  0  0  0  0  0  0  0  0  0
   30.5733   27.9691   50.9589 H   0  0  0  0  0  0  0  0  0  0  0  0
  1  7  1  0
  2  1  2  0
  4  3  2  0
  5  4  1  0
  6  5  2  0
  6  7  1  0
  7  8  2  0
  8  3  1  0
  9  2  1  0
  9 10  1  0
 10 12  1  0
 11 12  2  0
 12 14  1  0
 13 12  1  0
  1 15  1  0
  2 16  1  0
  3 17  1  0
  4 18  1  0
  5 19  1  0
  9 20  1  0
  9 21  1  0
 13 22  1  0
 14 23  1  0
M  ISO  7  17  14  18  14  19  14  20   8  21   8  22   3  23   3
M  END
>  <minimizedAffinity>  (1) 
-4.68485022

>  <minimizedRMSD>  (1) 
0.696922779

$$$$
