
     RDKit          3D

 39 42  0  0  1  0  0  0  0  0999 V2000
   36.4070   30.8220   48.4710 C   0  0  1  0  0  0  0  0  0  0  0  0
   37.6170   30.1980   49.1870 C   0  0  0  0  0  0  0  0  0  0  0  0
   37.7700   31.0000   47.9280 C   0  0  2  0  0  0  0  0  0  0  0  0
   39.4850   32.6600   47.1800 C   0  0  0  0  0  0  0  0  0  0  0  0
   38.5550   32.2340   48.0980 C   0  0  0  0  0  0  0  0  0  0  0  0
   38.3340   32.9430   49.2590 C   0  0  0  0  0  0  0  0  0  0  0  0
   39.0970   34.0910   49.4380 C   0  0  0  0  0  0  0  0  0  0  0  0
   40.0370   34.5320   48.5260 C   0  0  0  0  0  0  0  0  0  0  0  0
   40.2450   33.8080   47.3660 C   0  0  0  0  0  0  0  0  0  0  0  0
   39.3890   32.0420   44.6620 N   0  0  0  0  0  0  0  0  0  0  0  0
   39.7470   31.9890   45.9220 C   0  0  0  0  0  0  0  0  0  0  0  0
   40.6680   30.8960   45.8490 N   0  0  0  0  0  0  0  0  0  0  0  0
   39.8510   31.3290   44.0690 H   0  0  0  0  0  0  0  0  0  0  0  0
   34.1610   28.2130   47.4660 C   0  0  0  0  0  0  0  0  0  0  0  0
   34.1820   28.9890   46.3030 C   0  0  0  0  0  0  0  0  0  0  0  0
   35.0350   30.0750   46.5380 C   0  0  0  0  0  0  0  0  0  0  0  0
   35.4920   29.9340   47.7880 N   0  0  0  0  0  0  0  0  0  0  0  0
   34.9650   28.8370   48.3090 N   0  0  0  0  0  0  0  0  0  0  0  0
   33.8480   25.7520   47.1700 C   0  0  0  0  0  0  0  0  0  0  0  0
   33.3780   27.0070   47.5830 C   0  0  0  0  0  0  0  0  0  0  0  0
   32.1070   27.0560   48.1180 C   0  0  0  0  0  0  0  0  0  0  0  0
   31.3870   25.8950   48.2150 N   0  0  0  0  0  0  0  0  0  0  0  0
   31.8850   24.7150   47.8040 C   0  0  0  0  0  0  0  0  0  0  0  0
   33.1240   24.6320   47.2760 N   0  0  0  0  0  0  0  0  0  0  0  0
   35.5913   31.5034   48.7545 H   0  0  0  0  0  0  0  0  0  0  0  0
   37.9626   30.6041   50.1491 H   0  0  0  0  0  0  0  0  0  0  0  0
   37.9026   29.1887   49.5183 H   0  0  0  0  0  0  0  0  0  0  0  0
   38.1499   30.8583   46.9054 H   0  0  0  0  0  0  0  0  0  0  0  0
   37.5932   32.6177   50.0043 H   0  0  0  0  0  0  0  0  0  0  0  0
   38.9445   34.6799   50.3545 H   0  0  0  0  0  0  0  0  0  0  0  0
   40.6133   35.4485   48.7204 H   0  0  0  0  0  0  0  0  0  0  0  0
   40.9850   34.1293   46.6182 H   0  0  0  0  0  0  0  0  0  0  0  0
   41.1545   30.5749   46.6982 H   0  0  0  0  0  0  0  0  0  0  0  0
   40.8444   30.4305   44.9473 H   0  0  0  0  0  0  0  0  0  0  0  0
   33.6299   28.7842   45.3739 H   0  0  0  0  0  0  0  0  0  0  0  0
   35.2807   30.8839   45.8342 H   0  0  0  0  0  0  0  0  0  0  0  0
   34.8580   25.6854   46.7393 H   0  0  0  0  0  0  0  0  0  0  0  0
   31.6799   28.0101   48.4603 H   0  0  0  0  0  0  0  0  0  0  0  0
   31.2739   23.8054   47.8996 H   0  0  0  0  0  0  0  0  0  0  0  0
  1  2  1  0
  3  5  1  0
  3  1  1  0
  3  2  1  0
  4  9  2  0
  4  5  1  0
  5  6  2  0
  6  7  1  0
  8  7  2  0
  9  8  1  0
 10 11  2  0
 11  4  1  0
 12 11  1  0
 13 10  1  0
 14 20  1  0
 14 18  2  0
 15 16  2  0
 15 14  1  0
 16 17  1  0
 17 18  1  0
 17  1  1  0
 19 24  2  0
 19 20  1  0
 20 21  2  0
 21 22  1  0
 23 22  2  0
 24 23  1  0
  1 25  1  1
  2 26  1  0
  2 27  1  0
  3 28  1  6
  6 29  1  0
  7 30  1  0
  8 31  1  0
  9 32  1  0
 12 33  1  0
 12 34  1  0
 15 35  1  0
 16 36  1  0
 19 37  1  0
 21 38  1  0
 23 39  1  0
M  ISO  8  25  13  26  13  27  13  28  13  29  14  30  14  31  14  32  14
M  ISO  5  35  14  36  14  37  14  38  14  39  14
M  END
>  <minimizedAffinity>  (1) 
-6.17322636

>  <minimizedRMSD>  (1) 
4.31935883

$$$$
