
     RDKit          3D

 31 34  0  0  1  0  0  0  0  0999 V2000
   34.4540   29.6120   47.8970 C   0  0  0  0  0  0  0  0  0  0  0  0
   35.3750   29.7900   46.8560 C   0  0  0  0  0  0  0  0  0  0  0  0
   36.4070   30.6100   47.3400 C   0  0  0  0  0  0  0  0  0  0  0  0
   36.0930   30.8930   48.6120 N   0  0  0  0  0  0  0  0  0  0  0  0
   34.9520   30.2980   48.9050 N   0  0  0  0  0  0  0  0  0  0  0  0
   32.8170   27.9100   48.7200 C   0  0  0  0  0  0  0  0  0  0  0  0
   33.2570   28.8160   47.7460 C   0  0  0  0  0  0  0  0  0  0  0  0
   32.4940   28.9380   46.5970 C   0  0  0  0  0  0  0  0  0  0  0  0
   31.3700   28.1900   46.4560 N   0  0  0  0  0  0  0  0  0  0  0  0
   30.9810   27.3230   47.4260 C   0  0  0  0  0  0  0  0  0  0  0  0
   31.7080   27.1790   48.5690 N   0  0  0  0  0  0  0  0  0  0  0  0
   36.8710   31.7090   49.5070 C   0  0  1  0  0  0  0  0  0  0  0  0
   38.2170   31.1380   50.0140 C   0  0  0  0  0  0  0  0  0  0  0  0
   38.1720   32.2630   49.0580 C   0  0  2  0  0  0  0  0  0  0  0  0
   38.5550   33.6630   49.4030 C   0  0  0  0  0  0  0  0  0  0  0  0
   39.7130   34.2810   48.6360 C   0  0  0  0  0  0  0  0  0  0  0  0
   39.7600   34.0470   50.1360 C   0  0  0  0  0  0  0  0  0  0  0  0
   35.3027   29.3648   45.8441 H   0  0  0  0  0  0  0  0  0  0  0  0
   37.2944   30.9514   46.7868 H   0  0  0  0  0  0  0  0  0  0  0  0
   33.4054   27.7961   49.6424 H   0  0  0  0  0  0  0  0  0  0  0  0
   32.7968   29.6368   45.8033 H   0  0  0  0  0  0  0  0  0  0  0  0
   30.0660   26.7286   47.2868 H   0  0  0  0  0  0  0  0  0  0  0  0
   35.9613   32.1332   49.9571 H   0  0  0  0  0  0  0  0  0  0  0  0
   38.5337   31.3074   51.0537 H   0  0  0  0  0  0  0  0  0  0  0  0
   38.6902   30.1453   50.0369 H   0  0  0  0  0  0  0  0  0  0  0  0
   38.6580   32.4251   48.0846 H   0  0  0  0  0  0  0  0  0  0  0  0
   37.4926   33.8781   49.5903 H   0  0  0  0  0  0  0  0  0  0  0  0
   40.3224   33.6663   47.9572 H   0  0  0  0  0  0  0  0  0  0  0  0
   39.8488   35.1410   47.9637 H   0  0  0  0  0  0  0  0  0  0  0  0
   39.7309   34.9048   50.8240 H   0  0  0  0  0  0  0  0  0  0  0  0
   40.4504   33.5215   50.8122 H   0  0  0  0  0  0  0  0  0  0  0  0
  1  5  2  0
  2  3  2  0
  2  1  1  0
  3  4  1  0
  4  5  1  0
  4 12  1  0
  7  1  1  0
  7  6  2  0
  8  7  1  0
  9  8  2  0
  9 10  1  0
 10 11  2  0
 11  6  1  0
 12 13  1  0
 14 15  1  0
 14 12  1  0
 14 13  1  0
 15 17  1  0
 16 15  1  0
 16 17  1  0
  2 18  1  0
  3 19  1  0
  6 20  1  0
  8 21  1  0
 10 22  1  0
 12 23  1  1
 13 24  1  0
 13 25  1  0
 14 26  1  6
 15 27  1  0
 16 28  1  0
 16 29  1  0
 17 30  1  0
 17 31  1  0
M  ISO  8  18  14  19  14  20  14  21  14  22  14  23  13  24  13  25  13
M  ISO  6  26  13  27  13  28  13  29  13  30  13  31  13
M  END
>  <minimizedAffinity>  (1) 
-5.01210976

>  <minimizedRMSD>  (1) 
2.92403889

$$$$
