
     RDKit          3D

 36 39  0  0  1  0  0  0  0  0999 V2000
   36.2140   30.0200   48.8940 C   0  0  0  0  0  0  0  0  0  0  0  0
   36.0630   29.2930   50.0690 C   0  0  0  0  0  0  0  0  0  0  0  0
   35.0530   28.3420   49.8600 C   0  0  0  0  0  0  0  0  0  0  0  0
   34.6300   28.5150   48.5980 N   0  0  0  0  0  0  0  0  0  0  0  0
   35.3220   29.4890   48.0760 N   0  0  0  0  0  0  0  0  0  0  0  0
   38.1350   31.1100   47.7140 C   0  0  0  0  0  0  0  0  0  0  0  0
   37.1630   31.0880   48.7360 C   0  0  0  0  0  0  0  0  0  0  0  0
   37.1560   32.1600   49.6050 C   0  0  0  0  0  0  0  0  0  0  0  0
   38.0580   33.1600   49.4440 N   0  0  0  0  0  0  0  0  0  0  0  0
   38.9720   33.1430   48.4530 C   0  0  0  0  0  0  0  0  0  0  0  0
   39.0110   32.1120   47.5820 N   0  0  0  0  0  0  0  0  0  0  0  0
   33.6010   27.7620   47.9410 C   0  0  1  0  0  0  0  0  0  0  0  0
   32.1820   27.7790   48.5660 C   0  0  0  0  0  0  0  0  0  0  0  0
   32.4740   28.4620   47.2790 C   0  0  2  0  0  0  0  0  0  0  0  0
   32.1090   27.9590   46.0100 N   0  0  0  0  0  0  0  0  0  0  0  0
   30.7260   27.8090   45.7290 C   0  0  0  0  0  0  0  0  0  0  0  0
   30.6310   26.7040   44.6900 C   0  0  0  0  0  0  0  0  0  0  0  0
   32.0750   26.3990   44.3180 C   0  0  0  0  0  0  0  0  0  0  0  0
   32.8650   26.8830   45.4920 C   0  0  0  0  0  0  0  0  0  0  0  0
   36.6341   29.4376   50.9979 H   0  0  0  0  0  0  0  0  0  0  0  0
   34.6821   27.6027   50.5851 H   0  0  0  0  0  0  0  0  0  0  0  0
   38.1739   30.2737   47.0005 H   0  0  0  0  0  0  0  0  0  0  0  0
   36.4228   32.2032   50.4239 H   0  0  0  0  0  0  0  0  0  0  0  0
   39.6883   33.9718   48.3537 H   0  0  0  0  0  0  0  0  0  0  0  0
   34.3271   26.9978   47.6267 H   0  0  0  0  0  0  0  0  0  0  0  0
   31.5723   26.8636   48.5819 H   0  0  0  0  0  0  0  0  0  0  0  0
   31.7519   28.0750   49.5342 H   0  0  0  0  0  0  0  0  0  0  0  0
   32.2319   29.4834   46.9502 H   0  0  0  0  0  0  0  0  0  0  0  0
   30.1787   27.5258   46.6402 H   0  0  0  0  0  0  0  0  0  0  0  0
   30.2835   28.7473   45.3631 H   0  0  0  0  0  0  0  0  0  0  0  0
   30.1432   25.8138   45.1138 H   0  0  0  0  0  0  0  0  0  0  0  0
   30.0306   27.0028   43.8181 H   0  0  0  0  0  0  0  0  0  0  0  0
   32.2198   25.3189   44.1686 H   0  0  0  0  0  0  0  0  0  0  0  0
   32.3791   26.8811   43.3772 H   0  0  0  0  0  0  0  0  0  0  0  0
   32.9723   26.0865   46.2431 H   0  0  0  0  0  0  0  0  0  0  0  0
   33.8850   27.1856   45.2128 H   0  0  0  0  0  0  0  0  0  0  0  0
  1  2  1  0
  3  2  2  0
  4  3  1  0
  5  4  1  0
  5  1  2  0
  6  7  2  0
  7  1  1  0
  7  8  1  0
  9  8  2  0
 10  9  1  0
 11  6  1  0
 11 10  2  0
 12 13  1  0
 12  4  1  0
 14 12  1  0
 14 13  1  0
 15 16  1  0
 15 14  1  0
 17 16  1  0
 18 17  1  0
 18 19  1  0
 19 15  1  0
  2 20  1  0
  3 21  1  0
  6 22  1  0
  8 23  1  0
 10 24  1  0
 12 25  1  6
 13 26  1  0
 13 27  1  0
 14 28  1  1
 16 29  1  0
 16 30  1  0
 17 31  1  0
 17 32  1  0
 18 33  1  0
 18 34  1  0
 19 35  1  0
 19 36  1  0
M  ISO  8  20  14  21  14  22  14  23  14  24  14  25  13  26  13  27  13
M  ISO  8  28  13  29  13  30  13  31  13  32  13  33  13  34  13  35  13
M  ISO  1  36  13
M  END
>  <minimizedAffinity>  (1) 
-4.61565161

>  <minimizedRMSD>  (1) 
8.65929794

$$$$
