
     RDKit          3D

 31 34  0  0  1  0  0  0  0  0999 V2000
   32.3530   27.1490   46.3780 C   0  0  0  0  0  0  0  0  0  0  0  0
   33.1900   27.5680   45.3590 C   0  0  0  0  0  0  0  0  0  0  0  0
   34.0980   28.4880   45.9070 C   0  0  0  0  0  0  0  0  0  0  0  0
   33.7900   28.5930   47.2070 N   0  0  0  0  0  0  0  0  0  0  0  0
   32.7660   27.7980   47.4520 N   0  0  0  0  0  0  0  0  0  0  0  0
   31.5130   24.9080   45.6380 C   0  0  0  0  0  0  0  0  0  0  0  0
   31.2890   26.1970   46.1860 C   0  0  0  0  0  0  0  0  0  0  0  0
   29.9890   26.5110   46.5340 C   0  0  0  0  0  0  0  0  0  0  0  0
   29.0080   25.5840   46.3370 N   0  0  0  0  0  0  0  0  0  0  0  0
   29.2660   24.3760   45.8170 C   0  0  0  0  0  0  0  0  0  0  0  0
   30.5230   24.0240   45.4600 N   0  0  0  0  0  0  0  0  0  0  0  0
   34.4600   29.4310   48.1760 C   0  0  1  0  0  0  0  0  0  0  0  0
   34.3190   29.0230   49.6660 C   0  0  0  0  0  0  0  0  0  0  0  0
   35.6170   28.9140   48.9230 C   0  0  2  0  0  0  0  0  0  0  0  0
   36.6880   29.9300   49.2550 C   0  0  0  0  0  0  0  0  0  0  0  0
   37.4530   30.1570   50.4610 C   0  0  0  0  0  0  0  0  0  0  0  0
   38.3390   31.1910   50.3660 C   0  0  0  0  0  0  0  0  0  0  0  0
   38.5450   31.9870   49.2670 C   0  0  0  0  0  0  0  0  0  0  0  0
   37.2710   31.1960   48.0640 S   0  0  0  0  0  0  0  0  0  0  0  0
   33.1511   27.2398   44.3098 H   0  0  0  0  0  0  0  0  0  0  0  0
   34.9023   29.0173   45.3751 H   0  0  0  0  0  0  0  0  0  0  0  0
   32.5358   24.6246   45.3491 H   0  0  0  0  0  0  0  0  0  0  0  0
   29.7487   27.4946   46.9638 H   0  0  0  0  0  0  0  0  0  0  0  0
   28.4431   23.6594   45.6782 H   0  0  0  0  0  0  0  0  0  0  0  0
   34.2844   30.3338   47.5726 H   0  0  0  0  0  0  0  0  0  0  0  0
   34.1852   29.7903   50.4428 H   0  0  0  0  0  0  0  0  0  0  0  0
   33.6772   28.3405   50.2424 H   0  0  0  0  0  0  0  0  0  0  0  0
   36.3279   28.0892   48.7671 H   0  0  0  0  0  0  0  0  0  0  0  0
   37.3320   29.5518   51.3716 H   0  0  0  0  0  0  0  0  0  0  0  0
   38.9470   31.4074   51.2568 H   0  0  0  0  0  0  0  0  0  0  0  0
   39.2360   32.8299   49.1183 H   0  0  0  0  0  0  0  0  0  0  0  0
  1  5  2  0
  2  3  2  0
  2  1  1  0
  3  4  1  0
  4  5  1  0
  4 12  1  0
  6  7  2  0
  7  1  1  0
  7  8  1  0
  9  8  2  0
 10  9  1  0
 11  6  1  0
 11 10  2  0
 12 14  1  0
 12 13  1  0
 14 15  1  0
 14 13  1  0
 15 16  2  0
 17 16  1  0
 18 17  2  0
 19 15  1  0
 19 18  1  0
  2 20  1  0
  3 21  1  0
  6 22  1  0
  8 23  1  0
 10 24  1  0
 12 25  1  1
 13 26  1  0
 13 27  1  0
 14 28  1  6
 16 29  1  0
 17 30  1  0
 18 31  1  0
M  ISO  8  20  14  21  14  22  14  23  14  24  14  25  13  26  13  27  13
M  ISO  4  28  13  29  14  30  14  31  14
M  END
>  <minimizedAffinity>  (1) 
-4.33140612

>  <minimizedRMSD>  (1) 
6.59177303

$$$$
