
     RDKit          3D

 25 27  0  0  1  0  0  0  0  0999 V2000
   36.6560   30.5950   48.3530 C   0  0  0  0  0  0  0  0  0  0  0  0
   37.8520   30.4210   47.6840 C   0  0  0  0  0  0  0  0  0  0  0  0
   38.6340   31.5620   47.8620 C   0  0  0  0  0  0  0  0  0  0  0  0
   37.8910   32.3890   48.6320 N   0  0  0  0  0  0  0  0  0  0  0  0
   36.7610   31.7940   48.8920 N   0  0  0  0  0  0  0  0  0  0  0  0
   35.4210   28.7190   49.4590 C   0  0  0  0  0  0  0  0  0  0  0  0
   35.6120   29.6090   48.3790 C   0  0  0  0  0  0  0  0  0  0  0  0
   34.7340   29.4980   47.3110 C   0  0  0  0  0  0  0  0  0  0  0  0
   33.7490   28.5580   47.3500 N   0  0  0  0  0  0  0  0  0  0  0  0
   33.6030   27.7300   48.4000 C   0  0  0  0  0  0  0  0  0  0  0  0
   34.4380   27.8090   49.4540 N   0  0  0  0  0  0  0  0  0  0  0  0
   38.2830   33.7110   49.0910 C   0  0  1  0  0  0  0  0  0  0  0  0
   39.5490   33.7800   49.9960 C   0  0  0  0  0  0  0  0  0  0  0  0
   39.5230   34.3220   48.6070 C   0  0  2  0  0  0  0  0  0  0  0  0
   39.6510   35.7110   48.5000 O   0  0  0  0  0  0  0  0  0  0  0  0
   38.1399   29.5301   47.1066 H   0  0  0  0  0  0  0  0  0  0  0  0
   39.6411   31.7494   47.4612 H   0  0  0  0  0  0  0  0  0  0  0  0
   36.0962   28.7745   50.3256 H   0  0  0  0  0  0  0  0  0  0  0  0
   34.8323   30.1631   46.4404 H   0  0  0  0  0  0  0  0  0  0  0  0
   32.7957   26.9828   48.3979 H   0  0  0  0  0  0  0  0  0  0  0  0
   37.2372   34.0483   49.1402 H   0  0  0  0  0  0  0  0  0  0  0  0
   39.5803   34.4610   50.8593 H   0  0  0  0  0  0  0  0  0  0  0  0
   40.1646   33.0596   50.5547 H   0  0  0  0  0  0  0  0  0  0  0  0
   40.0976   34.1567   47.6837 H   0  0  0  0  0  0  0  0  0  0  0  0
   39.6877   36.1097   49.4054 H   0  0  0  0  0  0  0  0  0  0  0  0
  1  7  1  0
  1  5  2  0
  2  3  2  0
  2  1  1  0
  3  4  1  0
  4  5  1  0
  4 12  1  0
  7  6  2  0
  8  9  2  0
  8  7  1  0
  9 10  1  0
 10 11  2  0
 11  6  1  0
 12 13  1  0
 14 12  1  0
 14 13  1  0
 15 14  1  0
  2 16  1  0
  3 17  1  0
  6 18  1  0
  8 19  1  0
 10 20  1  0
 12 21  1  1
 13 22  1  0
 13 23  1  0
 14 24  1  6
 15 25  1  0
M  ISO  8  16  14  17  14  18  14  19  14  20  14  21  13  22  13  23  13
M  ISO  2  24  13  25   3
M  END
>  <minimizedAffinity>  (1) 
-4.13576174

>  <minimizedRMSD>  (1) 
0.33217752

$$$$
