
     RDKit          3D

 38 42  0  0  1  0  0  0  0  0999 V2000
   34.5800   29.5500   49.4900 C   0  0  1  0  0  0  0  0  0  0  0  0
   35.4710   29.1190   50.6900 C   0  0  0  0  0  0  0  0  0  0  0  0
   36.0110   29.2480   49.3140 C   0  0  2  0  0  0  0  0  0  0  0  0
   31.6200   27.6090   48.7850 C   0  0  0  0  0  0  0  0  0  0  0  0
   32.5580   26.9040   48.0670 C   0  0  0  0  0  0  0  0  0  0  0  0
   33.8050   27.5310   48.2290 C   0  0  0  0  0  0  0  0  0  0  0  0
   33.5880   28.5900   49.0340 N   0  0  0  0  0  0  0  0  0  0  0  0
   32.3130   28.6040   49.3360 N   0  0  0  0  0  0  0  0  0  0  0  0
   29.5020   27.2140   50.0720 C   0  0  0  0  0  0  0  0  0  0  0  0
   30.2220   27.2670   48.8620 C   0  0  0  0  0  0  0  0  0  0  0  0
   29.5230   26.9720   47.6970 C   0  0  0  0  0  0  0  0  0  0  0  0
   28.2120   26.6560   47.7930 N   0  0  0  0  0  0  0  0  0  0  0  0
   27.5570   26.6150   48.9710 C   0  0  0  0  0  0  0  0  0  0  0  0
   28.2120   26.9000   50.1410 N   0  0  0  0  0  0  0  0  0  0  0  0
   36.9490   30.3740   49.0120 C   0  0  0  0  0  0  0  0  0  0  0  0
   37.9590   30.3230   48.0350 C   0  0  0  0  0  0  0  0  0  0  0  0
   38.6190   31.5040   48.0240 N   0  0  0  0  0  0  0  0  0  0  0  0
   38.0450   32.2760   48.9630 C   0  0  0  0  0  0  0  0  0  0  0  0
   37.0460   31.6060   49.5580 N   0  0  0  0  0  0  0  0  0  0  0  0
   38.4080   33.6690   49.3420 C   0  0  0  0  0  0  0  0  0  0  0  0
   39.6210   33.9920   50.0900 C   0  0  0  0  0  0  0  0  0  0  0  0
   39.6370   34.1960   48.6130 C   0  0  0  0  0  0  0  0  0  0  0  0
   33.9353   30.4046   49.2369 H   0  0  0  0  0  0  0  0  0  0  0  0
   35.7481   29.8475   51.4662 H   0  0  0  0  0  0  0  0  0  0  0  0
   35.4379   28.3289   51.4546 H   0  0  0  0  0  0  0  0  0  0  0  0
   36.5657   28.5664   48.6524 H   0  0  0  0  0  0  0  0  0  0  0  0
   32.3646   26.0022   47.4676 H   0  0  0  0  0  0  0  0  0  0  0  0
   34.7638   27.2205   47.7882 H   0  0  0  0  0  0  0  0  0  0  0  0
   30.0342   27.4441   51.0068 H   0  0  0  0  0  0  0  0  0  0  0  0
   30.0255   26.9952   46.7188 H   0  0  0  0  0  0  0  0  0  0  0  0
   26.4894   26.3510   48.9932 H   0  0  0  0  0  0  0  0  0  0  0  0
   38.1771   29.4627   47.3852 H   0  0  0  0  0  0  0  0  0  0  0  0
   39.4082   31.7616   47.4144 H   0  0  0  0  0  0  0  0  0  0  0  0
   37.3569   33.9472   49.5090 H   0  0  0  0  0  0  0  0  0  0  0  0
   39.6310   34.8644   50.7599 H   0  0  0  0  0  0  0  0  0  0  0  0
   40.2581   33.4346   50.7925 H   0  0  0  0  0  0  0  0  0  0  0  0
   40.2275   33.5301   47.9666 H   0  0  0  0  0  0  0  0  0  0  0  0
   39.8533   35.0340   47.9341 H   0  0  0  0  0  0  0  0  0  0  0  0
  1  2  1  0
  3  1  1  0
  3  2  1  0
  4 10  1  0
  4  8  2  0
  5  6  2  0
  5  4  1  0
  6  7  1  0
  7  8  1  0
  7  1  1  0
  9 14  2  0
 10  9  1  0
 11 12  1  0
 11 10  2  0
 12 13  2  0
 13 14  1  0
 15  3  1  0
 15 19  1  0
 16 15  2  0
 17 16  1  0
 17 18  1  0
 18 20  1  0
 18 19  2  0
 20 21  1  0
 22 20  1  0
 22 21  1  0
  1 23  1  1
  2 24  1  0
  2 25  1  0
  3 26  1  6
  5 27  1  0
  6 28  1  0
  9 29  1  0
 11 30  1  0
 13 31  1  0
 16 32  1  0
 17 33  1  0
 20 34  1  0
 21 35  1  0
 21 36  1  0
 22 37  1  0
 22 38  1  0
M  ISO  8  23  13  24  13  25  13  26  13  27  14  28  14  29  14  30  14
M  ISO  8  31  14  32  14  33   9  34  13  35  13  36  13  37  13  38  13
M  END
>  <minimizedAffinity>  (1) 
-6.13085365

>  <minimizedRMSD>  (1) 
2.64971137

$$$$
