
     RDKit          3D

 37 40  0  0  1  0  0  0  0  0999 V2000
   34.6950   29.5810   49.4810 C   0  0  1  0  0  0  0  0  0  0  0  0
   35.5600   29.1310   50.7100 C   0  0  0  0  0  0  0  0  0  0  0  0
   36.1240   29.2510   49.3410 C   0  0  2  0  0  0  0  0  0  0  0  0
   31.7180   27.6650   48.8020 C   0  0  0  0  0  0  0  0  0  0  0  0
   32.6460   26.9510   48.0620 C   0  0  0  0  0  0  0  0  0  0  0  0
   33.8950   27.5800   48.2220 C   0  0  0  0  0  0  0  0  0  0  0  0
   33.6910   28.6340   49.0350 N   0  0  0  0  0  0  0  0  0  0  0  0
   32.4180   28.6450   49.3470 N   0  0  0  0  0  0  0  0  0  0  0  0
   29.5920   27.3130   50.0940 C   0  0  0  0  0  0  0  0  0  0  0  0
   30.3220   27.3240   48.8870 C   0  0  0  0  0  0  0  0  0  0  0  0
   29.6260   26.9820   47.7400 C   0  0  0  0  0  0  0  0  0  0  0  0
   28.3080   26.6630   47.8320 N   0  0  0  0  0  0  0  0  0  0  0  0
   27.6610   26.6700   49.0160 C   0  0  0  0  0  0  0  0  0  0  0  0
   28.3120   27.0010   50.1670 N   0  0  0  0  0  0  0  0  0  0  0  0
   37.0980   30.3550   49.0410 C   0  0  0  0  0  0  0  0  0  0  0  0
   37.9150   30.3760   47.8980 C   0  0  0  0  0  0  0  0  0  0  0  0
   38.6600   31.5100   47.9640 N   0  0  0  0  0  0  0  0  0  0  0  0
   38.3250   32.1760   49.1030 C   0  0  0  0  0  0  0  0  0  0  0  0
   37.3730   31.4730   49.7610 N   0  0  0  0  0  0  0  0  0  0  0  0
   38.8530   33.4720   49.6370 C   0  0  0  0  0  0  0  0  0  0  0  0
   39.6790   34.2240   48.6320 C   0  0  0  0  0  0  0  0  0  0  0  0
   34.0783   30.4467   49.1977 H   0  0  0  0  0  0  0  0  0  0  0  0
   35.8361   29.8547   51.4911 H   0  0  0  0  0  0  0  0  0  0  0  0
   35.4990   28.3427   51.4748 H   0  0  0  0  0  0  0  0  0  0  0  0
   36.6793   28.5558   48.6942 H   0  0  0  0  0  0  0  0  0  0  0  0
   32.4434   26.0541   47.4582 H   0  0  0  0  0  0  0  0  0  0  0  0
   34.8499   27.2713   47.7716 H   0  0  0  0  0  0  0  0  0  0  0  0
   30.1174   27.5785   51.0232 H   0  0  0  0  0  0  0  0  0  0  0  0
   30.1343   26.9686   46.7646 H   0  0  0  0  0  0  0  0  0  0  0  0
   26.5940   26.4051   49.0529 H   0  0  0  0  0  0  0  0  0  0  0  0
   37.9455   29.6182   47.1012 H   0  0  0  0  0  0  0  0  0  0  0  0
   39.3587   31.8139   47.2709 H   0  0  0  0  0  0  0  0  0  0  0  0
   38.0018   34.1023   49.9341 H   0  0  0  0  0  0  0  0  0  0  0  0
   39.5050   33.2366   50.4911 H   0  0  0  0  0  0  0  0  0  0  0  0
   40.3935   34.8745   49.1577 H   0  0  0  0  0  0  0  0  0  0  0  0
   40.2287   33.5099   48.0013 H   0  0  0  0  0  0  0  0  0  0  0  0
   39.0195   34.8382   48.0013 H   0  0  0  0  0  0  0  0  0  0  0  0
  1  2  1  0
  3  1  1  0
  3  2  1  0
  4 10  1  0
  4  8  2  0
  5  6  2  0
  5  4  1  0
  6  7  1  0
  7  8  1  0
  7  1  1  0
  9 14  2  0
 10  9  1  0
 11 12  1  0
 11 10  2  0
 12 13  2  0
 13 14  1  0
 15  3  1  0
 15 19  1  0
 16 17  1  0
 16 15  2  0
 17 18  1  0
 18 20  1  0
 18 19  2  0
 21 20  1  0
  1 22  1  1
  2 23  1  0
  2 24  1  0
  3 25  1  6
  5 26  1  0
  6 27  1  0
  9 28  1  0
 11 29  1  0
 13 30  1  0
 16 31  1  0
 17 32  1  0
 20 33  1  0
 20 34  1  0
 21 35  1  0
 21 36  1  0
 21 37  1  0
M  ISO  8  22  13  23  13  24  13  25  13  26  14  27  14  28  14  29  14
M  ISO  8  30  14  31  14  32   9  33   8  34   8  35   8  36   8  37   8
M  END
>  <minimizedAffinity>  (1) 
-5.89970779

>  <minimizedRMSD>  (1) 
2.61062002

$$$$
