
     RDKit          3D

 33 36  0  0  1  0  0  0  0  0999 V2000
   35.6600   30.4540   48.4320 C   0  0  1  0  0  0  0  0  0  0  0  0
   36.7550   29.5670   49.1210 C   0  0  0  0  0  0  0  0  0  0  0  0
   37.0510   30.4230   47.9440 C   0  0  2  0  0  0  0  0  0  0  0  0
   37.9090   31.6410   48.1270 C   0  0  0  0  0  0  0  0  0  0  0  0
   38.5460   32.3120   47.0690 C   0  0  0  0  0  0  0  0  0  0  0  0
   39.2320   33.3570   47.6040 N   0  0  0  0  0  0  0  0  0  0  0  0
   39.0320   33.3390   48.9510 C   0  0  0  0  0  0  0  0  0  0  0  0
   38.2340   32.3060   49.2620 N   0  0  0  0  0  0  0  0  0  0  0  0
   39.5970   34.2860   49.8410 N   0  0  0  0  0  0  0  0  0  0  0  0
   32.7600   28.6320   47.3100 C   0  0  0  0  0  0  0  0  0  0  0  0
   33.4480   28.7740   46.1060 C   0  0  0  0  0  0  0  0  0  0  0  0
   34.6320   29.4800   46.3680 C   0  0  0  0  0  0  0  0  0  0  0  0
   34.6320   29.7400   47.6910 N   0  0  0  0  0  0  0  0  0  0  0  0
   33.5330   29.2340   48.2030 N   0  0  0  0  0  0  0  0  0  0  0  0
   30.9270   27.5890   48.6620 C   0  0  0  0  0  0  0  0  0  0  0  0
   31.5010   27.9560   47.4080 C   0  0  0  0  0  0  0  0  0  0  0  0
   30.7790   27.6250   46.2880 C   0  0  0  0  0  0  0  0  0  0  0  0
   29.5920   26.9860   46.4220 N   0  0  0  0  0  0  0  0  0  0  0  0
   29.0860   26.6580   47.6140 C   0  0  0  0  0  0  0  0  0  0  0  0
   29.7640   26.9630   48.7730 N   0  0  0  0  0  0  0  0  0  0  0  0
   34.9661   31.2538   48.7298 H   0  0  0  0  0  0  0  0  0  0  0  0
   37.1430   29.8343   50.1150 H   0  0  0  0  0  0  0  0  0  0  0  0
   36.8673   28.5022   49.3733 H   0  0  0  0  0  0  0  0  0  0  0  0
   37.5017   30.2209   46.9611 H   0  0  0  0  0  0  0  0  0  0  0  0
   38.4983   32.0415   46.0039 H   0  0  0  0  0  0  0  0  0  0  0  0
   39.8010   34.0399   47.0837 H   0  0  0  0  0  0  0  0  0  0  0  0
   39.4085   34.2195   50.8514 H   0  0  0  0  0  0  0  0  0  0  0  0
   40.1962   35.0408   49.4775 H   0  0  0  0  0  0  0  0  0  0  0  0
   33.1209   28.3992   45.1249 H   0  0  0  0  0  0  0  0  0  0  0  0
   35.4056   29.7645   45.6396 H   0  0  0  0  0  0  0  0  0  0  0  0
   31.4768   27.8379   49.5817 H   0  0  0  0  0  0  0  0  0  0  0  0
   31.1620   27.8771   45.2881 H   0  0  0  0  0  0  0  0  0  0  0  0
   28.1178   26.1389   47.6702 H   0  0  0  0  0  0  0  0  0  0  0  0
  1  2  1  0
  3  4  1  0
  3  1  1  0
  3  2  1  0
  4  8  1  0
  5  6  1  0
  5  4  2  0
  6  7  1  0
  7  8  2  0
  7  9  1  0
 10 16  1  0
 10 14  2  0
 11 12  2  0
 11 10  1  0
 12 13  1  0
 13 14  1  0
 13  1  1  0
 15 20  2  0
 16 15  1  0
 17 18  1  0
 17 16  2  0
 18 19  2  0
 19 20  1  0
  1 21  1  1
  2 22  1  0
  2 23  1  0
  3 24  1  6
  5 25  1  0
  6 26  1  0
  9 27  1  0
  9 28  1  0
 11 29  1  0
 12 30  1  0
 15 31  1  0
 17 32  1  0
 19 33  1  0
M  ISO  8  21  13  22  13  23  13  24  13  25  14  26   9  29  14  30  14
M  ISO  3  31  14  32  14  33  14
M  END
>  <minimizedAffinity>  (1) 
-5.10836601

>  <minimizedRMSD>  (1) 
0.894967735

$$$$
