
     RDKit          3D

 33 34  0  0  0  0  0  0  0  0999 V2000
   32.5880   27.0460   48.4570 O   0  0  0  0  0  0  0  0  0  0  0  0
   33.3980   27.6540   47.5020 C   0  0  0  0  0  0  0  0  0  0  0  0
   34.8700   28.3390   49.3690 C   0  0  0  0  0  0  0  0  0  0  0  0
   34.5010   28.4210   48.1290 C   0  0  0  0  0  0  0  0  0  0  0  0
   37.2660   30.1720   51.4580 C   0  0  0  0  0  0  0  0  0  0  0  0
   38.1070   30.7680   50.5020 C   0  0  0  0  0  0  0  0  0  0  0  0
   37.8200   30.5160   49.1590 C   0  0  0  0  0  0  0  0  0  0  0  0
   36.7490   29.7150   48.8540 N   0  0  0  0  0  0  0  0  0  0  0  0
   35.9860   29.1780   49.8140 C   0  0  0  0  0  0  0  0  0  0  0  0
   36.2410   29.4030   51.0960 N   0  0  0  0  0  0  0  0  0  0  0  0
   30.2280   26.4540   47.6670 O   0  0  0  0  0  0  0  0  0  0  0  0
   30.9900   27.6340   48.2720 P   0  0  2  0  0  0  0  0  0  0  0  0
   31.0400   28.9300   47.1970 O   0  0  0  0  0  0  0  0  0  0  0  0
   30.3360   28.0640   49.7640 O   0  0  0  0  0  0  0  0  0  0  0  0
   29.0670   26.5120   51.5580 F   0  0  0  0  0  0  0  0  0  0  0  0
   28.4110   27.4410   50.8250 C   0  0  0  0  0  0  0  0  0  0  0  0
   28.9710   28.2970   49.8700 C   0  0  0  0  0  0  0  0  0  0  0  0
   28.1710   29.1970   49.1980 C   0  0  0  0  0  0  0  0  0  0  0  0
   26.8220   29.2440   49.4770 C   0  0  0  0  0  0  0  0  0  0  0  0
   26.2660   28.4030   50.4180 C   0  0  0  0  0  0  0  0  0  0  0  0
   27.0410   27.4940   51.1050 C   0  0  0  0  0  0  0  0  0  0  0  0
   32.7850   28.3394   46.8983 H   0  0  0  0  0  0  0  0  0  0  0  0
   33.8405   26.8661   46.8748 H   0  0  0  0  0  0  0  0  0  0  0  0
   34.3600   27.6590   50.0672 H   0  0  0  0  0  0  0  0  0  0  0  0
   35.0546   29.1208   47.4858 H   0  0  0  0  0  0  0  0  0  0  0  0
   37.4587   30.3445   52.5272 H   0  0  0  0  0  0  0  0  0  0  0  0
   38.9535   31.4046   50.7988 H   0  0  0  0  0  0  0  0  0  0  0  0
   38.4403   30.9511   48.3615 H   0  0  0  0  0  0  0  0  0  0  0  0
   31.0728   29.7791   47.7050 H   0  0  0  0  0  0  0  0  0  0  0  0
   28.6057   29.8716   48.4457 H   0  0  0  0  0  0  0  0  0  0  0  0
   26.1812   29.9609   48.9427 H   0  0  0  0  0  0  0  0  0  0  0  0
   25.1868   28.4587   50.6234 H   0  0  0  0  0  0  0  0  0  0  0  0
   26.5934   26.8260   51.8556 H   0  0  0  0  0  0  0  0  0  0  0  0
  2  4  1  0
  2  1  1  0
  3  9  1  0
  4  3  2  0
  6  5  2  0
  7  6  1  0
  8  7  2  0
  8  9  1  0
  9 10  2  0
 10  5  1  0
 12 11  2  0
 12  1  1  0
 12 14  1  0
 13 12  1  0
 14 17  1  0
 16 21  2  0
 16 15  1  0
 17 16  1  0
 18 19  1  0
 18 17  2  0
 19 20  2  0
 20 21  1  0
  2 22  1  0
  2 23  1  0
  3 24  1  0
  4 25  1  0
  5 26  1  0
  6 27  1  0
  7 28  1  0
 13 29  1  0
 18 30  1  0
 19 31  1  0
 20 32  1  0
 21 33  1  0
M  ISO  8  22   8  23   8  26  14  27  14  28  14  29   3  30  14  31  14
M  ISO  2  32  14  33  14
M  END
>  <minimizedAffinity>  (1) 
-6.18512964

>  <minimizedRMSD>  (1) 
0.993247032

$$$$
