
     RDKit          3D

 38 42  0  0  1  0  0  0  0  0999 V2000
   31.7200   28.2520   47.2720 C   0  0  1  0  0  0  0  0  0  0  0  0
   32.4990   27.1000   46.5370 C   0  0  0  0  0  0  0  0  0  0  0  0
   32.5840   28.5380   46.1280 C   0  0  2  0  0  0  0  0  0  0  0  0
   28.1640   28.6960   47.5910 C   0  0  0  0  0  0  0  0  0  0  0  0
   28.2220   27.9510   46.4130 C   0  0  0  0  0  0  0  0  0  0  0  0
   29.5800   27.6810   46.1330 C   0  0  0  0  0  0  0  0  0  0  0  0
   30.2760   28.2560   47.1210 N   0  0  0  0  0  0  0  0  0  0  0  0
   29.4230   28.8280   47.9400 N   0  0  0  0  0  0  0  0  0  0  0  0
   25.9810   28.2370   48.7460 C   0  0  0  0  0  0  0  0  0  0  0  0
   26.9340   29.1470   48.1740 C   0  0  0  0  0  0  0  0  0  0  0  0
   26.6270   30.4830   48.2020 C   0  0  0  0  0  0  0  0  0  0  0  0
   25.4470   30.8760   48.7650 N   0  0  0  0  0  0  0  0  0  0  0  0
   24.5790   30.0020   49.2900 C   0  0  0  0  0  0  0  0  0  0  0  0
   24.8400   28.6650   49.2850 N   0  0  0  0  0  0  0  0  0  0  0  0
   33.8740   29.2770   46.3390 C   0  0  0  0  0  0  0  0  0  0  0  0
   34.6280   29.8720   45.3440 C   0  0  0  0  0  0  0  0  0  0  0  0
   35.7090   30.4530   45.9340 N   0  0  0  0  0  0  0  0  0  0  0  0
   35.6360   30.2260   47.2800 C   0  0  0  0  0  0  0  0  0  0  0  0
   34.5300   29.5200   47.5030 N   0  0  0  0  0  0  0  0  0  0  0  0
   36.6240   30.7030   48.2860 C   0  0  0  0  0  0  0  0  0  0  0  0
   36.9370   29.9010   49.4060 C   0  0  0  0  0  0  0  0  0  0  0  0
   38.1660   30.9050   50.3180 S   0  0  0  0  0  0  0  0  0  0  0  0
   38.0460   32.2610   49.0100 C   0  0  0  0  0  0  0  0  0  0  0  0
   37.2860   31.8320   48.2860 N   0  0  0  0  0  0  0  0  0  0  0  0
   38.6410   33.6720   48.6790 O   0  0  0  0  0  0  0  0  0  0  0  0
   31.6508   28.6548   48.2933 H   0  0  0  0  0  0  0  0  0  0  0  0
   33.3536   26.6057   47.0220 H   0  0  0  0  0  0  0  0  0  0  0  0
   32.2398   26.1480   46.0507 H   0  0  0  0  0  0  0  0  0  0  0  0
   32.4161   29.0655   45.1774 H   0  0  0  0  0  0  0  0  0  0  0  0
   27.3611   27.6300   45.8081 H   0  0  0  0  0  0  0  0  0  0  0  0
   29.9822   27.1153   45.2796 H   0  0  0  0  0  0  0  0  0  0  0  0
   26.1988   27.1588   48.7389 H   0  0  0  0  0  0  0  0  0  0  0  0
   27.3194   31.2253   47.7782 H   0  0  0  0  0  0  0  0  0  0  0  0
   23.6410   30.3692   49.7320 H   0  0  0  0  0  0  0  0  0  0  0  0
   34.3961   29.8753   44.2687 H   0  0  0  0  0  0  0  0  0  0  0  0
   36.4537   30.9740   45.4494 H   0  0  0  0  0  0  0  0  0  0  0  0
   36.5376   28.9100   49.6675 H   0  0  0  0  0  0  0  0  0  0  0  0
   38.3518   34.1521   47.8629 H   0  0  0  0  0  0  0  0  0  0  0  0
  2  1  1  0
  3 15  1  0
  3  2  1  0
  3  1  1  0
  4  8  2  0
  4 10  1  0
  5  4  1  0
  6  5  2  0
  6  7  1  0
  7  1  1  0
  7  8  1  0
  9 14  2  0
 10 11  2  0
 10  9  1  0
 11 12  1  0
 12 13  2  0
 14 13  1  0
 15 19  1  0
 16 17  1  0
 16 15  2  0
 17 18  1  0
 18 19  2  0
 18 20  1  0
 20 24  1  0
 20 21  2  0
 21 22  1  0
 23 22  1  0
 24 23  2  0
 25 23  1  0
  1 26  1  1
  2 27  1  0
  2 28  1  0
  3 29  1  6
  5 30  1  0
  6 31  1  0
  9 32  1  0
 11 33  1  0
 13 34  1  0
 16 35  1  0
 17 36  1  0
 21 37  1  0
 25 38  1  0
M  ISO  8  26  13  27  13  28  13  29  13  30  14  31  14  32  14  33  14
M  ISO  5  34  14  35  14  36   9  37  14  38   3
M  END
>  <minimizedAffinity>  (1) 
-6.17278099

>  <minimizedRMSD>  (1) 
0.571903765

$$$$
