
     RDKit          3D

 22 23  0  0  0  0  0  0  0  0999 V2000
   38.1820   31.3080   47.9420 C   0  0  0  0  0  0  0  0  0  0  0  0
   38.4830   30.5500   46.8260 C   0  0  0  0  0  0  0  0  0  0  0  0
   39.3220   30.9610   45.8090 C   0  0  0  0  0  0  0  0  0  0  0  0
   39.9120   32.2380   45.9120 C   0  0  0  0  0  0  0  0  0  0  0  0
   39.6020   32.9950   47.0420 C   0  0  0  0  0  0  0  0  0  0  0  0
   38.7660   32.5500   48.0270 C   0  0  0  0  0  0  0  0  0  0  0  0
   37.8710   30.0100   49.9790 C   0  0  0  0  0  0  0  0  0  0  0  0
   37.2780   30.6980   48.8990 C   0  0  0  0  0  0  0  0  0  0  0  0
   35.8730   30.7170   48.8600 C   0  0  0  0  0  0  0  0  0  0  0  0
   35.1870   30.0880   49.8390 N   0  0  0  0  0  0  0  0  0  0  0  0
   35.7810   29.4410   50.8540 C   0  0  0  0  0  0  0  0  0  0  0  0
   37.1380   29.4040   50.9220 N   0  0  0  0  0  0  0  0  0  0  0  0
   38.4540   33.3440   49.1890 C   0  0  0  0  0  0  0  0  0  0  0  0
   39.3790   33.9630   49.7720 O   0  0  0  0  0  0  0  0  0  0  0  0
   38.0240   29.5538   46.7425 H   0  0  0  0  0  0  0  0  0  0  0  0
   39.5241   30.3118   44.9443 H   0  0  0  0  0  0  0  0  0  0  0  0
   40.5884   32.6210   45.1337 H   0  0  0  0  0  0  0  0  0  0  0  0
   40.0503   33.9942   47.1446 H   0  0  0  0  0  0  0  0  0  0  0  0
   38.9681   29.9702   50.0484 H   0  0  0  0  0  0  0  0  0  0  0  0
   35.3420   31.2344   48.0474 H   0  0  0  0  0  0  0  0  0  0  0  0
   35.1739   28.9443   51.6252 H   0  0  0  0  0  0  0  0  0  0  0  0
   37.4204   33.4071   49.5601 H   0  0  0  0  0  0  0  0  0  0  0  0
  1  6  1  0
  1  8  1  0
  2  1  2  0
  3  4  2  0
  3  2  1  0
  4  5  1  0
  5  6  2  0
  6 13  1  0
  7 12  2  0
  8  7  1  0
  9  8  2  0
  9 10  1  0
 10 11  2  0
 11 12  1  0
 13 14  2  0
  2 15  1  0
  3 16  1  0
  4 17  1  0
  5 18  1  0
  7 19  1  0
  9 20  1  0
 11 21  1  0
 13 22  1  0
M  ISO  8  15  14  16  14  17  14  18  14  19  14  20  14  21  14  22   6
M  END
>  <minimizedAffinity>  (1) 
-5.34143686

>  <minimizedRMSD>  (1) 
1.51019406

$$$$
