
     RDKit          3D

 23 24  0  0  0  0  0  0  0  0999 V2000
   38.1520   31.3310   47.9770 C   0  0  0  0  0  0  0  0  0  0  0  0
   38.4650   30.5630   46.8580 C   0  0  0  0  0  0  0  0  0  0  0  0
   39.3180   30.9710   45.8440 C   0  0  0  0  0  0  0  0  0  0  0  0
   39.9070   32.2490   45.9590 C   0  0  0  0  0  0  0  0  0  0  0  0
   39.5840   32.9920   47.0700 C   0  0  0  0  0  0  0  0  0  0  0  0
   38.7380   32.5680   48.0600 C   0  0  0  0  0  0  0  0  0  0  0  0
   37.8660   30.0010   50.0010 C   0  0  0  0  0  0  0  0  0  0  0  0
   37.2370   30.7060   48.9260 C   0  0  0  0  0  0  0  0  0  0  0  0
   35.8530   30.7220   48.8820 C   0  0  0  0  0  0  0  0  0  0  0  0
   35.1650   30.0750   49.8490 N   0  0  0  0  0  0  0  0  0  0  0  0
   35.7620   29.4170   50.8530 C   0  0  0  0  0  0  0  0  0  0  0  0
   37.1180   29.3800   50.9290 N   0  0  0  0  0  0  0  0  0  0  0  0
   38.3840   33.3610   49.2630 C   0  0  0  0  0  0  0  0  0  0  0  0
   38.0052   29.5673   46.7732 H   0  0  0  0  0  0  0  0  0  0  0  0
   39.5283   30.3223   44.9809 H   0  0  0  0  0  0  0  0  0  0  0  0
   40.5953   32.6341   45.1922 H   0  0  0  0  0  0  0  0  0  0  0  0
   40.0339   33.9908   47.1700 H   0  0  0  0  0  0  0  0  0  0  0  0
   38.9635   29.9673   50.0678 H   0  0  0  0  0  0  0  0  0  0  0  0
   35.3238   31.2510   48.0757 H   0  0  0  0  0  0  0  0  0  0  0  0
   35.1541   28.9072   51.6150 H   0  0  0  0  0  0  0  0  0  0  0  0
   38.6393   32.7891   50.1673 H   0  0  0  0  0  0  0  0  0  0  0  0
   38.9453   34.3070   49.2568 H   0  0  0  0  0  0  0  0  0  0  0  0
   37.3050   33.5748   49.2568 H   0  0  0  0  0  0  0  0  0  0  0  0
  1  6  1  0
  1  8  1  0
  2  1  2  0
  3  4  2  0
  3  2  1  0
  4  5  1  0
  5  6  2  0
  6 13  1  0
  7 12  2  0
  8  7  1  0
  9  8  2  0
  9 10  1  0
 10 11  2  0
 11 12  1  0
  2 14  1  0
  3 15  1  0
  4 16  1  0
  5 17  1  0
  7 18  1  0
  9 19  1  0
 11 20  1  0
 13 21  1  0
 13 22  1  0
 13 23  1  0
M  ISO  8  14  14  15  14  16  14  17  14  18  14  19  14  20  14  21   8
M  ISO  2  22   8  23   8
M  END
>  <minimizedAffinity>  (1) 
-5.32706499

>  <minimizedRMSD>  (1) 
1.43977726

$$$$
