
     RDKit          3D

 22 23  0  0  0  0  0  0  0  0999 V2000
   38.3580   31.3510   47.6250 C   0  0  0  0  0  0  0  0  0  0  0  0
   38.7620   30.5280   46.6040 C   0  0  0  0  0  0  0  0  0  0  0  0
   39.6470   30.9030   45.6120 C   0  0  0  0  0  0  0  0  0  0  0  0
   40.1720   32.2080   45.6440 C   0  0  0  0  0  0  0  0  0  0  0  0
   39.7580   33.0230   46.6740 C   0  0  0  0  0  0  0  0  0  0  0  0
   38.8790   32.6280   47.6450 C   0  0  0  0  0  0  0  0  0  0  0  0
   37.9680   30.2190   49.7620 C   0  0  0  0  0  0  0  0  0  0  0  0
   37.4130   30.7800   48.5820 C   0  0  0  0  0  0  0  0  0  0  0  0
   36.0280   30.7300   48.4500 C   0  0  0  0  0  0  0  0  0  0  0  0
   35.2960   30.1610   49.4360 N   0  0  0  0  0  0  0  0  0  0  0  0
   35.8410   29.6370   50.5430 C   0  0  0  0  0  0  0  0  0  0  0  0
   37.1900   29.6680   50.7070 N   0  0  0  0  0  0  0  0  0  0  0  0
   38.4450   33.4640   48.7140 N   0  0  0  0  0  0  0  0  0  0  0  0
   38.3558   29.5062   46.5737 H   0  0  0  0  0  0  0  0  0  0  0  0
   39.9341   30.1991   44.8170 H   0  0  0  0  0  0  0  0  0  0  0  0
   40.8811   32.5613   44.8808 H   0  0  0  0  0  0  0  0  0  0  0  0
   40.1558   34.0476   46.7184 H   0  0  0  0  0  0  0  0  0  0  0  0
   39.0585   30.2362   49.9050 H   0  0  0  0  0  0  0  0  0  0  0  0
   35.5364   31.1464   47.5584 H   0  0  0  0  0  0  0  0  0  0  0  0
   35.2002   29.1846   51.3142 H   0  0  0  0  0  0  0  0  0  0  0  0
   38.7959   34.4296   48.7878 H   0  0  0  0  0  0  0  0  0  0  0  0
   37.7803   33.1028   49.4130 H   0  0  0  0  0  0  0  0  0  0  0  0
  1  6  1  0
  1  8  1  0
  2  1  2  0
  3  4  2  0
  3  2  1  0
  4  5  1  0
  5  6  2  0
  6 13  1  0
  7 12  2  0
  8  7  1  0
  9  8  2  0
  9 10  1  0
 10 11  2  0
 11 12  1  0
  2 14  1  0
  3 15  1  0
  4 16  1  0
  5 17  1  0
  7 18  1  0
  9 19  1  0
 11 20  1  0
 13 21  1  0
 13 22  1  0
M  ISO  7  14  14  15  14  16  14  17  14  18  14  19  14  20  14
M  END
>  <minimizedAffinity>  (1) 
-5.12369204

>  <minimizedRMSD>  (1) 
1.70638835

$$$$
