
     RDKit          3D

 28 29  0  0  0  0  0  0  0  0999 V2000
   36.5270   30.2870   46.7160 C   0  0  0  0  0  0  0  0  0  0  0  0
   36.3080   30.5380   45.3910 C   0  0  0  0  0  0  0  0  0  0  0  0
   37.1990   31.1140   44.5220 C   0  0  0  0  0  0  0  0  0  0  0  0
   38.4590   31.4840   45.0380 C   0  0  0  0  0  0  0  0  0  0  0  0
   38.6850   31.2330   46.3730 C   0  0  0  0  0  0  0  0  0  0  0  0
   37.7620   30.6550   47.1970 C   0  0  0  0  0  0  0  0  0  0  0  0
   35.8160   28.9810   48.6550 C   0  0  0  0  0  0  0  0  0  0  0  0
   35.4570   29.6670   47.4640 C   0  0  0  0  0  0  0  0  0  0  0  0
   34.0990   29.6710   47.1330 C   0  0  0  0  0  0  0  0  0  0  0  0
   33.2120   29.0450   47.9300 N   0  0  0  0  0  0  0  0  0  0  0  0
   33.5920   28.3980   49.0640 C   0  0  0  0  0  0  0  0  0  0  0  0
   34.9040   28.3700   49.4230 N   0  0  0  0  0  0  0  0  0  0  0  0
   38.0300   30.4120   48.5710 N   0  0  0  0  0  0  0  0  0  0  0  0
   37.9160   31.4160   49.9630 S   0  0  0  0  0  0  0  0  0  0  0  0
   36.5850   32.0290   50.1520 O   0  0  0  0  0  0  0  0  0  0  0  0
   38.9250   32.5280   49.8140 O   0  0  0  0  0  0  0  0  0  0  0  0
   38.4020   30.4910   51.2730 O   0  0  0  0  0  0  0  0  0  0  0  0
   35.3270   30.2518   44.9838 H   0  0  0  0  0  0  0  0  0  0  0  0
   36.9418   31.2808   43.4656 H   0  0  0  0  0  0  0  0  0  0  0  0
   39.2258   31.9516   44.4029 H   0  0  0  0  0  0  0  0  0  0  0  0
   39.6602   31.5128   46.7980 H   0  0  0  0  0  0  0  0  0  0  0  0
   36.8737   28.9506   48.9555 H   0  0  0  0  0  0  0  0  0  0  0  0
   33.7553   30.1846   46.2230 H   0  0  0  0  0  0  0  0  0  0  0  0
   32.8391   27.8976   49.6907 H   0  0  0  0  0  0  0  0  0  0  0  0
   38.3533   29.4547   48.7711 H   0  0  0  0  0  0  0  0  0  0  0  0
   36.3962   32.1160   51.1199 H   0  0  0  0  0  0  0  0  0  0  0  0
   39.2076   32.8394   50.7102 H   0  0  0  0  0  0  0  0  0  0  0  0
   38.1583   30.9548   52.1130 H   0  0  0  0  0  0  0  0  0  0  0  0
  1  6  1  0
  1  8  1  0
  2  1  2  0
  3  4  2  0
  3  2  1  0
  4  5  1  0
  5  6  2  0
  6 13  1  0
  7 12  2  0
  8  7  1  0
  9  8  2  0
  9 10  1  0
 10 11  2  0
 11 12  1  0
 13 14  1  0
 14 15  1  0
 14 17  1  0
 16 14  1  0
  2 18  1  0
  3 19  1  0
  4 20  1  0
  5 21  1  0
  7 22  1  0
  9 23  1  0
 11 24  1  0
 13 25  1  0
 15 26  1  0
 16 27  1  0
 17 28  1  0
M  ISO  8  18  14  19  14  20  14  21  14  22  14  23  14  24  14  26   3
M  ISO  2  27   3  28   3
M  END
>  <minimizedAffinity>  (1) 
-4.66902447

>  <minimizedRMSD>  (1) 
3.50457025

$$$$
