
     RDKit          3D

 34 36  0  0  0  0  0  0  0  0999 V2000
   38.4550   32.1310   47.3590 C   0  0  0  0  0  0  0  0  0  0  0  0
   39.2120   33.2190   47.8010 C   0  0  0  0  0  0  0  0  0  0  0  0
   39.1420   33.6900   49.1000 C   0  0  0  0  0  0  0  0  0  0  0  0
   38.2690   33.0490   50.0220 C   0  0  0  0  0  0  0  0  0  0  0  0
   37.5490   31.9890   49.5490 C   0  0  0  0  0  0  0  0  0  0  0  0
   37.6150   31.5180   48.2750 C   0  0  0  0  0  0  0  0  0  0  0  0
   39.6470   30.9130   45.6380 C   0  0  0  0  0  0  0  0  0  0  0  0
   38.5970   31.7960   45.9560 C   0  0  0  0  0  0  0  0  0  0  0  0
   37.8030   32.2570   44.8950 C   0  0  0  0  0  0  0  0  0  0  0  0
   38.0650   31.8520   43.6410 N   0  0  0  0  0  0  0  0  0  0  0  0
   39.0660   31.0130   43.3540 C   0  0  0  0  0  0  0  0  0  0  0  0
   39.8480   30.5510   44.3490 N   0  0  0  0  0  0  0  0  0  0  0  0
   35.5840   30.3380   48.3980 C   0  0  0  0  0  0  0  0  0  0  0  0
   35.2720   31.2020   49.2950 O   0  0  0  0  0  0  0  0  0  0  0  0
   36.9020   30.4050   47.8300 N   0  0  0  0  0  0  0  0  0  0  0  0
   33.4290   30.6280   46.4740 F   0  0  0  0  0  0  0  0  0  0  0  0
   33.5730   29.4510   47.1190 C   0  0  0  0  0  0  0  0  0  0  0  0
   34.5830   29.3460   48.0130 C   0  0  0  0  0  0  0  0  0  0  0  0
   34.6470   28.1100   48.6220 C   0  0  0  0  0  0  0  0  0  0  0  0
   33.7740   27.0800   48.3540 C   0  0  0  0  0  0  0  0  0  0  0  0
   32.7620   27.2420   47.4340 C   0  0  0  0  0  0  0  0  0  0  0  0
   32.6720   28.4670   46.8080 C   0  0  0  0  0  0  0  0  0  0  0  0
   39.8875   33.7188   47.0911 H   0  0  0  0  0  0  0  0  0  0  0  0
   39.7531   34.5485   49.4154 H   0  0  0  0  0  0  0  0  0  0  0  0
   38.1782   33.3899   51.0639 H   0  0  0  0  0  0  0  0  0  0  0  0
   36.8681   31.4807   50.2476 H   0  0  0  0  0  0  0  0  0  0  0  0
   40.2995   30.5200   46.4316 H   0  0  0  0  0  0  0  0  0  0  0  0
   36.9690   32.9475   45.0892 H   0  0  0  0  0  0  0  0  0  0  0  0
   39.2493   30.7028   42.3147 H   0  0  0  0  0  0  0  0  0  0  0  0
   37.2777   29.7100   47.1692 H   0  0  0  0  0  0  0  0  0  0  0  0
   35.4407   27.9376   49.3639 H   0  0  0  0  0  0  0  0  0  0  0  0
   33.8856   26.1198   48.8789 H   0  0  0  0  0  0  0  0  0  0  0  0
   32.0561   26.4291   47.2084 H   0  0  0  0  0  0  0  0  0  0  0  0
   31.8829   28.6529   46.0646 H   0  0  0  0  0  0  0  0  0  0  0  0
  1  2  2  0
  1  6  1  0
  2  3  1  0
  3  4  2  0
  5  4  1  0
  6  5  2  0
  7  8  2  0
  8  1  1  0
  9  8  1  0
 10  9  2  0
 11 10  1  0
 11 12  2  0
 12  7  1  0
 13 14  2  0
 15  6  1  0
 15 13  1  0
 16 17  1  0
 17 18  2  0
 18 13  1  0
 18 19  1  0
 20 19  2  0
 21 20  1  0
 22 17  1  0
 22 21  2  0
  2 23  1  0
  3 24  1  0
  4 25  1  0
  5 26  1  0
  7 27  1  0
  9 28  1  0
 11 29  1  0
 15 30  1  0
 19 31  1  0
 20 32  1  0
 21 33  1  0
 22 34  1  0
M  ISO  8  23  14  24  14  25  14  26  14  27  14  28  14  29  14  31  14
M  ISO  3  32  14  33  14  34  14
M  END
>  <minimizedAffinity>  (1) 
-6.09523821

>  <minimizedRMSD>  (1) 
7.13691425

$$$$
