
     RDKit          3D

 29 29  0  0  0  0  0  0  0  0999 V2000
   32.9370   28.1570   47.7680 C   0  0  0  0  0  0  0  0  0  0  0  0
   34.8180   28.3960   49.3440 C   0  0  0  0  0  0  0  0  0  0  0  0
   34.1180   28.8300   48.3540 C   0  0  0  0  0  0  0  0  0  0  0  0
   37.2560   30.1570   51.4480 C   0  0  0  0  0  0  0  0  0  0  0  0
   38.1100   30.7290   50.4860 C   0  0  0  0  0  0  0  0  0  0  0  0
   37.8280   30.4970   49.1420 C   0  0  0  0  0  0  0  0  0  0  0  0
   36.7360   29.7250   48.8510 N   0  0  0  0  0  0  0  0  0  0  0  0
   35.9540   29.2020   49.7850 C   0  0  0  0  0  0  0  0  0  0  0  0
   36.2050   29.4120   51.0870 N   0  0  0  0  0  0  0  0  0  0  0  0
   32.2550   27.3900   48.7260 O   0  0  0  0  0  0  0  0  0  0  0  0
   30.0080   26.4590   47.9520 O   0  0  0  0  0  0  0  0  0  0  0  0
   30.5990   27.7180   48.5800 P   0  0  2  0  0  0  0  0  0  0  0  0
   30.4050   29.0650   47.5640 O   0  0  0  0  0  0  0  0  0  0  0  0
   29.8820   28.0350   50.0930 O   0  0  0  0  0  0  0  0  0  0  0  0
   29.1180   26.9210   50.3940 C   0  0  0  0  0  0  0  0  0  0  0  0
   28.1060   27.1990   51.4990 C   0  0  0  0  0  0  0  0  0  0  0  0
   32.2529   28.9196   47.3675 H   0  0  0  0  0  0  0  0  0  0  0  0
   33.2834   27.4843   46.9696 H   0  0  0  0  0  0  0  0  0  0  0  0
   34.5683   27.4476   49.8423 H   0  0  0  0  0  0  0  0  0  0  0  0
   34.4250   29.7856   47.9039 H   0  0  0  0  0  0  0  0  0  0  0  0
   37.4566   30.3257   52.5163 H   0  0  0  0  0  0  0  0  0  0  0  0
   38.9736   31.3404   50.7866 H   0  0  0  0  0  0  0  0  0  0  0  0
   38.4586   30.9180   48.3451 H   0  0  0  0  0  0  0  0  0  0  0  0
   30.2877   29.8794   48.1145 H   0  0  0  0  0  0  0  0  0  0  0  0
   28.5772   26.6072   49.4890 H   0  0  0  0  0  0  0  0  0  0  0  0
   29.7969   26.1314   50.7484 H   0  0  0  0  0  0  0  0  0  0  0  0
   28.5876   27.0667   52.4791 H   0  0  0  0  0  0  0  0  0  0  0  0
   27.7379   28.2315   51.4078 H   0  0  0  0  0  0  0  0  0  0  0  0
   27.2620   26.4994   51.4078 H   0  0  0  0  0  0  0  0  0  0  0  0
  1  3  1  0
  1 10  1  0
  2  8  1  0
  3  2  2  0
  5  4  2  0
  6  5  1  0
  7  6  2  0
  7  8  1  0
  8  9  2  0
  9  4  1  0
 12 11  2  0
 12 10  1  0
 12 14  1  0
 13 12  1  0
 14 15  1  0
 15 16  1  0
  1 17  1  0
  1 18  1  0
  2 19  1  0
  3 20  1  0
  4 21  1  0
  5 22  1  0
  6 23  1  0
 13 24  1  0
 15 25  1  0
 15 26  1  0
 16 27  1  0
 16 28  1  0
 16 29  1  0
M  ISO  8  17   8  18   8  21  14  22  14  23  14  24   3  25   8  26   8
M  ISO  3  27   8  28   8  29   8
M  END
>  <minimizedAffinity>  (1) 
-4.85389137

>  <minimizedRMSD>  (1) 
0.491767436

$$$$
