
     RDKit          3D

 29 30  0  0  0  0  0  0  0  0999 V2000
   35.5660   29.9100   46.9460 C   0  0  0  0  0  0  0  0  0  0  0  0
   34.5140   29.4620   46.1810 C   0  0  0  0  0  0  0  0  0  0  0  0
   34.5190   29.5450   44.7900 C   0  0  0  0  0  0  0  0  0  0  0  0
   35.6740   30.1190   44.1510 C   0  0  0  0  0  0  0  0  0  0  0  0
   36.6940   30.5490   44.9550 C   0  0  0  0  0  0  0  0  0  0  0  0
   36.6750   30.4660   46.2950 C   0  0  0  0  0  0  0  0  0  0  0  0
   36.5860   29.3820   49.1010 C   0  0  0  0  0  0  0  0  0  0  0  0
   35.4230   29.7260   48.3680 C   0  0  0  0  0  0  0  0  0  0  0  0
   34.2640   29.8510   49.1130 C   0  0  0  0  0  0  0  0  0  0  0  0
   34.2760   29.6530   50.4380 N   0  0  0  0  0  0  0  0  0  0  0  0
   35.3720   29.3320   51.1100 C   0  0  0  0  0  0  0  0  0  0  0  0
   36.5190   29.1990   50.4370 N   0  0  0  0  0  0  0  0  0  0  0  0
   38.3200   32.1230   46.4930 C   0  0  0  0  0  0  0  0  0  0  0  0
   37.8680   32.5850   45.3710 O   0  0  0  0  0  0  0  0  0  0  0  0
   37.7130   30.9350   47.0760 N   0  0  0  0  0  0  0  0  0  0  0  0
   39.3980   32.7380   47.1850 O   0  0  0  0  0  0  0  0  0  0  0  0
   39.1620   33.2840   48.4430 C   0  0  0  0  0  0  0  0  0  0  0  0
   38.6300   32.5930   49.3400 O   0  0  0  0  0  0  0  0  0  0  0  0
   39.5360   34.6240   48.6730 N   0  0  0  0  0  0  0  0  0  0  0  0
   33.6396   29.0236   46.6842 H   0  0  0  0  0  0  0  0  0  0  0  0
   33.6657   29.1826   44.1979 H   0  0  0  0  0  0  0  0  0  0  0  0
   35.7343   30.2086   43.0563 H   0  0  0  0  0  0  0  0  0  0  0  0
   37.5813   30.9883   44.4758 H   0  0  0  0  0  0  0  0  0  0  0  0
   37.5472   29.2636   48.5794 H   0  0  0  0  0  0  0  0  0  0  0  0
   33.3215   30.1161   48.6116 H   0  0  0  0  0  0  0  0  0  0  0  0
   35.3385   29.1782   52.1987 H   0  0  0  0  0  0  0  0  0  0  0  0
   38.0186   30.4999   47.9582 H   0  0  0  0  0  0  0  0  0  0  0  0
   39.3728   35.0532   49.5950 H   0  0  0  0  0  0  0  0  0  0  0  0
   39.9724   35.1736   47.9190 H   0  0  0  0  0  0  0  0  0  0  0  0
  1  8  1  0
  2  1  2  0
  3  2  1  0
  4  3  2  0
  4  5  1  0
  5  6  2  0
  6  1  1  0
  6 15  1  0
  7 12  2  0
  8  7  1  0
  8  9  2  0
  9 10  1  0
 10 11  2  0
 12 11  1  0
 13 15  1  0
 13 16  1  0
 14 13  2  0
 16 17  1  0
 17 19  1  0
 17 18  2  0
  2 20  1  0
  3 21  1  0
  4 22  1  0
  5 23  1  0
  7 24  1  0
  9 25  1  0
 11 26  1  0
 15 27  1  0
 19 28  1  0
 19 29  1  0
M  ISO  7  20  14  21  14  22  14  23  14  24  14  25  14  26  14
M  END
>  <minimizedAffinity>  (1) 
-4.9410224

>  <minimizedRMSD>  (1) 
2.92158914

$$$$
