
     RDKit          3D

 25 25  0  0  0  0  0  0  0  0999 V2000
   32.9030   28.1720   47.7810 C   0  0  0  0  0  0  0  0  0  0  0  0
   34.8000   28.3790   49.3870 C   0  0  0  0  0  0  0  0  0  0  0  0
   34.1050   28.8270   48.3710 C   0  0  0  0  0  0  0  0  0  0  0  0
   37.2590   30.1590   51.4460 C   0  0  0  0  0  0  0  0  0  0  0  0
   38.1010   30.7230   50.4880 C   0  0  0  0  0  0  0  0  0  0  0  0
   37.8090   30.4810   49.1310 C   0  0  0  0  0  0  0  0  0  0  0  0
   36.7180   29.7080   48.8360 N   0  0  0  0  0  0  0  0  0  0  0  0
   35.9430   29.1910   49.7950 C   0  0  0  0  0  0  0  0  0  0  0  0
   36.2100   29.4130   51.0750 N   0  0  0  0  0  0  0  0  0  0  0  0
   32.2470   27.3880   48.7180 O   0  0  0  0  0  0  0  0  0  0  0  0
   30.0360   26.4140   47.8790 O   0  0  0  0  0  0  0  0  0  0  0  0
   30.5710   27.6660   48.5880 P   0  0  2  0  0  0  0  0  0  0  0  0
   30.3360   29.0350   47.6460 O   0  0  0  0  0  0  0  0  0  0  0  0
   29.8640   27.8230   50.1120 O   0  0  0  0  0  0  0  0  0  0  0  0
   28.8820   26.9470   50.5340 C   0  0  0  0  0  0  0  0  0  0  0  0
   28.3910   27.1800   51.6890 O   0  0  0  0  0  0  0  0  0  0  0  0
   32.2138   28.9484   47.4174 H   0  0  0  0  0  0  0  0  0  0  0  0
   33.2303   27.5248   46.9540 H   0  0  0  0  0  0  0  0  0  0  0  0
   34.5374   27.4440   49.9036 H   0  0  0  0  0  0  0  0  0  0  0  0
   34.4379   29.7700   47.9127 H   0  0  0  0  0  0  0  0  0  0  0  0
   37.4578   30.3280   52.5146 H   0  0  0  0  0  0  0  0  0  0  0  0
   38.9651   31.3369   50.7822 H   0  0  0  0  0  0  0  0  0  0  0  0
   38.4386   30.9005   48.3325 H   0  0  0  0  0  0  0  0  0  0  0  0
   30.2012   29.8205   48.2333 H   0  0  0  0  0  0  0  0  0  0  0  0
   28.5450   26.1030   49.9143 H   0  0  0  0  0  0  0  0  0  0  0  0
  1  3  1  0
  1 10  1  0
  2  8  1  0
  3  2  2  0
  5  4  2  0
  6  5  1  0
  7  6  2  0
  7  8  1  0
  8  9  2  0
  9  4  1  0
 12 11  2  0
 12 10  1  0
 12 14  1  0
 13 12  1  0
 14 15  1  0
 15 16  2  0
  1 17  1  0
  1 18  1  0
  2 19  1  0
  3 20  1  0
  4 21  1  0
  5 22  1  0
  6 23  1  0
 13 24  1  0
 15 25  1  0
M  ISO  7  17   8  18   8  21  14  22  14  23  14  24   3  25   6
M  END
>  <minimizedAffinity>  (1) 
-4.79347944

>  <minimizedRMSD>  (1) 
0.523558438

$$$$
