
     RDKit          3D

 40 43  0  0  0  0  0  0  0  0999 V2000
   38.1020   31.9220   47.4500 C   0  0  0  0  0  0  0  0  0  0  0  0
   38.5700   32.8580   48.3280 C   0  0  0  0  0  0  0  0  0  0  0  0
   38.0820   32.9600   49.6370 C   0  0  0  0  0  0  0  0  0  0  0  0
   37.0510   32.0280   50.0430 C   0  0  0  0  0  0  0  0  0  0  0  0
   36.6310   31.1250   49.1220 C   0  0  0  0  0  0  0  0  0  0  0  0
   37.1020   31.0330   47.8640 C   0  0  0  0  0  0  0  0  0  0  0  0
   39.9760   31.2900   46.0140 C   0  0  0  0  0  0  0  0  0  0  0  0
   38.7160   31.9260   46.1440 C   0  0  0  0  0  0  0  0  0  0  0  0
   38.2330   32.4680   44.9800 C   0  0  0  0  0  0  0  0  0  0  0  0
   38.9260   32.3800   43.8340 N   0  0  0  0  0  0  0  0  0  0  0  0
   40.0940   31.7870   43.7320 C   0  0  0  0  0  0  0  0  0  0  0  0
   40.6140   31.2440   44.8230 N   0  0  0  0  0  0  0  0  0  0  0  0
   35.1700   29.9660   47.0510 C   0  0  0  0  0  0  0  0  0  0  0  0
   34.5300   30.6660   47.9310 O   0  0  0  0  0  0  0  0  0  0  0  0
   36.6120   30.1080   46.9800 N   0  0  0  0  0  0  0  0  0  0  0  0
   34.4660   29.1270   46.2290 O   0  0  0  0  0  0  0  0  0  0  0  0
   33.1110   29.2400   45.9530 C   0  0  0  0  0  0  0  0  0  0  0  0
   32.6650   29.8690   44.8870 O   0  0  0  0  0  0  0  0  0  0  0  0
   32.3890   27.7370   47.7540 C   0  0  0  0  0  0  0  0  0  0  0  0
   32.0400   28.6580   46.7910 C   0  0  0  0  0  0  0  0  0  0  0  0
   30.7300   29.0420   46.5960 C   0  0  0  0  0  0  0  0  0  0  0  0
   29.7030   28.5190   47.3620 C   0  0  0  0  0  0  0  0  0  0  0  0
   28.3720   28.6690   47.4330 N   0  0  0  0  0  0  0  0  0  0  0  0
   27.8850   27.8710   48.4080 C   0  0  0  0  0  0  0  0  0  0  0  0
   28.9410   27.2170   48.9460 N   0  0  0  0  0  0  0  0  0  0  0  0
   30.0730   27.5890   48.3320 C   0  0  0  0  0  0  0  0  0  0  0  0
   31.3730   27.1870   48.5470 C   0  0  0  0  0  0  0  0  0  0  0  0
   39.3550   33.5537   47.9965 H   0  0  0  0  0  0  0  0  0  0  0  0
   38.4681   33.7207   50.3315 H   0  0  0  0  0  0  0  0  0  0  0  0
   36.6256   32.0513   51.0571 H   0  0  0  0  0  0  0  0  0  0  0  0
   35.8474   30.4152   49.4254 H   0  0  0  0  0  0  0  0  0  0  0  0
   40.4421   30.8266   46.8961 H   0  0  0  0  0  0  0  0  0  0  0  0
   37.2613   32.9835   44.9860 H   0  0  0  0  0  0  0  0  0  0  0  0
   40.6244   31.7426   42.7694 H   0  0  0  0  0  0  0  0  0  0  0  0
   37.2054   29.5697   46.3327 H   0  0  0  0  0  0  0  0  0  0  0  0
   33.4387   27.4408   47.8969 H   0  0  0  0  0  0  0  0  0  0  0  0
   30.4963   29.7801   45.8146 H   0  0  0  0  0  0  0  0  0  0  0  0
   27.8099   29.2941   46.8379 H   0  0  0  0  0  0  0  0  0  0  0  0
   26.8313   27.7716   48.7076 H   0  0  0  0  0  0  0  0  0  0  0  0
   31.6091   26.4479   49.3268 H   0  0  0  0  0  0  0  0  0  0  0  0
  1  6  1  0
  1  2  2  0
  2  3  1  0
  3  4  2  0
  5  4  1  0
  6  5  2  0
  7  8  2  0
  8  1  1  0
  9  8  1  0
 10  9  2  0
 11 10  1  0
 11 12  2  0
 12  7  1  0
 13 14  2  0
 15 13  1  0
 15  6  1  0
 16 13  1  0
 17 16  1  0
 17 20  1  0
 18 17  2  0
 19 27  2  0
 20 19  1  0
 21 20  2  0
 21 22  1  0
 22 23  1  0
 22 26  2  0
 23 24  1  0
 24 25  2  0
 26 27  1  0
 26 25  1  0
  2 28  1  0
  3 29  1  0
  4 30  1  0
  5 31  1  0
  7 32  1  0
  9 33  1  0
 11 34  1  0
 15 35  1  0
 19 36  1  0
 21 37  1  0
 23 38  1  0
 24 39  1  0
 27 40  1  0
M  ISO  8  28  14  29  14  30  14  31  14  32  14  33  14  34  14  36  14
M  ISO  4  37  14  38   9  39  14  40  14
M  END
>  <minimizedAffinity>  (1) 
-6.41227341

>  <minimizedRMSD>  (1) 
1.74137008

$$$$
