
     RDKit          3D

 43 45  0  0  0  0  0  0  0  0999 V2000
   38.1600   31.7990   47.3300 C   0  0  0  0  0  0  0  0  0  0  0  0
   38.7550   32.4450   48.3710 C   0  0  0  0  0  0  0  0  0  0  0  0
   38.2490   32.4070   49.6690 C   0  0  0  0  0  0  0  0  0  0  0  0
   37.0390   31.6420   49.8920 C   0  0  0  0  0  0  0  0  0  0  0  0
   36.4930   31.0200   48.8140 C   0  0  0  0  0  0  0  0  0  0  0  0
   36.9840   31.0640   47.5740 C   0  0  0  0  0  0  0  0  0  0  0  0
   40.0460   31.2150   45.8890 C   0  0  0  0  0  0  0  0  0  0  0  0
   38.8220   31.9130   46.0510 C   0  0  0  0  0  0  0  0  0  0  0  0
   38.4170   32.6080   44.9420 C   0  0  0  0  0  0  0  0  0  0  0  0
   39.1440   32.6060   43.8170 N   0  0  0  0  0  0  0  0  0  0  0  0
   40.2800   31.9510   43.6820 C   0  0  0  0  0  0  0  0  0  0  0  0
   40.7200   31.2610   44.7220 N   0  0  0  0  0  0  0  0  0  0  0  0
   34.9650   30.1770   46.7600 C   0  0  0  0  0  0  0  0  0  0  0  0
   34.4700   30.5220   47.9060 O   0  0  0  0  0  0  0  0  0  0  0  0
   36.3670   30.4320   46.5260 N   0  0  0  0  0  0  0  0  0  0  0  0
   34.1400   29.5940   45.8410 O   0  0  0  0  0  0  0  0  0  0  0  0
   32.7690   29.4190   45.9950 C   0  0  0  0  0  0  0  0  0  0  0  0
   31.9350   30.4360   46.0250 O   0  0  0  0  0  0  0  0  0  0  0  0
   32.0260   28.1380   46.1220 C   0  0  0  0  0  0  0  0  0  0  0  0
   32.9310   27.0760   46.6330 C   0  0  0  0  0  0  0  0  0  0  0  0
   33.2690   27.1890   48.0860 C   0  0  0  0  0  0  0  0  0  0  0  0
   32.1630   27.7990   48.9090 C   0  0  0  0  0  0  0  0  0  0  0  0
   30.8570   27.4770   48.1880 C   0  0  0  0  0  0  0  0  0  0  0  0
   30.7960   28.3540   46.9670 C   0  0  0  0  0  0  0  0  0  0  0  0
   39.6727   33.0204   48.1794 H   0  0  0  0  0  0  0  0  0  0  0  0
   38.7492   32.9375   50.4927 H   0  0  0  0  0  0  0  0  0  0  0  0
   36.5823   31.5679   50.8900 H   0  0  0  0  0  0  0  0  0  0  0  0
   35.5756   30.4352   48.9762 H   0  0  0  0  0  0  0  0  0  0  0  0
   40.4509   30.6282   46.7267 H   0  0  0  0  0  0  0  0  0  0  0  0
   37.4771   33.1784   44.9761 H   0  0  0  0  0  0  0  0  0  0  0  0
   40.8429   31.9771   42.7373 H   0  0  0  0  0  0  0  0  0  0  0  0
   36.8544   30.1657   45.6586 H   0  0  0  0  0  0  0  0  0  0  0  0
   31.6743   27.7896   45.1397 H   0  0  0  0  0  0  0  0  0  0  0  0
   32.4447   26.1031   46.4689 H   0  0  0  0  0  0  0  0  0  0  0  0
   33.8782   27.1841   46.0842 H   0  0  0  0  0  0  0  0  0  0  0  0
   33.4791   26.1818   48.4751 H   0  0  0  0  0  0  0  0  0  0  0  0
   34.1411   27.8545   48.1672 H   0  0  0  0  0  0  0  0  0  0  0  0
   32.1566   27.3634   49.9191 H   0  0  0  0  0  0  0  0  0  0  0  0
   32.3003   28.8851   49.0165 H   0  0  0  0  0  0  0  0  0  0  0  0
   30.8408   26.4176   47.8925 H   0  0  0  0  0  0  0  0  0  0  0  0
   29.9931   27.6597   48.8440 H   0  0  0  0  0  0  0  0  0  0  0  0
   30.7460   29.4083   47.2766 H   0  0  0  0  0  0  0  0  0  0  0  0
   29.9019   28.0978   46.3797 H   0  0  0  0  0  0  0  0  0  0  0  0
  1  6  1  0
  1  2  2  0
  2  3  1  0
  3  4  2  0
  5  4  1  0
  6  5  2  0
  7  8  2  0
  8  1  1  0
  9  8  1  0
 10  9  2  0
 11 10  1  0
 11 12  2  0
 12  7  1  0
 13 14  2  0
 15 13  1  0
 15  6  1  0
 16 17  1  0
 16 13  1  0
 17 18  2  0
 17 19  1  0
 19 20  1  0
 19 24  1  0
 20 21  1  0
 21 22  1  0
 23 22  1  0
 24 23  1  0
  2 25  1  0
  3 26  1  0
  4 27  1  0
  5 28  1  0
  7 29  1  0
  9 30  1  0
 11 31  1  0
 15 32  1  0
 19 33  1  0
 20 34  1  0
 20 35  1  0
 21 36  1  0
 21 37  1  0
 22 38  1  0
 22 39  1  0
 23 40  1  0
 23 41  1  0
 24 42  1  0
 24 43  1  0
M  ISO  8  25  14  26  14  27  14  28  14  29  14  30  14  31  14  33  13
M  ISO  8  34  13  35  13  36  13  37  13  38  13  39  13  40  13  41  13
M  ISO  2  42  13  43  13
M  END
>  <minimizedAffinity>  (1) 
-6.08504868

>  <minimizedRMSD>  (1) 
1.21854305

$$$$
