
     RDKit          3D

 34 36  0  0  0  0  0  0  0  0999 V2000
   38.1730   31.8200   47.3880 C   0  0  0  0  0  0  0  0  0  0  0  0
   38.6880   32.6630   48.3430 C   0  0  0  0  0  0  0  0  0  0  0  0
   38.2240   32.6760   49.6600 C   0  0  0  0  0  0  0  0  0  0  0  0
   37.1590   31.7500   49.9980 C   0  0  0  0  0  0  0  0  0  0  0  0
   36.6830   30.9360   49.0160 C   0  0  0  0  0  0  0  0  0  0  0  0
   37.1380   30.9400   47.7570 C   0  0  0  0  0  0  0  0  0  0  0  0
   40.0350   31.2730   45.9140 C   0  0  0  0  0  0  0  0  0  0  0  0
   38.7670   31.9060   46.0890 C   0  0  0  0  0  0  0  0  0  0  0  0
   38.2620   32.5280   44.9720 C   0  0  0  0  0  0  0  0  0  0  0  0
   38.9450   32.5190   43.8150 N   0  0  0  0  0  0  0  0  0  0  0  0
   40.1220   31.9270   43.6690 C   0  0  0  0  0  0  0  0  0  0  0  0
   40.6630   31.3040   44.7250 N   0  0  0  0  0  0  0  0  0  0  0  0
   35.1060   30.0750   46.9170 C   0  0  0  0  0  0  0  0  0  0  0  0
   34.5520   30.6950   47.8790 O   0  0  0  0  0  0  0  0  0  0  0  0
   36.5880   30.1100   46.8020 N   0  0  0  0  0  0  0  0  0  0  0  0
   34.4080   29.3340   45.9130 O   0  0  0  0  0  0  0  0  0  0  0  0
   33.2140   28.7310   46.2670 C   0  0  0  0  0  0  0  0  0  0  0  0
   32.2010   29.2960   45.7970 O   0  0  0  0  0  0  0  0  0  0  0  0
   32.7450   27.5590   47.0890 C   0  0  0  0  0  0  0  0  0  0  0  0
   32.7000   27.6750   48.5660 C   0  0  0  0  0  0  0  0  0  0  0  0
   33.7010   26.7680   47.8590 C   0  0  0  0  0  0  0  0  0  0  0  0
   39.4960   33.3535   48.0595 H   0  0  0  0  0  0  0  0  0  0  0  0
   38.6481   33.3597   50.4101 H   0  0  0  0  0  0  0  0  0  0  0  0
   36.7484   31.7070   51.0176 H   0  0  0  0  0  0  0  0  0  0  0  0
   35.8765   30.2332   49.2723 H   0  0  0  0  0  0  0  0  0  0  0  0
   40.5042   30.7534   46.7625 H   0  0  0  0  0  0  0  0  0  0  0  0
   37.2890   33.0382   45.0259 H   0  0  0  0  0  0  0  0  0  0  0  0
   40.6440   31.9467   42.7009 H   0  0  0  0  0  0  0  0  0  0  0  0
   37.1316   29.5846   46.1025 H   0  0  0  0  0  0  0  0  0  0  0  0
   32.0044   27.3100   46.3148 H   0  0  0  0  0  0  0  0  0  0  0  0
   33.0393   28.5968   49.0611 H   0  0  0  0  0  0  0  0  0  0  0  0
   31.9331   27.5480   49.3443 H   0  0  0  0  0  0  0  0  0  0  0  0
   33.5918   25.6750   47.9175 H   0  0  0  0  0  0  0  0  0  0  0  0
   34.7954   26.6571   47.8671 H   0  0  0  0  0  0  0  0  0  0  0  0
  1  6  1  0
  1  2  2  0
  2  3  1  0
  3  4  2  0
  5  4  1  0
  6  5  2  0
  7  8  2  0
  8  1  1  0
  9  8  1  0
 10  9  2  0
 11 10  1  0
 11 12  2  0
 12  7  1  0
 13 14  2  0
 15 13  1  0
 15  6  1  0
 16 17  1  0
 16 13  1  0
 17 19  1  0
 18 17  2  0
 19 21  1  0
 19 20  1  0
 21 20  1  0
  2 22  1  0
  3 23  1  0
  4 24  1  0
  5 25  1  0
  7 26  1  0
  9 27  1  0
 11 28  1  0
 15 29  1  0
 19 30  1  0
 20 31  1  0
 20 32  1  0
 21 33  1  0
 21 34  1  0
M  ISO  8  22  14  23  14  24  14  25  14  26  14  27  14  28  14  30  13
M  ISO  4  31  13  32  13  33  13  34  13
M  END
>  <minimizedAffinity>  (1) 
-5.44446039

>  <minimizedRMSD>  (1) 
1.27698159

$$$$
