
     RDKit          3D

 29 30  0  0  0  0  0  0  0  0999 V2000
   38.1110   31.8920   47.4300 C   0  0  0  0  0  0  0  0  0  0  0  0
   38.5880   32.7940   48.3440 C   0  0  0  0  0  0  0  0  0  0  0  0
   38.0930   32.8650   49.6450 C   0  0  0  0  0  0  0  0  0  0  0  0
   37.0410   31.9370   50.0090 C   0  0  0  0  0  0  0  0  0  0  0  0
   36.6130   31.0690   49.0610 C   0  0  0  0  0  0  0  0  0  0  0  0
   37.0920   31.0070   47.8080 C   0  0  0  0  0  0  0  0  0  0  0  0
   39.9940   31.2750   46.0010 C   0  0  0  0  0  0  0  0  0  0  0  0
   38.7410   31.9210   46.1290 C   0  0  0  0  0  0  0  0  0  0  0  0
   38.2730   32.4940   44.9720 C   0  0  0  0  0  0  0  0  0  0  0  0
   38.9790   32.4240   43.8350 N   0  0  0  0  0  0  0  0  0  0  0  0
   40.1420   31.8220   43.7320 C   0  0  0  0  0  0  0  0  0  0  0  0
   40.6410   31.2520   44.8160 N   0  0  0  0  0  0  0  0  0  0  0  0
   35.1490   29.9890   46.9590 C   0  0  0  0  0  0  0  0  0  0  0  0
   34.5170   30.6540   47.8750 O   0  0  0  0  0  0  0  0  0  0  0  0
   36.5870   30.1180   46.8940 N   0  0  0  0  0  0  0  0  0  0  0  0
   34.4430   29.1930   46.0940 O   0  0  0  0  0  0  0  0  0  0  0  0
   33.3070   29.6090   45.3980 C   0  0  0  0  0  0  0  0  0  0  0  0
   33.3420   30.6270   44.5680 O   0  0  0  0  0  0  0  0  0  0  0  0
   31.9910   29.0710   45.4050 N   0  0  0  0  0  0  0  0  0  0  0  0
   39.3883   33.4852   48.0411 H   0  0  0  0  0  0  0  0  0  0  0  0
   38.4853   33.5964   50.3669 H   0  0  0  0  0  0  0  0  0  0  0  0
   36.6055   31.9374   51.0191 H   0  0  0  0  0  0  0  0  0  0  0  0
   35.8153   30.3639   49.3377 H   0  0  0  0  0  0  0  0  0  0  0  0
   40.4458   30.7862   46.8768 H   0  0  0  0  0  0  0  0  0  0  0  0
   37.3056   33.0175   44.9786 H   0  0  0  0  0  0  0  0  0  0  0  0
   40.6834   31.7929   42.7749 H   0  0  0  0  0  0  0  0  0  0  0  0
   37.1735   29.5949   46.2282 H   0  0  0  0  0  0  0  0  0  0  0  0
   31.2557   29.5012   44.8261 H   0  0  0  0  0  0  0  0  0  0  0  0
   31.7729   28.2510   45.9889 H   0  0  0  0  0  0  0  0  0  0  0  0
  1  6  1  0
  1  2  2  0
  2  3  1  0
  3  4  2  0
  5  4  1  0
  6  5  2  0
  7  8  2  0
  8  1  1  0
  9  8  1  0
 10  9  2  0
 11 10  1  0
 11 12  2  0
 12  7  1  0
 13 14  2  0
 15 13  1  0
 15  6  1  0
 16 13  1  0
 17 19  1  0
 17 16  1  0
 18 17  2  0
  2 20  1  0
  3 21  1  0
  4 22  1  0
  5 23  1  0
  7 24  1  0
  9 25  1  0
 11 26  1  0
 15 27  1  0
 19 28  1  0
 19 29  1  0
M  ISO  7  20  14  21  14  22  14  23  14  24  14  25  14  26  14
M  END
>  <minimizedAffinity>  (1) 
-5.10290861

>  <minimizedRMSD>  (1) 
0.0897488445

$$$$
