
     RDKit          3D

 28 29  0  0  0  0  0  0  0  0999 V2000
   38.1110   31.8930   47.4240 C   0  0  0  0  0  0  0  0  0  0  0  0
   38.5800   32.7870   48.3390 C   0  0  0  0  0  0  0  0  0  0  0  0
   38.0900   32.8570   49.6380 C   0  0  0  0  0  0  0  0  0  0  0  0
   37.0400   31.9310   50.0110 C   0  0  0  0  0  0  0  0  0  0  0  0
   36.6130   31.0640   49.0570 C   0  0  0  0  0  0  0  0  0  0  0  0
   37.0920   31.0050   47.8020 C   0  0  0  0  0  0  0  0  0  0  0  0
   40.0000   31.2740   46.0010 C   0  0  0  0  0  0  0  0  0  0  0  0
   38.7380   31.9230   46.1250 C   0  0  0  0  0  0  0  0  0  0  0  0
   38.2720   32.4960   44.9690 C   0  0  0  0  0  0  0  0  0  0  0  0
   38.9860   32.4240   43.8310 N   0  0  0  0  0  0  0  0  0  0  0  0
   40.1470   31.8210   43.7350 C   0  0  0  0  0  0  0  0  0  0  0  0
   40.6480   31.2500   44.8180 N   0  0  0  0  0  0  0  0  0  0  0  0
   35.1460   29.9870   46.9580 C   0  0  0  0  0  0  0  0  0  0  0  0
   34.5160   30.6530   47.8720 O   0  0  0  0  0  0  0  0  0  0  0  0
   36.5890   30.1170   46.8860 N   0  0  0  0  0  0  0  0  0  0  0  0
   34.4420   29.1850   46.0920 O   0  0  0  0  0  0  0  0  0  0  0  0
   33.3080   29.6030   45.3990 C   0  0  0  0  0  0  0  0  0  0  0  0
   33.3300   30.6390   44.5910 O   0  0  0  0  0  0  0  0  0  0  0  0
   32.0330   29.0280   45.4170 O   0  0  0  0  0  0  0  0  0  0  0  0
   39.3784   33.4812   48.0377 H   0  0  0  0  0  0  0  0  0  0  0  0
   38.4854   33.5894   50.3572 H   0  0  0  0  0  0  0  0  0  0  0  0
   36.6077   31.9303   51.0225 H   0  0  0  0  0  0  0  0  0  0  0  0
   35.8159   30.3574   49.3314 H   0  0  0  0  0  0  0  0  0  0  0  0
   40.4507   30.7875   46.8786 H   0  0  0  0  0  0  0  0  0  0  0  0
   37.3047   33.0197   44.9725 H   0  0  0  0  0  0  0  0  0  0  0  0
   40.6899   31.7909   42.7788 H   0  0  0  0  0  0  0  0  0  0  0  0
   37.1744   29.5968   46.2170 H   0  0  0  0  0  0  0  0  0  0  0  0
   31.3043   29.4227   44.8755 H   0  0  0  0  0  0  0  0  0  0  0  0
  1  6  1  0
  1  2  2  0
  2  3  1  0
  3  4  2  0
  5  4  1  0
  6  5  2  0
  7  8  2  0
  8  1  1  0
  9  8  1  0
 10  9  2  0
 11 10  1  0
 11 12  2  0
 12  7  1  0
 13 14  2  0
 15 13  1  0
 15  6  1  0
 16 13  1  0
 17 19  1  0
 17 16  1  0
 18 17  2  0
  2 20  1  0
  3 21  1  0
  4 22  1  0
  5 23  1  0
  7 24  1  0
  9 25  1  0
 11 26  1  0
 15 27  1  0
 19 28  1  0
M  ISO  8  20  14  21  14  22  14  23  14  24  14  25  14  26  14  28   3
M  END
>  <minimizedAffinity>  (1) 
-5.09295511

>  <minimizedRMSD>  (1) 
0.0783587173

$$$$
