
     RDKit          3D

 33 35  0  0  0  0  0  0  0  0999 V2000
   37.8210   30.0380   47.8930 F   0  0  0  0  0  0  0  0  0  0  0  0
   36.9070   30.1290   46.8990 C   0  0  0  0  0  0  0  0  0  0  0  0
   37.1470   30.7660   45.6880 C   0  0  0  0  0  0  0  0  0  0  0  0
   36.1660   30.8060   44.7480 C   0  0  0  0  0  0  0  0  0  0  0  0
   34.9150   30.2380   44.9270 C   0  0  0  0  0  0  0  0  0  0  0  0
   34.6850   29.6020   46.1450 C   0  0  0  0  0  0  0  0  0  0  0  0
   35.6660   29.5440   47.1240 C   0  0  0  0  0  0  0  0  0  0  0  0
   39.6600   33.3200   44.9250 C   0  0  0  0  0  0  0  0  0  0  0  0
   40.8790   32.6550   45.0640 C   0  0  0  0  0  0  0  0  0  0  0  0
   40.8300   31.3020   45.4270 C   0  0  0  0  0  0  0  0  0  0  0  0
   39.6350   30.6870   45.6300 N   0  0  0  0  0  0  0  0  0  0  0  0
   38.4690   31.3730   45.4840 C   0  0  0  0  0  0  0  0  0  0  0  0
   38.4960   32.6920   45.1290 N   0  0  0  0  0  0  0  0  0  0  0  0
   35.4070   28.9170   48.2950 O   0  0  0  0  0  0  0  0  0  0  0  0
   33.2540   28.5880   49.6880 O   0  0  0  0  0  0  0  0  0  0  0  0
   34.5140   29.4470   49.5980 P   0  0  2  0  0  0  0  0  0  0  0  0
   33.9910   31.0430   49.5120 O   0  0  0  0  0  0  0  0  0  0  0  0
   35.3460   29.1960   51.0730 O   0  0  0  0  0  0  0  0  0  0  0  0
   36.7100   29.3330   50.9130 C   0  0  0  0  0  0  0  0  0  0  0  0
   37.4220   29.8560   52.1790 C   0  0  0  0  0  0  0  0  0  0  0  0
   37.3750   30.6490   50.9150 C   0  0  0  0  0  0  0  0  0  0  0  0
   36.3761   31.3156   43.7961 H   0  0  0  0  0  0  0  0  0  0  0  0
   34.1418   30.2868   44.1462 H   0  0  0  0  0  0  0  0  0  0  0  0
   33.7063   29.1367   46.3340 H   0  0  0  0  0  0  0  0  0  0  0  0
   39.6558   34.3829   44.6418 H   0  0  0  0  0  0  0  0  0  0  0  0
   41.8364   33.1700   44.8961 H   0  0  0  0  0  0  0  0  0  0  0  0
   41.7644   30.7344   45.5483 H   0  0  0  0  0  0  0  0  0  0  0  0
   33.8735   31.4015   50.4273 H   0  0  0  0  0  0  0  0  0  0  0  0
   36.7669   28.4869   50.2124 H   0  0  0  0  0  0  0  0  0  0  0  0
   36.8364   30.1721   53.0549 H   0  0  0  0  0  0  0  0  0  0  0  0
   38.2117   29.4864   52.8496 H   0  0  0  0  0  0  0  0  0  0  0  0
   38.2955   30.7924   50.3301 H   0  0  0  0  0  0  0  0  0  0  0  0
   37.0459   31.6690   50.6676 H   0  0  0  0  0  0  0  0  0  0  0  0
  2  7  2  0
  2  1  1  0
  3  2  1  0
  4  5  1  0
  4  3  2  0
  5  6  2  0
  6  7  1  0
  7 14  1  0
  8  9  2  0
  8 13  1  0
  9 10  1  0
 10 11  2  0
 12 11  1  0
 12  3  1  0
 13 12  2  0
 14 16  1  0
 16 15  2  0
 16 18  1  0
 17 16  1  0
 19 21  1  0
 19 18  1  0
 19 20  1  0
 21 20  1  0
  4 22  1  0
  5 23  1  0
  6 24  1  0
  8 25  1  0
  9 26  1  0
 10 27  1  0
 17 28  1  0
 19 29  1  0
 20 30  1  0
 20 31  1  0
 21 32  1  0
 21 33  1  0
M  ISO  8  22  14  23  14  24  14  25  14  26  14  27  14  28   3  29  13
M  ISO  4  30  13  31  13  32  13  33  13
M  END
>  <minimizedAffinity>  (1) 
-5.1915946

>  <minimizedRMSD>  (1) 
1.97601151

$$$$
