
     RDKit          3D

 38 40  0  0  1  0  0  0  0  0999 V2000
   38.8740   32.3060   47.8380 C   0  0  2  0  0  0  0  0  0  0  0  0
   37.9560   32.7270   49.0080 C   0  0  2  0  0  0  0  0  0  0  0  0
   38.9000   33.5090   49.8210 C   0  0  0  0  0  0  0  0  0  0  0  0
   39.6900   34.2220   48.9270 O   0  0  0  0  0  0  0  0  0  0  0  0
   39.6230   33.6350   47.7000 C   0  0  0  0  0  0  0  0  0  0  0  0
   37.3070   29.7150   51.2050 C   0  0  0  0  0  0  0  0  0  0  0  0
   37.9820   30.8300   50.6410 C   0  0  0  0  0  0  0  0  0  0  0  0
   37.3240   31.5920   49.6420 C   0  0  0  0  0  0  0  0  0  0  0  0
   36.0610   31.1940   49.2820 N   0  0  0  0  0  0  0  0  0  0  0  0
   35.4520   30.1450   49.8280 C   0  0  0  0  0  0  0  0  0  0  0  0
   36.0600   29.3940   50.7890 N   0  0  0  0  0  0  0  0  0  0  0  0
   38.1370   32.0400   46.7070 O   0  0  0  0  0  0  0  0  0  0  0  0
   38.4990   32.7250   44.5040 C   0  0  1  0  0  0  0  0  0  0  0  0
   38.9130   31.7500   45.6170 C   0  0  2  0  0  0  0  0  0  0  0  0
   38.7520   30.3610   45.0950 C   0  0  0  0  0  0  0  0  0  0  0  0
   38.2780   30.2930   43.7870 O   0  0  0  0  0  0  0  0  0  0  0  0
   39.1240   30.9530   42.8960 C   0  0  0  0  0  0  0  0  0  0  0  0
   39.3510   32.3820   43.3070 C   0  0  1  0  0  0  0  0  0  0  0  0
   37.1410   32.6570   44.2570 O   0  0  0  0  0  0  0  0  0  0  0  0
   39.1420   33.2490   42.2430 O   0  0  0  0  0  0  0  0  0  0  0  0
   39.4849   31.4033   47.9859 H   0  0  0  0  0  0  0  0  0  0  0  0
   37.0637   33.3147   48.7462 H   0  0  0  0  0  0  0  0  0  0  0  0
   38.3533   34.1994   50.4801 H   0  0  0  0  0  0  0  0  0  0  0  0
   39.5116   32.8559   50.4609 H   0  0  0  0  0  0  0  0  0  0  0  0
   40.6390   33.4508   47.3207 H   0  0  0  0  0  0  0  0  0  0  0  0
   39.0951   34.2940   46.9949 H   0  0  0  0  0  0  0  0  0  0  0  0
   37.7989   29.1110   51.9817 H   0  0  0  0  0  0  0  0  0  0  0  0
   38.9961   31.0976   50.9727 H   0  0  0  0  0  0  0  0  0  0  0  0
   34.4374   29.8784   49.4972 H   0  0  0  0  0  0  0  0  0  0  0  0
   38.6699   33.7736   44.7891 H   0  0  0  0  0  0  0  0  0  0  0  0
   39.9644   31.8438   45.9265 H   0  0  0  0  0  0  0  0  0  0  0  0
   39.7319   29.8627   45.1330 H   0  0  0  0  0  0  0  0  0  0  0  0
   37.9990   29.8706   45.7295 H   0  0  0  0  0  0  0  0  0  0  0  0
   38.6704   30.9370   41.8940 H   0  0  0  0  0  0  0  0  0  0  0  0
   40.0949   30.4359   42.8947 H   0  0  0  0  0  0  0  0  0  0  0  0
   40.4028   32.5013   43.6061 H   0  0  0  0  0  0  0  0  0  0  0  0
   36.6501   32.6324   45.1164 H   0  0  0  0  0  0  0  0  0  0  0  0
   38.9247   34.1505   42.5897 H   0  0  0  0  0  0  0  0  0  0  0  0
  1  2  1  0
  2  8  1  0
  2  3  1  0
  4  3  1  0
  5  1  1  0
  5  4  1  0
  7  6  2  0
  8  7  1  0
  9  8  2  0
  9 10  1  0
 10 11  2  0
 11  6  1  0
 12  1  1  0
 13 19  1  0
 13 14  1  0
 14 12  1  0
 15 14  1  0
 16 15  1  0
 17 18  1  0
 17 16  1  0
 18 20  1  0
 18 13  1  0
  1 21  1  1
  2 22  1  6
  3 23  1  0
  3 24  1  0
  5 25  1  0
  5 26  1  0
  6 27  1  0
  7 28  1  0
 10 29  1  0
 13 30  1  1
 14 31  1  1
 15 32  1  0
 15 33  1  0
 17 34  1  0
 17 35  1  0
 18 36  1  1
 19 37  1  0
 20 38  1  0
M  ISO  8  21  13  22  13  23  13  24  13  25  13  26  13  27  14  28  14
M  ISO  8  29  14  30  13  31  13  32  13  33  13  34  13  35  13  36  13
M  ISO  2  37   3  38   3
M  END
>  <minimizedAffinity>  (1) 
-6.0628705

>  <minimizedRMSD>  (1) 
3.15705919

$$$$
