
     RDKit          3D

 36 37  0  0  0  0  0  0  0  0999 V2000
   30.3670   26.2000   47.4410 O   0  0  0  0  0  0  0  0  0  0  0  0
   30.6130   27.6900   47.6590 P   0  0  2  0  0  0  0  0  0  0  0  0
   31.0810   28.4580   46.2180 O   0  0  0  0  0  0  0  0  0  0  0  0
   31.9240   27.7490   48.7400 O   0  0  0  0  0  0  0  0  0  0  0  0
   33.0790   27.3330   48.0570 C   0  0  0  0  0  0  0  0  0  0  0  0
   34.5510   28.4280   49.7280 C   0  0  0  0  0  0  0  0  0  0  0  0
   34.2710   28.1060   48.5040 C   0  0  0  0  0  0  0  0  0  0  0  0
   37.3210   30.1880   51.3580 C   0  0  0  0  0  0  0  0  0  0  0  0
   38.0770   30.6300   50.2640 C   0  0  0  0  0  0  0  0  0  0  0  0
   37.6200   30.3170   48.9730 C   0  0  0  0  0  0  0  0  0  0  0  0
   36.4580   29.5920   48.8910 N   0  0  0  0  0  0  0  0  0  0  0  0
   35.7720   29.1910   49.9560 C   0  0  0  0  0  0  0  0  0  0  0  0
   36.2120   29.4940   51.1850 N   0  0  0  0  0  0  0  0  0  0  0  0
   29.2420   28.4320   48.3060 O   0  0  0  0  0  0  0  0  0  0  0  0
   27.2010   28.4060   49.3760 C   0  0  0  0  0  0  0  0  0  0  0  0
   28.5540   28.0530   49.4370 C   0  0  0  0  0  0  0  0  0  0  0  0
   29.0670   27.4020   50.5360 C   0  0  0  0  0  0  0  0  0  0  0  0
   28.2350   27.0960   51.5850 C   0  0  0  0  0  0  0  0  0  0  0  0
   26.9200   27.4410   51.5230 C   0  0  0  0  0  0  0  0  0  0  0  0
   26.3530   28.0940   50.4460 C   0  0  0  0  0  0  0  0  0  0  0  0
   26.4620   29.2360   48.0190 S   0  0  0  0  0  0  0  0  0  0  0  0
   27.1720   30.5170   47.7270 O   0  0  0  0  0  0  0  0  0  0  0  0
   26.5140   28.3150   46.8080 O   0  0  0  0  0  0  0  0  0  0  0  0
   31.5840   29.2834   46.4322 H   0  0  0  0  0  0  0  0  0  0  0  0
   32.9340   27.4877   46.9776 H   0  0  0  0  0  0  0  0  0  0  0  0
   33.2502   26.2683   48.2741 H   0  0  0  0  0  0  0  0  0  0  0  0
   33.8939   28.1373   50.5609 H   0  0  0  0  0  0  0  0  0  0  0  0
   34.9767   28.4328   47.7261 H   0  0  0  0  0  0  0  0  0  0  0  0
   37.6577   30.4236   52.3784 H   0  0  0  0  0  0  0  0  0  0  0  0
   39.0024   31.2059   50.4120 H   0  0  0  0  0  0  0  0  0  0  0  0
   38.1661   30.6370   48.0734 H   0  0  0  0  0  0  0  0  0  0  0  0
   30.1321   27.1297   50.5737 H   0  0  0  0  0  0  0  0  0  0  0  0
   28.6292   26.5751   52.4701 H   0  0  0  0  0  0  0  0  0  0  0  0
   26.2741   27.1862   52.3762 H   0  0  0  0  0  0  0  0  0  0  0  0
   25.2850   28.3568   50.4295 H   0  0  0  0  0  0  0  0  0  0  0  0
   25.1620   29.5439   48.3225 H   0  0  0  0  0  0  0  0  0  0  0  0
  2  1  2  0
  2 14  1  0
  2  4  1  0
  3  2  1  0
  5  7  1  0
  5  4  1  0
  6 12  1  0
  7  6  2  0
  9  8  2  0
 10  9  1  0
 11 10  2  0
 11 12  1  0
 12 13  2  0
 13  8  1  0
 14 16  1  0
 15 16  2  0
 15 20  1  0
 16 17  1  0
 17 18  2  0
 19 18  1  0
 20 19  2  0
 21 15  1  0
 22 21  2  0
 23 21  2  0
  3 24  1  0
  5 25  1  0
  5 26  1  0
  6 27  1  0
  7 28  1  0
  8 29  1  0
  9 30  1  0
 10 31  1  0
 17 32  1  0
 18 33  1  0
 19 34  1  0
 20 35  1  0
 21 36  1  0
M  ISO  8  24   3  25   8  26   8  29  14  30  14  31  14  32  14  33  14
M  ISO  3  34  14  35  14  36  11
M  END
>  <minimizedAffinity>  (1) 
-6.2666316

>  <minimizedRMSD>  (1) 
1.44253922

$$$$
