
     RDKit          3D

 25 26  0  0  1  0  0  0  0  0999 V2000
   38.6550   31.2650   47.6170 C   0  0  2  0  0  0  0  0  0  0  0  0
   37.6670   31.9800   48.5700 C   0  0  2  0  0  0  0  0  0  0  0  0
   38.5500   33.0310   49.1050 C   0  0  0  0  0  0  0  0  0  0  0  0
   39.3430   33.4620   48.0520 O   0  0  0  0  0  0  0  0  0  0  0  0
   39.3100   32.5330   47.0530 C   0  0  0  0  0  0  0  0  0  0  0  0
   37.0980   29.7780   51.5710 C   0  0  0  0  0  0  0  0  0  0  0  0
   37.7350   30.6690   50.6760 C   0  0  0  0  0  0  0  0  0  0  0  0
   37.0550   31.0840   49.5160 C   0  0  0  0  0  0  0  0  0  0  0  0
   35.7880   30.5910   49.3120 N   0  0  0  0  0  0  0  0  0  0  0  0
   35.2120   29.7460   50.1800 C   0  0  0  0  0  0  0  0  0  0  0  0
   35.8490   29.3300   51.3110 N   0  0  0  0  0  0  0  0  0  0  0  0
   37.9900   30.5790   46.6260 O   0  0  0  0  0  0  0  0  0  0  0  0
   37.5790   31.3620   45.5690 C   0  0  0  0  0  0  0  0  0  0  0  0
   39.3178   30.5113   48.0671 H   0  0  0  0  0  0  0  0  0  0  0  0
   36.7555   32.3962   48.1162 H   0  0  0  0  0  0  0  0  0  0  0  0
   37.9507   33.8670   49.4947 H   0  0  0  0  0  0  0  0  0  0  0  0
   39.1658   32.6465   49.9314 H   0  0  0  0  0  0  0  0  0  0  0  0
   40.3328   32.3084   46.7163 H   0  0  0  0  0  0  0  0  0  0  0  0
   38.7386   32.9121   46.1929 H   0  0  0  0  0  0  0  0  0  0  0  0
   37.6203   29.4485   52.4813 H   0  0  0  0  0  0  0  0  0  0  0  0
   38.7516   31.0338   50.8846 H   0  0  0  0  0  0  0  0  0  0  0  0
   34.1962   29.3781   49.9731 H   0  0  0  0  0  0  0  0  0  0  0  0
   37.1000   32.2746   45.9533 H   0  0  0  0  0  0  0  0  0  0  0  0
   38.4497   31.6356   44.9550 H   0  0  0  0  0  0  0  0  0  0  0  0
   36.8592   30.8007   44.9550 H   0  0  0  0  0  0  0  0  0  0  0  0
  1  2  1  0
  2  3  1  0
  2  8  1  0
  4  3  1  0
  5  1  1  0
  5  4  1  0
  7  6  2  0
  8  7  1  0
  9  8  2  0
  9 10  1  0
 10 11  2  0
 11  6  1  0
 12  1  1  0
 13 12  1  0
  1 14  1  1
  2 15  1  6
  3 16  1  0
  3 17  1  0
  5 18  1  0
  5 19  1  0
  6 20  1  0
  7 21  1  0
 10 22  1  0
 13 23  1  0
 13 24  1  0
 13 25  1  0
M  ISO  8  14  13  15  13  16  13  17  13  18  13  19  13  20  14  21  14
M  ISO  4  22  14  23   8  24   8  25   8
M  END
>  <minimizedAffinity>  (1) 
-4.56301594

>  <minimizedRMSD>  (1) 
1.07701755

$$$$
