
     RDKit          3D

 39 42  0  0  1  0  0  0  0  0999 V2000
   38.9950   32.4420   47.6280 C   0  0  2  0  0  0  0  0  0  0  0  0
   37.9810   32.6100   48.8010 C   0  0  2  0  0  0  0  0  0  0  0  0
   38.7950   33.3220   49.7710 C   0  0  0  0  0  0  0  0  0  0  0  0
   39.6350   34.1880   49.0790 O   0  0  0  0  0  0  0  0  0  0  0  0
   39.6000   33.8690   47.7570 C   0  0  0  0  0  0  0  0  0  0  0  0
   37.3330   29.3170   50.4970 C   0  0  0  0  0  0  0  0  0  0  0  0
   37.9770   30.5430   50.1760 C   0  0  0  0  0  0  0  0  0  0  0  0
   37.3720   31.3600   49.1800 C   0  0  0  0  0  0  0  0  0  0  0  0
   36.2090   30.9330   48.5840 N   0  0  0  0  0  0  0  0  0  0  0  0
   35.6410   29.7720   48.9190 C   0  0  0  0  0  0  0  0  0  0  0  0
   36.1880   28.9580   49.8690 N   0  0  0  0  0  0  0  0  0  0  0  0
   38.3760   32.3450   46.4220 O   0  0  0  0  0  0  0  0  0  0  0  0
   40.9140   32.0750   44.6970 Cl  0  0  0  0  0  0  0  0  0  0  0  0
   39.4180   31.2310   44.4290 C   0  0  0  0  0  0  0  0  0  0  0  0
   38.4240   31.5300   45.3520 C   0  0  0  0  0  0  0  0  0  0  0  0
   37.2170   30.8720   45.1600 C   0  0  0  0  0  0  0  0  0  0  0  0
   37.0350   29.9730   44.1040 C   0  0  0  0  0  0  0  0  0  0  0  0
   38.0580   29.7280   43.2320 C   0  0  0  0  0  0  0  0  0  0  0  0
   39.2730   30.3620   43.3900 C   0  0  0  0  0  0  0  0  0  0  0  0
   40.3090   30.0500   42.4280 C   0  0  0  0  0  0  0  0  0  0  0  0
   41.3530   29.1630   42.3630 C   0  0  0  0  0  0  0  0  0  0  0  0
   42.0600   29.2520   41.2300 N   0  0  0  0  0  0  0  0  0  0  0  0
   41.4580   30.2240   40.5430 C   0  0  0  0  0  0  0  0  0  0  0  0
   40.4400   30.6860   41.2440 N   0  0  0  0  0  0  0  0  0  0  0  0
   39.6551   31.5634   47.6762 H   0  0  0  0  0  0  0  0  0  0  0  0
   37.0612   33.1761   48.5925 H   0  0  0  0  0  0  0  0  0  0  0  0
   38.1480   33.8949   50.4516 H   0  0  0  0  0  0  0  0  0  0  0  0
   39.3875   32.6111   50.3657 H   0  0  0  0  0  0  0  0  0  0  0  0
   40.6185   33.8825   47.3417 H   0  0  0  0  0  0  0  0  0  0  0  0
   38.9895   34.5967   47.2022 H   0  0  0  0  0  0  0  0  0  0  0  0
   37.7676   28.6553   51.2607 H   0  0  0  0  0  0  0  0  0  0  0  0
   38.9069   30.8484   50.6780 H   0  0  0  0  0  0  0  0  0  0  0  0
   34.7112   29.4643   48.4182 H   0  0  0  0  0  0  0  0  0  0  0  0
   36.3849   31.0618   45.8539 H   0  0  0  0  0  0  0  0  0  0  0  0
   36.0686   29.4634   43.9756 H   0  0  0  0  0  0  0  0  0  0  0  0
   37.9122   29.0225   42.4008 H   0  0  0  0  0  0  0  0  0  0  0  0
   41.5868   28.4473   43.1649 H   0  0  0  0  0  0  0  0  0  0  0  0
   42.8816   28.6965   40.9520 H   0  0  0  0  0  0  0  0  0  0  0  0
   41.7622   30.5837   39.5490 H   0  0  0  0  0  0  0  0  0  0  0  0
  1  5  1  0
  1  2  1  0
  2  8  1  0
  2  3  1  0
  4  3  1  0
  5  4  1  0
  7  6  2  0
  8  7  1  0
  9 10  1  0
  9  8  2  0
 10 11  2  0
 11  6  1  0
 12  1  1  0
 14 13  1  0
 14 15  2  0
 15 12  1  0
 16 15  1  0
 17 16  2  0
 18 19  2  0
 18 17  1  0
 19 14  1  0
 20 19  1  0
 21 20  2  0
 22 21  1  0
 23 22  1  0
 23 24  2  0
 24 20  1  0
  1 25  1  1
  2 26  1  6
  3 27  1  0
  3 28  1  0
  5 29  1  0
  5 30  1  0
  6 31  1  0
  7 32  1  0
 10 33  1  0
 16 34  1  0
 17 35  1  0
 18 36  1  0
 21 37  1  0
 22 38  1  0
 23 39  1  0
M  ISO  8  25  13  26  13  27  13  28  13  29  13  30  13  31  14  32  14
M  ISO  7  33  14  34  14  35  14  36  14  37  14  38   9  39  14
M  END
>  <minimizedAffinity>  (1) 
-6.36953974

>  <minimizedRMSD>  (1) 
0.842946351

$$$$
