
     RDKit          3D

 45 48  0  0  1  0  0  0  0  0999 V2000
   40.4740   32.2070   44.5280 Cl  0  0  0  0  0  0  0  0  0  0  0  0
   38.9990   31.2890   44.4570 C   0  0  0  0  0  0  0  0  0  0  0  0
   38.1200   31.5490   45.5010 C   0  0  0  0  0  0  0  0  0  0  0  0
   36.9320   30.8320   45.4580 C   0  0  0  0  0  0  0  0  0  0  0  0
   36.6500   29.9280   44.4510 C   0  0  0  0  0  0  0  0  0  0  0  0
   37.5570   29.7140   43.4480 C   0  0  0  0  0  0  0  0  0  0  0  0
   38.7370   30.4000   43.4570 C   0  0  0  0  0  0  0  0  0  0  0  0
   39.7890   31.0200   41.2920 C   0  0  0  0  0  0  0  0  0  0  0  0
   39.7570   30.2290   42.4250 C   0  0  0  0  0  0  0  0  0  0  0  0
   40.7390   29.2560   42.5470 C   0  0  0  0  0  0  0  0  0  0  0  0
   41.7100   29.0610   41.6080 C   0  0  0  0  0  0  0  0  0  0  0  0
   41.7370   29.8540   40.4790 C   0  0  0  0  0  0  0  0  0  0  0  0
   40.7670   30.8340   40.3320 C   0  0  0  0  0  0  0  0  0  0  0  0
   38.5830   32.2720   41.0630 S   0  0  0  0  0  0  0  0  0  0  0  0
   38.4480   32.4940   39.5950 O   0  0  0  0  0  0  0  0  0  0  0  0
   39.0950   33.5250   41.7110 O   0  0  0  0  0  0  0  0  0  0  0  0
   38.1680   32.3690   46.5760 O   0  0  0  0  0  0  0  0  0  0  0  0
   38.9140   32.4780   47.7030 C   0  0  2  0  0  0  0  0  0  0  0  0
   38.0290   32.7610   48.9630 C   0  0  2  0  0  0  0  0  0  0  0  0
   38.9860   33.4570   49.8100 C   0  0  0  0  0  0  0  0  0  0  0  0
   39.8060   34.2350   48.9980 O   0  0  0  0  0  0  0  0  0  0  0  0
   39.6140   33.8640   47.7050 C   0  0  0  0  0  0  0  0  0  0  0  0
   37.3650   29.6080   50.9150 C   0  0  0  0  0  0  0  0  0  0  0  0
   38.0330   30.7800   50.4680 C   0  0  0  0  0  0  0  0  0  0  0  0
   37.3980   31.5680   49.4630 C   0  0  0  0  0  0  0  0  0  0  0  0
   36.1760   31.1620   48.9740 N   0  0  0  0  0  0  0  0  0  0  0  0
   35.5890   30.0480   49.4280 C   0  0  0  0  0  0  0  0  0  0  0  0
   36.1600   29.2700   50.3860 N   0  0  0  0  0  0  0  0  0  0  0  0
   36.1887   30.9888   46.2535 H   0  0  0  0  0  0  0  0  0  0  0  0
   35.6961   29.3801   44.4555 H   0  0  0  0  0  0  0  0  0  0  0  0
   37.3371   28.9968   42.6434 H   0  0  0  0  0  0  0  0  0  0  0  0
   40.7345   28.6136   43.4399 H   0  0  0  0  0  0  0  0  0  0  0  0
   42.4671   28.2758   41.7504 H   0  0  0  0  0  0  0  0  0  0  0  0
   42.5120   29.7117   39.7115 H   0  0  0  0  0  0  0  0  0  0  0  0
   40.7756   31.4739   39.4373 H   0  0  0  0  0  0  0  0  0  0  0  0
   37.3745   31.9245   41.6068 H   0  0  0  0  0  0  0  0  0  0  0  0
   39.5257   31.5641   47.7261 H   0  0  0  0  0  0  0  0  0  0  0  0
   37.1260   33.3726   48.8196 H   0  0  0  0  0  0  0  0  0  0  0  0
   38.4511   34.1009   50.5237 H   0  0  0  0  0  0  0  0  0  0  0  0
   39.5907   32.7309   50.3732 H   0  0  0  0  0  0  0  0  0  0  0  0
   40.5829   33.7937   47.1889 H   0  0  0  0  0  0  0  0  0  0  0  0
   38.9933   34.6066   47.1823 H   0  0  0  0  0  0  0  0  0  0  0  0
   37.8233   28.9748   51.6889 H   0  0  0  0  0  0  0  0  0  0  0  0
   39.0091   31.0703   50.8840 H   0  0  0  0  0  0  0  0  0  0  0  0
   34.6140   29.7526   49.0131 H   0  0  0  0  0  0  0  0  0  0  0  0
  2  1  1  0
  2  3  2  0
  3 17  1  0
  4  3  1  0
  5  4  2  0
  6  7  2  0
  6  5  1  0
  7  2  1  0
  8  9  2  0
  9 10  1  0
  9  7  1  0
 11 10  2  0
 12 11  1  0
 13 12  2  0
 13  8  1  0
 14  8  1  0
 14 16  2  0
 15 14  2  0
 17 18  1  0
 18 22  1  0
 18 19  1  0
 19 25  1  0
 19 20  1  0
 21 20  1  0
 22 21  1  0
 24 23  2  0
 25 24  1  0
 26 27  1  0
 26 25  2  0
 27 28  2  0
 28 23  1  0
  4 29  1  0
  5 30  1  0
  6 31  1  0
 10 32  1  0
 11 33  1  0
 12 34  1  0
 13 35  1  0
 14 36  1  0
 18 37  1  1
 19 38  1  6
 20 39  1  0
 20 40  1  0
 22 41  1  0
 22 42  1  0
 23 43  1  0
 24 44  1  0
 27 45  1  0
M  ISO  8  29  14  30  14  31  14  32  14  33  14  34  14  35  14  36  11
M  ISO  8  37  13  38  13  39  13  40  13  41  13  42  13  43  14  44  14
M  ISO  1  45  14
M  END
>  <minimizedAffinity>  (1) 
-6.32921457

>  <minimizedRMSD>  (1) 
1.98093939

$$$$
