
     RDKit          3D

 42 45  0  0  1  0  0  0  0  0999 V2000
   38.8960   32.4880   47.7130 C   0  0  2  0  0  0  0  0  0  0  0  0
   38.0240   32.7610   48.9790 C   0  0  2  0  0  0  0  0  0  0  0  0
   38.9780   33.4510   49.8320 C   0  0  0  0  0  0  0  0  0  0  0  0
   39.7940   34.2360   49.0180 O   0  0  0  0  0  0  0  0  0  0  0  0
   39.5930   33.8800   47.7210 C   0  0  0  0  0  0  0  0  0  0  0  0
   37.3620   29.5970   50.9100 C   0  0  0  0  0  0  0  0  0  0  0  0
   38.0280   30.7730   50.4730 C   0  0  0  0  0  0  0  0  0  0  0  0
   37.3930   31.5620   49.4720 C   0  0  0  0  0  0  0  0  0  0  0  0
   36.1740   31.1550   48.9780 N   0  0  0  0  0  0  0  0  0  0  0  0
   35.5880   30.0390   49.4230 C   0  0  0  0  0  0  0  0  0  0  0  0
   36.1620   29.2550   50.3800 N   0  0  0  0  0  0  0  0  0  0  0  0
   38.1480   32.3870   46.5880 O   0  0  0  0  0  0  0  0  0  0  0  0
   40.4030   32.3470   44.4810 Cl  0  0  0  0  0  0  0  0  0  0  0  0
   38.9650   31.3770   44.4300 C   0  0  0  0  0  0  0  0  0  0  0  0
   38.1030   31.5840   45.5000 C   0  0  0  0  0  0  0  0  0  0  0  0
   36.9450   30.8240   45.4770 C   0  0  0  0  0  0  0  0  0  0  0  0
   36.6710   29.9250   44.4610 C   0  0  0  0  0  0  0  0  0  0  0  0
   37.5570   29.7620   43.4320 C   0  0  0  0  0  0  0  0  0  0  0  0
   38.7090   30.4960   43.4220 C   0  0  0  0  0  0  0  0  0  0  0  0
   39.6950   30.3650   42.3520 C   0  0  0  0  0  0  0  0  0  0  0  0
   40.5450   29.2820   42.6000 C   0  0  0  0  0  0  0  0  0  0  0  0
   41.5670   28.9550   41.7240 C   0  0  0  0  0  0  0  0  0  0  0  0
   41.7370   29.7210   40.5900 C   0  0  0  0  0  0  0  0  0  0  0  0
   40.9000   30.7850   40.3480 C   0  0  0  0  0  0  0  0  0  0  0  0
   39.8820   31.1180   41.2110 C   0  0  0  0  0  0  0  0  0  0  0  0
   39.5061   31.5728   47.7263 H   0  0  0  0  0  0  0  0  0  0  0  0
   37.1233   33.3775   48.8425 H   0  0  0  0  0  0  0  0  0  0  0  0
   38.4429   34.0891   50.5507 H   0  0  0  0  0  0  0  0  0  0  0  0
   39.5837   32.7247   50.3938 H   0  0  0  0  0  0  0  0  0  0  0  0
   40.5576   33.8187   47.1959 H   0  0  0  0  0  0  0  0  0  0  0  0
   38.9672   34.6264   47.2099 H   0  0  0  0  0  0  0  0  0  0  0  0
   37.8216   28.9615   51.6813 H   0  0  0  0  0  0  0  0  0  0  0  0
   39.0017   31.0645   50.8937 H   0  0  0  0  0  0  0  0  0  0  0  0
   34.6141   29.7443   49.0050 H   0  0  0  0  0  0  0  0  0  0  0  0
   36.2181   30.9390   46.2945 H   0  0  0  0  0  0  0  0  0  0  0  0
   35.7392   29.3407   44.4812 H   0  0  0  0  0  0  0  0  0  0  0  0
   37.3445   29.0485   42.6222 H   0  0  0  0  0  0  0  0  0  0  0  0
   40.3990   28.6785   43.5080 H   0  0  0  0  0  0  0  0  0  0  0  0
   42.2298   28.1013   41.9289 H   0  0  0  0  0  0  0  0  0  0  0  0
   42.5417   29.4811   39.8794 H   0  0  0  0  0  0  0  0  0  0  0  0
   41.0487   31.3864   39.4391 H   0  0  0  0  0  0  0  0  0  0  0  0
   39.2254   31.9736   40.9943 H   0  0  0  0  0  0  0  0  0  0  0  0
  1  5  1  0
  1  2  1  0
  2  8  1  0
  2  3  1  0
  4  3  1  0
  5  4  1  0
  7  6  2  0
  8  7  1  0
  9 10  1  0
  9  8  2  0
 10 11  2  0
 11  6  1  0
 12  1  1  0
 14 13  1  0
 14 15  2  0
 15 12  1  0
 16 15  1  0
 17 16  2  0
 18 17  1  0
 19 18  2  0
 19 14  1  0
 20 21  2  0
 20 19  1  0
 22 21  1  0
 23 22  2  0
 24 23  1  0
 24 25  2  0
 25 20  1  0
  1 26  1  1
  2 27  1  6
  3 28  1  0
  3 29  1  0
  5 30  1  0
  5 31  1  0
  6 32  1  0
  7 33  1  0
 10 34  1  0
 16 35  1  0
 17 36  1  0
 18 37  1  0
 21 38  1  0
 22 39  1  0
 23 40  1  0
 24 41  1  0
 25 42  1  0
M  ISO  8  26  13  27  13  28  13  29  13  30  13  31  13  32  14  33  14
M  ISO  8  34  14  35  14  36  14  37  14  38  14  39  14  40  14  41  14
M  ISO  1  42  14
M  END
>  <minimizedAffinity>  (1) 
-6.28955173

>  <minimizedRMSD>  (1) 
1.15415716

$$$$
