
     RDKit          3D

 33 35  0  0  1  0  0  0  0  0999 V2000
   39.0020   32.4180   47.7720 C   0  0  2  0  0  0  0  0  0  0  0  0
   38.0010   32.7260   48.9340 C   0  0  2  0  0  0  0  0  0  0  0  0
   38.8460   33.5050   49.8250 C   0  0  0  0  0  0  0  0  0  0  0  0
   39.7060   34.2730   49.0500 O   0  0  0  0  0  0  0  0  0  0  0  0
   39.6450   33.8320   47.7710 C   0  0  0  0  0  0  0  0  0  0  0  0
   37.3140   29.6180   50.9460 C   0  0  0  0  0  0  0  0  0  0  0  0
   37.9870   30.7940   50.5030 C   0  0  0  0  0  0  0  0  0  0  0  0
   37.3770   31.5270   49.4420 C   0  0  0  0  0  0  0  0  0  0  0  0
   36.1890   31.0810   48.8980 N   0  0  0  0  0  0  0  0  0  0  0  0
   35.6050   29.9670   49.3580 C   0  0  0  0  0  0  0  0  0  0  0  0
   36.1430   29.2310   50.3650 N   0  0  0  0  0  0  0  0  0  0  0  0
   38.3680   32.2230   46.5920 O   0  0  0  0  0  0  0  0  0  0  0  0
   41.0340   31.3430   45.3220 Cl  0  0  0  0  0  0  0  0  0  0  0  0
   39.4490   30.7770   44.8540 C   0  0  0  0  0  0  0  0  0  0  0  0
   38.4080   31.3310   45.5860 C   0  0  0  0  0  0  0  0  0  0  0  0
   37.1480   30.8860   45.2210 C   0  0  0  0  0  0  0  0  0  0  0  0
   36.9360   29.9710   44.2160 C   0  0  0  0  0  0  0  0  0  0  0  0
   38.0220   29.4570   43.5220 C   0  0  0  0  0  0  0  0  0  0  0  0
   39.2890   29.8590   43.8400 C   0  0  0  0  0  0  0  0  0  0  0  0
   40.4430   29.4080   43.2110 O   0  0  0  0  0  0  0  0  0  0  0  0
   39.6415   31.5309   47.8913 H   0  0  0  0  0  0  0  0  0  0  0  0
   37.0929   33.2919   48.6788 H   0  0  0  0  0  0  0  0  0  0  0  0
   38.2223   34.1612   50.4499 H   0  0  0  0  0  0  0  0  0  0  0  0
   39.4224   32.8365   50.4814 H   0  0  0  0  0  0  0  0  0  0  0  0
   40.6587   33.7792   47.3472 H   0  0  0  0  0  0  0  0  0  0  0  0
   39.0428   34.5214   47.1610 H   0  0  0  0  0  0  0  0  0  0  0  0
   37.7427   29.0184   51.7626 H   0  0  0  0  0  0  0  0  0  0  0  0
   38.9333   31.1213   50.9584 H   0  0  0  0  0  0  0  0  0  0  0  0
   34.6583   29.6371   48.9054 H   0  0  0  0  0  0  0  0  0  0  0  0
   36.2755   31.2832   45.7605 H   0  0  0  0  0  0  0  0  0  0  0  0
   35.9145   29.6496   43.9647 H   0  0  0  0  0  0  0  0  0  0  0  0
   37.8632   28.7258   42.7157 H   0  0  0  0  0  0  0  0  0  0  0  0
   41.3279   29.7466   43.4981 H   0  0  0  0  0  0  0  0  0  0  0  0
  1  2  1  0
  2  8  1  0
  2  3  1  0
  4  3  1  0
  5  1  1  0
  5  4  1  0
  7  6  2  0
  8  7  1  0
  9 10  1  0
  9  8  2  0
 10 11  2  0
 11  6  1  0
 12  1  1  0
 14 13  1  0
 14 15  2  0
 15 12  1  0
 16 15  1  0
 17 16  2  0
 18 19  2  0
 18 17  1  0
 19 14  1  0
 20 19  1  0
  1 21  1  1
  2 22  1  6
  3 23  1  0
  3 24  1  0
  5 25  1  0
  5 26  1  0
  6 27  1  0
  7 28  1  0
 10 29  1  0
 16 30  1  0
 17 31  1  0
 18 32  1  0
 20 33  1  0
M  ISO  8  21  13  22  13  23  13  24  13  25  13  26  13  27  14  28  14
M  ISO  5  29  14  30  14  31  14  32  14  33   3
M  END
>  <minimizedAffinity>  (1) 
-5.89673471

>  <minimizedRMSD>  (1) 
0.157760531

$$$$
