
     RDKit          3D

 35 37  0  0  1  0  0  0  0  0999 V2000
   39.0120   32.4780   47.7350 C   0  0  2  0  0  0  0  0  0  0  0  0
   37.9770   32.6600   48.8920 C   0  0  2  0  0  0  0  0  0  0  0  0
   38.7760   33.3910   49.8620 C   0  0  0  0  0  0  0  0  0  0  0  0
   39.6180   34.2550   49.1670 O   0  0  0  0  0  0  0  0  0  0  0  0
   39.6050   33.9100   47.8590 C   0  0  0  0  0  0  0  0  0  0  0  0
   37.3380   29.3860   50.6350 C   0  0  0  0  0  0  0  0  0  0  0  0
   37.9710   30.6130   50.2990 C   0  0  0  0  0  0  0  0  0  0  0  0
   37.3810   31.4070   49.2900 C   0  0  0  0  0  0  0  0  0  0  0  0
   36.2230   30.9630   48.6780 N   0  0  0  0  0  0  0  0  0  0  0  0
   35.6640   29.8030   49.0270 C   0  0  0  0  0  0  0  0  0  0  0  0
   36.1950   29.0080   49.9900 N   0  0  0  0  0  0  0  0  0  0  0  0
   38.4060   32.3620   46.5300 O   0  0  0  0  0  0  0  0  0  0  0  0
   41.0070   32.0560   44.9050 Cl  0  0  0  0  0  0  0  0  0  0  0  0
   39.4880   31.2360   44.5720 C   0  0  0  0  0  0  0  0  0  0  0  0
   38.4700   31.5510   45.4620 C   0  0  0  0  0  0  0  0  0  0  0  0
   37.2750   30.9030   45.2020 C   0  0  0  0  0  0  0  0  0  0  0  0
   37.1170   30.0220   44.1510 C   0  0  0  0  0  0  0  0  0  0  0  0
   38.1760   29.7630   43.3110 C   0  0  0  0  0  0  0  0  0  0  0  0
   39.4010   30.3730   43.5080 C   0  0  0  0  0  0  0  0  0  0  0  0
   40.6130   30.1740   42.6730 C   0  0  0  0  0  0  0  0  0  0  0  0
   39.6794   31.6060   47.7992 H   0  0  0  0  0  0  0  0  0  0  0  0
   37.0565   33.2150   48.6585 H   0  0  0  0  0  0  0  0  0  0  0  0
   38.1176   33.9679   50.5281 H   0  0  0  0  0  0  0  0  0  0  0  0
   39.3672   32.6923   50.4722 H   0  0  0  0  0  0  0  0  0  0  0  0
   40.6304   33.9232   47.4611 H   0  0  0  0  0  0  0  0  0  0  0  0
   38.9939   34.6230   47.2861 H   0  0  0  0  0  0  0  0  0  0  0  0
   37.7686   28.7405   51.4147 H   0  0  0  0  0  0  0  0  0  0  0  0
   38.8914   30.9346   50.8084 H   0  0  0  0  0  0  0  0  0  0  0  0
   34.7436   29.4808   48.5180 H   0  0  0  0  0  0  0  0  0  0  0  0
   36.4155   31.0981   45.8601 H   0  0  0  0  0  0  0  0  0  0  0  0
   36.1479   29.5286   43.9855 H   0  0  0  0  0  0  0  0  0  0  0  0
   38.0462   29.0624   42.4730 H   0  0  0  0  0  0  0  0  0  0  0  0
   41.4876   30.0304   43.3245 H   0  0  0  0  0  0  0  0  0  0  0  0
   40.4790   29.2858   42.0380 H   0  0  0  0  0  0  0  0  0  0  0  0
   40.7701   31.0584   42.0380 H   0  0  0  0  0  0  0  0  0  0  0  0
  1  5  1  0
  1  2  1  0
  2  8  1  0
  2  3  1  0
  4  3  1  0
  5  4  1  0
  7  6  2  0
  8  7  1  0
  9 10  1  0
  9  8  2  0
 10 11  2  0
 11  6  1  0
 12  1  1  0
 14 13  1  0
 14 15  2  0
 15 12  1  0
 16 15  1  0
 17 16  2  0
 18 19  2  0
 18 17  1  0
 19 14  1  0
 20 19  1  0
  1 21  1  1
  2 22  1  6
  3 23  1  0
  3 24  1  0
  5 25  1  0
  5 26  1  0
  6 27  1  0
  7 28  1  0
 10 29  1  0
 16 30  1  0
 17 31  1  0
 18 32  1  0
 20 33  1  0
 20 34  1  0
 20 35  1  0
M  ISO  8  21  13  22  13  23  13  24  13  25  13  26  13  27  14  28  14
M  ISO  7  29  14  30  14  31  14  32  14  33   8  34   8  35   8
M  END
>  <minimizedAffinity>  (1) 
-5.7090826

>  <minimizedRMSD>  (1) 
0.526601672

$$$$
