
     RDKit          3D

 46 48  0  0  0  0  0  0  0  0999 V2000
   27.9360   28.2230   48.6150 C   0  0  0  0  0  0  0  0  0  0  0  0
   29.2290   27.9560   49.0950 C   0  0  0  0  0  0  0  0  0  0  0  0
   29.4440   27.4590   50.3610 C   0  0  0  0  0  0  0  0  0  0  0  0
   28.3640   27.2210   51.1780 C   0  0  0  0  0  0  0  0  0  0  0  0
   27.1070   27.4770   50.7230 C   0  0  0  0  0  0  0  0  0  0  0  0
   26.8500   27.9730   49.4660 C   0  0  0  0  0  0  0  0  0  0  0  0
   27.5880   28.8530   47.0240 S   0  0  0  0  0  0  0  0  0  0  0  0
   28.7950   28.8500   46.1700 O   0  0  0  0  0  0  0  0  0  0  0  0
   26.4800   27.9800   46.4110 O   0  0  0  0  0  0  0  0  0  0  0  0
   27.2370   30.4480   44.2660 Cl  0  0  0  0  0  0  0  0  0  0  0  0
   26.7850   31.0650   45.8540 C   0  0  0  0  0  0  0  0  0  0  0  0
   26.9210   30.4450   47.1020 C   0  0  0  0  0  0  0  0  0  0  0  0
   26.5220   31.1130   48.2270 C   0  0  0  0  0  0  0  0  0  0  0  0
   25.9790   32.3870   48.2020 C   0  0  0  0  0  0  0  0  0  0  0  0
   25.8550   32.9730   46.9600 C   0  0  0  0  0  0  0  0  0  0  0  0
   26.2450   32.3450   45.7790 C   0  0  0  0  0  0  0  0  0  0  0  0
   30.1930   28.2490   48.1630 O   0  0  0  0  0  0  0  0  0  0  0  0
   31.6110   26.0310   48.2700 O   0  0  0  0  0  0  0  0  0  0  0  0
   31.7110   27.5300   47.9860 P   0  0  1  0  0  0  0  0  0  0  0  0
   32.3490   27.8270   46.4520 O   0  0  0  0  0  0  0  0  0  0  0  0
   32.8110   28.1140   49.1560 O   0  0  0  0  0  0  0  0  0  0  0  0
   34.1090   27.7900   48.7280 C   0  0  0  0  0  0  0  0  0  0  0  0
   36.0650   29.1680   49.3070 C   0  0  0  0  0  0  0  0  0  0  0  0
   34.9730   28.9890   48.6130 C   0  0  0  0  0  0  0  0  0  0  0  0
   37.4150   32.5570   49.6260 C   0  0  0  0  0  0  0  0  0  0  0  0
   38.3400   32.6060   48.5620 C   0  0  0  0  0  0  0  0  0  0  0  0
   38.4760   31.4730   47.7600 C   0  0  0  0  0  0  0  0  0  0  0  0
   37.6810   30.4050   48.0960 N   0  0  0  0  0  0  0  0  0  0  0  0
   36.8240   30.3860   49.0980 C   0  0  0  0  0  0  0  0  0  0  0  0
   36.7050   31.4740   49.8520 N   0  0  0  0  0  0  0  0  0  0  0  0
   30.4657   27.2552   50.7139 H   0  0  0  0  0  0  0  0  0  0  0  0
   28.5150   26.8260   52.1935 H   0  0  0  0  0  0  0  0  0  0  0  0
   26.2567   27.2779   51.3919 H   0  0  0  0  0  0  0  0  0  0  0  0
   25.8188   28.1685   49.1368 H   0  0  0  0  0  0  0  0  0  0  0  0
   26.6382   30.6135   49.2001 H   0  0  0  0  0  0  0  0  0  0  0  0
   25.6643   32.9024   49.1214 H   0  0  0  0  0  0  0  0  0  0  0  0
   25.4277   33.9848   46.8987 H   0  0  0  0  0  0  0  0  0  0  0  0
   26.1285   32.8500   44.8088 H   0  0  0  0  0  0  0  0  0  0  0  0
   33.2429   28.2431   46.5413 H   0  0  0  0  0  0  0  0  0  0  0  0
   34.5591   27.0965   49.4536 H   0  0  0  0  0  0  0  0  0  0  0  0
   34.0326   27.3303   47.7316 H   0  0  0  0  0  0  0  0  0  0  0  0
   36.4010   28.4128   50.0328 H   0  0  0  0  0  0  0  0  0  0  0  0
   34.6772   29.7740   47.9015 H   0  0  0  0  0  0  0  0  0  0  0  0
   37.2862   33.4360   50.2746 H   0  0  0  0  0  0  0  0  0  0  0  0
   38.9360   33.5105   48.3706 H   0  0  0  0  0  0  0  0  0  0  0  0
   39.1758   31.4373   46.9120 H   0  0  0  0  0  0  0  0  0  0  0  0
  1  2  1  0
  1  6  2  0
  2  3  2  0
  3  4  1  0
  5  4  2  0
  6  5  1  0
  7 12  1  0
  7  1  1  0
  8  7  2  0
  9  7  2  0
 10 11  1  0
 11 12  2  0
 12 13  1  0
 14 13  2  0
 15 14  1  0
 16 11  1  0
 16 15  2  0
 17  2  1  0
 19 17  1  0
 19 18  2  0
 19 21  1  0
 20 19  1  0
 22 21  1  0
 24 22  1  0
 24 23  2  0
 25 30  2  0
 26 25  1  0
 27 28  1  0
 27 26  2  0
 28 29  2  0
 29 23  1  0
 29 30  1  0
  3 31  1  0
  4 32  1  0
  5 33  1  0
  6 34  1  0
 13 35  1  0
 14 36  1  0
 15 37  1  0
 16 38  1  0
 20 39  1  0
 22 40  1  0
 22 41  1  0
 23 42  1  0
 24 43  1  0
 25 44  1  0
 26 45  1  0
 27 46  1  0
M  ISO  8  31  14  32  14  33  14  34  14  35  14  36  14  37  14  38  14
M  ISO  6  39   3  40   8  41   8  44  14  45  14  46  14
M  END
>  <minimizedAffinity>  (1) 
-7.07963753

>  <minimizedRMSD>  (1) 
2.63253379

$$$$
