
     RDKit          3D

 36 39  0  0  1  0  0  0  0  0999 V2000
   36.1900   30.4410   49.8460 C   0  0  1  0  0  0  0  0  0  0  0  0
   36.1340   29.0270   49.5470 C   0  0  1  0  0  0  0  0  0  0  0  0
   36.8200   29.4280   50.8020 C   0  0  0  0  0  0  0  0  0  0  0  0
   37.2330   31.3410   49.2150 C   0  0  0  0  0  0  0  0  0  0  0  0
   37.3920   32.6020   49.7930 C   0  0  0  0  0  0  0  0  0  0  0  0
   38.3460   33.4120   49.1750 C   0  0  0  0  0  0  0  0  0  0  0  0
   39.0520   32.9620   48.0810 N   0  0  0  0  0  0  0  0  0  0  0  0
   38.8530   31.7340   47.5690 C   0  0  0  0  0  0  0  0  0  0  0  0
   37.9220   30.9080   48.1510 N   0  0  0  0  0  0  0  0  0  0  0  0
   34.7750   28.3690   49.5300 C   0  0  0  0  0  0  0  0  0  0  0  0
   34.0330   28.5960   48.2670 C   0  0  0  0  0  0  0  0  0  0  0  0
   34.7300   29.1460   47.1860 C   0  0  0  0  0  0  0  0  0  0  0  0
   34.2310   29.3930   45.9380 C   0  0  0  0  0  0  0  0  0  0  0  0
   32.9200   29.0810   45.7000 C   0  0  0  0  0  0  0  0  0  0  0  0
   32.1830   28.5360   46.7290 C   0  0  0  0  0  0  0  0  0  0  0  0
   30.8520   28.2270   46.5040 C   0  0  0  0  0  0  0  0  0  0  0  0
   30.1260   27.6900   47.5620 C   0  0  0  0  0  0  0  0  0  0  0  0
   30.6620   27.4570   48.8050 C   0  0  0  0  0  0  0  0  0  0  0  0
   31.9900   27.7750   48.9990 C   0  0  0  0  0  0  0  0  0  0  0  0
   32.7210   28.3010   47.9780 C   0  0  0  0  0  0  0  0  0  0  0  0
   35.4065   31.2131   49.8444 H   0  0  0  0  0  0  0  0  0  0  0  0
   36.4527   28.3793   48.7170 H   0  0  0  0  0  0  0  0  0  0  0  0
   37.9137   29.3492   50.8889 H   0  0  0  0  0  0  0  0  0  0  0  0
   36.7276   29.1815   51.8700 H   0  0  0  0  0  0  0  0  0  0  0  0
   36.8109   32.9313   50.6670 H   0  0  0  0  0  0  0  0  0  0  0  0
   38.5365   34.4222   49.5664 H   0  0  0  0  0  0  0  0  0  0  0  0
   39.4287   31.3953   46.6950 H   0  0  0  0  0  0  0  0  0  0  0  0
   34.9091   27.2858   49.6670 H   0  0  0  0  0  0  0  0  0  0  0  0
   34.1840   28.8177   50.3420 H   0  0  0  0  0  0  0  0  0  0  0  0
   35.7851   29.4056   47.3577 H   0  0  0  0  0  0  0  0  0  0  0  0
   34.8629   29.8286   45.1500 H   0  0  0  0  0  0  0  0  0  0  0  0
   32.4667   29.2604   44.7139 H   0  0  0  0  0  0  0  0  0  0  0  0
   30.3853   28.4001   45.5231 H   0  0  0  0  0  0  0  0  0  0  0  0
   29.0682   27.4390   47.3946 H   0  0  0  0  0  0  0  0  0  0  0  0
   30.0537   27.0319   49.6169 H   0  0  0  0  0  0  0  0  0  0  0  0
   32.4588   27.6035   49.9792 H   0  0  0  0  0  0  0  0  0  0  0  0
  1  3  1  0
  2  1  1  0
  2  3  1  0
  4  5  2  0
  4  1  1  0
  6  5  1  0
  7  6  2  0
  8  7  1  0
  8  9  2  0
  9  4  1  0
 10  2  1  0
 11 10  1  0
 12 11  2  0
 13 12  1  0
 14 13  2  0
 14 15  1  0
 15 20  2  0
 16 15  1  0
 16 17  2  0
 17 18  1  0
 18 19  2  0
 20 11  1  0
 20 19  1  0
  1 21  1  1
  2 22  1  6
  3 23  1  0
  3 24  1  0
  5 25  1  0
  6 26  1  0
  8 27  1  0
 10 28  1  0
 10 29  1  0
 12 30  1  0
 13 31  1  0
 14 32  1  0
 16 33  1  0
 17 34  1  0
 18 35  1  0
 19 36  1  0
M  ISO  8  21  13  22  13  23  13  24  13  25  14  26  14  27  14  28   8
M  ISO  8  29   8  30  14  31  14  32  14  33  14  34  14  35  14  36  14
M  END
>  <minimizedAffinity>  (1) 
-6.16171598

>  <minimizedRMSD>  (1) 
4.29233932

$$$$
