
     RDKit          3D

 27 29  0  0  1  0  0  0  0  0999 V2000
   36.7290   31.2250   50.1010 C   0  0  1  0  0  0  0  0  0  0  0  0
   36.5060   29.7960   50.0760 C   0  0  1  0  0  0  0  0  0  0  0  0
   37.3960   30.3500   51.1620 C   0  0  0  0  0  0  0  0  0  0  0  0
   37.7450   31.8670   49.1780 C   0  0  0  0  0  0  0  0  0  0  0  0
   38.2090   33.1280   49.5590 C   0  0  0  0  0  0  0  0  0  0  0  0
   39.1260   33.7020   48.6810 C   0  0  0  0  0  0  0  0  0  0  0  0
   39.5170   33.0500   47.5400 N   0  0  0  0  0  0  0  0  0  0  0  0
   39.0310   31.8260   47.2200 C   0  0  0  0  0  0  0  0  0  0  0  0
   38.1300   31.2310   48.0590 N   0  0  0  0  0  0  0  0  0  0  0  0
   35.1290   29.2820   50.4010 C   0  0  0  0  0  0  0  0  0  0  0  0
   34.5470   28.7870   49.1270 C   0  0  0  0  0  0  0  0  0  0  0  0
   34.1060   27.5690   48.7790 C   0  0  0  0  0  0  0  0  0  0  0  0
   33.6020   27.3460   47.5260 C   0  0  0  0  0  0  0  0  0  0  0  0
   33.5840   28.4480   46.6690 C   0  0  0  0  0  0  0  0  0  0  0  0
   34.3030   29.8080   47.6940 S   0  0  0  0  0  0  0  0  0  0  0  0
   36.0232   32.0672   50.0508 H   0  0  0  0  0  0  0  0  0  0  0  0
   36.6402   29.0005   49.3282 H   0  0  0  0  0  0  0  0  0  0  0  0
   38.4815   30.1736   51.1386 H   0  0  0  0  0  0  0  0  0  0  0  0
   37.4260   30.3155   52.2610 H   0  0  0  0  0  0  0  0  0  0  0  0
   37.8765   33.6288   50.4802 H   0  0  0  0  0  0  0  0  0  0  0  0
   39.5431   34.6945   48.9069 H   0  0  0  0  0  0  0  0  0  0  0  0
   39.3563   31.3190   46.2996 H   0  0  0  0  0  0  0  0  0  0  0  0
   35.1929   28.4628   51.1323 H   0  0  0  0  0  0  0  0  0  0  0  0
   34.5044   30.0737   50.8403 H   0  0  0  0  0  0  0  0  0  0  0  0
   34.1496   26.7440   49.5052 H   0  0  0  0  0  0  0  0  0  0  0  0
   33.2333   26.3580   47.2131 H   0  0  0  0  0  0  0  0  0  0  0  0
   33.2266   28.4957   45.6298 H   0  0  0  0  0  0  0  0  0  0  0  0
  1  3  1  0
  2  1  1  0
  2 10  1  0
  2  3  1  0
  4  5  2  0
  4  1  1  0
  6  5  1  0
  7  6  2  0
  8  7  1  0
  8  9  2  0
  9  4  1  0
 11 10  1  0
 12 11  2  0
 13 12  1  0
 14 13  2  0
 14 15  1  0
 15 11  1  0
  1 16  1  1
  2 17  1  6
  3 18  1  0
  3 19  1  0
  5 20  1  0
  6 21  1  0
  8 22  1  0
 10 23  1  0
 10 24  1  0
 12 25  1  0
 13 26  1  0
 14 27  1  0
M  ISO  8  16  13  17  13  18  13  19  13  20  14  21  14  22  14  23   8
M  ISO  4  24   8  25  14  26  14  27  14
M  END
>  <minimizedAffinity>  (1) 
-5.33103466

>  <minimizedRMSD>  (1) 
2.18130159

$$$$
