
     RDKit          3D

 22 23  0  0  1  0  0  0  0  0999 V2000
   36.1850   30.5440   49.8870 C   0  0  1  0  0  0  0  0  0  0  0  0
   35.9940   29.1350   49.6340 C   0  0  1  0  0  0  0  0  0  0  0  0
   36.7960   29.5280   50.8490 C   0  0  0  0  0  0  0  0  0  0  0  0
   37.2470   31.3320   49.1520 C   0  0  0  0  0  0  0  0  0  0  0  0
   37.5380   32.5940   49.6710 C   0  0  0  0  0  0  0  0  0  0  0  0
   38.5020   33.3170   48.9620 C   0  0  0  0  0  0  0  0  0  0  0  0
   39.0960   32.7840   47.8370 N   0  0  0  0  0  0  0  0  0  0  0  0
   38.7650   31.5440   47.3840 C   0  0  0  0  0  0  0  0  0  0  0  0
   37.8250   30.8190   48.0620 N   0  0  0  0  0  0  0  0  0  0  0  0
   34.6020   28.5730   49.7890 C   0  0  0  0  0  0  0  0  0  0  0  0
   34.3470   27.7520   48.6040 N   0  0  0  0  0  0  0  0  0  0  0  0
   35.4652   31.3754   49.9099 H   0  0  0  0  0  0  0  0  0  0  0  0
   36.1955   28.4609   48.7884 H   0  0  0  0  0  0  0  0  0  0  0  0
   37.8840   29.3682   50.8757 H   0  0  0  0  0  0  0  0  0  0  0  0
   36.7523   29.3292   51.9300 H   0  0  0  0  0  0  0  0  0  0  0  0
   37.0456   32.9906   50.5711 H   0  0  0  0  0  0  0  0  0  0  0  0
   38.7898   34.3217   49.3050 H   0  0  0  0  0  0  0  0  0  0  0  0
   39.2468   31.1312   46.4854 H   0  0  0  0  0  0  0  0  0  0  0  0
   34.5408   27.9565   50.6980 H   0  0  0  0  0  0  0  0  0  0  0  0
   33.8577   29.3777   49.8812 H   0  0  0  0  0  0  0  0  0  0  0  0
   34.0540   26.8088   48.8963 H   0  0  0  0  0  0  0  0  0  0  0  0
   33.6006   28.1842   48.0410 H   0  0  0  0  0  0  0  0  0  0  0  0
  1  3  1  0
  2 10  1  0
  2  1  1  0
  2  3  1  0
  4  5  2  0
  4  1  1  0
  6  5  1  0
  7  6  2  0
  8  7  1  0
  8  9  2  0
  9  4  1  0
 11 10  1  0
  1 12  1  1
  2 13  1  6
  3 14  1  0
  3 15  1  0
  5 16  1  0
  6 17  1  0
  8 18  1  0
 10 19  1  0
 10 20  1  0
 11 21  1  0
 11 22  1  0
M  ISO  8  12  13  13  13  14  13  15  13  16  14  17  14  18  14  19   8
M  ISO  3  20   8  21   5  22   5
M  END
>  <minimizedAffinity>  (1) 
-4.39969158

>  <minimizedRMSD>  (1) 
0.450830102

$$$$
