
     RDKit          3D

 43 47  0  0  1  0  0  0  0  0999 V2000
   34.7600   28.6980   50.1870 C   0  0  0  0  0  0  0  0  0  0  0  0
   36.6290   30.3960   49.9490 C   0  0  1  0  0  0  0  0  0  0  0  0
   36.1160   29.0920   49.6710 C   0  0  1  0  0  0  0  0  0  0  0  0
   37.3260   29.1560   50.5490 C   0  0  0  0  0  0  0  0  0  0  0  0
   37.5340   31.1200   48.9780 C   0  0  0  0  0  0  0  0  0  0  0  0
   38.0290   32.3490   49.3980 C   0  0  0  0  0  0  0  0  0  0  0  0
   38.8510   33.0180   48.4720 C   0  0  0  0  0  0  0  0  0  0  0  0
   39.1110   32.4510   47.2550 N   0  0  0  0  0  0  0  0  0  0  0  0
   38.6010   31.2380   46.8860 C   0  0  0  0  0  0  0  0  0  0  0  0
   37.7970   30.5650   47.7710 N   0  0  0  0  0  0  0  0  0  0  0  0
   33.7310   28.6280   49.1040 C   0  0  0  0  0  0  0  0  0  0  0  0
   33.8200   29.3290   47.9290 C   0  0  0  0  0  0  0  0  0  0  0  0
   32.7690   29.0690   47.1640 N   0  0  0  0  0  0  0  0  0  0  0  0
   32.0020   28.2140   47.8140 C   0  0  0  0  0  0  0  0  0  0  0  0
   32.5920   27.9500   48.9960 N   0  0  0  0  0  0  0  0  0  0  0  0
   30.7830   27.4860   47.5250 C   0  0  0  0  0  0  0  0  0  0  0  0
   30.7430   26.5480   46.4810 C   0  0  0  0  0  0  0  0  0  0  0  0
   29.6500   25.8110   46.1070 C   0  0  0  0  0  0  0  0  0  0  0  0
   28.4680   25.9700   46.7820 C   0  0  0  0  0  0  0  0  0  0  0  0
   28.4220   26.8720   47.8170 C   0  0  0  0  0  0  0  0  0  0  0  0
   27.2190   27.0230   48.4420 C   0  0  0  0  0  0  0  0  0  0  0  0
   27.0670   27.9160   49.4540 C   0  0  0  0  0  0  0  0  0  0  0  0
   28.1940   28.6600   49.8130 C   0  0  0  0  0  0  0  0  0  0  0  0
   29.3750   28.4580   49.1420 C   0  0  0  0  0  0  0  0  0  0  0  0
   29.5560   27.5660   48.1240 C   0  0  0  0  0  0  0  0  0  0  0  0
   34.8378   27.7096   50.6635 H   0  0  0  0  0  0  0  0  0  0  0  0
   34.4387   29.4691   50.9027 H   0  0  0  0  0  0  0  0  0  0  0  0
   36.1176   31.3117   50.2807 H   0  0  0  0  0  0  0  0  0  0  0  0
   35.8991   28.5260   48.7531 H   0  0  0  0  0  0  0  0  0  0  0  0
   38.3076   28.8290   50.1755 H   0  0  0  0  0  0  0  0  0  0  0  0
   37.6065   28.8026   51.5522 H   0  0  0  0  0  0  0  0  0  0  0  0
   37.7943   32.7701   50.3867 H   0  0  0  0  0  0  0  0  0  0  0  0
   39.2841   33.9965   48.7270 H   0  0  0  0  0  0  0  0  0  0  0  0
   38.8305   30.8097   45.8991 H   0  0  0  0  0  0  0  0  0  0  0  0
   34.6429   30.0077   47.6604 H   0  0  0  0  0  0  0  0  0  0  0  0
   32.5843   29.4632   46.2305 H   0  0  0  0  0  0  0  0  0  0  0  0
   31.6717   26.3908   45.9128 H   0  0  0  0  0  0  0  0  0  0  0  0
   29.7207   25.0980   45.2723 H   0  0  0  0  0  0  0  0  0  0  0  0
   27.5770   25.3890   46.5016 H   0  0  0  0  0  0  0  0  0  0  0  0
   26.3608   26.4136   48.1222 H   0  0  0  0  0  0  0  0  0  0  0  0
   26.1026   28.0473   49.9666 H   0  0  0  0  0  0  0  0  0  0  0  0
   28.1358   29.4000   50.6248 H   0  0  0  0  0  0  0  0  0  0  0  0
   30.2423   29.0614   49.4482 H   0  0  0  0  0  0  0  0  0  0  0  0
  2  4  1  0
  3  2  1  0
  3  1  1  0
  3  4  1  0
  5  6  2  0
  5  2  1  0
  7  6  1  0
  8  7  2  0
  9  8  1  0
  9 10  2  0
 10  5  1  0
 11  1  1  0
 12 11  2  0
 13 14  1  0
 13 12  1  0
 14 15  2  0
 15 11  1  0
 16 14  1  0
 16 25  1  0
 17 16  2  0
 18 17  1  0
 18 19  2  0
 19 20  1  0
 20 25  2  0
 20 21  1  0
 21 22  2  0
 22 23  1  0
 24 23  2  0
 25 24  1  0
  1 26  1  0
  1 27  1  0
  2 28  1  1
  3 29  1  6
  4 30  1  0
  4 31  1  0
  6 32  1  0
  7 33  1  0
  9 34  1  0
 12 35  1  0
 13 36  1  0
 17 37  1  0
 18 38  1  0
 19 39  1  0
 21 40  1  0
 22 41  1  0
 23 42  1  0
 24 43  1  0
M  ISO  8  26   8  27   8  28  13  29  13  30  13  31  13  32  14  33  14
M  ISO  8  34  14  35  14  36   9  37  14  38  14  39  14  40  14  41  14
M  ISO  2  42  14  43  14
M  END
>  <minimizedAffinity>  (1) 
-6.97054577

>  <minimizedRMSD>  (1) 
1.20876753

$$$$
