
     RDKit          3D

 43 45  0  0  0  0  0  0  0  0999 V2000
   30.3900   26.1520   47.5150 O   0  0  0  0  0  0  0  0  0  0  0  0
   30.8580   27.5840   47.7620 P   0  0  2  0  0  0  0  0  0  0  0  0
   31.3480   28.3140   46.3090 O   0  0  0  0  0  0  0  0  0  0  0  0
   32.2280   27.4260   48.7680 O   0  0  0  0  0  0  0  0  0  0  0  0
   33.3580   27.2520   47.9480 C   0  0  0  0  0  0  0  0  0  0  0  0
   34.7610   28.3380   49.6560 C   0  0  0  0  0  0  0  0  0  0  0  0
   34.5030   28.0800   48.4010 C   0  0  0  0  0  0  0  0  0  0  0  0
   37.3510   30.2420   51.4210 C   0  0  0  0  0  0  0  0  0  0  0  0
   38.1120   30.7360   50.3660 C   0  0  0  0  0  0  0  0  0  0  0  0
   37.7420   30.4190   49.0590 C   0  0  0  0  0  0  0  0  0  0  0  0
   36.6270   29.6250   48.9460 N   0  0  0  0  0  0  0  0  0  0  0  0
   35.9200   29.1680   49.9600 C   0  0  0  0  0  0  0  0  0  0  0  0
   36.2980   29.4880   51.1910 N   0  0  0  0  0  0  0  0  0  0  0  0
   29.6480   28.4790   48.5040 O   0  0  0  0  0  0  0  0  0  0  0  0
   27.5330   28.6010   49.4240 C   0  0  0  0  0  0  0  0  0  0  0  0
   28.8330   28.0770   49.5410 C   0  0  0  0  0  0  0  0  0  0  0  0
   29.1900   27.2600   50.5900 C   0  0  0  0  0  0  0  0  0  0  0  0
   28.2530   26.9520   51.5470 C   0  0  0  0  0  0  0  0  0  0  0  0
   26.9950   27.4560   51.4410 C   0  0  0  0  0  0  0  0  0  0  0  0
   26.5880   28.2750   50.4130 C   0  0  0  0  0  0  0  0  0  0  0  0
   27.0060   29.6350   48.1170 S   0  0  0  0  0  0  0  0  0  0  0  0
   28.1110   29.8960   47.1640 O   0  0  0  0  0  0  0  0  0  0  0  0
   25.8310   28.9350   47.4190 O   0  0  0  0  0  0  0  0  0  0  0  0
   26.4100   31.1740   48.7350 C   0  0  0  0  0  0  0  0  0  0  0  0
   25.9980   32.1510   47.6080 C   0  0  0  0  0  0  0  0  0  0  0  0
   25.0260   31.6170   48.5790 C   0  0  0  0  0  0  0  0  0  0  0  0
   31.8883   29.1189   46.5099 H   0  0  0  0  0  0  0  0  0  0  0  0
   33.0976   27.5381   46.9183 H   0  0  0  0  0  0  0  0  0  0  0  0
   33.6589   26.1953   48.0019 H   0  0  0  0  0  0  0  0  0  0  0  0
   34.1226   27.9407   50.4588 H   0  0  0  0  0  0  0  0  0  0  0  0
   35.1730   28.5008   47.6368 H   0  0  0  0  0  0  0  0  0  0  0  0
   37.6325   30.4841   52.4564 H   0  0  0  0  0  0  0  0  0  0  0  0
   38.9920   31.3669   50.5598 H   0  0  0  0  0  0  0  0  0  0  0  0
   38.3020   30.7785   48.1832 H   0  0  0  0  0  0  0  0  0  0  0  0
   30.2118   26.8590   50.6612 H   0  0  0  0  0  0  0  0  0  0  0  0
   28.5193   26.3018   52.3934 H   0  0  0  0  0  0  0  0  0  0  0  0
   26.2627   27.1949   52.2192 H   0  0  0  0  0  0  0  0  0  0  0  0
   25.5591   28.6613   50.3664 H   0  0  0  0  0  0  0  0  0  0  0  0
   27.0626   31.1284   49.6193 H   0  0  0  0  0  0  0  0  0  0  0  0
   25.9792   31.8155   46.5606 H   0  0  0  0  0  0  0  0  0  0  0  0
   26.3136   33.1502   47.2734 H   0  0  0  0  0  0  0  0  0  0  0  0
   24.5872   32.2908   49.3296 H   0  0  0  0  0  0  0  0  0  0  0  0
   24.0690   31.0846   48.4757 H   0  0  0  0  0  0  0  0  0  0  0  0
  2  1  2  0
  2 14  1  0
  2  4  1  0
  3  2  1  0
  5  7  1  0
  5  4  1  0
  6 12  1  0
  7  6  2  0
  9  8  2  0
 10  9  1  0
 11 10  2  0
 11 12  1  0
 12 13  2  0
 13  8  1  0
 14 16  1  0
 15 16  1  0
 15 20  2  0
 16 17  2  0
 17 18  1  0
 19 18  2  0
 20 19  1  0
 21 24  1  0
 21 15  1  0
 22 21  2  0
 23 21  2  0
 25 26  1  0
 25 24  1  0
 26 24  1  0
  3 27  1  0
  5 28  1  0
  5 29  1  0
  6 30  1  0
  7 31  1  0
  8 32  1  0
  9 33  1  0
 10 34  1  0
 17 35  1  0
 18 36  1  0
 19 37  1  0
 20 38  1  0
 24 39  1  0
 25 40  1  0
 25 41  1  0
 26 42  1  0
 26 43  1  0
M  ISO  8  27   3  28   8  29   8  32  14  33  14  34  14  35  14  36  14
M  ISO  7  37  14  38  14  39  13  40  13  41  13  42  13  43  13
M  END
>  <minimizedAffinity>  (1) 
-6.68983889

>  <minimizedRMSD>  (1) 
1.20137596

$$$$
