
     RDKit          3D

 34 37  0  0  1  0  0  0  0  0999 V2000
   35.1850   29.2480   50.5920 C   0  0  0  0  0  0  0  0  0  0  0  0
   36.8040   31.1520   50.2120 C   0  0  1  0  0  0  0  0  0  0  0  0
   36.5430   29.7480   50.2080 C   0  0  1  0  0  0  0  0  0  0  0  0
   37.5330   30.2470   51.2210 C   0  0  0  0  0  0  0  0  0  0  0  0
   37.7710   31.7860   49.2280 C   0  0  0  0  0  0  0  0  0  0  0  0
   38.2290   33.0490   49.5630 C   0  0  0  0  0  0  0  0  0  0  0  0
   39.1020   33.6400   48.6400 C   0  0  0  0  0  0  0  0  0  0  0  0
   39.4460   32.9680   47.5040 N   0  0  0  0  0  0  0  0  0  0  0  0
   38.9680   31.7170   47.2140 C   0  0  0  0  0  0  0  0  0  0  0  0
   38.1110   31.1160   48.1000 N   0  0  0  0  0  0  0  0  0  0  0  0
   34.2810   29.0730   49.4220 C   0  0  0  0  0  0  0  0  0  0  0  0
   34.3520   29.8700   48.3070 C   0  0  0  0  0  0  0  0  0  0  0  0
   33.4400   29.5270   47.3910 N   0  0  0  0  0  0  0  0  0  0  0  0
   32.7750   28.4790   47.9500 C   0  0  0  0  0  0  0  0  0  0  0  0
   33.2870   28.2140   49.1680 N   0  0  0  0  0  0  0  0  0  0  0  0
   31.6700   27.7160   47.3730 C   0  0  0  0  0  0  0  0  0  0  0  0
   30.7780   26.9320   48.0720 C   0  0  0  0  0  0  0  0  0  0  0  0
   29.8700   26.3620   47.2130 C   0  0  0  0  0  0  0  0  0  0  0  0
   30.2330   26.8160   45.9870 N   0  0  0  0  0  0  0  0  0  0  0  0
   31.2930   27.6140   46.0800 N   0  0  0  0  0  0  0  0  0  0  0  0
   35.2980   28.2772   51.0968 H   0  0  0  0  0  0  0  0  0  0  0  0
   34.7297   30.0013   51.2518 H   0  0  0  0  0  0  0  0  0  0  0  0
   36.1146   32.0092   50.2085 H   0  0  0  0  0  0  0  0  0  0  0  0
   36.5957   28.9520   49.4506 H   0  0  0  0  0  0  0  0  0  0  0  0
   38.6061   30.0329   51.1089 H   0  0  0  0  0  0  0  0  0  0  0  0
   37.6530   30.2003   52.3134 H   0  0  0  0  0  0  0  0  0  0  0  0
   37.9275   33.5549   50.4921 H   0  0  0  0  0  0  0  0  0  0  0  0
   39.5091   34.6439   48.8312 H   0  0  0  0  0  0  0  0  0  0  0  0
   39.2662   31.2043   46.2876 H   0  0  0  0  0  0  0  0  0  0  0  0
   35.0723   30.6919   48.1818 H   0  0  0  0  0  0  0  0  0  0  0  0
   33.2774   29.9586   46.4700 H   0  0  0  0  0  0  0  0  0  0  0  0
   30.7911   26.7838   49.1619 H   0  0  0  0  0  0  0  0  0  0  0  0
   29.0364   25.6891   47.4628 H   0  0  0  0  0  0  0  0  0  0  0  0
   29.7544   26.5761   45.1070 H   0  0  0  0  0  0  0  0  0  0  0  0
  2  4  1  0
  3  2  1  0
  3  1  1  0
  3  4  1  0
  5  6  2  0
  5  2  1  0
  7  6  1  0
  8  7  2  0
  9  8  1  0
  9 10  2  0
 10  5  1  0
 11  1  1  0
 12 11  2  0
 13 14  1  0
 13 12  1  0
 14 15  2  0
 15 11  1  0
 16 14  1  0
 16 17  1  0
 18 17  2  0
 19 20  1  0
 19 18  1  0
 20 16  2  0
  1 21  1  0
  1 22  1  0
  2 23  1  1
  3 24  1  6
  4 25  1  0
  4 26  1  0
  6 27  1  0
  7 28  1  0
  9 29  1  0
 12 30  1  0
 13 31  1  0
 17 32  1  0
 18 33  1  0
 19 34  1  0
M  ISO  8  21   8  22   8  23  13  24  13  25  13  26  13  27  14  28  14
M  ISO  6  29  14  30  14  31   9  32  14  33  14  34   9
M  END
>  <minimizedAffinity>  (1) 
-5.68933249

>  <minimizedRMSD>  (1) 
0.25219813

$$$$
