
     RDKit          3D

 30 32  0  0  1  0  0  0  0  0999 V2000
   36.8060   31.1780   50.2110 C   0  0  1  0  0  0  0  0  0  0  0  0
   36.5170   29.7770   50.1880 C   0  0  1  0  0  0  0  0  0  0  0  0
   37.5240   30.2460   51.2000 C   0  0  0  0  0  0  0  0  0  0  0  0
   37.7790   31.8130   49.2320 C   0  0  0  0  0  0  0  0  0  0  0  0
   38.2370   33.0740   49.5650 C   0  0  0  0  0  0  0  0  0  0  0  0
   39.1160   33.6520   48.6280 C   0  0  0  0  0  0  0  0  0  0  0  0
   39.4540   32.9780   47.4960 N   0  0  0  0  0  0  0  0  0  0  0  0
   38.9710   31.7240   47.2090 C   0  0  0  0  0  0  0  0  0  0  0  0
   38.1130   31.1380   48.1060 N   0  0  0  0  0  0  0  0  0  0  0  0
   35.1570   29.2880   50.5780 C   0  0  0  0  0  0  0  0  0  0  0  0
   34.2680   29.0630   49.4020 C   0  0  0  0  0  0  0  0  0  0  0  0
   34.2700   29.8750   48.2960 C   0  0  0  0  0  0  0  0  0  0  0  0
   33.3810   29.4590   47.3910 N   0  0  0  0  0  0  0  0  0  0  0  0
   32.8040   28.3550   47.9410 C   0  0  0  0  0  0  0  0  0  0  0  0
   33.3440   28.1230   49.1520 N   0  0  0  0  0  0  0  0  0  0  0  0
   31.7390   27.4800   47.3690 C   0  0  0  0  0  0  0  0  0  0  0  0
   36.1319   32.0472   50.2236 H   0  0  0  0  0  0  0  0  0  0  0  0
   36.5466   28.9935   49.4164 H   0  0  0  0  0  0  0  0  0  0  0  0
   38.5922   30.0140   51.0767 H   0  0  0  0  0  0  0  0  0  0  0  0
   37.6509   30.1824   52.2908 H   0  0  0  0  0  0  0  0  0  0  0  0
   37.9380   33.5870   50.4910 H   0  0  0  0  0  0  0  0  0  0  0  0
   39.5312   34.6537   48.8129 H   0  0  0  0  0  0  0  0  0  0  0  0
   39.2641   31.2037   46.2852 H   0  0  0  0  0  0  0  0  0  0  0  0
   35.2670   28.3388   51.1229 H   0  0  0  0  0  0  0  0  0  0  0  0
   34.6913   30.0639   51.2033 H   0  0  0  0  0  0  0  0  0  0  0  0
   34.9194   30.7541   48.1712 H   0  0  0  0  0  0  0  0  0  0  0  0
   33.1758   29.8819   46.4745 H   0  0  0  0  0  0  0  0  0  0  0  0
   31.1702   27.0127   48.1863 H   0  0  0  0  0  0  0  0  0  0  0  0
   31.0607   28.0851   46.7495 H   0  0  0  0  0  0  0  0  0  0  0  0
   32.2011   26.6972   46.7495 H   0  0  0  0  0  0  0  0  0  0  0  0
  1  3  1  0
  2  1  1  0
  2 10  1  0
  2  3  1  0
  4  5  2  0
  4  1  1  0
  6  5  1  0
  7  6  2  0
  8  7  1  0
  8  9  2  0
  9  4  1  0
 11 10  1  0
 12 11  2  0
 13 14  1  0
 13 12  1  0
 14 15  2  0
 15 11  1  0
 16 14  1  0
  1 17  1  1
  2 18  1  6
  3 19  1  0
  3 20  1  0
  5 21  1  0
  6 22  1  0
  8 23  1  0
 10 24  1  0
 10 25  1  0
 12 26  1  0
 13 27  1  0
 16 28  1  0
 16 29  1  0
 16 30  1  0
M  ISO  8  17  13  18  13  19  13  20  13  21  14  22  14  23  14  24   8
M  ISO  6  25   8  26  14  27   9  28   8  29   8  30   8
M  END
>  <minimizedAffinity>  (1) 
-5.3949337

>  <minimizedRMSD>  (1) 
0.0820792168

$$$$
