
     RDKit          3D

 39 40  0  0  0  0  0  0  0  0999 V2000
   30.1140   26.5550   47.1860 O   0  0  0  0  0  0  0  0  0  0  0  0
   30.3920   27.9930   47.6110 P   0  0  2  0  0  0  0  0  0  0  0  0
   30.7800   28.9770   46.2780 O   0  0  0  0  0  0  0  0  0  0  0  0
   31.7660   27.8960   48.6180 O   0  0  0  0  0  0  0  0  0  0  0  0
   32.8960   27.7450   47.7930 C   0  0  0  0  0  0  0  0  0  0  0  0
   34.6330   28.2710   49.4610 C   0  0  0  0  0  0  0  0  0  0  0  0
   34.0660   28.4980   48.3050 C   0  0  0  0  0  0  0  0  0  0  0  0
   37.1360   30.1270   51.3850 C   0  0  0  0  0  0  0  0  0  0  0  0
   37.9620   30.6360   50.3720 C   0  0  0  0  0  0  0  0  0  0  0  0
   37.6480   30.3350   49.0470 C   0  0  0  0  0  0  0  0  0  0  0  0
   36.5370   29.5540   48.8700 N   0  0  0  0  0  0  0  0  0  0  0  0
   35.7750   29.0860   49.8400 C   0  0  0  0  0  0  0  0  0  0  0  0
   36.0890   29.3840   51.0960 N   0  0  0  0  0  0  0  0  0  0  0  0
   29.0700   28.6240   48.4550 O   0  0  0  0  0  0  0  0  0  0  0  0
   27.1440   28.5000   49.7150 C   0  0  0  0  0  0  0  0  0  0  0  0
   28.4900   28.1160   49.5880 C   0  0  0  0  0  0  0  0  0  0  0  0
   29.1030   27.3180   50.5330 C   0  0  0  0  0  0  0  0  0  0  0  0
   28.3840   26.8880   51.6190 C   0  0  0  0  0  0  0  0  0  0  0  0
   27.0740   27.2590   51.7450 C   0  0  0  0  0  0  0  0  0  0  0  0
   26.4180   28.0540   50.8310 C   0  0  0  0  0  0  0  0  0  0  0  0
   26.3080   29.5080   48.5640 S   0  0  0  0  0  0  0  0  0  0  0  0
   26.9960   30.8070   48.3870 O   0  0  0  0  0  0  0  0  0  0  0  0
   26.2320   28.7370   47.2390 O   0  0  0  0  0  0  0  0  0  0  0  0
   24.6520   29.8380   49.1100 C   0  0  0  0  0  0  0  0  0  0  0  0
   31.1234   29.8480   46.5997 H   0  0  0  0  0  0  0  0  0  0  0  0
   32.6511   28.1125   46.7855 H   0  0  0  0  0  0  0  0  0  0  0  0
   33.1618   26.6778   47.7753 H   0  0  0  0  0  0  0  0  0  0  0  0
   34.2554   27.4834   50.1296 H   0  0  0  0  0  0  0  0  0  0  0  0
   34.4826   29.2966   47.6736 H   0  0  0  0  0  0  0  0  0  0  0  0
   37.3669   30.3523   52.4366 H   0  0  0  0  0  0  0  0  0  0  0  0
   38.8361   31.2574   50.6167 H   0  0  0  0  0  0  0  0  0  0  0  0
   38.2510   30.6997   48.2024 H   0  0  0  0  0  0  0  0  0  0  0  0
   30.1581   27.0297   50.4162 H   0  0  0  0  0  0  0  0  0  0  0  0
   28.8566   26.2509   52.3811 H   0  0  0  0  0  0  0  0  0  0  0  0
   26.5142   26.9038   52.6228 H   0  0  0  0  0  0  0  0  0  0  0  0
   25.3623   28.3298   50.9706 H   0  0  0  0  0  0  0  0  0  0  0  0
   24.6228   29.8438   50.2096 H   0  0  0  0  0  0  0  0  0  0  0  0
   24.3289   30.8182   48.7294 H   0  0  0  0  0  0  0  0  0  0  0  0
   23.9779   29.0565   48.7294 H   0  0  0  0  0  0  0  0  0  0  0  0
  2  1  2  0
  2 14  1  0
  2  4  1  0
  3  2  1  0
  5  7  1  0
  5  4  1  0
  6 12  1  0
  7  6  2  0
  9  8  2  0
 10  9  1  0
 11 10  2  0
 11 12  1  0
 12 13  2  0
 13  8  1  0
 14 16  1  0
 15 20  2  0
 16 15  1  0
 16 17  2  0
 17 18  1  0
 18 19  2  0
 20 19  1  0
 21 24  1  0
 21 15  1  0
 22 21  2  0
 23 21  2  0
  3 25  1  0
  5 26  1  0
  5 27  1  0
  6 28  1  0
  7 29  1  0
  8 30  1  0
  9 31  1  0
 10 32  1  0
 17 33  1  0
 18 34  1  0
 19 35  1  0
 20 36  1  0
 24 37  1  0
 24 38  1  0
 24 39  1  0
M  ISO  8  25   3  26   8  27   8  30  14  31  14  32  14  33  14  34  14
M  ISO  5  35  14  36  14  37   8  38   8  39   8
M  END
>  <minimizedAffinity>  (1) 
-6.48675108

>  <minimizedRMSD>  (1) 
0.418430984

$$$$
