
     RDKit          3D

 28 30  0  0  1  0  0  0  0  0999 V2000
   36.7820   31.1390   50.1950 C   0  0  1  0  0  0  0  0  0  0  0  0
   36.4660   29.7440   50.1390 C   0  0  1  0  0  0  0  0  0  0  0  0
   37.4940   30.1660   51.1550 C   0  0  0  0  0  0  0  0  0  0  0  0
   37.7550   31.7680   49.2140 C   0  0  0  0  0  0  0  0  0  0  0  0
   38.2100   33.0300   49.5540 C   0  0  0  0  0  0  0  0  0  0  0  0
   39.0880   33.6140   48.6310 C   0  0  0  0  0  0  0  0  0  0  0  0
   39.4360   32.9550   47.5050 N   0  0  0  0  0  0  0  0  0  0  0  0
   38.9590   31.7030   47.2070 C   0  0  0  0  0  0  0  0  0  0  0  0
   38.0970   31.0970   48.0870 N   0  0  0  0  0  0  0  0  0  0  0  0
   35.1020   29.2760   50.5420 C   0  0  0  0  0  0  0  0  0  0  0  0
   34.2100   29.0310   49.3720 C   0  0  0  0  0  0  0  0  0  0  0  0
   34.2270   29.8350   48.2520 C   0  0  0  0  0  0  0  0  0  0  0  0
   33.3450   29.4280   47.3310 N   0  0  0  0  0  0  0  0  0  0  0  0
   32.7610   28.3460   47.8810 C   0  0  0  0  0  0  0  0  0  0  0  0
   33.2760   28.1060   49.1020 N   0  0  0  0  0  0  0  0  0  0  0  0
   31.7670   27.5080   47.3830 O   0  0  0  0  0  0  0  0  0  0  0  0
   36.1281   32.0223   50.2413 H   0  0  0  0  0  0  0  0  0  0  0  0
   36.4720   28.9828   49.3449 H   0  0  0  0  0  0  0  0  0  0  0  0
   38.5562   29.9168   51.0147 H   0  0  0  0  0  0  0  0  0  0  0  0
   37.6307   30.0710   52.2423 H   0  0  0  0  0  0  0  0  0  0  0  0
   37.9048   33.5376   50.4809 H   0  0  0  0  0  0  0  0  0  0  0  0
   39.4967   34.6166   48.8252 H   0  0  0  0  0  0  0  0  0  0  0  0
   39.2619   31.1944   46.2799 H   0  0  0  0  0  0  0  0  0  0  0  0
   35.2044   28.3390   51.1090 H   0  0  0  0  0  0  0  0  0  0  0  0
   34.6436   30.0702   51.1495 H   0  0  0  0  0  0  0  0  0  0  0  0
   34.8866   30.7068   48.1299 H   0  0  0  0  0  0  0  0  0  0  0  0
   33.1556   29.8476   46.4096 H   0  0  0  0  0  0  0  0  0  0  0  0
   31.4455   26.7447   47.9253 H   0  0  0  0  0  0  0  0  0  0  0  0
  1  3  1  0
  2  1  1  0
  2 10  1  0
  2  3  1  0
  4  5  2  0
  4  1  1  0
  6  5  1  0
  7  6  2  0
  8  7  1  0
  8  9  2  0
  9  4  1  0
 11 10  1  0
 12 11  2  0
 13 14  1  0
 13 12  1  0
 14 15  2  0
 15 11  1  0
 16 14  1  0
  1 17  1  1
  2 18  1  6
  3 19  1  0
  3 20  1  0
  5 21  1  0
  6 22  1  0
  8 23  1  0
 10 24  1  0
 10 25  1  0
 12 26  1  0
 13 27  1  0
 16 28  1  0
M  ISO  8  17  13  18  13  19  13  20  13  21  14  22  14  23  14  24   8
M  ISO  4  25   8  26  14  27   9  28   3
M  END
>  <minimizedAffinity>  (1) 
-5.35600471

>  <minimizedRMSD>  (1) 
0.0500776991

$$$$
