
     RDKit          3D

 31 33  0  0  0  0  0  0  0  0999 V2000
   38.7880   31.8790   47.8300 C   0  0  0  0  0  0  0  0  0  0  0  0
   38.3100   32.1050   49.0970 C   0  0  0  0  0  0  0  0  0  0  0  0
   38.6610   33.3430   49.6320 C   0  0  0  0  0  0  0  0  0  0  0  0
   39.4330   34.2660   48.9300 C   0  0  0  0  0  0  0  0  0  0  0  0
   39.8730   33.9390   47.6420 C   0  0  0  0  0  0  0  0  0  0  0  0
   39.5410   32.7150   47.0800 C   0  0  0  0  0  0  0  0  0  0  0  0
   36.1790   30.9510   49.4840 C   0  0  0  0  0  0  0  0  0  0  0  0
   37.5130   31.1650   49.8350 C   0  0  0  0  0  0  0  0  0  0  0  0
   38.0150   30.4380   50.9090 C   0  0  0  0  0  0  0  0  0  0  0  0
   37.1850   29.5680   51.5510 N   0  0  0  0  0  0  0  0  0  0  0  0
   35.8980   29.3940   51.1750 C   0  0  0  0  0  0  0  0  0  0  0  0
   35.3830   30.0930   50.1260 N   0  0  0  0  0  0  0  0  0  0  0  0
   38.4890   30.6550   47.1990 O   0  0  0  0  0  0  0  0  0  0  0  0
   40.0020   32.4520   45.8120 O   0  0  0  0  0  0  0  0  0  0  0  0
   39.1890   32.5680   44.7020 C   0  0  0  0  0  0  0  0  0  0  0  0
   39.8510   32.9380   43.5250 C   0  0  0  0  0  0  0  0  0  0  0  0
   39.1580   33.0950   42.3220 C   0  0  0  0  0  0  0  0  0  0  0  0
   37.7830   32.8810   42.2840 C   0  0  0  0  0  0  0  0  0  0  0  0
   37.1750   32.5130   43.4900 C   0  0  0  0  0  0  0  0  0  0  0  0
   37.8600   32.3680   44.6380 N   0  0  0  0  0  0  0  0  0  0  0  0
   38.3163   33.6005   50.6444 H   0  0  0  0  0  0  0  0  0  0  0  0
   39.6925   35.2355   49.3803 H   0  0  0  0  0  0  0  0  0  0  0  0
   40.4843   34.6553   47.0734 H   0  0  0  0  0  0  0  0  0  0  0  0
   35.7635   31.5169   48.6372 H   0  0  0  0  0  0  0  0  0  0  0  0
   39.0588   30.5623   51.2332 H   0  0  0  0  0  0  0  0  0  0  0  0
   35.2617   28.6819   51.7210 H   0  0  0  0  0  0  0  0  0  0  0  0
   38.8249   30.4740   46.2855 H   0  0  0  0  0  0  0  0  0  0  0  0
   40.9375   33.1083   43.5479 H   0  0  0  0  0  0  0  0  0  0  0  0
   39.6968   33.3866   41.4084 H   0  0  0  0  0  0  0  0  0  0  0  0
   37.2047   32.9951   41.3552 H   0  0  0  0  0  0  0  0  0  0  0  0
   36.0896   32.3347   43.4990 H   0  0  0  0  0  0  0  0  0  0  0  0
  1  2  2  0
  2  3  1  0
  2  8  1  0
  4  3  2  0
  5  4  1  0
  6  5  2  0
  6  1  1  0
  7  8  2  0
  7 12  1  0
  8  9  1  0
  9 10  2  0
 11 10  1  0
 12 11  2  0
 13  1  1  0
 14  6  1  0
 15 14  1  0
 16 15  2  0
 17 16  1  0
 18 17  2  0
 18 19  1  0
 19 20  2  0
 20 15  1  0
  3 21  1  0
  4 22  1  0
  5 23  1  0
  7 24  1  0
  9 25  1  0
 11 26  1  0
 13 27  1  0
 16 28  1  0
 17 29  1  0
 18 30  1  0
 19 31  1  0
M  ISO  8  21  14  22  14  23  14  24  14  25  14  26  14  27   3  28  14
M  ISO  3  29  14  30  14  31  14
M  END
>  <minimizedAffinity>  (1) 
-6.29469204

>  <minimizedRMSD>  (1) 
0.500157058

$$$$
