
     RDKit          3D

 25 26  0  0  0  0  0  0  0  0999 V2000
   38.7250   31.8810   47.7420 C   0  0  0  0  0  0  0  0  0  0  0  0
   38.2230   32.0890   49.0220 C   0  0  0  0  0  0  0  0  0  0  0  0
   38.6090   33.2840   49.6100 C   0  0  0  0  0  0  0  0  0  0  0  0
   39.4360   34.1980   48.9540 C   0  0  0  0  0  0  0  0  0  0  0  0
   39.8900   33.9060   47.6770 C   0  0  0  0  0  0  0  0  0  0  0  0
   39.5280   32.7250   47.0570 C   0  0  0  0  0  0  0  0  0  0  0  0
   36.0320   31.0080   49.3040 C   0  0  0  0  0  0  0  0  0  0  0  0
   37.3740   31.1580   49.7050 C   0  0  0  0  0  0  0  0  0  0  0  0
   37.8060   30.3720   50.7670 C   0  0  0  0  0  0  0  0  0  0  0  0
   36.9300   29.5090   51.3600 N   0  0  0  0  0  0  0  0  0  0  0  0
   35.6430   29.4070   50.9300 C   0  0  0  0  0  0  0  0  0  0  0  0
   35.1820   30.1600   49.8930 N   0  0  0  0  0  0  0  0  0  0  0  0
   38.3810   30.6990   47.0830 O   0  0  0  0  0  0  0  0  0  0  0  0
   39.9960   32.4660   45.7890 O   0  0  0  0  0  0  0  0  0  0  0  0
   39.9830   33.3600   44.7220 C   0  0  0  0  0  0  0  0  0  0  0  0
   38.2529   33.5190   50.6239 H   0  0  0  0  0  0  0  0  0  0  0  0
   39.7241   35.1393   49.4449 H   0  0  0  0  0  0  0  0  0  0  0  0
   40.5432   34.6196   47.1534 H   0  0  0  0  0  0  0  0  0  0  0  0
   35.6653   31.6182   48.4654 H   0  0  0  0  0  0  0  0  0  0  0  0
   38.8432   30.4446   51.1260 H   0  0  0  0  0  0  0  0  0  0  0  0
   34.9617   28.7026   51.4297 H   0  0  0  0  0  0  0  0  0  0  0  0
   38.7233   30.5232   46.1708 H   0  0  0  0  0  0  0  0  0  0  0  0
   39.9680   34.3903   45.1071 H   0  0  0  0  0  0  0  0  0  0  0  0
   40.8834   33.2111   44.1079 H   0  0  0  0  0  0  0  0  0  0  0  0
   39.0873   33.1850   44.1079 H   0  0  0  0  0  0  0  0  0  0  0  0
  1  2  2  0
  2  3  1  0
  2  8  1  0
  4  3  2  0
  5  4  1  0
  6  5  2  0
  6  1  1  0
  7  8  2  0
  7 12  1  0
  8  9  1  0
  9 10  2  0
 11 10  1  0
 12 11  2  0
 13  1  1  0
 14  6  1  0
 15 14  1  0
  3 16  1  0
  4 17  1  0
  5 18  1  0
  7 19  1  0
  9 20  1  0
 11 21  1  0
 13 22  1  0
 15 23  1  0
 15 24  1  0
 15 25  1  0
M  ISO  8  16  14  17  14  18  14  19  14  20  14  21  14  22   3  23   8
M  ISO  2  24   8  25   8
M  END
>  <minimizedAffinity>  (1) 
-5.49560404

>  <minimizedRMSD>  (1) 
0.31962207

$$$$
