
     RDKit          3D

 51 53  0  0  0  0  0  0  0  0999 V2000
   30.6210   28.2660   47.9980 O   0  0  0  0  0  0  0  0  0  0  0  0
   28.3660   28.0980   48.4070 C   0  0  0  0  0  0  0  0  0  0  0  0
   29.6610   27.8670   48.8970 C   0  0  0  0  0  0  0  0  0  0  0  0
   29.8860   27.3090   50.1300 C   0  0  0  0  0  0  0  0  0  0  0  0
   28.8110   26.9640   50.9120 C   0  0  0  0  0  0  0  0  0  0  0  0
   27.5480   27.1810   50.4500 C   0  0  0  0  0  0  0  0  0  0  0  0
   27.2790   27.7380   49.2210 C   0  0  0  0  0  0  0  0  0  0  0  0
   28.0150   28.7900   46.8490 S   0  0  0  0  0  0  0  0  0  0  0  0
   29.1060   29.7090   46.4160 O   0  0  0  0  0  0  0  0  0  0  0  0
   27.8310   27.6520   45.8520 O   0  0  0  0  0  0  0  0  0  0  0  0
   26.1720   32.5760   47.2600 N   0  0  0  0  0  0  0  0  0  0  0  0
   26.9590   32.0860   46.1430 C   0  0  0  0  0  0  0  0  0  0  0  0
   26.5590   30.7070   45.7390 C   0  0  0  0  0  0  0  0  0  0  0  0
   26.5090   29.7090   46.8730 C   0  0  0  0  0  0  0  0  0  0  0  0
   26.1980   30.2830   48.2000 C   0  0  0  0  0  0  0  0  0  0  0  0
   26.4410   31.7430   48.3840 C   0  0  0  0  0  0  0  0  0  0  0  0
   32.3540   26.2580   48.0800 O   0  0  0  0  0  0  0  0  0  0  0  0
   32.2390   27.7750   47.9550 P   0  0  1  0  0  0  0  0  0  0  0  0
   33.0000   28.3270   46.5460 O   0  0  0  0  0  0  0  0  0  0  0  0
   33.1010   28.3860   49.2890 O   0  0  0  0  0  0  0  0  0  0  0  0
   34.4190   27.8940   49.2340 C   0  0  0  0  0  0  0  0  0  0  0  0
   35.7960   29.8650   49.7550 C   0  0  0  0  0  0  0  0  0  0  0  0
   35.3920   28.9640   48.9050 C   0  0  0  0  0  0  0  0  0  0  0  0
   37.8130   32.9100   49.4460 C   0  0  0  0  0  0  0  0  0  0  0  0
   38.6070   32.6260   48.3200 C   0  0  0  0  0  0  0  0  0  0  0  0
   38.4350   31.3780   47.6740 C   0  0  0  0  0  0  0  0  0  0  0  0
   37.4860   30.5620   48.2370 N   0  0  0  0  0  0  0  0  0  0  0  0
   36.7610   30.8640   49.2960 C   0  0  0  0  0  0  0  0  0  0  0  0
   36.9350   32.0400   49.8900 N   0  0  0  0  0  0  0  0  0  0  0  0
   30.9127   27.1404   50.4871 H   0  0  0  0  0  0  0  0  0  0  0  0
   28.9687   26.5158   51.9041 H   0  0  0  0  0  0  0  0  0  0  0  0
   26.7009   26.8967   51.0916 H   0  0  0  0  0  0  0  0  0  0  0  0
   26.2435   27.8968   48.8857 H   0  0  0  0  0  0  0  0  0  0  0  0
   25.1697   32.5355   47.0263 H   0  0  0  0  0  0  0  0  0  0  0  0
   26.8186   32.7617   45.2864 H   0  0  0  0  0  0  0  0  0  0  0  0
   28.0126   32.0554   46.4576 H   0  0  0  0  0  0  0  0  0  0  0  0
   25.5591   30.7593   45.2836 H   0  0  0  0  0  0  0  0  0  0  0  0
   27.3319   30.3495   45.0427 H   0  0  0  0  0  0  0  0  0  0  0  0
   25.6520   29.0405   46.7039 H   0  0  0  0  0  0  0  0  0  0  0  0
   25.1324   30.0969   48.3998 H   0  0  0  0  0  0  0  0  0  0  0  0
   26.8950   29.7895   48.8933 H   0  0  0  0  0  0  0  0  0  0  0  0
   27.4995   31.8749   48.6528 H   0  0  0  0  0  0  0  0  0  0  0  0
   25.7308   32.0620   49.1611 H   0  0  0  0  0  0  0  0  0  0  0  0
   33.7767   28.8904   46.7895 H   0  0  0  0  0  0  0  0  0  0  0  0
   34.6798   27.4638   50.2122 H   0  0  0  0  0  0  0  0  0  0  0  0
   34.4672   27.1321   48.4421 H   0  0  0  0  0  0  0  0  0  0  0  0
   35.4217   29.8742   50.7893 H   0  0  0  0  0  0  0  0  0  0  0  0
   35.7965   28.9989   47.8827 H   0  0  0  0  0  0  0  0  0  0  0  0
   37.9292   33.8745   49.9620 H   0  0  0  0  0  0  0  0  0  0  0  0
   39.3430   33.3553   47.9507 H   0  0  0  0  0  0  0  0  0  0  0  0
   39.0176   31.0847   46.7883 H   0  0  0  0  0  0  0  0  0  0  0  0
  1  3  1  0
  2  3  1  0
  2  7  2  0
  3  4  2  0
  4  5  1  0
  6  5  2  0
  7  6  1  0
  8 14  1  0
  8  2  1  0
  9  8  2  0
 10  8  2  0
 11 16  1  0
 12 11  1  0
 13 12  1  0
 13 14  1  0
 14 15  1  0
 15 16  1  0
 18  1  1  0
 18 17  2  0
 18 20  1  0
 19 18  1  0
 21 20  1  0
 23 21  1  0
 23 22  2  0
 24 29  2  0
 25 24  1  0
 26 27  1  0
 26 25  2  0
 27 28  2  0
 28 22  1  0
 28 29  1  0
  4 30  1  0
  5 31  1  0
  6 32  1  0
  7 33  1  0
 11 34  1  0
 12 35  1  0
 12 36  1  0
 13 37  1  0
 13 38  1  0
 14 39  1  0
 15 40  1  0
 15 41  1  0
 16 42  1  0
 16 43  1  0
 19 44  1  0
 21 45  1  0
 21 46  1  0
 22 47  1  0
 23 48  1  0
 24 49  1  0
 25 50  1  0
 26 51  1  0
M  ISO  8  30  14  31  14  32  14  33  14  34   5  35  13  36  13  37  13
M  ISO  8  38  13  39  13  40  13  41  13  42  13  43  13  44   3  45   8
M  ISO  4  46   8  49  14  50  14  51  14
M  END
>  <minimizedAffinity>  (1) 
-6.3069253

>  <minimizedRMSD>  (1) 
2.54223704

$$$$
