
     RDKit          3D

 32 34  0  0  0  0  0  0  0  0999 V2000
   38.3190   32.2200   47.3930 C   0  0  0  0  0  0  0  0  0  0  0  0
   38.1570   32.0950   48.7660 C   0  0  0  0  0  0  0  0  0  0  0  0
   38.8690   33.0140   49.5260 C   0  0  0  0  0  0  0  0  0  0  0  0
   39.6800   33.9790   48.9210 C   0  0  0  0  0  0  0  0  0  0  0  0
   39.7930   34.0420   47.5470 C   0  0  0  0  0  0  0  0  0  0  0  0
   39.0990   33.1470   46.7730 C   0  0  0  0  0  0  0  0  0  0  0  0
   35.9360   31.2060   49.3190 C   0  0  0  0  0  0  0  0  0  0  0  0
   37.3250   31.1020   49.3660 C   0  0  0  0  0  0  0  0  0  0  0  0
   37.8600   29.9820   50.0290 C   0  0  0  0  0  0  0  0  0  0  0  0
   37.0000   29.0770   50.5790 N   0  0  0  0  0  0  0  0  0  0  0  0
   35.6600   29.2300   50.5010 C   0  0  0  0  0  0  0  0  0  0  0  0
   35.1230   30.2970   49.8710 N   0  0  0  0  0  0  0  0  0  0  0  0
   37.6360   31.3350   46.5380 O   0  0  0  0  0  0  0  0  0  0  0  0
   39.2220   33.2230   45.3840 O   0  0  0  0  0  0  0  0  0  0  0  0
   36.9780   32.5340   43.4760 Cl  0  0  0  0  0  0  0  0  0  0  0  0
   38.4840   31.6580   43.5950 C   0  0  0  0  0  0  0  0  0  0  0  0
   39.3840   32.1480   44.5460 C   0  0  0  0  0  0  0  0  0  0  0  0
   40.5840   31.4730   44.6620 C   0  0  0  0  0  0  0  0  0  0  0  0
   40.9290   30.3770   43.9110 C   0  0  0  0  0  0  0  0  0  0  0  0
   40.0250   29.9040   42.9730 C   0  0  0  0  0  0  0  0  0  0  0  0
   38.8140   30.5560   42.8310 C   0  0  0  0  0  0  0  0  0  0  0  0
   38.7935   32.9821   50.6229 H   0  0  0  0  0  0  0  0  0  0  0  0
   40.2334   34.6950   49.5463 H   0  0  0  0  0  0  0  0  0  0  0  0
   40.4335   34.8027   47.0769 H   0  0  0  0  0  0  0  0  0  0  0  0
   35.4892   32.0710   48.8070 H   0  0  0  0  0  0  0  0  0  0  0  0
   38.9482   29.8393   50.1022 H   0  0  0  0  0  0  0  0  0  0  0  0
   34.9991   28.4773   50.9556 H   0  0  0  0  0  0  0  0  0  0  0  0
   37.7428   31.4133   45.5569 H   0  0  0  0  0  0  0  0  0  0  0  0
   41.3097   31.8374   45.4040 H   0  0  0  0  0  0  0  0  0  0  0  0
   41.9026   29.8844   44.0507 H   0  0  0  0  0  0  0  0  0  0  0  0
   40.2661   29.0274   42.3538 H   0  0  0  0  0  0  0  0  0  0  0  0
   38.0924   30.1861   42.0878 H   0  0  0  0  0  0  0  0  0  0  0  0
  1  2  2  0
  2  8  1  0
  2  3  1  0
  4  3  2  0
  5  4  1  0
  6  1  1  0
  6  5  2  0
  7  8  2  0
  7 12  1  0
  8  9  1  0
  9 10  2  0
 11 10  1  0
 12 11  2  0
 13  1  1  0
 14  6  1  0
 15 16  1  0
 16 17  2  0
 17 18  1  0
 17 14  1  0
 19 18  2  0
 20 19  1  0
 21 20  2  0
 21 16  1  0
  3 22  1  0
  4 23  1  0
  5 24  1  0
  7 25  1  0
  9 26  1  0
 11 27  1  0
 13 28  1  0
 18 29  1  0
 19 30  1  0
 20 31  1  0
 21 32  1  0
M  ISO  8  22  14  23  14  24  14  25  14  26  14  27  14  28   3  29  14
M  ISO  3  30  14  31  14  32  14
M  END
>  <minimizedAffinity>  (1) 
-5.26227951

>  <minimizedRMSD>  (1) 
1.82793355

$$$$
