
     RDKit          3D

 47 50  0  0  0  0  0  0  0  0999 V2000
   38.3370   32.2350   47.4290 C   0  0  0  0  0  0  0  0  0  0  0  0
   38.1620   32.1100   48.7980 C   0  0  0  0  0  0  0  0  0  0  0  0
   38.8610   33.0370   49.5770 C   0  0  0  0  0  0  0  0  0  0  0  0
   39.6730   34.0070   48.9730 C   0  0  0  0  0  0  0  0  0  0  0  0
   39.7980   34.0690   47.6010 C   0  0  0  0  0  0  0  0  0  0  0  0
   39.1230   33.1730   46.8250 C   0  0  0  0  0  0  0  0  0  0  0  0
   35.9450   31.2070   49.3410 C   0  0  0  0  0  0  0  0  0  0  0  0
   37.3320   31.1160   49.3890 C   0  0  0  0  0  0  0  0  0  0  0  0
   37.8540   29.9960   50.0490 C   0  0  0  0  0  0  0  0  0  0  0  0
   37.0060   29.0880   50.5900 N   0  0  0  0  0  0  0  0  0  0  0  0
   35.6690   29.2290   50.5120 C   0  0  0  0  0  0  0  0  0  0  0  0
   35.1310   30.2940   49.8840 N   0  0  0  0  0  0  0  0  0  0  0  0
   37.6770   31.3520   46.5660 O   0  0  0  0  0  0  0  0  0  0  0  0
   39.2610   33.2500   45.4400 O   0  0  0  0  0  0  0  0  0  0  0  0
   37.0360   32.5510   43.5170 Cl  0  0  0  0  0  0  0  0  0  0  0  0
   38.5350   31.6880   43.6470 C   0  0  0  0  0  0  0  0  0  0  0  0
   39.4330   32.1720   44.6000 C   0  0  0  0  0  0  0  0  0  0  0  0
   40.6350   31.5050   44.7260 C   0  0  0  0  0  0  0  0  0  0  0  0
   40.9830   30.4080   43.9720 C   0  0  0  0  0  0  0  0  0  0  0  0
   40.0900   29.9320   43.0290 C   0  0  0  0  0  0  0  0  0  0  0  0
   38.8680   30.5840   42.8790 C   0  0  0  0  0  0  0  0  0  0  0  0
   37.8740   30.2020   41.9570 N   0  0  0  0  0  0  0  0  0  0  0  0
   36.8170   29.3050   42.3140 C   0  0  0  0  0  0  0  0  0  0  0  0
   35.4530   29.7140   41.8430 C   0  0  0  0  0  0  0  0  0  0  0  0
   35.4020   30.2550   40.4540 C   0  0  0  0  0  0  0  0  0  0  0  0
   36.4590   31.3030   40.2850 C   0  0  0  0  0  0  0  0  0  0  0  0
   37.8020   30.6620   40.5640 C   0  0  0  0  0  0  0  0  0  0  0  0
   38.7730   33.0049   50.6730 H   0  0  0  0  0  0  0  0  0  0  0  0
   40.2172   34.7276   49.6012 H   0  0  0  0  0  0  0  0  0  0  0  0
   40.4367   34.8346   47.1363 H   0  0  0  0  0  0  0  0  0  0  0  0
   35.4950   32.0719   48.8317 H   0  0  0  0  0  0  0  0  0  0  0  0
   38.9421   29.8549   50.1274 H   0  0  0  0  0  0  0  0  0  0  0  0
   35.0120   28.4709   50.9632 H   0  0  0  0  0  0  0  0  0  0  0  0
   37.7968   31.4347   45.5868 H   0  0  0  0  0  0  0  0  0  0  0  0
   41.3558   31.8715   45.4718 H   0  0  0  0  0  0  0  0  0  0  0  0
   41.9566   29.9170   44.1169 H   0  0  0  0  0  0  0  0  0  0  0  0
   40.3394   29.0572   42.4106 H   0  0  0  0  0  0  0  0  0  0  0  0
   37.0456   28.3192   41.8828 H   0  0  0  0  0  0  0  0  0  0  0  0
   36.7746   29.3014   43.4132 H   0  0  0  0  0  0  0  0  0  0  0  0
   34.7971   28.8322   41.8901 H   0  0  0  0  0  0  0  0  0  0  0  0
   35.1321   30.5327   42.5039 H   0  0  0  0  0  0  0  0  0  0  0  0
   35.5767   29.4396   39.7367 H   0  0  0  0  0  0  0  0  0  0  0  0
   34.4129   30.7002   40.2709 H   0  0  0  0  0  0  0  0  0  0  0  0
   36.4376   31.6923   39.2564 H   0  0  0  0  0  0  0  0  0  0  0  0
   36.2830   32.1387   40.9783 H   0  0  0  0  0  0  0  0  0  0  0  0
   37.9393   29.8024   39.8915 H   0  0  0  0  0  0  0  0  0  0  0  0
   38.5934   31.4069   40.3944 H   0  0  0  0  0  0  0  0  0  0  0  0
  1  2  2  0
  2  8  1  0
  2  3  1  0
  4  3  2  0
  5  4  1  0
  6  1  1  0
  6  5  2  0
  7  8  2  0
  7 12  1  0
  8  9  1  0
  9 10  2  0
 11 10  1  0
 12 11  2  0
 13  1  1  0
 14  6  1  0
 15 16  1  0
 16 17  2  0
 17 18  1  0
 17 14  1  0
 19 18  2  0
 20 19  1  0
 21 20  2  0
 21 16  1  0
 22 23  1  0
 22 21  1  0
 24 23  1  0
 25 24  1  0
 26 25  1  0
 26 27  1  0
 27 22  1  0
  3 28  1  0
  4 29  1  0
  5 30  1  0
  7 31  1  0
  9 32  1  0
 11 33  1  0
 13 34  1  0
 18 35  1  0
 19 36  1  0
 20 37  1  0
 23 38  1  0
 23 39  1  0
 24 40  1  0
 24 41  1  0
 25 42  1  0
 25 43  1  0
 26 44  1  0
 26 45  1  0
 27 46  1  0
 27 47  1  0
M  ISO  8  28  14  29  14  30  14  31  14  32  14  33  14  34   3  35  14
M  ISO  8  36  14  37  14  38  13  39  13  40  13  41  13  42  13  43  13
M  ISO  4  44  13  45  13  46  13  47  13
M  END
>  <minimizedAffinity>  (1) 
-5.46468353

>  <minimizedRMSD>  (1) 
0.191669315

$$$$
