
     RDKit          3D

 35 37  0  0  0  0  0  0  0  0999 V2000
   38.3350   32.2320   47.4020 C   0  0  0  0  0  0  0  0  0  0  0  0
   38.1580   32.0980   48.7740 C   0  0  0  0  0  0  0  0  0  0  0  0
   38.8680   33.0260   49.5420 C   0  0  0  0  0  0  0  0  0  0  0  0
   39.6730   33.9900   48.9530 C   0  0  0  0  0  0  0  0  0  0  0  0
   39.7960   34.0560   47.5720 C   0  0  0  0  0  0  0  0  0  0  0  0
   39.1180   33.1660   46.7940 C   0  0  0  0  0  0  0  0  0  0  0  0
   35.9370   31.2040   49.3200 C   0  0  0  0  0  0  0  0  0  0  0  0
   37.3280   31.1040   49.3710 C   0  0  0  0  0  0  0  0  0  0  0  0
   37.8560   29.9900   50.0290 C   0  0  0  0  0  0  0  0  0  0  0  0
   37.0070   29.0790   50.5770 N   0  0  0  0  0  0  0  0  0  0  0  0
   35.6660   29.2310   50.4950 C   0  0  0  0  0  0  0  0  0  0  0  0
   35.1210   30.3000   49.8630 N   0  0  0  0  0  0  0  0  0  0  0  0
   37.6610   31.3420   46.5480 O   0  0  0  0  0  0  0  0  0  0  0  0
   39.2460   33.2390   45.4070 O   0  0  0  0  0  0  0  0  0  0  0  0
   37.0020   32.5460   43.5040 Cl  0  0  0  0  0  0  0  0  0  0  0  0
   38.5030   31.6720   43.6190 C   0  0  0  0  0  0  0  0  0  0  0  0
   39.4050   32.1570   44.5630 C   0  0  0  0  0  0  0  0  0  0  0  0
   40.6020   31.4910   44.6800 C   0  0  0  0  0  0  0  0  0  0  0  0
   40.9410   30.3890   43.9230 C   0  0  0  0  0  0  0  0  0  0  0  0
   40.0460   29.9150   42.9930 C   0  0  0  0  0  0  0  0  0  0  0  0
   38.8300   30.5710   42.8570 C   0  0  0  0  0  0  0  0  0  0  0  0
   37.7880   30.1600   41.8960 C   0  0  0  0  0  0  0  0  0  0  0  0
   37.4160   31.2340   41.0800 F   0  0  0  0  0  0  0  0  0  0  0  0
   36.6280   29.8500   42.6030 F   0  0  0  0  0  0  0  0  0  0  0  0
   38.1380   29.1100   41.0960 F   0  0  0  0  0  0  0  0  0  0  0  0
   38.7863   32.9908   50.6384 H   0  0  0  0  0  0  0  0  0  0  0  0
   40.2177   34.7071   49.5847 H   0  0  0  0  0  0  0  0  0  0  0  0
   40.4362   34.8213   47.1089 H   0  0  0  0  0  0  0  0  0  0  0  0
   35.4926   32.0699   48.8074 H   0  0  0  0  0  0  0  0  0  0  0  0
   38.9447   29.8513   50.1030 H   0  0  0  0  0  0  0  0  0  0  0  0
   35.0068   28.4758   50.9480 H   0  0  0  0  0  0  0  0  0  0  0  0
   37.7714   31.4178   45.5671 H   0  0  0  0  0  0  0  0  0  0  0  0
   41.3301   31.8575   45.4186 H   0  0  0  0  0  0  0  0  0  0  0  0
   41.9145   29.8959   44.0614 H   0  0  0  0  0  0  0  0  0  0  0  0
   40.2871   29.0390   42.3730 H   0  0  0  0  0  0  0  0  0  0  0  0
  1  2  2  0
  2  8  1  0
  2  3  1  0
  4  3  2  0
  5  4  1  0
  6  1  1  0
  6  5  2  0
  7  8  2  0
  7 12  1  0
  8  9  1  0
  9 10  2  0
 11 10  1  0
 12 11  2  0
 13  1  1  0
 14  6  1  0
 15 16  1  0
 16 17  2  0
 17 18  1  0
 17 14  1  0
 19 18  2  0
 20 19  1  0
 21 20  2  0
 21 16  1  0
 22 24  1  0
 22 21  1  0
 23 22  1  0
 25 22  1  0
  3 26  1  0
  4 27  1  0
  5 28  1  0
  7 29  1  0
  9 30  1  0
 11 31  1  0
 13 32  1  0
 18 33  1  0
 19 34  1  0
 20 35  1  0
M  ISO  8  26  14  27  14  28  14  29  14  30  14  31  14  32   3  33  14
M  ISO  2  34  14  35  14
M  END
>  <minimizedAffinity>  (1) 
-5.40169954

>  <minimizedRMSD>  (1) 
0.0742785037

$$$$
