
     RDKit          3D

 34 36  0  0  0  0  0  0  0  0999 V2000
   38.3250   32.2330   47.3890 C   0  0  0  0  0  0  0  0  0  0  0  0
   38.1620   32.1040   48.7650 C   0  0  0  0  0  0  0  0  0  0  0  0
   38.8700   33.0130   49.5300 C   0  0  0  0  0  0  0  0  0  0  0  0
   39.6850   33.9810   48.9240 C   0  0  0  0  0  0  0  0  0  0  0  0
   39.7950   34.0460   47.5550 C   0  0  0  0  0  0  0  0  0  0  0  0
   39.1020   33.1560   46.7730 C   0  0  0  0  0  0  0  0  0  0  0  0
   35.9470   31.2030   49.3240 C   0  0  0  0  0  0  0  0  0  0  0  0
   37.3270   31.1100   49.3630 C   0  0  0  0  0  0  0  0  0  0  0  0
   37.8520   29.9860   50.0210 C   0  0  0  0  0  0  0  0  0  0  0  0
   37.0060   29.0750   50.5710 N   0  0  0  0  0  0  0  0  0  0  0  0
   35.6640   29.2310   50.4940 C   0  0  0  0  0  0  0  0  0  0  0  0
   35.1290   30.3040   49.8660 N   0  0  0  0  0  0  0  0  0  0  0  0
   37.6370   31.3440   46.5280 O   0  0  0  0  0  0  0  0  0  0  0  0
   39.2270   33.2370   45.3840 O   0  0  0  0  0  0  0  0  0  0  0  0
   36.9940   32.5560   43.4590 Cl  0  0  0  0  0  0  0  0  0  0  0  0
   38.4920   31.6850   43.5880 C   0  0  0  0  0  0  0  0  0  0  0  0
   39.3970   32.1600   44.5420 C   0  0  0  0  0  0  0  0  0  0  0  0
   40.5910   31.4960   44.6700 C   0  0  0  0  0  0  0  0  0  0  0  0
   40.9360   30.3980   43.9140 C   0  0  0  0  0  0  0  0  0  0  0  0
   40.0400   29.9250   42.9660 C   0  0  0  0  0  0  0  0  0  0  0  0
   38.8420   30.5830   42.8300 C   0  0  0  0  0  0  0  0  0  0  0  0
   37.8830   30.1560   41.8850 N   0  0  0  0  0  0  0  0  0  0  0  0
   38.7932   32.9766   50.6267 H   0  0  0  0  0  0  0  0  0  0  0  0
   40.2411   34.6945   49.5499 H   0  0  0  0  0  0  0  0  0  0  0  0
   40.4360   34.8084   47.0882 H   0  0  0  0  0  0  0  0  0  0  0  0
   35.5002   32.0701   48.8156 H   0  0  0  0  0  0  0  0  0  0  0  0
   38.9405   29.8436   50.0909 H   0  0  0  0  0  0  0  0  0  0  0  0
   35.0014   28.4784   50.9462 H   0  0  0  0  0  0  0  0  0  0  0  0
   37.7431   31.4236   45.5469 H   0  0  0  0  0  0  0  0  0  0  0  0
   41.3115   31.8606   45.4169 H   0  0  0  0  0  0  0  0  0  0  0  0
   41.9076   29.9032   44.0595 H   0  0  0  0  0  0  0  0  0  0  0  0
   40.2814   29.0510   42.3432 H   0  0  0  0  0  0  0  0  0  0  0  0
   36.9891   30.6597   41.7947 H   0  0  0  0  0  0  0  0  0  0  0  0
   38.0775   29.3409   41.2861 H   0  0  0  0  0  0  0  0  0  0  0  0
  1  2  2  0
  2  8  1  0
  2  3  1  0
  4  3  2  0
  5  4  1  0
  6  1  1  0
  6  5  2  0
  7  8  2  0
  7 12  1  0
  8  9  1  0
  9 10  2  0
 11 10  1  0
 12 11  2  0
 13  1  1  0
 14  6  1  0
 15 16  1  0
 16 17  2  0
 17 18  1  0
 17 14  1  0
 19 18  2  0
 20 19  1  0
 21 20  2  0
 21 16  1  0
 22 21  1  0
  3 23  1  0
  4 24  1  0
  5 25  1  0
  7 26  1  0
  9 27  1  0
 11 28  1  0
 13 29  1  0
 18 30  1  0
 19 31  1  0
 20 32  1  0
 22 33  1  0
 22 34  1  0
M  ISO  8  23  14  24  14  25  14  26  14  27  14  28  14  29   3  30  14
M  ISO  2  31  14  32  14
M  END
>  <minimizedAffinity>  (1) 
-5.38318253

>  <minimizedRMSD>  (1) 
0.0191040151

$$$$
