
     RDKit          3D

 39 42  0  0  0  0  0  0  0  0999 V2000
   37.2570   31.5720   47.6620 C   0  0  0  0  0  0  0  0  0  0  0  0
   36.9810   31.1230   48.9350 C   0  0  0  0  0  0  0  0  0  0  0  0
   37.8070   31.6110   49.9410 C   0  0  0  0  0  0  0  0  0  0  0  0
   38.8410   32.5020   49.6310 C   0  0  0  0  0  0  0  0  0  0  0  0
   39.0660   32.9130   48.3420 C   0  0  0  0  0  0  0  0  0  0  0  0
   38.2620   32.4410   47.3410 C   0  0  0  0  0  0  0  0  0  0  0  0
   34.7020   30.6670   49.7530 C   0  0  0  0  0  0  0  0  0  0  0  0
   35.9160   30.2110   49.2250 C   0  0  0  0  0  0  0  0  0  0  0  0
   36.0290   28.8320   48.9990 C   0  0  0  0  0  0  0  0  0  0  0  0
   34.9690   28.0280   49.3010 N   0  0  0  0  0  0  0  0  0  0  0  0
   33.8220   28.5330   49.8100 C   0  0  0  0  0  0  0  0  0  0  0  0
   33.6890   29.8520   50.0360 N   0  0  0  0  0  0  0  0  0  0  0  0
   36.4690   31.1290   46.5800 O   0  0  0  0  0  0  0  0  0  0  0  0
   38.5000   32.8680   46.0240 O   0  0  0  0  0  0  0  0  0  0  0  0
   36.9730   32.4790   43.4400 Cl  0  0  0  0  0  0  0  0  0  0  0  0
   38.5340   31.7800   43.7810 C   0  0  0  0  0  0  0  0  0  0  0  0
   39.0670   32.0850   45.0380 C   0  0  0  0  0  0  0  0  0  0  0  0
   40.2950   31.5470   45.3290 C   0  0  0  0  0  0  0  0  0  0  0  0
   41.0110   30.7390   44.4660 C   0  0  0  0  0  0  0  0  0  0  0  0
   40.4750   30.4480   43.2330 C   0  0  0  0  0  0  0  0  0  0  0  0
   39.2360   30.9790   42.9130 C   0  0  0  0  0  0  0  0  0  0  0  0
   38.6330   30.6910   41.6120 C   0  0  0  0  0  0  0  0  0  0  0  0
   38.8440   31.3860   40.4220 C   0  0  0  0  0  0  0  0  0  0  0  0
   38.1340   30.8530   39.4210 N   0  0  0  0  0  0  0  0  0  0  0  0
   37.4600   29.8140   39.9430 C   0  0  0  0  0  0  0  0  0  0  0  0
   37.7580   29.7130   41.2650 N   0  0  0  0  0  0  0  0  0  0  0  0
   37.6477   31.2963   50.9829 H   0  0  0  0  0  0  0  0  0  0  0  0
   39.4863   32.8803   50.4376 H   0  0  0  0  0  0  0  0  0  0  0  0
   39.8832   33.6138   48.1158 H   0  0  0  0  0  0  0  0  0  0  0  0
   34.5807   31.7439   49.9417 H   0  0  0  0  0  0  0  0  0  0  0  0
   36.9552   28.4061   48.5858 H   0  0  0  0  0  0  0  0  0  0  0  0
   32.9869   27.8557   50.0422 H   0  0  0  0  0  0  0  0  0  0  0  0
   36.6627   31.4483   45.6632 H   0  0  0  0  0  0  0  0  0  0  0  0
   40.7374   31.7728   46.3105 H   0  0  0  0  0  0  0  0  0  0  0  0
   41.9915   30.3360   44.7597 H   0  0  0  0  0  0  0  0  0  0  0  0
   41.0164   29.8098   42.5191 H   0  0  0  0  0  0  0  0  0  0  0  0
   39.5069   32.2578   40.3195 H   0  0  0  0  0  0  0  0  0  0  0  0
   38.1089   31.1754   38.4431 H   0  0  0  0  0  0  0  0  0  0  0  0
   36.7774   29.1523   39.3896 H   0  0  0  0  0  0  0  0  0  0  0  0
  1  2  2  0
  2  8  1  0
  2  3  1  0
  4  3  2  0
  5  4  1  0
  6  1  1  0
  6  5  2  0
  7 12  2  0
  8  7  1  0
  9  8  2  0
  9 10  1  0
 10 11  2  0
 11 12  1  0
 13  1  1  0
 14  6  1  0
 15 16  1  0
 16 17  2  0
 17 18  1  0
 17 14  1  0
 19 18  2  0
 20 19  1  0
 21 20  2  0
 21 16  1  0
 22 21  1  0
 23 22  2  0
 24 25  1  0
 24 23  1  0
 25 26  2  0
 26 22  1  0
  3 27  1  0
  4 28  1  0
  5 29  1  0
  7 30  1  0
  9 31  1  0
 11 32  1  0
 13 33  1  0
 18 34  1  0
 19 35  1  0
 20 36  1  0
 23 37  1  0
 24 38  1  0
 25 39  1  0
M  ISO  8  27  14  28  14  29  14  30  14  31  14  32  14  33   3  34  14
M  ISO  5  35  14  36  14  37  14  38   9  39  14
M  END
>  <minimizedAffinity>  (1) 
-5.36636448

>  <minimizedRMSD>  (1) 
1.52709961

$$$$
