
     RDKit          3D

 36 38  0  0  0  0  0  0  0  0999 V2000
   37.2790   31.5740   47.5720 C   0  0  0  0  0  0  0  0  0  0  0  0
   37.0120   31.1500   48.8650 C   0  0  0  0  0  0  0  0  0  0  0  0
   37.8540   31.6730   49.8430 C   0  0  0  0  0  0  0  0  0  0  0  0
   38.8780   32.5530   49.5050 C   0  0  0  0  0  0  0  0  0  0  0  0
   39.0910   32.9350   48.1920 C   0  0  0  0  0  0  0  0  0  0  0  0
   38.2660   32.4260   47.2160 C   0  0  0  0  0  0  0  0  0  0  0  0
   34.7590   30.7040   49.7440 C   0  0  0  0  0  0  0  0  0  0  0  0
   35.9530   30.2460   49.1880 C   0  0  0  0  0  0  0  0  0  0  0  0
   36.0450   28.8680   48.9700 C   0  0  0  0  0  0  0  0  0  0  0  0
   35.0040   28.0630   49.2980 N   0  0  0  0  0  0  0  0  0  0  0  0
   33.8680   28.5610   49.8360 C   0  0  0  0  0  0  0  0  0  0  0  0
   33.7490   29.8780   50.0570 N   0  0  0  0  0  0  0  0  0  0  0  0
   36.4800   31.0980   46.5200 O   0  0  0  0  0  0  0  0  0  0  0  0
   38.4860   32.8160   45.8890 O   0  0  0  0  0  0  0  0  0  0  0  0
   36.8310   32.3240   43.4030 Cl  0  0  0  0  0  0  0  0  0  0  0  0
   38.4190   31.6470   43.6840 C   0  0  0  0  0  0  0  0  0  0  0  0
   39.0080   32.0090   44.9110 C   0  0  0  0  0  0  0  0  0  0  0  0
   40.2540   31.4870   45.1480 C   0  0  0  0  0  0  0  0  0  0  0  0
   40.9470   30.6610   44.2990 C   0  0  0  0  0  0  0  0  0  0  0  0
   40.3490   30.3180   43.0980 C   0  0  0  0  0  0  0  0  0  0  0  0
   39.1010   30.8160   42.8140 C   0  0  0  0  0  0  0  0  0  0  0  0
   37.4970   29.5050   41.1990 C   0  0  0  0  0  0  0  0  0  0  0  0
   37.2160   28.7270   42.1190 O   0  0  0  0  0  0  0  0  0  0  0  0
   38.4240   30.5060   41.6000 N   0  0  0  0  0  0  0  0  0  0  0  0
   37.7081   31.3873   50.8952 H   0  0  0  0  0  0  0  0  0  0  0  0
   39.5299   32.9522   50.2960 H   0  0  0  0  0  0  0  0  0  0  0  0
   39.9029   33.6310   47.9343 H   0  0  0  0  0  0  0  0  0  0  0  0
   34.6409   31.7812   49.9328 H   0  0  0  0  0  0  0  0  0  0  0  0
   36.9588   28.4382   48.5339 H   0  0  0  0  0  0  0  0  0  0  0  0
   33.0397   27.8843   50.0929 H   0  0  0  0  0  0  0  0  0  0  0  0
   36.6580   31.3914   45.5914 H   0  0  0  0  0  0  0  0  0  0  0  0
   40.7388   31.7529   46.0989 H   0  0  0  0  0  0  0  0  0  0  0  0
   41.9456   30.2834   44.5640 H   0  0  0  0  0  0  0  0  0  0  0  0
   40.8643   29.6585   42.3842 H   0  0  0  0  0  0  0  0  0  0  0  0
   37.0771   29.4308   40.1850 H   0  0  0  0  0  0  0  0  0  0  0  0
   38.6601   31.1564   40.8370 H   0  0  0  0  0  0  0  0  0  0  0  0
  1  2  2  0
  2  8  1  0
  2  3  1  0
  4  3  2  0
  5  4  1  0
  6  1  1  0
  6  5  2  0
  7 12  2  0
  8  7  1  0
  9  8  2  0
  9 10  1  0
 10 11  2  0
 11 12  1  0
 13  1  1  0
 14  6  1  0
 15 16  1  0
 16 17  2  0
 17 18  1  0
 17 14  1  0
 19 18  2  0
 20 19  1  0
 21 20  2  0
 21 16  1  0
 22 24  1  0
 22 23  2  0
 24 21  1  0
  3 25  1  0
  4 26  1  0
  5 27  1  0
  7 28  1  0
  9 29  1  0
 11 30  1  0
 13 31  1  0
 18 32  1  0
 19 33  1  0
 20 34  1  0
 22 35  1  0
 24 36  1  0
M  ISO  8  25  14  26  14  27  14  28  14  29  14  30  14  31   3  32  14
M  ISO  3  33  14  34  14  35   6
M  END
>  <minimizedAffinity>  (1) 
-5.28860807

>  <minimizedRMSD>  (1) 
1.34789193

$$$$
