
     RDKit          3D

 29 31  0  0  1  0  0  0  0  0999 V2000
   36.0120   30.3220   47.4540 C   0  0  0  0  0  0  0  0  0  0  0  0
   36.5020   30.5160   46.1690 C   0  0  0  0  0  0  0  0  0  0  0  0
   37.6320   31.3300   46.2530 C   0  0  0  0  0  0  0  0  0  0  0  0
   37.7880   31.5990   47.5750 N   0  0  0  0  0  0  0  0  0  0  0  0
   36.8230   30.9950   48.2580 N   0  0  0  0  0  0  0  0  0  0  0  0
   34.6010   28.8950   48.9580 C   0  0  0  0  0  0  0  0  0  0  0  0
   34.8420   29.5240   47.7390 C   0  0  0  0  0  0  0  0  0  0  0  0
   33.8650   29.3560   46.7400 C   0  0  0  0  0  0  0  0  0  0  0  0
   32.7670   28.6050   47.0160 N   0  0  0  0  0  0  0  0  0  0  0  0
   32.5900   28.0130   48.2340 C   0  0  0  0  0  0  0  0  0  0  0  0
   33.5210   28.1630   49.2120 N   0  0  0  0  0  0  0  0  0  0  0  0
   39.3200   33.4390   47.3340 N   0  0  0  0  0  0  0  0  0  0  0  0
   39.9710   34.3820   48.2230 C   0  0  0  0  0  0  0  0  0  0  0  0
   39.4320   34.1310   49.6160 C   0  0  0  0  0  0  0  0  0  0  0  0
   38.2130   33.2510   49.3200 C   0  0  0  0  0  0  0  0  0  0  0  0
   38.7920   32.3900   48.2170 C   0  0  1  0  0  0  0  0  0  0  0  0
   36.0735   30.1000   45.2452 H   0  0  0  0  0  0  0  0  0  0  0  0
   38.2635   31.6801   45.4232 H   0  0  0  0  0  0  0  0  0  0  0  0
   35.3480   29.0107   49.7572 H   0  0  0  0  0  0  0  0  0  0  0  0
   33.9883   29.8248   45.7525 H   0  0  0  0  0  0  0  0  0  0  0  0
   31.6888   27.4115   48.4241 H   0  0  0  0  0  0  0  0  0  0  0  0
   39.9972   33.0436   46.6662 H   0  0  0  0  0  0  0  0  0  0  0  0
   41.0597   34.2254   48.2064 H   0  0  0  0  0  0  0  0  0  0  0  0
   39.7713   35.4168   47.9080 H   0  0  0  0  0  0  0  0  0  0  0  0
   40.1664   33.6024   50.2415 H   0  0  0  0  0  0  0  0  0  0  0  0
   39.1970   35.0475   50.1770 H   0  0  0  0  0  0  0  0  0  0  0  0
   37.9156   32.6535   50.1944 H   0  0  0  0  0  0  0  0  0  0  0  0
   37.2940   33.7953   49.0570 H   0  0  0  0  0  0  0  0  0  0  0  0
   39.5321   31.6453   48.5451 H   0  0  0  0  0  0  0  0  0  0  0  0
  1  7  1  0
  1  5  2  0
  2  3  2  0
  2  1  1  0
  3  4  1  0
  4  5  1  0
  6 11  2  0
  7  6  1  0
  8  9  1  0
  8  7  2  0
  9 10  2  0
 10 11  1  0
 12 16  1  0
 12 13  1  0
 13 14  1  0
 15 14  1  0
 16  4  1  0
 16 15  1  0
  2 17  1  0
  3 18  1  0
  6 19  1  0
  8 20  1  0
 10 21  1  0
 12 22  1  0
 13 23  1  0
 13 24  1  0
 14 25  1  0
 14 26  1  0
 15 27  1  0
 15 28  1  0
 16 29  1  1
M  ISO  8  17  14  18  14  19  14  20  14  21  14  22   5  23  13  24  13
M  ISO  5  25  13  26  13  27  13  28  13  29  13
M  END
>  <minimizedAffinity>  (1) 
-5.05773354

>  <minimizedRMSD>  (1) 
3.23914123

$$$$
