
     RDKit          3D

 35 37  0  0  1  0  0  0  0  0999 V2000
   37.8050   32.5350   47.2210 N   0  0  0  0  0  0  0  0  0  0  0  0
   38.7650   33.0340   48.1910 C   0  0  0  0  0  0  0  0  0  0  0  0
   38.6150   32.1880   49.4440 C   0  0  0  0  0  0  0  0  0  0  0  0
   37.3590   31.3750   49.1140 C   0  0  0  0  0  0  0  0  0  0  0  0
   37.5900   31.1300   47.6480 C   0  0  1  0  0  0  0  0  0  0  0  0
   34.4710   29.5930   46.9210 C   0  0  0  0  0  0  0  0  0  0  0  0
   34.8840   29.8760   45.6360 C   0  0  0  0  0  0  0  0  0  0  0  0
   36.1250   30.5010   45.6950 C   0  0  0  0  0  0  0  0  0  0  0  0
   36.4290   30.5800   47.0070 N   0  0  0  0  0  0  0  0  0  0  0  0
   35.4390   30.0370   47.7230 N   0  0  0  0  0  0  0  0  0  0  0  0
   33.0190   28.1000   48.3330 C   0  0  0  0  0  0  0  0  0  0  0  0
   33.2250   28.9440   47.2460 C   0  0  0  0  0  0  0  0  0  0  0  0
   32.1150   29.1760   46.3980 C   0  0  0  0  0  0  0  0  0  0  0  0
   30.9300   28.5710   46.6910 N   0  0  0  0  0  0  0  0  0  0  0  0
   30.8070   27.7490   47.7870 C   0  0  0  0  0  0  0  0  0  0  0  0
   31.8620   27.5170   48.6080 N   0  0  0  0  0  0  0  0  0  0  0  0
   38.7650   30.4920   47.3460 O   0  0  0  0  0  0  0  0  0  0  0  0
   38.8170   32.0360   45.2260 O   0  0  0  0  0  0  0  0  0  0  0  0
   39.3540   30.7290   45.8090 P   0  0  0  0  0  0  0  0  0  0  0  0
   39.0900   29.4460   44.7560 O   0  0  0  0  0  0  0  0  0  0  0  0
   41.0400   30.9220   45.9280 O   0  0  0  0  0  0  0  0  0  0  0  0
   38.1893   32.5761   46.2663 H   0  0  0  0  0  0  0  0  0  0  0  0
   39.7863   32.9412   47.7931 H   0  0  0  0  0  0  0  0  0  0  0  0
   38.5826   34.0961   48.4116 H   0  0  0  0  0  0  0  0  0  0  0  0
   39.4877   31.5358   49.5955 H   0  0  0  0  0  0  0  0  0  0  0  0
   38.5405   32.7717   50.3734 H   0  0  0  0  0  0  0  0  0  0  0  0
   37.3185   30.4353   49.6843 H   0  0  0  0  0  0  0  0  0  0  0  0
   36.4073   31.8694   49.3586 H   0  0  0  0  0  0  0  0  0  0  0  0
   34.3248   29.6457   44.7171 H   0  0  0  0  0  0  0  0  0  0  0  0
   36.7316   30.8565   44.8491 H   0  0  0  0  0  0  0  0  0  0  0  0
   33.8683   27.9053   49.0044 H   0  0  0  0  0  0  0  0  0  0  0  0
   32.2077   29.8319   45.5198 H   0  0  0  0  0  0  0  0  0  0  0  0
   29.8389   27.2726   48.0011 H   0  0  0  0  0  0  0  0  0  0  0  0
   38.9203   28.6213   45.2767 H   0  0  0  0  0  0  0  0  0  0  0  0
   41.3022   30.9520   46.8822 H   0  0  0  0  0  0  0  0  0  0  0  0
  1  5  1  0
  1  2  1  0
  2  3  1  0
  4  3  1  0
  5 17  1  1
  5  4  1  0
  6 12  1  0
  6 10  2  0
  7  8  2  0
  7  6  1  0
  8  9  1  0
  9  5  1  0
  9 10  1  0
 11 16  2  0
 12 11  1  0
 13 14  1  0
 13 12  2  0
 14 15  2  0
 15 16  1  0
 18 19  2  0
 19 21  1  0
 19 17  1  0
 20 19  1  0
  1 22  1  0
  2 23  1  0
  2 24  1  0
  3 25  1  0
  3 26  1  0
  4 27  1  0
  4 28  1  0
  7 29  1  0
  8 30  1  0
 11 31  1  0
 13 32  1  0
 15 33  1  0
 20 34  1  0
 21 35  1  0
M  ISO  8  22   5  23  13  24  13  25  13  26  13  27  13  28  13  29  14
M  ISO  6  30  14  31  14  32  14  33  14  34   3  35   3
M  END
>  <minimizedAffinity>  (1) 
-5.21332788

>  <minimizedRMSD>  (1) 
2.01636481

$$$$
