
     RDKit          3D

 30 32  0  0  1  0  0  0  0  0999 V2000
   34.9350   29.8470   47.3970 C   0  0  0  0  0  0  0  0  0  0  0  0
   35.5150   30.0050   46.1350 C   0  0  0  0  0  0  0  0  0  0  0  0
   36.7070   30.7190   46.3090 C   0  0  0  0  0  0  0  0  0  0  0  0
   36.8010   30.9590   47.6310 N   0  0  0  0  0  0  0  0  0  0  0  0
   35.7470   30.4360   48.2480 N   0  0  0  0  0  0  0  0  0  0  0  0
   38.4390   32.7230   47.5620 N   0  0  0  0  0  0  0  0  0  0  0  0
   39.1630   33.5030   48.5440 C   0  0  0  0  0  0  0  0  0  0  0  0
   38.5510   33.1980   49.8990 C   0  0  0  0  0  0  0  0  0  0  0  0
   37.2810   32.4350   49.4990 C   0  0  0  0  0  0  0  0  0  0  0  0
   37.8240   31.6500   48.3360 C   0  0  1  0  0  0  0  0  0  0  0  0
   38.7800   30.7810   48.8580 O   0  0  0  0  0  0  0  0  0  0  0  0
   33.3830   28.3850   48.7060 C   0  0  0  0  0  0  0  0  0  0  0  0
   33.6900   29.1500   47.5810 C   0  0  0  0  0  0  0  0  0  0  0  0
   32.7000   29.2160   46.5980 C   0  0  0  0  0  0  0  0  0  0  0  0
   31.5280   28.5560   46.7710 N   0  0  0  0  0  0  0  0  0  0  0  0
   31.2850   27.8250   47.8870 C   0  0  0  0  0  0  0  0  0  0  0  0
   32.2330   27.7390   48.8720 N   0  0  0  0  0  0  0  0  0  0  0  0
   35.1098   29.6364   45.1811 H   0  0  0  0  0  0  0  0  0  0  0  0
   37.4195   31.0214   45.5274 H   0  0  0  0  0  0  0  0  0  0  0  0
   39.0819   32.3401   46.8542 H   0  0  0  0  0  0  0  0  0  0  0  0
   40.2265   33.2220   48.5389 H   0  0  0  0  0  0  0  0  0  0  0  0
   39.0943   34.5772   48.3173 H   0  0  0  0  0  0  0  0  0  0  0  0
   39.2192   32.5731   50.5098 H   0  0  0  0  0  0  0  0  0  0  0  0
   38.3623   34.0891   50.5157 H   0  0  0  0  0  0  0  0  0  0  0  0
   36.9239   31.7792   50.3067 H   0  0  0  0  0  0  0  0  0  0  0  0
   36.4065   33.0634   49.2743 H   0  0  0  0  0  0  0  0  0  0  0  0
   38.7477   30.8104   49.8470 H   0  0  0  0  0  0  0  0  0  0  0  0
   34.1372   28.3118   49.5034 H   0  0  0  0  0  0  0  0  0  0  0  0
   32.8709   29.8032   45.6837 H   0  0  0  0  0  0  0  0  0  0  0  0
   30.3250   27.3002   48.0015 H   0  0  0  0  0  0  0  0  0  0  0  0
  1 13  1  0
  1  5  2  0
  2  3  2  0
  2  1  1  0
  3  4  1  0
  4  5  1  0
  4 10  1  0
  6 10  1  0
  6  7  1  0
  7  8  1  0
  9  8  1  0
 10 11  1  1
 10  9  1  0
 12 17  2  0
 13 12  1  0
 14 15  1  0
 14 13  2  0
 15 16  2  0
 16 17  1  0
  2 18  1  0
  3 19  1  0
  6 20  1  0
  7 21  1  0
  7 22  1  0
  8 23  1  0
  8 24  1  0
  9 25  1  0
  9 26  1  0
 11 27  1  0
 12 28  1  0
 14 29  1  0
 16 30  1  0
M  ISO  8  18  14  19  14  20   5  21  13  22  13  23  13  24  13  25  13
M  ISO  5  26  13  27   3  28  14  29  14  30  14
M  END
>  <minimizedAffinity>  (1) 
-5.0505929

>  <minimizedRMSD>  (1) 
1.24154341

$$$$
