
     RDKit          3D

 35 37  0  0  1  0  0  0  0  0999 V2000
   34.7730   29.8240   47.3820 C   0  0  0  0  0  0  0  0  0  0  0  0
   35.4290   29.9610   46.1540 C   0  0  0  0  0  0  0  0  0  0  0  0
   36.6150   30.6630   46.3910 C   0  0  0  0  0  0  0  0  0  0  0  0
   36.6390   30.9210   47.7140 N   0  0  0  0  0  0  0  0  0  0  0  0
   35.5380   30.4150   48.2800 N   0  0  0  0  0  0  0  0  0  0  0  0
   38.4000   32.5580   47.6630 N   0  0  0  0  0  0  0  0  0  0  0  0
   39.0340   33.4250   48.6400 C   0  0  0  0  0  0  0  0  0  0  0  0
   38.2570   33.3040   49.9330 C   0  0  0  0  0  0  0  0  0  0  0  0
   37.0150   32.5410   49.4820 C   0  0  0  0  0  0  0  0  0  0  0  0
   37.6240   31.6070   48.4770 C   0  0  1  0  0  0  0  0  0  0  0  0
   38.5390   30.5870   49.1150 C   0  0  0  0  0  0  0  0  0  0  0  0
   37.8710   29.8770   50.2540 C   0  0  0  0  0  0  0  0  0  0  0  0
   33.1890   28.2870   48.5590 C   0  0  0  0  0  0  0  0  0  0  0  0
   33.5060   29.1400   47.4910 C   0  0  0  0  0  0  0  0  0  0  0  0
   32.5270   29.3080   46.5070 C   0  0  0  0  0  0  0  0  0  0  0  0
   31.3530   28.6420   46.6530 N   0  0  0  0  0  0  0  0  0  0  0  0
   31.0930   27.8270   47.7050 C   0  0  0  0  0  0  0  0  0  0  0  0
   32.0390   27.6470   48.6820 N   0  0  0  0  0  0  0  0  0  0  0  0
   35.0770   29.5859   45.1817 H   0  0  0  0  0  0  0  0  0  0  0  0
   37.3748   30.9472   45.6481 H   0  0  0  0  0  0  0  0  0  0  0  0
   39.1066   32.0648   47.0987 H   0  0  0  0  0  0  0  0  0  0  0  0
   40.0766   33.1120   48.7984 H   0  0  0  0  0  0  0  0  0  0  0  0
   39.0365   34.4669   48.2873 H   0  0  0  0  0  0  0  0  0  0  0  0
   38.8222   32.7381   50.6882 H   0  0  0  0  0  0  0  0  0  0  0  0
   38.0367   34.2695   50.4118 H   0  0  0  0  0  0  0  0  0  0  0  0
   36.5483   31.9946   50.3148 H   0  0  0  0  0  0  0  0  0  0  0  0
   36.2035   33.1724   49.0911 H   0  0  0  0  0  0  0  0  0  0  0  0
   38.8314   29.8465   48.3559 H   0  0  0  0  0  0  0  0  0  0  0  0
   39.4189   31.1159   49.5100 H   0  0  0  0  0  0  0  0  0  0  0  0
   38.2475   30.2772   51.2069 H   0  0  0  0  0  0  0  0  0  0  0  0
   36.7835   30.0319   50.1954 H   0  0  0  0  0  0  0  0  0  0  0  0
   38.0918   28.8010   50.1954 H   0  0  0  0  0  0  0  0  0  0  0  0
   33.9457   28.1416   49.3440 H   0  0  0  0  0  0  0  0  0  0  0  0
   32.7030   29.9610   45.6395 H   0  0  0  0  0  0  0  0  0  0  0  0
   30.1243   27.3106   47.7750 H   0  0  0  0  0  0  0  0  0  0  0  0
  1 14  1  0
  1  5  2  0
  2  3  2  0
  2  1  1  0
  3  4  1  0
  4  5  1  0
  4 10  1  0
  6 10  1  0
  6  7  1  0
  7  8  1  0
  9  8  1  0
 10 11  1  1
 10  9  1  0
 11 12  1  0
 13 18  2  0
 14 13  1  0
 15 16  1  0
 15 14  2  0
 16 17  2  0
 17 18  1  0
  2 19  1  0
  3 20  1  0
  6 21  1  0
  7 22  1  0
  7 23  1  0
  8 24  1  0
  8 25  1  0
  9 26  1  0
  9 27  1  0
 11 28  1  0
 11 29  1  0
 12 30  1  0
 12 31  1  0
 12 32  1  0
 13 33  1  0
 15 34  1  0
 17 35  1  0
M  ISO  8  19  14  20  14  21   5  22  13  23  13  24  13  25  13  26  13
M  ISO  8  27  13  28   8  29   8  30   8  31   8  32   8  33  14  34  14
M  ISO  1  35  14
M  END
>  <minimizedAffinity>  (1) 
-4.5625267

>  <minimizedRMSD>  (1) 
1.47773504

$$$$
