
     RDKit          3D

 44 47  0  0  1  0  0  0  0  0999 V2000
   34.7600   29.7550   47.5370 C   0  0  0  0  0  0  0  0  0  0  0  0
   35.2780   29.9290   46.2550 C   0  0  0  0  0  0  0  0  0  0  0  0
   36.4740   30.6450   46.3960 C   0  0  0  0  0  0  0  0  0  0  0  0
   36.6270   30.8710   47.7220 N   0  0  0  0  0  0  0  0  0  0  0  0
   35.6010   30.3350   48.3690 N   0  0  0  0  0  0  0  0  0  0  0  0
   38.3420   32.5380   47.5480 N   0  0  0  0  0  0  0  0  0  0  0  0
   39.0540   33.3950   48.4760 C   0  0  0  0  0  0  0  0  0  0  0  0
   38.4510   33.1870   49.8390 C   0  0  0  0  0  0  0  0  0  0  0  0
   37.1720   32.4200   49.5010 C   0  0  0  0  0  0  0  0  0  0  0  0
   37.6770   31.5530   48.3730 C   0  0  1  0  0  0  0  0  0  0  0  0
   38.6000   30.5950   48.9170 N   0  0  0  0  0  0  0  0  0  0  0  0
   33.2050   28.4120   48.9900 C   0  0  0  0  0  0  0  0  0  0  0  0
   33.5100   29.0460   47.7640 C   0  0  0  0  0  0  0  0  0  0  0  0
   32.5550   28.9740   46.7410 C   0  0  0  0  0  0  0  0  0  0  0  0
   31.4080   28.3030   47.0000 N   0  0  0  0  0  0  0  0  0  0  0  0
   31.1440   27.7020   48.1910 C   0  0  0  0  0  0  0  0  0  0  0  0
   32.0730   27.7680   49.1980 N   0  0  0  0  0  0  0  0  0  0  0  0
   28.9760   27.4570   49.3760 C   0  0  1  0  0  0  0  0  0  0  0  0
   29.8130   27.0310   48.2170 C   0  0  1  0  0  0  0  0  0  0  0  0
   29.0750   27.3930   47.1190 O   0  0  0  0  0  0  0  0  0  0  0  0
   27.7360   27.3320   47.4100 C   0  0  0  0  0  0  0  0  0  0  0  0
   27.5860   27.0580   48.8770 C   0  0  2  0  0  0  0  0  0  0  0  0
   29.2060   26.7130   50.5310 O   0  0  0  0  0  0  0  0  0  0  0  0
   26.5970   27.8220   49.4750 O   0  0  0  0  0  0  0  0  0  0  0  0
   34.8336   29.5729   45.3139 H   0  0  0  0  0  0  0  0  0  0  0  0
   37.1531   30.9605   45.5902 H   0  0  0  0  0  0  0  0  0  0  0  0
   39.0003   32.0815   46.9005 H   0  0  0  0  0  0  0  0  0  0  0  0
   40.1206   33.1263   48.4924 H   0  0  0  0  0  0  0  0  0  0  0  0
   38.9697   34.4489   48.1722 H   0  0  0  0  0  0  0  0  0  0  0  0
   39.1152   32.5936   50.4846 H   0  0  0  0  0  0  0  0  0  0  0  0
   38.2774   34.1192   50.3965 H   0  0  0  0  0  0  0  0  0  0  0  0
   36.8197   31.8186   50.3520 H   0  0  0  0  0  0  0  0  0  0  0  0
   36.3064   33.0504   49.2492 H   0  0  0  0  0  0  0  0  0  0  0  0
   38.5655   30.6308   49.9458 H   0  0  0  0  0  0  0  0  0  0  0  0
   38.3424   29.6503   48.5975 H   0  0  0  0  0  0  0  0  0  0  0  0
   33.9427   28.4577   49.8047 H   0  0  0  0  0  0  0  0  0  0  0  0
   32.7309   29.4456   45.7629 H   0  0  0  0  0  0  0  0  0  0  0  0
   29.1537   28.5093   49.6428 H   0  0  0  0  0  0  0  0  0  0  0  0
   30.0352   25.9546   48.2612 H   0  0  0  0  0  0  0  0  0  0  0  0
   27.2567   28.2898   47.1594 H   0  0  0  0  0  0  0  0  0  0  0  0
   27.2563   26.5342   46.8240 H   0  0  0  0  0  0  0  0  0  0  0  0
   27.2803   26.0263   49.1054 H   0  0  0  0  0  0  0  0  0  0  0  0
   29.0319   27.2761   51.3264 H   0  0  0  0  0  0  0  0  0  0  0  0
   26.6803   27.7577   50.4594 H   0  0  0  0  0  0  0  0  0  0  0  0
  1 13  1  0
  1  5  2  0
  2  3  2  0
  2  1  1  0
  3  4  1  0
  4  5  1  0
  4 10  1  0
  6 10  1  0
  6  7  1  0
  7  8  1  0
  9  8  1  0
 10 11  1  1
 10  9  1  0
 12 17  2  0
 13 12  1  0
 14 15  1  0
 14 13  2  0
 15 16  2  0
 16 17  1  0
 18 23  1  0
 19 16  1  0
 19 18  1  0
 20 21  1  0
 20 19  1  0
 21 22  1  0
 22 18  1  0
 22 24  1  0
  2 25  1  0
  3 26  1  0
  6 27  1  0
  7 28  1  0
  7 29  1  0
  8 30  1  0
  8 31  1  0
  9 32  1  0
  9 33  1  0
 11 34  1  0
 11 35  1  0
 12 36  1  0
 14 37  1  0
 18 38  1  1
 19 39  1  1
 21 40  1  0
 21 41  1  0
 22 42  1  6
 23 43  1  0
 24 44  1  0
M  ISO  8  25  14  26  14  27   5  28  13  29  13  30  13  31  13  32  13
M  ISO  8  33  13  34   5  35   5  36  14  37  14  38  13  39  13  40  13
M  ISO  4  41  13  42  13  43   3  44   3
M  END
>  <minimizedAffinity>  (1) 
-6.39111042

>  <minimizedRMSD>  (1) 
0.946234763

$$$$
