
     RDKit          3D

 44 47  0  0  1  0  0  0  0  0999 V2000
   34.7880   29.7960   47.5270 C   0  0  0  0  0  0  0  0  0  0  0  0
   35.3480   29.9360   46.2430 C   0  0  0  0  0  0  0  0  0  0  0  0
   36.5470   30.6410   46.3910 C   0  0  0  0  0  0  0  0  0  0  0  0
   36.6670   30.8950   47.7070 N   0  0  0  0  0  0  0  0  0  0  0  0
   35.6240   30.3890   48.3490 N   0  0  0  0  0  0  0  0  0  0  0  0
   33.2390   28.4030   48.9090 C   0  0  0  0  0  0  0  0  0  0  0  0
   33.5280   29.1050   47.7260 C   0  0  0  0  0  0  0  0  0  0  0  0
   32.5550   29.1200   46.7290 C   0  0  0  0  0  0  0  0  0  0  0  0
   31.3920   28.4550   46.9700 N   0  0  0  0  0  0  0  0  0  0  0  0
   31.1570   27.7950   48.1190 C   0  0  0  0  0  0  0  0  0  0  0  0
   32.0900   27.7630   49.1100 N   0  0  0  0  0  0  0  0  0  0  0  0
   29.9190   27.1410   48.2640 N   0  0  0  0  0  0  0  0  0  0  0  0
   29.3600   27.0090   49.5970 C   0  0  0  0  0  0  0  0  0  0  0  0
   27.8940   27.4400   49.5600 C   0  0  0  0  0  0  0  0  0  0  0  0
   27.5960   27.9670   48.3070 O   0  0  0  0  0  0  0  0  0  0  0  0
   27.7270   27.0390   47.2820 C   0  0  0  0  0  0  0  0  0  0  0  0
   29.1730   26.5890   47.1480 C   0  0  0  0  0  0  0  0  0  0  0  0
   38.3920   32.5600   47.5410 N   0  0  0  0  0  0  0  0  0  0  0  0
   39.0860   33.4220   48.4780 C   0  0  0  0  0  0  0  0  0  0  0  0
   38.4730   33.2110   49.8440 C   0  0  0  0  0  0  0  0  0  0  0  0
   37.1890   32.4560   49.4880 C   0  0  0  0  0  0  0  0  0  0  0  0
   37.7070   31.5820   48.3740 C   0  0  1  0  0  0  0  0  0  0  0  0
   38.6260   30.6200   48.9310 N   0  0  0  0  0  0  0  0  0  0  0  0
   34.9225   29.5613   45.3003 H   0  0  0  0  0  0  0  0  0  0  0  0
   37.2486   30.9290   45.5943 H   0  0  0  0  0  0  0  0  0  0  0  0
   33.9977   28.3818   49.7052 H   0  0  0  0  0  0  0  0  0  0  0  0
   32.7208   29.6508   45.7799 H   0  0  0  0  0  0  0  0  0  0  0  0
   29.4294   25.9614   49.9251 H   0  0  0  0  0  0  0  0  0  0  0  0
   29.9187   27.6427   50.3015 H   0  0  0  0  0  0  0  0  0  0  0  0
   27.2509   26.5688   49.7536 H   0  0  0  0  0  0  0  0  0  0  0  0
   27.7176   28.2050   50.3305 H   0  0  0  0  0  0  0  0  0  0  0  0
   27.0957   26.1656   47.5024 H   0  0  0  0  0  0  0  0  0  0  0  0
   27.4128   27.5075   46.3377 H   0  0  0  0  0  0  0  0  0  0  0  0
   29.2258   25.4905   47.1703 H   0  0  0  0  0  0  0  0  0  0  0  0
   29.5958   26.9392   46.1948 H   0  0  0  0  0  0  0  0  0  0  0  0
   39.0614   32.0951   46.9112 H   0  0  0  0  0  0  0  0  0  0  0  0
   40.1547   33.1627   48.5037 H   0  0  0  0  0  0  0  0  0  0  0  0
   38.9910   34.4747   48.1734 H   0  0  0  0  0  0  0  0  0  0  0  0
   39.1281   32.6078   50.4898 H   0  0  0  0  0  0  0  0  0  0  0  0
   38.3056   34.1397   50.4092 H   0  0  0  0  0  0  0  0  0  0  0  0
   36.8157   31.8614   50.3348 H   0  0  0  0  0  0  0  0  0  0  0  0
   36.3331   33.0931   49.2204 H   0  0  0  0  0  0  0  0  0  0  0  0
   38.5857   30.6622   49.9593 H   0  0  0  0  0  0  0  0  0  0  0  0
   38.3662   29.6745   48.6157 H   0  0  0  0  0  0  0  0  0  0  0  0
  1  7  1  0
  1  5  2  0
  2  3  2  0
  2  1  1  0
  3  4  1  0
  4  5  1  0
  4 22  1  0
  6 11  2  0
  7  6  1  0
  8  9  1  0
  8  7  2  0
  9 10  2  0
 10 12  1  0
 10 11  1  0
 12 13  1  0
 14 13  1  0
 15 14  1  0
 16 15  1  0
 17 16  1  0
 17 12  1  0
 18 22  1  0
 18 19  1  0
 19 20  1  0
 21 20  1  0
 22 23  1  1
 22 21  1  0
  2 24  1  0
  3 25  1  0
  6 26  1  0
  8 27  1  0
 13 28  1  0
 13 29  1  0
 14 30  1  0
 14 31  1  0
 16 32  1  0
 16 33  1  0
 17 34  1  0
 17 35  1  0
 18 36  1  0
 19 37  1  0
 19 38  1  0
 20 39  1  0
 20 40  1  0
 21 41  1  0
 21 42  1  0
 23 43  1  0
 23 44  1  0
M  ISO  8  24  14  25  14  26  14  27  14  28  13  29  13  30  13  31  13
M  ISO  8  32  13  33  13  34  13  35  13  36   5  37  13  38  13  39  13
M  ISO  5  40  13  41  13  42  13  43   5  44   5
M  END
>  <minimizedAffinity>  (1) 
-6.2621932

>  <minimizedRMSD>  (1) 
0.517044663

$$$$
