
     RDKit          3D

 37 39  0  0  1  0  0  0  0  0999 V2000
   35.2180   30.0360   47.4870 C   0  0  0  0  0  0  0  0  0  0  0  0
   35.7840   30.1710   46.2090 C   0  0  0  0  0  0  0  0  0  0  0  0
   36.9510   30.9330   46.3560 C   0  0  0  0  0  0  0  0  0  0  0  0
   37.0370   31.2130   47.6650 N   0  0  0  0  0  0  0  0  0  0  0  0
   36.0070   30.6760   48.3160 N   0  0  0  0  0  0  0  0  0  0  0  0
   38.8610   32.7830   47.4720 N   0  0  0  0  0  0  0  0  0  0  0  0
   39.5140   33.7290   48.3570 C   0  0  0  0  0  0  0  0  0  0  0  0
   38.7290   33.7540   49.6580 C   0  0  0  0  0  0  0  0  0  0  0  0
   37.4650   32.9810   49.2880 C   0  0  0  0  0  0  0  0  0  0  0  0
   38.0350   31.9610   48.3580 C   0  0  1  0  0  0  0  0  0  0  0  0
   38.8600   31.0460   49.1170 N   0  0  0  0  0  0  0  0  0  0  0  0
   33.7170   28.5780   48.8520 C   0  0  0  0  0  0  0  0  0  0  0  0
   33.9840   29.2930   47.6860 C   0  0  0  0  0  0  0  0  0  0  0  0
   33.0070   29.2700   46.6920 C   0  0  0  0  0  0  0  0  0  0  0  0
   31.8760   28.5710   46.9110 N   0  0  0  0  0  0  0  0  0  0  0  0
   31.6530   27.8850   48.0670 C   0  0  0  0  0  0  0  0  0  0  0  0
   32.6110   27.8950   49.0640 N   0  0  0  0  0  0  0  0  0  0  0  0
   30.3510   27.1910   48.0930 C   0  0  0  0  0  0  0  0  0  0  0  0
   29.7460   27.1610   49.4800 C   0  0  0  0  0  0  0  0  0  0  0  0
   35.3867   29.7571   45.2704 H   0  0  0  0  0  0  0  0  0  0  0  0
   37.6503   31.2378   45.5635 H   0  0  0  0  0  0  0  0  0  0  0  0
   38.2760   33.2747   46.7815 H   0  0  0  0  0  0  0  0  0  0  0  0
   40.5493   33.4107   48.5491 H   0  0  0  0  0  0  0  0  0  0  0  0
   39.5416   34.7300   47.9018 H   0  0  0  0  0  0  0  0  0  0  0  0
   39.2810   33.2522   50.4664 H   0  0  0  0  0  0  0  0  0  0  0  0
   38.5314   34.7684   50.0347 H   0  0  0  0  0  0  0  0  0  0  0  0
   37.0017   32.5136   50.1694 H   0  0  0  0  0  0  0  0  0  0  0  0
   36.6601   33.5954   48.8583 H   0  0  0  0  0  0  0  0  0  0  0  0
   38.7147   31.2072   50.1239 H   0  0  0  0  0  0  0  0  0  0  0  0
   38.6017   30.0766   48.8837 H   0  0  0  0  0  0  0  0  0  0  0  0
   34.4784   28.5845   49.6458 H   0  0  0  0  0  0  0  0  0  0  0  0
   33.1565   29.8122   45.7467 H   0  0  0  0  0  0  0  0  0  0  0  0
   29.6584   27.7121   47.4157 H   0  0  0  0  0  0  0  0  0  0  0  0
   30.5165   26.1512   47.7745 H   0  0  0  0  0  0  0  0  0  0  0  0
   30.5487   27.2008   50.2311 H   0  0  0  0  0  0  0  0  0  0  0  0
   29.0803   28.0272   49.6085 H   0  0  0  0  0  0  0  0  0  0  0  0
   29.1693   26.2332   49.6085 H   0  0  0  0  0  0  0  0  0  0  0  0
  1 13  1  0
  1  5  2  0
  2  3  2  0
  2  1  1  0
  3  4  1  0
  4  5  1  0
  4 10  1  0
  6  7  1  0
  6 10  1  0
  7  8  1  0
  9  8  1  0
 10 11  1  1
 10  9  1  0
 12 17  2  0
 13 12  1  0
 14 15  1  0
 14 13  2  0
 15 16  2  0
 16 18  1  0
 16 17  1  0
 18 19  1  0
  2 20  1  0
  3 21  1  0
  6 22  1  0
  7 23  1  0
  7 24  1  0
  8 25  1  0
  8 26  1  0
  9 27  1  0
  9 28  1  0
 11 29  1  0
 11 30  1  0
 12 31  1  0
 14 32  1  0
 18 33  1  0
 18 34  1  0
 19 35  1  0
 19 36  1  0
 19 37  1  0
M  ISO  8  20  14  21  14  22   5  23  13  24  13  25  13  26  13  27  13
M  ISO  8  28  13  29   5  30   5  31  14  32  14  33   8  34   8  35   8
M  ISO  2  36   8  37   8
M  END
>  <minimizedAffinity>  (1) 
-5.12115526

>  <minimizedRMSD>  (1) 
0.20968318

$$$$
