
     RDKit          3D

 12 12  0  0  0  0  0  0  0  0999 V2000
   37.6200   30.3940   49.7040 C   0  0  0  0  0  0  0  0  0  0  0  0
   38.3230   31.5920   49.9060 C   0  0  0  0  0  0  0  0  0  0  0  0
   38.5730   32.4130   48.7940 C   0  0  0  0  0  0  0  0  0  0  0  0
   38.1100   31.9870   47.5740 N   0  0  0  0  0  0  0  0  0  0  0  0
   37.4410   30.8310   47.4220 C   0  0  0  0  0  0  0  0  0  0  0  0
   37.1990   30.0400   48.4860 N   0  0  0  0  0  0  0  0  0  0  0  0
   37.3750   29.5600   50.8740 C   0  0  0  0  0  0  0  0  0  0  0  0
   37.4130   30.0150   52.0500 O   0  0  0  0  0  0  0  0  0  0  0  0
   38.6693   31.8805   50.9094 H   0  0  0  0  0  0  0  0  0  0  0  0
   39.1195   33.3621   48.8970 H   0  0  0  0  0  0  0  0  0  0  0  0
   37.0894   30.5292   46.4244 H   0  0  0  0  0  0  0  0  0  0  0  0
   37.1485   28.4938   50.7260 H   0  0  0  0  0  0  0  0  0  0  0  0
  1  2  2  0
  1  7  1  0
  3  2  1  0
  4  3  2  0
  5  4  1  0
  5  6  2  0
  6  1  1  0
  7  8  2  0
  2  9  1  0
  3 10  1  0
  5 11  1  0
  7 12  1  0
M  ISO  4   9  14  10  14  11  14  12   6
M  END
>  <minimizedAffinity>  (1) 
-3.31107998

>  <minimizedRMSD>  (1) 
2.47070193

$$$$
