
     RDKit          3D

 14 14  0  0  0  0  0  0  0  0999 V2000
   37.3250   29.8820   51.0460 C   0  0  0  0  0  0  0  0  0  0  0  0
   38.1010   30.9310   50.5450 C   0  0  0  0  0  0  0  0  0  0  0  0
   37.6100   31.5910   49.4250 C   0  0  0  0  0  0  0  0  0  0  0  0
   36.4290   31.2160   48.8640 N   0  0  0  0  0  0  0  0  0  0  0  0
   35.7130   30.1920   49.3880 C   0  0  0  0  0  0  0  0  0  0  0  0
   36.1480   29.5310   50.4610 N   0  0  0  0  0  0  0  0  0  0  0  0
   38.4020   32.6930   48.8790 C   0  0  0  0  0  0  0  0  0  0  0  0
   38.9890   33.5720   49.5660 O   0  0  0  0  0  0  0  0  0  0  0  0
   38.5010   32.7510   47.4450 N   0  0  0  0  0  0  0  0  0  0  0  0
   37.6729   29.3292   51.9310 H   0  0  0  0  0  0  0  0  0  0  0  0
   39.0532   31.2198   51.0140 H   0  0  0  0  0  0  0  0  0  0  0  0
   34.7598   29.9021   48.9218 H   0  0  0  0  0  0  0  0  0  0  0  0
   39.0441   33.5024   46.9962 H   0  0  0  0  0  0  0  0  0  0  0  0
   38.0288   32.0412   46.8670 H   0  0  0  0  0  0  0  0  0  0  0  0
  2  1  2  0
  3  2  1  0
  4  5  1  0
  4  3  2  0
  5  6  2  0
  6  1  1  0
  7  3  1  0
  7  8  2  0
  9  7  1  0
  1 10  1  0
  2 11  1  0
  5 12  1  0
  9 13  1  0
  9 14  1  0
M  ISO  3  10  14  11  14  12  14
M  END
>  <minimizedAffinity>  (1) 
-3.8066721

>  <minimizedRMSD>  (1) 
1.65630269

$$$$
