
     RDKit          3D

 31 33  0  0  1  0  0  0  0  0999 V2000
   39.9060   31.8710   45.5200 C   0  0  0  0  0  0  0  0  0  0  0  0
   39.6900   32.8530   44.4210 C   0  0  0  0  0  0  0  0  0  0  0  0
   39.1940   32.1660   43.2690 N   0  0  0  0  0  0  0  0  0  0  0  0
   39.0580   31.7400   41.9220 C   0  0  0  0  0  0  0  0  0  0  0  0
   39.3810   32.1080   40.7400 O   0  0  0  0  0  0  0  0  0  0  0  0
   38.3010   30.5360   42.3560 C   0  0  2  0  0  0  0  0  0  0  0  0
   38.1010   31.3190   43.6060 C   0  0  1  0  0  0  0  0  0  0  0  0
   38.7500   30.5050   45.1170 S   0  0  0  0  0  0  0  0  0  0  0  0
   39.2750   29.3990   42.4270 C   0  0  0  0  0  0  0  0  0  0  0  0
   40.5020   29.6100   42.3420 O   0  0  0  0  0  0  0  0  0  0  0  0
   38.9240   25.7120   42.9810 C   0  0  0  0  0  0  0  0  0  0  0  0
   39.5230   26.9670   42.8210 C   0  0  0  0  0  0  0  0  0  0  0  0
   38.7010   28.0740   42.5990 C   0  0  0  0  0  0  0  0  0  0  0  0
   37.3490   27.8500   42.5530 N   0  0  0  0  0  0  0  0  0  0  0  0
   36.8180   26.6350   42.7100 C   0  0  0  0  0  0  0  0  0  0  0  0
   37.5880   25.5680   42.9220 N   0  0  0  0  0  0  0  0  0  0  0  0
   41.3040   31.4160   45.7340 C   0  0  0  0  0  0  0  0  0  0  0  0
   39.2950   32.5070   46.7760 C   0  0  0  0  0  0  0  0  0  0  0  0
   38.9587   33.6095   44.7417 H   0  0  0  0  0  0  0  0  0  0  0  0
   40.6408   33.3488   44.1755 H   0  0  0  0  0  0  0  0  0  0  0  0
   37.4459   30.0543   41.8592 H   0  0  0  0  0  0  0  0  0  0  0  0
   37.0660   31.6276   43.8146 H   0  0  0  0  0  0  0  0  0  0  0  0
   39.5561   24.8293   43.1578 H   0  0  0  0  0  0  0  0  0  0  0  0
   40.6163   27.0788   42.8690 H   0  0  0  0  0  0  0  0  0  0  0  0
   35.7258   26.5125   42.6636 H   0  0  0  0  0  0  0  0  0  0  0  0
   41.5070   31.3499   46.8131 H   0  0  0  0  0  0  0  0  0  0  0  0
   41.4421   30.4265   45.2737 H   0  0  0  0  0  0  0  0  0  0  0  0
   41.9980   32.1346   45.2737 H   0  0  0  0  0  0  0  0  0  0  0  0
   39.7370   32.0469   47.6720 H   0  0  0  0  0  0  0  0  0  0  0  0
   39.5027   33.5872   46.7781 H   0  0  0  0  0  0  0  0  0  0  0  0
   38.2073   32.3428   46.7781 H   0  0  0  0  0  0  0  0  0  0  0  0
  1 17  1  0
  1 18  1  0
  2  1  1  0
  3  7  1  0
  3  2  1  0
  4  6  1  0
  4  3  1  0
  5  4  2  0
  6  9  1  0
  6  7  1  0
  7  8  1  0
  8  1  1  0
  9 13  1  0
 10  9  2  0
 12 11  2  0
 13 12  1  0
 14 13  2  0
 14 15  1  0
 15 16  2  0
 16 11  1  0
  2 19  1  0
  2 20  1  0
  6 21  1  6
  7 22  1  1
 11 23  1  0
 12 24  1  0
 15 25  1  0
 17 26  1  0
 17 27  1  0
 17 28  1  0
 18 29  1  0
 18 30  1  0
 18 31  1  0
M  ISO  8  19  13  20  13  21  13  22  13  23  14  24  14  25  14  26   8
M  ISO  5  27   8  28   8  29   8  30   8  31   8
M  END
>  <minimizedAffinity>  (1) 
-3.68049121

>  <minimizedRMSD>  (1) 
5.73918343

$$$$
