
     RDKit          3D

 32 34  0  0  1  0  0  0  0  0999 V2000
   38.3440   32.0710   46.7520 C   0  0  2  0  0  0  0  0  0  0  0  0
   39.6500   31.2550   46.4000 C   0  0  0  0  0  0  0  0  0  0  0  0
   39.3630   32.6230   45.8700 C   0  0  1  0  0  0  0  0  0  0  0  0
   37.9210   32.0840   43.9380 C   0  0  2  0  0  0  0  0  0  0  0  0
   39.1420   32.7750   44.4190 C   0  0  2  0  0  0  0  0  0  0  0  0
   40.1930   32.3520   43.6220 O   0  0  0  0  0  0  0  0  0  0  0  0
   39.6750   32.0310   42.3810 C   0  0  0  0  0  0  0  0  0  0  0  0
   38.1720   32.0900   42.4260 C   0  0  2  0  0  0  0  0  0  0  0  0
   36.7650   32.7880   44.2450 O   0  0  0  0  0  0  0  0  0  0  0  0
   37.6780   33.2800   41.9330 O   0  0  0  0  0  0  0  0  0  0  0  0
   38.3320   32.3430   48.2200 C   0  0  0  0  0  0  0  0  0  0  0  0
   39.0010   33.3510   48.6400 O   0  0  0  0  0  0  0  0  0  0  0  0
   37.4490   30.1830   51.1380 C   0  0  0  0  0  0  0  0  0  0  0  0
   38.1500   31.0440   50.3080 C   0  0  0  0  0  0  0  0  0  0  0  0
   37.5900   31.4720   49.0990 C   0  0  0  0  0  0  0  0  0  0  0  0
   36.3740   31.0200   48.7920 N   0  0  0  0  0  0  0  0  0  0  0  0
   35.7050   30.1740   49.6290 C   0  0  0  0  0  0  0  0  0  0  0  0
   36.2210   29.7540   50.7850 N   0  0  0  0  0  0  0  0  0  0  0  0
   37.2501   32.0388   46.6405 H   0  0  0  0  0  0  0  0  0  0  0  0
   40.4342   31.1009   47.1558 H   0  0  0  0  0  0  0  0  0  0  0  0
   39.8838   30.2676   45.9754 H   0  0  0  0  0  0  0  0  0  0  0  0
   39.8945   33.5859   45.8887 H   0  0  0  0  0  0  0  0  0  0  0  0
   37.7645   31.0916   44.3859 H   0  0  0  0  0  0  0  0  0  0  0  0
   39.0357   33.8649   44.3147 H   0  0  0  0  0  0  0  0  0  0  0  0
   39.9926   31.0148   42.1043 H   0  0  0  0  0  0  0  0  0  0  0  0
   40.0449   32.7504   41.6356 H   0  0  0  0  0  0  0  0  0  0  0  0
   37.7043   31.2863   41.8383 H   0  0  0  0  0  0  0  0  0  0  0  0
   36.6665   32.8480   45.2283 H   0  0  0  0  0  0  0  0  0  0  0  0
   37.4319   33.8727   42.6868 H   0  0  0  0  0  0  0  0  0  0  0  0
   37.8957   29.8494   52.0862 H   0  0  0  0  0  0  0  0  0  0  0  0
   39.1513   31.3925   50.6011 H   0  0  0  0  0  0  0  0  0  0  0  0
   34.7027   29.8256   49.3391 H   0  0  0  0  0  0  0  0  0  0  0  0
  1 11  1  0
  2  1  1  0
  3  2  1  0
  3  1  1  0
  4  9  1  0
  4  5  1  0
  5  6  1  0
  5  3  1  0
  7  8  1  0
  7  6  1  0
  8 10  1  0
  8  4  1  0
 11 12  2  0
 11 15  1  0
 14 13  2  0
 15 14  1  0
 16 15  2  0
 16 17  1  0
 17 18  2  0
 18 13  1  0
  1 19  1  6
  2 20  1  0
  2 21  1  0
  3 22  1  1
  4 23  1  1
  5 24  1  1
  7 25  1  0
  7 26  1  0
  8 27  1  6
  9 28  1  0
 10 29  1  0
 13 30  1  0
 14 31  1  0
 17 32  1  0
M  ISO  8  19  13  20  13  21  13  22  13  23  13  24  13  25  13  26  13
M  ISO  6  27  13  28   3  29   3  30  14  31  14  32  14
M  END
>  <minimizedAffinity>  (1) 
-5.9431262

>  <minimizedRMSD>  (1) 
0.822198868

$$$$
