
     RDKit          3D

 31 33  0  0  1  0  0  0  0  0999 V2000
   37.8040   31.5370   47.1560 C   0  0  2  0  0  0  0  0  0  0  0  0
   39.3260   31.1990   46.9190 C   0  0  0  0  0  0  0  0  0  0  0  0
   38.5930   32.3380   46.2320 C   0  0  1  0  0  0  0  0  0  0  0  0
   36.3440   30.7220   44.8410 Cl  0  0  0  0  0  0  0  0  0  0  0  0
   37.4950   31.6650   43.9650 C   0  0  0  0  0  0  0  0  0  0  0  0
   38.4160   32.3130   44.7610 C   0  0  0  0  0  0  0  0  0  0  0  0
   39.3810   33.1000   44.1340 C   0  0  0  0  0  0  0  0  0  0  0  0
   39.4210   33.2300   42.7510 C   0  0  0  0  0  0  0  0  0  0  0  0
   38.5090   32.5850   41.9730 C   0  0  0  0  0  0  0  0  0  0  0  0
   37.5670   31.8170   42.5960 C   0  0  0  0  0  0  0  0  0  0  0  0
   37.6360   31.9730   48.5790 C   0  0  0  0  0  0  0  0  0  0  0  0
   38.0600   33.1410   48.9080 O   0  0  0  0  0  0  0  0  0  0  0  0
   37.1120   29.8180   51.5950 C   0  0  0  0  0  0  0  0  0  0  0  0
   37.6660   30.6920   50.6750 C   0  0  0  0  0  0  0  0  0  0  0  0
   37.0180   31.0800   49.5270 C   0  0  0  0  0  0  0  0  0  0  0  0
   35.8050   30.5590   49.3430 N   0  0  0  0  0  0  0  0  0  0  0  0
   35.2510   29.7050   50.2320 C   0  0  0  0  0  0  0  0  0  0  0  0
   35.8830   29.3270   51.3520 N   0  0  0  0  0  0  0  0  0  0  0  0
   36.8065   31.0886   47.0381 H   0  0  0  0  0  0  0  0  0  0  0  0
   40.0738   31.4034   47.6994 H   0  0  0  0  0  0  0  0  0  0  0  0
   39.9119   30.3215   46.6082 H   0  0  0  0  0  0  0  0  0  0  0  0
   38.7407   33.4252   46.1539 H   0  0  0  0  0  0  0  0  0  0  0  0
   40.1260   33.6289   44.7466 H   0  0  0  0  0  0  0  0  0  0  0  0
   40.1936   33.8574   42.2825 H   0  0  0  0  0  0  0  0  0  0  0  0
   38.5301   32.6794   40.8773 H   0  0  0  0  0  0  0  0  0  0  0  0
   36.8272   31.2923   41.9736 H   0  0  0  0  0  0  0  0  0  0  0  0
   38.6195   31.5465   48.8258 H   0  0  0  0  0  0  0  0  0  0  0  0
   38.0873   33.2163   49.8948 H   0  0  0  0  0  0  0  0  0  0  0  0
   37.6634   29.5319   52.5028 H   0  0  0  0  0  0  0  0  0  0  0  0
   38.6707   31.0941   50.8721 H   0  0  0  0  0  0  0  0  0  0  0  0
   34.2461   29.3061   50.0293 H   0  0  0  0  0  0  0  0  0  0  0  0
  1 11  1  0
  2  1  1  0
  3  2  1  0
  3  1  1  0
  5  6  2  0
  5  4  1  0
  6  3  1  0
  7  6  1  0
  8  7  2  0
  9 10  2  0
  9  8  1  0
 10  5  1  0
 11 12  1  0
 11 15  1  0
 14 13  2  0
 15 14  1  0
 16 15  2  0
 16 17  1  0
 17 18  2  0
 18 13  1  0
  1 19  1  6
  2 20  1  0
  2 21  1  0
  3 22  1  1
  7 23  1  0
  8 24  1  0
  9 25  1  0
 10 26  1  0
 11 27  1  0
 12 28  1  0
 13 29  1  0
 14 30  1  0
 17 31  1  0
M  ISO  8  19  13  20  13  21  13  22  13  23  14  24  14  25  14  26  14
M  ISO  5  27   8  28   3  29  14  30  14  31  14
M  END
>  <minimizedAffinity>  (1) 
-5.33227348

>  <minimizedRMSD>  (1) 
1.25296485

$$$$
