
     RDKit          3D

 29 31  0  0  1  0  0  0  0  0999 V2000
   37.2600   30.6860   46.5770 C   0  0  2  0  0  0  0  0  0  0  0  0
   38.7090   30.5190   45.9780 C   0  0  0  0  0  0  0  0  0  0  0  0
   38.0240   31.8480   46.1480 C   0  0  2  0  0  0  0  0  0  0  0  0
   38.6810   32.7340   47.1410 C   0  0  0  0  0  0  0  0  0  0  0  0
   38.0180   32.8790   48.3580 C   0  0  0  0  0  0  0  0  0  0  0  0
   38.4470   33.6660   49.4180 C   0  0  0  0  0  0  0  0  0  0  0  0
   39.6170   34.3660   49.2700 C   0  0  0  0  0  0  0  0  0  0  0  0
   40.2990   34.2450   48.0780 C   0  0  0  0  0  0  0  0  0  0  0  0
   39.8480   33.4560   47.0440 C   0  0  0  0  0  0  0  0  0  0  0  0
   37.2460   30.2090   47.9860 C   0  0  0  0  0  0  0  0  0  0  0  0
   38.3580   30.2280   48.6160 O   0  0  0  0  0  0  0  0  0  0  0  0
   34.6770   29.2940   50.5410 C   0  0  0  0  0  0  0  0  0  0  0  0
   35.8490   29.7640   49.9630 C   0  0  0  0  0  0  0  0  0  0  0  0
   36.0120   29.7500   48.5750 C   0  0  0  0  0  0  0  0  0  0  0  0
   35.0050   29.2700   47.8440 N   0  0  0  0  0  0  0  0  0  0  0  0
   33.8630   28.8130   48.4370 C   0  0  0  0  0  0  0  0  0  0  0  0
   33.6930   28.8210   49.7470 N   0  0  0  0  0  0  0  0  0  0  0  0
   36.2128   30.4145   46.3781 H   0  0  0  0  0  0  0  0  0  0  0  0
   38.8546   30.0882   44.9764 H   0  0  0  0  0  0  0  0  0  0  0  0
   39.6576   30.0626   46.2971 H   0  0  0  0  0  0  0  0  0  0  0  0
   37.7368   32.6834   45.4926 H   0  0  0  0  0  0  0  0  0  0  0  0
   37.0773   32.3242   48.4896 H   0  0  0  0  0  0  0  0  0  0  0  0
   37.8653   33.7264   50.3497 H   0  0  0  0  0  0  0  0  0  0  0  0
   40.0002   35.0054   50.0789 H   0  0  0  0  0  0  0  0  0  0  0  0
   41.2397   34.8002   47.9482 H   0  0  0  0  0  0  0  0  0  0  0  0
   40.4361   33.4014   46.1160 H   0  0  0  0  0  0  0  0  0  0  0  0
   34.5518   29.3070   51.6338 H   0  0  0  0  0  0  0  0  0  0  0  0
   36.6558   30.1506   50.6030 H   0  0  0  0  0  0  0  0  0  0  0  0
   33.0548   28.4238   47.8004 H   0  0  0  0  0  0  0  0  0  0  0  0
  1 10  1  0
  2  3  1  0
  2  1  1  0
  3  1  1  0
  3  4  1  0
  4  5  2  0
  5  6  1  0
  7  6  2  0
  8  7  1  0
  9  4  1  0
  9  8  2  0
 10 14  1  0
 10 11  2  0
 13 12  2  0
 14 13  1  0
 15 16  1  0
 15 14  2  0
 16 17  2  0
 17 12  1  0
  1 18  1  6
  2 19  1  0
  2 20  1  0
  3 21  1  6
  5 22  1  0
  6 23  1  0
  7 24  1  0
  8 25  1  0
  9 26  1  0
 12 27  1  0
 13 28  1  0
 16 29  1  0
M  ISO  8  18  13  19  13  20  13  21  13  22  14  23  14  24  14  25  14
M  ISO  4  26  14  27  14  28  14  29  14
M  END
>  <minimizedAffinity>  (1) 
-4.74436855

>  <minimizedRMSD>  (1) 
2.65675807

$$$$
