
     RDKit          3D

 22 23  0  0  1  0  0  0  0  0999 V2000
   38.1620   32.2480   48.2170 C   0  0  0  0  0  0  0  0  0  0  0  0
   38.9000   33.2370   48.5600 O   0  0  0  0  0  0  0  0  0  0  0  0
   37.5310   30.1650   51.2620 C   0  0  0  0  0  0  0  0  0  0  0  0
   38.1210   31.0040   50.3350 C   0  0  0  0  0  0  0  0  0  0  0  0
   37.4930   31.3960   49.1710 C   0  0  0  0  0  0  0  0  0  0  0  0
   36.2680   30.9190   48.9790 N   0  0  0  0  0  0  0  0  0  0  0  0
   35.6780   30.0920   49.8880 C   0  0  0  0  0  0  0  0  0  0  0  0
   36.2840   29.7130   51.0120 N   0  0  0  0  0  0  0  0  0  0  0  0
   38.0050   31.9740   46.7550 C   0  0  2  0  0  0  0  0  0  0  0  0
   39.1170   30.9520   46.3100 C   0  0  0  0  0  0  0  0  0  0  0  0
   39.0060   32.3770   45.7880 C   0  0  2  0  0  0  0  0  0  0  0  0
   40.1970   33.2320   46.1860 C   0  0  0  0  0  0  0  0  0  0  0  0
   38.0638   29.8735   52.1791 H   0  0  0  0  0  0  0  0  0  0  0  0
   39.1369   31.3757   50.5346 H   0  0  0  0  0  0  0  0  0  0  0  0
   34.6617   29.7232   49.6853 H   0  0  0  0  0  0  0  0  0  0  0  0
   36.9137   32.1104   46.7351 H   0  0  0  0  0  0  0  0  0  0  0  0
   39.9263   30.6679   46.9987 H   0  0  0  0  0  0  0  0  0  0  0  0
   39.1501   29.9405   45.8789 H   0  0  0  0  0  0  0  0  0  0  0  0
   38.8791   32.8752   44.8155 H   0  0  0  0  0  0  0  0  0  0  0  0
   40.2637   33.2799   47.2829 H   0  0  0  0  0  0  0  0  0  0  0  0
   41.1186   32.7880   45.7816 H   0  0  0  0  0  0  0  0  0  0  0  0
   40.0710   34.2472   45.7816 H   0  0  0  0  0  0  0  0  0  0  0  0
  1  2  2  0
  1  5  1  0
  4  3  2  0
  5  4  1  0
  6  5  2  0
  6  7  1  0
  7  8  2  0
  8  3  1  0
  9  1  1  0
 10  9  1  0
 11 12  1  0
 11 10  1  0
 11  9  1  0
  3 13  1  0
  4 14  1  0
  7 15  1  0
  9 16  1  6
 10 17  1  0
 10 18  1  0
 11 19  1  6
 12 20  1  0
 12 21  1  0
 12 22  1  0
M  ISO  8  13  14  14  14  15  14  16  13  17  13  18  13  19  13  20   8
M  ISO  2  21   8  22   8
M  END
>  <minimizedAffinity>  (1) 
-4.58430529

>  <minimizedRMSD>  (1) 
0.494109243

$$$$
