
     RDKit          3D

 33 36  0  0  1  0  0  0  0  0999 V2000
   34.3440   30.3130   44.9900 C   0  0  2  0  0  0  0  0  0  0  0  0
   34.1560   29.9200   43.4720 C   0  0  0  0  0  0  0  0  0  0  0  0
   35.3390   30.7010   44.0190 C   0  0  2  0  0  0  0  0  0  0  0  0
   36.6160   29.9780   43.8480 C   0  0  0  0  0  0  0  0  0  0  0  0
   37.0510   28.9180   43.1730 N   0  0  0  0  0  0  0  0  0  0  0  0
   38.2890   28.4550   43.2200 C   0  0  0  0  0  0  0  0  0  0  0  0
   39.2240   29.0270   43.9680 N   0  0  0  0  0  0  0  0  0  0  0  0
   38.9090   30.1080   44.6970 C   0  0  0  0  0  0  0  0  0  0  0  0
   39.9400   30.6360   45.4380 C   0  0  0  0  0  0  0  0  0  0  0  0
   39.6540   31.7490   46.1970 C   0  0  0  0  0  0  0  0  0  0  0  0
   38.3930   32.3010   46.2110 C   0  0  0  0  0  0  0  0  0  0  0  0
   37.4260   31.7030   45.4380 C   0  0  0  0  0  0  0  0  0  0  0  0
   37.6050   30.5740   44.6300 C   0  0  0  0  0  0  0  0  0  0  0  0
   34.3990   29.0910   45.8280 C   0  0  0  0  0  0  0  0  0  0  0  0
   34.2290   27.9960   45.2340 O   0  0  0  0  0  0  0  0  0  0  0  0
   34.5370   28.2610   49.4640 C   0  0  0  0  0  0  0  0  0  0  0  0
   34.3510   28.1450   48.0950 C   0  0  0  0  0  0  0  0  0  0  0  0
   34.6290   29.2220   47.2460 C   0  0  0  0  0  0  0  0  0  0  0  0
   35.0760   30.3390   47.8210 N   0  0  0  0  0  0  0  0  0  0  0  0
   35.2530   30.4320   49.1650 C   0  0  0  0  0  0  0  0  0  0  0  0
   34.9930   29.4160   49.9920 N   0  0  0  0  0  0  0  0  0  0  0  0
   33.8892   30.9152   45.7903 H   0  0  0  0  0  0  0  0  0  0  0  0
   33.3931   30.4153   42.8535 H   0  0  0  0  0  0  0  0  0  0  0  0
   34.0007   28.9968   42.8945 H   0  0  0  0  0  0  0  0  0  0  0  0
   35.8060   31.6852   43.8666 H   0  0  0  0  0  0  0  0  0  0  0  0
   38.5512   27.5700   42.6216 H   0  0  0  0  0  0  0  0  0  0  0  0
   40.9456   30.1905   45.4251 H   0  0  0  0  0  0  0  0  0  0  0  0
   40.4492   32.2061   46.8043 H   0  0  0  0  0  0  0  0  0  0  0  0
   38.1670   33.1893   46.8192 H   0  0  0  0  0  0  0  0  0  0  0  0
   36.4219   32.1518   45.4561 H   0  0  0  0  0  0  0  0  0  0  0  0
   34.3121   27.4086   50.1219 H   0  0  0  0  0  0  0  0  0  0  0  0
   33.9819   27.1987   47.6728 H   0  0  0  0  0  0  0  0  0  0  0  0
   35.6237   31.3778   49.5870 H   0  0  0  0  0  0  0  0  0  0  0  0
  1 14  1  0
  2  3  1  0
  2  1  1  0
  3  1  1  0
  4  3  1  0
  4 13  2  0
  5  6  2  0
  5  4  1  0
  6  7  1  0
  7  8  2  0
  8  9  1  0
  9 10  2  0
 10 11  1  0
 12 11  2  0
 13  8  1  0
 13 12  1  0
 14 18  1  0
 15 14  2  0
 16 21  2  0
 17 16  1  0
 18 19  1  0
 18 17  2  0
 19 20  2  0
 20 21  1  0
  1 22  1  1
  2 23  1  0
  2 24  1  0
  3 25  1  6
  6 26  1  0
  9 27  1  0
 10 28  1  0
 11 29  1  0
 12 30  1  0
 16 31  1  0
 17 32  1  0
 20 33  1  0
M  ISO  8  22  13  23  13  24  13  25  13  26  14  27  14  28  14  29  14
M  ISO  4  30  14  31  14  32  14  33  14
M  END
>  <minimizedAffinity>  (1) 
-4.49914408

>  <minimizedRMSD>  (1) 
5.64153242

$$$$
