
     RDKit          3D

 32 34  0  0  1  0  0  0  0  0999 V2000
   36.3350   30.9320   46.9720 C   0  0  2  0  0  0  0  0  0  0  0  0
   36.8270   29.4920   46.5670 C   0  0  0  0  0  0  0  0  0  0  0  0
   37.0030   30.7260   45.7120 C   0  0  2  0  0  0  0  0  0  0  0  0
   38.6600   31.4480   44.0040 C   0  0  0  0  0  0  0  0  0  0  0  0
   38.3680   31.0390   45.3130 C   0  0  0  0  0  0  0  0  0  0  0  0
   39.4940   30.9500   46.1070 C   0  0  0  0  0  0  0  0  0  0  0  0
   40.7810   31.2260   45.6950 C   0  0  0  0  0  0  0  0  0  0  0  0
   40.9440   31.6210   44.3830 C   0  0  0  0  0  0  0  0  0  0  0  0
   39.9030   31.7480   43.4890 C   0  0  0  0  0  0  0  0  0  0  0  0
   37.2790   31.5940   42.9060 S   0  0  0  0  0  0  0  0  0  0  0  0
   36.3640   32.7060   43.3720 O   0  0  0  0  0  0  0  0  0  0  0  0
   36.5360   30.3000   42.7900 O   0  0  0  0  0  0  0  0  0  0  0  0
   36.9990   31.4000   48.2100 C   0  0  0  0  0  0  0  0  0  0  0  0
   37.7620   32.3930   48.0790 O   0  0  0  0  0  0  0  0  0  0  0  0
   37.5390   30.0540   51.6510 C   0  0  0  0  0  0  0  0  0  0  0  0
   37.7270   30.7300   50.4530 C   0  0  0  0  0  0  0  0  0  0  0  0
   36.7530   30.7140   49.4510 C   0  0  0  0  0  0  0  0  0  0  0  0
   35.6470   30.0220   49.7090 N   0  0  0  0  0  0  0  0  0  0  0  0
   35.4740   29.3660   50.8850 C   0  0  0  0  0  0  0  0  0  0  0  0
   36.3930   29.3690   51.8550 N   0  0  0  0  0  0  0  0  0  0  0  0
   35.4135   31.4899   47.1944 H   0  0  0  0  0  0  0  0  0  0  0  0
   37.6888   29.0304   47.0712 H   0  0  0  0  0  0  0  0  0  0  0  0
   36.3797   28.4936   46.4528 H   0  0  0  0  0  0  0  0  0  0  0  0
   36.7013   31.1131   44.7275 H   0  0  0  0  0  0  0  0  0  0  0  0
   39.3535   30.6338   47.1512 H   0  0  0  0  0  0  0  0  0  0  0  0
   41.6370   31.1355   46.3799 H   0  0  0  0  0  0  0  0  0  0  0  0
   41.9614   31.8471   44.0311 H   0  0  0  0  0  0  0  0  0  0  0  0
   40.0522   32.0640   42.4460 H   0  0  0  0  0  0  0  0  0  0  0  0
   37.7499   31.9057   41.6578 H   0  0  0  0  0  0  0  0  0  0  0  0
   38.3173   30.0761   52.4280 H   0  0  0  0  0  0  0  0  0  0  0  0
   38.6603   31.2888   50.2894 H   0  0  0  0  0  0  0  0  0  0  0  0
   34.5390   28.8092   51.0459 H   0  0  0  0  0  0  0  0  0  0  0  0
  1 13  1  0
  2  1  1  0
  3  2  1  0
  3  1  1  0
  4  5  2  0
  5  3  1  0
  5  6  1  0
  7  6  2  0
  8  7  1  0
  9  4  1  0
  9  8  2  0
 10 11  2  0
 10  4  1  0
 12 10  2  0
 13 17  1  0
 14 13  2  0
 15 20  2  0
 16 15  1  0
 17 18  1  0
 17 16  2  0
 18 19  2  0
 19 20  1  0
  1 21  1  6
  2 22  1  0
  2 23  1  0
  3 24  1  6
  6 25  1  0
  7 26  1  0
  8 27  1  0
  9 28  1  0
 10 29  1  0
 15 30  1  0
 16 31  1  0
 19 32  1  0
M  ISO  8  21  13  22  13  23  13  24  13  25  14  26  14  27  14  28  14
M  ISO  4  29  11  30  14  31  14  32  14
M  END
>  <minimizedAffinity>  (1) 
-3.91165113

>  <minimizedRMSD>  (1) 
3.39061069

$$$$
