
     RDKit          3D

 31 33  0  0  1  0  0  0  0  0999 V2000
   37.9800   32.0210   47.2410 C   0  0  2  0  0  0  0  0  0  0  0  0
   38.3360   30.5540   47.0340 C   0  0  0  0  0  0  0  0  0  0  0  0
   39.2920   31.6870   46.6410 C   0  0  1  0  0  0  0  0  0  0  0  0
   39.5110   31.7860   45.1880 C   0  0  0  0  0  0  0  0  0  0  0  0
   38.9860   32.8510   44.4600 C   0  0  0  0  0  0  0  0  0  0  0  0
   39.2100   32.8840   43.1000 C   0  0  0  0  0  0  0  0  0  0  0  0
   39.9360   31.8950   42.4530 C   0  0  0  0  0  0  0  0  0  0  0  0
   40.4400   30.8500   43.2220 C   0  0  0  0  0  0  0  0  0  0  0  0
   40.2160   30.8300   44.5400 N   0  0  0  0  0  0  0  0  0  0  0  0
   37.8910   32.3640   48.6980 C   0  0  0  0  0  0  0  0  0  0  0  0
   38.2510   33.5150   49.0680 O   0  0  0  0  0  0  0  0  0  0  0  0
   37.5880   29.9690   51.5530 C   0  0  0  0  0  0  0  0  0  0  0  0
   38.1260   30.9350   50.6990 C   0  0  0  0  0  0  0  0  0  0  0  0
   37.3810   31.3560   49.6200 C   0  0  0  0  0  0  0  0  0  0  0  0
   36.1600   30.8050   49.4490 N   0  0  0  0  0  0  0  0  0  0  0  0
   35.6700   29.8700   50.2950 C   0  0  0  0  0  0  0  0  0  0  0  0
   36.3630   29.4470   51.3400 N   0  0  0  0  0  0  0  0  0  0  0  0
   34.3100   29.4100   49.9050 C   0  0  0  0  0  0  0  0  0  0  0  0
   33.3350   29.7470   50.8000 F   0  0  0  0  0  0  0  0  0  0  0  0
   33.9780   29.9470   48.6580 F   0  0  0  0  0  0  0  0  0  0  0  0
   34.3340   28.0270   49.7160 F   0  0  0  0  0  0  0  0  0  0  0  0
   37.1991   32.7278   46.9238 H   0  0  0  0  0  0  0  0  0  0  0  0
   38.5624   29.9101   47.8966 H   0  0  0  0  0  0  0  0  0  0  0  0
   37.8775   29.6946   46.5229 H   0  0  0  0  0  0  0  0  0  0  0  0
   40.3113   32.0211   46.8846 H   0  0  0  0  0  0  0  0  0  0  0  0
   38.4082   33.6444   44.9567 H   0  0  0  0  0  0  0  0  0  0  0  0
   38.8013   33.7185   42.5113 H   0  0  0  0  0  0  0  0  0  0  0  0
   40.1079   31.9352   41.3673 H   0  0  0  0  0  0  0  0  0  0  0  0
   41.0198   30.0445   42.7477 H   0  0  0  0  0  0  0  0  0  0  0  0
   38.1761   29.6270   52.4174 H   0  0  0  0  0  0  0  0  0  0  0  0
   39.1268   31.3518   50.8851 H   0  0  0  0  0  0  0  0  0  0  0  0
  1 10  1  0
  2  1  1  0
  3  2  1  0
  3  1  1  0
  4  3  1  0
  5  4  2  0
  6  5  1  0
  7  6  2  0
  7  8  1  0
  8  9  2  0
  9  4  1  0
 10 11  2  0
 10 14  1  0
 13 12  2  0
 14 13  1  0
 15 14  2  0
 15 16  1  0
 16 17  2  0
 17 12  1  0
 18 16  1  0
 18 19  1  0
 20 18  1  0
 21 18  1  0
  1 22  1  6
  2 23  1  0
  2 24  1  0
  3 25  1  1
  5 26  1  0
  6 27  1  0
  7 28  1  0
  8 29  1  0
 12 30  1  0
 13 31  1  0
M  ISO  8  22  13  23  13  24  13  25  13  26  14  27  14  28  14  29  14
M  ISO  2  30  14  31  14
M  END
>  <minimizedAffinity>  (1) 
-6.53076839

>  <minimizedRMSD>  (1) 
0.440174758

$$$$
