
     RDKit          3D

 43 46  0  0  1  0  0  0  0  0999 V2000
   38.0250   32.9670   49.3780 C   0  0  0  0  0  0  0  0  0  0  0  0
   38.7880   33.1590   48.2500 C   0  0  0  0  0  0  0  0  0  0  0  0
   38.6240   32.3730   47.0910 C   0  0  0  0  0  0  0  0  0  0  0  0
   37.7040   31.4470   47.1460 N   0  0  0  0  0  0  0  0  0  0  0  0
   36.9460   31.2620   48.2780 C   0  0  0  0  0  0  0  0  0  0  0  0
   37.1000   32.0040   49.3730 N   0  0  0  0  0  0  0  0  0  0  0  0
   35.6640   29.4050   49.3830 C   0  0  0  0  0  0  0  0  0  0  0  0
   35.9180   30.2050   48.2940 C   0  0  0  0  0  0  0  0  0  0  0  0
   35.1510   29.9840   47.1610 C   0  0  0  0  0  0  0  0  0  0  0  0
   34.1640   29.0290   47.0520 C   0  0  0  0  0  0  0  0  0  0  0  0
   33.9080   28.2270   48.1440 C   0  0  0  0  0  0  0  0  0  0  0  0
   34.6680   28.4440   49.2730 C   0  0  0  0  0  0  0  0  0  0  0  0
   36.5690   29.6110   50.8380 S   0  0  0  0  0  0  0  0  0  0  0  0
   37.7190   28.6360   50.8270 O   0  0  0  0  0  0  0  0  0  0  0  0
   35.6710   29.1920   51.9990 O   0  0  0  0  0  0  0  0  0  0  0  0
   39.4760   32.6180   45.9650 C   0  0  0  0  0  0  0  0  0  0  0  0
   40.1350   33.7170   45.7870 O   0  0  0  0  0  0  0  0  0  0  0  0
   39.6160   31.5230   44.9380 C   0  0  2  0  0  0  0  0  0  0  0  0
   41.0770   30.9080   45.1050 C   0  0  0  0  0  0  0  0  0  0  0  0
   40.5710   31.6320   43.8830 C   0  0  1  0  0  0  0  0  0  0  0  0
   40.5800   30.8540   42.6430 C   0  0  0  0  0  0  0  0  0  0  0  0
   39.8800   31.3700   41.5570 C   0  0  0  0  0  0  0  0  0  0  0  0
   39.8900   30.6350   40.3990 C   0  0  0  0  0  0  0  0  0  0  0  0
   40.5620   29.4280   40.2900 C   0  0  0  0  0  0  0  0  0  0  0  0
   41.2470   28.9510   41.4000 C   0  0  0  0  0  0  0  0  0  0  0  0
   41.2370   29.6690   42.5330 N   0  0  0  0  0  0  0  0  0  0  0  0
   38.1741   33.5955   50.2684 H   0  0  0  0  0  0  0  0  0  0  0  0
   39.5509   33.9514   48.2521 H   0  0  0  0  0  0  0  0  0  0  0  0
   35.3447   30.6183   46.2834 H   0  0  0  0  0  0  0  0  0  0  0  0
   33.5950   28.9094   46.1182 H   0  0  0  0  0  0  0  0  0  0  0  0
   33.1315   27.4484   48.1153 H   0  0  0  0  0  0  0  0  0  0  0  0
   34.4713   27.8101   50.1502 H   0  0  0  0  0  0  0  0  0  0  0  0
   37.0043   30.9052   50.9496 H   0  0  0  0  0  0  0  0  0  0  0  0
   40.3283   32.1965   46.5182 H   0  0  0  0  0  0  0  0  0  0  0  0
   40.3691   34.1075   46.6661 H   0  0  0  0  0  0  0  0  0  0  0  0
   38.5570   31.2274   44.9049 H   0  0  0  0  0  0  0  0  0  0  0  0
   41.8134   31.3771   45.7740 H   0  0  0  0  0  0  0  0  0  0  0  0
   41.5189   29.9279   45.3378 H   0  0  0  0  0  0  0  0  0  0  0  0
   40.8406   32.5279   43.3045 H   0  0  0  0  0  0  0  0  0  0  0  0
   39.3414   32.3268   41.6242 H   0  0  0  0  0  0  0  0  0  0  0  0
   39.3442   31.0180   39.5241 H   0  0  0  0  0  0  0  0  0  0  0  0
   40.5531   28.8614   39.3472 H   0  0  0  0  0  0  0  0  0  0  0  0
   41.7910   27.9962   41.3507 H   0  0  0  0  0  0  0  0  0  0  0  0
  2  1  2  0
  3  4  2  0
  3  2  1  0
  4  5  1  0
  5  8  1  0
  5  6  2  0
  6  1  1  0
  7 13  1  0
  8  7  2  0
  9  8  1  0
 10  9  2  0
 10 11  1  0
 11 12  2  0
 12  7  1  0
 13 15  2  0
 14 13  2  0
 16 17  1  0
 16  3  1  0
 18 19  1  0
 18 16  1  0
 20 18  1  0
 20 19  1  0
 21 20  1  0
 22 21  2  0
 23 22  1  0
 24 23  2  0
 24 25  1  0
 25 26  2  0
 26 21  1  0
  1 27  1  0
  2 28  1  0
  9 29  1  0
 10 30  1  0
 11 31  1  0
 12 32  1  0
 13 33  1  0
 16 34  1  0
 17 35  1  0
 18 36  1  6
 19 37  1  0
 19 38  1  0
 20 39  1  6
 22 40  1  0
 23 41  1  0
 24 42  1  0
 25 43  1  0
M  ISO  8  27  14  28  14  29  14  30  14  31  14  32  14  33  11  34   8
M  ISO  8  35   3  36  13  37  13  38  13  39  13  40  14  41  14  42  14
M  ISO  1  43  14
M  END
>  <minimizedAffinity>  (1) 
-6.49162197

>  <minimizedRMSD>  (1) 
3.4557662

$$$$
