
     RDKit          3D

 40 43  0  0  1  0  0  0  0  0999 V2000
   38.8490   32.2150   47.4100 C   0  0  0  0  0  0  0  0  0  0  0  0
   39.5210   33.2730   47.7160 O   0  0  0  0  0  0  0  0  0  0  0  0
   37.6060   30.8190   50.6350 C   0  0  0  0  0  0  0  0  0  0  0  0
   38.3480   31.4860   49.6880 C   0  0  0  0  0  0  0  0  0  0  0  0
   37.9940   31.5170   48.3230 C   0  0  0  0  0  0  0  0  0  0  0  0
   36.9050   30.8680   47.9980 N   0  0  0  0  0  0  0  0  0  0  0  0
   36.1710   30.2050   48.9520 C   0  0  0  0  0  0  0  0  0  0  0  0
   36.5000   30.1730   50.2360 N   0  0  0  0  0  0  0  0  0  0  0  0
   35.1990   30.3530   46.2840 F   0  0  0  0  0  0  0  0  0  0  0  0
   34.5180   29.5960   47.1950 C   0  0  0  0  0  0  0  0  0  0  0  0
   34.9700   29.5090   48.4960 C   0  0  0  0  0  0  0  0  0  0  0  0
   34.2370   28.7260   49.3710 C   0  0  0  0  0  0  0  0  0  0  0  0
   33.0870   28.0400   48.9980 C   0  0  0  0  0  0  0  0  0  0  0  0
   32.6370   28.1280   47.6970 C   0  0  0  0  0  0  0  0  0  0  0  0
   33.3760   28.9100   46.8350 C   0  0  0  0  0  0  0  0  0  0  0  0
   38.9710   31.6650   46.0100 C   0  0  2  0  0  0  0  0  0  0  0  0
   40.4870   31.2060   45.8170 C   0  0  0  0  0  0  0  0  0  0  0  0
   39.8010   32.3040   45.0440 C   0  0  1  0  0  0  0  0  0  0  0  0
   39.7470   32.1070   43.5930 C   0  0  0  0  0  0  0  0  0  0  0  0
   39.0230   33.0310   42.8480 C   0  0  0  0  0  0  0  0  0  0  0  0
   38.9720   32.8430   41.4900 C   0  0  0  0  0  0  0  0  0  0  0  0
   39.6080   31.7800   40.8670 C   0  0  0  0  0  0  0  0  0  0  0  0
   40.3120   30.8920   41.6410 C   0  0  0  0  0  0  0  0  0  0  0  0
   40.3660   31.0710   42.9700 N   0  0  0  0  0  0  0  0  0  0  0  0
   39.6959   31.5866   47.7227 H   0  0  0  0  0  0  0  0  0  0  0  0
   39.5742   33.3567   48.7010 H   0  0  0  0  0  0  0  0  0  0  0  0
   37.9115   30.8154   51.6917 H   0  0  0  0  0  0  0  0  0  0  0  0
   39.2559   32.0177   50.0089 H   0  0  0  0  0  0  0  0  0  0  0  0
   34.5814   28.6425   50.4124 H   0  0  0  0  0  0  0  0  0  0  0  0
   32.5404   27.4321   49.7340 H   0  0  0  0  0  0  0  0  0  0  0  0
   31.7318   27.5995   47.3633 H   0  0  0  0  0  0  0  0  0  0  0  0
   33.0332   28.9924   45.7930 H   0  0  0  0  0  0  0  0  0  0  0  0
   37.9402   31.2920   45.9185 H   0  0  0  0  0  0  0  0  0  0  0  0
   41.2486   31.4405   46.5752 H   0  0  0  0  0  0  0  0  0  0  0  0
   41.0270   30.2746   45.5915 H   0  0  0  0  0  0  0  0  0  0  0  0
   39.9363   33.3831   44.8791 H   0  0  0  0  0  0  0  0  0  0  0  0
   38.5118   33.8785   43.3280 H   0  0  0  0  0  0  0  0  0  0  0  0
   38.4078   33.5594   40.8749 H   0  0  0  0  0  0  0  0  0  0  0  0
   39.5495   31.6513   39.7761 H   0  0  0  0  0  0  0  0  0  0  0  0
   40.8284   30.0396   41.1755 H   0  0  0  0  0  0  0  0  0  0  0  0
  1  2  1  0
  1  5  1  0
  4  3  2  0
  5  4  1  0
  6  5  2  0
  6  7  1  0
  7  8  2  0
  8  3  1  0
  9 10  1  0
 10 11  2  0
 11  7  1  0
 11 12  1  0
 13 12  2  0
 14 13  1  0
 15 10  1  0
 15 14  2  0
 16  1  1  0
 17 16  1  0
 18 17  1  0
 18 16  1  0
 19 18  1  0
 20 19  2  0
 21 20  1  0
 22 21  2  0
 22 23  1  0
 23 24  2  0
 24 19  1  0
  1 25  1  0
  2 26  1  0
  3 27  1  0
  4 28  1  0
 12 29  1  0
 13 30  1  0
 14 31  1  0
 15 32  1  0
 16 33  1  6
 17 34  1  0
 17 35  1  0
 18 36  1  6
 20 37  1  0
 21 38  1  0
 22 39  1  0
 23 40  1  0
M  ISO  8  25   8  26   3  27  14  28  14  29  14  30  14  31  14  32  14
M  ISO  8  33  13  34  13  35  13  36  13  37  14  38  14  39  14  40  14
M  END
>  <minimizedAffinity>  (1) 
-6.49109793

>  <minimizedRMSD>  (1) 
1.88156378

$$$$
