
     RDKit          3D

 37 40  0  0  1  0  0  0  0  0999 V2000
   38.1350   32.0570   47.1750 C   0  0  2  0  0  0  0  0  0  0  0  0
   38.5420   30.5310   46.9750 C   0  0  0  0  0  0  0  0  0  0  0  0
   39.3390   31.7190   46.4940 C   0  0  1  0  0  0  0  0  0  0  0  0
   39.5510   31.7820   45.0450 C   0  0  0  0  0  0  0  0  0  0  0  0
   39.1460   32.9400   44.3840 C   0  0  0  0  0  0  0  0  0  0  0  0
   39.3440   32.9870   43.0300 C   0  0  0  0  0  0  0  0  0  0  0  0
   39.9200   31.9410   42.3250 C   0  0  0  0  0  0  0  0  0  0  0  0
   40.3080   30.8140   43.0130 C   0  0  0  0  0  0  0  0  0  0  0  0
   40.1200   30.7520   44.3460 N   0  0  0  0  0  0  0  0  0  0  0  0
   38.1320   32.3300   48.6590 C   0  0  0  0  0  0  0  0  0  0  0  0
   38.7580   33.3690   49.0960 O   0  0  0  0  0  0  0  0  0  0  0  0
   37.4730   30.0660   51.5510 C   0  0  0  0  0  0  0  0  0  0  0  0
   38.0460   30.9750   50.6910 C   0  0  0  0  0  0  0  0  0  0  0  0
   37.4320   31.4050   49.4990 C   0  0  0  0  0  0  0  0  0  0  0  0
   36.2610   30.8810   49.2460 N   0  0  0  0  0  0  0  0  0  0  0  0
   35.6810   29.9800   50.0870 C   0  0  0  0  0  0  0  0  0  0  0  0
   36.2590   29.5660   51.2230 N   0  0  0  0  0  0  0  0  0  0  0  0
   34.3360   29.4870   49.6320 C   0  0  0  0  0  0  0  0  0  0  0  0
   34.0830   29.2230   48.2140 C   0  0  0  0  0  0  0  0  0  0  0  0
   34.4010   28.0410   49.0440 C   0  0  0  0  0  0  0  0  0  0  0  0
   37.3517   32.7803   46.9045 H   0  0  0  0  0  0  0  0  0  0  0  0
   38.8903   29.9239   47.8236 H   0  0  0  0  0  0  0  0  0  0  0  0
   38.0956   29.6263   46.5367 H   0  0  0  0  0  0  0  0  0  0  0  0
   40.3455   32.1341   46.6509 H   0  0  0  0  0  0  0  0  0  0  0  0
   38.6872   33.7798   44.9264 H   0  0  0  0  0  0  0  0  0  0  0  0
   39.0345   33.8884   42.4808 H   0  0  0  0  0  0  0  0  0  0  0  0
   40.0640   32.0107   41.2367 H   0  0  0  0  0  0  0  0  0  0  0  0
   40.7683   29.9698   42.4787 H   0  0  0  0  0  0  0  0  0  0  0  0
   39.0478   31.7311   48.7710 H   0  0  0  0  0  0  0  0  0  0  0  0
   38.7550   33.3640   50.0860 H   0  0  0  0  0  0  0  0  0  0  0  0
   37.9847   29.7562   52.4741 H   0  0  0  0  0  0  0  0  0  0  0  0
   39.0334   31.3863   50.9478 H   0  0  0  0  0  0  0  0  0  0  0  0
   33.7789   30.0544   50.3921 H   0  0  0  0  0  0  0  0  0  0  0  0
   34.8113   29.5660   47.4644 H   0  0  0  0  0  0  0  0  0  0  0  0
   33.2486   29.4671   47.5400 H   0  0  0  0  0  0  0  0  0  0  0  0
   33.6204   27.3053   49.2875 H   0  0  0  0  0  0  0  0  0  0  0  0
   35.1434   27.2298   49.0160 H   0  0  0  0  0  0  0  0  0  0  0  0
  1 10  1  0
  2  1  1  0
  3  2  1  0
  3  1  1  0
  4  3  1  0
  5  4  2  0
  6  5  1  0
  7  8  1  0
  7  6  2  0
  8  9  2  0
  9  4  1  0
 10 11  1  0
 10 14  1  0
 13 12  2  0
 14 13  1  0
 15 14  2  0
 15 16  1  0
 16 17  2  0
 17 12  1  0
 18 16  1  0
 19 20  1  0
 19 18  1  0
 20 18  1  0
  1 21  1  6
  2 22  1  0
  2 23  1  0
  3 24  1  1
  5 25  1  0
  6 26  1  0
  7 27  1  0
  8 28  1  0
 10 29  1  0
 11 30  1  0
 12 31  1  0
 13 32  1  0
 18 33  1  0
 19 34  1  0
 19 35  1  0
 20 36  1  0
 20 37  1  0
M  ISO  8  21  13  22  13  23  13  24  13  25  14  26  14  27  14  28  14
M  ISO  8  29   8  30   3  31  14  32  14  33  13  34  13  35  13  36  13
M  ISO  1  37  13
M  END
>  <minimizedAffinity>  (1) 
-6.31537247

>  <minimizedRMSD>  (1) 
0.50422442

$$$$
