
     RDKit          3D

 26 27  0  0  0  0  0  0  0  0999 V2000
   34.7550   29.4320   48.8090 C   0  0  0  0  0  0  0  0  0  0  0  0
   34.2390   30.0420   47.6370 C   0  0  0  0  0  0  0  0  0  0  0  0
   33.5120   29.2370   46.7540 C   0  0  0  0  0  0  0  0  0  0  0  0
   33.3350   27.9130   47.0590 N   0  0  0  0  0  0  0  0  0  0  0  0
   33.8470   27.3680   48.1940 C   0  0  0  0  0  0  0  0  0  0  0  0
   34.5450   28.1270   49.0480 N   0  0  0  0  0  0  0  0  0  0  0  0
   35.5240   30.3000   49.7370 C   0  0  0  0  0  0  0  0  0  0  0  0
   36.4610   31.1930   48.9760 C   0  0  0  0  0  0  0  0  0  0  0  0
   37.9150   30.8160   49.1610 C   0  0  0  0  0  0  0  0  0  0  0  0
   38.3140   30.7940   50.6160 C   0  0  0  0  0  0  0  0  0  0  0  0
   37.2960   30.1180   51.5000 C   0  0  0  0  0  0  0  0  0  0  0  0
   36.2420   29.3890   50.7000 C   0  0  0  0  0  0  0  0  0  0  0  0
   34.4046   31.1096   47.4300 H   0  0  0  0  0  0  0  0  0  0  0  0
   33.0896   29.6596   45.8305 H   0  0  0  0  0  0  0  0  0  0  0  0
   33.6876   26.3015   48.4113 H   0  0  0  0  0  0  0  0  0  0  0  0
   34.8613   30.9757   50.2977 H   0  0  0  0  0  0  0  0  0  0  0  0
   36.3197   32.2272   49.3232 H   0  0  0  0  0  0  0  0  0  0  0  0
   36.2254   31.0840   47.9071 H   0  0  0  0  0  0  0  0  0  0  0  0
   38.0796   29.8163   48.7327 H   0  0  0  0  0  0  0  0  0  0  0  0
   38.5292   31.5737   48.6523 H   0  0  0  0  0  0  0  0  0  0  0  0
   39.2694   30.2568   50.7086 H   0  0  0  0  0  0  0  0  0  0  0  0
   38.3943   31.8392   50.9493 H   0  0  0  0  0  0  0  0  0  0  0  0
   37.8133   29.3945   52.1473 H   0  0  0  0  0  0  0  0  0  0  0  0
   36.7928   30.8961   52.0928 H   0  0  0  0  0  0  0  0  0  0  0  0
   35.5061   28.9574   51.3944 H   0  0  0  0  0  0  0  0  0  0  0  0
   36.7457   28.6073   50.1124 H   0  0  0  0  0  0  0  0  0  0  0  0
  1  6  1  0
  1  7  1  0
  2  1  2  0
  3  4  2  0
  3  2  1  0
  4  5  1  0
  5  6  2  0
  7 12  1  0
  8  9  1  0
  8  7  1  0
  9 10  1  0
 10 11  1  0
 12 11  1  0
  2 13  1  0
  3 14  1  0
  5 15  1  0
  7 16  1  0
  8 17  1  0
  8 18  1  0
  9 19  1  0
  9 20  1  0
 10 21  1  0
 10 22  1  0
 11 23  1  0
 11 24  1  0
 12 25  1  0
 12 26  1  0
M  ISO  8  13  14  14  14  15  14  16  13  17  13  18  13  19  13  20  13
M  ISO  6  21  13  22  13  23  13  24  13  25  13  26  13
M  END
>  <minimizedAffinity>  (1) 
-4.74438858

>  <minimizedRMSD>  (1) 
4.3302021

$$$$
