
     RDKit          3D

 31 33  0  0  1  0  0  0  0  0999 V2000
   37.9800   31.9960   47.1880 C   0  0  2  0  0  0  0  0  0  0  0  0
   38.6010   30.5330   47.0640 C   0  0  0  0  0  0  0  0  0  0  0  0
   39.2360   31.8020   46.5480 C   0  0  1  0  0  0  0  0  0  0  0  0
   39.4910   31.8310   45.1060 C   0  0  0  0  0  0  0  0  0  0  0  0
   39.0380   32.9400   44.3990 C   0  0  0  0  0  0  0  0  0  0  0  0
   39.2740   32.9680   43.0460 C   0  0  0  0  0  0  0  0  0  0  0  0
   39.9390   31.9380   42.3960 C   0  0  0  0  0  0  0  0  0  0  0  0
   40.3740   30.8540   43.1370 C   0  0  0  0  0  0  0  0  0  0  0  0
   40.1380   30.8340   44.4590 N   0  0  0  0  0  0  0  0  0  0  0  0
   37.9020   32.3240   48.6590 C   0  0  0  0  0  0  0  0  0  0  0  0
   38.4020   33.4410   49.0700 O   0  0  0  0  0  0  0  0  0  0  0  0
   37.4210   30.0570   51.5780 C   0  0  0  0  0  0  0  0  0  0  0  0
   37.9340   30.9920   50.7090 C   0  0  0  0  0  0  0  0  0  0  0  0
   37.2770   31.3620   49.5180 C   0  0  0  0  0  0  0  0  0  0  0  0
   36.1400   30.7630   49.2810 N   0  0  0  0  0  0  0  0  0  0  0  0
   35.6370   29.8320   50.1530 C   0  0  0  0  0  0  0  0  0  0  0  0
   36.2510   29.4740   51.2830 N   0  0  0  0  0  0  0  0  0  0  0  0
   34.0650   29.0890   49.6980 S   0  0  0  0  0  0  0  0  0  0  0  0
   37.1115   32.5914   46.8698 H   0  0  0  0  0  0  0  0  0  0  0  0
   39.0081   30.0158   47.9454 H   0  0  0  0  0  0  0  0  0  0  0  0
   38.2972   29.5573   46.6570 H   0  0  0  0  0  0  0  0  0  0  0  0
   40.1668   32.3661   46.7071 H   0  0  0  0  0  0  0  0  0  0  0  0
   38.5110   33.7630   44.9040 H   0  0  0  0  0  0  0  0  0  0  0  0
   38.9257   33.8319   42.4609 H   0  0  0  0  0  0  0  0  0  0  0  0
   40.1169   31.9827   41.3114 H   0  0  0  0  0  0  0  0  0  0  0  0
   40.9046   30.0218   42.6514 H   0  0  0  0  0  0  0  0  0  0  0  0
   38.8717   31.8305   48.8205 H   0  0  0  0  0  0  0  0  0  0  0  0
   38.4084   33.4553   50.0599 H   0  0  0  0  0  0  0  0  0  0  0  0
   37.9617   29.7926   52.4987 H   0  0  0  0  0  0  0  0  0  0  0  0
   38.8944   31.4695   50.9531 H   0  0  0  0  0  0  0  0  0  0  0  0
   33.3699   28.7605   50.8320 H   0  0  0  0  0  0  0  0  0  0  0  0
  1 10  1  0
  2  1  1  0
  3  2  1  0
  3  1  1  0
  4  3  1  0
  5  4  2  0
  6  5  1  0
  7  6  2  0
  7  8  1  0
  8  9  2  0
  9  4  1  0
 10 11  1  0
 10 14  1  0
 13 12  2  0
 14 13  1  0
 15 14  2  0
 15 16  1  0
 16 17  2  0
 17 12  1  0
 18 16  1  0
  1 19  1  6
  2 20  1  0
  2 21  1  0
  3 22  1  1
  5 23  1  0
  6 24  1  0
  7 25  1  0
  8 26  1  0
 10 27  1  0
 11 28  1  0
 12 29  1  0
 13 30  1  0
 18 31  1  0
M  ISO  8  19  13  20  13  21  13  22  13  23  14  24  14  25  14  26  14
M  ISO  5  27   8  28   3  29  14  30  14  31  11
M  END
>  <minimizedAffinity>  (1) 
-5.598382

>  <minimizedRMSD>  (1) 
0.369314879

$$$$
