
     RDKit          3D

 45 49  0  0  1  0  0  0  0  0999 V2000
   37.7570   30.8630   50.6550 C   0  0  0  0  0  0  0  0  0  0  0  0
   38.4730   31.5240   49.6830 C   0  0  0  0  0  0  0  0  0  0  0  0
   38.1220   31.4890   48.3290 C   0  0  0  0  0  0  0  0  0  0  0  0
   37.0640   30.7960   48.0090 N   0  0  0  0  0  0  0  0  0  0  0  0
   36.3560   30.1410   48.9820 C   0  0  0  0  0  0  0  0  0  0  0  0
   36.6920   30.1720   50.2670 N   0  0  0  0  0  0  0  0  0  0  0  0
   35.1560   29.3800   48.6450 C   0  0  0  0  0  0  0  0  0  0  0  0
   34.6230   28.2330   49.1800 C   0  0  0  0  0  0  0  0  0  0  0  0
   33.4730   27.7250   48.7130 C   0  0  0  0  0  0  0  0  0  0  0  0
   32.8790   28.4350   47.6670 C   0  0  0  0  0  0  0  0  0  0  0  0
   34.0190   29.8500   47.3770 S   0  0  0  0  0  0  0  0  0  0  0  0
   31.6730   28.2400   46.8950 C   0  0  0  0  0  0  0  0  0  0  0  0
   31.7150   28.2040   45.5220 C   0  0  0  0  0  0  0  0  0  0  0  0
   30.4580   28.0080   44.9540 C   0  0  0  0  0  0  0  0  0  0  0  0
   29.3290   27.8680   45.6710 N   0  0  0  0  0  0  0  0  0  0  0  0
   29.3710   27.9150   47.0140 C   0  0  0  0  0  0  0  0  0  0  0  0
   30.5720   28.1050   47.6410 N   0  0  0  0  0  0  0  0  0  0  0  0
   39.0440   32.1450   47.4420 C   0  0  1  0  0  0  0  0  0  0  0  0
   39.1230   31.5950   46.0300 C   0  0  2  0  0  0  0  0  0  0  0  0
   40.5860   31.2200   45.7900 C   0  0  0  0  0  0  0  0  0  0  0  0
   39.8860   32.2850   45.0200 C   0  0  1  0  0  0  0  0  0  0  0  0
   39.8240   32.0190   43.5760 C   0  0  0  0  0  0  0  0  0  0  0  0
   39.1230   32.8980   42.7910 C   0  0  0  0  0  0  0  0  0  0  0  0
   39.1010   32.6400   41.4450 C   0  0  0  0  0  0  0  0  0  0  0  0
   39.7390   31.5600   40.8640 C   0  0  0  0  0  0  0  0  0  0  0  0
   40.4410   30.6910   41.6930 C   0  0  0  0  0  0  0  0  0  0  0  0
   40.4660   30.9370   43.0150 N   0  0  0  0  0  0  0  0  0  0  0  0
   39.3000   33.4190   47.5200 O   0  0  0  0  0  0  0  0  0  0  0  0
   38.0558   30.9057   51.7128 H   0  0  0  0  0  0  0  0  0  0  0  0
   39.3581   32.1040   49.9832 H   0  0  0  0  0  0  0  0  0  0  0  0
   35.1464   27.7240   50.0028 H   0  0  0  0  0  0  0  0  0  0  0  0
   33.0266   26.8088   49.1268 H   0  0  0  0  0  0  0  0  0  0  0  0
   32.6390   28.3174   44.9361 H   0  0  0  0  0  0  0  0  0  0  0  0
   30.3850   27.9654   43.8573 H   0  0  0  0  0  0  0  0  0  0  0  0
   28.4488   27.8018   47.6028 H   0  0  0  0  0  0  0  0  0  0  0  0
   39.9181   31.7889   48.0069 H   0  0  0  0  0  0  0  0  0  0  0  0
   38.1083   31.1733   45.9783 H   0  0  0  0  0  0  0  0  0  0  0  0
   41.3575   31.4814   46.5292 H   0  0  0  0  0  0  0  0  0  0  0  0
   41.1421   30.3015   45.5510 H   0  0  0  0  0  0  0  0  0  0  0  0
   39.9657   33.3664   44.8351 H   0  0  0  0  0  0  0  0  0  0  0  0
   38.6038   33.7675   43.2204 H   0  0  0  0  0  0  0  0  0  0  0  0
   38.5458   33.3294   40.7920 H   0  0  0  0  0  0  0  0  0  0  0  0
   39.6929   31.3926   39.7778 H   0  0  0  0  0  0  0  0  0  0  0  0
   40.9657   29.8192   41.2752 H   0  0  0  0  0  0  0  0  0  0  0  0
   39.3539   33.6871   48.4715 H   0  0  0  0  0  0  0  0  0  0  0  0
  2  1  2  0
  3  2  1  0
  4  3  2  0
  4  5  1  0
  5  6  2  0
  6  1  1  0
  7  5  1  0
  7  8  2  0
  9  8  1  0
 10  9  2  0
 11 10  1  0
 11  7  1  0
 12 17  1  0
 12 10  1  0
 13 12  2  0
 14 13  1  0
 14 15  2  0
 15 16  1  0
 16 17  2  0
 18 28  1  0
 18  3  1  0
 19 18  1  0
 20 19  1  0
 21 20  1  0
 21 19  1  0
 22 21  1  0
 23 22  2  0
 24 23  1  0
 25 24  2  0
 25 26  1  0
 26 27  2  0
 27 22  1  0
  1 29  1  0
  2 30  1  0
  8 31  1  0
  9 32  1  0
 13 33  1  0
 14 34  1  0
 16 35  1  0
 18 36  1  1
 19 37  1  6
 20 38  1  0
 20 39  1  0
 21 40  1  6
 23 41  1  0
 24 42  1  0
 25 43  1  0
 26 44  1  0
 28 45  1  0
M  ISO  8  29  14  30  14  31  14  32  14  33  14  34  14  35  14  36   8
M  ISO  8  37  13  38  13  39  13  40  13  41  14  42  14  43  14  44  14
M  ISO  1  45   3
M  END
>  <minimizedAffinity>  (1) 
-6.71030712

>  <minimizedRMSD>  (1) 
0.277245492

$$$$
