
     RDKit          3D

 46 50  0  0  1  0  0  0  0  0999 V2000
   37.7380   30.8610   50.6500 C   0  0  0  0  0  0  0  0  0  0  0  0
   38.4680   31.5130   49.6830 C   0  0  0  0  0  0  0  0  0  0  0  0
   38.1190   31.4820   48.3250 C   0  0  0  0  0  0  0  0  0  0  0  0
   37.0530   30.8040   48.0020 N   0  0  0  0  0  0  0  0  0  0  0  0
   36.3310   30.1570   48.9750 C   0  0  0  0  0  0  0  0  0  0  0  0
   36.6640   30.1830   50.2590 N   0  0  0  0  0  0  0  0  0  0  0  0
   35.1310   29.4010   48.6280 C   0  0  0  0  0  0  0  0  0  0  0  0
   34.6040   28.2480   49.1420 C   0  0  0  0  0  0  0  0  0  0  0  0
   33.4650   27.7200   48.6690 C   0  0  0  0  0  0  0  0  0  0  0  0
   32.8690   28.4510   47.6040 C   0  0  0  0  0  0  0  0  0  0  0  0
   34.0000   29.8610   47.3600 S   0  0  0  0  0  0  0  0  0  0  0  0
   31.6700   28.2030   46.8540 C   0  0  0  0  0  0  0  0  0  0  0  0
   31.2970   26.9070   46.7150 C   0  0  0  0  0  0  0  0  0  0  0  0
   30.1280   26.6600   45.9850 C   0  0  0  0  0  0  0  0  0  0  0  0
   29.4520   27.7670   45.4640 C   0  0  0  0  0  0  0  0  0  0  0  0
   29.8800   29.0880   45.6360 C   0  0  0  0  0  0  0  0  0  0  0  0
   31.0200   29.2420   46.3550 N   0  0  0  0  0  0  0  0  0  0  0  0
   39.0430   32.1310   47.4390 C   0  0  1  0  0  0  0  0  0  0  0  0
   39.1320   31.5790   46.0330 C   0  0  2  0  0  0  0  0  0  0  0  0
   40.5980   31.2260   45.7910 C   0  0  0  0  0  0  0  0  0  0  0  0
   39.8810   32.2780   45.0180 C   0  0  1  0  0  0  0  0  0  0  0  0
   39.8260   32.0070   43.5760 C   0  0  0  0  0  0  0  0  0  0  0  0
   39.1310   32.8870   42.7850 C   0  0  0  0  0  0  0  0  0  0  0  0
   39.1140   32.6290   41.4410 C   0  0  0  0  0  0  0  0  0  0  0  0
   39.7540   31.5460   40.8650 C   0  0  0  0  0  0  0  0  0  0  0  0
   40.4500   30.6750   41.7010 C   0  0  0  0  0  0  0  0  0  0  0  0
   40.4710   30.9220   43.0220 N   0  0  0  0  0  0  0  0  0  0  0  0
   39.2950   33.4120   47.5170 O   0  0  0  0  0  0  0  0  0  0  0  0
   38.0329   30.8996   51.7090 H   0  0  0  0  0  0  0  0  0  0  0  0
   39.3599   32.0806   49.9868 H   0  0  0  0  0  0  0  0  0  0  0  0
   35.1281   27.7402   49.9651 H   0  0  0  0  0  0  0  0  0  0  0  0
   33.0268   26.7953   49.0726 H   0  0  0  0  0  0  0  0  0  0  0  0
   31.8851   26.0881   47.1550 H   0  0  0  0  0  0  0  0  0  0  0  0
   29.7567   25.6365   45.8279 H   0  0  0  0  0  0  0  0  0  0  0  0
   28.5325   27.5898   44.8868 H   0  0  0  0  0  0  0  0  0  0  0  0
   29.3297   29.9432   45.2168 H   0  0  0  0  0  0  0  0  0  0  0  0
   39.9167   31.7692   48.0009 H   0  0  0  0  0  0  0  0  0  0  0  0
   38.1244   31.1404   45.9855 H   0  0  0  0  0  0  0  0  0  0  0  0
   41.3671   31.5016   46.5276 H   0  0  0  0  0  0  0  0  0  0  0  0
   41.1671   30.3150   45.5540 H   0  0  0  0  0  0  0  0  0  0  0  0
   39.9403   33.3600   44.8287 H   0  0  0  0  0  0  0  0  0  0  0  0
   38.6122   33.7584   43.2109 H   0  0  0  0  0  0  0  0  0  0  0  0
   38.5629   33.3185   40.7846 H   0  0  0  0  0  0  0  0  0  0  0  0
   39.7146   31.3774   39.7787 H   0  0  0  0  0  0  0  0  0  0  0  0
   40.9732   29.8004   41.2869 H   0  0  0  0  0  0  0  0  0  0  0  0
   39.3478   33.6806   48.4684 H   0  0  0  0  0  0  0  0  0  0  0  0
  2  1  2  0
  3  2  1  0
  4  3  2  0
  4  5  1  0
  5  6  2  0
  6  1  1  0
  7  5  1  0
  7  8  2  0
  9  8  1  0
 10  9  2  0
 11 10  1  0
 11  7  1  0
 12 10  1  0
 13 12  2  0
 14 13  1  0
 15 16  1  0
 15 14  2  0
 16 17  2  0
 17 12  1  0
 18 28  1  0
 18  3  1  0
 19 18  1  0
 20 19  1  0
 21 20  1  0
 21 19  1  0
 22 21  1  0
 23 22  2  0
 24 23  1  0
 25 24  2  0
 25 26  1  0
 26 27  2  0
 27 22  1  0
  1 29  1  0
  2 30  1  0
  8 31  1  0
  9 32  1  0
 13 33  1  0
 14 34  1  0
 15 35  1  0
 16 36  1  0
 18 37  1  1
 19 38  1  6
 20 39  1  0
 20 40  1  0
 21 41  1  6
 23 42  1  0
 24 43  1  0
 25 44  1  0
 26 45  1  0
 28 46  1  0
M  ISO  8  29  14  30  14  31  14  32  14  33  14  34  14  35  14  36  14
M  ISO  8  37   8  38  13  39  13  40  13  41  13  42  14  43  14  44  14
M  ISO  2  45  14  46   3
M  END
>  <minimizedAffinity>  (1) 
-6.70296812

>  <minimizedRMSD>  (1) 
0.330313593

$$$$
