
     RDKit          3D

 40 43  0  0  1  0  0  0  0  0999 V2000
   39.0340   32.1310   47.4530 C   0  0  1  0  0  0  0  0  0  0  0  0
   37.6940   30.8640   50.6500 C   0  0  0  0  0  0  0  0  0  0  0  0
   38.4320   31.5180   49.6880 C   0  0  0  0  0  0  0  0  0  0  0  0
   38.0960   31.4810   48.3280 C   0  0  0  0  0  0  0  0  0  0  0  0
   37.0360   30.7970   47.9960 N   0  0  0  0  0  0  0  0  0  0  0  0
   36.3090   30.1510   48.9630 C   0  0  0  0  0  0  0  0  0  0  0  0
   36.6280   30.1810   50.2510 N   0  0  0  0  0  0  0  0  0  0  0  0
   35.1090   29.3960   48.6080 C   0  0  0  0  0  0  0  0  0  0  0  0
   34.5430   28.2800   49.1580 C   0  0  0  0  0  0  0  0  0  0  0  0
   33.4080   27.7540   48.6780 C   0  0  0  0  0  0  0  0  0  0  0  0
   32.8610   28.4390   47.5750 C   0  0  0  0  0  0  0  0  0  0  0  0
   34.0270   29.8350   47.2770 S   0  0  0  0  0  0  0  0  0  0  0  0
   31.6490   28.2300   46.7350 C   0  0  0  0  0  0  0  0  0  0  0  0
   39.1290   31.5770   46.0450 C   0  0  2  0  0  0  0  0  0  0  0  0
   40.5960   31.2280   45.8050 C   0  0  0  0  0  0  0  0  0  0  0  0
   39.8800   32.2770   45.0320 C   0  0  1  0  0  0  0  0  0  0  0  0
   39.8260   32.0070   43.5890 C   0  0  0  0  0  0  0  0  0  0  0  0
   39.1350   32.8910   42.8000 C   0  0  0  0  0  0  0  0  0  0  0  0
   39.1230   32.6310   41.4530 C   0  0  0  0  0  0  0  0  0  0  0  0
   39.7600   31.5510   40.8820 C   0  0  0  0  0  0  0  0  0  0  0  0
   40.4530   30.6740   41.7150 C   0  0  0  0  0  0  0  0  0  0  0  0
   40.4690   30.9210   43.0370 N   0  0  0  0  0  0  0  0  0  0  0  0
   39.2940   33.4040   47.5300 O   0  0  0  0  0  0  0  0  0  0  0  0
   39.8987   31.7747   48.0321 H   0  0  0  0  0  0  0  0  0  0  0  0
   37.9782   30.9063   51.7118 H   0  0  0  0  0  0  0  0  0  0  0  0
   39.3182   32.0907   49.9990 H   0  0  0  0  0  0  0  0  0  0  0  0
   35.0328   27.8005   50.0184 H   0  0  0  0  0  0  0  0  0  0  0  0
   32.9400   26.8577   49.1111 H   0  0  0  0  0  0  0  0  0  0  0  0
   30.7742   28.0791   47.3846 H   0  0  0  0  0  0  0  0  0  0  0  0
   31.4862   29.1133   46.1000 H   0  0  0  0  0  0  0  0  0  0  0  0
   31.7914   27.3432   46.1000 H   0  0  0  0  0  0  0  0  0  0  0  0
   38.1226   31.1357   45.9959 H   0  0  0  0  0  0  0  0  0  0  0  0
   41.3631   31.5051   46.5431 H   0  0  0  0  0  0  0  0  0  0  0  0
   41.1674   30.3183   45.5686 H   0  0  0  0  0  0  0  0  0  0  0  0
   39.9397   33.3590   44.8431 H   0  0  0  0  0  0  0  0  0  0  0  0
   38.6172   33.7633   43.2253 H   0  0  0  0  0  0  0  0  0  0  0  0
   38.5759   33.3213   40.7941 H   0  0  0  0  0  0  0  0  0  0  0  0
   39.7227   31.3848   39.7953 H   0  0  0  0  0  0  0  0  0  0  0  0
   40.9752   29.7992   41.3002 H   0  0  0  0  0  0  0  0  0  0  0  0
   39.3489   33.6727   48.4813 H   0  0  0  0  0  0  0  0  0  0  0  0
  1 23  1  0
  1  4  1  0
  3  2  2  0
  4  3  1  0
  5  4  2  0
  5  6  1  0
  6  7  2  0
  7  2  1  0
  8  6  1  0
  8  9  2  0
 10  9  1  0
 11 10  2  0
 12 11  1  0
 12  8  1  0
 13 11  1  0
 14  1  1  0
 15 14  1  0
 16 15  1  0
 16 14  1  0
 17 16  1  0
 18 17  2  0
 19 18  1  0
 20 19  2  0
 20 21  1  0
 21 22  2  0
 22 17  1  0
  1 24  1  1
  2 25  1  0
  3 26  1  0
  9 27  1  0
 10 28  1  0
 13 29  1  0
 13 30  1  0
 13 31  1  0
 14 32  1  6
 15 33  1  0
 15 34  1  0
 16 35  1  6
 18 36  1  0
 19 37  1  0
 20 38  1  0
 21 39  1  0
 23 40  1  0
M  ISO  8  24   8  25  14  26  14  27  14  28  14  29   8  30   8  31   8
M  ISO  8  32  13  33  13  34  13  35  13  36  14  37  14  38  14  39  14
M  ISO  1  40   3
M  END
>  <minimizedAffinity>  (1) 
-6.47067165

>  <minimizedRMSD>  (1) 
0.223596767

$$$$
