
     RDKit          3D

 29 32  0  0  0  0  0  0  0  0999 V2000
   35.8320   29.2440   49.2630 C   0  0  0  0  0  0  0  0  0  0  0  0
   35.9360   30.1480   48.1820 C   0  0  0  0  0  0  0  0  0  0  0  0
   35.1430   29.9330   47.0690 C   0  0  0  0  0  0  0  0  0  0  0  0
   34.3080   28.8680   47.0760 N   0  0  0  0  0  0  0  0  0  0  0  0
   34.2140   28.0120   48.1080 C   0  0  0  0  0  0  0  0  0  0  0  0
   34.9860   28.2080   49.2060 N   0  0  0  0  0  0  0  0  0  0  0  0
   36.9490   31.8340   49.6350 C   0  0  0  0  0  0  0  0  0  0  0  0
   36.8990   31.2150   48.3960 C   0  0  0  0  0  0  0  0  0  0  0  0
   37.7920   31.6830   47.4600 C   0  0  0  0  0  0  0  0  0  0  0  0
   38.6760   32.7070   47.7520 C   0  0  0  0  0  0  0  0  0  0  0  0
   39.6310   33.3420   47.0440 N   0  0  0  0  0  0  0  0  0  0  0  0
   40.2020   34.2810   47.8390 C   0  0  0  0  0  0  0  0  0  0  0  0
   39.6140   34.2560   49.0690 N   0  0  0  0  0  0  0  0  0  0  0  0
   38.6810   33.2900   49.0100 C   0  0  0  0  0  0  0  0  0  0  0  0
   37.8130   32.8520   49.9580 C   0  0  0  0  0  0  0  0  0  0  0  0
   33.2580   26.9290   47.9260 C   0  0  0  0  0  0  0  0  0  0  0  0
   33.6930   25.7180   47.3320 C   0  0  0  0  0  0  0  0  0  0  0  0
   32.1390   24.6290   47.3010 S   0  0  0  0  0  0  0  0  0  0  0  0
   31.2020   26.0650   48.1140 C   0  0  0  0  0  0  0  0  0  0  0  0
   31.9850   26.9090   48.2460 N   0  0  0  0  0  0  0  0  0  0  0  0
   36.4518   29.3928   50.1595 H   0  0  0  0  0  0  0  0  0  0  0  0
   35.1899   30.6089   46.2024 H   0  0  0  0  0  0  0  0  0  0  0  0
   36.2507   31.4872   50.4110 H   0  0  0  0  0  0  0  0  0  0  0  0
   37.8037   31.2329   46.4564 H   0  0  0  0  0  0  0  0  0  0  0  0
   39.8844   33.1472   46.0648 H   0  0  0  0  0  0  0  0  0  0  0  0
   41.0145   34.9585   47.5378 H   0  0  0  0  0  0  0  0  0  0  0  0
   37.8020   33.3021   50.9617 H   0  0  0  0  0  0  0  0  0  0  0  0
   34.7013   25.4666   46.9712 H   0  0  0  0  0  0  0  0  0  0  0  0
   30.1400   26.0908   48.3996 H   0  0  0  0  0  0  0  0  0  0  0  0
  2  8  1  0
  2  1  2  0
  3  4  2  0
  3  2  1  0
  4  5  1  0
  5  6  2  0
  6  1  1  0
  7 15  2  0
  8  7  1  0
  9 10  1  0
  9  8  2  0
 10 14  2  0
 11 10  1  0
 11 12  1  0
 12 13  2  0
 14 13  1  0
 14 15  1  0
 16  5  1  0
 16 20  1  0
 17 16  2  0
 18 17  1  0
 18 19  1  0
 19 20  2  0
  1 21  1  0
  3 22  1  0
  7 23  1  0
  9 24  1  0
 11 25  1  0
 12 26  1  0
 15 27  1  0
 17 28  1  0
 19 29  1  0
M  ISO  8  21  14  22  14  23  14  24  14  25   9  26  14  27  14  28  14
M  ISO  1  29  14
M  END
>  <minimizedAffinity>  (1) 
-5.93113661

>  <minimizedRMSD>  (1) 
2.09886932

$$$$
