
     RDKit          3D

 30 33  0  0  0  0  0  0  0  0999 V2000
   36.1060   31.1730   49.7590 C   0  0  0  0  0  0  0  0  0  0  0  0
   36.0140   30.6550   48.4750 C   0  0  0  0  0  0  0  0  0  0  0  0
   36.9210   31.1190   47.5480 C   0  0  0  0  0  0  0  0  0  0  0  0
   37.8760   32.0660   47.9140 C   0  0  0  0  0  0  0  0  0  0  0  0
   38.8620   32.6870   47.2470 N   0  0  0  0  0  0  0  0  0  0  0  0
   39.5060   33.5220   48.0700 C   0  0  0  0  0  0  0  0  0  0  0  0
   38.9350   33.4530   49.3070 N   0  0  0  0  0  0  0  0  0  0  0  0
   37.9360   32.5560   49.1950 C   0  0  0  0  0  0  0  0  0  0  0  0
   37.0490   32.1070   50.1230 C   0  0  0  0  0  0  0  0  0  0  0  0
   34.3230   29.1740   49.3530 C   0  0  0  0  0  0  0  0  0  0  0  0
   34.9830   29.6750   48.2040 C   0  0  0  0  0  0  0  0  0  0  0  0
   34.5700   29.1760   46.9810 C   0  0  0  0  0  0  0  0  0  0  0  0
   33.5830   28.2560   46.9310 N   0  0  0  0  0  0  0  0  0  0  0  0
   32.9680   27.7970   48.0580 C   0  0  0  0  0  0  0  0  0  0  0  0
   33.3480   28.2630   49.2500 N   0  0  0  0  0  0  0  0  0  0  0  0
   31.8810   26.7790   47.9440 C   0  0  0  0  0  0  0  0  0  0  0  0
   30.7080   26.7970   48.8230 C   0  0  0  0  0  0  0  0  0  0  0  0
   30.5650   27.3920   47.4480 C   0  0  0  0  0  0  0  0  0  0  0  0
   35.3935   30.8215   50.5198 H   0  0  0  0  0  0  0  0  0  0  0  0
   36.8916   30.7409   46.5154 H   0  0  0  0  0  0  0  0  0  0  0  0
   39.0882   32.5424   46.2526 H   0  0  0  0  0  0  0  0  0  0  0  0
   40.3579   34.1608   47.7941 H   0  0  0  0  0  0  0  0  0  0  0  0
   37.0849   32.4867   51.1547 H   0  0  0  0  0  0  0  0  0  0  0  0
   34.6171   29.5403   50.3476 H   0  0  0  0  0  0  0  0  0  0  0  0
   35.0442   29.5277   46.0529 H   0  0  0  0  0  0  0  0  0  0  0  0
   32.5732   25.9654   47.6816 H   0  0  0  0  0  0  0  0  0  0  0  0
   30.1944   25.8546   49.0640 H   0  0  0  0  0  0  0  0  0  0  0  0
   30.5206   27.1695   49.8409 H   0  0  0  0  0  0  0  0  0  0  0  0
   30.4718   28.4805   47.3198 H   0  0  0  0  0  0  0  0  0  0  0  0
   29.8975   27.2423   46.5866 H   0  0  0  0  0  0  0  0  0  0  0  0
  1  9  2  0
  2  1  1  0
  3  4  1  0
  3  2  2  0
  4  8  2  0
  5  4  1  0
  5  6  1  0
  6  7  2  0
  8  7  1  0
  8  9  1  0
 11  2  1  0
 11 10  2  0
 12 11  1  0
 13 12  2  0
 13 14  1  0
 14 15  2  0
 15 10  1  0
 16 14  1  0
 16 17  1  0
 18 16  1  0
 18 17  1  0
  1 19  1  0
  3 20  1  0
  5 21  1  0
  6 22  1  0
  9 23  1  0
 10 24  1  0
 12 25  1  0
 16 26  1  0
 17 27  1  0
 17 28  1  0
 18 29  1  0
 18 30  1  0
M  ISO  8  19  14  20  14  21   9  22  14  23  14  24  14  25  14  26  13
M  ISO  4  27  13  28  13  29  13  30  13
M  END
>  <minimizedAffinity>  (1) 
-5.57959461

>  <minimizedRMSD>  (1) 
2.2552619

$$$$
