
     RDKit          3D

 25 27  0  0  0  0  0  0  0  0999 V2000
   37.5820   31.4300   48.3840 C   0  0  0  0  0  0  0  0  0  0  0  0
   36.8490   30.9290   47.3340 C   0  0  0  0  0  0  0  0  0  0  0  0
   37.2960   31.2510   46.0760 C   0  0  0  0  0  0  0  0  0  0  0  0
   38.4330   32.0440   45.9020 C   0  0  0  0  0  0  0  0  0  0  0  0
   39.0750   32.5000   44.8200 N   0  0  0  0  0  0  0  0  0  0  0  0
   40.1290   33.2300   45.2000 C   0  0  0  0  0  0  0  0  0  0  0  0
   40.1700   33.2470   46.5530 N   0  0  0  0  0  0  0  0  0  0  0  0
   39.1290   32.5190   46.9860 C   0  0  0  0  0  0  0  0  0  0  0  0
   38.7040   32.2130   48.2510 C   0  0  0  0  0  0  0  0  0  0  0  0
   35.7610   29.3750   48.8120 C   0  0  0  0  0  0  0  0  0  0  0  0
   35.6810   30.1140   47.6210 C   0  0  0  0  0  0  0  0  0  0  0  0
   34.5230   29.9820   46.8740 C   0  0  0  0  0  0  0  0  0  0  0  0
   33.5440   29.1610   47.3230 N   0  0  0  0  0  0  0  0  0  0  0  0
   33.6490   28.4610   48.4750 C   0  0  0  0  0  0  0  0  0  0  0  0
   34.7700   28.5740   49.2190 N   0  0  0  0  0  0  0  0  0  0  0  0
   32.5540   27.6310   48.8430 N   0  0  0  0  0  0  0  0  0  0  0  0
   37.2466   31.1869   49.4030 H   0  0  0  0  0  0  0  0  0  0  0  0
   36.7522   30.8800   45.1947 H   0  0  0  0  0  0  0  0  0  0  0  0
   38.7996   32.3169   43.8445 H   0  0  0  0  0  0  0  0  0  0  0  0
   40.8411   33.7311   44.5279 H   0  0  0  0  0  0  0  0  0  0  0  0
   39.2444   32.5828   49.1348 H   0  0  0  0  0  0  0  0  0  0  0  0
   36.6673   29.4573   49.4300 H   0  0  0  0  0  0  0  0  0  0  0  0
   34.4000   30.5350   45.9311 H   0  0  0  0  0  0  0  0  0  0  0  0
   32.5941   27.0812   49.7131 H   0  0  0  0  0  0  0  0  0  0  0  0
   31.7210   27.5797   48.2394 H   0  0  0  0  0  0  0  0  0  0  0  0
  2 11  1  0
  2  1  2  0
  3  2  1  0
  4  3  2  0
  4  8  1  0
  5  6  1  0
  5  4  1  0
  6  7  2  0
  7  8  1  0
  8  9  2  0
  9  1  1  0
 10 15  2  0
 11 10  1  0
 12 13  1  0
 12 11  2  0
 13 14  2  0
 14 16  1  0
 14 15  1  0
  1 17  1  0
  3 18  1  0
  5 19  1  0
  6 20  1  0
  9 21  1  0
 10 22  1  0
 12 23  1  0
 16 24  1  0
 16 25  1  0
M  ISO  7  17  14  18  14  19   9  20  14  21  14  22  14  23  14
M  END
>  <minimizedAffinity>  (1) 
-5.20249271

>  <minimizedRMSD>  (1) 
0.631082237

$$$$
