
     RDKit          3D

 35 38  0  0  0  0  0  0  0  0999 V2000
   34.2660   29.1580   49.4600 C   0  0  0  0  0  0  0  0  0  0  0  0
   34.8790   29.6050   48.2490 C   0  0  0  0  0  0  0  0  0  0  0  0
   34.4090   29.0920   47.0450 C   0  0  0  0  0  0  0  0  0  0  0  0
   33.3980   28.1970   47.0760 N   0  0  0  0  0  0  0  0  0  0  0  0
   32.8240   27.7820   48.2390 C   0  0  0  0  0  0  0  0  0  0  0  0
   33.2640   28.2660   49.4170 N   0  0  0  0  0  0  0  0  0  0  0  0
   36.0870   31.1210   49.7180 C   0  0  0  0  0  0  0  0  0  0  0  0
   35.9420   30.5730   48.4430 C   0  0  0  0  0  0  0  0  0  0  0  0
   36.8200   30.9910   47.4660 C   0  0  0  0  0  0  0  0  0  0  0  0
   37.8030   31.9310   47.7910 C   0  0  0  0  0  0  0  0  0  0  0  0
   38.7760   32.5170   47.0720 N   0  0  0  0  0  0  0  0  0  0  0  0
   39.4670   33.3570   47.8410 C   0  0  0  0  0  0  0  0  0  0  0  0
   38.9350   33.3250   49.0980 N   0  0  0  0  0  0  0  0  0  0  0  0
   37.9230   32.4540   49.0520 C   0  0  0  0  0  0  0  0  0  0  0  0
   37.0590   32.0470   50.0300 C   0  0  0  0  0  0  0  0  0  0  0  0
   31.7080   26.7980   48.2080 C   0  0  0  0  0  0  0  0  0  0  0  0
   30.4760   27.5770   48.5550 C   0  0  0  0  0  0  0  0  0  0  0  0
   29.8660   27.5740   49.7920 C   0  0  0  0  0  0  0  0  0  0  0  0
   28.7300   28.3260   50.0160 C   0  0  0  0  0  0  0  0  0  0  0  0
   28.1820   29.1000   49.0030 C   0  0  0  0  0  0  0  0  0  0  0  0
   28.8110   29.0880   47.7740 C   0  0  0  0  0  0  0  0  0  0  0  0
   29.9120   28.3430   47.5970 N   0  0  0  0  0  0  0  0  0  0  0  0
   34.6157   29.5453   50.4284 H   0  0  0  0  0  0  0  0  0  0  0  0
   34.8508   29.4081   46.0885 H   0  0  0  0  0  0  0  0  0  0  0  0
   35.3944   30.7995   50.5098 H   0  0  0  0  0  0  0  0  0  0  0  0
   36.7483   30.5904   46.4441 H   0  0  0  0  0  0  0  0  0  0  0  0
   38.9601   32.3423   46.0738 H   0  0  0  0  0  0  0  0  0  0  0  0
   40.3204   33.9715   47.5184 H   0  0  0  0  0  0  0  0  0  0  0  0
   37.1382   32.4520   51.0496 H   0  0  0  0  0  0  0  0  0  0  0  0
   31.6133   26.3559   47.2052 H   0  0  0  0  0  0  0  0  0  0  0  0
   31.8767   25.9681   48.9101 H   0  0  0  0  0  0  0  0  0  0  0  0
   30.2881   26.9675   50.6068 H   0  0  0  0  0  0  0  0  0  0  0  0
   28.2544   28.3114   51.0078 H   0  0  0  0  0  0  0  0  0  0  0  0
   27.2775   29.7024   49.1733 H   0  0  0  0  0  0  0  0  0  0  0  0
   28.4105   29.6873   46.9431 H   0  0  0  0  0  0  0  0  0  0  0  0
  2  8  1  0
  2  1  2  0
  3  4  2  0
  3  2  1  0
  4  5  1  0
  5  6  2  0
  6  1  1  0
  7 15  2  0
  8  7  1  0
  9 10  1  0
  9  8  2  0
 10 14  2  0
 11 10  1  0
 11 12  1  0
 12 13  2  0
 14 13  1  0
 14 15  1  0
 16  5  1  0
 16 17  1  0
 17 18  2  0
 18 19  1  0
 20 19  2  0
 21 20  1  0
 22 21  2  0
 22 17  1  0
  1 23  1  0
  3 24  1  0
  7 25  1  0
  9 26  1  0
 11 27  1  0
 12 28  1  0
 15 29  1  0
 16 30  1  0
 16 31  1  0
 18 32  1  0
 19 33  1  0
 20 34  1  0
 21 35  1  0
M  ISO  8  23  14  24  14  25  14  26  14  27   9  28  14  29  14  30   8
M  ISO  5  31   8  32  14  33  14  34  14  35  14
M  END
>  <minimizedAffinity>  (1) 
-6.5850749

>  <minimizedRMSD>  (1) 
1.92360985

$$$$
