
     RDKit          3D

 40 43  0  0  0  0  0  0  0  0999 V2000
   34.1910   29.1360   49.4360 C   0  0  0  0  0  0  0  0  0  0  0  0
   34.5830   29.5940   48.1620 C   0  0  0  0  0  0  0  0  0  0  0  0
   33.7990   29.2210   47.0710 C   0  0  0  0  0  0  0  0  0  0  0  0
   32.7100   28.4400   47.3070 N   0  0  0  0  0  0  0  0  0  0  0  0
   32.3530   28.0150   48.5270 C   0  0  0  0  0  0  0  0  0  0  0  0
   33.1040   28.3700   49.5870 N   0  0  0  0  0  0  0  0  0  0  0  0
   36.1640   31.0150   49.3260 C   0  0  0  0  0  0  0  0  0  0  0  0
   35.7690   30.4160   48.1350 C   0  0  0  0  0  0  0  0  0  0  0  0
   36.5500   30.6640   47.0160 C   0  0  0  0  0  0  0  0  0  0  0  0
   37.6720   31.4840   47.1260 C   0  0  0  0  0  0  0  0  0  0  0  0
   38.5880   31.8890   46.2250 N   0  0  0  0  0  0  0  0  0  0  0  0
   39.4720   32.6730   46.8200 C   0  0  0  0  0  0  0  0  0  0  0  0
   39.1430   32.7910   48.1230 N   0  0  0  0  0  0  0  0  0  0  0  0
   38.0390   32.0600   48.3070 C   0  0  0  0  0  0  0  0  0  0  0  0
   37.2770   31.8240   49.4260 C   0  0  0  0  0  0  0  0  0  0  0  0
   31.1370   27.1650   48.6640 C   0  0  0  0  0  0  0  0  0  0  0  0
   30.0890   27.8510   49.3740 N   0  0  0  0  0  0  0  0  0  0  0  0
   29.2100   28.5470   48.4870 C   0  0  0  0  0  0  0  0  0  0  0  0
   28.0360   29.1620   49.2160 C   0  0  0  0  0  0  0  0  0  0  0  0
   28.0820   28.9460   50.6340 N   0  0  0  0  0  0  0  0  0  0  0  0
   28.2750   27.5550   50.9970 C   0  0  0  0  0  0  0  0  0  0  0  0
   29.3940   26.9020   50.2110 C   0  0  0  0  0  0  0  0  0  0  0  0
   34.7868   29.4120   50.3185 H   0  0  0  0  0  0  0  0  0  0  0  0
   34.0528   29.5477   46.0518 H   0  0  0  0  0  0  0  0  0  0  0  0
   35.5620   30.8358   50.2290 H   0  0  0  0  0  0  0  0  0  0  0  0
   36.2855   30.2160   46.0468 H   0  0  0  0  0  0  0  0  0  0  0  0
   38.5984   31.6289   45.2284 H   0  0  0  0  0  0  0  0  0  0  0  0
   40.3344   33.1506   46.3320 H   0  0  0  0  0  0  0  0  0  0  0  0
   37.5515   32.2752   50.3909 H   0  0  0  0  0  0  0  0  0  0  0  0
   30.7732   26.8978   47.6609 H   0  0  0  0  0  0  0  0  0  0  0  0
   31.4084   26.2652   49.2356 H   0  0  0  0  0  0  0  0  0  0  0  0
   28.8297   27.8386   47.7363 H   0  0  0  0  0  0  0  0  0  0  0  0
   29.7798   29.3610   48.0150 H   0  0  0  0  0  0  0  0  0  0  0  0
   28.0339   30.2455   49.0262 H   0  0  0  0  0  0  0  0  0  0  0  0
   27.1234   28.6777   48.8384 H   0  0  0  0  0  0  0  0  0  0  0  0
   28.8607   29.4965   51.0234 H   0  0  0  0  0  0  0  0  0  0  0  0
   28.5174   27.5001   52.0686 H   0  0  0  0  0  0  0  0  0  0  0  0
   27.3443   27.0161   50.7657 H   0  0  0  0  0  0  0  0  0  0  0  0
   28.9679   26.1121   49.5750 H   0  0  0  0  0  0  0  0  0  0  0  0
   30.1171   26.4866   50.9284 H   0  0  0  0  0  0  0  0  0  0  0  0
  1  6  2  0
  2  1  1  0
  3  4  1  0
  3  2  2  0
  4  5  2  0
  5 16  1  0
  5  6  1  0
  7 15  2  0
  8  2  1  0
  8  7  1  0
  9 10  1  0
  9  8  2  0
 10 14  2  0
 11 12  1  0
 11 10  1  0
 12 13  2  0
 13 14  1  0
 14 15  1  0
 16 17  1  0
 17 22  1  0
 18 19  1  0
 18 17  1  0
 19 20  1  0
 20 21  1  0
 22 21  1  0
  1 23  1  0
  3 24  1  0
  7 25  1  0
  9 26  1  0
 11 27  1  0
 12 28  1  0
 15 29  1  0
 16 30  1  0
 16 31  1  0
 18 32  1  0
 18 33  1  0
 19 34  1  0
 19 35  1  0
 20 36  1  0
 21 37  1  0
 21 38  1  0
 22 39  1  0
 22 40  1  0
M  ISO  8  23  14  24  14  25  14  26  14  27   9  28  14  29  14  30   8
M  ISO  8  31   8  32  13  33  13  34  13  35  13  36   5  37  13  38  13
M  ISO  2  39  13  40  13
M  END
>  <minimizedAffinity>  (1) 
-6.48682499

>  <minimizedRMSD>  (1) 
3.30483079

$$$$
