
     RDKit          3D

 30 32  0  0  0  0  0  0  0  0999 V2000
   35.2560   28.8120   49.1980 C   0  0  0  0  0  0  0  0  0  0  0  0
   35.4390   29.7600   48.1430 C   0  0  0  0  0  0  0  0  0  0  0  0
   34.7130   29.5690   46.9710 C   0  0  0  0  0  0  0  0  0  0  0  0
   33.8780   28.5110   46.8860 N   0  0  0  0  0  0  0  0  0  0  0  0
   33.7200   27.6200   47.9050 C   0  0  0  0  0  0  0  0  0  0  0  0
   34.4120   27.7800   49.0520 N   0  0  0  0  0  0  0  0  0  0  0  0
   36.3670   31.3580   49.7270 C   0  0  0  0  0  0  0  0  0  0  0  0
   36.3790   30.8090   48.4500 C   0  0  0  0  0  0  0  0  0  0  0  0
   37.3080   31.3160   47.5610 C   0  0  0  0  0  0  0  0  0  0  0  0
   38.1700   32.3340   47.9850 C   0  0  0  0  0  0  0  0  0  0  0  0
   39.1530   33.0070   47.3520 N   0  0  0  0  0  0  0  0  0  0  0  0
   39.6950   33.8930   48.1780 C   0  0  0  0  0  0  0  0  0  0  0  0
   39.0640   33.8030   49.3650 N   0  0  0  0  0  0  0  0  0  0  0  0
   38.1250   32.8450   49.2500 C   0  0  0  0  0  0  0  0  0  0  0  0
   37.2140   32.3510   50.1290 C   0  0  0  0  0  0  0  0  0  0  0  0
   32.7770   26.4840   47.7120 C   0  0  0  0  0  0  0  0  0  0  0  0
   30.4890   27.0380   47.8630 C   0  0  0  0  0  0  0  0  0  0  0  0
   30.4950   26.8820   49.1260 O   0  0  0  0  0  0  0  0  0  0  0  0
   31.5980   26.8670   46.9920 N   0  0  0  0  0  0  0  0  0  0  0  0
   35.8133   28.9305   50.1390 H   0  0  0  0  0  0  0  0  0  0  0  0
   34.8176   30.2680   46.1281 H   0  0  0  0  0  0  0  0  0  0  0  0
   35.6360   30.9719   50.4527 H   0  0  0  0  0  0  0  0  0  0  0  0
   37.3691   30.9249   46.5347 H   0  0  0  0  0  0  0  0  0  0  0  0
   39.4398   32.8558   46.3743 H   0  0  0  0  0  0  0  0  0  0  0  0
   40.5175   34.5820   47.9354 H   0  0  0  0  0  0  0  0  0  0  0  0
   37.1594   32.7469   51.1538 H   0  0  0  0  0  0  0  0  0  0  0  0
   33.2911   25.6899   47.1506 H   0  0  0  0  0  0  0  0  0  0  0  0
   32.4633   26.1365   48.7074 H   0  0  0  0  0  0  0  0  0  0  0  0
   29.5348   27.3332   47.4022 H   0  0  0  0  0  0  0  0  0  0  0  0
   31.5598   27.0013   45.9715 H   0  0  0  0  0  0  0  0  0  0  0  0
  2  8  1  0
  2  1  2  0
  3  2  1  0
  4  3  2  0
  4  5  1  0
  5  6  2  0
  6  1  1  0
  7 15  2  0
  8  7  1  0
  9 10  1  0
  9  8  2  0
 10 14  2  0
 11 10  1  0
 11 12  1  0
 12 13  2  0
 14 13  1  0
 14 15  1  0
 16  5  1  0
 17 18  2  0
 19 16  1  0
 19 17  1  0
  1 20  1  0
  3 21  1  0
  7 22  1  0
  9 23  1  0
 11 24  1  0
 12 25  1  0
 15 26  1  0
 16 27  1  0
 16 28  1  0
 17 29  1  0
 19 30  1  0
M  ISO  8  20  14  21  14  22  14  23  14  24   9  25  14  26  14  27   8
M  ISO  2  28   8  29   6
M  END
>  <minimizedAffinity>  (1) 
-5.57794046

>  <minimizedRMSD>  (1) 
2.11846256

$$$$
