
     RDKit          3D

 28 30  0  0  0  0  0  0  0  0999 V2000
   37.4200   31.3220   48.3930 C   0  0  0  0  0  0  0  0  0  0  0  0
   36.7340   30.8480   47.2810 C   0  0  0  0  0  0  0  0  0  0  0  0
   37.2240   31.1960   46.0310 C   0  0  0  0  0  0  0  0  0  0  0  0
   38.3640   31.9940   45.9450 C   0  0  0  0  0  0  0  0  0  0  0  0
   39.0640   32.4910   44.9120 N   0  0  0  0  0  0  0  0  0  0  0  0
   40.0890   33.2070   45.3540 C   0  0  0  0  0  0  0  0  0  0  0  0
   40.0790   33.1920   46.7020 N   0  0  0  0  0  0  0  0  0  0  0  0
   39.0180   32.4460   47.0640 C   0  0  0  0  0  0  0  0  0  0  0  0
   38.5390   32.1050   48.3100 C   0  0  0  0  0  0  0  0  0  0  0  0
   35.5880   29.2920   48.7180 C   0  0  0  0  0  0  0  0  0  0  0  0
   35.5690   30.0300   47.4980 C   0  0  0  0  0  0  0  0  0  0  0  0
   34.4520   29.8760   46.6870 C   0  0  0  0  0  0  0  0  0  0  0  0
   33.4580   29.0470   47.0910 N   0  0  0  0  0  0  0  0  0  0  0  0
   33.5140   28.3600   48.2640 C   0  0  0  0  0  0  0  0  0  0  0  0
   34.5860   28.4890   49.0750 N   0  0  0  0  0  0  0  0  0  0  0  0
   32.3630   27.4740   48.6130 C   0  0  0  0  0  0  0  0  0  0  0  0
   31.4190   28.2650   49.4000 N   0  0  0  0  0  0  0  0  0  0  0  0
   37.0439   31.0538   49.3913 H   0  0  0  0  0  0  0  0  0  0  0  0
   36.7192   30.8465   45.1183 H   0  0  0  0  0  0  0  0  0  0  0  0
   38.8372   32.3380   43.9190 H   0  0  0  0  0  0  0  0  0  0  0  0
   40.8259   33.7273   44.7245 H   0  0  0  0  0  0  0  0  0  0  0  0
   39.0465   32.4556   49.2208 H   0  0  0  0  0  0  0  0  0  0  0  0
   36.4570   29.3885   49.3855 H   0  0  0  0  0  0  0  0  0  0  0  0
   34.3750   30.4176   45.7327 H   0  0  0  0  0  0  0  0  0  0  0  0
   31.8759   27.1128   47.6952 H   0  0  0  0  0  0  0  0  0  0  0  0
   32.7077   26.6010   49.1866 H   0  0  0  0  0  0  0  0  0  0  0  0
   31.5980   28.1150   50.4032 H   0  0  0  0  0  0  0  0  0  0  0  0
   31.5370   29.2633   49.1757 H   0  0  0  0  0  0  0  0  0  0  0  0
  2 11  1  0
  2  1  2  0
  3  2  1  0
  4  3  2  0
  4  8  1  0
  5  6  1  0
  5  4  1  0
  6  7  2  0
  7  8  1  0
  8  9  2  0
  9  1  1  0
 10 15  2  0
 11 10  1  0
 12 13  1  0
 12 11  2  0
 13 14  2  0
 14 16  1  0
 14 15  1  0
 16 17  1  0
  1 18  1  0
  3 19  1  0
  5 20  1  0
  6 21  1  0
  9 22  1  0
 10 23  1  0
 12 24  1  0
 16 25  1  0
 16 26  1  0
 17 27  1  0
 17 28  1  0
M  ISO  8  18  14  19  14  20   9  21  14  22  14  23  14  24  14  25   8
M  ISO  3  26   8  27   5  28   5
M  END
>  <minimizedAffinity>  (1) 
-5.26217127

>  <minimizedRMSD>  (1) 
0.0756712854

$$$$
