
     RDKit          3D

 50 54  0  0  1  0  0  0  0  0999 V2000
   31.0170   26.8980   48.2160 C   0  0  0  0  0  0  0  0  0  0  0  0
   29.7390   27.6490   47.9930 C   0  0  1  0  0  0  0  0  0  0  0  0
   28.8440   26.7210   47.1660 C   0  0  0  0  0  0  0  0  0  0  0  0
   27.5800   26.5110   47.9510 C   0  0  0  0  0  0  0  0  0  0  0  0
   28.0090   26.7230   49.3620 C   0  0  0  0  0  0  0  0  0  0  0  0
   28.9470   27.9050   49.2290 C   0  0  2  0  0  0  0  0  0  0  0  0
   26.1000   28.3750   50.4790 O   0  0  0  0  0  0  0  0  0  0  0  0
   26.8090   29.0390   49.6510 C   0  0  0  0  0  0  0  0  0  0  0  0
   28.1570   29.1750   49.0880 C   0  0  2  0  0  0  0  0  0  0  0  0
   27.9050   29.5770   47.6710 C   0  0  0  0  0  0  0  0  0  0  0  0
   26.7550   30.5570   47.8370 C   0  0  0  0  0  0  0  0  0  0  0  0
   26.0250   30.0570   48.9940 N   0  0  0  0  0  0  0  0  0  0  0  0
   33.8920   28.9070   49.4150 C   0  0  0  0  0  0  0  0  0  0  0  0
   34.3770   29.4770   48.2310 C   0  0  0  0  0  0  0  0  0  0  0  0
   33.7100   29.1620   47.0490 C   0  0  0  0  0  0  0  0  0  0  0  0
   32.6450   28.3360   47.0960 N   0  0  0  0  0  0  0  0  0  0  0  0
   32.2020   27.7990   48.2720 C   0  0  0  0  0  0  0  0  0  0  0  0
   32.8330   28.0940   49.4050 N   0  0  0  0  0  0  0  0  0  0  0  0
   35.7720   30.8910   49.6170 C   0  0  0  0  0  0  0  0  0  0  0  0
   35.5310   30.3390   48.3780 C   0  0  0  0  0  0  0  0  0  0  0  0
   36.4220   30.6580   47.3640 C   0  0  0  0  0  0  0  0  0  0  0  0
   37.4990   31.5050   47.6420 C   0  0  0  0  0  0  0  0  0  0  0  0
   38.4920   31.9720   46.8740 N   0  0  0  0  0  0  0  0  0  0  0  0
   39.2850   32.7520   47.5870 C   0  0  0  0  0  0  0  0  0  0  0  0
   38.8090   32.8030   48.8480 N   0  0  0  0  0  0  0  0  0  0  0  0
   37.7030   32.0320   48.8860 C   0  0  0  0  0  0  0  0  0  0  0  0
   36.8260   31.7220   49.8950 C   0  0  0  0  0  0  0  0  0  0  0  0
   31.1553   26.1831   47.3915 H   0  0  0  0  0  0  0  0  0  0  0  0
   30.9397   26.3844   49.1856 H   0  0  0  0  0  0  0  0  0  0  0  0
   30.0107   28.6141   47.5406 H   0  0  0  0  0  0  0  0  0  0  0  0
   29.3496   25.7582   47.0004 H   0  0  0  0  0  0  0  0  0  0  0  0
   28.6252   27.1624   46.1825 H   0  0  0  0  0  0  0  0  0  0  0  0
   26.8103   27.2410   47.6600 H   0  0  0  0  0  0  0  0  0  0  0  0
   27.1305   25.5211   47.7835 H   0  0  0  0  0  0  0  0  0  0  0  0
   27.1523   26.9629   50.0089 H   0  0  0  0  0  0  0  0  0  0  0  0
   28.4716   25.8382   49.8237 H   0  0  0  0  0  0  0  0  0  0  0  0
   29.5947   28.0176   50.1109 H   0  0  0  0  0  0  0  0  0  0  0  0
   28.7796   29.9167   49.6098 H   0  0  0  0  0  0  0  0  0  0  0  0
   28.7868   30.0628   47.2278 H   0  0  0  0  0  0  0  0  0  0  0  0
   27.6851   28.7357   46.9973 H   0  0  0  0  0  0  0  0  0  0  0  0
   27.1322   31.5735   48.0229 H   0  0  0  0  0  0  0  0  0  0  0  0
   26.1251   30.6243   46.9377 H   0  0  0  0  0  0  0  0  0  0  0  0
   25.0946   30.3796   49.2960 H   0  0  0  0  0  0  0  0  0  0  0  0
   34.3917   29.1329   50.3685 H   0  0  0  0  0  0  0  0  0  0  0  0
   34.0477   29.5816   46.0899 H   0  0  0  0  0  0  0  0  0  0  0  0
   35.0756   30.6500   50.4336 H   0  0  0  0  0  0  0  0  0  0  0  0
   36.2828   30.2491   46.3523 H   0  0  0  0  0  0  0  0  0  0  0  0
   38.6187   31.7551   45.8751 H   0  0  0  0  0  0  0  0  0  0  0  0
   40.1807   33.2713   47.2155 H   0  0  0  0  0  0  0  0  0  0  0  0
   36.9660   32.1320   50.9061 H   0  0  0  0  0  0  0  0  0  0  0  0
  1 17  1  0
  2  1  1  0
  2  6  1  0
  3  4  1  0
  3  2  1  0
  4  5  1  0
  6  5  1  0
  8  7  2  0
  9 10  1  0
  9  6  1  0
  9  8  1  0
 10 11  1  0
 11 12  1  0
 12  8  1  0
 14 20  1  0
 14 13  2  0
 15 16  2  0
 15 14  1  0
 16 17  1  0
 17 18  2  0
 18 13  1  0
 19 27  2  0
 20 19  1  0
 21 22  1  0
 21 20  2  0
 22 26  2  0
 23 24  1  0
 23 22  1  0
 24 25  2  0
 25 26  1  0
 26 27  1  0
  1 28  1  0
  1 29  1  0
  2 30  1  6
  3 31  1  0
  3 32  1  0
  4 33  1  0
  4 34  1  0
  5 35  1  0
  5 36  1  0
  6 37  1  1
  9 38  1  1
 10 39  1  0
 10 40  1  0
 11 41  1  0
 11 42  1  0
 12 43  1  0
 13 44  1  0
 15 45  1  0
 19 46  1  0
 21 47  1  0
 23 48  1  0
 24 49  1  0
 27 50  1  0
M  ISO  8  28   8  29   8  30  13  31  13  32  13  33  13  34  13  35  13
M  ISO  8  36  13  37  13  38  13  39  13  40  13  41  13  42  13  43  10
M  ISO  7  44  14  45  14  46  14  47  14  48   9  49  14  50  14
M  END
>  <minimizedAffinity>  (1) 
-7.344244

>  <minimizedRMSD>  (1) 
1.38312066

$$$$
