
     RDKit          3D

 54 58  0  0  1  0  0  0  0  0999 V2000
   31.1970   27.0050   47.7780 C   0  0  0  0  0  0  0  0  0  0  0  0
   29.9130   27.7550   47.5410 C   0  0  1  0  0  0  0  0  0  0  0  0
   29.6330   27.7070   46.0520 C   0  0  0  0  0  0  0  0  0  0  0  0
   28.3340   26.9770   45.8470 C   0  0  0  0  0  0  0  0  0  0  0  0
   28.1650   26.1690   47.0860 C   0  0  0  0  0  0  0  0  0  0  0  0
   28.7310   27.0700   48.1620 C   0  0  2  0  0  0  0  0  0  0  0  0
   27.7950   27.8750   48.8020 N   0  0  0  0  0  0  0  0  0  0  0  0
   26.4260   27.5650   48.7960 C   0  0  0  0  0  0  0  0  0  0  0  0
   25.5810   28.7870   49.1740 C   0  0  0  0  0  0  0  0  0  0  0  0
   26.2830   30.0850   48.8440 C   0  0  0  0  0  0  0  0  0  0  0  0
   27.6060   30.2110   49.5280 C   0  0  0  0  0  0  0  0  0  0  0  0
   28.2280   28.8470   49.7360 C   0  0  0  0  0  0  0  0  0  0  0  0
   34.0030   28.9390   49.2360 C   0  0  0  0  0  0  0  0  0  0  0  0
   34.5160   29.6200   48.1300 C   0  0  0  0  0  0  0  0  0  0  0  0
   33.8880   29.4010   46.9040 C   0  0  0  0  0  0  0  0  0  0  0  0
   32.8380   28.5610   46.8430 N   0  0  0  0  0  0  0  0  0  0  0  0
   32.3640   27.9130   47.9460 C   0  0  0  0  0  0  0  0  0  0  0  0
   32.9580   28.1160   49.1220 N   0  0  0  0  0  0  0  0  0  0  0  0
   35.8810   30.8670   49.6850 C   0  0  0  0  0  0  0  0  0  0  0  0
   35.6440   30.4810   48.3710 C   0  0  0  0  0  0  0  0  0  0  0  0
   36.5240   30.9680   47.4290 C   0  0  0  0  0  0  0  0  0  0  0  0
   37.5780   31.7980   47.8150 C   0  0  0  0  0  0  0  0  0  0  0  0
   38.5490   32.3900   47.1110 N   0  0  0  0  0  0  0  0  0  0  0  0
   39.3280   33.0890   47.9220 C   0  0  0  0  0  0  0  0  0  0  0  0
   38.8550   32.9510   49.1890 N   0  0  0  0  0  0  0  0  0  0  0  0
   37.7750   32.1540   49.1210 C   0  0  0  0  0  0  0  0  0  0  0  0
   36.9140   31.6820   50.0730 C   0  0  0  0  0  0  0  0  0  0  0  0
   31.3842   26.3452   46.9180 H   0  0  0  0  0  0  0  0  0  0  0  0
   31.0824   26.4317   48.7098 H   0  0  0  0  0  0  0  0  0  0  0  0
   30.0354   28.7640   47.9616 H   0  0  0  0  0  0  0  0  0  0  0  0
   29.5536   28.7293   45.6539 H   0  0  0  0  0  0  0  0  0  0  0  0
   30.4492   27.1901   45.5260 H   0  0  0  0  0  0  0  0  0  0  0  0
   27.5025   27.6874   45.7289 H   0  0  0  0  0  0  0  0  0  0  0  0
   28.3401   26.3564   44.9388 H   0  0  0  0  0  0  0  0  0  0  0  0
   27.1034   25.9494   47.2727 H   0  0  0  0  0  0  0  0  0  0  0  0
   28.6633   25.1897   47.0353 H   0  0  0  0  0  0  0  0  0  0  0  0
   29.0715   26.4927   49.0342 H   0  0  0  0  0  0  0  0  0  0  0  0
   26.1387   27.2272   47.7894 H   0  0  0  0  0  0  0  0  0  0  0  0
   26.2443   26.7723   49.5367 H   0  0  0  0  0  0  0  0  0  0  0  0
   24.6309   28.7466   48.6212 H   0  0  0  0  0  0  0  0  0  0  0  0
   25.4106   28.7595   50.2604 H   0  0  0  0  0  0  0  0  0  0  0  0
   26.4422   30.1333   47.7566 H   0  0  0  0  0  0  0  0  0  0  0  0
   25.6450   30.9087   49.1967 H   0  0  0  0  0  0  0  0  0  0  0  0
   28.2769   30.8239   48.9082 H   0  0  0  0  0  0  0  0  0  0  0  0
   27.4554   30.6863   50.5085 H   0  0  0  0  0  0  0  0  0  0  0  0
   27.9686   28.4975   50.7462 H   0  0  0  0  0  0  0  0  0  0  0  0
   29.3130   28.9643   49.5979 H   0  0  0  0  0  0  0  0  0  0  0  0
   34.4696   29.0837   50.2216 H   0  0  0  0  0  0  0  0  0  0  0  0
   34.2469   29.9092   45.9968 H   0  0  0  0  0  0  0  0  0  0  0  0
   35.1973   30.4957   50.4626 H   0  0  0  0  0  0  0  0  0  0  0  0
   36.3955   30.7019   46.3694 H   0  0  0  0  0  0  0  0  0  0  0  0
   38.6722   32.3136   46.0913 H   0  0  0  0  0  0  0  0  0  0  0  0
   40.2063   33.6795   47.6223 H   0  0  0  0  0  0  0  0  0  0  0  0
   37.0475   31.9511   51.1312 H   0  0  0  0  0  0  0  0  0  0  0  0
  1 17  1  0
  2  1  1  0
  2  6  1  0
  3  2  1  0
  4  3  1  0
  4  5  1  0
  5  6  1  0
  6  7  1  0
  7 12  1  0
  8  7  1  0
  8  9  1  0
 10  9  1  0
 10 11  1  0
 11 12  1  0
 14 20  1  0
 14 13  2  0
 15 14  1  0
 16 15  2  0
 16 17  1  0
 17 18  2  0
 18 13  1  0
 19 27  2  0
 20 19  1  0
 21 22  1  0
 21 20  2  0
 22 26  2  0
 23 22  1  0
 23 24  1  0
 24 25  2  0
 26 25  1  0
 26 27  1  0
  1 28  1  0
  1 29  1  0
  2 30  1  1
  3 31  1  0
  3 32  1  0
  4 33  1  0
  4 34  1  0
  5 35  1  0
  5 36  1  0
  6 37  1  1
  8 38  1  0
  8 39  1  0
  9 40  1  0
  9 41  1  0
 10 42  1  0
 10 43  1  0
 11 44  1  0
 11 45  1  0
 12 46  1  0
 12 47  1  0
 13 48  1  0
 15 49  1  0
 19 50  1  0
 21 51  1  0
 23 52  1  0
 24 53  1  0
 27 54  1  0
M  ISO  8  28   8  29   8  30  13  31  13  32  13  33  13  34  13  35  13
M  ISO  8  36  13  37  13  38  13  39  13  40  13  41  13  42  13  43  13
M  ISO  8  44  13  45  13  46  13  47  13  48  14  49  14  50  14  51  14
M  ISO  3  52   9  53  14  54  14
M  END
>  <minimizedAffinity>  (1) 
-7.24743032

>  <minimizedRMSD>  (1) 
1.95208073

$$$$
