
     RDKit          3D

 47 51  0  0  1  0  0  0  0  0999 V2000
   31.0750   26.9460   47.9420 C   0  0  0  0  0  0  0  0  0  0  0  0
   29.8340   27.6610   47.5410 C   0  0  1  0  0  0  0  0  0  0  0  0
   29.6140   27.4110   46.0620 C   0  0  0  0  0  0  0  0  0  0  0  0
   28.2860   26.7460   45.8980 C   0  0  0  0  0  0  0  0  0  0  0  0
   28.0460   26.0890   47.2360 C   0  0  0  0  0  0  0  0  0  0  0  0
   28.5830   27.1270   48.1940 C   0  0  2  0  0  0  0  0  0  0  0  0
   27.6290   28.2160   48.4770 C   0  0  0  0  0  0  0  0  0  0  0  0
   26.2700   27.9430   48.6700 C   0  0  0  0  0  0  0  0  0  0  0  0
   25.3100   28.9180   48.9410 C   0  0  0  0  0  0  0  0  0  0  0  0
   25.8050   30.1890   49.0050 N   0  0  0  0  0  0  0  0  0  0  0  0
   27.1130   30.4400   48.8190 C   0  0  0  0  0  0  0  0  0  0  0  0
   28.0440   29.5030   48.5560 N   0  0  0  0  0  0  0  0  0  0  0  0
   33.9220   28.9010   49.2730 C   0  0  0  0  0  0  0  0  0  0  0  0
   34.4250   29.5430   48.1370 C   0  0  0  0  0  0  0  0  0  0  0  0
   33.7700   29.2900   46.9240 C   0  0  0  0  0  0  0  0  0  0  0  0
   32.7130   28.4570   46.9240 N   0  0  0  0  0  0  0  0  0  0  0  0
   32.2480   27.8490   48.0380 C   0  0  0  0  0  0  0  0  0  0  0  0
   32.8650   28.0840   49.2020 N   0  0  0  0  0  0  0  0  0  0  0  0
   35.7650   30.8990   49.6200 C   0  0  0  0  0  0  0  0  0  0  0  0
   35.5660   30.3970   48.3430 C   0  0  0  0  0  0  0  0  0  0  0  0
   36.4870   30.7690   47.3870 C   0  0  0  0  0  0  0  0  0  0  0  0
   37.5520   31.6080   47.7270 C   0  0  0  0  0  0  0  0  0  0  0  0
   38.5600   32.1110   47.0210 N   0  0  0  0  0  0  0  0  0  0  0  0
   39.3320   32.8660   47.7840 C   0  0  0  0  0  0  0  0  0  0  0  0
   38.8080   32.8550   49.0350 N   0  0  0  0  0  0  0  0  0  0  0  0
   37.7090   32.0800   49.0020 C   0  0  0  0  0  0  0  0  0  0  0  0
   36.8070   31.7220   49.9610 C   0  0  0  0  0  0  0  0  0  0  0  0
   31.2899   26.1674   47.1952 H   0  0  0  0  0  0  0  0  0  0  0  0
   30.9037   26.5152   48.9395 H   0  0  0  0  0  0  0  0  0  0  0  0
   29.9811   28.7126   47.8284 H   0  0  0  0  0  0  0  0  0  0  0  0
   29.6229   28.3663   45.5167 H   0  0  0  0  0  0  0  0  0  0  0  0
   30.4135   26.7715   45.6597 H   0  0  0  0  0  0  0  0  0  0  0  0
   27.5018   27.4853   45.6779 H   0  0  0  0  0  0  0  0  0  0  0  0
   28.2683   26.0303   45.0628 H   0  0  0  0  0  0  0  0  0  0  0  0
   26.9747   25.9049   47.4049 H   0  0  0  0  0  0  0  0  0  0  0  0
   28.5210   25.1021   47.3381 H   0  0  0  0  0  0  0  0  0  0  0  0
   28.7772   26.6719   49.1764 H   0  0  0  0  0  0  0  0  0  0  0  0
   25.9388   26.8961   48.6040 H   0  0  0  0  0  0  0  0  0  0  0  0
   24.2458   28.6832   49.0903 H   0  0  0  0  0  0  0  0  0  0  0  0
   27.4466   31.4860   48.8865 H   0  0  0  0  0  0  0  0  0  0  0  0
   34.4059   29.0715   50.2460 H   0  0  0  0  0  0  0  0  0  0  0  0
   34.1127   29.7624   45.9916 H   0  0  0  0  0  0  0  0  0  0  0  0
   35.0457   30.6210   50.4044 H   0  0  0  0  0  0  0  0  0  0  0  0
   36.3835   30.4047   46.3542 H   0  0  0  0  0  0  0  0  0  0  0  0
   38.7177   31.9366   46.0182 H   0  0  0  0  0  0  0  0  0  0  0  0
   40.2353   33.4052   47.4626 H   0  0  0  0  0  0  0  0  0  0  0  0
   36.9143   32.0883   50.9926 H   0  0  0  0  0  0  0  0  0  0  0  0
  1 17  1  0
  2  1  1  0
  2  6  1  0
  3  2  1  0
  4  3  1  0
  4  5  1  0
  5  6  1  0
  6  7  1  0
  7 12  1  0
  7  8  2  0
  8  9  1  0
  9 10  2  0
 11 10  1  0
 12 11  2  0
 14 20  1  0
 14 13  2  0
 15 14  1  0
 16 15  2  0
 16 17  1  0
 17 18  2  0
 18 13  1  0
 19 27  2  0
 20 19  1  0
 21 22  1  0
 21 20  2  0
 22 26  2  0
 23 22  1  0
 23 24  1  0
 24 25  2  0
 26 25  1  0
 26 27  1  0
  1 28  1  0
  1 29  1  0
  2 30  1  6
  3 31  1  0
  3 32  1  0
  4 33  1  0
  4 34  1  0
  5 35  1  0
  5 36  1  0
  6 37  1  1
  8 38  1  0
  9 39  1  0
 11 40  1  0
 13 41  1  0
 15 42  1  0
 19 43  1  0
 21 44  1  0
 23 45  1  0
 24 46  1  0
 27 47  1  0
M  ISO  8  28   8  29   8  30  13  31  13  32  13  33  13  34  13  35  13
M  ISO  8  36  13  37  13  38  14  39  14  40  14  41  14  42  14  43  14
M  ISO  4  44  14  45   9  46  14  47  14
M  END
>  <minimizedAffinity>  (1) 
-7.17183304

>  <minimizedRMSD>  (1) 
1.901281

$$$$
