
     RDKit          3D

 55 59  0  0  1  0  0  0  0  0999 V2000
   33.9650   28.9330   49.4180 C   0  0  0  0  0  0  0  0  0  0  0  0
   34.4650   29.5300   48.2530 C   0  0  0  0  0  0  0  0  0  0  0  0
   33.8310   29.2110   47.0360 C   0  0  0  0  0  0  0  0  0  0  0  0
   32.7870   28.3550   47.0600 N   0  0  0  0  0  0  0  0  0  0  0  0
   32.3330   27.7970   48.2170 C   0  0  0  0  0  0  0  0  0  0  0  0
   32.9270   28.0910   49.3860 N   0  0  0  0  0  0  0  0  0  0  0  0
   35.8550   30.8690   49.6950 C   0  0  0  0  0  0  0  0  0  0  0  0
   35.5890   30.4190   48.4300 C   0  0  0  0  0  0  0  0  0  0  0  0
   36.4300   30.8580   47.4150 C   0  0  0  0  0  0  0  0  0  0  0  0
   37.4870   31.7230   47.7220 C   0  0  0  0  0  0  0  0  0  0  0  0
   38.4320   32.2900   46.9640 N   0  0  0  0  0  0  0  0  0  0  0  0
   39.2230   33.0440   47.7400 C   0  0  0  0  0  0  0  0  0  0  0  0
   38.7850   32.9590   49.0030 N   0  0  0  0  0  0  0  0  0  0  0  0
   37.7150   32.1460   49.0000 C   0  0  0  0  0  0  0  0  0  0  0  0
   36.8940   31.7180   50.0030 C   0  0  0  0  0  0  0  0  0  0  0  0
   31.1780   26.8670   48.1390 C   0  0  0  0  0  0  0  0  0  0  0  0
   29.9320   27.5250   47.6180 C   0  0  1  0  0  0  0  0  0  0  0  0
   29.1610   26.4060   46.9010 C   0  0  0  0  0  0  0  0  0  0  0  0
   27.7790   26.4280   47.5010 C   0  0  0  0  0  0  0  0  0  0  0  0
   28.0400   26.8610   48.9040 C   0  0  0  0  0  0  0  0  0  0  0  0
   29.0230   27.9870   48.7060 C   0  0  2  0  0  0  0  0  0  0  0  0
   28.4160   29.3050   48.4140 C   0  0  0  0  0  0  0  0  0  0  0  0
   27.3750   29.6080   49.4640 C   0  0  0  0  0  0  0  0  0  0  0  0
   27.0150   31.0930   49.3370 C   0  0  0  0  0  0  0  0  0  0  0  0
   26.2300   31.1670   48.0210 C   0  0  0  0  0  0  0  0  0  0  0  0
   27.1730   30.7840   46.9220 C   0  0  0  0  0  0  0  0  0  0  0  0
   27.7320   29.3800   47.0780 C   0  0  0  0  0  0  0  0  0  0  0  0
   34.4388   29.1631   50.3837 H   0  0  0  0  0  0  0  0  0  0  0  0
   34.1783   29.6489   46.0886 H   0  0  0  0  0  0  0  0  0  0  0  0
   35.2007   30.5328   50.5128 H   0  0  0  0  0  0  0  0  0  0  0  0
   36.2666   30.5285   46.3783 H   0  0  0  0  0  0  0  0  0  0  0  0
   38.5353   32.1669   45.9466 H   0  0  0  0  0  0  0  0  0  0  0  0
   40.0864   33.6333   47.3974 H   0  0  0  0  0  0  0  0  0  0  0  0
   37.0598   32.0459   51.0398 H   0  0  0  0  0  0  0  0  0  0  0  0
   31.4418   26.0350   47.4695 H   0  0  0  0  0  0  0  0  0  0  0  0
   30.9650   26.5186   49.1604 H   0  0  0  0  0  0  0  0  0  0  0  0
   30.2170   28.3905   47.0018 H   0  0  0  0  0  0  0  0  0  0  0  0
   29.6421   25.4326   47.0772 H   0  0  0  0  0  0  0  0  0  0  0  0
   29.1376   26.5569   45.8117 H   0  0  0  0  0  0  0  0  0  0  0  0
   27.1305   27.1462   46.9780 H   0  0  0  0  0  0  0  0  0  0  0  0
   27.2565   25.4625   47.4313 H   0  0  0  0  0  0  0  0  0  0  0  0
   27.1194   27.2150   49.3910 H   0  0  0  0  0  0  0  0  0  0  0  0
   28.4123   26.0562   49.5549 H   0  0  0  0  0  0  0  0  0  0  0  0
   29.5580   28.1835   49.6468 H   0  0  0  0  0  0  0  0  0  0  0  0
   29.2456   30.0273   48.4095 H   0  0  0  0  0  0  0  0  0  0  0  0
   26.4813   28.9888   49.2972 H   0  0  0  0  0  0  0  0  0  0  0  0
   27.7616   29.3865   50.4697 H   0  0  0  0  0  0  0  0  0  0  0  0
   26.3929   31.4194   50.1835 H   0  0  0  0  0  0  0  0  0  0  0  0
   27.8991   31.7474   49.3428 H   0  0  0  0  0  0  0  0  0  0  0  0
   25.3802   30.4691   48.0491 H   0  0  0  0  0  0  0  0  0  0  0  0
   25.8321   32.1797   47.8595 H   0  0  0  0  0  0  0  0  0  0  0  0
   28.0115   31.4959   46.9164 H   0  0  0  0  0  0  0  0  0  0  0  0
   26.6056   30.8081   45.9800 H   0  0  0  0  0  0  0  0  0  0  0  0
   26.9151   28.6447   47.0338 H   0  0  0  0  0  0  0  0  0  0  0  0
   28.4429   29.1568   46.2688 H   0  0  0  0  0  0  0  0  0  0  0  0
  2  8  1  0
  2  1  2  0
  3  4  2  0
  3  2  1  0
  4  5  1  0
  5  6  2  0
  6  1  1  0
  7 15  2  0
  8  7  1  0
  9 10  1  0
  9  8  2  0
 10 14  2  0
 11 10  1  0
 11 12  1  0
 12 13  2  0
 14 13  1  0
 14 15  1  0
 16  5  1  0
 17 16  1  0
 17 21  1  0
 18 19  1  0
 18 17  1  0
 19 20  1  0
 21 20  1  0
 22 21  1  0
 22 23  1  0
 24 23  1  0
 25 24  1  0
 26 27  1  0
 26 25  1  0
 27 22  1  0
  1 28  1  0
  3 29  1  0
  7 30  1  0
  9 31  1  0
 11 32  1  0
 12 33  1  0
 15 34  1  0
 16 35  1  0
 16 36  1  0
 17 37  1  6
 18 38  1  0
 18 39  1  0
 19 40  1  0
 19 41  1  0
 20 42  1  0
 20 43  1  0
 21 44  1  1
 22 45  1  0
 23 46  1  0
 23 47  1  0
 24 48  1  0
 24 49  1  0
 25 50  1  0
 25 51  1  0
 26 52  1  0
 26 53  1  0
 27 54  1  0
 27 55  1  0
M  ISO  8  28  14  29  14  30  14  31  14  32   9  33  14  34  14  35   8
M  ISO  8  36   8  37  13  38  13  39  13  40  13  41  13  42  13  43  13
M  ISO  8  44  13  45  13  46  13  47  13  48  13  49  13  50  13  51  13
M  ISO  4  52  13  53  13  54  13  55  13
M  END
>  <minimizedAffinity>  (1) 
-7.02578878

>  <minimizedRMSD>  (1) 
1.59892118

$$$$
