
     RDKit          3D

 46 50  0  0  1  0  0  0  0  0999 V2000
   33.9260   28.8570   49.3270 C   0  0  0  0  0  0  0  0  0  0  0  0
   34.3750   29.5140   48.1720 C   0  0  0  0  0  0  0  0  0  0  0  0
   33.6710   29.2900   46.9870 C   0  0  0  0  0  0  0  0  0  0  0  0
   32.6060   28.4650   47.0030 N   0  0  0  0  0  0  0  0  0  0  0  0
   32.1940   27.8420   48.1440 C   0  0  0  0  0  0  0  0  0  0  0  0
   32.8660   28.0560   49.2710 N   0  0  0  0  0  0  0  0  0  0  0  0
   35.7600   30.9050   49.5910 C   0  0  0  0  0  0  0  0  0  0  0  0
   35.5370   30.3670   48.3280 C   0  0  0  0  0  0  0  0  0  0  0  0
   36.4440   30.6930   47.3330 C   0  0  0  0  0  0  0  0  0  0  0  0
   37.5180   31.5340   47.6500 C   0  0  0  0  0  0  0  0  0  0  0  0
   38.5230   32.0020   46.8960 N   0  0  0  0  0  0  0  0  0  0  0  0
   39.3120   32.7770   47.6460 C   0  0  0  0  0  0  0  0  0  0  0  0
   38.8140   32.8100   48.8890 N   0  0  0  0  0  0  0  0  0  0  0  0
   37.7030   32.0470   48.9120 C   0  0  0  0  0  0  0  0  0  0  0  0
   36.8150   31.7280   49.8890 C   0  0  0  0  0  0  0  0  0  0  0  0
   31.0080   26.9420   48.1110 C   0  0  0  0  0  0  0  0  0  0  0  0
   30.2290   27.0930   46.8540 C   0  0  1  0  0  0  0  0  0  0  0  0
   30.1860   25.7140   46.1830 C   0  0  0  0  0  0  0  0  0  0  0  0
   28.7380   25.3620   46.0150 C   0  0  0  0  0  0  0  0  0  0  0  0
   28.0730   26.1290   47.1120 C   0  0  0  0  0  0  0  0  0  0  0  0
   28.8010   27.4820   46.9980 C   0  0  1  0  0  0  0  0  0  0  0  0
   28.4120   28.4130   47.9980 C   0  0  0  0  0  0  0  0  0  0  0  0
   28.6050   28.6030   49.3400 C   0  0  0  0  0  0  0  0  0  0  0  0
   28.0450   29.6670   49.9950 C   0  0  0  0  0  0  0  0  0  0  0  0
   27.2720   30.5610   49.2840 C   0  0  0  0  0  0  0  0  0  0  0  0
   27.3070   29.8910   47.5380 S   0  0  0  0  0  0  0  0  0  0  0  0
   34.4521   29.0047   50.2817 H   0  0  0  0  0  0  0  0  0  0  0  0
   33.9819   29.7806   46.0529 H   0  0  0  0  0  0  0  0  0  0  0  0
   35.0511   30.6566   50.3946 H   0  0  0  0  0  0  0  0  0  0  0  0
   36.3229   30.2988   46.3132 H   0  0  0  0  0  0  0  0  0  0  0  0
   38.6645   31.7966   45.8967 H   0  0  0  0  0  0  0  0  0  0  0  0
   40.2167   33.2991   47.3012 H   0  0  0  0  0  0  0  0  0  0  0  0
   36.9409   32.1252   50.9070 H   0  0  0  0  0  0  0  0  0  0  0  0
   31.3506   25.9000   48.1935 H   0  0  0  0  0  0  0  0  0  0  0  0
   30.3524   27.2131   48.9516 H   0  0  0  0  0  0  0  0  0  0  0  0
   30.7355   27.8991   46.3029 H   0  0  0  0  0  0  0  0  0  0  0  0
   30.6828   25.7538   45.2024 H   0  0  0  0  0  0  0  0  0  0  0  0
   30.7084   24.9612   46.7916 H   0  0  0  0  0  0  0  0  0  0  0  0
   28.3662   25.6795   45.0296 H   0  0  0  0  0  0  0  0  0  0  0  0
   28.5473   24.2799   46.0670 H   0  0  0  0  0  0  0  0  0  0  0  0
   26.9924   26.2342   46.9353 H   0  0  0  0  0  0  0  0  0  0  0  0
   28.1395   25.6574   48.1035 H   0  0  0  0  0  0  0  0  0  0  0  0
   28.5282   28.0997   46.1296 H   0  0  0  0  0  0  0  0  0  0  0  0
   29.2219   27.8870   49.9029 H   0  0  0  0  0  0  0  0  0  0  0  0
   28.2094   29.8069   51.0736 H   0  0  0  0  0  0  0  0  0  0  0  0
   26.7558   31.4581   49.6565 H   0  0  0  0  0  0  0  0  0  0  0  0
  2  8  1  0
  2  1  2  0
  3  4  2  0
  3  2  1  0
  4  5  1  0
  5  6  2  0
  6  1  1  0
  7 15  2  0
  8  7  1  0
  9 10  1  0
  9  8  2  0
 10 14  2  0
 11 12  1  0
 11 10  1  0
 12 13  2  0
 13 14  1  0
 14 15  1  0
 16  5  1  0
 17 21  1  0
 17 16  1  0
 18 17  1  0
 19 18  1  0
 19 20  1  0
 21 20  1  0
 21 22  1  0
 22 23  2  0
 23 24  1  0
 25 24  2  0
 26 22  1  0
 26 25  1  0
  1 27  1  0
  3 28  1  0
  7 29  1  0
  9 30  1  0
 11 31  1  0
 12 32  1  0
 15 33  1  0
 16 34  1  0
 16 35  1  0
 17 36  1  6
 18 37  1  0
 18 38  1  0
 19 39  1  0
 19 40  1  0
 20 41  1  0
 20 42  1  0
 21 43  1  6
 23 44  1  0
 24 45  1  0
 25 46  1  0
M  ISO  8  27  14  28  14  29  14  30  14  31   9  32  14  33  14  34   8
M  ISO  8  35   8  36  13  37  13  38  13  39  13  40  13  41  13  42  13
M  ISO  4  43  13  44  14  45  14  46  14
M  END
>  <minimizedAffinity>  (1) 
-6.75991106

>  <minimizedRMSD>  (1) 
2.67507792

$$$$
