
     RDKit          3D

 41 44  0  0  1  0  0  0  0  0999 V2000
   34.6360   28.8230   49.0700 C   0  0  0  0  0  0  0  0  0  0  0  0
   34.7520   29.6520   47.9280 C   0  0  0  0  0  0  0  0  0  0  0  0
   33.7250   29.5950   46.9890 C   0  0  0  0  0  0  0  0  0  0  0  0
   32.6820   28.7590   47.2180 N   0  0  0  0  0  0  0  0  0  0  0  0
   32.6020   27.9810   48.3210 C   0  0  0  0  0  0  0  0  0  0  0  0
   33.5820   28.0190   49.2420 N   0  0  0  0  0  0  0  0  0  0  0  0
   36.3760   31.0590   49.0490 C   0  0  0  0  0  0  0  0  0  0  0  0
   35.9380   30.4690   47.8700 C   0  0  0  0  0  0  0  0  0  0  0  0
   36.6860   30.7240   46.7390 C   0  0  0  0  0  0  0  0  0  0  0  0
   37.8240   31.5400   46.8160 C   0  0  0  0  0  0  0  0  0  0  0  0
   38.7080   31.9440   45.9110 N   0  0  0  0  0  0  0  0  0  0  0  0
   39.6180   32.7180   46.4760 C   0  0  0  0  0  0  0  0  0  0  0  0
   39.3250   32.8240   47.7800 N   0  0  0  0  0  0  0  0  0  0  0  0
   38.2100   32.0970   48.0080 C   0  0  0  0  0  0  0  0  0  0  0  0
   37.4830   31.8560   49.1330 C   0  0  0  0  0  0  0  0  0  0  0  0
   31.4030   27.1030   48.4580 C   0  0  0  0  0  0  0  0  0  0  0  0
   30.1490   27.8660   48.6600 C   0  0  1  0  0  0  0  0  0  0  0  0
   29.0120   26.9980   48.1310 C   0  0  0  0  0  0  0  0  0  0  0  0
   28.0560   26.7800   49.2620 C   0  0  0  0  0  0  0  0  0  0  0  0
   28.9110   26.9330   50.4880 C   0  0  0  0  0  0  0  0  0  0  0  0
   29.7800   28.1260   50.0900 C   0  0  2  0  0  0  0  0  0  0  0  0
   29.0220   29.3390   50.2190 N   0  0  0  0  0  0  0  0  0  0  0  0
   35.4297   28.8409   49.8314 H   0  0  0  0  0  0  0  0  0  0  0  0
   33.7591   30.2149   46.0809 H   0  0  0  0  0  0  0  0  0  0  0  0
   35.7990   30.8742   49.9671 H   0  0  0  0  0  0  0  0  0  0  0  0
   36.3890   30.2862   45.7746 H   0  0  0  0  0  0  0  0  0  0  0  0
   38.6873   31.6907   44.9129 H   0  0  0  0  0  0  0  0  0  0  0  0
   40.4685   33.1930   45.9650 H   0  0  0  0  0  0  0  0  0  0  0  0
   37.7820   32.2962   50.0957 H   0  0  0  0  0  0  0  0  0  0  0  0
   31.3034   26.5000   47.5434 H   0  0  0  0  0  0  0  0  0  0  0  0
   31.5541   26.4750   49.3484 H   0  0  0  0  0  0  0  0  0  0  0  0
   30.3034   28.8336   48.1601 H   0  0  0  0  0  0  0  0  0  0  0  0
   28.5028   27.5094   47.3008 H   0  0  0  0  0  0  0  0  0  0  0  0
   29.3966   26.0383   47.7554 H   0  0  0  0  0  0  0  0  0  0  0  0
   27.2535   27.5322   49.2474 H   0  0  0  0  0  0  0  0  0  0  0  0
   27.5541   25.8025   49.2125 H   0  0  0  0  0  0  0  0  0  0  0  0
   28.3044   27.1542   51.3786 H   0  0  0  0  0  0  0  0  0  0  0  0
   29.4773   26.0305   50.7616 H   0  0  0  0  0  0  0  0  0  0  0  0
   30.6721   28.2406   50.7232 H   0  0  0  0  0  0  0  0  0  0  0  0
   28.8870   29.5550   51.2170 H   0  0  0  0  0  0  0  0  0  0  0  0
   29.5309   30.1116   49.7663 H   0  0  0  0  0  0  0  0  0  0  0  0
  1  6  2  0
  2  1  1  0
  3  4  1  0
  3  2  2  0
  4  5  2  0
  5 16  1  0
  5  6  1  0
  7 15  2  0
  8  2  1  0
  8  7  1  0
  9 10  1  0
  9  8  2  0
 10 14  2  0
 11 12  1  0
 11 10  1  0
 12 13  2  0
 13 14  1  0
 14 15  1  0
 16 17  1  0
 17 21  1  0
 18 17  1  0
 18 19  1  0
 19 20  1  0
 21 22  1  0
 21 20  1  0
  1 23  1  0
  3 24  1  0
  7 25  1  0
  9 26  1  0
 11 27  1  0
 12 28  1  0
 15 29  1  0
 16 30  1  0
 16 31  1  0
 17 32  1  6
 18 33  1  0
 18 34  1  0
 19 35  1  0
 19 36  1  0
 20 37  1  0
 20 38  1  0
 21 39  1  1
 22 40  1  0
 22 41  1  0
M  ISO  8  23  14  24  14  25  14  26  14  27   9  28  14  29  14  30   8
M  ISO  8  31   8  32  13  33  13  34  13  35  13  36  13  37  13  38  13
M  ISO  3  39  13  40   5  41   5
M  END
>  <minimizedAffinity>  (1) 
-6.74145079

>  <minimizedRMSD>  (1) 
0.0478288792

$$$$
