
     RDKit          3D

 40 43  0  0  1  0  0  0  0  0999 V2000
   34.0390   29.0310   49.3750 C   0  0  0  0  0  0  0  0  0  0  0  0
   34.4770   29.4840   48.1250 C   0  0  0  0  0  0  0  0  0  0  0  0
   33.7460   29.0970   46.9900 C   0  0  0  0  0  0  0  0  0  0  0  0
   32.6630   28.3070   47.1720 N   0  0  0  0  0  0  0  0  0  0  0  0
   32.2650   27.8840   48.3990 C   0  0  0  0  0  0  0  0  0  0  0  0
   32.9540   28.2480   49.4810 N   0  0  0  0  0  0  0  0  0  0  0  0
   36.0240   30.9000   49.3490 C   0  0  0  0  0  0  0  0  0  0  0  0
   35.6570   30.3190   48.1470 C   0  0  0  0  0  0  0  0  0  0  0  0
   36.4650   30.5970   47.0660 C   0  0  0  0  0  0  0  0  0  0  0  0
   37.5900   31.4250   47.2040 C   0  0  0  0  0  0  0  0  0  0  0  0
   38.5130   31.8450   46.3520 N   0  0  0  0  0  0  0  0  0  0  0  0
   39.3930   32.6320   46.9810 C   0  0  0  0  0  0  0  0  0  0  0  0
   39.0170   32.7130   48.2680 N   0  0  0  0  0  0  0  0  0  0  0  0
   37.9020   31.9660   48.4060 C   0  0  0  0  0  0  0  0  0  0  0  0
   37.1170   31.7070   49.4960 C   0  0  0  0  0  0  0  0  0  0  0  0
   31.0560   27.0190   48.4670 C   0  0  0  0  0  0  0  0  0  0  0  0
   29.7980   27.7550   48.1300 C   0  0  1  0  0  0  0  0  0  0  0  0
   28.8400   26.7390   47.5080 C   0  0  0  0  0  0  0  0  0  0  0  0
   27.5870   26.7670   48.3460 C   0  0  0  0  0  0  0  0  0  0  0  0
   28.0840   27.1980   49.6920 C   0  0  0  0  0  0  0  0  0  0  0  0
   29.0520   28.3040   49.3040 C   0  0  1  0  0  0  0  0  0  0  0  0
   29.9790   28.5270   50.3410 O   0  0  0  0  0  0  0  0  0  0  0  0
   34.5908   29.3203   50.2815 H   0  0  0  0  0  0  0  0  0  0  0  0
   34.0449   29.4262   45.9839 H   0  0  0  0  0  0  0  0  0  0  0  0
   35.4017   30.7011   50.2340 H   0  0  0  0  0  0  0  0  0  0  0  0
   36.2255   30.1649   46.0832 H   0  0  0  0  0  0  0  0  0  0  0  0
   38.5481   31.6014   45.3518 H   0  0  0  0  0  0  0  0  0  0  0  0
   40.2660   33.1235   46.5268 H   0  0  0  0  0  0  0  0  0  0  0  0
   37.3619   32.1419   50.4762 H   0  0  0  0  0  0  0  0  0  0  0  0
   31.1780   26.1877   47.7570 H   0  0  0  0  0  0  0  0  0  0  0  0
   30.9629   26.6601   49.5026 H   0  0  0  0  0  0  0  0  0  0  0  0
   30.1009   28.5952   47.4878 H   0  0  0  0  0  0  0  0  0  0  0  0
   28.6096   27.0195   46.4696 H   0  0  0  0  0  0  0  0  0  0  0  0
   29.2839   25.7327   47.4879 H   0  0  0  0  0  0  0  0  0  0  0  0
   26.8601   27.4884   47.9445 H   0  0  0  0  0  0  0  0  0  0  0  0
   27.0624   25.8004   48.3694 H   0  0  0  0  0  0  0  0  0  0  0  0
   27.2664   27.5793   50.3213 H   0  0  0  0  0  0  0  0  0  0  0  0
   28.5338   26.3908   50.2888 H   0  0  0  0  0  0  0  0  0  0  0  0
   28.5275   29.2483   49.0960 H   0  0  0  0  0  0  0  0  0  0  0  0
   29.5281   28.4185   51.2157 H   0  0  0  0  0  0  0  0  0  0  0  0
  1  6  2  0
  2  8  1  0
  2  1  1  0
  3  4  1  0
  3  2  2  0
  4  5  2  0
  5 16  1  0
  5  6  1  0
  7 15  2  0
  8  7  1  0
  9 10  1  0
  9  8  2  0
 10 14  2  0
 11 12  1  0
 11 10  1  0
 12 13  2  0
 13 14  1  0
 14 15  1  0
 17 16  1  0
 17 21  1  0
 18 17  1  0
 18 19  1  0
 19 20  1  0
 21 20  1  0
 21 22  1  0
  1 23  1  0
  3 24  1  0
  7 25  1  0
  9 26  1  0
 11 27  1  0
 12 28  1  0
 15 29  1  0
 16 30  1  0
 16 31  1  0
 17 32  1  6
 18 33  1  0
 18 34  1  0
 19 35  1  0
 19 36  1  0
 20 37  1  0
 20 38  1  0
 21 39  1  6
 22 40  1  0
M  ISO  8  23  14  24  14  25  14  26  14  27   9  28  14  29  14  30   8
M  ISO  8  31   8  32  13  33  13  34  13  35  13  36  13  37  13  38  13
M  ISO  2  39  13  40   3
M  END
>  <minimizedAffinity>  (1) 
-6.60687399

>  <minimizedRMSD>  (1) 
0.698496819

$$$$
