
     RDKit          3D

 42 45  0  0  1  0  0  0  0  0999 V2000
   33.9560   28.8760   49.3150 C   0  0  0  0  0  0  0  0  0  0  0  0
   34.3380   29.4700   48.1010 C   0  0  0  0  0  0  0  0  0  0  0  0
   33.5500   29.2200   46.9810 C   0  0  0  0  0  0  0  0  0  0  0  0
   32.4660   28.4240   47.1180 N   0  0  0  0  0  0  0  0  0  0  0  0
   32.1190   27.8600   48.3100 C   0  0  0  0  0  0  0  0  0  0  0  0
   32.8710   28.0970   49.3860 N   0  0  0  0  0  0  0  0  0  0  0  0
   35.8740   30.8380   49.3820 C   0  0  0  0  0  0  0  0  0  0  0  0
   35.5380   30.2910   48.1680 C   0  0  0  0  0  0  0  0  0  0  0  0
   36.3660   30.5600   47.0880 C   0  0  0  0  0  0  0  0  0  0  0  0
   37.4960   31.3670   47.2700 C   0  0  0  0  0  0  0  0  0  0  0  0
   38.4540   31.7900   46.4470 N   0  0  0  0  0  0  0  0  0  0  0  0
   39.3200   32.5460   47.1070 C   0  0  0  0  0  0  0  0  0  0  0  0
   38.9250   32.6240   48.4010 N   0  0  0  0  0  0  0  0  0  0  0  0
   37.7970   31.8960   48.5020 C   0  0  0  0  0  0  0  0  0  0  0  0
   36.9820   31.6290   49.5590 C   0  0  0  0  0  0  0  0  0  0  0  0
   30.9130   27.0050   48.3510 C   0  0  0  0  0  0  0  0  0  0  0  0
   29.6500   27.7830   48.3950 C   0  0  1  0  0  0  0  0  0  0  0  0
   28.5480   26.8820   47.8340 C   0  0  0  0  0  0  0  0  0  0  0  0
   27.5100   26.7460   48.9160 C   0  0  0  0  0  0  0  0  0  0  0  0
   28.2840   26.9600   50.1830 C   0  0  0  0  0  0  0  0  0  0  0  0
   29.1850   28.1300   49.7760 C   0  0  2  0  0  0  0  0  0  0  0  0
   28.3190   29.3570   49.8230 C   0  0  0  0  0  0  0  0  0  0  0  0
   34.5569   29.0537   50.2191 H   0  0  0  0  0  0  0  0  0  0  0  0
   33.8039   29.6606   46.0056 H   0  0  0  0  0  0  0  0  0  0  0  0
   35.2283   30.6338   50.2488 H   0  0  0  0  0  0  0  0  0  0  0  0
   36.1368   30.1427   46.0964 H   0  0  0  0  0  0  0  0  0  0  0  0
   38.5133   31.5628   45.4441 H   0  0  0  0  0  0  0  0  0  0  0  0
   40.2097   33.0289   46.6767 H   0  0  0  0  0  0  0  0  0  0  0  0
   37.2103   32.0454   50.5512 H   0  0  0  0  0  0  0  0  0  0  0  0
   30.9026   26.3708   47.4523 H   0  0  0  0  0  0  0  0  0  0  0  0
   30.9640   26.4093   49.2743 H   0  0  0  0  0  0  0  0  0  0  0  0
   29.8397   28.7136   47.8401 H   0  0  0  0  0  0  0  0  0  0  0  0
   28.1039   27.3392   46.9375 H   0  0  0  0  0  0  0  0  0  0  0  0
   28.9488   25.8997   47.5435 H   0  0  0  0  0  0  0  0  0  0  0  0
   26.7243   27.5076   48.8033 H   0  0  0  0  0  0  0  0  0  0  0  0
   26.9944   25.7746   48.8913 H   0  0  0  0  0  0  0  0  0  0  0  0
   27.6234   27.2301   51.0200 H   0  0  0  0  0  0  0  0  0  0  0  0
   28.8254   26.0719   50.5410 H   0  0  0  0  0  0  0  0  0  0  0  0
   30.0603   28.3133   50.4165 H   0  0  0  0  0  0  0  0  0  0  0  0
   28.1264   29.6299   50.8711 H   0  0  0  0  0  0  0  0  0  0  0  0
   28.8321   30.1876   49.3162 H   0  0  0  0  0  0  0  0  0  0  0  0
   27.3645   29.1518   49.3162 H   0  0  0  0  0  0  0  0  0  0  0  0
  1  6  2  0
  2  8  1  0
  2  1  1  0
  3  4  1  0
  3  2  2  0
  4  5  2  0
  5 16  1  0
  5  6  1  0
  7 15  2  0
  8  7  1  0
  9 10  1  0
  9  8  2  0
 10 14  2  0
 11 12  1  0
 11 10  1  0
 12 13  2  0
 13 14  1  0
 14 15  1  0
 16 17  1  0
 17 21  1  0
 18 17  1  0
 18 19  1  0
 19 20  1  0
 21 22  1  0
 21 20  1  0
  1 23  1  0
  3 24  1  0
  7 25  1  0
  9 26  1  0
 11 27  1  0
 12 28  1  0
 15 29  1  0
 16 30  1  0
 16 31  1  0
 17 32  1  6
 18 33  1  0
 18 34  1  0
 19 35  1  0
 19 36  1  0
 20 37  1  0
 20 38  1  0
 21 39  1  1
 22 40  1  0
 22 41  1  0
 22 42  1  0
M  ISO  8  23  14  24  14  25  14  26  14  27   9  28  14  29  14  30   8
M  ISO  8  31   8  32  13  33  13  34  13  35  13  36  13  37  13  38  13
M  ISO  4  39  13  40   8  41   8  42   8
M  END
>  <minimizedAffinity>  (1) 
-6.45100832

>  <minimizedRMSD>  (1) 
0.651203513

$$$$
