
     RDKit          3D

 45 48  0  0  1  0  0  0  0  0999 V2000
   33.6820   28.6220   49.1510 C   0  0  0  0  0  0  0  0  0  0  0  0
   34.1550   29.3400   48.0490 C   0  0  0  0  0  0  0  0  0  0  0  0
   33.4850   29.1730   46.8390 C   0  0  0  0  0  0  0  0  0  0  0  0
   32.4230   28.3320   46.8020 N   0  0  0  0  0  0  0  0  0  0  0  0
   31.9920   27.6520   47.8910 C   0  0  0  0  0  0  0  0  0  0  0  0
   32.6280   27.8050   49.0550 N   0  0  0  0  0  0  0  0  0  0  0  0
   35.4880   30.6710   49.5760 C   0  0  0  0  0  0  0  0  0  0  0  0
   35.2980   30.1850   48.2890 C   0  0  0  0  0  0  0  0  0  0  0  0
   36.2430   30.5670   47.3560 C   0  0  0  0  0  0  0  0  0  0  0  0
   37.3060   31.3960   47.7310 C   0  0  0  0  0  0  0  0  0  0  0  0
   38.3330   31.9010   47.0390 N   0  0  0  0  0  0  0  0  0  0  0  0
   39.0930   32.6420   47.8420 C   0  0  0  0  0  0  0  0  0  0  0  0
   38.5480   32.6110   49.0680 N   0  0  0  0  0  0  0  0  0  0  0  0
   37.4480   31.8460   49.0070 C   0  0  0  0  0  0  0  0  0  0  0  0
   36.5300   31.4810   49.9380 C   0  0  0  0  0  0  0  0  0  0  0  0
   30.8180   26.7570   47.7310 C   0  0  0  0  0  0  0  0  0  0  0  0
   29.5330   27.5000   47.5580 C   0  0  1  0  0  0  0  0  0  0  0  0
   28.4800   26.4780   47.1540 C   0  0  0  0  0  0  0  0  0  0  0  0
   27.3890   26.5450   48.1690 C   0  0  0  0  0  0  0  0  0  0  0  0
   28.0790   27.0650   49.3960 C   0  0  0  0  0  0  0  0  0  0  0  0
   29.0140   28.1090   48.8250 C   0  0  2  0  0  0  0  0  0  0  0  0
   28.2820   29.4160   48.6180 C   0  0  0  0  0  0  0  0  0  0  0  0
   27.8670   29.9370   49.9980 C   0  0  0  0  0  0  0  0  0  0  0  0
   34.1893   28.7318   50.1209 H   0  0  0  0  0  0  0  0  0  0  0  0
   33.8100   29.7105   45.9360 H   0  0  0  0  0  0  0  0  0  0  0  0
   34.7586   30.3885   50.3494 H   0  0  0  0  0  0  0  0  0  0  0  0
   36.1594   30.2185   46.3160 H   0  0  0  0  0  0  0  0  0  0  0  0
   38.5091   31.7408   46.0369 H   0  0  0  0  0  0  0  0  0  0  0  0
   40.0056   33.1835   47.5523 H   0  0  0  0  0  0  0  0  0  0  0  0
   36.6230   31.8337   50.9758 H   0  0  0  0  0  0  0  0  0  0  0  0
   30.9784   26.1243   46.8456 H   0  0  0  0  0  0  0  0  0  0  0  0
   30.7313   26.1623   48.6523 H   0  0  0  0  0  0  0  0  0  0  0  0
   29.7203   28.3006   46.8272 H   0  0  0  0  0  0  0  0  0  0  0  0
   28.0828   26.7198   46.1571 H   0  0  0  0  0  0  0  0  0  0  0  0
   28.9124   25.4675   47.1112 H   0  0  0  0  0  0  0  0  0  0  0  0
   26.5932   27.2319   47.8452 H   0  0  0  0  0  0  0  0  0  0  0  0
   26.8987   25.5742   48.3338 H   0  0  0  0  0  0  0  0  0  0  0  0
   27.3600   27.5151   50.0963 H   0  0  0  0  0  0  0  0  0  0  0  0
   28.5933   26.2841   49.9754 H   0  0  0  0  0  0  0  0  0  0  0  0
   29.8490   28.3654   49.4937 H   0  0  0  0  0  0  0  0  0  0  0  0
   28.9445   30.1433   48.1259 H   0  0  0  0  0  0  0  0  0  0  0  0
   27.3990   29.2677   47.9790 H   0  0  0  0  0  0  0  0  0  0  0  0
   28.3496   29.3311   50.7790 H   0  0  0  0  0  0  0  0  0  0  0  0
   28.1793   30.9865   50.1028 H   0  0  0  0  0  0  0  0  0  0  0  0
   26.7742   29.8674   50.1028 H   0  0  0  0  0  0  0  0  0  0  0  0
  2  8  1  0
  2  1  2  0
  3  2  1  0
  4  3  2  0
  4  5  1  0
  5  6  2  0
  6  1  1  0
  7 15  2  0
  8  7  1  0
  9 10  1  0
  9  8  2  0
 10 14  2  0
 11 10  1  0
 11 12  1  0
 12 13  2  0
 14 13  1  0
 14 15  1  0
 16  5  1  0
 17 16  1  0
 17 21  1  0
 18 17  1  0
 18 19  1  0
 19 20  1  0
 21 20  1  0
 22 21  1  0
 22 23  1  0
  1 24  1  0
  3 25  1  0
  7 26  1  0
  9 27  1  0
 11 28  1  0
 12 29  1  0
 15 30  1  0
 16 31  1  0
 16 32  1  0
 17 33  1  6
 18 34  1  0
 18 35  1  0
 19 36  1  0
 19 37  1  0
 20 38  1  0
 20 39  1  0
 21 40  1  1
 22 41  1  0
 22 42  1  0
 23 43  1  0
 23 44  1  0
 23 45  1  0
M  ISO  8  24  14  25  14  26  14  27  14  28   9  29  14  30  14  31   8
M  ISO  8  32   8  33  13  34  13  35  13  36  13  37  13  38  13  39  13
M  ISO  6  40  13  41   8  42   8  43   8  44   8  45   8
M  END
>  <minimizedAffinity>  (1) 
-6.36806107

>  <minimizedRMSD>  (1) 
1.18153358

$$$$
