
     RDKit          3D

 41 44  0  0  1  0  0  0  0  0999 V2000
   33.7410   28.7190   49.1730 C   0  0  0  0  0  0  0  0  0  0  0  0
   34.1160   29.4580   48.0300 C   0  0  0  0  0  0  0  0  0  0  0  0
   33.2740   29.3880   46.9220 C   0  0  0  0  0  0  0  0  0  0  0  0
   32.1540   28.6310   46.9830 N   0  0  0  0  0  0  0  0  0  0  0  0
   31.8200   27.9290   48.1040 C   0  0  0  0  0  0  0  0  0  0  0  0
   32.6250   27.9910   49.1740 N   0  0  0  0  0  0  0  0  0  0  0  0
   35.6780   30.6910   49.4010 C   0  0  0  0  0  0  0  0  0  0  0  0
   35.3430   30.2110   48.1410 C   0  0  0  0  0  0  0  0  0  0  0  0
   36.2140   30.4950   47.1070 C   0  0  0  0  0  0  0  0  0  0  0  0
   37.3680   31.2360   47.3590 C   0  0  0  0  0  0  0  0  0  0  0  0
   38.3600   31.6460   46.5670 N   0  0  0  0  0  0  0  0  0  0  0  0
   39.2540   32.3340   47.2710 C   0  0  0  0  0  0  0  0  0  0  0  0
   38.8310   32.3670   48.5460 N   0  0  0  0  0  0  0  0  0  0  0  0
   37.6670   31.6940   48.6170 C   0  0  0  0  0  0  0  0  0  0  0  0
   36.8210   31.4220   49.6430 C   0  0  0  0  0  0  0  0  0  0  0  0
   30.5740   27.1250   48.0810 C   0  0  0  0  0  0  0  0  0  0  0  0
   29.3510   27.9620   48.1630 C   0  0  1  0  0  0  0  0  0  0  0  0
   28.5710   27.7520   46.8640 C   0  0  0  0  0  0  0  0  0  0  0  0
   27.2110   27.2430   47.2620 C   0  0  0  0  0  0  0  0  0  0  0  0
   27.4410   26.6000   48.5840 C   0  0  0  0  0  0  0  0  0  0  0  0
   28.3830   27.6170   49.2440 C   0  0  1  0  0  0  0  0  0  0  0  0
   29.0080   27.0340   50.4610 C   0  0  0  0  0  0  0  0  0  0  0  0
   28.4910   27.0310   51.5880 O   0  0  0  0  0  0  0  0  0  0  0  0
   34.3759   28.7444   50.0709 H   0  0  0  0  0  0  0  0  0  0  0  0
   33.5179   29.9439   46.0047 H   0  0  0  0  0  0  0  0  0  0  0  0
   35.0016   30.4784   50.2420 H   0  0  0  0  0  0  0  0  0  0  0  0
   35.9981   30.1381   46.0892 H   0  0  0  0  0  0  0  0  0  0  0  0
   38.4242   31.4570   45.5565 H   0  0  0  0  0  0  0  0  0  0  0  0
   40.1739   32.7933   46.8801 H   0  0  0  0  0  0  0  0  0  0  0  0
   37.0456   31.7816   50.6580 H   0  0  0  0  0  0  0  0  0  0  0  0
   30.5441   26.5489   47.1444 H   0  0  0  0  0  0  0  0  0  0  0  0
   30.5864   26.4674   48.9627 H   0  0  0  0  0  0  0  0  0  0  0  0
   29.7169   28.9806   48.3593 H   0  0  0  0  0  0  0  0  0  0  0  0
   29.0823   27.0141   46.2283 H   0  0  0  0  0  0  0  0  0  0  0  0
   28.4943   28.6869   46.2894 H   0  0  0  0  0  0  0  0  0  0  0  0
   26.4934   28.0720   47.3498 H   0  0  0  0  0  0  0  0  0  0  0  0
   26.7848   26.5496   46.5220 H   0  0  0  0  0  0  0  0  0  0  0  0
   26.5035   26.4916   49.1491 H   0  0  0  0  0  0  0  0  0  0  0  0
   27.8445   25.5782   48.5274 H   0  0  0  0  0  0  0  0  0  0  0  0
   27.8813   28.5232   49.6142 H   0  0  0  0  0  0  0  0  0  0  0  0
   30.0005   26.5721   50.3536 H   0  0  0  0  0  0  0  0  0  0  0  0
  1  6  2  0
  2  8  1  0
  2  1  1  0
  3  4  1  0
  3  2  2  0
  4  5  2  0
  5  6  1  0
  7 15  2  0
  8  7  1  0
  9 10  1  0
  9  8  2  0
 10 14  2  0
 11 12  1  0
 11 10  1  0
 12 13  2  0
 13 14  1  0
 14 15  1  0
 16  5  1  0
 16 17  1  0
 17 21  1  0
 18 19  1  0
 18 17  1  0
 19 20  1  0
 20 21  1  0
 21 22  1  0
 22 23  2  0
  1 24  1  0
  3 25  1  0
  7 26  1  0
  9 27  1  0
 11 28  1  0
 12 29  1  0
 15 30  1  0
 16 31  1  0
 16 32  1  0
 17 33  1  1
 18 34  1  0
 18 35  1  0
 19 36  1  0
 19 37  1  0
 20 38  1  0
 20 39  1  0
 21 40  1  1
 22 41  1  0
M  ISO  8  24  14  25  14  26  14  27  14  28   9  29  14  30  14  31   8
M  ISO  8  32   8  33  13  34  13  35  13  36  13  37  13  38  13  39  13
M  ISO  2  40  13  41   6
M  END
>  <minimizedAffinity>  (1) 
-6.31856966

>  <minimizedRMSD>  (1) 
1.37918961

$$$$
