
     RDKit          3D

 22 23  0  0  0  0  0  0  0  0999 V2000
   37.0090   29.5920   51.3940 C   0  0  0  0  0  0  0  0  0  0  0  0
   37.9140   30.4840   50.7700 C   0  0  0  0  0  0  0  0  0  0  0  0
   37.4670   31.2450   49.6770 C   0  0  0  0  0  0  0  0  0  0  0  0
   36.1650   31.0530   49.3030 N   0  0  0  0  0  0  0  0  0  0  0  0
   35.3330   30.2020   49.9140 C   0  0  0  0  0  0  0  0  0  0  0  0
   35.7300   29.4560   50.9650 N   0  0  0  0  0  0  0  0  0  0  0  0
   34.0240   30.1500   49.3740 N   0  0  0  0  0  0  0  0  0  0  0  0
   38.4280   30.6770   47.0950 F   0  0  0  0  0  0  0  0  0  0  0  0
   38.7590   31.8530   47.7190 C   0  0  0  0  0  0  0  0  0  0  0  0
   38.3120   32.1740   48.9820 C   0  0  0  0  0  0  0  0  0  0  0  0
   38.7270   33.3780   49.4650 C   0  0  0  0  0  0  0  0  0  0  0  0
   39.5390   34.2660   48.7940 C   0  0  0  0  0  0  0  0  0  0  0  0
   39.9790   33.9360   47.5300 C   0  0  0  0  0  0  0  0  0  0  0  0
   39.5830   32.7200   46.9970 C   0  0  0  0  0  0  0  0  0  0  0  0
   37.3528   28.9930   52.2501 H   0  0  0  0  0  0  0  0  0  0  0  0
   38.9476   30.5794   51.1341 H   0  0  0  0  0  0  0  0  0  0  0  0
   33.3213   29.5200   49.7866 H   0  0  0  0  0  0  0  0  0  0  0  0
   33.7751   30.7422   48.5689 H   0  0  0  0  0  0  0  0  0  0  0  0
   38.3867   33.6642   50.4711 H   0  0  0  0  0  0  0  0  0  0  0  0
   39.8305   35.2198   49.2579 H   0  0  0  0  0  0  0  0  0  0  0  0
   40.6264   34.6190   46.9605 H   0  0  0  0  0  0  0  0  0  0  0  0
   39.9223   32.4330   45.9908 H   0  0  0  0  0  0  0  0  0  0  0  0
  2  1  2  0
  3  2  1  0
  4  3  2  0
  4  5  1  0
  5  6  2  0
  6  1  1  0
  7  5  1  0
  8  9  1  0
  9 10  2  0
 10 11  1  0
 10  3  1  0
 12 11  2  0
 13 12  1  0
 14 13  2  0
 14  9  1  0
  1 15  1  0
  2 16  1  0
  7 17  1  0
  7 18  1  0
 11 19  1  0
 12 20  1  0
 13 21  1  0
 14 22  1  0
M  ISO  6  15  14  16  14  19  14  20  14  21  14  22  14
M  END
>  <minimizedAffinity>  (1) 
-5.83676052

>  <minimizedRMSD>  (1) 
1.89971769

$$$$
