
     RDKit          3D

 25 26  0  0  0  0  0  0  0  0999 V2000
   38.9270   32.0870   47.4030 C   0  0  0  0  0  0  0  0  0  0  0  0
   38.3790   32.1820   48.6650 C   0  0  0  0  0  0  0  0  0  0  0  0
   38.6930   33.2750   49.4440 C   0  0  0  0  0  0  0  0  0  0  0  0
   39.5300   34.2880   49.0290 C   0  0  0  0  0  0  0  0  0  0  0  0
   40.0960   34.2360   47.7830 C   0  0  0  0  0  0  0  0  0  0  0  0
   39.7730   33.1370   47.0190 C   0  0  0  0  0  0  0  0  0  0  0  0
   36.9720   29.1730   50.4340 C   0  0  0  0  0  0  0  0  0  0  0  0
   37.9150   30.1530   50.0370 C   0  0  0  0  0  0  0  0  0  0  0  0
   37.4990   31.1400   49.1320 C   0  0  0  0  0  0  0  0  0  0  0  0
   36.2050   31.0570   48.7170 N   0  0  0  0  0  0  0  0  0  0  0  0
   35.3370   30.1250   49.1050 C   0  0  0  0  0  0  0  0  0  0  0  0
   35.6980   29.1610   49.9710 N   0  0  0  0  0  0  0  0  0  0  0  0
   34.0350   30.2310   48.5430 N   0  0  0  0  0  0  0  0  0  0  0  0
   38.6330   30.7830   46.3080 S   0  0  0  0  0  0  0  0  0  0  0  0
   37.4440   31.0520   45.4060 O   0  0  0  0  0  0  0  0  0  0  0  0
   39.8510   30.6170   45.4090 O   0  0  0  0  0  0  0  0  0  0  0  0
   38.2523   33.3421   50.4496 H   0  0  0  0  0  0  0  0  0  0  0  0
   39.7429   35.1359   49.6966 H   0  0  0  0  0  0  0  0  0  0  0  0
   40.7683   35.0249   47.4147 H   0  0  0  0  0  0  0  0  0  0  0  0
   40.2196   33.0774   46.0155 H   0  0  0  0  0  0  0  0  0  0  0  0
   37.2851   28.3933   51.1439 H   0  0  0  0  0  0  0  0  0  0  0  0
   38.9434   30.1400   50.4273 H   0  0  0  0  0  0  0  0  0  0  0  0
   33.3080   29.5463   48.7950 H   0  0  0  0  0  0  0  0  0  0  0  0
   33.8190   30.9925   47.8839 H   0  0  0  0  0  0  0  0  0  0  0  0
   38.3804   29.6644   47.0575 H   0  0  0  0  0  0  0  0  0  0  0  0
  1  2  2  0
  2  9  1  0
  2  3  1  0
  4  3  2  0
  5  4  1  0
  6  1  1  0
  6  5  2  0
  8  7  2  0
  9  8  1  0
 10 11  1  0
 10  9  2  0
 11 12  2  0
 12  7  1  0
 13 11  1  0
 14  1  1  0
 15 14  2  0
 16 14  2  0
  3 17  1  0
  4 18  1  0
  5 19  1  0
  6 20  1  0
  7 21  1  0
  8 22  1  0
 13 23  1  0
 13 24  1  0
 14 25  1  0
M  ISO  7  17  14  18  14  19  14  20  14  21  14  22  14  25  11
M  END
>  <minimizedAffinity>  (1) 
-5.75658035

>  <minimizedRMSD>  (1) 
2.13890505

$$$$
