
     RDKit          3D

 20 21  0  0  0  0  0  0  0  0999 V2000
   37.0070   29.5610   51.3560 C   0  0  0  0  0  0  0  0  0  0  0  0
   37.6830   30.1770   50.2980 C   0  0  0  0  0  0  0  0  0  0  0  0
   36.9210   30.5320   49.1730 C   0  0  0  0  0  0  0  0  0  0  0  0
   35.5800   30.2580   49.1780 N   0  0  0  0  0  0  0  0  0  0  0  0
   34.9840   29.6630   50.2250 C   0  0  0  0  0  0  0  0  0  0  0  0
   35.6800   29.3070   51.3230 N   0  0  0  0  0  0  0  0  0  0  0  0
   33.5890   29.4400   50.0940 N   0  0  0  0  0  0  0  0  0  0  0  0
   37.5830   31.1750   48.0480 C   0  0  0  0  0  0  0  0  0  0  0  0
   37.1300   30.8740   46.7750 C   0  0  0  0  0  0  0  0  0  0  0  0
   37.8390   31.5490   45.7760 C   0  0  0  0  0  0  0  0  0  0  0  0
   38.8530   32.4010   46.0100 N   0  0  0  0  0  0  0  0  0  0  0  0
   39.2120   32.6210   47.3080 C   0  0  0  0  0  0  0  0  0  0  0  0
   38.5790   32.0100   48.3240 N   0  0  0  0  0  0  0  0  0  0  0  0
   37.5780   29.2717   52.2506 H   0  0  0  0  0  0  0  0  0  0  0  0
   38.7641   30.3748   50.3449 H   0  0  0  0  0  0  0  0  0  0  0  0
   33.0658   28.9882   50.8575 H   0  0  0  0  0  0  0  0  0  0  0  0
   33.0995   29.7299   49.2354 H   0  0  0  0  0  0  0  0  0  0  0  0
   36.3020   30.1791   46.5712 H   0  0  0  0  0  0  0  0  0  0  0  0
   37.5481   31.3713   44.7301 H   0  0  0  0  0  0  0  0  0  0  0  0
   40.0377   33.3138   47.5276 H   0  0  0  0  0  0  0  0  0  0  0  0
  2  1  2  0
  3  4  2  0
  3  2  1  0
  4  5  1  0
  5  6  2  0
  6  1  1  0
  7  5  1  0
  8 13  1  0
  8  3  1  0
  9  8  2  0
 10 11  2  0
 10  9  1  0
 11 12  1  0
 12 13  2  0
  1 14  1  0
  2 15  1  0
  7 16  1  0
  7 17  1  0
  9 18  1  0
 10 19  1  0
 12 20  1  0
M  ISO  5  14  14  15  14  18  14  19  14  20  14
M  END
>  <minimizedAffinity>  (1) 
-4.82340765

>  <minimizedRMSD>  (1) 
1.35108459

$$$$
