
     RDKit          3D

 18 18  0  0  0  0  0  0  0  0999 V2000
   37.3100   30.2360   51.2550 C   0  0  0  0  0  0  0  0  0  0  0  0
   38.0740   30.5650   50.1290 C   0  0  0  0  0  0  0  0  0  0  0  0
   37.5800   30.1730   48.8690 C   0  0  0  0  0  0  0  0  0  0  0  0
   36.3740   29.4900   48.8210 N   0  0  0  0  0  0  0  0  0  0  0  0
   35.6970   29.2110   49.9440 C   0  0  0  0  0  0  0  0  0  0  0  0
   36.1420   29.5700   51.1660 N   0  0  0  0  0  0  0  0  0  0  0  0
   34.4790   28.5070   49.7450 N   0  0  0  0  0  0  0  0  0  0  0  0
   38.2090   30.4180   47.6530 O   0  0  0  0  0  0  0  0  0  0  0  0
   39.8940   31.9980   46.4510 O   0  0  0  0  0  0  0  0  0  0  0  0
   38.4820   31.9580   47.0210 P   0  0  0  0  0  0  0  0  0  0  0  0
   38.3220   33.2010   48.1590 O   0  0  0  0  0  0  0  0  0  0  0  0
   37.4480   32.1780   45.6940 O   0  0  0  0  0  0  0  0  0  0  0  0
   37.6766   30.5321   52.2489 H   0  0  0  0  0  0  0  0  0  0  0  0
   39.0250   31.1095   50.2244 H   0  0  0  0  0  0  0  0  0  0  0  0
   33.8940   28.2512   50.5533 H   0  0  0  0  0  0  0  0  0  0  0  0
   34.1810   28.2525   48.7925 H   0  0  0  0  0  0  0  0  0  0  0  0
   38.3709   32.8210   49.0718 H   0  0  0  0  0  0  0  0  0  0  0  0
   36.5328   32.3727   46.0175 H   0  0  0  0  0  0  0  0  0  0  0  0
  2  1  2  0
  3  2  1  0
  4  3  2  0
  4  5  1  0
  5  6  2  0
  6  1  1  0
  7  5  1  0
  8  3  1  0
  9 10  2  0
 10  8  1  0
 10 11  1  0
 12 10  1  0
  1 13  1  0
  2 14  1  0
  7 15  1  0
  7 16  1  0
 11 17  1  0
 12 18  1  0
M  ISO  4  13  14  14  14  17   3  18   3
M  END
>  <minimizedAffinity>  (1) 
-4.69419575

>  <minimizedRMSD>  (1) 
0.815063477

$$$$
