
     RDKit          3D

 16 16  0  0  0  0  0  0  0  0999 V2000
   37.2490   30.1170   51.5330 C   0  0  0  0  0  0  0  0  0  0  0  0
   38.0870   30.7080   50.5850 C   0  0  0  0  0  0  0  0  0  0  0  0
   37.8060   30.4490   49.2330 C   0  0  0  0  0  0  0  0  0  0  0  0
   36.7370   29.6410   48.9240 N   0  0  0  0  0  0  0  0  0  0  0  0
   35.9670   29.1010   49.8740 C   0  0  0  0  0  0  0  0  0  0  0  0
   36.2050   29.3250   51.1890 N   0  0  0  0  0  0  0  0  0  0  0  0
   34.9000   28.2880   49.4150 N   0  0  0  0  0  0  0  0  0  0  0  0
   38.8280   32.4360   48.0880 C   0  0  0  0  0  0  0  0  0  0  0  0
   38.2880   33.3590   48.7770 O   0  0  0  0  0  0  0  0  0  0  0  0
   38.6390   31.0360   48.2560 N   0  0  0  0  0  0  0  0  0  0  0  0
   37.4440   30.3016   52.5997 H   0  0  0  0  0  0  0  0  0  0  0  0
   38.9301   31.3482   50.8837 H   0  0  0  0  0  0  0  0  0  0  0  0
   34.2661   27.8396   50.0918 H   0  0  0  0  0  0  0  0  0  0  0  0
   34.7587   28.1457   48.4047 H   0  0  0  0  0  0  0  0  0  0  0  0
   39.5081   32.7514   47.2830 H   0  0  0  0  0  0  0  0  0  0  0  0
   39.1464   30.4053   47.6190 H   0  0  0  0  0  0  0  0  0  0  0  0
  2  1  2  0
  3  2  1  0
  4  3  2  0
  4  5  1  0
  5  6  2  0
  6  1  1  0
  7  5  1  0
  8 10  1  0
  8  9  2  0
 10  3  1  0
  1 11  1  0
  2 12  1  0
  7 13  1  0
  7 14  1  0
  8 15  1  0
 10 16  1  0
M  ISO  3  11  14  12  14  15   6
M  END
>  <minimizedAffinity>  (1) 
-4.66151333

>  <minimizedRMSD>  (1) 
0.218807369

$$$$
