
     RDKit          3D

 18 19  0  0  0  0  0  0  0  0999 V2000
   37.4080   30.2970   51.3070 C   0  0  0  0  0  0  0  0  0  0  0  0
   38.1070   30.8570   50.2110 C   0  0  0  0  0  0  0  0  0  0  0  0
   37.6730   30.5150   48.9240 C   0  0  0  0  0  0  0  0  0  0  0  0
   36.6110   29.6700   48.8160 N   0  0  0  0  0  0  0  0  0  0  0  0
   35.9770   29.1620   49.8770 C   0  0  0  0  0  0  0  0  0  0  0  0
   36.3680   29.4690   51.1290 N   0  0  0  0  0  0  0  0  0  0  0  0
   34.8960   28.3020   49.5760 N   0  0  0  0  0  0  0  0  0  0  0  0
   38.3600   31.0650   47.7660 C   0  0  0  0  0  0  0  0  0  0  0  0
   38.8850   32.4320   47.8300 C   0  0  0  0  0  0  0  0  0  0  0  0
   39.6380   32.6880   46.2100 S   0  0  0  0  0  0  0  0  0  0  0  0
   39.1430   30.9320   45.6800 C   0  0  0  0  0  0  0  0  0  0  0  0
   38.6130   30.5250   46.5920 N   0  0  0  0  0  0  0  0  0  0  0  0
   37.7256   30.5471   52.3300 H   0  0  0  0  0  0  0  0  0  0  0  0
   38.9592   31.5354   50.3643 H   0  0  0  0  0  0  0  0  0  0  0  0
   34.3549   27.8689   50.3379 H   0  0  0  0  0  0  0  0  0  0  0  0
   34.6495   28.1086   48.5948 H   0  0  0  0  0  0  0  0  0  0  0  0
   38.8322   33.1387   48.6713 H   0  0  0  0  0  0  0  0  0  0  0  0
   39.3276   30.4319   44.7178 H   0  0  0  0  0  0  0  0  0  0  0  0
  2  1  2  0
  3  2  1  0
  4  3  2  0
  4  5  1  0
  5  6  2  0
  6  1  1  0
  7  5  1  0
  8  9  2  0
  8  3  1  0
 10  9  1  0
 11 10  1  0
 11 12  2  0
 12  8  1  0
  1 13  1  0
  2 14  1  0
  7 15  1  0
  7 16  1  0
  9 17  1  0
 11 18  1  0
M  ISO  4  13  14  14  14  17  14  18  14
M  END
>  <minimizedAffinity>  (1) 
-4.61097431

>  <minimizedRMSD>  (1) 
0.702281117

$$$$
