
     RDKit          3D

 13 13  0  0  0  0  0  0  0  0999 V2000
   37.2760   30.2180   51.4470 C   0  0  0  0  0  0  0  0  0  0  0  0
   38.1310   30.7320   50.4420 C   0  0  0  0  0  0  0  0  0  0  0  0
   37.8370   30.3870   49.1130 C   0  0  0  0  0  0  0  0  0  0  0  0
   36.7490   29.5780   48.8670 N   0  0  0  0  0  0  0  0  0  0  0  0
   35.9810   29.1250   49.8650 C   0  0  0  0  0  0  0  0  0  0  0  0
   36.2270   29.4340   51.1620 N   0  0  0  0  0  0  0  0  0  0  0  0
   34.8940   28.3020   49.4740 N   0  0  0  0  0  0  0  0  0  0  0  0
   38.6500   30.8690   48.0980 O   0  0  0  0  0  0  0  0  0  0  0  0
   37.4798   30.4709   52.4979 H   0  0  0  0  0  0  0  0  0  0  0  0
   38.9886   31.3740   50.6917 H   0  0  0  0  0  0  0  0  0  0  0  0
   34.2583   27.9156   50.1864 H   0  0  0  0  0  0  0  0  0  0  0  0
   34.7403   28.0908   48.4777 H   0  0  0  0  0  0  0  0  0  0  0  0
   38.4566   30.6352   47.1557 H   0  0  0  0  0  0  0  0  0  0  0  0
  2  1  2  0
  3  2  1  0
  4  3  2  0
  4  5  1  0
  5  6  2  0
  6  1  1  0
  7  5  1  0
  8  3  1  0
  1  9  1  0
  2 10  1  0
  7 11  1  0
  7 12  1  0
  8 13  1  0
M  ISO  3   9  14  10  14  13   3
M  END
>  <minimizedAffinity>  (1) 
-3.77037382

>  <minimizedRMSD>  (1) 
0.0961080343

$$$$
