
     RDKit          3D

 15 15  0  0  0  0  0  0  0  0999 V2000
   37.3440   30.1940   51.3620 C   0  0  0  0  0  0  0  0  0  0  0  0
   38.0540   30.7130   50.2540 C   0  0  0  0  0  0  0  0  0  0  0  0
   37.5820   30.3900   48.9670 C   0  0  0  0  0  0  0  0  0  0  0  0
   36.4700   29.5970   48.8660 N   0  0  0  0  0  0  0  0  0  0  0  0
   35.8340   29.1310   49.9560 C   0  0  0  0  0  0  0  0  0  0  0  0
   36.2590   29.4210   51.2010 N   0  0  0  0  0  0  0  0  0  0  0  0
   34.6900   28.3160   49.6970 N   0  0  0  0  0  0  0  0  0  0  0  0
   38.2870   30.9070   47.7640 C   0  0  0  0  0  0  0  0  0  0  0  0
   37.6894   30.4296   52.3794 H   0  0  0  0  0  0  0  0  0  0  0  0
   38.9428   31.3461   50.3926 H   0  0  0  0  0  0  0  0  0  0  0  0
   34.1503   27.9220   50.4808 H   0  0  0  0  0  0  0  0  0  0  0  0
   34.4048   28.1223   48.7264 H   0  0  0  0  0  0  0  0  0  0  0  0
   39.1374   31.5306   48.0771 H   0  0  0  0  0  0  0  0  0  0  0  0
   38.6537   30.0621   47.1625 H   0  0  0  0  0  0  0  0  0  0  0  0
   37.5914   31.5107   47.1625 H   0  0  0  0  0  0  0  0  0  0  0  0
  2  1  2  0
  3  2  1  0
  4  3  2  0
  4  5  1  0
  5  6  2  0
  6  1  1  0
  7  5  1  0
  8  3  1  0
  1  9  1  0
  2 10  1  0
  7 11  1  0
  7 12  1  0
  8 13  1  0
  8 14  1  0
  8 15  1  0
M  ISO  5   9  14  10  14  13   8  14   8  15   8
M  END
>  <minimizedAffinity>  (1) 
-3.66951561

>  <minimizedRMSD>  (1) 
0.177131221

$$$$
