
     RDKit          3D

 30 31  0  0  0  0  0  0  0  0999 V2000
   38.4200   32.3470   48.8670 C   0  0  0  0  0  0  0  0  0  0  0  0
   38.8000   33.4160   49.6250 C   0  0  0  0  0  0  0  0  0  0  0  0
   39.6580   34.4000   49.1290 C   0  0  0  0  0  0  0  0  0  0  0  0
   40.1300   34.2630   47.8090 C   0  0  0  0  0  0  0  0  0  0  0  0
   39.7560   33.1840   47.0250 C   0  0  0  0  0  0  0  0  0  0  0  0
   38.9130   32.2730   47.6010 C   0  0  0  0  0  0  0  0  0  0  0  0
   36.8100   29.7570   51.0810 C   0  0  0  0  0  0  0  0  0  0  0  0
   37.7990   30.6480   50.6210 C   0  0  0  0  0  0  0  0  0  0  0  0
   37.5150   31.3890   49.4600 C   0  0  0  0  0  0  0  0  0  0  0  0
   36.3070   31.1940   48.8650 N   0  0  0  0  0  0  0  0  0  0  0  0
   35.3850   30.3290   49.3360 C   0  0  0  0  0  0  0  0  0  0  0  0
   35.6310   29.6120   50.4390 N   0  0  0  0  0  0  0  0  0  0  0  0
   34.1910   30.2560   48.5940 N   0  0  0  0  0  0  0  0  0  0  0  0
   38.5700   31.1700   46.7650 N   0  0  0  0  0  0  0  0  0  0  0  0
   37.5360   31.0490   45.3900 S   0  0  0  0  0  0  0  0  0  0  0  0
   37.9670   29.9280   44.4970 O   0  0  0  0  0  0  0  0  0  0  0  0
   37.4550   32.3490   44.6150 O   0  0  0  0  0  0  0  0  0  0  0  0
   35.9700   30.7420   45.9090 O   0  0  0  0  0  0  0  0  0  0  0  0
   38.4206   33.5051   50.6537 H   0  0  0  0  0  0  0  0  0  0  0  0
   39.9564   35.2568   49.7509 H   0  0  0  0  0  0  0  0  0  0  0  0
   40.8063   35.0249   47.3942 H   0  0  0  0  0  0  0  0  0  0  0  0
   40.1179   33.0657   45.9930 H   0  0  0  0  0  0  0  0  0  0  0  0
   37.0031   29.1637   51.9870 H   0  0  0  0  0  0  0  0  0  0  0  0
   38.7571   30.7600   51.1497 H   0  0  0  0  0  0  0  0  0  0  0  0
   33.4386   29.6182   48.8905 H   0  0  0  0  0  0  0  0  0  0  0  0
   34.0698   30.8404   47.7546 H   0  0  0  0  0  0  0  0  0  0  0  0
   39.0224   30.2837   47.0308 H   0  0  0  0  0  0  0  0  0  0  0  0
   38.2619   29.1610   45.0491 H   0  0  0  0  0  0  0  0  0  0  0  0
   37.4077   33.1084   45.2484 H   0  0  0  0  0  0  0  0  0  0  0  0
   35.9453   30.7372   46.8987 H   0  0  0  0  0  0  0  0  0  0  0  0
  1  9  1  0
  1  2  2  0
  3  2  1  0
  4  3  2  0
  5  6  2  0
  5  4  1  0
  6  1  1  0
  8  7  2  0
  9  8  1  0
 10 11  1  0
 10  9  2  0
 11 12  2  0
 12  7  1  0
 13 11  1  0
 14  6  1  0
 15 18  1  0
 15 14  1  0
 16 15  1  0
 17 15  1  0
  2 19  1  0
  3 20  1  0
  4 21  1  0
  5 22  1  0
  7 23  1  0
  8 24  1  0
 13 25  1  0
 13 26  1  0
 14 27  1  0
 16 28  1  0
 17 29  1  0
 18 30  1  0
M  ISO  8  19  14  20  14  21  14  22  14  23  14  24  14  28   3  29   3
M  ISO  1  30   3
M  END
>  <minimizedAffinity>  (1) 
-6.10011339

>  <minimizedRMSD>  (1) 
2.16937613

$$$$
