
     RDKit          3D

 28 29  0  0  0  0  0  0  0  0999 V2000
   38.4090   32.2000   48.8750 C   0  0  0  0  0  0  0  0  0  0  0  0
   38.7310   33.3450   49.5880 C   0  0  0  0  0  0  0  0  0  0  0  0
   39.5480   34.3070   48.9680 C   0  0  0  0  0  0  0  0  0  0  0  0
   40.0210   34.1130   47.6730 C   0  0  0  0  0  0  0  0  0  0  0  0
   39.6980   32.9680   46.9670 C   0  0  0  0  0  0  0  0  0  0  0  0
   38.8990   32.0560   47.6060 C   0  0  0  0  0  0  0  0  0  0  0  0
   37.1280   29.3990   51.0540 C   0  0  0  0  0  0  0  0  0  0  0  0
   38.0370   30.2800   50.4630 C   0  0  0  0  0  0  0  0  0  0  0  0
   37.5800   31.2270   49.5530 C   0  0  0  0  0  0  0  0  0  0  0  0
   36.2600   31.2210   49.3040 N   0  0  0  0  0  0  0  0  0  0  0  0
   35.3940   30.3680   49.8800 C   0  0  0  0  0  0  0  0  0  0  0  0
   35.8320   29.4540   50.7580 N   0  0  0  0  0  0  0  0  0  0  0  0
   34.0430   30.5050   49.4960 N   0  0  0  0  0  0  0  0  0  0  0  0
   38.5630   30.8700   46.7520 C   0  0  0  0  0  0  0  0  0  0  0  0
   39.6320   30.7400   45.7130 C   0  0  0  0  0  0  0  0  0  0  0  0
   38.3572   33.4967   50.6114 H   0  0  0  0  0  0  0  0  0  0  0  0
   39.8167   35.2240   49.5128 H   0  0  0  0  0  0  0  0  0  0  0  0
   40.6584   34.8784   47.2062 H   0  0  0  0  0  0  0  0  0  0  0  0
   40.0642   32.7980   45.9438 H   0  0  0  0  0  0  0  0  0  0  0  0
   37.4887   28.6496   51.7739 H   0  0  0  0  0  0  0  0  0  0  0  0
   39.1062   30.2250   50.7156 H   0  0  0  0  0  0  0  0  0  0  0  0
   33.3274   29.8835   49.8992 H   0  0  0  0  0  0  0  0  0  0  0  0
   33.7725   31.2265   48.8126 H   0  0  0  0  0  0  0  0  0  0  0  0
   38.5289   29.9608   47.3702 H   0  0  0  0  0  0  0  0  0  0  0  0
   37.5793   31.0028   46.2781 H   0  0  0  0  0  0  0  0  0  0  0  0
   40.6088   30.6212   46.2048 H   0  0  0  0  0  0  0  0  0  0  0  0
   39.4281   29.8600   45.0852 H   0  0  0  0  0  0  0  0  0  0  0  0
   39.6450   31.6432   45.0852 H   0  0  0  0  0  0  0  0  0  0  0  0
  1  9  1  0
  1  2  2  0
  3  2  1  0
  4  3  2  0
  5  6  2  0
  5  4  1  0
  6  1  1  0
  8  7  2  0
  9  8  1  0
 10  9  2  0
 10 11  1  0
 11 12  2  0
 12  7  1  0
 13 11  1  0
 14  6  1  0
 15 14  1  0
  2 16  1  0
  3 17  1  0
  4 18  1  0
  5 19  1  0
  7 20  1  0
  8 21  1  0
 13 22  1  0
 13 23  1  0
 14 24  1  0
 14 25  1  0
 15 26  1  0
 15 27  1  0
 15 28  1  0
M  ISO  8  16  14  17  14  18  14  19  14  20  14  21  14  24   8  25   8
M  ISO  3  26   8  27   8  28   8
M  END
>  <minimizedAffinity>  (1) 
-6.02350235

>  <minimizedRMSD>  (1) 
1.74049318

$$$$
