
     RDKit          3D

 26 27  0  0  0  0  0  0  0  0999 V2000
   38.4430   32.2460   48.9380 C   0  0  0  0  0  0  0  0  0  0  0  0
   38.7250   33.4430   49.5340 C   0  0  0  0  0  0  0  0  0  0  0  0
   39.5480   34.3860   48.8840 C   0  0  0  0  0  0  0  0  0  0  0  0
   40.0690   34.0680   47.6110 C   0  0  0  0  0  0  0  0  0  0  0  0
   39.7990   32.8600   46.9830 C   0  0  0  0  0  0  0  0  0  0  0  0
   38.9930   32.0310   47.7100 C   0  0  0  0  0  0  0  0  0  0  0  0
   37.1090   29.6800   51.3420 C   0  0  0  0  0  0  0  0  0  0  0  0
   38.0380   30.5540   50.7460 C   0  0  0  0  0  0  0  0  0  0  0  0
   37.5910   31.3090   49.6380 C   0  0  0  0  0  0  0  0  0  0  0  0
   36.3010   31.1720   49.1840 N   0  0  0  0  0  0  0  0  0  0  0  0
   35.4640   30.3000   49.8200 C   0  0  0  0  0  0  0  0  0  0  0  0
   35.8500   29.5600   50.8820 N   0  0  0  0  0  0  0  0  0  0  0  0
   34.1750   30.2600   49.2590 N   0  0  0  0  0  0  0  0  0  0  0  0
   37.8900   30.8800   45.9160 C   0  0  0  0  0  0  0  0  0  0  0  0
   37.5490   32.0510   45.5350 O   0  0  0  0  0  0  0  0  0  0  0  0
   38.6830   30.7570   47.0970 N   0  0  0  0  0  0  0  0  0  0  0  0
   38.3080   33.6722   50.5257 H   0  0  0  0  0  0  0  0  0  0  0  0
   39.7794   35.3505   49.3596 H   0  0  0  0  0  0  0  0  0  0  0  0
   40.7099   34.8016   47.1001 H   0  0  0  0  0  0  0  0  0  0  0  0
   40.1970   32.5951   45.9923 H   0  0  0  0  0  0  0  0  0  0  0  0
   37.4211   29.0781   52.2082 H   0  0  0  0  0  0  0  0  0  0  0  0
   39.0663   30.6452   51.1259 H   0  0  0  0  0  0  0  0  0  0  0  0
   33.4588   29.6366   49.6581 H   0  0  0  0  0  0  0  0  0  0  0  0
   33.9472   30.8541   48.4490 H   0  0  0  0  0  0  0  0  0  0  0  0
   37.5806   29.9897   45.3488 H   0  0  0  0  0  0  0  0  0  0  0  0
   39.0021   29.8533   47.4744 H   0  0  0  0  0  0  0  0  0  0  0  0
  1  2  2  0
  1  9  1  0
  3  2  1  0
  4  3  2  0
  5  4  1  0
  5  6  2  0
  6  1  1  0
  8  7  2  0
  9  8  1  0
 10  9  2  0
 10 11  1  0
 11 12  2  0
 12  7  1  0
 13 11  1  0
 14 16  1  0
 15 14  2  0
 16  6  1  0
  2 17  1  0
  3 18  1  0
  4 19  1  0
  5 20  1  0
  7 21  1  0
  8 22  1  0
 13 23  1  0
 13 24  1  0
 14 25  1  0
 16 26  1  0
M  ISO  7  17  14  18  14  19  14  20  14  21  14  22  14  25   6
M  END
>  <minimizedAffinity>  (1) 
-5.98879576

>  <minimizedRMSD>  (1) 
1.59341311

$$$$
