
     RDKit          3D

 25 26  0  0  0  0  0  0  0  0999 V2000
   38.3960   32.1890   48.8930 C   0  0  0  0  0  0  0  0  0  0  0  0
   38.7560   33.3260   49.5620 C   0  0  0  0  0  0  0  0  0  0  0  0
   39.5630   34.2920   48.9590 C   0  0  0  0  0  0  0  0  0  0  0  0
   40.0010   34.0880   47.6580 C   0  0  0  0  0  0  0  0  0  0  0  0
   39.6450   32.9360   46.9610 C   0  0  0  0  0  0  0  0  0  0  0  0
   38.8440   32.0090   47.6030 C   0  0  0  0  0  0  0  0  0  0  0  0
   37.1120   29.4540   51.1390 C   0  0  0  0  0  0  0  0  0  0  0  0
   38.0420   30.3250   50.5440 C   0  0  0  0  0  0  0  0  0  0  0  0
   37.5510   31.2280   49.5930 C   0  0  0  0  0  0  0  0  0  0  0  0
   36.2200   31.2160   49.2980 N   0  0  0  0  0  0  0  0  0  0  0  0
   35.3690   30.3570   49.9030 C   0  0  0  0  0  0  0  0  0  0  0  0
   35.8000   29.4800   50.8150 N   0  0  0  0  0  0  0  0  0  0  0  0
   34.0200   30.4460   49.5100 N   0  0  0  0  0  0  0  0  0  0  0  0
   38.4560   30.7900   46.8880 C   0  0  0  0  0  0  0  0  0  0  0  0
   38.4038   33.4819   50.5924 H   0  0  0  0  0  0  0  0  0  0  0  0
   39.8478   35.2021   49.5072 H   0  0  0  0  0  0  0  0  0  0  0  0
   40.6358   34.8438   47.1724 H   0  0  0  0  0  0  0  0  0  0  0  0
   39.9907   32.7683   45.9303 H   0  0  0  0  0  0  0  0  0  0  0  0
   37.4624   28.7305   51.8899 H   0  0  0  0  0  0  0  0  0  0  0  0
   39.1081   30.2982   50.8137 H   0  0  0  0  0  0  0  0  0  0  0  0
   33.3185   29.8207   49.9316 H   0  0  0  0  0  0  0  0  0  0  0  0
   33.7346   31.1364   48.8009 H   0  0  0  0  0  0  0  0  0  0  0  0
   38.2055   30.0029   47.6144 H   0  0  0  0  0  0  0  0  0  0  0  0
   37.5798   30.9985   46.2565 H   0  0  0  0  0  0  0  0  0  0  0  0
   39.2915   30.4537   46.2565 H   0  0  0  0  0  0  0  0  0  0  0  0
  1  2  2  0
  1  9  1  0
  3  2  1  0
  4  3  2  0
  5  6  2  0
  5  4  1  0
  6  1  1  0
  8  7  2  0
  9  8  1  0
 10  9  2  0
 10 11  1  0
 11 12  2  0
 12  7  1  0
 13 11  1  0
 14  6  1  0
  2 15  1  0
  3 16  1  0
  4 17  1  0
  5 18  1  0
  7 19  1  0
  8 20  1  0
 13 21  1  0
 13 22  1  0
 14 23  1  0
 14 24  1  0
 14 25  1  0
M  ISO  8  15  14  16  14  17  14  18  14  19  14  20  14  23   8  24   8
M  ISO  1  25   8
M  END
>  <minimizedAffinity>  (1) 
-5.94159651

>  <minimizedRMSD>  (1) 
1.57491028

$$$$
