
     RDKit          3D

 24 25  0  0  0  0  0  0  0  0999 V2000
   38.3300   32.1440   48.9390 C   0  0  0  0  0  0  0  0  0  0  0  0
   38.7150   33.2920   49.5680 C   0  0  0  0  0  0  0  0  0  0  0  0
   39.5280   34.2150   48.8850 C   0  0  0  0  0  0  0  0  0  0  0  0
   39.9450   33.9760   47.5830 C   0  0  0  0  0  0  0  0  0  0  0  0
   39.5560   32.8070   46.9370 C   0  0  0  0  0  0  0  0  0  0  0  0
   38.7660   31.9580   47.6630 C   0  0  0  0  0  0  0  0  0  0  0  0
   37.0810   29.4990   51.3040 C   0  0  0  0  0  0  0  0  0  0  0  0
   37.9860   30.3580   50.6710 C   0  0  0  0  0  0  0  0  0  0  0  0
   37.4930   31.2120   49.6590 C   0  0  0  0  0  0  0  0  0  0  0  0
   36.1620   31.1600   49.3470 N   0  0  0  0  0  0  0  0  0  0  0  0
   35.3380   30.3000   50.0030 C   0  0  0  0  0  0  0  0  0  0  0  0
   35.7900   29.4750   50.9730 N   0  0  0  0  0  0  0  0  0  0  0  0
   33.9910   30.3660   49.5630 N   0  0  0  0  0  0  0  0  0  0  0  0
   38.4040   30.7540   46.9250 C   0  0  0  0  0  0  0  0  0  0  0  0
   38.8330   30.3690   45.8160 O   0  0  0  0  0  0  0  0  0  0  0  0
   38.3925   33.4941   50.6001 H   0  0  0  0  0  0  0  0  0  0  0  0
   39.8382   35.1411   49.3911 H   0  0  0  0  0  0  0  0  0  0  0  0
   40.5808   34.7083   47.0638 H   0  0  0  0  0  0  0  0  0  0  0  0
   39.8645   32.5792   45.9060 H   0  0  0  0  0  0  0  0  0  0  0  0
   37.4441   28.8263   52.0950 H   0  0  0  0  0  0  0  0  0  0  0  0
   39.0493   30.3682   50.9527 H   0  0  0  0  0  0  0  0  0  0  0  0
   33.2789   29.7575   49.9914 H   0  0  0  0  0  0  0  0  0  0  0  0
   33.7251   31.0224   48.8151 H   0  0  0  0  0  0  0  0  0  0  0  0
   37.6592   30.1020   47.4048 H   0  0  0  0  0  0  0  0  0  0  0  0
  1  2  2  0
  1  9  1  0
  3  2  1  0
  4  3  2  0
  5  4  1  0
  5  6  2  0
  6  1  1  0
  8  7  2  0
  9  8  1  0
 10  9  2  0
 10 11  1  0
 11 12  2  0
 12  7  1  0
 13 11  1  0
 14  6  1  0
 15 14  2  0
  2 16  1  0
  3 17  1  0
  4 18  1  0
  5 19  1  0
  7 20  1  0
  8 21  1  0
 13 22  1  0
 13 23  1  0
 14 24  1  0
M  ISO  7  16  14  17  14  18  14  19  14  20  14  21  14  24   6
M  END
>  <minimizedAffinity>  (1) 
-5.80487919

>  <minimizedRMSD>  (1) 
1.54676676

$$$$
