
     RDKit          3D

 23 24  0  0  0  0  0  0  0  0999 V2000
   38.4930   32.1170   48.4930 C   0  0  0  0  0  0  0  0  0  0  0  0
   38.6850   33.1320   49.3870 C   0  0  0  0  0  0  0  0  0  0  0  0
   39.4880   34.2290   49.0360 C   0  0  0  0  0  0  0  0  0  0  0  0
   40.0830   34.2580   47.7570 C   0  0  0  0  0  0  0  0  0  0  0  0
   39.8980   33.2350   46.8360 C   0  0  0  0  0  0  0  0  0  0  0  0
   39.0990   32.2120   47.2770 C   0  0  0  0  0  0  0  0  0  0  0  0
   36.9710   29.1840   50.3200 C   0  0  0  0  0  0  0  0  0  0  0  0
   37.9000   30.2160   50.0490 C   0  0  0  0  0  0  0  0  0  0  0  0
   37.6460   31.0130   48.9160 C   0  0  0  0  0  0  0  0  0  0  0  0
   36.5340   30.7540   48.1500 N   0  0  0  0  0  0  0  0  0  0  0  0
   35.6860   29.7380   48.4790 C   0  0  0  0  0  0  0  0  0  0  0  0
   35.8970   28.9610   49.5480 N   0  0  0  0  0  0  0  0  0  0  0  0
   34.5920   29.5910   47.6070 N   0  0  0  0  0  0  0  0  0  0  0  0
   38.8910   31.1570   46.3650 O   0  0  0  0  0  0  0  0  0  0  0  0
   38.2118   33.0900   50.3791 H   0  0  0  0  0  0  0  0  0  0  0  0
   39.6506   35.0526   49.7468 H   0  0  0  0  0  0  0  0  0  0  0  0
   40.7125   35.1168   47.4809 H   0  0  0  0  0  0  0  0  0  0  0  0
   40.3548   33.2448   45.8354 H   0  0  0  0  0  0  0  0  0  0  0  0
   37.1356   28.5403   51.1967 H   0  0  0  0  0  0  0  0  0  0  0  0
   38.7767   30.3873   50.6910 H   0  0  0  0  0  0  0  0  0  0  0  0
   33.8963   28.8500   47.7739 H   0  0  0  0  0  0  0  0  0  0  0  0
   34.4866   30.2244   46.8016 H   0  0  0  0  0  0  0  0  0  0  0  0
   38.3240   30.3866   46.6202 H   0  0  0  0  0  0  0  0  0  0  0  0
  1  9  1  0
  1  2  2  0
  3  2  1  0
  4  3  2  0
  5  6  2  0
  5  4  1  0
  6  1  1  0
  8  7  2  0
  9  8  1  0
 10 11  1  0
 10  9  2  0
 11 12  2  0
 12  7  1  0
 13 11  1  0
 14  6  1  0
  2 15  1  0
  3 16  1  0
  4 17  1  0
  5 18  1  0
  7 19  1  0
  8 20  1  0
 13 21  1  0
 13 22  1  0
 14 23  1  0
M  ISO  7  15  14  16  14  17  14  18  14  19  14  20  14  23   3
M  END
>  <minimizedAffinity>  (1) 
-5.38984394

>  <minimizedRMSD>  (1) 
1.70475888

$$$$
