
     RDKit          3D

 28 29  0  0  1  0  0  0  0  0999 V2000
   35.5290   30.3580   49.5040 C   0  0  2  0  0  0  0  0  0  0  0  0
   36.5670   31.0480   48.6400 C   0  0  0  0  0  0  0  0  0  0  0  0
   37.9650   30.6150   48.9690 C   0  0  0  0  0  0  0  0  0  0  0  0
   38.2800   30.8500   50.4300 C   0  0  0  0  0  0  0  0  0  0  0  0
   37.2310   30.2910   51.3380 C   0  0  0  0  0  0  0  0  0  0  0  0
   36.1220   29.5630   50.6160 C   0  0  1  0  0  0  0  0  0  0  0  0
   34.7350   29.4150   48.6540 C   0  0  0  0  0  0  0  0  0  0  0  0
   34.0790   29.9840   47.5460 C   0  0  0  0  0  0  0  0  0  0  0  0
   33.3270   29.1150   46.7520 C   0  0  0  0  0  0  0  0  0  0  0  0
   33.2580   27.7740   47.0750 N   0  0  0  0  0  0  0  0  0  0  0  0
   33.9160   27.2810   48.1620 C   0  0  0  0  0  0  0  0  0  0  0  0
   34.6390   28.0920   48.9320 N   0  0  0  0  0  0  0  0  0  0  0  0
   35.1280   29.1930   51.5730 N   0  0  0  0  0  0  0  0  0  0  0  0
   34.9090   31.1534   49.9431 H   0  0  0  0  0  0  0  0  0  0  0  0
   36.4885   32.1344   48.7934 H   0  0  0  0  0  0  0  0  0  0  0  0
   36.3685   30.7730   47.5936 H   0  0  0  0  0  0  0  0  0  0  0  0
   38.0703   29.5428   48.7470 H   0  0  0  0  0  0  0  0  0  0  0  0
   38.6655   31.2070   48.3616 H   0  0  0  0  0  0  0  0  0  0  0  0
   39.2420   30.3712   50.6651 H   0  0  0  0  0  0  0  0  0  0  0  0
   38.3194   31.9371   50.5933 H   0  0  0  0  0  0  0  0  0  0  0  0
   37.7131   29.5869   52.0322 H   0  0  0  0  0  0  0  0  0  0  0  0
   36.7688   31.1444   51.8558 H   0  0  0  0  0  0  0  0  0  0  0  0
   36.5477   28.6671   50.1404 H   0  0  0  0  0  0  0  0  0  0  0  0
   34.1547   31.0573   47.3174 H   0  0  0  0  0  0  0  0  0  0  0  0
   32.7908   29.4980   45.8712 H   0  0  0  0  0  0  0  0  0  0  0  0
   33.8496   26.2100   48.4040 H   0  0  0  0  0  0  0  0  0  0  0  0
   35.4988   29.3310   52.5240 H   0  0  0  0  0  0  0  0  0  0  0  0
   34.2909   29.7788   51.4425 H   0  0  0  0  0  0  0  0  0  0  0  0
  1  6  1  0
  2  3  1  0
  2  1  1  0
  3  4  1  0
  4  5  1  0
  6  5  1  0
  6 13  1  0
  7 12  1  0
  7  1  1  0
  8  7  2  0
  9 10  2  0
  9  8  1  0
 10 11  1  0
 11 12  2  0
  1 14  1  1
  2 15  1  0
  2 16  1  0
  3 17  1  0
  3 18  1  0
  4 19  1  0
  4 20  1  0
  5 21  1  0
  5 22  1  0
  6 23  1  6
  8 24  1  0
  9 25  1  0
 11 26  1  0
 13 27  1  0
 13 28  1  0
M  ISO  8  14  13  15  13  16  13  17  13  18  13  19  13  20  13  21  13
M  ISO  7  22  13  23  13  24  14  25  14  26  14  27   5  28   5
M  END
>  <minimizedAffinity>  (1) 
-4.79369831

>  <minimizedRMSD>  (1) 
0.22392495

$$$$
