
     RDKit          3D

 27 28  0  0  1  0  0  0  0  0999 V2000
   35.9120   29.8300   48.9030 N   0  0  0  0  0  0  0  0  0  0  0  0
   36.7770   28.9990   49.7020 C   0  0  0  0  0  0  0  0  0  0  0  0
   37.3030   29.6450   50.9450 C   0  0  0  0  0  0  0  0  0  0  0  0
   37.5450   31.0480   50.8620 N   0  0  0  0  0  0  0  0  0  0  0  0
   36.4730   31.7530   50.1510 C   0  0  0  0  0  0  0  0  0  0  0  0
   36.4630   31.1350   48.7770 C   0  0  1  0  0  0  0  0  0  0  0  0
   34.6890   29.3650   48.3400 C   0  0  0  0  0  0  0  0  0  0  0  0
   34.1820   29.8700   47.1460 C   0  0  0  0  0  0  0  0  0  0  0  0
   32.9710   29.3640   46.6530 C   0  0  0  0  0  0  0  0  0  0  0  0
   32.3440   28.3820   47.3900 N   0  0  0  0  0  0  0  0  0  0  0  0
   32.8870   27.9230   48.5550 C   0  0  0  0  0  0  0  0  0  0  0  0
   34.0490   28.4020   49.0380 N   0  0  0  0  0  0  0  0  0  0  0  0
   37.8130   31.2510   48.1710 C   0  0  0  0  0  0  0  0  0  0  0  0
   37.8380   32.2020   47.1390 F   0  0  0  0  0  0  0  0  0  0  0  0
   38.2890   30.0980   47.6160 F   0  0  0  0  0  0  0  0  0  0  0  0
   38.7820   31.6910   49.0550 F   0  0  0  0  0  0  0  0  0  0  0  0
   36.2121   28.1022   49.9963 H   0  0  0  0  0  0  0  0  0  0  0  0
   37.6540   28.7769   49.0762 H   0  0  0  0  0  0  0  0  0  0  0  0
   36.5711   29.4760   51.7486 H   0  0  0  0  0  0  0  0  0  0  0  0
   38.2845   29.1835   51.1285 H   0  0  0  0  0  0  0  0  0  0  0  0
   37.6172   31.4294   51.8161 H   0  0  0  0  0  0  0  0  0  0  0  0
   35.5066   31.5996   50.6535 H   0  0  0  0  0  0  0  0  0  0  0  0
   36.6360   32.8404   50.1198 H   0  0  0  0  0  0  0  0  0  0  0  0
   35.8186   31.6582   48.0551 H   0  0  0  0  0  0  0  0  0  0  0  0
   34.7236   30.6546   46.5973 H   0  0  0  0  0  0  0  0  0  0  0  0
   32.5373   29.7366   45.7133 H   0  0  0  0  0  0  0  0  0  0  0  0
   32.3593   27.1379   49.1164 H   0  0  0  0  0  0  0  0  0  0  0  0
  1  2  1  0
  2  3  1  0
  4  3  1  0
  5  4  1  0
  6  1  1  0
  6  5  1  0
  7  1  1  0
  7 12  1  0
  8  7  2  0
  9  8  1  0
  9 10  2  0
 10 11  1  0
 11 12  2  0
 13  6  1  0
 13 16  1  0
 14 13  1  0
 15 13  1  0
  2 17  1  0
  2 18  1  0
  3 19  1  0
  3 20  1  0
  4 21  1  0
  5 22  1  0
  5 23  1  0
  6 24  1  6
  8 25  1  0
  9 26  1  0
 11 27  1  0
M  ISO  8  17  13  18  13  19  13  20  13  21   5  22  13  23  13  24  13
M  ISO  3  25  14  26  14  27  14
M  END
>  <minimizedAffinity>  (1) 
-4.63397837

>  <minimizedRMSD>  (1) 
1.49389911

$$$$
