
     RDKit          3D

 28 29  0  0  1  0  0  0  0  0999 V2000
   36.1010   29.7060   49.0150 N   0  0  0  0  0  0  0  0  0  0  0  0
   36.7850   28.9700   50.0430 C   0  0  0  0  0  0  0  0  0  0  0  0
   37.3010   29.7960   51.1620 C   0  0  0  0  0  0  0  0  0  0  0  0
   37.7130   31.1160   50.8460 N   0  0  0  0  0  0  0  0  0  0  0  0
   36.8110   31.7790   49.8930 C   0  0  0  0  0  0  0  0  0  0  0  0
   36.8330   30.8950   48.6640 C   0  0  1  0  0  0  0  0  0  0  0  0
   34.8630   29.3000   48.4320 C   0  0  0  0  0  0  0  0  0  0  0  0
   34.3530   29.8600   47.2520 C   0  0  0  0  0  0  0  0  0  0  0  0
   33.1340   29.3880   46.7720 C   0  0  0  0  0  0  0  0  0  0  0  0
   32.4890   28.4070   47.4640 N   0  0  0  0  0  0  0  0  0  0  0  0
   33.0290   27.8920   48.6130 C   0  0  0  0  0  0  0  0  0  0  0  0
   34.1910   28.3230   49.0970 N   0  0  0  0  0  0  0  0  0  0  0  0
   38.7900   31.3320   47.2240 C   0  0  0  0  0  0  0  0  0  0  0  0
   38.1630   32.2650   46.6600 O   0  0  0  0  0  0  0  0  0  0  0  0
   38.1970   30.5720   48.2590 N   0  0  0  0  0  0  0  0  0  0  0  0
   36.0842   28.2308   50.4583 H   0  0  0  0  0  0  0  0  0  0  0  0
   37.6641   28.5140   49.5641 H   0  0  0  0  0  0  0  0  0  0  0  0
   36.5045   29.8679   51.9173 H   0  0  0  0  0  0  0  0  0  0  0  0
   38.2132   29.2833   51.5011 H   0  0  0  0  0  0  0  0  0  0  0  0
   37.7397   31.6696   51.7142 H   0  0  0  0  0  0  0  0  0  0  0  0
   35.7931   31.8458   50.3046 H   0  0  0  0  0  0  0  0  0  0  0  0
   37.1255   32.8093   49.6702 H   0  0  0  0  0  0  0  0  0  0  0  0
   36.3775   31.4074   47.8038 H   0  0  0  0  0  0  0  0  0  0  0  0
   34.9013   30.6512   46.7196 H   0  0  0  0  0  0  0  0  0  0  0  0
   32.6989   29.8001   45.8496 H   0  0  0  0  0  0  0  0  0  0  0  0
   32.4867   27.1001   49.1504 H   0  0  0  0  0  0  0  0  0  0  0  0
   39.8180   31.1029   46.9067 H   0  0  0  0  0  0  0  0  0  0  0  0
   38.7158   29.8085   48.7160 H   0  0  0  0  0  0  0  0  0  0  0  0
  1  2  1  0
  2  3  1  0
  4  3  1  0
  5  4  1  0
  6  1  1  0
  6  5  1  0
  7  1  1  0
  7 12  1  0
  8  7  2  0
  9  8  1  0
  9 10  2  0
 10 11  1  0
 11 12  2  0
 13 15  1  0
 14 13  2  0
 15  6  1  0
  2 16  1  0
  2 17  1  0
  3 18  1  0
  3 19  1  0
  4 20  1  0
  5 21  1  0
  5 22  1  0
  6 23  1  6
  8 24  1  0
  9 25  1  0
 11 26  1  0
 13 27  1  0
 15 28  1  0
M  ISO  8  16  13  17  13  18  13  19  13  20   5  21  13  22  13  23  13
M  ISO  4  24  14  25  14  26  14  27   6
M  END
>  <minimizedAffinity>  (1) 
-4.58938932

>  <minimizedRMSD>  (1) 
1.1894244

$$$$
