
     RDKit          3D

 25 26  0  0  1  0  0  0  0  0999 V2000
   36.1160   29.6660   49.0190 N   0  0  0  0  0  0  0  0  0  0  0  0
   36.7580   28.9490   50.1130 C   0  0  0  0  0  0  0  0  0  0  0  0
   37.2480   29.8230   51.2160 C   0  0  0  0  0  0  0  0  0  0  0  0
   37.6910   31.1210   50.8670 N   0  0  0  0  0  0  0  0  0  0  0  0
   36.8860   31.7560   49.8240 C   0  0  0  0  0  0  0  0  0  0  0  0
   36.9070   30.7900   48.6510 C   0  0  1  0  0  0  0  0  0  0  0  0
   34.8850   29.2720   48.4340 C   0  0  0  0  0  0  0  0  0  0  0  0
   34.3780   29.8270   47.2620 C   0  0  0  0  0  0  0  0  0  0  0  0
   33.1570   29.3770   46.7600 C   0  0  0  0  0  0  0  0  0  0  0  0
   32.5060   28.3910   47.4580 N   0  0  0  0  0  0  0  0  0  0  0  0
   33.0300   27.8700   48.6000 C   0  0  0  0  0  0  0  0  0  0  0  0
   34.1930   28.3010   49.0760 N   0  0  0  0  0  0  0  0  0  0  0  0
   38.2060   30.3460   48.4020 O   0  0  0  0  0  0  0  0  0  0  0  0
   36.0304   28.2392   50.5334 H   0  0  0  0  0  0  0  0  0  0  0  0
   37.6430   28.4531   49.6877 H   0  0  0  0  0  0  0  0  0  0  0  0
   36.4254   29.9373   51.9373 H   0  0  0  0  0  0  0  0  0  0  0  0
   38.1426   29.3138   51.6038 H   0  0  0  0  0  0  0  0  0  0  0  0
   37.6581   31.7133   51.7091 H   0  0  0  0  0  0  0  0  0  0  0  0
   35.8553   31.9120   50.1753 H   0  0  0  0  0  0  0  0  0  0  0  0
   37.2828   32.7438   49.5466 H   0  0  0  0  0  0  0  0  0  0  0  0
   36.5245   31.2902   47.7491 H   0  0  0  0  0  0  0  0  0  0  0  0
   34.9366   30.6150   46.7356 H   0  0  0  0  0  0  0  0  0  0  0  0
   32.7309   29.7976   45.8372 H   0  0  0  0  0  0  0  0  0  0  0  0
   32.4832   27.0808   49.1369 H   0  0  0  0  0  0  0  0  0  0  0  0
   38.6709   30.1871   49.2615 H   0  0  0  0  0  0  0  0  0  0  0  0
  1  2  1  0
  2  3  1  0
  4  3  1  0
  5  4  1  0
  6  1  1  0
  6  5  1  0
  7  1  1  0
  7 12  1  0
  8  7  2  0
  9  8  1  0
  9 10  2  0
 10 11  1  0
 11 12  2  0
 13  6  1  0
  2 14  1  0
  2 15  1  0
  3 16  1  0
  3 17  1  0
  4 18  1  0
  5 19  1  0
  5 20  1  0
  6 21  1  6
  8 22  1  0
  9 23  1  0
 11 24  1  0
 13 25  1  0
M  ISO  8  14  13  15  13  16  13  17  13  18   5  19  13  20  13  21  13
M  ISO  4  22  14  23  14  24  14  25   3
M  END
>  <minimizedAffinity>  (1) 
-4.14949322

>  <minimizedRMSD>  (1) 
0.752269745

$$$$
