
     RDKit          3D

 26 27  0  0  1  0  0  0  0  0999 V2000
   35.9750   29.7240   48.9500 N   0  0  0  0  0  0  0  0  0  0  0  0
   36.6780   28.9560   49.9620 C   0  0  0  0  0  0  0  0  0  0  0  0
   37.1680   29.7660   51.1240 C   0  0  0  0  0  0  0  0  0  0  0  0
   37.5530   31.1000   50.8460 N   0  0  0  0  0  0  0  0  0  0  0  0
   36.6570   31.7650   49.9030 C   0  0  0  0  0  0  0  0  0  0  0  0
   36.6970   30.9010   48.6450 C   0  0  1  0  0  0  0  0  0  0  0  0
   34.7350   29.2940   48.3830 C   0  0  0  0  0  0  0  0  0  0  0  0
   34.2400   29.8330   47.1810 C   0  0  0  0  0  0  0  0  0  0  0  0
   33.0200   29.3520   46.7040 C   0  0  0  0  0  0  0  0  0  0  0  0
   32.3730   28.3870   47.4310 N   0  0  0  0  0  0  0  0  0  0  0  0
   32.8940   27.9040   48.5810 C   0  0  0  0  0  0  0  0  0  0  0  0
   34.0530   28.3370   49.0640 N   0  0  0  0  0  0  0  0  0  0  0  0
   38.0840   30.6990   48.1620 C   0  0  0  0  0  0  0  0  0  0  0  0
   38.4930   30.6410   47.0150 O   0  0  0  0  0  0  0  0  0  0  0  0
   35.9944   28.1839   50.3447 H   0  0  0  0  0  0  0  0  0  0  0  0
   37.5696   28.5353   49.4741 H   0  0  0  0  0  0  0  0  0  0  0  0
   36.3619   29.7996   51.8717 H   0  0  0  0  0  0  0  0  0  0  0  0
   38.0852   29.2628   51.4638 H   0  0  0  0  0  0  0  0  0  0  0  0
   37.5556   31.6320   51.7280 H   0  0  0  0  0  0  0  0  0  0  0  0
   35.6352   31.8119   50.3077 H   0  0  0  0  0  0  0  0  0  0  0  0
   36.9637   32.8021   49.7023 H   0  0  0  0  0  0  0  0  0  0  0  0
   36.2157   31.3869   47.7834 H   0  0  0  0  0  0  0  0  0  0  0  0
   34.7969   30.6086   46.6349 H   0  0  0  0  0  0  0  0  0  0  0  0
   32.5886   29.7375   45.7684 H   0  0  0  0  0  0  0  0  0  0  0  0
   32.3417   27.1294   49.1332 H   0  0  0  0  0  0  0  0  0  0  0  0
   38.8481   30.5861   48.9452 H   0  0  0  0  0  0  0  0  0  0  0  0
  1  2  1  0
  2  3  1  0
  4  3  1  0
  5  4  1  0
  6  1  1  0
  6  5  1  0
  7  1  1  0
  7 12  1  0
  8  7  2  0
  9  8  1  0
  9 10  2  0
 10 11  1  0
 11 12  2  0
 13  6  1  0
 14 13  2  0
  2 15  1  0
  2 16  1  0
  3 17  1  0
  3 18  1  0
  4 19  1  0
  5 20  1  0
  5 21  1  0
  6 22  1  6
  8 23  1  0
  9 24  1  0
 11 25  1  0
 13 26  1  0
M  ISO  8  15  13  16  13  17  13  18  13  19   5  20  13  21  13  22  13
M  ISO  4  23  14  24  14  25  14  26   6
M  END
>  <minimizedAffinity>  (1) 
-4.04292107

>  <minimizedRMSD>  (1) 
1.02499855

$$$$
