
     RDKit          3D

 37 40  0  0  0  0  0  0  0  0999 V2000
   33.0770   28.3550   47.8320 C   0  0  0  0  0  0  0  0  0  0  0  0
   32.2580   27.7580   48.7700 C   0  0  0  0  0  0  0  0  0  0  0  0
   30.9170   27.5990   48.5500 C   0  0  0  0  0  0  0  0  0  0  0  0
   30.2950   28.0160   47.3930 C   0  0  0  0  0  0  0  0  0  0  0  0
   31.1030   28.6000   46.4760 C   0  0  0  0  0  0  0  0  0  0  0  0
   32.4240   28.7590   46.6890 C   0  0  0  0  0  0  0  0  0  0  0  0
   30.3970   29.1760   44.9440 S   0  0  0  0  0  0  0  0  0  0  0  0
   28.6620   28.7900   45.0450 C   0  0  0  0  0  0  0  0  0  0  0  0
   27.9230   29.1480   43.9650 C   0  0  0  0  0  0  0  0  0  0  0  0
   26.5570   28.8900   43.9460 C   0  0  0  0  0  0  0  0  0  0  0  0
   26.0010   28.2720   45.0420 C   0  0  0  0  0  0  0  0  0  0  0  0
   26.8180   27.9340   46.1080 C   0  0  0  0  0  0  0  0  0  0  0  0
   28.1760   28.1790   46.1510 C   0  0  0  0  0  0  0  0  0  0  0  0
   28.9030   27.7990   47.2760 N   0  0  0  0  0  0  0  0  0  0  0  0
   34.5090   28.5110   48.0960 C   0  0  0  0  0  0  0  0  0  0  0  0
   34.8700   28.3090   49.5470 C   0  0  0  0  0  0  0  0  0  0  0  0
   37.3760   30.2530   51.4650 C   0  0  0  0  0  0  0  0  0  0  0  0
   38.1710   30.8180   50.4510 C   0  0  0  0  0  0  0  0  0  0  0  0
   37.8400   30.5260   49.1100 C   0  0  0  0  0  0  0  0  0  0  0  0
   36.7650   29.7110   48.8820 N   0  0  0  0  0  0  0  0  0  0  0  0
   36.0350   29.1960   49.9030 C   0  0  0  0  0  0  0  0  0  0  0  0
   36.3450   29.4690   51.1680 N   0  0  0  0  0  0  0  0  0  0  0  0
   32.6936   27.4023   49.7154 H   0  0  0  0  0  0  0  0  0  0  0  0
   30.3091   27.1176   49.3302 H   0  0  0  0  0  0  0  0  0  0  0  0
   33.0185   29.2422   45.8997 H   0  0  0  0  0  0  0  0  0  0  0  0
   28.4032   29.6410   43.1069 H   0  0  0  0  0  0  0  0  0  0  0  0
   25.9393   29.1716   43.0805 H   0  0  0  0  0  0  0  0  0  0  0  0
   24.9241   28.0497   45.0713 H   0  0  0  0  0  0  0  0  0  0  0  0
   26.3558   27.4392   46.9749 H   0  0  0  0  0  0  0  0  0  0  0  0
   28.4068   27.3415   48.0541 H   0  0  0  0  0  0  0  0  0  0  0  0
   35.0584   27.7732   47.4928 H   0  0  0  0  0  0  0  0  0  0  0  0
   34.7801   29.5438   47.8318 H   0  0  0  0  0  0  0  0  0  0  0  0
   34.0070   28.5660   50.1788 H   0  0  0  0  0  0  0  0  0  0  0  0
   35.1458   27.2572   49.7132 H   0  0  0  0  0  0  0  0  0  0  0  0
   37.6113   30.4633   52.5188 H   0  0  0  0  0  0  0  0  0  0  0  0
   39.0244   31.4675   50.6956 H   0  0  0  0  0  0  0  0  0  0  0  0
   38.4266   30.9398   48.2766 H   0  0  0  0  0  0  0  0  0  0  0  0
  1 15  1  0
  1  2  2  0
  3  2  1  0
  4  3  2  0
  5  6  2  0
  5  4  1  0
  6  1  1  0
  7  8  1  0
  7  5  1  0
  8 13  2  0
  9  8  1  0
 10  9  2  0
 10 11  1  0
 11 12  2  0
 12 13  1  0
 13 14  1  0
 14  4  1  0
 15 16  1  0
 16 21  1  0
 18 17  2  0
 19 18  1  0
 20 19  2  0
 20 21  1  0
 21 22  2  0
 22 17  1  0
  2 23  1  0
  3 24  1  0
  6 25  1  0
  9 26  1  0
 10 27  1  0
 11 28  1  0
 12 29  1  0
 14 30  1  0
 15 31  1  0
 15 32  1  0
 16 33  1  0
 16 34  1  0
 17 35  1  0
 18 36  1  0
 19 37  1  0
M  ISO  8  23  14  24  14  25  14  26  14  27  14  28  14  29  14  31   8
M  ISO  6  32   8  33   8  34   8  35  14  36  14  37  14
M  END
>  <minimizedAffinity>  (1) 
-5.6947875

>  <minimizedRMSD>  (1) 
2.25831342

$$$$
