
     RDKit          3D

 29 31  0  0  0  0  0  0  0  0999 V2000
   34.4610   28.3290   48.1760 C   0  0  0  0  0  0  0  0  0  0  0  0
   32.5810   27.4360   46.7430 C   0  0  0  0  0  0  0  0  0  0  0  0
   33.0560   27.9010   47.9510 C   0  0  0  0  0  0  0  0  0  0  0  0
   32.2430   28.0050   49.0590 C   0  0  0  0  0  0  0  0  0  0  0  0
   30.9020   27.6420   49.0070 C   0  0  0  0  0  0  0  0  0  0  0  0
   29.9110   27.6470   49.9310 N   0  0  0  0  0  0  0  0  0  0  0  0
   28.8100   27.1780   49.2830 C   0  0  0  0  0  0  0  0  0  0  0  0
   29.1100   26.8930   48.0020 N   0  0  0  0  0  0  0  0  0  0  0  0
   30.4160   27.1760   47.8090 C   0  0  0  0  0  0  0  0  0  0  0  0
   31.2570   27.0810   46.7050 C   0  0  0  0  0  0  0  0  0  0  0  0
   34.8270   28.2660   49.6390 C   0  0  0  0  0  0  0  0  0  0  0  0
   37.4120   30.3050   51.3530 C   0  0  0  0  0  0  0  0  0  0  0  0
   38.1370   30.8280   50.2640 C   0  0  0  0  0  0  0  0  0  0  0  0
   37.7290   30.4740   48.9470 C   0  0  0  0  0  0  0  0  0  0  0  0
   36.6540   29.6440   48.8140 N   0  0  0  0  0  0  0  0  0  0  0  0
   35.9960   29.1730   49.9130 C   0  0  0  0  0  0  0  0  0  0  0  0
   36.3710   29.5010   51.1630 N   0  0  0  0  0  0  0  0  0  0  0  0
   34.5816   29.3631   47.8209 H   0  0  0  0  0  0  0  0  0  0  0  0
   35.1239   27.6473   47.6231 H   0  0  0  0  0  0  0  0  0  0  0  0
   33.2289   27.3542   45.8578 H   0  0  0  0  0  0  0  0  0  0  0  0
   32.6633   28.3826   50.0028 H   0  0  0  0  0  0  0  0  0  0  0  0
   29.9770   27.9430   50.9153 H   0  0  0  0  0  0  0  0  0  0  0  0
   27.8177   27.0502   49.7402 H   0  0  0  0  0  0  0  0  0  0  0  0
   30.8412   26.7041   45.7589 H   0  0  0  0  0  0  0  0  0  0  0  0
   33.9665   28.5867   50.2446 H   0  0  0  0  0  0  0  0  0  0  0  0
   35.1005   27.2331   49.9002 H   0  0  0  0  0  0  0  0  0  0  0  0
   37.7128   30.5667   52.3782 H   0  0  0  0  0  0  0  0  0  0  0  0
   38.9973   31.4936   50.4275 H   0  0  0  0  0  0  0  0  0  0  0  0
   38.2630   30.8571   48.0649 H   0  0  0  0  0  0  0  0  0  0  0  0
  1 11  1  0
  2  3  2  0
  3  1  1  0
  3  4  1  0
  5  4  2  0
  5  6  1  0
  7  6  1  0
  8  7  2  0
  9  8  1  0
  9  5  1  0
 10  2  1  0
 10  9  2  0
 11 16  1  0
 13 12  2  0
 14 13  1  0
 15 14  2  0
 15 16  1  0
 16 17  2  0
 17 12  1  0
  1 18  1  0
  1 19  1  0
  2 20  1  0
  4 21  1  0
  6 22  1  0
  7 23  1  0
 10 24  1  0
 11 25  1  0
 11 26  1  0
 12 27  1  0
 13 28  1  0
 14 29  1  0
M  ISO  8  18   8  19   8  20  14  21  14  22   9  23  14  24  14  25   8
M  ISO  4  26   8  27  14  28  14  29  14
M  END
>  <minimizedAffinity>  (1) 
-5.06425333

>  <minimizedRMSD>  (1) 
0.987162173

$$$$
