
     RDKit          3D

 27 29  0  0  0  0  0  0  0  0999 V2000
   33.5960   28.6660   49.4230 C   0  0  0  0  0  0  0  0  0  0  0  0
   32.7210   28.0210   48.4320 N   0  0  0  0  0  0  0  0  0  0  0  0
   33.0350   27.6150   47.1880 C   0  0  0  0  0  0  0  0  0  0  0  0
   31.9200   27.0860   46.6630 N   0  0  0  0  0  0  0  0  0  0  0  0
   30.9300   27.1640   47.5730 C   0  0  0  0  0  0  0  0  0  0  0  0
   29.5830   26.8060   47.6480 C   0  0  0  0  0  0  0  0  0  0  0  0
   28.8450   27.0310   48.7480 N   0  0  0  0  0  0  0  0  0  0  0  0
   29.3670   27.6170   49.8420 C   0  0  0  0  0  0  0  0  0  0  0  0
   30.6480   27.9700   49.8020 N   0  0  0  0  0  0  0  0  0  0  0  0
   31.4160   27.7600   48.7190 C   0  0  0  0  0  0  0  0  0  0  0  0
   34.9620   28.0920   49.2510 C   0  0  0  0  0  0  0  0  0  0  0  0
   37.1720   30.2120   51.3470 C   0  0  0  0  0  0  0  0  0  0  0  0
   37.9690   30.8370   50.3850 C   0  0  0  0  0  0  0  0  0  0  0  0
   37.7390   30.5230   49.0150 C   0  0  0  0  0  0  0  0  0  0  0  0
   36.7590   29.6340   48.7220 N   0  0  0  0  0  0  0  0  0  0  0  0
   36.0140   29.0570   49.6990 C   0  0  0  0  0  0  0  0  0  0  0  0
   36.2140   29.3400   51.0010 N   0  0  0  0  0  0  0  0  0  0  0  0
   33.6203   29.7525   49.2527 H   0  0  0  0  0  0  0  0  0  0  0  0
   33.2252   28.4883   50.4432 H   0  0  0  0  0  0  0  0  0  0  0  0
   34.0157   27.7004   46.6971 H   0  0  0  0  0  0  0  0  0  0  0  0
   29.1107   26.3244   46.7791 H   0  0  0  0  0  0  0  0  0  0  0  0
   28.7547   27.7974   50.7379 H   0  0  0  0  0  0  0  0  0  0  0  0
   35.0421   27.1712   49.8475 H   0  0  0  0  0  0  0  0  0  0  0  0
   35.1179   27.8770   48.1835 H   0  0  0  0  0  0  0  0  0  0  0  0
   37.3337   30.4400   52.4109 H   0  0  0  0  0  0  0  0  0  0  0  0
   38.7524   31.5517   50.6774 H   0  0  0  0  0  0  0  0  0  0  0  0
   38.3387   30.9880   48.2187 H   0  0  0  0  0  0  0  0  0  0  0  0
  2 10  1  0
  2  1  1  0
  3  2  1  0
  4  3  2  0
  4  5  1  0
  5  6  2  0
  5 10  1  0
  6  7  1  0
  7  8  2  0
  9  8  1  0
 10  9  2  0
 11  1  1  0
 11 16  1  0
 13 12  2  0
 14 13  1  0
 15 14  2  0
 15 16  1  0
 16 17  2  0
 17 12  1  0
  1 18  1  0
  1 19  1  0
  3 20  1  0
  6 21  1  0
  8 22  1  0
 11 23  1  0
 11 24  1  0
 12 25  1  0
 13 26  1  0
 14 27  1  0
M  ISO  8  18   8  19   8  20  14  21  14  22  14  23   8  24   8  25  14
M  ISO  2  26  14  27  14
M  END
>  <minimizedAffinity>  (1) 
-4.75987577

>  <minimizedRMSD>  (1) 
0.917072833

$$$$
