
     RDKit          3D

 26 27  0  0  0  0  0  0  0  0999 V2000
   34.8300   28.2970   49.5230 C   0  0  0  0  0  0  0  0  0  0  0  0
   37.3410   30.2410   51.4250 C   0  0  0  0  0  0  0  0  0  0  0  0
   38.1410   30.7970   50.4320 C   0  0  0  0  0  0  0  0  0  0  0  0
   37.7980   30.4870   49.1070 C   0  0  0  0  0  0  0  0  0  0  0  0
   36.7300   29.6800   48.8570 N   0  0  0  0  0  0  0  0  0  0  0  0
   35.9930   29.1730   49.8690 C   0  0  0  0  0  0  0  0  0  0  0  0
   36.2970   29.4520   51.1430 N   0  0  0  0  0  0  0  0  0  0  0  0
   34.4810   28.4700   48.0820 C   0  0  0  0  0  0  0  0  0  0  0  0
   33.3110   29.6140   45.4830 Cl  0  0  0  0  0  0  0  0  0  0  0  0
   32.3400   28.8260   46.7040 C   0  0  0  0  0  0  0  0  0  0  0  0
   33.0190   28.3710   47.8140 C   0  0  0  0  0  0  0  0  0  0  0  0
   32.2140   27.7470   48.7730 C   0  0  0  0  0  0  0  0  0  0  0  0
   30.8580   27.5660   48.6880 C   0  0  0  0  0  0  0  0  0  0  0  0
   30.2190   28.0280   47.5810 C   0  0  0  0  0  0  0  0  0  0  0  0
   30.9680   28.6510   46.6080 C   0  0  0  0  0  0  0  0  0  0  0  0
   35.0950   27.2461   49.7114 H   0  0  0  0  0  0  0  0  0  0  0  0
   33.9658   28.5770   50.1433 H   0  0  0  0  0  0  0  0  0  0  0  0
   37.5743   30.4571   52.4780 H   0  0  0  0  0  0  0  0  0  0  0  0
   38.9967   31.4450   50.6725 H   0  0  0  0  0  0  0  0  0  0  0  0
   38.3895   30.8942   48.2737 H   0  0  0  0  0  0  0  0  0  0  0  0
   34.8297   29.4606   47.7548 H   0  0  0  0  0  0  0  0  0  0  0  0
   34.9698   27.6549   47.5282 H   0  0  0  0  0  0  0  0  0  0  0  0
   32.7141   27.3676   49.6763 H   0  0  0  0  0  0  0  0  0  0  0  0
   30.3029   27.0614   49.4925 H   0  0  0  0  0  0  0  0  0  0  0  0
   29.1318   27.9073   47.4654 H   0  0  0  0  0  0  0  0  0  0  0  0
   30.4533   29.0278   45.7118 H   0  0  0  0  0  0  0  0  0  0  0  0
  1  6  1  0
  3  2  2  0
  4  3  1  0
  5  4  2  0
  5  6  1  0
  6  7  2  0
  7  2  1  0
  8  1  1  0
  9 10  1  0
 10 11  2  0
 11  8  1  0
 11 12  1  0
 13 12  2  0
 14 13  1  0
 15 10  1  0
 15 14  2  0
  1 16  1  0
  1 17  1  0
  2 18  1  0
  3 19  1  0
  4 20  1  0
  8 21  1  0
  8 22  1  0
 12 23  1  0
 13 24  1  0
 14 25  1  0
 15 26  1  0
M  ISO  8  16   8  17   8  18  14  19  14  20  14  21   8  22   8  23  14
M  ISO  3  24  14  25  14  26  14
M  END
>  <minimizedAffinity>  (1) 
-4.65848684

>  <minimizedRMSD>  (1) 
1.04927075

$$$$
