
     RDKit          3D

 28 29  0  0  1  0  0  0  0  0999 V2000
   35.4300   30.1500   48.7820 C   0  0  2  0  0  0  0  0  0  0  0  0
   36.5420   30.9020   48.0790 C   0  0  0  0  0  0  0  0  0  0  0  0
   37.9100   30.5400   48.5790 C   0  0  0  0  0  0  0  0  0  0  0  0
   38.0510   30.6800   50.0690 C   0  0  0  0  0  0  0  0  0  0  0  0
   36.8390   30.2320   50.8290 C   0  0  0  0  0  0  0  0  0  0  0  0
   35.9030   29.3970   49.9770 C   0  0  1  0  0  0  0  0  0  0  0  0
   34.8110   29.1730   47.8370 C   0  0  0  0  0  0  0  0  0  0  0  0
   34.6270   29.6070   46.5110 C   0  0  0  0  0  0  0  0  0  0  0  0
   34.0450   28.7070   45.6290 C   0  0  0  0  0  0  0  0  0  0  0  0
   33.6760   27.4520   46.0700 N   0  0  0  0  0  0  0  0  0  0  0  0
   33.8750   27.0770   47.3710 C   0  0  0  0  0  0  0  0  0  0  0  0
   34.4370   27.9420   48.2250 N   0  0  0  0  0  0  0  0  0  0  0  0
   34.7340   29.0820   50.8720 C   0  0  0  0  0  0  0  0  0  0  0  0
   33.8020   29.8950   50.8860 O   0  0  0  0  0  0  0  0  0  0  0  0
   34.7044   30.9057   49.1173 H   0  0  0  0  0  0  0  0  0  0  0  0
   36.3872   31.9800   48.2341 H   0  0  0  0  0  0  0  0  0  0  0  0
   36.5001   30.6269   47.0148 H   0  0  0  0  0  0  0  0  0  0  0  0
   38.1176   29.4952   48.3046 H   0  0  0  0  0  0  0  0  0  0  0  0
   38.6231   31.2378   48.1157 H   0  0  0  0  0  0  0  0  0  0  0  0
   38.9100   30.0756   50.3958 H   0  0  0  0  0  0  0  0  0  0  0  0
   38.1890   31.7504   50.2818 H   0  0  0  0  0  0  0  0  0  0  0  0
   37.1639   29.6309   51.6910 H   0  0  0  0  0  0  0  0  0  0  0  0
   36.2914   31.1304   51.1500 H   0  0  0  0  0  0  0  0  0  0  0  0
   36.4099   28.4963   49.6005 H   0  0  0  0  0  0  0  0  0  0  0  0
   34.9306   30.6138   46.1882 H   0  0  0  0  0  0  0  0  0  0  0  0
   33.8780   28.9934   44.5801 H   0  0  0  0  0  0  0  0  0  0  0  0
   33.5762   26.0748   47.7120 H   0  0  0  0  0  0  0  0  0  0  0  0
   34.7099   28.1696   51.4860 H   0  0  0  0  0  0  0  0  0  0  0  0
  1  6  1  0
  2  3  1  0
  2  1  1  0
  3  4  1  0
  4  5  1  0
  6  5  1  0
  6 13  1  0
  7 12  1  0
  7  1  1  0
  8  7  2  0
  9 10  2  0
  9  8  1  0
 10 11  1  0
 11 12  2  0
 13 14  2  0
  1 15  1  1
  2 16  1  0
  2 17  1  0
  3 18  1  0
  3 19  1  0
  4 20  1  0
  4 21  1  0
  5 22  1  0
  5 23  1  0
  6 24  1  6
  8 25  1  0
  9 26  1  0
 11 27  1  0
 13 28  1  0
M  ISO  8  15  13  16  13  17  13  18  13  19  13  20  13  21  13  22  13
M  ISO  6  23  13  24  13  25  14  26  14  27  14  28   6
M  END
>  <minimizedAffinity>  (1) 
-4.44264555

>  <minimizedRMSD>  (1) 
1.08535683

$$$$
