
     RDKit          3D

 30 31  0  0  0  0  0  0  0  0999 V2000
   34.8070   28.3550   49.3710 C   0  0  0  0  0  0  0  0  0  0  0  0
   37.2810   30.1800   51.4400 C   0  0  0  0  0  0  0  0  0  0  0  0
   38.1150   30.7500   50.4780 C   0  0  0  0  0  0  0  0  0  0  0  0
   37.8240   30.5080   49.1290 C   0  0  0  0  0  0  0  0  0  0  0  0
   36.7460   29.7340   48.8300 N   0  0  0  0  0  0  0  0  0  0  0  0
   35.9600   29.1980   49.7970 C   0  0  0  0  0  0  0  0  0  0  0  0
   36.2240   29.4170   51.0860 N   0  0  0  0  0  0  0  0  0  0  0  0
   34.3040   28.8220   48.0310 C   0  0  0  0  0  0  0  0  0  0  0  0
   33.0440   28.3410   47.6680 N   0  0  0  0  0  0  0  0  0  0  0  0
   32.4830   28.7690   46.4510 C   0  0  0  0  0  0  0  0  0  0  0  0
   30.9930   29.0180   46.5180 C   0  0  0  0  0  0  0  0  0  0  0  0
   30.2980   27.9120   47.1440 N   0  0  0  0  0  0  0  0  0  0  0  0
   30.7980   27.6850   48.4650 C   0  0  0  0  0  0  0  0  0  0  0  0
   32.2920   27.5590   48.5480 C   0  0  0  0  0  0  0  0  0  0  0  0
   35.1294   27.3061   49.2951 H   0  0  0  0  0  0  0  0  0  0  0  0
   33.9995   28.4408   50.1130 H   0  0  0  0  0  0  0  0  0  0  0  0
   37.4878   30.3550   52.5061 H   0  0  0  0  0  0  0  0  0  0  0  0
   38.9751   31.3707   50.7697 H   0  0  0  0  0  0  0  0  0  0  0  0
   38.4514   30.9332   48.3318 H   0  0  0  0  0  0  0  0  0  0  0  0
   34.2564   29.9208   48.0495 H   0  0  0  0  0  0  0  0  0  0  0  0
   35.0086   28.4251   47.2853 H   0  0  0  0  0  0  0  0  0  0  0  0
   32.6713   27.9956   45.6917 H   0  0  0  0  0  0  0  0  0  0  0  0
   32.9567   29.7298   46.2011 H   0  0  0  0  0  0  0  0  0  0  0  0
   30.8092   29.9321   47.1016 H   0  0  0  0  0  0  0  0  0  0  0  0
   30.6145   29.1267   45.4909 H   0  0  0  0  0  0  0  0  0  0  0  0
   29.2926   28.1298   47.1955 H   0  0  0  0  0  0  0  0  0  0  0  0
   30.4877   28.5278   49.1002 H   0  0  0  0  0  0  0  0  0  0  0  0
   30.3821   26.7225   48.7977 H   0  0  0  0  0  0  0  0  0  0  0  0
   32.5474   26.5062   48.3575 H   0  0  0  0  0  0  0  0  0  0  0  0
   32.5544   27.9254   49.5515 H   0  0  0  0  0  0  0  0  0  0  0  0
  1  6  1  0
  3  2  2  0
  4  3  1  0
  5  4  2  0
  5  6  1  0
  6  7  2  0
  7  2  1  0
  8  1  1  0
  9  8  1  0
  9 14  1  0
 10 11  1  0
 10  9  1  0
 11 12  1  0
 12 13  1  0
 13 14  1  0
  1 15  1  0
  1 16  1  0
  2 17  1  0
  3 18  1  0
  4 19  1  0
  8 20  1  0
  8 21  1  0
 10 22  1  0
 10 23  1  0
 11 24  1  0
 11 25  1  0
 12 26  1  0
 13 27  1  0
 13 28  1  0
 14 29  1  0
 14 30  1  0
M  ISO  8  15   8  16   8  17  14  18  14  19  14  20   8  21   8  22  13
M  ISO  8  23  13  24  13  25  13  26   5  27  13  28  13  29  13  30  13
M  END
>  <minimizedAffinity>  (1) 
-4.17288065

>  <minimizedRMSD>  (1) 
0.739610493

$$$$
