
     RDKit          3D

 17 17  0  0  0  0  0  0  0  0999 V2000
   37.3230   30.2120   51.4200 C   0  0  0  0  0  0  0  0  0  0  0  0
   38.0820   30.7250   50.3650 C   0  0  0  0  0  0  0  0  0  0  0  0
   37.7270   30.4190   49.0150 C   0  0  0  0  0  0  0  0  0  0  0  0
   36.6370   29.6220   48.8360 N   0  0  0  0  0  0  0  0  0  0  0  0
   35.9420   29.1550   49.8980 C   0  0  0  0  0  0  0  0  0  0  0  0
   36.2680   29.4370   51.1700 N   0  0  0  0  0  0  0  0  0  0  0  0
   34.7650   28.2870   49.6190 C   0  0  0  0  0  0  0  0  0  0  0  0
   34.1920   28.5930   48.2740 C   0  0  0  0  0  0  0  0  0  0  0  0
   32.5830   27.7660   48.1620 S   0  0  0  0  0  0  0  0  0  0  0  0
   37.5968   30.4482   52.4589 H   0  0  0  0  0  0  0  0  0  0  0  0
   38.9526   31.3642   50.5735 H   0  0  0  0  0  0  0  0  0  0  0  0
   38.3048   30.8075   48.1634 H   0  0  0  0  0  0  0  0  0  0  0  0
   35.0786   27.2330   49.6469 H   0  0  0  0  0  0  0  0  0  0  0  0
   33.9964   28.4761   50.3828 H   0  0  0  0  0  0  0  0  0  0  0  0
   34.0640   29.6795   48.1593 H   0  0  0  0  0  0  0  0  0  0  0  0
   34.8642   28.2392   47.4784 H   0  0  0  0  0  0  0  0  0  0  0  0
   32.1066   27.5212   49.4230 H   0  0  0  0  0  0  0  0  0  0  0  0
  2  1  2  0
  3  2  1  0
  4  3  2  0
  4  5  1  0
  5  6  2  0
  6  1  1  0
  7  5  1  0
  8  7  1  0
  9  8  1  0
  1 10  1  0
  2 11  1  0
  3 12  1  0
  7 13  1  0
  7 14  1  0
  8 15  1  0
  8 16  1  0
  9 17  1  0
M  ISO  8  10  14  11  14  12  14  13   8  14   8  15   8  16   8  17  11
M  END
>  <minimizedAffinity>  (1) 
-3.49473286

>  <minimizedRMSD>  (1) 
0.229982451

$$$$
