
     RDKit          3D

 17 17  0  0  0  0  0  0  0  0999 V2000
   37.3290   30.2230   51.4270 C   0  0  0  0  0  0  0  0  0  0  0  0
   38.1170   30.7510   50.4020 C   0  0  0  0  0  0  0  0  0  0  0  0
   37.7640   30.4420   49.0770 C   0  0  0  0  0  0  0  0  0  0  0  0
   36.6800   29.6510   48.8700 N   0  0  0  0  0  0  0  0  0  0  0  0
   35.9470   29.1630   49.8960 C   0  0  0  0  0  0  0  0  0  0  0  0
   36.2610   29.4410   51.1700 N   0  0  0  0  0  0  0  0  0  0  0  0
   34.7670   28.2970   49.5620 C   0  0  0  0  0  0  0  0  0  0  0  0
   34.3870   28.4800   48.1150 C   0  0  0  0  0  0  0  0  0  0  0  0
   33.2840   27.6600   47.8660 O   0  0  0  0  0  0  0  0  0  0  0  0
   37.5864   30.4511   52.4718 H   0  0  0  0  0  0  0  0  0  0  0  0
   38.9858   31.3880   50.6244 H   0  0  0  0  0  0  0  0  0  0  0  0
   38.3499   30.8304   48.2309 H   0  0  0  0  0  0  0  0  0  0  0  0
   35.0266   27.2430   49.7401 H   0  0  0  0  0  0  0  0  0  0  0  0
   33.9166   28.5841   50.1979 H   0  0  0  0  0  0  0  0  0  0  0  0
   34.1245   29.5312   47.9252 H   0  0  0  0  0  0  0  0  0  0  0  0
   35.2263   28.2127   47.4562 H   0  0  0  0  0  0  0  0  0  0  0  0
   32.8899   27.3670   48.7256 H   0  0  0  0  0  0  0  0  0  0  0  0
  2  1  2  0
  3  2  1  0
  4  3  2  0
  4  5  1  0
  5  6  2  0
  6  1  1  0
  7  5  1  0
  8  7  1  0
  9  8  1  0
  1 10  1  0
  2 11  1  0
  3 12  1  0
  7 13  1  0
  7 14  1  0
  8 15  1  0
  8 16  1  0
  9 17  1  0
M  ISO  8  10  14  11  14  12  14  13   8  14   8  15   8  16   8  17   3
M  END
>  <minimizedAffinity>  (1) 
-3.43923521

>  <minimizedRMSD>  (1) 
0.0362857133

$$$$
