
     RDKit          3D

 38 41  0  0  0  0  0  0  0  0999 V2000
   32.9510   27.4830   48.0470 C   0  0  0  0  0  0  0  0  0  0  0  0
   32.3740   26.2750   47.7500 C   0  0  0  0  0  0  0  0  0  0  0  0
   31.0410   26.4490   47.4160 C   0  0  0  0  0  0  0  0  0  0  0  0
   30.8470   27.7770   47.5200 N   0  0  0  0  0  0  0  0  0  0  0  0
   31.9560   28.3900   47.8880 N   0  0  0  0  0  0  0  0  0  0  0  0
   29.7180   28.6210   47.3190 C   0  0  0  0  0  0  0  0  0  0  0  0
   28.6860   28.7330   48.2250 C   0  0  0  0  0  0  0  0  0  0  0  0
   27.6450   29.5940   47.9040 C   0  0  0  0  0  0  0  0  0  0  0  0
   27.6440   30.3070   46.7280 C   0  0  0  0  0  0  0  0  0  0  0  0
   26.6200   31.1280   46.4550 N   0  0  0  0  0  0  0  0  0  0  0  0
   26.5990   31.8380   45.3050 C   0  0  0  0  0  0  0  0  0  0  0  0
   27.6200   31.7490   44.3750 C   0  0  0  0  0  0  0  0  0  0  0  0
   28.6850   30.9120   44.6300 C   0  0  0  0  0  0  0  0  0  0  0  0
   28.6710   30.2060   45.8110 C   0  0  0  0  0  0  0  0  0  0  0  0
   29.7120   29.3430   46.1350 C   0  0  0  0  0  0  0  0  0  0  0  0
   34.3860   27.6930   48.4540 C   0  0  0  0  0  0  0  0  0  0  0  0
   34.3640   28.4510   49.7400 C   0  0  0  0  0  0  0  0  0  0  0  0
   37.2870   30.1230   51.3010 C   0  0  0  0  0  0  0  0  0  0  0  0
   38.0180   30.5440   50.1710 C   0  0  0  0  0  0  0  0  0  0  0  0
   37.5030   30.2510   48.8880 C   0  0  0  0  0  0  0  0  0  0  0  0
   36.3280   29.5780   48.8060 N   0  0  0  0  0  0  0  0  0  0  0  0
   35.6550   29.1900   49.9200 C   0  0  0  0  0  0  0  0  0  0  0  0
   36.1330   29.4610   51.1260 N   0  0  0  0  0  0  0  0  0  0  0  0
   32.8951   25.3065   47.7736 H   0  0  0  0  0  0  0  0  0  0  0  0
   30.3091   25.6788   47.1312 H   0  0  0  0  0  0  0  0  0  0  0  0
   28.6867   28.1627   49.1656 H   0  0  0  0  0  0  0  0  0  0  0  0
   26.8044   29.7081   48.6043 H   0  0  0  0  0  0  0  0  0  0  0  0
   25.7475   32.5044   45.1029 H   0  0  0  0  0  0  0  0  0  0  0  0
   27.5822   32.3373   43.4463 H   0  0  0  0  0  0  0  0  0  0  0  0
   29.5155   30.8121   43.9157 H   0  0  0  0  0  0  0  0  0  0  0  0
   30.5523   29.2301   45.4342 H   0  0  0  0  0  0  0  0  0  0  0  0
   34.8853   26.7230   48.5948 H   0  0  0  0  0  0  0  0  0  0  0  0
   34.9386   28.2456   47.6799 H   0  0  0  0  0  0  0  0  0  0  0  0
   33.5315   29.1699   49.7252 H   0  0  0  0  0  0  0  0  0  0  0  0
   34.2320   27.7454   50.5735 H   0  0  0  0  0  0  0  0  0  0  0  0
   37.6586   30.3349   52.3144 H   0  0  0  0  0  0  0  0  0  0  0  0
   38.9672   31.0879   50.2855 H   0  0  0  0  0  0  0  0  0  0  0  0
   38.0408   30.5605   47.9797 H   0  0  0  0  0  0  0  0  0  0  0  0
  1 16  1  0
  2  1  1  0
  3  4  1  0
  3  2  2  0
  4  5  1  0
  5  1  2  0
  6  4  1  0
  6  7  2  0
  8  7  1  0
  9  8  2  0
 10  9  1  0
 11 10  2  0
 12 13  2  0
 12 11  1  0
 13 14  1  0
 14 15  2  0
 14  9  1  0
 15  6  1  0
 16 17  1  0
 17 22  1  0
 19 18  2  0
 20 19  1  0
 21 20  2  0
 21 22  1  0
 22 23  2  0
 23 18  1  0
  2 24  1  0
  3 25  1  0
  7 26  1  0
  8 27  1  0
 11 28  1  0
 12 29  1  0
 13 30  1  0
 15 31  1  0
 16 32  1  0
 16 33  1  0
 17 34  1  0
 17 35  1  0
 18 36  1  0
 19 37  1  0
 20 38  1  0
M  ISO  8  24  14  25  14  26  14  27  14  28  14  29  14  30  14  31  14
M  ISO  7  32   8  33   8  34   8  35   8  36  14  37  14  38  14
M  END
>  <minimizedAffinity>  (1) 
-5.5733366

>  <minimizedRMSD>  (1) 
1.92349684

$$$$
