
     RDKit          3D

 29 31  0  0  0  0  0  0  0  0999 V2000
   34.4240   28.2650   48.0330 C   0  0  0  0  0  0  0  0  0  0  0  0
   32.9470   28.0890   47.8520 C   0  0  0  0  0  0  0  0  0  0  0  0
   32.1670   27.0580   48.3280 C   0  0  0  0  0  0  0  0  0  0  0  0
   30.8510   27.2110   47.9780 C   0  0  0  0  0  0  0  0  0  0  0  0
   30.8550   28.3630   47.2780 N   0  0  0  0  0  0  0  0  0  0  0  0
   32.0860   28.8870   47.1990 N   0  0  0  0  0  0  0  0  0  0  0  0
   29.7830   29.0810   46.6280 C   0  0  0  0  0  0  0  0  0  0  0  0
   29.7030   29.7180   45.2570 C   0  0  0  0  0  0  0  0  0  0  0  0
   28.0080   30.3800   45.3050 S   0  0  0  0  0  0  0  0  0  0  0  0
   27.6900   29.7360   47.0600 C   0  0  0  0  0  0  0  0  0  0  0  0
   28.7060   29.1800   47.3890 N   0  0  0  0  0  0  0  0  0  0  0  0
   34.6660   28.2740   49.5040 C   0  0  0  0  0  0  0  0  0  0  0  0
   37.2570   30.1670   51.3670 C   0  0  0  0  0  0  0  0  0  0  0  0
   38.0380   30.6780   50.3200 C   0  0  0  0  0  0  0  0  0  0  0  0
   37.6850   30.3790   49.0000 C   0  0  0  0  0  0  0  0  0  0  0  0
   36.5970   29.6050   48.7840 N   0  0  0  0  0  0  0  0  0  0  0  0
   35.8640   29.1280   49.8220 C   0  0  0  0  0  0  0  0  0  0  0  0
   36.1960   29.4090   51.0710 N   0  0  0  0  0  0  0  0  0  0  0  0
   34.7520   29.2155   47.5870 H   0  0  0  0  0  0  0  0  0  0  0  0
   34.9866   27.4587   47.5397 H   0  0  0  0  0  0  0  0  0  0  0  0
   32.5539   26.2139   48.9178 H   0  0  0  0  0  0  0  0  0  0  0  0
   29.9997   26.5545   48.2112 H   0  0  0  0  0  0  0  0  0  0  0  0
   30.4567   29.7670   44.4573 H   0  0  0  0  0  0  0  0  0  0  0  0
   26.7702   29.8471   47.6531 H   0  0  0  0  0  0  0  0  0  0  0  0
   33.7818   28.6810   50.0164 H   0  0  0  0  0  0  0  0  0  0  0  0
   34.8540   27.2455   49.8459 H   0  0  0  0  0  0  0  0  0  0  0  0
   37.5131   30.3862   52.4141 H   0  0  0  0  0  0  0  0  0  0  0  0
   38.9160   31.3052   50.5340 H   0  0  0  0  0  0  0  0  0  0  0  0
   38.2782   30.7642   48.1575 H   0  0  0  0  0  0  0  0  0  0  0  0
  1 12  1  0
  2  1  1  0
  2  3  1  0
  4  3  2  0
  5  4  1  0
  6  5  1  0
  6  2  2  0
  7  5  1  0
  7 11  1  0
  8  9  1  0
  8  7  2  0
  9 10  1  0
 10 11  2  0
 12 17  1  0
 14 13  2  0
 15 14  1  0
 16 15  2  0
 16 17  1  0
 17 18  2  0
 18 13  1  0
  1 19  1  0
  1 20  1  0
  3 21  1  0
  4 22  1  0
  8 23  1  0
 10 24  1  0
 12 25  1  0
 12 26  1  0
 13 27  1  0
 14 28  1  0
 15 29  1  0
M  ISO  8  19   8  20   8  21  14  22  14  23  14  24  14  25   8  26   8
M  ISO  3  27  14  28  14  29  14
M  END
>  <minimizedAffinity>  (1) 
-4.73142767

>  <minimizedRMSD>  (1) 
0.74602294

$$$$
