
     RDKit          3D

 30 32  0  0  0  0  0  0  0  0999 V2000
   34.4120   28.7270   47.9260 C   0  0  0  0  0  0  0  0  0  0  0  0
   32.9710   28.3210   47.8310 C   0  0  0  0  0  0  0  0  0  0  0  0
   32.2780   27.4390   48.6190 C   0  0  0  0  0  0  0  0  0  0  0  0
   30.9690   27.3260   48.2220 C   0  0  0  0  0  0  0  0  0  0  0  0
   30.8950   28.1660   47.1710 N   0  0  0  0  0  0  0  0  0  0  0  0
   32.0720   28.7570   46.9330 N   0  0  0  0  0  0  0  0  0  0  0  0
   29.6680   28.3890   46.3990 C   0  0  0  0  0  0  0  0  0  0  0  0
   28.3950   27.8650   46.9370 C   0  0  0  0  0  0  0  0  0  0  0  0
   28.6930   29.3210   47.0810 C   0  0  0  0  0  0  0  0  0  0  0  0
   34.8520   28.3300   49.3160 C   0  0  0  0  0  0  0  0  0  0  0  0
   37.2660   30.1730   51.4280 C   0  0  0  0  0  0  0  0  0  0  0  0
   38.1040   30.7780   50.4670 C   0  0  0  0  0  0  0  0  0  0  0  0
   37.8250   30.5410   49.1100 C   0  0  0  0  0  0  0  0  0  0  0  0
   36.7630   29.7420   48.7820 N   0  0  0  0  0  0  0  0  0  0  0  0
   35.9900   29.1880   49.7430 C   0  0  0  0  0  0  0  0  0  0  0  0
   36.2440   29.4050   51.0220 N   0  0  0  0  0  0  0  0  0  0  0  0
   34.5156   29.8131   47.7854 H   0  0  0  0  0  0  0  0  0  0  0  0
   35.0243   28.2438   47.1503 H   0  0  0  0  0  0  0  0  0  0  0  0
   32.7168   26.8897   49.4650 H   0  0  0  0  0  0  0  0  0  0  0  0
   30.1740   26.7018   48.6560 H   0  0  0  0  0  0  0  0  0  0  0  0
   30.1580   28.3085   45.4175 H   0  0  0  0  0  0  0  0  0  0  0  0
   27.6047   27.5343   46.2470 H   0  0  0  0  0  0  0  0  0  0  0  0
   28.1271   27.0599   47.6371 H   0  0  0  0  0  0  0  0  0  0  0  0
   28.9295   29.7419   48.0694 H   0  0  0  0  0  0  0  0  0  0  0  0
   28.1820   30.2565   46.8095 H   0  0  0  0  0  0  0  0  0  0  0  0
   34.0135   28.4587   50.0162 H   0  0  0  0  0  0  0  0  0  0  0  0
   35.1697   27.2769   49.3119 H   0  0  0  0  0  0  0  0  0  0  0  0
   37.4495   30.3300   52.5012 H   0  0  0  0  0  0  0  0  0  0  0  0
   38.9483   31.4145   50.7702 H   0  0  0  0  0  0  0  0  0  0  0  0
   38.4500   30.9903   48.3242 H   0  0  0  0  0  0  0  0  0  0  0  0
  1 10  1  0
  2  1  1  0
  2  3  1  0
  4  3  2  0
  5  4  1  0
  6  5  1  0
  6  2  2  0
  7  8  1  0
  7  9  1  0
  7  5  1  0
  8  9  1  0
 10 15  1  0
 12 11  2  0
 13 12  1  0
 14 13  2  0
 14 15  1  0
 15 16  2  0
 16 11  1  0
  1 17  1  0
  1 18  1  0
  3 19  1  0
  4 20  1  0
  7 21  1  0
  8 22  1  0
  8 23  1  0
  9 24  1  0
  9 25  1  0
 10 26  1  0
 10 27  1  0
 11 28  1  0
 12 29  1  0
 13 30  1  0
M  ISO  8  17   8  18   8  19  14  20  14  21  13  22  13  23  13  24  13
M  ISO  6  25  13  26   8  27   8  28  14  29  14  30  14
M  END
>  <minimizedAffinity>  (1) 
-4.44621325

>  <minimizedRMSD>  (1) 
0.474332809

$$$$
