
     RDKit          3D

 43 47  0  0  0  0  0  0  0  0999 V2000
   34.4380   28.0430   48.0990 C   0  0  0  0  0  0  0  0  0  0  0  0
   32.9650   28.1620   47.8070 C   0  0  0  0  0  0  0  0  0  0  0  0
   31.9390   27.4040   48.3560 C   0  0  0  0  0  0  0  0  0  0  0  0
   30.7320   27.8350   47.8200 C   0  0  0  0  0  0  0  0  0  0  0  0
   31.0750   28.8430   46.9600 N   0  0  0  0  0  0  0  0  0  0  0  0
   32.3760   29.0210   46.9640 N   0  0  0  0  0  0  0  0  0  0  0  0
   28.6780   29.3170   46.3530 N   0  0  0  0  0  0  0  0  0  0  0  0
   30.0200   29.4840   46.2540 C   0  0  0  0  0  0  0  0  0  0  0  0
   30.2290   30.4360   45.2980 N   0  0  0  0  0  0  0  0  0  0  0  0
   29.0500   30.8460   44.8210 C   0  0  0  0  0  0  0  0  0  0  0  0
   28.7470   31.7810   43.8550 C   0  0  0  0  0  0  0  0  0  0  0  0
   27.4580   32.0200   43.5450 N   0  0  0  0  0  0  0  0  0  0  0  0
   26.4920   31.3370   44.1870 C   0  0  0  0  0  0  0  0  0  0  0  0
   26.7910   30.4190   45.1350 N   0  0  0  0  0  0  0  0  0  0  0  0
   28.0600   30.1460   45.4790 C   0  0  0  0  0  0  0  0  0  0  0  0
   34.5800   28.2980   49.5710 C   0  0  0  0  0  0  0  0  0  0  0  0
   37.3080   30.1590   51.2710 C   0  0  0  0  0  0  0  0  0  0  0  0
   37.9140   30.8350   50.1880 C   0  0  0  0  0  0  0  0  0  0  0  0
   37.3710   30.6340   48.9060 C   0  0  0  0  0  0  0  0  0  0  0  0
   36.3110   29.8140   48.7840 N   0  0  0  0  0  0  0  0  0  0  0  0
   35.7530   29.1810   49.8360 C   0  0  0  0  0  0  0  0  0  0  0  0
   36.2560   29.3660   51.0360 N   0  0  0  0  0  0  0  0  0  0  0  0
   37.8910   31.2640   47.7000 C   0  0  0  0  0  0  0  0  0  0  0  0
   38.9970   32.0810   47.6790 C   0  0  0  0  0  0  0  0  0  0  0  0
   39.5040   32.6820   46.5640 C   0  0  0  0  0  0  0  0  0  0  0  0
   38.8920   32.4820   45.3500 C   0  0  0  0  0  0  0  0  0  0  0  0
   37.7860   31.6650   45.3810 C   0  0  0  0  0  0  0  0  0  0  0  0
   37.3110   31.0860   46.4990 N   0  0  0  0  0  0  0  0  0  0  0  0
   35.0050   28.7896   47.5236 H   0  0  0  0  0  0  0  0  0  0  0  0
   34.8299   27.0544   47.8177 H   0  0  0  0  0  0  0  0  0  0  0  0
   32.0617   26.5965   49.0928 H   0  0  0  0  0  0  0  0  0  0  0  0
   29.7244   27.4514   48.0383 H   0  0  0  0  0  0  0  0  0  0  0  0
   28.2038   28.6630   46.9920 H   0  0  0  0  0  0  0  0  0  0  0  0
   29.5513   32.3278   43.3411 H   0  0  0  0  0  0  0  0  0  0  0  0
   25.4384   31.5290   43.9359 H   0  0  0  0  0  0  0  0  0  0  0  0
   33.6675   28.7862   49.9438 H   0  0  0  0  0  0  0  0  0  0  0  0
   34.7330   27.3381   50.0859 H   0  0  0  0  0  0  0  0  0  0  0  0
   37.6957   30.2829   52.2929 H   0  0  0  0  0  0  0  0  0  0  0  0
   38.7801   31.4954   50.3421 H   0  0  0  0  0  0  0  0  0  0  0  0
   39.5120   32.2638   48.6336 H   0  0  0  0  0  0  0  0  0  0  0  0
   40.3959   33.3218   46.6363 H   0  0  0  0  0  0  0  0  0  0  0  0
   39.2599   32.9419   44.4209 H   0  0  0  0  0  0  0  0  0  0  0  0
   37.2581   31.4734   44.4352 H   0  0  0  0  0  0  0  0  0  0  0  0
  1 16  1  0
  2  1  1  0
  2  3  1  0
  4  3  2  0
  5  6  1  0
  5  4  1  0
  6  2  2  0
  8  7  1  0
  8  5  1  0
  9  8  2  0
 10  9  1  0
 10 15  2  0
 11 10  1  0
 12 11  2  0
 12 13  1  0
 13 14  2  0
 14 15  1  0
 15  7  1  0
 16 21  1  0
 18 17  2  0
 19 18  1  0
 20 19  2  0
 20 21  1  0
 21 22  2  0
 22 17  1  0
 23 19  1  0
 24 23  2  0
 25 24  1  0
 26 27  1  0
 26 25  2  0
 27 28  2  0
 28 23  1  0
  1 29  1  0
  1 30  1  0
  3 31  1  0
  4 32  1  0
  7 33  1  0
 11 34  1  0
 13 35  1  0
 16 36  1  0
 16 37  1  0
 17 38  1  0
 18 39  1  0
 24 40  1  0
 25 41  1  0
 26 42  1  0
 27 43  1  0
M  ISO  8  29   8  30   8  31  14  32  14  33   9  34  14  35  14  36   8
M  ISO  7  37   8  38  14  39  14  40  14  41  14  42  14  43  14
M  END
>  <minimizedAffinity>  (1) 
-6.86973476

>  <minimizedRMSD>  (1) 
0.424656063

$$$$
