
     RDKit          3D

 48 52  0  0  0  0  0  0  0  0999 V2000
   34.3320   27.8830   48.2380 C   0  0  0  0  0  0  0  0  0  0  0  0
   32.8700   28.0190   47.9010 C   0  0  0  0  0  0  0  0  0  0  0  0
   31.8210   27.2480   48.3940 C   0  0  0  0  0  0  0  0  0  0  0  0
   30.6350   27.6990   47.8310 C   0  0  0  0  0  0  0  0  0  0  0  0
   31.0090   28.7310   47.0140 N   0  0  0  0  0  0  0  0  0  0  0  0
   32.3150   28.9100   47.0620 N   0  0  0  0  0  0  0  0  0  0  0  0
   28.6440   29.2050   46.3200 N   0  0  0  0  0  0  0  0  0  0  0  0
   29.9760   29.3910   46.2950 C   0  0  0  0  0  0  0  0  0  0  0  0
   30.2180   30.3910   45.3940 N   0  0  0  0  0  0  0  0  0  0  0  0
   29.0650   30.8160   44.8720 C   0  0  0  0  0  0  0  0  0  0  0  0
   28.7900   31.7820   43.9420 C   0  0  0  0  0  0  0  0  0  0  0  0
   27.5110   32.0150   43.5810 N   0  0  0  0  0  0  0  0  0  0  0  0
   26.5260   31.2910   44.1430 C   0  0  0  0  0  0  0  0  0  0  0  0
   26.7960   30.3410   45.0590 N   0  0  0  0  0  0  0  0  0  0  0  0
   28.0660   30.0780   45.4470 C   0  0  0  0  0  0  0  0  0  0  0  0
   34.4490   28.3480   49.6730 C   0  0  0  0  0  0  0  0  0  0  0  0
   37.3040   30.1560   51.1800 C   0  0  0  0  0  0  0  0  0  0  0  0
   37.9340   30.6890   50.0390 C   0  0  0  0  0  0  0  0  0  0  0  0
   37.3810   30.4280   48.7730 C   0  0  0  0  0  0  0  0  0  0  0  0
   36.2680   29.6750   48.7140 N   0  0  0  0  0  0  0  0  0  0  0  0
   35.6840   29.1740   49.8390 C   0  0  0  0  0  0  0  0  0  0  0  0
   36.2040   29.4210   51.0180 N   0  0  0  0  0  0  0  0  0  0  0  0
   37.9290   30.9110   47.5590 N   0  0  0  0  0  0  0  0  0  0  0  0
   37.3230   30.6160   46.2590 C   0  0  0  0  0  0  0  0  0  0  0  0
   38.4520   30.5860   45.2480 C   0  0  0  0  0  0  0  0  0  0  0  0
   39.0530   31.8960   45.0930 N   0  0  0  0  0  0  0  0  0  0  0  0
   39.0350   32.6500   46.3290 C   0  0  0  0  0  0  0  0  0  0  0  0
   39.1260   31.7290   47.5400 C   0  0  0  0  0  0  0  0  0  0  0  0
   34.9417   28.5154   47.5759 H   0  0  0  0  0  0  0  0  0  0  0  0
   34.6914   26.8516   48.1077 H   0  0  0  0  0  0  0  0  0  0  0  0
   31.9161   26.4190   49.1107 H   0  0  0  0  0  0  0  0  0  0  0  0
   29.6197   27.3125   48.0034 H   0  0  0  0  0  0  0  0  0  0  0  0
   28.1441   28.5176   46.9018 H   0  0  0  0  0  0  0  0  0  0  0  0
   29.6069   32.3649   43.4916 H   0  0  0  0  0  0  0  0  0  0  0  0
   25.4825   31.4780   43.8495 H   0  0  0  0  0  0  0  0  0  0  0  0
   33.5677   28.9524   49.9340 H   0  0  0  0  0  0  0  0  0  0  0  0
   34.5068   27.4715   50.3351 H   0  0  0  0  0  0  0  0  0  0  0  0
   37.7114   30.3424   52.1846 H   0  0  0  0  0  0  0  0  0  0  0  0
   38.8438   31.2995   50.1366 H   0  0  0  0  0  0  0  0  0  0  0  0
   36.8159   29.6403   46.2899 H   0  0  0  0  0  0  0  0  0  0  0  0
   36.5727   31.3745   45.9913 H   0  0  0  0  0  0  0  0  0  0  0  0
   39.2205   29.8770   45.5896 H   0  0  0  0  0  0  0  0  0  0  0  0
   38.0408   30.2747   44.2764 H   0  0  0  0  0  0  0  0  0  0  0  0
   40.0300   31.7798   44.7884 H   0  0  0  0  0  0  0  0  0  0  0  0
   39.8904   33.3416   46.3395 H   0  0  0  0  0  0  0  0  0  0  0  0
   38.0864   33.2041   46.3843 H   0  0  0  0  0  0  0  0  0  0  0  0
   40.0167   31.0887   47.4583 H   0  0  0  0  0  0  0  0  0  0  0  0
   39.2078   32.3159   48.4667 H   0  0  0  0  0  0  0  0  0  0  0  0
  1 16  1  0
  2  1  1  0
  2  3  1  0
  4  3  2  0
  5  6  1  0
  5  4  1  0
  6  2  2  0
  8  7  1  0
  8  5  1  0
  9  8  2  0
 10  9  1  0
 10 15  2  0
 11 10  1  0
 12 11  2  0
 12 13  1  0
 13 14  2  0
 14 15  1  0
 15  7  1  0
 16 21  1  0
 18 17  2  0
 19 18  1  0
 20 19  2  0
 20 21  1  0
 21 22  2  0
 22 17  1  0
 23 19  1  0
 24 23  1  0
 25 24  1  0
 26 25  1  0
 26 27  1  0
 27 28  1  0
 28 23  1  0
  1 29  1  0
  1 30  1  0
  3 31  1  0
  4 32  1  0
  7 33  1  0
 11 34  1  0
 13 35  1  0
 16 36  1  0
 16 37  1  0
 17 38  1  0
 18 39  1  0
 24 40  1  0
 24 41  1  0
 25 42  1  0
 25 43  1  0
 26 44  1  0
 27 45  1  0
 27 46  1  0
 28 47  1  0
 28 48  1  0
M  ISO  8  29   8  30   8  31  14  32  14  33   9  34  14  35  14  36   8
M  ISO  8  37   8  38  14  39  14  40  13  41  13  42  13  43  13  44   5
M  ISO  4  45  13  46  13  47  13  48  13
M  END
>  <minimizedAffinity>  (1) 
-6.71412182

>  <minimizedRMSD>  (1) 
0.325684994

$$$$
