
     RDKit          3D

 37 40  0  0  0  0  0  0  0  0999 V2000
   32.9790   28.1820   47.7770 C   0  0  0  0  0  0  0  0  0  0  0  0
   31.9680   27.4270   48.3270 C   0  0  0  0  0  0  0  0  0  0  0  0
   30.7640   27.8530   47.7950 C   0  0  0  0  0  0  0  0  0  0  0  0
   31.0850   28.8560   46.9370 N   0  0  0  0  0  0  0  0  0  0  0  0
   32.3850   29.0380   46.9360 N   0  0  0  0  0  0  0  0  0  0  0  0
   28.6980   29.3190   46.3360 N   0  0  0  0  0  0  0  0  0  0  0  0
   30.0350   29.4980   46.2310 C   0  0  0  0  0  0  0  0  0  0  0  0
   30.2250   30.4520   45.2800 N   0  0  0  0  0  0  0  0  0  0  0  0
   29.0490   30.8610   44.8020 C   0  0  0  0  0  0  0  0  0  0  0  0
   28.7220   31.7980   43.8390 C   0  0  0  0  0  0  0  0  0  0  0  0
   27.4430   32.0190   43.5450 N   0  0  0  0  0  0  0  0  0  0  0  0
   26.4820   31.3200   44.1950 C   0  0  0  0  0  0  0  0  0  0  0  0
   26.7720   30.4020   45.1360 N   0  0  0  0  0  0  0  0  0  0  0  0
   28.0690   30.1550   45.4570 C   0  0  0  0  0  0  0  0  0  0  0  0
   34.4580   28.0750   48.0580 C   0  0  0  0  0  0  0  0  0  0  0  0
   34.6090   28.2900   49.5410 C   0  0  0  0  0  0  0  0  0  0  0  0
   37.3020   30.1520   51.2910 C   0  0  0  0  0  0  0  0  0  0  0  0
   37.9880   30.7520   50.2020 C   0  0  0  0  0  0  0  0  0  0  0  0
   37.5060   30.5000   48.9030 C   0  0  0  0  0  0  0  0  0  0  0  0
   36.4200   29.7030   48.7630 N   0  0  0  0  0  0  0  0  0  0  0  0
   35.7940   29.1490   49.8220 C   0  0  0  0  0  0  0  0  0  0  0  0
   36.2360   29.3780   51.0460 N   0  0  0  0  0  0  0  0  0  0  0  0
   38.2250   31.1290   47.7640 C   0  0  0  0  0  0  0  0  0  0  0  0
   38.7070   30.1950   46.8640 F   0  0  0  0  0  0  0  0  0  0  0  0
   39.2450   31.9740   48.1900 F   0  0  0  0  0  0  0  0  0  0  0  0
   37.3540   31.9530   47.0390 F   0  0  0  0  0  0  0  0  0  0  0  0
   32.0957   26.6212   49.0648 H   0  0  0  0  0  0  0  0  0  0  0  0
   29.7603   27.4626   48.0191 H   0  0  0  0  0  0  0  0  0  0  0  0
   28.2304   28.6598   46.9746 H   0  0  0  0  0  0  0  0  0  0  0  0
   29.5140   32.3571   43.3193 H   0  0  0  0  0  0  0  0  0  0  0  0
   25.4276   31.5091   43.9452 H   0  0  0  0  0  0  0  0  0  0  0  0
   34.8309   27.0796   47.7751 H   0  0  0  0  0  0  0  0  0  0  0  0
   35.0348   28.8125   47.4806 H   0  0  0  0  0  0  0  0  0  0  0  0
   33.7048   28.7808   49.9303 H   0  0  0  0  0  0  0  0  0  0  0  0
   34.7499   27.3153   50.0310 H   0  0  0  0  0  0  0  0  0  0  0  0
   37.6417   30.3206   52.3235 H   0  0  0  0  0  0  0  0  0  0  0  0
   38.8669   31.3925   50.3676 H   0  0  0  0  0  0  0  0  0  0  0  0
  1 15  1  0
  1  2  1  0
  3  2  2  0
  4  3  1  0
  5  4  1  0
  5  1  2  0
  7  6  1  0
  7  4  1  0
  8  7  2  0
  9  8  1  0
  9 14  2  0
 10  9  1  0
 11 10  2  0
 11 12  1  0
 12 13  2  0
 13 14  1  0
 14  6  1  0
 15 16  1  0
 16 21  1  0
 18 17  2  0
 19 18  1  0
 20 19  2  0
 20 21  1  0
 21 22  2  0
 22 17  1  0
 23 25  1  0
 23 19  1  0
 24 23  1  0
 26 23  1  0
  2 27  1  0
  3 28  1  0
  6 29  1  0
 10 30  1  0
 12 31  1  0
 15 32  1  0
 15 33  1  0
 16 34  1  0
 16 35  1  0
 17 36  1  0
 18 37  1  0
M  ISO  8  27  14  28  14  29   9  30  14  31  14  32   8  33   8  34   8
M  ISO  3  35   8  36  14  37  14
M  END
>  <minimizedAffinity>  (1) 
-6.31770134

>  <minimizedRMSD>  (1) 
0.23980619

$$$$
