
     RDKit          3D

 35 38  0  0  0  0  0  0  0  0999 V2000
   32.9070   28.0810   47.8770 C   0  0  0  0  0  0  0  0  0  0  0  0
   31.8640   27.3230   48.3950 C   0  0  0  0  0  0  0  0  0  0  0  0
   30.6830   27.7700   47.8280 C   0  0  0  0  0  0  0  0  0  0  0  0
   31.0460   28.7760   46.9940 N   0  0  0  0  0  0  0  0  0  0  0  0
   32.3480   28.9530   47.0270 N   0  0  0  0  0  0  0  0  0  0  0  0
   28.6830   29.2370   46.2970 N   0  0  0  0  0  0  0  0  0  0  0  0
   30.0070   29.4360   46.2620 C   0  0  0  0  0  0  0  0  0  0  0  0
   30.2220   30.4250   45.3630 N   0  0  0  0  0  0  0  0  0  0  0  0
   29.0670   30.8420   44.8440 C   0  0  0  0  0  0  0  0  0  0  0  0
   28.7910   31.8080   43.9120 C   0  0  0  0  0  0  0  0  0  0  0  0
   27.5160   32.0360   43.5550 N   0  0  0  0  0  0  0  0  0  0  0  0
   26.5270   31.2950   44.1350 C   0  0  0  0  0  0  0  0  0  0  0  0
   26.7960   30.3400   45.0560 N   0  0  0  0  0  0  0  0  0  0  0  0
   28.0610   30.0880   45.4340 C   0  0  0  0  0  0  0  0  0  0  0  0
   34.3720   27.9470   48.2080 C   0  0  0  0  0  0  0  0  0  0  0  0
   34.4900   28.3470   49.6680 C   0  0  0  0  0  0  0  0  0  0  0  0
   37.2960   30.1480   51.2590 C   0  0  0  0  0  0  0  0  0  0  0  0
   37.9890   30.6580   50.1330 C   0  0  0  0  0  0  0  0  0  0  0  0
   37.4760   30.3710   48.8520 C   0  0  0  0  0  0  0  0  0  0  0  0
   36.3550   29.6270   48.7800 N   0  0  0  0  0  0  0  0  0  0  0  0
   35.7160   29.1550   49.8840 C   0  0  0  0  0  0  0  0  0  0  0  0
   36.1980   29.4250   51.0810 N   0  0  0  0  0  0  0  0  0  0  0  0
   38.2410   30.9440   47.3550 S   0  0  0  0  0  0  0  0  0  0  0  0
   31.9601   26.5089   49.1285 H   0  0  0  0  0  0  0  0  0  0  0  0
   29.6674   27.3905   48.0140 H   0  0  0  0  0  0  0  0  0  0  0  0
   28.2054   28.5427   46.8892 H   0  0  0  0  0  0  0  0  0  0  0  0
   29.6064   32.3918   43.4600 H   0  0  0  0  0  0  0  0  0  0  0  0
   25.4818   31.4791   43.8458 H   0  0  0  0  0  0  0  0  0  0  0  0
   34.7062   26.9089   48.0645 H   0  0  0  0  0  0  0  0  0  0  0  0
   34.9988   28.5754   47.5582 H   0  0  0  0  0  0  0  0  0  0  0  0
   33.6092   28.9408   49.9537 H   0  0  0  0  0  0  0  0  0  0  0  0
   34.5480   27.4377   50.2842 H   0  0  0  0  0  0  0  0  0  0  0  0
   37.6664   30.3504   52.2748 H   0  0  0  0  0  0  0  0  0  0  0  0
   38.9011   31.2606   50.2552 H   0  0  0  0  0  0  0  0  0  0  0  0
   39.3090   31.7440   47.6652 H   0  0  0  0  0  0  0  0  0  0  0  0
  1 15  1  0
  1  2  1  0
  3  2  2  0
  4  5  1  0
  4  3  1  0
  5  1  2  0
  7  6  1  0
  7  4  1  0
  8  7  2  0
  9  8  1  0
  9 14  2  0
 10  9  1  0
 11 10  2  0
 11 12  1  0
 12 13  2  0
 13 14  1  0
 14  6  1  0
 15 16  1  0
 16 21  1  0
 18 17  2  0
 19 18  1  0
 20 19  2  0
 20 21  1  0
 21 22  2  0
 22 17  1  0
 23 19  1  0
  2 24  1  0
  3 25  1  0
  6 26  1  0
 10 27  1  0
 12 28  1  0
 15 29  1  0
 15 30  1  0
 16 31  1  0
 16 32  1  0
 17 33  1  0
 18 34  1  0
 23 35  1  0
M  ISO  8  24  14  25  14  26   9  27  14  28  14  29   8  30   8  31   8
M  ISO  4  32   8  33  14  34  14  35  11
M  END
>  <minimizedAffinity>  (1) 
-5.74304819

>  <minimizedRMSD>  (1) 
0.118136466

$$$$
