
     RDKit          3D

 41 44  0  0  0  0  0  0  0  0999 V2000
   34.1950   30.3940   47.7370 F   0  0  0  0  0  0  0  0  0  0  0  0
   34.5950   29.9430   46.5040 C   0  0  0  0  0  0  0  0  0  0  0  0
   33.7200   29.3270   45.6200 C   0  0  0  0  0  0  0  0  0  0  0  0
   34.1860   28.9160   44.3970 C   0  0  0  0  0  0  0  0  0  0  0  0
   35.5240   29.1130   44.0400 C   0  0  0  0  0  0  0  0  0  0  0  0
   36.3450   29.7320   44.9650 C   0  0  0  0  0  0  0  0  0  0  0  0
   35.9310   30.1500   46.1740 C   0  0  0  0  0  0  0  0  0  0  0  0
   37.8850   32.3200   45.0450 Br  0  0  0  0  0  0  0  0  0  0  0  0
   37.7740   31.7620   46.8540 C   0  0  0  0  0  0  0  0  0  0  0  0
   36.8560   30.7780   47.0970 C   0  0  0  0  0  0  0  0  0  0  0  0
   36.7430   30.2900   48.4120 C   0  0  0  0  0  0  0  0  0  0  0  0
   37.5250   30.7870   49.4060 C   0  0  0  0  0  0  0  0  0  0  0  0
   38.4250   31.7730   49.1000 C   0  0  0  0  0  0  0  0  0  0  0  0
   38.5660   32.2850   47.7980 C   0  0  0  0  0  0  0  0  0  0  0  0
   39.4390   33.2670   47.4190 O   0  0  0  0  0  0  0  0  0  0  0  0
   32.1200   28.1690   46.9980 C   0  0  0  0  0  0  0  0  0  0  0  0
   32.3710   29.1890   46.1070 C   0  0  0  0  0  0  0  0  0  0  0  0
   31.3110   30.0280   45.7490 C   0  0  0  0  0  0  0  0  0  0  0  0
   30.0780   29.8230   46.2790 N   0  0  0  0  0  0  0  0  0  0  0  0
   29.8780   28.8180   47.1450 C   0  0  0  0  0  0  0  0  0  0  0  0
   30.8650   28.0080   47.4990 N   0  0  0  0  0  0  0  0  0  0  0  0
   28.5250   28.6320   47.6950 C   0  0  0  0  0  0  0  0  0  0  0  0
   27.7780   29.7410   48.0360 C   0  0  0  0  0  0  0  0  0  0  0  0
   26.5210   29.5570   48.5470 C   0  0  0  0  0  0  0  0  0  0  0  0
   26.0320   28.2810   48.7100 C   0  0  0  0  0  0  0  0  0  0  0  0
   26.7990   27.1760   48.3620 C   0  0  0  0  0  0  0  0  0  0  0  0
   28.0820   27.3320   47.8390 C   0  0  0  0  0  0  0  0  0  0  0  0
   33.5004   28.4264   43.6897 H   0  0  0  0  0  0  0  0  0  0  0  0
   35.9082   28.7883   43.0618 H   0  0  0  0  0  0  0  0  0  0  0  0
   37.3994   29.8919   44.6955 H   0  0  0  0  0  0  0  0  0  0  0  0
   36.0139   29.4978   48.6377 H   0  0  0  0  0  0  0  0  0  0  0  0
   37.4371   30.4057   50.4340 H   0  0  0  0  0  0  0  0  0  0  0  0
   39.0601   32.1788   49.9012 H   0  0  0  0  0  0  0  0  0  0  0  0
   40.0415   33.6789   48.0879 H   0  0  0  0  0  0  0  0  0  0  0  0
   32.9290   27.4888   47.3027 H   0  0  0  0  0  0  0  0  0  0  0  0
   31.4759   30.8523   45.0395 H   0  0  0  0  0  0  0  0  0  0  0  0
   28.1847   30.7539   47.8999 H   0  0  0  0  0  0  0  0  0  0  0  0
   25.9052   30.4248   48.8258 H   0  0  0  0  0  0  0  0  0  0  0  0
   25.0221   28.1342   49.1206 H   0  0  0  0  0  0  0  0  0  0  0  0
   26.3887   26.1649   48.5009 H   0  0  0  0  0  0  0  0  0  0  0  0
   28.7048   26.4701   47.5576 H   0  0  0  0  0  0  0  0  0  0  0  0
  2  1  1  0
  3 17  1  0
  3  2  2  0
  4  3  1  0
  5  4  2  0
  5  6  1  0
  6  7  2  0
  7  2  1  0
  7 10  1  0
  8  9  1  0
  9 10  2  0
  9 14  1  0
 10 11  1  0
 11 12  2  0
 13 12  1  0
 14 13  2  0
 15 14  1  0
 16 21  2  0
 17 16  1  0
 18 17  2  0
 18 19  1  0
 19 20  2  0
 20 21  1  0
 20 22  1  0
 22 27  1  0
 22 23  2  0
 23 24  1  0
 24 25  2  0
 26 25  1  0
 27 26  2  0
  4 28  1  0
  5 29  1  0
  6 30  1  0
 11 31  1  0
 12 32  1  0
 13 33  1  0
 15 34  1  0
 16 35  1  0
 18 36  1  0
 23 37  1  0
 24 38  1  0
 25 39  1  0
 26 40  1  0
 27 41  1  0
M  ISO  8  28  14  29  14  30  14  31  14  32  14  33  14  34   3  35  14
M  ISO  6  36  14  37  14  38  14  39  14  40  14  41  14
M  END
>  <minimizedAffinity>  (1) 
-6.95530987

>  <minimizedRMSD>  (1) 
0.271262258

$$$$
