
     RDKit          3D

 34 36  0  0  0  0  0  0  0  0999 V2000
   34.3810   30.4700   47.5290 F   0  0  0  0  0  0  0  0  0  0  0  0
   34.7550   29.9820   46.3050 C   0  0  0  0  0  0  0  0  0  0  0  0
   33.8640   29.3390   45.4600 C   0  0  0  0  0  0  0  0  0  0  0  0
   34.3120   28.8870   44.2350 C   0  0  0  0  0  0  0  0  0  0  0  0
   35.6420   29.0750   43.8480 C   0  0  0  0  0  0  0  0  0  0  0  0
   36.4810   29.7230   44.7350 C   0  0  0  0  0  0  0  0  0  0  0  0
   36.0870   30.1780   45.9390 C   0  0  0  0  0  0  0  0  0  0  0  0
   37.9250   32.4060   44.7280 Br  0  0  0  0  0  0  0  0  0  0  0  0
   37.9070   31.8510   46.5430 C   0  0  0  0  0  0  0  0  0  0  0  0
   37.0260   30.8420   46.8240 C   0  0  0  0  0  0  0  0  0  0  0  0
   36.9760   30.3590   48.1440 C   0  0  0  0  0  0  0  0  0  0  0  0
   37.7790   30.8810   49.1060 C   0  0  0  0  0  0  0  0  0  0  0  0
   38.6450   31.8950   48.7670 C   0  0  0  0  0  0  0  0  0  0  0  0
   38.7210   32.4040   47.4470 C   0  0  0  0  0  0  0  0  0  0  0  0
   39.5470   33.4020   47.0380 O   0  0  0  0  0  0  0  0  0  0  0  0
   32.3010   28.1850   46.8810 C   0  0  0  0  0  0  0  0  0  0  0  0
   32.5310   29.2120   45.9770 C   0  0  0  0  0  0  0  0  0  0  0  0
   31.4640   30.0400   45.6470 C   0  0  0  0  0  0  0  0  0  0  0  0
   30.2460   29.8270   46.2100 N   0  0  0  0  0  0  0  0  0  0  0  0
   30.0640   28.8310   47.0740 C   0  0  0  0  0  0  0  0  0  0  0  0
   31.0580   28.0220   47.4090 N   0  0  0  0  0  0  0  0  0  0  0  0
   28.6980   28.6510   47.6580 C   0  0  0  0  0  0  0  0  0  0  0  0
   28.5090   29.6810   48.5890 F   0  0  0  0  0  0  0  0  0  0  0  0
   27.6980   28.7780   46.7300 F   0  0  0  0  0  0  0  0  0  0  0  0
   28.6080   27.4700   48.3840 F   0  0  0  0  0  0  0  0  0  0  0  0
   33.6151   28.3735   43.5563 H   0  0  0  0  0  0  0  0  0  0  0  0
   36.0076   28.7202   42.8731 H   0  0  0  0  0  0  0  0  0  0  0  0
   37.5298   29.8755   44.4404 H   0  0  0  0  0  0  0  0  0  0  0  0
   36.2778   29.5485   48.3999 H   0  0  0  0  0  0  0  0  0  0  0  0
   37.7381   30.5004   50.1373 H   0  0  0  0  0  0  0  0  0  0  0  0
   39.2969   32.3227   49.5429 H   0  0  0  0  0  0  0  0  0  0  0  0
   40.1618   33.8318   47.6841 H   0  0  0  0  0  0  0  0  0  0  0  0
   33.1182   27.5072   47.1688 H   0  0  0  0  0  0  0  0  0  0  0  0
   31.6054   30.8645   44.9327 H   0  0  0  0  0  0  0  0  0  0  0  0
  2  1  1  0
  3 17  1  0
  3  2  2  0
  4  3  1  0
  5  4  2  0
  5  6  1  0
  6  7  2  0
  7  2  1  0
  7 10  1  0
  8  9  1  0
  9 10  2  0
  9 14  1  0
 10 11  1  0
 11 12  2  0
 13 12  1  0
 14 13  2  0
 15 14  1  0
 16 21  2  0
 17 16  1  0
 18 17  2  0
 18 19  1  0
 19 20  2  0
 20 21  1  0
 20 22  1  0
 22 25  1  0
 22 23  1  0
 24 22  1  0
  4 26  1  0
  5 27  1  0
  6 28  1  0
 11 29  1  0
 12 30  1  0
 13 31  1  0
 15 32  1  0
 16 33  1  0
 18 34  1  0
M  ISO  8  26  14  27  14  28  14  29  14  30  14  31  14  32   3  33  14
M  ISO  1  34  14
M  END
>  <minimizedAffinity>  (1) 
-5.86437273

>  <minimizedRMSD>  (1) 
0.212371349

$$$$
