
     RDKit          3D

 18 19  0  0  0  0  0  0  0  0999 V2000
   37.0880   30.3340   50.8190 C   0  0  0  0  0  0  0  0  0  0  0  0
   36.9070   30.9320   49.5630 C   0  0  0  0  0  0  0  0  0  0  0  0
   35.7430   30.6080   48.8680 C   0  0  0  0  0  0  0  0  0  0  0  0
   34.8590   29.7460   49.4310 N   0  0  0  0  0  0  0  0  0  0  0  0
   35.0720   29.1870   50.6510 C   0  0  0  0  0  0  0  0  0  0  0  0
   36.1950   29.4880   51.3430 N   0  0  0  0  0  0  0  0  0  0  0  0
   37.8330   31.8450   48.9570 C   0  0  0  0  0  0  0  0  0  0  0  0
   38.3010   32.9710   49.6020 C   0  0  0  0  0  0  0  0  0  0  0  0
   39.2040   33.8800   49.0390 C   0  0  0  0  0  0  0  0  0  0  0  0
   39.6340   33.6130   47.7740 N   0  0  0  0  0  0  0  0  0  0  0  0
   39.1810   32.5120   47.1380 C   0  0  0  0  0  0  0  0  0  0  0  0
   38.3130   31.6620   47.7120 N   0  0  0  0  0  0  0  0  0  0  0  0
   37.9964   30.5693   51.3929 H   0  0  0  0  0  0  0  0  0  0  0  0
   35.5440   31.0445   47.8781 H   0  0  0  0  0  0  0  0  0  0  0  0
   34.3330   28.4913   51.0751 H   0  0  0  0  0  0  0  0  0  0  0  0
   37.9418   33.1667   50.6231 H   0  0  0  0  0  0  0  0  0  0  0  0
   39.5497   34.7666   49.5908 H   0  0  0  0  0  0  0  0  0  0  0  0
   39.5337   32.3039   46.1171 H   0  0  0  0  0  0  0  0  0  0  0  0
  1  6  2  0
  2  1  1  0
  3  4  1  0
  3  2  2  0
  4  5  2  0
  5  6  1  0
  7  2  1  0
  7  8  2  0
  9  8  1  0
 10  9  2  0
 11 12  2  0
 11 10  1  0
 12  7  1  0
  1 13  1  0
  3 14  1  0
  5 15  1  0
  8 16  1  0
  9 17  1  0
 11 18  1  0
M  ISO  6  13  14  14  14  15  14  16  14  17  14  18  14
M  END
>  <minimizedAffinity>  (1) 
-4.40874624

>  <minimizedRMSD>  (1) 
2.32777238

$$$$
