
     RDKit          3D

 30 32  0  0  0  0  0  0  0  0999 V2000
   37.8310   31.8340   49.0280 C   0  0  0  0  0  0  0  0  0  0  0  0
   38.3170   32.9600   49.6730 C   0  0  0  0  0  0  0  0  0  0  0  0
   39.2140   33.8600   49.0870 C   0  0  0  0  0  0  0  0  0  0  0  0
   39.6160   33.5950   47.8170 N   0  0  0  0  0  0  0  0  0  0  0  0
   39.1470   32.5030   47.1840 C   0  0  0  0  0  0  0  0  0  0  0  0
   38.2860   31.6620   47.7800 N   0  0  0  0  0  0  0  0  0  0  0  0
   39.6030   32.2770   45.8520 N   0  0  0  0  0  0  0  0  0  0  0  0
   38.9440   32.7870   44.6680 C   0  0  0  0  0  0  0  0  0  0  0  0
   39.8380   32.3920   43.5330 C   0  0  0  0  0  0  0  0  0  0  0  0
   40.5620   31.1700   44.0630 C   0  0  0  0  0  0  0  0  0  0  0  0
   40.7890   31.5020   45.5010 C   0  0  0  0  0  0  0  0  0  0  0  0
   37.1070   30.3130   50.8840 C   0  0  0  0  0  0  0  0  0  0  0  0
   36.9150   30.9310   49.6490 C   0  0  0  0  0  0  0  0  0  0  0  0
   35.7230   30.6350   48.9750 C   0  0  0  0  0  0  0  0  0  0  0  0
   34.8300   29.7840   49.5340 N   0  0  0  0  0  0  0  0  0  0  0  0
   35.0640   29.2040   50.7430 C   0  0  0  0  0  0  0  0  0  0  0  0
   36.2090   29.4750   51.4140 N   0  0  0  0  0  0  0  0  0  0  0  0
   37.9794   33.1570   50.7012 H   0  0  0  0  0  0  0  0  0  0  0  0
   39.5778   34.7439   49.6314 H   0  0  0  0  0  0  0  0  0  0  0  0
   37.9483   32.3337   44.5530 H   0  0  0  0  0  0  0  0  0  0  0  0
   38.7886   33.8749   44.7152 H   0  0  0  0  0  0  0  0  0  0  0  0
   40.5484   33.1969   43.2933 H   0  0  0  0  0  0  0  0  0  0  0  0
   39.2869   32.1937   42.6019 H   0  0  0  0  0  0  0  0  0  0  0  0
   39.9405   30.2683   43.9601 H   0  0  0  0  0  0  0  0  0  0  0  0
   41.4931   30.9519   43.5194 H   0  0  0  0  0  0  0  0  0  0  0  0
   40.8592   30.5892   46.1109 H   0  0  0  0  0  0  0  0  0  0  0  0
   41.7289   32.0458   45.6765 H   0  0  0  0  0  0  0  0  0  0  0  0
   38.0309   30.5222   51.4431 H   0  0  0  0  0  0  0  0  0  0  0  0
   35.5134   31.0916   47.9964 H   0  0  0  0  0  0  0  0  0  0  0  0
   34.3232   28.5152   51.1751 H   0  0  0  0  0  0  0  0  0  0  0  0
  1 13  1  0
  1  2  2  0
  3  2  1  0
  4  3  2  0
  5  6  2  0
  5  4  1  0
  6  1  1  0
  7  5  1  0
  8  7  1  0
  9 10  1  0
  9  8  1  0
 10 11  1  0
 11  7  1  0
 12 17  2  0
 13 12  1  0
 14 15  1  0
 14 13  2  0
 15 16  2  0
 16 17  1  0
  2 18  1  0
  3 19  1  0
  8 20  1  0
  8 21  1  0
  9 22  1  0
  9 23  1  0
 10 24  1  0
 10 25  1  0
 11 26  1  0
 11 27  1  0
 12 28  1  0
 14 29  1  0
 16 30  1  0
M  ISO  8  18  14  19  14  20  13  21  13  22  13  23  13  24  13  25  13
M  ISO  5  26  13  27  13  28  14  29  14  30  14
M  END
>  <minimizedAffinity>  (1) 
-6.14481735

>  <minimizedRMSD>  (1) 
0.0850971565

$$$$
