
     RDKit          3D

 26 28  0  0  0  0  0  0  0  0999 V2000
   37.9460   31.8750   49.0760 C   0  0  0  0  0  0  0  0  0  0  0  0
   38.4510   33.0290   49.6530 C   0  0  0  0  0  0  0  0  0  0  0  0
   39.2920   33.9350   48.9960 C   0  0  0  0  0  0  0  0  0  0  0  0
   39.6170   33.6410   47.7160 N   0  0  0  0  0  0  0  0  0  0  0  0
   39.1270   32.5140   47.1440 C   0  0  0  0  0  0  0  0  0  0  0  0
   38.3220   31.6680   47.8100 N   0  0  0  0  0  0  0  0  0  0  0  0
   37.4210   30.3470   51.0030 C   0  0  0  0  0  0  0  0  0  0  0  0
   37.0910   30.9850   49.7950 C   0  0  0  0  0  0  0  0  0  0  0  0
   35.8230   30.7190   49.2650 C   0  0  0  0  0  0  0  0  0  0  0  0
   34.9940   29.8760   49.9330 N   0  0  0  0  0  0  0  0  0  0  0  0
   35.3680   29.2810   51.1070 C   0  0  0  0  0  0  0  0  0  0  0  0
   36.5960   29.5260   51.6400 N   0  0  0  0  0  0  0  0  0  0  0  0
   39.5190   32.2490   45.7470 C   0  0  0  0  0  0  0  0  0  0  0  0
   40.2960   31.1560   45.4380 C   0  0  0  0  0  0  0  0  0  0  0  0
   40.6450   30.9400   44.1110 C   0  0  0  0  0  0  0  0  0  0  0  0
   40.2120   31.8010   43.1890 N   0  0  0  0  0  0  0  0  0  0  0  0
   39.4510   32.8660   43.5220 C   0  0  0  0  0  0  0  0  0  0  0  0
   39.1020   33.0940   44.7990 N   0  0  0  0  0  0  0  0  0  0  0  0
   38.1731   33.2474   50.6947 H   0  0  0  0  0  0  0  0  0  0  0  0
   39.6693   34.8398   49.4950 H   0  0  0  0  0  0  0  0  0  0  0  0
   38.4115   30.5376   51.4418 H   0  0  0  0  0  0  0  0  0  0  0  0
   35.5030   31.1857   48.3217 H   0  0  0  0  0  0  0  0  0  0  0  0
   34.6730   28.6016   51.6223 H   0  0  0  0  0  0  0  0  0  0  0  0
   40.6340   30.4671   46.2262 H   0  0  0  0  0  0  0  0  0  0  0  0
   41.2653   30.0772   43.8266 H   0  0  0  0  0  0  0  0  0  0  0  0
   39.1120   33.5568   42.7360 H   0  0  0  0  0  0  0  0  0  0  0  0
  1  2  2  0
  1  8  1  0
  3  2  1  0
  4  3  2  0
  5  4  1  0
  5  6  2  0
  6  1  1  0
  7 12  2  0
  8  7  1  0
  9  8  2  0
  9 10  1  0
 10 11  2  0
 11 12  1  0
 13  5  1  0
 14 13  2  0
 15 14  1  0
 16 17  1  0
 16 15  2  0
 17 18  2  0
 18 13  1  0
  2 19  1  0
  3 20  1  0
  7 21  1  0
  9 22  1  0
 11 23  1  0
 14 24  1  0
 15 25  1  0
 17 26  1  0
M  ISO  8  19  14  20  14  21  14  22  14  23  14  24  14  25  14  26  14
M  END
>  <minimizedAffinity>  (1) 
-6.04162502

>  <minimizedRMSD>  (1) 
0.693258762

$$$$
