
     RDKit          3D

 21 22  0  0  0  0  0  0  0  0999 V2000
   38.3320   32.2030   48.8580 C   0  0  0  0  0  0  0  0  0  0  0  0
   38.7620   33.3260   49.5140 C   0  0  0  0  0  0  0  0  0  0  0  0
   39.6000   34.2950   48.9510 C   0  0  0  0  0  0  0  0  0  0  0  0
   39.9990   34.0830   47.6700 N   0  0  0  0  0  0  0  0  0  0  0  0
   39.5780   32.9780   47.0180 C   0  0  0  0  0  0  0  0  0  0  0  0
   38.7750   32.0760   47.5960 N   0  0  0  0  0  0  0  0  0  0  0  0
   37.7160   30.6090   50.7070 C   0  0  0  0  0  0  0  0  0  0  0  0
   37.4670   31.2220   49.4670 C   0  0  0  0  0  0  0  0  0  0  0  0
   36.3120   30.8540   48.7920 C   0  0  0  0  0  0  0  0  0  0  0  0
   35.4920   29.9250   49.3660 N   0  0  0  0  0  0  0  0  0  0  0  0
   35.7690   29.3540   50.5680 C   0  0  0  0  0  0  0  0  0  0  0  0
   36.8850   29.7050   51.2300 N   0  0  0  0  0  0  0  0  0  0  0  0
   40.0470   32.7950   45.6120 C   0  0  0  0  0  0  0  0  0  0  0  0
   40.0420   34.0410   44.9950 F   0  0  0  0  0  0  0  0  0  0  0  0
   39.2160   31.9240   44.9670 F   0  0  0  0  0  0  0  0  0  0  0  0
   41.3260   32.2610   45.5550 F   0  0  0  0  0  0  0  0  0  0  0  0
   38.4267   33.4759   50.5509 H   0  0  0  0  0  0  0  0  0  0  0  0
   39.9192   35.1827   49.5167 H   0  0  0  0  0  0  0  0  0  0  0  0
   38.6242   30.8829   51.2639 H   0  0  0  0  0  0  0  0  0  0  0  0
   36.0628   31.2999   47.8178 H   0  0  0  0  0  0  0  0  0  0  0  0
   35.0833   28.6084   50.9969 H   0  0  0  0  0  0  0  0  0  0  0  0
  1  8  1  0
  1  2  2  0
  3  2  1  0
  4  3  2  0
  5  6  2  0
  5  4  1  0
  6  1  1  0
  7 12  2  0
  8  7  1  0
  9 10  1  0
  9  8  2  0
 10 11  2  0
 11 12  1  0
 13  5  1  0
 14 13  1  0
 15 13  1  0
 16 13  1  0
  2 17  1  0
  3 18  1  0
  7 19  1  0
  9 20  1  0
 11 21  1  0
M  ISO  5  17  14  18  14  19  14  20  14  21  14
M  END
>  <minimizedAffinity>  (1) 
-5.5519743

>  <minimizedRMSD>  (1) 
0.654028654

$$$$
