
     RDKit          3D

 22 23  0  0  0  0  0  0  0  0999 V2000
   38.1580   32.0740   48.8220 C   0  0  0  0  0  0  0  0  0  0  0  0
   38.5920   33.0890   49.6430 C   0  0  0  0  0  0  0  0  0  0  0  0
   39.4390   34.1220   49.2220 C   0  0  0  0  0  0  0  0  0  0  0  0
   39.8400   34.0880   47.9100 N   0  0  0  0  0  0  0  0  0  0  0  0
   39.4150   33.0950   47.1130 C   0  0  0  0  0  0  0  0  0  0  0  0
   38.6000   32.1150   47.5490 N   0  0  0  0  0  0  0  0  0  0  0  0
   40.6980   32.3420   44.9740 C   0  0  0  0  0  0  0  0  0  0  0  0
   41.0010   31.2880   45.6290 O   0  0  0  0  0  0  0  0  0  0  0  0
   39.9100   33.1870   45.7820 N   0  0  0  0  0  0  0  0  0  0  0  0
   37.1750   30.6160   50.6190 C   0  0  0  0  0  0  0  0  0  0  0  0
   37.2920   31.0290   49.2770 C   0  0  0  0  0  0  0  0  0  0  0  0
   36.4980   30.3600   48.3520 C   0  0  0  0  0  0  0  0  0  0  0  0
   35.6700   29.3660   48.7640 N   0  0  0  0  0  0  0  0  0  0  0  0
   35.5870   29.0000   50.0600 C   0  0  0  0  0  0  0  0  0  0  0  0
   36.3460   29.6310   50.9960 N   0  0  0  0  0  0  0  0  0  0  0  0
   38.2545   33.0893   50.6900 H   0  0  0  0  0  0  0  0  0  0  0  0
   39.7655   34.9185   49.9068 H   0  0  0  0  0  0  0  0  0  0  0  0
   41.0044   32.5571   43.9397 H   0  0  0  0  0  0  0  0  0  0  0  0
   39.6332   34.0579   45.3069 H   0  0  0  0  0  0  0  0  0  0  0  0
   37.7847   31.1188   51.3842 H   0  0  0  0  0  0  0  0  0  0  0  0
   36.5407   30.6357   47.2880 H   0  0  0  0  0  0  0  0  0  0  0  0
   34.9050   28.1907   50.3599 H   0  0  0  0  0  0  0  0  0  0  0  0
  1 11  1  0
  1  2  2  0
  3  2  1  0
  4  3  2  0
  5  6  2  0
  5  4  1  0
  6  1  1  0
  7  8  2  0
  7  9  1  0
  9  5  1  0
 10 15  2  0
 11 10  1  0
 12 13  1  0
 12 11  2  0
 13 14  2  0
 14 15  1  0
  2 16  1  0
  3 17  1  0
  7 18  1  0
  9 19  1  0
 10 20  1  0
 12 21  1  0
 14 22  1  0
M  ISO  6  16  14  17  14  18   6  20  14  21  14  22  14
M  END
>  <minimizedAffinity>  (1) 
-5.44393587

>  <minimizedRMSD>  (1) 
0.712434351

$$$$
