
     RDKit          3D

 20 21  0  0  0  0  0  0  0  0999 V2000
   37.8470   31.8640   48.9950 C   0  0  0  0  0  0  0  0  0  0  0  0
   38.3210   32.9710   49.6520 C   0  0  0  0  0  0  0  0  0  0  0  0
   39.2260   33.8860   49.0900 C   0  0  0  0  0  0  0  0  0  0  0  0
   39.6410   33.6450   47.8250 N   0  0  0  0  0  0  0  0  0  0  0  0
   39.1820   32.5600   47.1700 C   0  0  0  0  0  0  0  0  0  0  0  0
   38.3210   31.7200   47.7530 N   0  0  0  0  0  0  0  0  0  0  0  0
   39.5400   32.1850   45.8290 N   0  0  0  0  0  0  0  0  0  0  0  0
   37.0910   30.3410   50.8340 C   0  0  0  0  0  0  0  0  0  0  0  0
   36.9240   30.9460   49.5900 C   0  0  0  0  0  0  0  0  0  0  0  0
   35.7610   30.6180   48.8780 C   0  0  0  0  0  0  0  0  0  0  0  0
   34.8840   29.7500   49.4330 N   0  0  0  0  0  0  0  0  0  0  0  0
   35.0850   29.1880   50.6430 C   0  0  0  0  0  0  0  0  0  0  0  0
   36.2050   29.4880   51.3520 N   0  0  0  0  0  0  0  0  0  0  0  0
   37.9718   33.1526   50.6792 H   0  0  0  0  0  0  0  0  0  0  0  0
   39.5821   34.7608   49.6539 H   0  0  0  0  0  0  0  0  0  0  0  0
   40.1982   32.7658   45.2902 H   0  0  0  0  0  0  0  0  0  0  0  0
   39.1382   31.3356   45.4071 H   0  0  0  0  0  0  0  0  0  0  0  0
   37.9943   30.5772   51.4156 H   0  0  0  0  0  0  0  0  0  0  0  0
   35.5659   31.0574   47.8886 H   0  0  0  0  0  0  0  0  0  0  0  0
   34.3434   28.4879   51.0551 H   0  0  0  0  0  0  0  0  0  0  0  0
  1  9  1  0
  1  2  2  0
  3  2  1  0
  4  3  2  0
  5  6  2  0
  5  4  1  0
  6  1  1  0
  7  5  1  0
  8 13  2  0
  9  8  1  0
 10 11  1  0
 10  9  2  0
 11 12  2  0
 12 13  1  0
  2 14  1  0
  3 15  1  0
  7 16  1  0
  7 17  1  0
  8 18  1  0
 10 19  1  0
 12 20  1  0
M  ISO  5  14  14  15  14  18  14  19  14  20  14
M  END
>  <minimizedAffinity>  (1) 
-4.67057371

>  <minimizedRMSD>  (1) 
0.0451822467

$$$$
