
     RDKit          3D

 32 34  0  0  1  0  0  0  0  0999 V2000
   38.3470   32.2090   48.8980 C   0  0  0  0  0  0  0  0  0  0  0  0
   38.7100   33.3740   49.5190 C   0  0  0  0  0  0  0  0  0  0  0  0
   39.5640   34.3290   48.9390 C   0  0  0  0  0  0  0  0  0  0  0  0
   40.0370   34.0540   47.6990 N   0  0  0  0  0  0  0  0  0  0  0  0
   39.6850   32.9190   47.0900 C   0  0  0  0  0  0  0  0  0  0  0  0
   38.8670   32.0180   47.6600 N   0  0  0  0  0  0  0  0  0  0  0  0
   40.2290   32.6240   45.7490 C   0  0  2  0  0  0  0  0  0  0  0  0
   39.3390   33.0780   44.6190 C   0  0  0  0  0  0  0  0  0  0  0  0
   39.7660   32.1590   43.4750 C   0  0  0  0  0  0  0  0  0  0  0  0
   40.6300   31.0870   44.0710 C   0  0  0  0  0  0  0  0  0  0  0  0
   40.2400   31.1300   45.5500 C   0  0  2  0  0  0  0  0  0  0  0  0
   39.0440   30.5260   45.7960 O   0  0  0  0  0  0  0  0  0  0  0  0
   37.7430   30.6080   50.7340 C   0  0  0  0  0  0  0  0  0  0  0  0
   37.4790   31.2370   49.5100 C   0  0  0  0  0  0  0  0  0  0  0  0
   36.3070   30.8880   48.8640 C   0  0  0  0  0  0  0  0  0  0  0  0
   35.4910   29.9710   49.4450 N   0  0  0  0  0  0  0  0  0  0  0  0
   35.7790   29.3840   50.6280 C   0  0  0  0  0  0  0  0  0  0  0  0
   36.9150   29.7130   51.2690 N   0  0  0  0  0  0  0  0  0  0  0  0
   38.3125   33.5736   50.5251 H   0  0  0  0  0  0  0  0  0  0  0  0
   39.8352   35.2553   49.4667 H   0  0  0  0  0  0  0  0  0  0  0  0
   41.2063   33.1280   45.7215 H   0  0  0  0  0  0  0  0  0  0  0  0
   38.2768   32.9366   44.8677 H   0  0  0  0  0  0  0  0  0  0  0  0
   39.4388   34.1479   44.3838 H   0  0  0  0  0  0  0  0  0  0  0  0
   40.3345   32.7287   42.7252 H   0  0  0  0  0  0  0  0  0  0  0  0
   38.8890   31.7226   42.9745 H   0  0  0  0  0  0  0  0  0  0  0  0
   40.4059   30.1048   43.6294 H   0  0  0  0  0  0  0  0  0  0  0  0
   41.7048   31.2432   43.8966 H   0  0  0  0  0  0  0  0  0  0  0  0
   40.9026   30.5837   46.2374 H   0  0  0  0  0  0  0  0  0  0  0  0
   38.9047   30.4557   46.7736 H   0  0  0  0  0  0  0  0  0  0  0  0
   38.6678   30.8629   51.2724 H   0  0  0  0  0  0  0  0  0  0  0  0
   36.0411   31.3440   47.8989 H   0  0  0  0  0  0  0  0  0  0  0  0
   35.0908   28.6441   51.0626 H   0  0  0  0  0  0  0  0  0  0  0  0
  1 14  1  0
  1  2  2  0
  3  2  1  0
  4  3  2  0
  5  6  2  0
  5  4  1  0
  6  1  1  0
  7  5  1  0
  8  7  1  0
  9 10  1  0
  9  8  1  0
 10 11  1  0
 11  7  1  0
 11 12  1  0
 13 18  2  0
 14 13  1  0
 15 16  1  0
 15 14  2  0
 16 17  2  0
 17 18  1  0
  2 19  1  0
  3 20  1  0
  7 21  1  6
  8 22  1  0
  8 23  1  0
  9 24  1  0
  9 25  1  0
 10 26  1  0
 10 27  1  0
 11 28  1  1
 12 29  1  0
 13 30  1  0
 15 31  1  0
 17 32  1  0
M  ISO  8  19  14  20  14  21  13  22  13  23  13  24  13  25  13  26  13
M  ISO  6  27  13  28  13  29   3  30  14  31  14  32  14
M  END
>  <minimizedAffinity>  (1) 
-6.17297077

>  <minimizedRMSD>  (1) 
0.0225401931

$$$$
