
     RDKit          3D

 35 37  0  0  1  0  0  0  0  0999 V2000
   39.8520   32.4280   46.1910 C   0  0  2  0  0  0  0  0  0  0  0  0
   39.8470   33.7930   45.5430 C   0  0  0  0  0  0  0  0  0  0  0  0
   40.2900   33.4890   44.1110 C   0  0  0  0  0  0  0  0  0  0  0  0
   40.2900   31.9990   43.9690 C   0  0  0  0  0  0  0  0  0  0  0  0
   39.3000   31.5830   45.0640 C   0  0  1  0  0  0  0  0  0  0  0  0
   37.1660   31.1640   48.3830 C   0  0  0  0  0  0  0  0  0  0  0  0
   37.3390   32.0100   49.4440 C   0  0  0  0  0  0  0  0  0  0  0  0
   38.3220   33.0200   49.4790 C   0  0  0  0  0  0  0  0  0  0  0  0
   39.1320   33.1380   48.3800 N   0  0  0  0  0  0  0  0  0  0  0  0
   38.9530   32.3080   47.3510 C   0  0  0  0  0  0  0  0  0  0  0  0
   38.0100   31.3520   47.3380 N   0  0  0  0  0  0  0  0  0  0  0  0
   35.9920   29.1840   49.3850 C   0  0  0  0  0  0  0  0  0  0  0  0
   36.1650   30.1330   48.3690 C   0  0  0  0  0  0  0  0  0  0  0  0
   35.3030   30.0450   47.2910 C   0  0  0  0  0  0  0  0  0  0  0  0
   34.3660   29.0710   47.2790 N   0  0  0  0  0  0  0  0  0  0  0  0
   34.2280   28.1710   48.2790 C   0  0  0  0  0  0  0  0  0  0  0  0
   35.0530   28.2400   49.3290 N   0  0  0  0  0  0  0  0  0  0  0  0
   38.7870   29.2650   44.4170 C   0  0  0  0  0  0  0  0  0  0  0  0
   38.1740   29.6280   43.3800 O   0  0  0  0  0  0  0  0  0  0  0  0
   39.3900   30.1660   45.3310 N   0  0  0  0  0  0  0  0  0  0  0  0
   40.8447   32.1609   46.5825 H   0  0  0  0  0  0  0  0  0  0  0  0
   38.8405   34.2365   45.5608 H   0  0  0  0  0  0  0  0  0  0  0  0
   40.4945   34.5205   46.0543 H   0  0  0  0  0  0  0  0  0  0  0  0
   39.5879   33.9384   43.3933 H   0  0  0  0  0  0  0  0  0  0  0  0
   41.2873   33.9062   43.9079 H   0  0  0  0  0  0  0  0  0  0  0  0
   39.9391   31.6910   42.9730 H   0  0  0  0  0  0  0  0  0  0  0  0
   41.2850   31.5407   44.0687 H   0  0  0  0  0  0  0  0  0  0  0  0
   38.2317   31.7334   44.8491 H   0  0  0  0  0  0  0  0  0  0  0  0
   36.6768   31.8963   50.3150 H   0  0  0  0  0  0  0  0  0  0  0  0
   38.4337   33.6834   50.3493 H   0  0  0  0  0  0  0  0  0  0  0  0
   36.6558   29.2194   50.2614 H   0  0  0  0  0  0  0  0  0  0  0  0
   35.3789   30.7570   46.4560 H   0  0  0  0  0  0  0  0  0  0  0  0
   33.4499   27.3950   48.2294 H   0  0  0  0  0  0  0  0  0  0  0  0
   38.8593   28.1876   44.6265 H   0  0  0  0  0  0  0  0  0  0  0  0
   39.8813   29.8179   46.1667 H   0  0  0  0  0  0  0  0  0  0  0  0
  1 10  1  0
  2  1  1  0
  3  2  1  0
  4  3  1  0
  4  5  1  0
  5 20  1  0
  5  1  1  0
  6  7  2  0
  7  8  1  0
  9  8  2  0
 10  9  1  0
 11 10  2  0
 11  6  1  0
 13  6  1  0
 13 12  2  0
 14 13  1  0
 15 14  2  0
 15 16  1  0
 16 17  2  0
 17 12  1  0
 18 20  1  0
 19 18  2  0
  1 21  1  1
  2 22  1  0
  2 23  1  0
  3 24  1  0
  3 25  1  0
  4 26  1  0
  4 27  1  0
  5 28  1  6
  7 29  1  0
  8 30  1  0
 12 31  1  0
 14 32  1  0
 16 33  1  0
 18 34  1  0
 20 35  1  0
M  ISO  8  21  13  22  13  23  13  24  13  25  13  26  13  27  13  28  13
M  ISO  6  29  14  30  14  31  14  32  14  33  14  34   6
M  END
>  <minimizedAffinity>  (1) 
-5.77674103

>  <minimizedRMSD>  (1) 
2.08952451

$$$$
