
     RDKit          3D

 37 39  0  0  1  0  0  0  0  0999 V2000
   38.2100   31.8940   48.8210 C   0  0  0  0  0  0  0  0  0  0  0  0
   38.5790   33.0220   49.5060 C   0  0  0  0  0  0  0  0  0  0  0  0
   39.4040   34.0200   48.9580 C   0  0  0  0  0  0  0  0  0  0  0  0
   39.8460   33.8320   47.6790 N   0  0  0  0  0  0  0  0  0  0  0  0
   39.4820   32.7310   47.0170 C   0  0  0  0  0  0  0  0  0  0  0  0
   38.6910   31.7870   47.5570 N   0  0  0  0  0  0  0  0  0  0  0  0
   39.9910   32.5330   45.6450 C   0  0  2  0  0  0  0  0  0  0  0  0
   39.9850   33.7910   44.8080 C   0  0  0  0  0  0  0  0  0  0  0  0
   39.9460   33.2360   43.3910 C   0  0  0  0  0  0  0  0  0  0  0  0
   39.6290   31.7790   43.4970 C   0  0  0  0  0  0  0  0  0  0  0  0
   38.9870   31.6960   44.8840 C   0  0  1  0  0  0  0  0  0  0  0  0
   38.8880   30.2790   45.3700 C   0  0  0  0  0  0  0  0  0  0  0  0
   38.9620   29.3290   44.2240 C   0  0  0  0  0  0  0  0  0  0  0  0
   37.2730   30.6160   50.7680 C   0  0  0  0  0  0  0  0  0  0  0  0
   37.3720   30.8730   49.3940 C   0  0  0  0  0  0  0  0  0  0  0  0
   36.6150   30.0790   48.5510 C   0  0  0  0  0  0  0  0  0  0  0  0
   35.8260   29.1070   49.0760 N   0  0  0  0  0  0  0  0  0  0  0  0
   35.7620   28.8950   50.4080 C   0  0  0  0  0  0  0  0  0  0  0  0
   36.4930   29.6570   51.2650 N   0  0  0  0  0  0  0  0  0  0  0  0
   38.2119   33.1531   50.5346 H   0  0  0  0  0  0  0  0  0  0  0  0
   39.6819   34.9145   49.5348 H   0  0  0  0  0  0  0  0  0  0  0  0
   41.0025   32.1201   45.7729 H   0  0  0  0  0  0  0  0  0  0  0  0
   39.0981   34.4063   45.0196 H   0  0  0  0  0  0  0  0  0  0  0  0
   40.8432   34.4520   44.9992 H   0  0  0  0  0  0  0  0  0  0  0  0
   40.9227   33.3750   42.9045 H   0  0  0  0  0  0  0  0  0  0  0  0
   39.1890   33.7580   42.7873 H   0  0  0  0  0  0  0  0  0  0  0  0
   38.9264   31.4642   42.7114 H   0  0  0  0  0  0  0  0  0  0  0  0
   40.5035   31.1235   43.3719 H   0  0  0  0  0  0  0  0  0  0  0  0
   37.9454   32.0403   44.9652 H   0  0  0  0  0  0  0  0  0  0  0  0
   39.7171   30.0752   46.0636 H   0  0  0  0  0  0  0  0  0  0  0  0
   37.9240   30.1446   45.8825 H   0  0  0  0  0  0  0  0  0  0  0  0
   39.0421   28.3003   44.6051 H   0  0  0  0  0  0  0  0  0  0  0  0
   38.0538   29.4230   43.6105 H   0  0  0  0  0  0  0  0  0  0  0  0
   39.8447   29.5625   43.6105 H   0  0  0  0  0  0  0  0  0  0  0  0
   37.8628   31.2306   51.4640 H   0  0  0  0  0  0  0  0  0  0  0  0
   36.6522   30.2343   47.4626 H   0  0  0  0  0  0  0  0  0  0  0  0
   35.1133   28.0994   50.8032 H   0  0  0  0  0  0  0  0  0  0  0  0
  1 15  1  0
  1  2  2  0
  3  2  1  0
  4  3  2  0
  5  6  2  0
  5  4  1  0
  6  1  1  0
  7  5  1  0
  8  7  1  0
  9 10  1  0
  9  8  1  0
 10 11  1  0
 11 12  1  0
 11  7  1  0
 13 12  1  0
 14 19  2  0
 15 14  1  0
 16 17  1  0
 16 15  2  0
 17 18  2  0
 18 19  1  0
  2 20  1  0
  3 21  1  0
  7 22  1  1
  8 23  1  0
  8 24  1  0
  9 25  1  0
  9 26  1  0
 10 27  1  0
 10 28  1  0
 11 29  1  6
 12 30  1  0
 12 31  1  0
 13 32  1  0
 13 33  1  0
 13 34  1  0
 14 35  1  0
 16 36  1  0
 18 37  1  0
M  ISO  8  20  14  21  14  22  13  23  13  24  13  25  13  26  13  27  13
M  ISO  8  28  13  29  13  30   8  31   8  32   8  33   8  34   8  35  14
M  ISO  2  36  14  37  14
M  END
>  <minimizedAffinity>  (1) 
-5.7542634

>  <minimizedRMSD>  (1) 
1.12642896

$$$$
