
     RDKit          3D

 47 50  0  0  1  0  0  0  0  0999 V2000
   36.9390   30.9770   48.0580 C   0  0  0  0  0  0  0  0  0  0  0  0
   37.5650   31.5770   49.1280 C   0  0  0  0  0  0  0  0  0  0  0  0
   38.6200   32.4930   48.9970 C   0  0  0  0  0  0  0  0  0  0  0  0
   39.0290   32.7910   47.7280 N   0  0  0  0  0  0  0  0  0  0  0  0
   38.4130   32.2030   46.6910 C   0  0  0  0  0  0  0  0  0  0  0  0
   37.4110   31.3320   46.8350 N   0  0  0  0  0  0  0  0  0  0  0  0
   38.8640   32.5320   45.3280 C   0  0  2  0  0  0  0  0  0  0  0  0
   37.7890   32.5140   44.2820 C   0  0  0  0  0  0  0  0  0  0  0  0
   38.5800   32.2390   42.9970 C   0  0  0  0  0  0  0  0  0  0  0  0
   39.9930   31.9010   43.4250 C   0  0  0  0  0  0  0  0  0  0  0  0
   39.7560   31.3970   44.8410 C   0  0  1  0  0  0  0  0  0  0  0  0
   40.9980   31.2000   45.6370 C   0  0  0  0  0  0  0  0  0  0  0  0
   35.7920   29.0700   49.2100 C   0  0  0  0  0  0  0  0  0  0  0  0
   35.8620   30.0420   48.2190 C   0  0  0  0  0  0  0  0  0  0  0  0
   34.8130   30.0980   47.3310 C   0  0  0  0  0  0  0  0  0  0  0  0
   33.7800   29.2250   47.4600 N   0  0  0  0  0  0  0  0  0  0  0  0
   33.7470   28.2900   48.4390 C   0  0  0  0  0  0  0  0  0  0  0  0
   34.7610   28.2290   49.3040 N   0  0  0  0  0  0  0  0  0  0  0  0
   31.8820   27.3940   47.0500 C   0  0  2  0  0  0  0  0  0  0  0  0
   32.5350   27.4260   48.4170 C   0  0  2  0  0  0  0  0  0  0  0  0
   31.5540   27.8330   49.3080 O   0  0  0  0  0  0  0  0  0  0  0  0
   30.3340   27.4770   48.7960 C   0  0  0  0  0  0  0  0  0  0  0  0
   30.5320   26.8320   47.4460 C   0  0  1  0  0  0  0  0  0  0  0  0
   32.5770   26.6090   46.1590 O   0  0  0  0  0  0  0  0  0  0  0  0
   29.5260   27.1970   46.5500 O   0  0  0  0  0  0  0  0  0  0  0  0
   37.2189   31.3243   50.1411 H   0  0  0  0  0  0  0  0  0  0  0  0
   39.0963   32.9506   49.8766 H   0  0  0  0  0  0  0  0  0  0  0  0
   39.3105   33.5329   45.4215 H   0  0  0  0  0  0  0  0  0  0  0  0
   37.0579   31.7156   44.4772 H   0  0  0  0  0  0  0  0  0  0  0  0
   37.1992   33.4417   44.2436 H   0  0  0  0  0  0  0  0  0  0  0  0
   38.5811   33.1310   42.3534 H   0  0  0  0  0  0  0  0  0  0  0  0
   38.1310   31.4155   42.4224 H   0  0  0  0  0  0  0  0  0  0  0  0
   40.4324   31.1202   42.7868 H   0  0  0  0  0  0  0  0  0  0  0  0
   40.7005   32.7404   43.3554 H   0  0  0  0  0  0  0  0  0  0  0  0
   39.3236   30.3888   44.9223 H   0  0  0  0  0  0  0  0  0  0  0  0
   40.7562   31.2384   46.7094 H   0  0  0  0  0  0  0  0  0  0  0  0
   41.4372   30.2210   45.3950 H   0  0  0  0  0  0  0  0  0  0  0  0
   41.7186   31.9951   45.3950 H   0  0  0  0  0  0  0  0  0  0  0  0
   36.6120   28.9919   49.9391 H   0  0  0  0  0  0  0  0  0  0  0  0
   34.8105   30.8439   46.5226 H   0  0  0  0  0  0  0  0  0  0  0  0
   31.8352   28.3526   46.5126 H   0  0  0  0  0  0  0  0  0  0  0  0
   32.9127   26.4329   48.7019 H   0  0  0  0  0  0  0  0  0  0  0  0
   29.8433   26.7648   49.4757 H   0  0  0  0  0  0  0  0  0  0  0  0
   29.7025   28.3713   48.6895 H   0  0  0  0  0  0  0  0  0  0  0  0
   30.4914   25.7328   47.4552 H   0  0  0  0  0  0  0  0  0  0  0  0
   33.1444   25.9682   46.6565 H   0  0  0  0  0  0  0  0  0  0  0  0
   28.7249   27.4877   47.0538 H   0  0  0  0  0  0  0  0  0  0  0  0
  1 14  1  0
  1  2  2  0
  3  2  1  0
  4  3  2  0
  5  6  2  0
  5  4  1  0
  6  1  1  0
  7  5  1  0
  8  7  1  0
  9 10  1  0
  9  8  1  0
 10 11  1  0
 11  7  1  0
 11 12  1  0
 13 18  2  0
 14 13  1  0
 15 16  1  0
 15 14  2  0
 16 17  2  0
 17 18  1  0
 19 24  1  0
 19 23  1  0
 19 20  1  0
 20 17  1  0
 20 21  1  0
 22 21  1  0
 23 25  1  0
 23 22  1  0
  2 26  1  0
  3 27  1  0
  7 28  1  1
  8 29  1  0
  8 30  1  0
  9 31  1  0
  9 32  1  0
 10 33  1  0
 10 34  1  0
 11 35  1  6
 12 36  1  0
 12 37  1  0
 12 38  1  0
 13 39  1  0
 15 40  1  0
 19 41  1  6
 20 42  1  1
 22 43  1  0
 22 44  1  0
 23 45  1  1
 24 46  1  0
 25 47  1  0
M  ISO  8  26  14  27  14  28  13  29  13  30  13  31  13  32  13  33  13
M  ISO  8  34  13  35  13  36   8  37   8  38   8  39  14  40  14  41  13
M  ISO  6  42  13  43  13  44  13  45  13  46   3  47   3
M  END
>  <minimizedAffinity>  (1) 
-6.5982542

>  <minimizedRMSD>  (1) 
2.79072475

$$$$
