
     RDKit          3D

 47 50  0  0  1  0  0  0  0  0999 V2000
   36.8890   30.8830   47.9760 C   0  0  0  0  0  0  0  0  0  0  0  0
   37.4300   31.4980   49.0820 C   0  0  0  0  0  0  0  0  0  0  0  0
   38.4520   32.4610   49.0070 C   0  0  0  0  0  0  0  0  0  0  0  0
   38.9080   32.7810   47.7500 N   0  0  0  0  0  0  0  0  0  0  0  0
   38.3810   32.1840   46.6920 C   0  0  0  0  0  0  0  0  0  0  0  0
   37.4070   31.2670   46.7830 N   0  0  0  0  0  0  0  0  0  0  0  0
   38.8820   32.5390   45.3510 C   0  0  2  0  0  0  0  0  0  0  0  0
   37.8280   32.5500   44.2730 C   0  0  0  0  0  0  0  0  0  0  0  0
   38.6680   32.3110   43.0010 C   0  0  0  0  0  0  0  0  0  0  0  0
   40.0580   31.9500   43.4690 C   0  0  0  0  0  0  0  0  0  0  0  0
   39.7660   31.4210   44.8630 C   0  0  1  0  0  0  0  0  0  0  0  0
   40.9860   31.1850   45.6900 C   0  0  0  0  0  0  0  0  0  0  0  0
   35.6300   29.0830   49.1720 C   0  0  0  0  0  0  0  0  0  0  0  0
   35.8490   29.9030   48.0710 C   0  0  0  0  0  0  0  0  0  0  0  0
   34.9860   29.7400   47.0080 C   0  0  0  0  0  0  0  0  0  0  0  0
   33.9930   28.8140   47.0850 N   0  0  0  0  0  0  0  0  0  0  0  0
   33.8230   28.0440   48.1730 C   0  0  0  0  0  0  0  0  0  0  0  0
   34.6440   28.1830   49.2090 N   0  0  0  0  0  0  0  0  0  0  0  0
   32.7370   27.0330   48.2500 C   0  0  0  0  0  0  0  0  0  0  0  0
   31.4450   27.6300   48.7110 C   0  0  0  0  0  0  0  0  0  0  0  0
   30.7950   28.1730   47.4620 C   0  0  0  0  0  0  0  0  0  0  0  0
   31.1840   27.2030   46.3880 C   0  0  0  0  0  0  0  0  0  0  0  0
   32.3830   26.4640   46.8930 C   0  0  0  0  0  0  0  0  0  0  0  0
   37.0436   31.2224   50.0744 H   0  0  0  0  0  0  0  0  0  0  0  0
   38.8661   32.9348   49.9093 H   0  0  0  0  0  0  0  0  0  0  0  0
   39.3411   33.5299   45.4828 H   0  0  0  0  0  0  0  0  0  0  0  0
   37.0934   31.7453   44.4240 H   0  0  0  0  0  0  0  0  0  0  0  0
   37.2325   33.4744   44.2442 H   0  0  0  0  0  0  0  0  0  0  0  0
   38.6981   33.2239   42.3880 H   0  0  0  0  0  0  0  0  0  0  0  0
   38.2355   31.5111   42.3821 H   0  0  0  0  0  0  0  0  0  0  0  0
   40.5114   31.1775   42.8305 H   0  0  0  0  0  0  0  0  0  0  0  0
   40.7765   32.7825   43.4411 H   0  0  0  0  0  0  0  0  0  0  0  0
   39.3120   30.4199   44.9055 H   0  0  0  0  0  0  0  0  0  0  0  0
   40.7215   31.2362   46.7565 H   0  0  0  0  0  0  0  0  0  0  0  0
   41.3972   30.1907   45.4615 H   0  0  0  0  0  0  0  0  0  0  0  0
   41.7383   31.9543   45.4615 H   0  0  0  0  0  0  0  0  0  0  0  0
   36.2930   29.1789   50.0445 H   0  0  0  0  0  0  0  0  0  0  0  0
   35.1000   30.3552   46.1033 H   0  0  0  0  0  0  0  0  0  0  0  0
   33.1325   26.2739   48.9409 H   0  0  0  0  0  0  0  0  0  0  0  0
   30.8086   26.8621   49.1750 H   0  0  0  0  0  0  0  0  0  0  0  0
   31.5996   28.4124   49.4686 H   0  0  0  0  0  0  0  0  0  0  0  0
   29.7016   28.2093   47.5764 H   0  0  0  0  0  0  0  0  0  0  0  0
   31.1154   29.2006   47.2352 H   0  0  0  0  0  0  0  0  0  0  0  0
   31.4326   27.7419   45.4618 H   0  0  0  0  0  0  0  0  0  0  0  0
   30.3591   26.5119   46.1600 H   0  0  0  0  0  0  0  0  0  0  0  0
   32.1513   25.3926   46.9849 H   0  0  0  0  0  0  0  0  0  0  0  0
   33.2266   26.5769   46.1961 H   0  0  0  0  0  0  0  0  0  0  0  0
  1 14  1  0
  1  2  2  0
  3  2  1  0
  4  3  2  0
  5  6  2  0
  5  4  1  0
  6  1  1  0
  7  5  1  0
  8  7  1  0
  9 10  1  0
  9  8  1  0
 10 11  1  0
 11  7  1  0
 11 12  1  0
 13 18  2  0
 14 13  1  0
 15 16  1  0
 15 14  2  0
 16 17  2  0
 17 19  1  0
 17 18  1  0
 19 20  1  0
 21 20  1  0
 22 23  1  0
 22 21  1  0
 23 19  1  0
  2 24  1  0
  3 25  1  0
  7 26  1  1
  8 27  1  0
  8 28  1  0
  9 29  1  0
  9 30  1  0
 10 31  1  0
 10 32  1  0
 11 33  1  6
 12 34  1  0
 12 35  1  0
 12 36  1  0
 13 37  1  0
 15 38  1  0
 19 39  1  0
 20 40  1  0
 20 41  1  0
 21 42  1  0
 21 43  1  0
 22 44  1  0
 22 45  1  0
 23 46  1  0
 23 47  1  0
M  ISO  8  24  14  25  14  26  13  27  13  28  13  29  13  30  13  31  13
M  ISO  8  32  13  33  13  34   8  35   8  36   8  37  14  38  14  39  13
M  ISO  8  40  13  41  13  42  13  43  13  44  13  45  13  46  13  47  13
M  END
>  <minimizedAffinity>  (1) 
-6.28502989

>  <minimizedRMSD>  (1) 
2.68869233

$$$$
