
     RDKit          3D

 37 39  0  0  1  0  0  0  0  0999 V2000
   38.4860   32.4180   48.4570 C   0  0  0  0  0  0  0  0  0  0  0  0
   39.0880   33.5090   49.0390 C   0  0  0  0  0  0  0  0  0  0  0  0
   39.9390   34.3910   48.3470 C   0  0  0  0  0  0  0  0  0  0  0  0
   40.1630   34.1260   47.0250 N   0  0  0  0  0  0  0  0  0  0  0  0
   39.5800   33.0690   46.4630 C   0  0  0  0  0  0  0  0  0  0  0  0
   38.7650   32.2290   47.1350 N   0  0  0  0  0  0  0  0  0  0  0  0
   39.8320   32.7960   45.0340 C   0  0  2  0  0  0  0  0  0  0  0  0
   38.6010   32.7770   44.1730 C   0  0  0  0  0  0  0  0  0  0  0  0
   39.0180   31.8750   42.9980 C   0  0  0  0  0  0  0  0  0  0  0  0
   40.3510   31.2890   43.3930 C   0  0  0  0  0  0  0  0  0  0  0  0
   40.2700   31.3570   44.9070 C   0  0  1  0  0  0  0  0  0  0  0  0
   41.5490   31.0280   45.6030 C   0  0  0  0  0  0  0  0  0  0  0  0
   37.8870   31.0310   50.4480 C   0  0  0  0  0  0  0  0  0  0  0  0
   37.6260   31.5340   49.1720 C   0  0  0  0  0  0  0  0  0  0  0  0
   36.4450   31.1310   48.5850 C   0  0  0  0  0  0  0  0  0  0  0  0
   35.6130   30.2870   49.2520 N   0  0  0  0  0  0  0  0  0  0  0  0
   35.9080   29.8280   50.4820 C   0  0  0  0  0  0  0  0  0  0  0  0
   37.0580   30.2090   51.0750 N   0  0  0  0  0  0  0  0  0  0  0  0
   34.9880   28.9110   51.1920 C   0  0  0  0  0  0  0  0  0  0  0  0
   38.8937   33.7030   50.1042 H   0  0  0  0  0  0  0  0  0  0  0  0
   40.4026   35.2541   48.8472 H   0  0  0  0  0  0  0  0  0  0  0  0
   40.5359   33.5815   44.7216 H   0  0  0  0  0  0  0  0  0  0  0  0
   37.7449   32.3497   44.7157 H   0  0  0  0  0  0  0  0  0  0  0  0
   38.2758   33.7793   43.8574 H   0  0  0  0  0  0  0  0  0  0  0  0
   39.1161   32.4661   42.0755 H   0  0  0  0  0  0  0  0  0  0  0  0
   38.2710   31.0924   42.7992 H   0  0  0  0  0  0  0  0  0  0  0  0
   40.4547   30.2518   43.0416 H   0  0  0  0  0  0  0  0  0  0  0  0
   41.2179   31.8134   42.9646 H   0  0  0  0  0  0  0  0  0  0  0  0
   39.6069   30.6211   45.3853 H   0  0  0  0  0  0  0  0  0  0  0  0
   41.3949   31.0676   46.6914 H   0  0  0  0  0  0  0  0  0  0  0  0
   41.8735   30.0171   45.3152 H   0  0  0  0  0  0  0  0  0  0  0  0
   42.3210   31.7568   45.3152 H   0  0  0  0  0  0  0  0  0  0  0  0
   38.8178   31.3289   50.9529 H   0  0  0  0  0  0  0  0  0  0  0  0
   36.1769   31.4910   47.5807 H   0  0  0  0  0  0  0  0  0  0  0  0
   35.1124   29.0350   52.2779 H   0  0  0  0  0  0  0  0  0  0  0  0
   33.9499   29.1444   50.9129 H   0  0  0  0  0  0  0  0  0  0  0  0
   35.2180   27.8722   50.9129 H   0  0  0  0  0  0  0  0  0  0  0  0
  1  2  2  0
  1 14  1  0
  3  2  1  0
  4  3  2  0
  5  4  1  0
  5  6  2  0
  6  1  1  0
  7  5  1  0
  8  7  1  0
  9 10  1  0
  9  8  1  0
 10 11  1  0
 11  7  1  0
 11 12  1  0
 13 18  2  0
 14 13  1  0
 15 14  2  0
 15 16  1  0
 16 17  2  0
 17 18  1  0
 17 19  1  0
  2 20  1  0
  3 21  1  0
  7 22  1  6
  8 23  1  0
  8 24  1  0
  9 25  1  0
  9 26  1  0
 10 27  1  0
 10 28  1  0
 11 29  1  1
 12 30  1  0
 12 31  1  0
 12 32  1  0
 13 33  1  0
 15 34  1  0
 19 35  1  0
 19 36  1  0
 19 37  1  0
M  ISO  8  20  14  21  14  22  13  23  13  24  13  25  13  26  13  27  13
M  ISO  8  28  13  29  13  30   8  31   8  32   8  33  14  34  14  35   8
M  ISO  2  36   8  37   8
M  END
>  <minimizedAffinity>  (1) 
-5.45245171

>  <minimizedRMSD>  (1) 
0.421598673

$$$$
