
     RDKit          3D

 39 41  0  0  1  0  0  0  0  0999 V2000
   33.2140   29.3610   47.7200 N   0  0  0  0  0  0  0  0  0  0  0  0
   34.3900   30.1590   47.4010 C   0  0  2  0  0  0  0  0  0  0  0  0
   34.8570   29.7830   46.0210 C   0  0  0  0  0  0  0  0  0  0  0  0
   33.8560   29.0870   45.3110 O   0  0  0  0  0  0  0  0  0  0  0  0
   33.7480   27.8350   45.9570 C   0  0  0  0  0  0  0  0  0  0  0  0
   33.5440   27.9940   47.4440 C   0  0  2  0  0  0  0  0  0  0  0  0
   32.7190   27.0070   48.0550 N   0  0  0  0  0  0  0  0  0  0  0  0
   31.8780   26.4190   47.0290 C   0  0  0  0  0  0  0  0  0  0  0  0
   30.7010   27.2690   46.6490 C   0  0  0  0  0  0  0  0  0  0  0  0
   29.6680   27.2410   47.7770 C   0  0  0  0  0  0  0  0  0  0  0  0
   30.4590   27.0530   49.0610 C   0  0  0  0  0  0  0  0  0  0  0  0
   31.7960   27.7420   48.9320 C   0  0  0  0  0  0  0  0  0  0  0  0
   35.7220   29.8420   48.5970 S   0  0  0  0  0  0  0  0  0  0  0  0
   37.0510   31.0130   48.4270 C   0  0  0  0  0  0  0  0  0  0  0  0
   37.0640   31.9540   49.4650 C   0  0  0  0  0  0  0  0  0  0  0  0
   38.0570   32.9350   49.4560 C   0  0  0  0  0  0  0  0  0  0  0  0
   38.9570   32.9140   48.4340 N   0  0  0  0  0  0  0  0  0  0  0  0
   38.9210   31.9960   47.4470 C   0  0  0  0  0  0  0  0  0  0  0  0
   37.9610   31.0600   47.4700 N   0  0  0  0  0  0  0  0  0  0  0  0
   32.9712   29.4718   48.7148 H   0  0  0  0  0  0  0  0  0  0  0  0
   34.1311   31.2272   47.4453 H   0  0  0  0  0  0  0  0  0  0  0  0
   35.1165   30.6985   45.4691 H   0  0  0  0  0  0  0  0  0  0  0  0
   35.7331   29.1250   46.1191 H   0  0  0  0  0  0  0  0  0  0  0  0
   32.8916   27.2883   45.5354 H   0  0  0  0  0  0  0  0  0  0  0  0
   34.6849   27.2818   45.7950 H   0  0  0  0  0  0  0  0  0  0  0  0
   34.4929   27.7752   47.9556 H   0  0  0  0  0  0  0  0  0  0  0  0
   32.4910   26.2542   46.1307 H   0  0  0  0  0  0  0  0  0  0  0  0
   31.4761   25.4823   47.4426 H   0  0  0  0  0  0  0  0  0  0  0  0
   31.0344   28.3039   46.4824 H   0  0  0  0  0  0  0  0  0  0  0  0
   30.2479   26.8774   45.7263 H   0  0  0  0  0  0  0  0  0  0  0  0
   29.1086   28.1877   47.8072 H   0  0  0  0  0  0  0  0  0  0  0  0
   28.9341   26.4344   47.6328 H   0  0  0  0  0  0  0  0  0  0  0  0
   29.9012   27.4891   49.9028 H   0  0  0  0  0  0  0  0  0  0  0  0
   30.6150   25.9793   49.2424 H   0  0  0  0  0  0  0  0  0  0  0  0
   32.2486   27.8263   49.9310 H   0  0  0  0  0  0  0  0  0  0  0  0
   31.6231   28.7321   48.4851 H   0  0  0  0  0  0  0  0  0  0  0  0
   36.3111   31.9206   50.2663 H   0  0  0  0  0  0  0  0  0  0  0  0
   38.1107   33.6981   50.2464 H   0  0  0  0  0  0  0  0  0  0  0  0
   39.6657   32.0146   46.6376 H   0  0  0  0  0  0  0  0  0  0  0  0
  2  1  1  0
  2 13  1  0
  3  2  1  0
  4  5  1  0
  4  3  1  0
  5  6  1  0
  6  1  1  0
  6  7  1  0
  7 12  1  0
  8  7  1  0
  9  8  1  0
  9 10  1  0
 10 11  1  0
 12 11  1  0
 14 13  1  0
 14 15  2  0
 16 15  1  0
 17 16  2  0
 18 19  2  0
 18 17  1  0
 19 14  1  0
  1 20  1  0
  2 21  1  6
  3 22  1  0
  3 23  1  0
  5 24  1  0
  5 25  1  0
  6 26  1  1
  8 27  1  0
  8 28  1  0
  9 29  1  0
  9 30  1  0
 10 31  1  0
 10 32  1  0
 11 33  1  0
 11 34  1  0
 12 35  1  0
 12 36  1  0
 15 37  1  0
 16 38  1  0
 18 39  1  0
M  ISO  8  20   5  21  13  22  13  23  13  24  13  25  13  26  13  27  13
M  ISO  8  28  13  29  13  30  13  31  13  32  13  33  13  34  13  35  13
M  ISO  4  36  13  37  14  38  14  39  14
M  END
>  <minimizedAffinity>  (1) 
-4.73230505

>  <minimizedRMSD>  (1) 
2.73401999

$$$$
