
     RDKit          3D

 27 28  0  0  1  0  0  0  0  0999 V2000
   33.7810   28.4170   49.0070 N   0  0  0  0  0  0  0  0  0  0  0  0
   34.5330   29.6560   49.1550 C   0  0  2  0  0  0  0  0  0  0  0  0
   34.4470   30.4280   47.8580 C   0  0  0  0  0  0  0  0  0  0  0  0
   33.3670   29.9720   47.0720 O   0  0  0  0  0  0  0  0  0  0  0  0
   33.7820   28.7040   46.6260 C   0  0  0  0  0  0  0  0  0  0  0  0
   34.1610   27.8050   47.7740 C   0  0  2  0  0  0  0  0  0  0  0  0
   33.3340   26.5290   47.6320 C   0  0  0  0  0  0  0  0  0  0  0  0
   32.2030   26.5550   48.4360 F   0  0  0  0  0  0  0  0  0  0  0  0
   32.8380   26.5580   46.3230 F   0  0  0  0  0  0  0  0  0  0  0  0
   34.0730   25.3920   47.7490 F   0  0  0  0  0  0  0  0  0  0  0  0
   36.2950   29.2720   49.4810 S   0  0  0  0  0  0  0  0  0  0  0  0
   37.3620   30.5680   48.8980 C   0  0  0  0  0  0  0  0  0  0  0  0
   37.4120   31.6710   49.7720 C   0  0  0  0  0  0  0  0  0  0  0  0
   38.2170   32.7430   49.4160 C   0  0  0  0  0  0  0  0  0  0  0  0
   38.9090   32.6650   48.2430 N   0  0  0  0  0  0  0  0  0  0  0  0
   38.8410   31.5900   47.4220 C   0  0  0  0  0  0  0  0  0  0  0  0
   38.0630   30.5490   47.7650 N   0  0  0  0  0  0  0  0  0  0  0  0
   33.9957   27.7838   49.7905 H   0  0  0  0  0  0  0  0  0  0  0  0
   34.1187   30.2419   49.9887 H   0  0  0  0  0  0  0  0  0  0  0  0
   34.3037   31.4952   48.0828 H   0  0  0  0  0  0  0  0  0  0  0  0
   35.3801   30.2761   47.2957 H   0  0  0  0  0  0  0  0  0  0  0  0
   32.9595   28.2371   46.0643 H   0  0  0  0  0  0  0  0  0  0  0  0
   34.6687   28.8383   45.9890 H   0  0  0  0  0  0  0  0  0  0  0  0
   35.2437   27.6110   47.7654 H   0  0  0  0  0  0  0  0  0  0  0  0
   36.8317   31.6821   50.7064 H   0  0  0  0  0  0  0  0  0  0  0  0
   38.2952   33.6306   50.0610 H   0  0  0  0  0  0  0  0  0  0  0  0
   39.4162   31.5691   46.4846 H   0  0  0  0  0  0  0  0  0  0  0  0
  1  2  1  0
  2 11  1  0
  3  2  1  0
  4  3  1  0
  5  4  1  0
  5  6  1  0
  6  1  1  0
  7 10  1  0
  7  6  1  0
  7  8  1  0
  9  7  1  0
 12 11  1  0
 12 13  2  0
 14 13  1  0
 15 14  2  0
 16 17  2  0
 16 15  1  0
 17 12  1  0
  1 18  1  0
  2 19  1  1
  3 20  1  0
  3 21  1  0
  5 22  1  0
  5 23  1  0
  6 24  1  1
 13 25  1  0
 14 26  1  0
 16 27  1  0
M  ISO  8  18   5  19  13  20  13  21  13  22  13  23  13  24  13  25  14
M  ISO  2  26  14  27  14
M  END
>  <minimizedAffinity>  (1) 
-4.56310987

>  <minimizedRMSD>  (1) 
1.43258429

$$$$
