
     RDKit          3D

 34 36  0  0  1  0  0  0  0  0999 V2000
   33.5420   29.5120   47.4360 N   0  0  0  0  0  0  0  0  0  0  0  0
   34.6410   30.4350   47.2350 C   0  0  2  0  0  0  0  0  0  0  0  0
   35.1170   30.3220   45.8050 C   0  0  0  0  0  0  0  0  0  0  0  0
   34.1480   29.6810   44.9970 O   0  0  0  0  0  0  0  0  0  0  0  0
   34.1620   28.3340   45.4350 C   0  0  0  0  0  0  0  0  0  0  0  0
   33.9280   28.2280   46.9320 C   0  0  2  0  0  0  0  0  0  0  0  0
   31.2360   29.0160   46.4720 F   0  0  0  0  0  0  0  0  0  0  0  0
   31.5010   27.7500   46.8720 C   0  0  0  0  0  0  0  0  0  0  0  0
   32.7730   27.3070   47.1110 C   0  0  0  0  0  0  0  0  0  0  0  0
   32.9650   25.9880   47.5210 C   0  0  0  0  0  0  0  0  0  0  0  0
   31.8850   25.1440   47.6830 C   0  0  0  0  0  0  0  0  0  0  0  0
   30.5850   25.6000   47.4380 C   0  0  0  0  0  0  0  0  0  0  0  0
   30.4210   26.9140   47.0320 C   0  0  0  0  0  0  0  0  0  0  0  0
   36.0160   30.0390   48.3550 S   0  0  0  0  0  0  0  0  0  0  0  0
   37.2710   31.2830   48.3160 C   0  0  0  0  0  0  0  0  0  0  0  0
   37.2760   32.0980   49.4540 C   0  0  0  0  0  0  0  0  0  0  0  0
   38.2140   33.1210   49.5550 C   0  0  0  0  0  0  0  0  0  0  0  0
   39.0970   33.2770   48.5160 N   0  0  0  0  0  0  0  0  0  0  0  0
   39.0720   32.4850   47.4390 C   0  0  0  0  0  0  0  0  0  0  0  0
   38.1690   31.5050   47.3490 N   0  0  0  0  0  0  0  0  0  0  0  0
   33.3278   29.4406   48.4409 H   0  0  0  0  0  0  0  0  0  0  0  0
   34.2962   31.4582   47.4453 H   0  0  0  0  0  0  0  0  0  0  0  0
   35.3062   31.3303   45.4081 H   0  0  0  0  0  0  0  0  0  0  0  0
   36.0389   29.7222   45.7889 H   0  0  0  0  0  0  0  0  0  0  0  0
   33.3697   27.7802   44.9102 H   0  0  0  0  0  0  0  0  0  0  0  0
   35.1526   27.9109   45.2118 H   0  0  0  0  0  0  0  0  0  0  0  0
   34.8312   27.8762   47.4521 H   0  0  0  0  0  0  0  0  0  0  0  0
   33.9824   25.6183   47.7163 H   0  0  0  0  0  0  0  0  0  0  0  0
   32.0474   24.1054   48.0070 H   0  0  0  0  0  0  0  0  0  0  0  0
   29.7185   24.9342   47.5642 H   0  0  0  0  0  0  0  0  0  0  0  0
   29.4085   27.2957   46.8340 H   0  0  0  0  0  0  0  0  0  0  0  0
   36.5462   31.9316   50.2600 H   0  0  0  0  0  0  0  0  0  0  0  0
   38.2465   33.7802   50.4350 H   0  0  0  0  0  0  0  0  0  0  0  0
   39.7962   32.6408   46.6259 H   0  0  0  0  0  0  0  0  0  0  0  0
  2  1  1  0
  2 14  1  0
  3  2  1  0
  4  5  1  0
  4  3  1  0
  5  6  1  0
  6  9  1  0
  6  1  1  0
  7  8  1  0
  8 13  2  0
  8  9  1  0
  9 10  2  0
 10 11  1  0
 12 11  2  0
 13 12  1  0
 15 14  1  0
 15 16  2  0
 16 17  1  0
 18 17  2  0
 19 18  1  0
 20 19  2  0
 20 15  1  0
  1 21  1  0
  2 22  1  1
  3 23  1  0
  3 24  1  0
  5 25  1  0
  5 26  1  0
  6 27  1  1
 10 28  1  0
 11 29  1  0
 12 30  1  0
 13 31  1  0
 16 32  1  0
 17 33  1  0
 19 34  1  0
M  ISO  8  21   5  22  13  23  13  24  13  25  13  26  13  27  13  28  14
M  ISO  6  29  14  30  14  31  14  32  14  33  14  34  14
M  END
>  <minimizedAffinity>  (1) 
-4.0658555

>  <minimizedRMSD>  (1) 
2.32136226

$$$$
