
     RDKit          3D

 25 26  0  0  1  0  0  0  0  0999 V2000
   33.5950   28.7110   49.0330 N   0  0  0  0  0  0  0  0  0  0  0  0
   34.4410   29.8790   48.9290 C   0  0  2  0  0  0  0  0  0  0  0  0
   34.3720   30.3850   47.5090 C   0  0  0  0  0  0  0  0  0  0  0  0
   33.2460   29.8600   46.8360 O   0  0  0  0  0  0  0  0  0  0  0  0
   33.5440   28.5000   46.6620 C   0  0  0  0  0  0  0  0  0  0  0  0
   33.9250   27.8190   47.9500 C   0  0  2  0  0  0  0  0  0  0  0  0
   33.1740   26.6350   48.1190 O   0  0  0  0  0  0  0  0  0  0  0  0
   36.1830   29.4430   49.3160 S   0  0  0  0  0  0  0  0  0  0  0  0
   37.2890   30.7390   48.8140 C   0  0  0  0  0  0  0  0  0  0  0  0
   37.2180   31.8630   49.6570 C   0  0  0  0  0  0  0  0  0  0  0  0
   38.0400   32.9530   49.3690 C   0  0  0  0  0  0  0  0  0  0  0  0
   38.8710   32.8590   48.2730 N   0  0  0  0  0  0  0  0  0  0  0  0
   38.9080   31.7700   47.4940 C   0  0  0  0  0  0  0  0  0  0  0  0
   38.1200   30.7230   47.7700 N   0  0  0  0  0  0  0  0  0  0  0  0
   33.7590   28.2407   49.9346 H   0  0  0  0  0  0  0  0  0  0  0  0
   34.0982   30.6453   49.6398 H   0  0  0  0  0  0  0  0  0  0  0  0
   34.3033   31.4828   47.5217 H   0  0  0  0  0  0  0  0  0  0  0  0
   35.2791   30.0605   46.9780 H   0  0  0  0  0  0  0  0  0  0  0  0
   32.6590   27.9963   46.2460 H   0  0  0  0  0  0  0  0  0  0  0  0
   34.4069   28.4332   45.9830 H   0  0  0  0  0  0  0  0  0  0  0  0
   34.9970   27.5729   47.9333 H   0  0  0  0  0  0  0  0  0  0  0  0
   33.0583   26.4527   49.0852 H   0  0  0  0  0  0  0  0  0  0  0  0
   36.5341   31.8820   50.5184 H   0  0  0  0  0  0  0  0  0  0  0  0
   38.0255   33.8571   49.9955 H   0  0  0  0  0  0  0  0  0  0  0  0
   39.5853   31.7357   46.6280 H   0  0  0  0  0  0  0  0  0  0  0  0
  2  1  1  0
  2  8  1  0
  3  2  1  0
  4  3  1  0
  5  4  1  0
  5  6  1  0
  6  7  1  0
  6  1  1  0
  9  8  1  0
  9 10  2  0
 11 10  1  0
 12 11  2  0
 13 14  2  0
 13 12  1  0
 14  9  1  0
  1 15  1  0
  2 16  1  1
  3 17  1  0
  3 18  1  0
  5 19  1  0
  5 20  1  0
  6 21  1  6
  7 22  1  0
 10 23  1  0
 11 24  1  0
 13 25  1  0
M  ISO  8  15   5  16  13  17  13  18  13  19  13  20  13  21  13  22   3
M  ISO  3  23  14  24  14  25  14
M  END
>  <minimizedAffinity>  (1) 
-4.25712156

>  <minimizedRMSD>  (1) 
0.799136996

$$$$
