
     RDKit          3D

 45 48  0  0  1  0  0  0  0  0999 V2000
   37.1240   31.0160   45.7200 C   0  0  2  0  0  0  0  0  0  0  0  0
   37.6720   30.6020   44.3970 C   0  0  0  0  0  0  0  0  0  0  0  0
   38.9120   29.7350   44.5560 C   0  0  0  0  0  0  0  0  0  0  0  0
   39.9940   30.4650   45.3230 C   0  0  0  0  0  0  0  0  0  0  0  0
   39.4840   31.2390   46.5110 C   0  0  0  0  0  0  0  0  0  0  0  0
   38.0750   30.8160   46.8780 C   0  0  1  0  0  0  0  0  0  0  0  0
   37.6130   31.5750   47.9970 N   0  0  0  0  0  0  0  0  0  0  0  0
   38.1680   32.8650   48.1890 C   0  0  0  0  0  0  0  0  0  0  0  0
   37.6910   33.2130   49.6110 C   0  0  0  0  0  0  0  0  0  0  0  0
   37.1740   31.9240   50.1920 C   0  0  0  0  0  0  0  0  0  0  0  0
   37.8690   30.9400   49.2550 C   0  0  1  0  0  0  0  0  0  0  0  0
   37.3380   29.5500   49.3880 C   0  0  0  0  0  0  0  0  0  0  0  0
   36.2390   29.2740   50.4050 C   0  0  0  0  0  0  0  0  0  0  0  0
   37.6320   28.9220   50.7690 C   0  0  0  0  0  0  0  0  0  0  0  0
   35.8520   30.3440   46.0550 C   0  0  0  0  0  0  0  0  0  0  0  0
   35.3670   29.4650   45.0860 C   0  0  0  0  0  0  0  0  0  0  0  0
   34.1560   28.8120   45.3530 C   0  0  0  0  0  0  0  0  0  0  0  0
   33.5200   29.0710   46.5490 N   0  0  0  0  0  0  0  0  0  0  0  0
   34.0500   29.9500   47.4700 C   0  0  0  0  0  0  0  0  0  0  0  0
   35.2140   30.5780   47.2090 N   0  0  0  0  0  0  0  0  0  0  0  0
   36.9549   32.0950   45.5887 H   0  0  0  0  0  0  0  0  0  0  0  0
   37.9358   31.5016   43.8216 H   0  0  0  0  0  0  0  0  0  0  0  0
   36.9039   30.0144   43.8728 H   0  0  0  0  0  0  0  0  0  0  0  0
   38.6418   28.8184   45.1008 H   0  0  0  0  0  0  0  0  0  0  0  0
   39.2978   29.4910   43.5552 H   0  0  0  0  0  0  0  0  0  0  0  0
   40.7251   29.7246   45.6799 H   0  0  0  0  0  0  0  0  0  0  0  0
   40.4372   31.1968   44.6315 H   0  0  0  0  0  0  0  0  0  0  0  0
   40.1479   31.0577   47.3691 H   0  0  0  0  0  0  0  0  0  0  0  0
   39.4698   32.3075   46.2502 H   0  0  0  0  0  0  0  0  0  0  0  0
   38.1012   29.7464   47.1333 H   0  0  0  0  0  0  0  0  0  0  0  0
   39.2662   32.8398   48.1312 H   0  0  0  0  0  0  0  0  0  0  0  0
   37.8606   33.5969   47.4275 H   0  0  0  0  0  0  0  0  0  0  0  0
   38.5275   33.5973   50.2132 H   0  0  0  0  0  0  0  0  0  0  0  0
   36.9165   33.9940   49.6005 H   0  0  0  0  0  0  0  0  0  0  0  0
   37.4874   31.7885   51.2377 H   0  0  0  0  0  0  0  0  0  0  0  0
   36.0788   31.8347   50.2418 H   0  0  0  0  0  0  0  0  0  0  0  0
   38.9390   30.7695   49.4446 H   0  0  0  0  0  0  0  0  0  0  0  0
   37.4653   29.3023   48.3238 H   0  0  0  0  0  0  0  0  0  0  0  0
   35.7400   30.1146   50.9094 H   0  0  0  0  0  0  0  0  0  0  0  0
   35.2903   28.7180   50.3766 H   0  0  0  0  0  0  0  0  0  0  0  0
   37.9309   27.8657   50.8394 H   0  0  0  0  0  0  0  0  0  0  0  0
   38.3008   29.1685   51.6068 H   0  0  0  0  0  0  0  0  0  0  0  0
   35.9145   29.2911   44.1479 H   0  0  0  0  0  0  0  0  0  0  0  0
   33.7230   28.1094   44.6257 H   0  0  0  0  0  0  0  0  0  0  0  0
   33.5233   30.1386   48.4171 H   0  0  0  0  0  0  0  0  0  0  0  0
  1 15  1  0
  1  6  1  0
  2  3  1  0
  2  1  1  0
  3  4  1  0
  4  5  1  0
  5  6  1  0
  6  7  1  0
  7  8  1  0
  7 11  1  0
  8  9  1  0
  9 10  1  0
 11 12  1  0
 11 10  1  0
 12 13  1  0
 12 14  1  0
 13 14  1  0
 15 20  2  0
 16 17  2  0
 16 15  1  0
 17 18  1  0
 18 19  2  0
 20 19  1  0
  1 21  1  6
  2 22  1  0
  2 23  1  0
  3 24  1  0
  3 25  1  0
  4 26  1  0
  4 27  1  0
  5 28  1  0
  5 29  1  0
  6 30  1  1
  8 31  1  0
  8 32  1  0
  9 33  1  0
  9 34  1  0
 10 35  1  0
 10 36  1  0
 11 37  1  1
 12 38  1  0
 13 39  1  0
 13 40  1  0
 14 41  1  0
 14 42  1  0
 16 43  1  0
 17 44  1  0
 19 45  1  0
M  ISO  8  21  13  22  13  23  13  24  13  25  13  26  13  27  13  28  13
M  ISO  8  29  13  30  13  31  13  32  13  33  13  34  13  35  13  36  13
M  ISO  8  37  13  38  13  39  13  40  13  41  13  42  13  43  14  44  14
M  ISO  1  45  14
M  END
>  <minimizedAffinity>  (1) 
-5.24073744

>  <minimizedRMSD>  (1) 
1.02653694

$$$$
