
     RDKit          3D

 41 44  0  0  1  0  0  0  0  0999 V2000
   37.2740   30.4650   49.1370 C   0  0  0  0  0  0  0  0  0  0  0  0
   37.4720   31.5450   49.9900 C   0  0  0  0  0  0  0  0  0  0  0  0
   38.2620   32.5790   49.5090 C   0  0  0  0  0  0  0  0  0  0  0  0
   38.7860   32.4750   48.2570 N   0  0  0  0  0  0  0  0  0  0  0  0
   38.5920   31.4490   47.4550 C   0  0  0  0  0  0  0  0  0  0  0  0
   37.8330   30.4770   47.9420 N   0  0  0  0  0  0  0  0  0  0  0  0
   39.0650   31.1750   46.1110 C   0  0  0  0  0  0  0  0  0  0  0  0
   40.3960   31.2860   45.7650 C   0  0  0  0  0  0  0  0  0  0  0  0
   40.9060   31.0400   44.5110 C   0  0  0  0  0  0  0  0  0  0  0  0
   40.0600   30.6510   43.4980 C   0  0  0  0  0  0  0  0  0  0  0  0
   38.7220   30.5200   43.7790 C   0  0  0  0  0  0  0  0  0  0  0  0
   37.8970   30.1280   42.7470 C   0  0  0  0  0  0  0  0  0  0  0  0
   36.5430   29.9770   42.9600 C   0  0  0  0  0  0  0  0  0  0  0  0
   36.0680   30.2380   44.2500 C   0  0  0  0  0  0  0  0  0  0  0  0
   36.9360   30.6240   45.2360 C   0  0  0  0  0  0  0  0  0  0  0  0
   38.2850   30.7820   45.0500 C   0  0  0  0  0  0  0  0  0  0  0  0
   36.2580   29.1570   49.8050 S   0  0  0  0  0  0  0  0  0  0  0  0
   33.8000   28.2160   49.1950 N   0  0  0  0  0  0  0  0  0  0  0  0
   34.4840   29.4680   49.3990 C   0  0  2  0  0  0  0  0  0  0  0  0
   34.4250   30.2610   48.1040 C   0  0  0  0  0  0  0  0  0  0  0  0
   33.4120   29.7520   47.2650 O   0  0  0  0  0  0  0  0  0  0  0  0
   33.9030   28.4980   46.8340 C   0  0  0  0  0  0  0  0  0  0  0  0
   34.2990   27.6150   47.9830 C   0  0  2  0  0  0  0  0  0  0  0  0
   33.7010   26.3440   47.8450 O   0  0  0  0  0  0  0  0  0  0  0  0
   37.0252   31.5779   50.9946 H   0  0  0  0  0  0  0  0  0  0  0  0
   38.4612   33.4663   50.1278 H   0  0  0  0  0  0  0  0  0  0  0  0
   41.1021   31.5941   46.5502 H   0  0  0  0  0  0  0  0  0  0  0  0
   41.9832   31.1536   44.3195 H   0  0  0  0  0  0  0  0  0  0  0  0
   40.4459   30.4498   42.4877 H   0  0  0  0  0  0  0  0  0  0  0  0
   38.3200   29.9349   41.7501 H   0  0  0  0  0  0  0  0  0  0  0  0
   35.8659   29.6650   42.1512 H   0  0  0  0  0  0  0  0  0  0  0  0
   34.9958   30.1329   44.4723 H   0  0  0  0  0  0  0  0  0  0  0  0
   36.5262   30.8191   46.2380 H   0  0  0  0  0  0  0  0  0  0  0  0
   33.9776   27.5889   49.9926 H   0  0  0  0  0  0  0  0  0  0  0  0
   34.0070   30.0174   50.2240 H   0  0  0  0  0  0  0  0  0  0  0  0
   34.2108   31.3153   48.3333 H   0  0  0  0  0  0  0  0  0  0  0  0
   35.3930   30.1772   47.5882 H   0  0  0  0  0  0  0  0  0  0  0  0
   33.1182   27.9916   46.2529 H   0  0  0  0  0  0  0  0  0  0  0  0
   34.8005   28.6796   46.2244 H   0  0  0  0  0  0  0  0  0  0  0  0
   35.3932   27.5048   48.0064 H   0  0  0  0  0  0  0  0  0  0  0  0
   33.5223   25.9643   48.7416 H   0  0  0  0  0  0  0  0  0  0  0  0
  1 17  1  0
  1  2  2  0
  3  2  1  0
  4  3  2  0
  5  6  2  0
  5  4  1  0
  6  1  1  0
  7  5  1  0
  8  7  2  0
  9  8  1  0
 10 11  1  0
 10  9  2  0
 11 16  2  0
 12 13  2  0
 12 11  1  0
 13 14  1  0
 14 15  2  0
 16 15  1  0
 16  7  1  0
 18 19  1  0
 19 17  1  0
 20 19  1  0
 21 20  1  0
 22 21  1  0
 22 23  1  0
 23 18  1  0
 24 23  1  0
  2 25  1  0
  3 26  1  0
  8 27  1  0
  9 28  1  0
 10 29  1  0
 12 30  1  0
 13 31  1  0
 14 32  1  0
 15 33  1  0
 18 34  1  0
 19 35  1  1
 20 36  1  0
 20 37  1  0
 22 38  1  0
 22 39  1  0
 23 40  1  1
 24 41  1  0
M  ISO  8  25  14  26  14  27  14  28  14  29  14  30  14  31  14  32  14
M  ISO  8  33  14  34   5  35  13  36  13  37  13  38  13  39  13  40  13
M  ISO  1  41   3
M  END
>  <minimizedAffinity>  (1) 
-6.37968111

>  <minimizedRMSD>  (1) 
0.904978573

$$$$
