
     RDKit          3D

 34 36  0  0  1  0  0  0  0  0999 V2000
   36.2950   29.1800   49.6090 S   0  0  0  0  0  0  0  0  0  0  0  0
   33.7970   28.2680   49.1370 N   0  0  0  0  0  0  0  0  0  0  0  0
   34.5130   29.5080   49.2710 C   0  0  2  0  0  0  0  0  0  0  0  0
   34.4070   30.2580   47.9750 C   0  0  0  0  0  0  0  0  0  0  0  0
   33.3360   29.7670   47.1960 O   0  0  0  0  0  0  0  0  0  0  0  0
   33.7850   28.5000   46.7730 C   0  0  0  0  0  0  0  0  0  0  0  0
   34.2140   27.6300   47.9170 C   0  0  2  0  0  0  0  0  0  0  0  0
   33.5860   26.3640   47.8420 O   0  0  0  0  0  0  0  0  0  0  0  0
   37.3140   30.5020   49.0130 C   0  0  0  0  0  0  0  0  0  0  0  0
   37.6020   31.4410   50.0060 C   0  0  0  0  0  0  0  0  0  0  0  0
   38.4040   32.5390   49.6550 C   0  0  0  0  0  0  0  0  0  0  0  0
   38.8500   32.6180   48.3630 N   0  0  0  0  0  0  0  0  0  0  0  0
   38.5510   31.6980   47.4390 C   0  0  0  0  0  0  0  0  0  0  0  0
   37.7890   30.6520   47.7700 N   0  0  0  0  0  0  0  0  0  0  0  0
   39.0510   31.8260   46.0730 C   0  0  0  0  0  0  0  0  0  0  0  0
   40.2390   31.1840   45.7240 C   0  0  0  0  0  0  0  0  0  0  0  0
   40.7630   31.2730   44.4310 C   0  0  0  0  0  0  0  0  0  0  0  0
   40.0130   32.0340   43.5580 C   0  0  0  0  0  0  0  0  0  0  0  0
   38.8370   32.6750   43.8830 C   0  0  0  0  0  0  0  0  0  0  0  0
   38.3580   32.5650   45.1580 N   0  0  0  0  0  0  0  0  0  0  0  0
   34.0080   27.6566   49.9386 H   0  0  0  0  0  0  0  0  0  0  0  0
   34.0851   30.0887   50.1015 H   0  0  0  0  0  0  0  0  0  0  0  0
   34.2385   31.3239   48.1882 H   0  0  0  0  0  0  0  0  0  0  0  0
   35.3425   30.1225   47.4124 H   0  0  0  0  0  0  0  0  0  0  0  0
   32.9673   27.9976   46.2354 H   0  0  0  0  0  0  0  0  0  0  0  0
   34.6604   28.6553   46.1253 H   0  0  0  0  0  0  0  0  0  0  0  0
   35.3048   27.4920   47.8824 H   0  0  0  0  0  0  0  0  0  0  0  0
   33.4176   26.0245   48.7566 H   0  0  0  0  0  0  0  0  0  0  0  0
   37.2137   31.3244   51.0286 H   0  0  0  0  0  0  0  0  0  0  0  0
   38.6654   33.3106   50.3941 H   0  0  0  0  0  0  0  0  0  0  0  0
   40.7752   30.5949   46.4826 H   0  0  0  0  0  0  0  0  0  0  0  0
   41.6982   30.7762   44.1335 H   0  0  0  0  0  0  0  0  0  0  0  0
   40.3808   32.1367   42.5264 H   0  0  0  0  0  0  0  0  0  0  0  0
   38.2938   33.2645   43.1297 H   0  0  0  0  0  0  0  0  0  0  0  0
  2  3  1  0
  3  1  1  0
  4  3  1  0
  5  4  1  0
  6  5  1  0
  6  7  1  0
  7  2  1  0
  8  7  1  0
  9  1  1  0
  9 10  2  0
 11 10  1  0
 12 11  2  0
 13 14  2  0
 13 12  1  0
 14  9  1  0
 15 13  1  0
 16 15  2  0
 17 16  1  0
 18 19  1  0
 18 17  2  0
 19 20  2  0
 20 15  1  0
  2 21  1  0
  3 22  1  1
  4 23  1  0
  4 24  1  0
  6 25  1  0
  6 26  1  0
  7 27  1  1
  8 28  1  0
 10 29  1  0
 11 30  1  0
 16 31  1  0
 17 32  1  0
 18 33  1  0
 19 34  1  0
M  ISO  8  21   5  22  13  23  13  24  13  25  13  26  13  27  13  28   3
M  ISO  6  29  14  30  14  31  14  32  14  33  14  34  14
M  END
>  <minimizedAffinity>  (1) 
-5.87471914

>  <minimizedRMSD>  (1) 
0.822532892

$$$$
