
     RDKit          3D

 27 28  0  0  1  0  0  0  0  0999 V2000
   33.5340   28.6190   49.1240 N   0  0  0  0  0  0  0  0  0  0  0  0
   34.3240   29.8320   49.1200 C   0  0  2  0  0  0  0  0  0  0  0  0
   34.3720   30.3630   47.7110 C   0  0  0  0  0  0  0  0  0  0  0  0
   33.3220   29.8170   46.9390 O   0  0  0  0  0  0  0  0  0  0  0  0
   33.6960   28.4780   46.7470 C   0  0  0  0  0  0  0  0  0  0  0  0
   33.9740   27.7720   48.0460 C   0  0  2  0  0  0  0  0  0  0  0  0
   33.2630   26.5630   48.1160 O   0  0  0  0  0  0  0  0  0  0  0  0
   36.0310   29.4450   49.6600 S   0  0  0  0  0  0  0  0  0  0  0  0
   37.1710   30.6690   49.0690 C   0  0  0  0  0  0  0  0  0  0  0  0
   37.1160   31.8770   49.7740 C   0  0  0  0  0  0  0  0  0  0  0  0
   37.9590   32.9110   49.4050 C   0  0  0  0  0  0  0  0  0  0  0  0
   38.8090   32.6860   48.3550 N   0  0  0  0  0  0  0  0  0  0  0  0
   38.8490   31.5310   47.6960 C   0  0  0  0  0  0  0  0  0  0  0  0
   38.0380   30.5350   48.0500 N   0  0  0  0  0  0  0  0  0  0  0  0
   39.7020   31.2430   46.6100 N   0  0  0  0  0  0  0  0  0  0  0  0
   33.6577   28.1288   50.0214 H   0  0  0  0  0  0  0  0  0  0  0  0
   33.8788   30.5740   49.7991 H   0  0  0  0  0  0  0  0  0  0  0  0
   34.2726   31.4583   47.7336 H   0  0  0  0  0  0  0  0  0  0  0  0
   35.3323   30.0780   47.2565 H   0  0  0  0  0  0  0  0  0  0  0  0
   32.8807   27.9539   46.2268 H   0  0  0  0  0  0  0  0  0  0  0  0
   34.6221   28.4686   46.1535 H   0  0  0  0  0  0  0  0  0  0  0  0
   35.0510   27.5595   48.1162 H   0  0  0  0  0  0  0  0  0  0  0  0
   33.1195   26.3190   49.0647 H   0  0  0  0  0  0  0  0  0  0  0  0
   36.4123   32.0029   50.6100 H   0  0  0  0  0  0  0  0  0  0  0  0
   37.9467   33.8753   49.9342 H   0  0  0  0  0  0  0  0  0  0  0  0
   40.3621   31.9569   46.2702 H   0  0  0  0  0  0  0  0  0  0  0  0
   39.6647   30.3188   46.1569 H   0  0  0  0  0  0  0  0  0  0  0  0
  2  1  1  0
  2  8  1  0
  3  2  1  0
  4  3  1  0
  5  4  1  0
  5  6  1  0
  6  7  1  0
  6  1  1  0
  9  8  1  0
  9 10  2  0
 11 10  1  0
 12 11  2  0
 13 14  2  0
 13 12  1  0
 14  9  1  0
 15 13  1  0
  1 16  1  0
  2 17  1  1
  3 18  1  0
  3 19  1  0
  5 20  1  0
  5 21  1  0
  6 22  1  1
  7 23  1  0
 10 24  1  0
 11 25  1  0
 15 26  1  0
 15 27  1  0
M  ISO  8  16   5  17  13  18  13  19  13  20  13  21  13  22  13  23   3
M  ISO  2  24  14  25  14
M  END
>  <minimizedAffinity>  (1) 
-4.72416067

>  <minimizedRMSD>  (1) 
0.243692353

$$$$
