
     RDKit          3D

 32 34  0  0  0  0  0  0  0  0999 V2000
   36.2580   30.4970   46.8220 C   0  0  0  0  0  0  0  0  0  0  0  0
   36.6620   30.4170   45.4750 C   0  0  0  0  0  0  0  0  0  0  0  0
   35.7780   29.8200   44.5620 C   0  0  0  0  0  0  0  0  0  0  0  0
   34.5710   29.3430   45.0070 N   0  0  0  0  0  0  0  0  0  0  0  0
   34.2400   29.4530   46.3330 C   0  0  0  0  0  0  0  0  0  0  0  0
   35.0730   30.0200   47.2150 N   0  0  0  0  0  0  0  0  0  0  0  0
   34.4600   27.8560   49.0250 Br  0  0  0  0  0  0  0  0  0  0  0  0
   32.8970   28.2160   48.0030 C   0  0  0  0  0  0  0  0  0  0  0  0
   32.9570   28.9450   46.8150 C   0  0  0  0  0  0  0  0  0  0  0  0
   31.7810   29.1490   46.1470 C   0  0  0  0  0  0  0  0  0  0  0  0
   30.5490   28.6880   46.5630 C   0  0  0  0  0  0  0  0  0  0  0  0
   30.5200   27.9730   47.7340 C   0  0  0  0  0  0  0  0  0  0  0  0
   31.6950   27.7390   48.4530 C   0  0  0  0  0  0  0  0  0  0  0  0
   37.9440   32.1680   47.4650 C   0  0  0  0  0  0  0  0  0  0  0  0
   37.1350   31.1060   47.8100 C   0  0  0  0  0  0  0  0  0  0  0  0
   37.2540   30.7190   49.1250 C   0  0  0  0  0  0  0  0  0  0  0  0
   38.1060   31.3380   50.0170 C   0  0  0  0  0  0  0  0  0  0  0  0
   38.8870   32.3960   49.6010 C   0  0  0  0  0  0  0  0  0  0  0  0
   38.8070   32.8250   48.2930 C   0  0  0  0  0  0  0  0  0  0  0  0
   37.8990   32.6380   46.1520 O   0  0  0  0  0  0  0  0  0  0  0  0
   39.5880   33.8910   47.8550 O   0  0  0  0  0  0  0  0  0  0  0  0
   37.6369   30.8089   45.1494 H   0  0  0  0  0  0  0  0  0  0  0  0
   36.0507   29.7355   43.4997 H   0  0  0  0  0  0  0  0  0  0  0  0
   31.8204   29.7227   45.2093 H   0  0  0  0  0  0  0  0  0  0  0  0
   29.6344   28.8840   45.9842 H   0  0  0  0  0  0  0  0  0  0  0  0
   29.5635   27.5807   48.1098 H   0  0  0  0  0  0  0  0  0  0  0  0
   31.6539   27.1654   49.3907 H   0  0  0  0  0  0  0  0  0  0  0  0
   36.6419   29.8775   49.4818 H   0  0  0  0  0  0  0  0  0  0  0  0
   38.1621   30.9880   51.0583 H   0  0  0  0  0  0  0  0  0  0  0  0
   39.5682   32.8935   50.3070 H   0  0  0  0  0  0  0  0  0  0  0  0
   38.4700   33.3993   45.8789 H   0  0  0  0  0  0  0  0  0  0  0  0
   40.2037   34.3447   48.4836 H   0  0  0  0  0  0  0  0  0  0  0  0
  1  6  1  0
  1 15  1  0
  2  1  2  0
  3  4  2  0
  3  2  1  0
  4  5  1  0
  5  9  1  0
  5  6  2  0
  8 13  2  0
  8  7  1  0
  9  8  1  0
 10 11  1  0
 10  9  2  0
 11 12  2  0
 12 13  1  0
 14 15  2  0
 14 19  1  0
 15 16  1  0
 16 17  2  0
 18 17  1  0
 19 18  2  0
 20 14  1  0
 21 19  1  0
  2 22  1  0
  3 23  1  0
 10 24  1  0
 11 25  1  0
 12 26  1  0
 13 27  1  0
 16 28  1  0
 17 29  1  0
 18 30  1  0
 20 31  1  0
 21 32  1  0
M  ISO  8  22  14  23  14  24  14  25  14  26  14  27  14  28  14  29  14
M  ISO  3  30  14  31   3  32   3
M  END
>  <minimizedAffinity>  (1) 
-6.25473547

>  <minimizedRMSD>  (1) 
4.30367804

$$$$
