
     RDKit          3D

 39 41  0  0  1  0  0  0  0  0999 V2000
   37.0520   30.9840   45.6510 C   0  0  2  0  0  0  0  0  0  0  0  0
   37.6000   30.6920   44.2960 C   0  0  0  0  0  0  0  0  0  0  0  0
   38.8620   29.8450   44.3840 C   0  0  0  0  0  0  0  0  0  0  0  0
   39.9300   30.5570   45.1940 C   0  0  0  0  0  0  0  0  0  0  0  0
   39.4140   31.1800   46.4560 C   0  0  0  0  0  0  0  0  0  0  0  0
   38.0100   30.7050   46.7900 C   0  0  1  0  0  0  0  0  0  0  0  0
   37.5360   31.3670   47.9610 N   0  0  0  0  0  0  0  0  0  0  0  0
   38.0860   32.6410   48.2720 C   0  0  0  0  0  0  0  0  0  0  0  0
   37.5750   32.8670   49.7060 C   0  0  0  0  0  0  0  0  0  0  0  0
   37.0780   31.5320   50.1790 C   0  0  0  0  0  0  0  0  0  0  0  0
   37.7820   30.6230   49.1650 C   0  0  1  0  0  0  0  0  0  0  0  0
   37.1120   29.4050   49.1130 O   0  0  0  0  0  0  0  0  0  0  0  0
   35.7940   30.2610   45.9320 C   0  0  0  0  0  0  0  0  0  0  0  0
   35.2930   29.4960   44.8780 C   0  0  0  0  0  0  0  0  0  0  0  0
   34.0970   28.8000   45.0900 C   0  0  0  0  0  0  0  0  0  0  0  0
   33.4870   28.9070   46.3230 N   0  0  0  0  0  0  0  0  0  0  0  0
   34.0290   29.6770   47.3280 C   0  0  0  0  0  0  0  0  0  0  0  0
   35.1810   30.3470   47.1210 N   0  0  0  0  0  0  0  0  0  0  0  0
   36.8662   32.0674   45.6096 H   0  0  0  0  0  0  0  0  0  0  0  0
   37.8389   31.6408   43.7933 H   0  0  0  0  0  0  0  0  0  0  0  0
   36.8432   30.1319   43.7272 H   0  0  0  0  0  0  0  0  0  0  0  0
   38.6209   28.8868   44.8674 H   0  0  0  0  0  0  0  0  0  0  0  0
   39.2447   29.6735   43.3671 H   0  0  0  0  0  0  0  0  0  0  0  0
   40.7084   29.8268   45.4603 H   0  0  0  0  0  0  0  0  0  0  0  0
   40.3175   31.3738   44.5674 H   0  0  0  0  0  0  0  0  0  0  0  0
   40.0862   30.9132   47.2848 H   0  0  0  0  0  0  0  0  0  0  0  0
   39.3790   32.2695   46.3085 H   0  0  0  0  0  0  0  0  0  0  0  0
   38.0562   29.6193   46.9606 H   0  0  0  0  0  0  0  0  0  0  0  0
   39.1853   32.6212   48.2376 H   0  0  0  0  0  0  0  0  0  0  0  0
   37.7959   33.4340   47.5670 H   0  0  0  0  0  0  0  0  0  0  0  0
   38.3914   33.2224   50.3519 H   0  0  0  0  0  0  0  0  0  0  0  0
   36.7817   33.6283   49.7375 H   0  0  0  0  0  0  0  0  0  0  0  0
   37.3953   31.3185   51.2104 H   0  0  0  0  0  0  0  0  0  0  0  0
   35.9836   31.4282   50.2185 H   0  0  0  0  0  0  0  0  0  0  0  0
   38.8396   30.3992   49.3686 H   0  0  0  0  0  0  0  0  0  0  0  0
   36.9362   29.0855   50.0334 H   0  0  0  0  0  0  0  0  0  0  0  0
   35.8197   29.4417   43.9138 H   0  0  0  0  0  0  0  0  0  0  0  0
   33.6547   28.1834   44.2937 H   0  0  0  0  0  0  0  0  0  0  0  0
   33.5213   29.7457   48.3014 H   0  0  0  0  0  0  0  0  0  0  0  0
  1 13  1  0
  1  6  1  0
  2  3  1  0
  2  1  1  0
  3  4  1  0
  4  5  1  0
  5  6  1  0
  6  7  1  0
  7  8  1  0
  7 11  1  0
  8  9  1  0
  9 10  1  0
 11 10  1  0
 12 11  1  0
 13 18  2  0
 14 15  2  0
 14 13  1  0
 15 16  1  0
 16 17  2  0
 18 17  1  0
  1 19  1  6
  2 20  1  0
  2 21  1  0
  3 22  1  0
  3 23  1  0
  4 24  1  0
  4 25  1  0
  5 26  1  0
  5 27  1  0
  6 28  1  1
  8 29  1  0
  8 30  1  0
  9 31  1  0
  9 32  1  0
 10 33  1  0
 10 34  1  0
 11 35  1  1
 12 36  1  0
 14 37  1  0
 15 38  1  0
 17 39  1  0
M  ISO  8  19  13  20  13  21  13  22  13  23  13  24  13  25  13  26  13
M  ISO  8  27  13  28  13  29  13  30  13  31  13  32  13  33  13  34  13
M  ISO  5  35  13  36   3  37  14  38  14  39  14
M  END
>  <minimizedAffinity>  (1) 
-4.94234371

>  <minimizedRMSD>  (1) 
0.408666283

$$$$
