
     RDKit          3D

 30 32  0  0  0  0  0  0  0  0999 V2000
   37.6610   31.7260   46.9070 C   0  0  0  0  0  0  0  0  0  0  0  0
   37.9430   31.5870   45.5330 C   0  0  0  0  0  0  0  0  0  0  0  0
   37.1660   30.6800   44.7920 C   0  0  0  0  0  0  0  0  0  0  0  0
   36.1880   29.9910   45.4500 N   0  0  0  0  0  0  0  0  0  0  0  0
   35.9520   30.1540   46.7690 C   0  0  0  0  0  0  0  0  0  0  0  0
   36.6860   31.0160   47.4840 N   0  0  0  0  0  0  0  0  0  0  0  0
   36.7020   29.3350   49.6960 Br  0  0  0  0  0  0  0  0  0  0  0  0
   35.0670   28.9680   48.7560 C   0  0  0  0  0  0  0  0  0  0  0  0
   34.9040   29.4110   47.4620 C   0  0  0  0  0  0  0  0  0  0  0  0
   33.6910   29.1130   46.8500 C   0  0  0  0  0  0  0  0  0  0  0  0
   32.6720   28.4110   47.4620 C   0  0  0  0  0  0  0  0  0  0  0  0
   32.8930   27.9950   48.7510 C   0  0  0  0  0  0  0  0  0  0  0  0
   34.0830   28.2760   49.3830 C   0  0  0  0  0  0  0  0  0  0  0  0
   39.9170   33.0630   45.3030 Br  0  0  0  0  0  0  0  0  0  0  0  0
   39.4960   33.3440   47.1540 C   0  0  0  0  0  0  0  0  0  0  0  0
   38.4410   32.6540   47.7140 C   0  0  0  0  0  0  0  0  0  0  0  0
   38.2320   32.9350   49.0450 C   0  0  0  0  0  0  0  0  0  0  0  0
   39.0120   33.8280   49.7490 C   0  0  0  0  0  0  0  0  0  0  0  0
   40.0520   34.4910   49.1460 C   0  0  0  0  0  0  0  0  0  0  0  0
   40.3020   34.2440   47.8130 C   0  0  0  0  0  0  0  0  0  0  0  0
   38.7451   32.1694   45.0561 H   0  0  0  0  0  0  0  0  0  0  0  0
   37.3403   30.5300   43.7163 H   0  0  0  0  0  0  0  0  0  0  0  0
   33.5344   29.4571   45.8170 H   0  0  0  0  0  0  0  0  0  0  0  0
   31.7275   28.1953   46.9411 H   0  0  0  0  0  0  0  0  0  0  0  0
   32.1124   27.4321   49.2837 H   0  0  0  0  0  0  0  0  0  0  0  0
   34.2391   27.9328   50.4164 H   0  0  0  0  0  0  0  0  0  0  0  0
   37.4091   32.4264   49.5686 H   0  0  0  0  0  0  0  0  0  0  0  0
   38.7972   34.0123   50.8120 H   0  0  0  0  0  0  0  0  0  0  0  0
   40.6709   35.2021   49.7128 H   0  0  0  0  0  0  0  0  0  0  0  0
   41.1246   34.7532   47.2895 H   0  0  0  0  0  0  0  0  0  0  0  0
  1  6  1  0
  1 16  1  0
  2  1  2  0
  3  4  2  0
  3  2  1  0
  4  5  1  0
  5  9  1  0
  5  6  2  0
  8 13  2  0
  8  7  1  0
  9  8  1  0
 10  9  2  0
 10 11  1  0
 11 12  2  0
 12 13  1  0
 14 15  1  0
 15 16  2  0
 15 20  1  0
 16 17  1  0
 17 18  2  0
 19 18  1  0
 20 19  2  0
  2 21  1  0
  3 22  1  0
 10 23  1  0
 11 24  1  0
 12 25  1  0
 13 26  1  0
 17 27  1  0
 18 28  1  0
 19 29  1  0
 20 30  1  0
M  ISO  8  21  14  22  14  23  14  24  14  25  14  26  14  27  14  28  14
M  ISO  2  29  14  30  14
M  END
>  <minimizedAffinity>  (1) 
-5.69606447

>  <minimizedRMSD>  (1) 
2.92699051

$$$$
