
     RDKit          3D

 22 23  0  0  0  0  0  0  0  0999 V2000
   38.4560   32.7280   48.2120 C   0  0  0  0  0  0  0  0  0  0  0  0
   39.3610   32.3870   47.1810 C   0  0  0  0  0  0  0  0  0  0  0  0
   39.1280   31.2070   46.4920 C   0  0  0  0  0  0  0  0  0  0  0  0
   38.0490   30.4330   46.8340 N   0  0  0  0  0  0  0  0  0  0  0  0
   37.2040   30.7940   47.8290 C   0  0  0  0  0  0  0  0  0  0  0  0
   37.4210   31.9350   48.5010 N   0  0  0  0  0  0  0  0  0  0  0  0
   38.5720   33.9220   49.0100 N   0  0  0  0  0  0  0  0  0  0  0  0
   37.5100   29.4030   50.6200 Br  0  0  0  0  0  0  0  0  0  0  0  0
   36.0440   29.2950   49.4110 C   0  0  0  0  0  0  0  0  0  0  0  0
   36.0580   29.9790   48.1980 C   0  0  0  0  0  0  0  0  0  0  0  0
   34.9600   29.8550   47.3730 C   0  0  0  0  0  0  0  0  0  0  0  0
   33.8510   29.0880   47.6880 C   0  0  0  0  0  0  0  0  0  0  0  0
   33.8680   28.4190   48.9050 C   0  0  0  0  0  0  0  0  0  0  0  0
   34.9580   28.5340   49.7400 C   0  0  0  0  0  0  0  0  0  0  0  0
   40.2168   33.0329   46.9351 H   0  0  0  0  0  0  0  0  0  0  0  0
   39.8012   30.8950   45.6799 H   0  0  0  0  0  0  0  0  0  0  0  0
   39.3464   34.5802   48.8425 H   0  0  0  0  0  0  0  0  0  0  0  0
   37.8805   34.1174   49.7480 H   0  0  0  0  0  0  0  0  0  0  0  0
   34.9654   30.3938   46.4140 H   0  0  0  0  0  0  0  0  0  0  0  0
   32.9932   29.0118   47.0036 H   0  0  0  0  0  0  0  0  0  0  0  0
   33.0109   27.7970   49.2024 H   0  0  0  0  0  0  0  0  0  0  0  0
   34.9537   27.9971   50.7001 H   0  0  0  0  0  0  0  0  0  0  0  0
  1  6  2  0
  1  7  1  0
  2  1  1  0
  3  4  1  0
  3  2  2  0
  4  5  2  0
  5 10  1  0
  5  6  1  0
  9 14  2  0
  9  8  1  0
 10  9  1  0
 11 12  1  0
 11 10  2  0
 12 13  2  0
 13 14  1  0
  2 15  1  0
  3 16  1  0
  7 17  1  0
  7 18  1  0
 11 19  1  0
 12 20  1  0
 13 21  1  0
 14 22  1  0
M  ISO  6  15  14  16  14  19  14  20  14  21  14  22  14
M  END
>  <minimizedAffinity>  (1) 
-5.54870939

>  <minimizedRMSD>  (1) 
0.951857805

$$$$
