
     RDKit          3D

 27 29  0  0  0  0  0  0  0  0999 V2000
   37.8310   31.9700   47.2440 C   0  0  0  0  0  0  0  0  0  0  0  0
   38.1320   31.9150   45.8580 C   0  0  0  0  0  0  0  0  0  0  0  0
   37.3870   31.0410   45.0770 C   0  0  0  0  0  0  0  0  0  0  0  0
   36.4180   30.2900   45.6790 N   0  0  0  0  0  0  0  0  0  0  0  0
   36.1540   30.3630   47.0030 C   0  0  0  0  0  0  0  0  0  0  0  0
   36.8700   31.2110   47.7800 N   0  0  0  0  0  0  0  0  0  0  0  0
   36.9230   29.3910   49.8780 Br  0  0  0  0  0  0  0  0  0  0  0  0
   35.3140   29.0530   48.9110 C   0  0  0  0  0  0  0  0  0  0  0  0
   35.1180   29.5570   47.6330 C   0  0  0  0  0  0  0  0  0  0  0  0
   33.9320   29.2660   47.0070 C   0  0  0  0  0  0  0  0  0  0  0  0
   32.9350   28.5060   47.5800 C   0  0  0  0  0  0  0  0  0  0  0  0
   33.1520   28.0200   48.8430 C   0  0  0  0  0  0  0  0  0  0  0  0
   34.3480   28.2950   49.5100 C   0  0  0  0  0  0  0  0  0  0  0  0
   38.6220   32.8940   48.0520 C   0  0  0  0  0  0  0  0  0  0  0  0
   38.4650   33.0830   49.4100 C   0  0  0  0  0  0  0  0  0  0  0  0
   39.4170   34.0340   49.7210 C   0  0  0  0  0  0  0  0  0  0  0  0
   40.1120   34.3890   48.5580 C   0  0  0  0  0  0  0  0  0  0  0  0
   39.5780   33.6620   47.5910 O   0  0  0  0  0  0  0  0  0  0  0  0
   38.9241   32.5399   45.4197 H   0  0  0  0  0  0  0  0  0  0  0  0
   37.5734   30.9554   43.9963 H   0  0  0  0  0  0  0  0  0  0  0  0
   33.7681   29.6605   45.9933 H   0  0  0  0  0  0  0  0  0  0  0  0
   31.9983   28.2969   47.0426 H   0  0  0  0  0  0  0  0  0  0  0  0
   32.3798   27.4098   49.3342 H   0  0  0  0  0  0  0  0  0  0  0  0
   34.5130   27.8992   50.5230 H   0  0  0  0  0  0  0  0  0  0  0  0
   37.7497   32.5916   50.0859 H   0  0  0  0  0  0  0  0  0  0  0  0
   39.6004   34.4473   50.7237 H   0  0  0  0  0  0  0  0  0  0  0  0
   40.9299   35.1190   48.4679 H   0  0  0  0  0  0  0  0  0  0  0  0
  1  6  1  0
  1 14  1  0
  2  1  2  0
  3  4  2  0
  3  2  1  0
  4  5  1  0
  5  9  1  0
  5  6  2  0
  8 13  2  0
  8  7  1  0
  9  8  1  0
 10 11  1  0
 10  9  2  0
 11 12  2  0
 12 13  1  0
 14 15  2  0
 15 16  1  0
 17 16  2  0
 18 14  1  0
 18 17  1  0
  2 19  1  0
  3 20  1  0
 10 21  1  0
 11 22  1  0
 12 23  1  0
 13 24  1  0
 15 25  1  0
 16 26  1  0
 17 27  1  0
M  ISO  8  19  14  20  14  21  14  22  14  23  14  24  14  25  14  26  14
M  ISO  1  27  14
M  END
>  <minimizedAffinity>  (1) 
-5.49944067

>  <minimizedRMSD>  (1) 
2.37881804

$$$$
