
     RDKit          3D

 27 29  0  0  0  0  0  0  0  0999 V2000
   37.8730   31.9700   47.0750 C   0  0  0  0  0  0  0  0  0  0  0  0
   38.1390   31.8630   45.6940 C   0  0  0  0  0  0  0  0  0  0  0  0
   37.3760   30.9430   44.9630 C   0  0  0  0  0  0  0  0  0  0  0  0
   36.4290   30.2110   45.6200 N   0  0  0  0  0  0  0  0  0  0  0  0
   36.2120   30.3530   46.9560 C   0  0  0  0  0  0  0  0  0  0  0  0
   36.9320   31.2280   47.6740 N   0  0  0  0  0  0  0  0  0  0  0  0
   37.0670   29.5080   49.8530 Br  0  0  0  0  0  0  0  0  0  0  0  0
   35.4320   29.1230   48.9510 C   0  0  0  0  0  0  0  0  0  0  0  0
   35.1980   29.5700   47.6600 C   0  0  0  0  0  0  0  0  0  0  0  0
   33.9870   29.2540   47.0680 C   0  0  0  0  0  0  0  0  0  0  0  0
   33.0070   28.5140   47.7050 C   0  0  0  0  0  0  0  0  0  0  0  0
   33.2670   28.0830   48.9870 C   0  0  0  0  0  0  0  0  0  0  0  0
   34.4660   28.3890   49.5930 C   0  0  0  0  0  0  0  0  0  0  0  0
   38.6670   32.9280   47.8410 C   0  0  0  0  0  0  0  0  0  0  0  0
   39.6790   33.7090   47.3380 C   0  0  0  0  0  0  0  0  0  0  0  0
   40.1070   34.4230   48.4140 N   0  0  0  0  0  0  0  0  0  0  0  0
   39.4190   34.1210   49.5310 C   0  0  0  0  0  0  0  0  0  0  0  0
   38.5190   33.1830   49.1550 N   0  0  0  0  0  0  0  0  0  0  0  0
   38.9136   32.4766   45.2108 H   0  0  0  0  0  0  0  0  0  0  0  0
   37.5365   30.8131   43.8825 H   0  0  0  0  0  0  0  0  0  0  0  0
   33.7953   29.6076   46.0442 H   0  0  0  0  0  0  0  0  0  0  0  0
   32.0553   28.2785   47.2061 H   0  0  0  0  0  0  0  0  0  0  0  0
   32.5143   27.4920   49.5294 H   0  0  0  0  0  0  0  0  0  0  0  0
   34.6539   28.0360   50.6177 H   0  0  0  0  0  0  0  0  0  0  0  0
   40.0557   33.7480   46.3053 H   0  0  0  0  0  0  0  0  0  0  0  0
   40.8693   35.1147   48.3782 H   0  0  0  0  0  0  0  0  0  0  0  0
   39.5587   34.5463   50.5358 H   0  0  0  0  0  0  0  0  0  0  0  0
  1  6  1  0
  1 14  1  0
  2  1  2  0
  3  4  2  0
  3  2  1  0
  4  5  1  0
  5  9  1  0
  5  6  2  0
  8 13  2  0
  8  7  1  0
  9  8  1  0
 10  9  2  0
 10 11  1  0
 11 12  2  0
 12 13  1  0
 14 18  1  0
 15 14  2  0
 15 16  1  0
 16 17  1  0
 18 17  2  0
  2 19  1  0
  3 20  1  0
 10 21  1  0
 11 22  1  0
 12 23  1  0
 13 24  1  0
 15 25  1  0
 16 26  1  0
 17 27  1  0
M  ISO  8  19  14  20  14  21  14  22  14  23  14  24  14  25  14  26   9
M  ISO  1  27  14
M  END
>  <minimizedAffinity>  (1) 
-5.10633373

>  <minimizedRMSD>  (1) 
2.47514462

$$$$
