
     RDKit          3D

 29 31  0  0  0  0  0  0  0  0999 V2000
   37.6400   31.7030   46.9070 C   0  0  0  0  0  0  0  0  0  0  0  0
   37.9230   31.5720   45.5300 C   0  0  0  0  0  0  0  0  0  0  0  0
   37.1460   30.6790   44.8050 C   0  0  0  0  0  0  0  0  0  0  0  0
   36.1550   29.9740   45.4410 N   0  0  0  0  0  0  0  0  0  0  0  0
   35.9220   30.1370   46.7750 C   0  0  0  0  0  0  0  0  0  0  0  0
   36.6680   31.0020   47.4930 N   0  0  0  0  0  0  0  0  0  0  0  0
   36.6890   29.3220   49.7010 Br  0  0  0  0  0  0  0  0  0  0  0  0
   35.0480   28.9640   48.7680 C   0  0  0  0  0  0  0  0  0  0  0  0
   34.8700   29.3960   47.4740 C   0  0  0  0  0  0  0  0  0  0  0  0
   33.6660   29.1080   46.8560 C   0  0  0  0  0  0  0  0  0  0  0  0
   32.6500   28.4110   47.4830 C   0  0  0  0  0  0  0  0  0  0  0  0
   32.8710   27.9970   48.7800 C   0  0  0  0  0  0  0  0  0  0  0  0
   34.0760   28.2760   49.4210 C   0  0  0  0  0  0  0  0  0  0  0  0
   38.4670   32.6510   47.6700 C   0  0  0  0  0  0  0  0  0  0  0  0
   38.1700   32.8530   49.0020 C   0  0  0  0  0  0  0  0  0  0  0  0
   38.9430   33.7480   49.7410 C   0  0  0  0  0  0  0  0  0  0  0  0
   39.9490   34.3410   49.0090 C   0  0  0  0  0  0  0  0  0  0  0  0
   40.2660   34.1560   47.6790 C   0  0  0  0  0  0  0  0  0  0  0  0
   39.4780   33.2690   47.0030 N   0  0  0  0  0  0  0  0  0  0  0  0
   38.7254   32.1531   45.0519 H   0  0  0  0  0  0  0  0  0  0  0  0
   37.3232   30.5374   43.7286 H   0  0  0  0  0  0  0  0  0  0  0  0
   33.5106   29.4482   45.8215 H   0  0  0  0  0  0  0  0  0  0  0  0
   31.7025   28.1950   46.9677 H   0  0  0  0  0  0  0  0  0  0  0  0
   32.0870   27.4403   49.3142 H   0  0  0  0  0  0  0  0  0  0  0  0
   34.2401   27.9393   50.4553 H   0  0  0  0  0  0  0  0  0  0  0  0
   37.3348   32.3154   49.4747 H   0  0  0  0  0  0  0  0  0  0  0  0
   38.7668   33.9603   50.8058 H   0  0  0  0  0  0  0  0  0  0  0  0
   40.5818   35.0550   49.5566 H   0  0  0  0  0  0  0  0  0  0  0  0
   41.0985   34.6879   47.1952 H   0  0  0  0  0  0  0  0  0  0  0  0
  1  6  1  0
  1 14  1  0
  2  1  2  0
  3  4  2  0
  3  2  1  0
  4  5  1  0
  5  9  1  0
  5  6  2  0
  8 13  2  0
  8  7  1  0
  9  8  1  0
 10  9  2  0
 10 11  1  0
 11 12  2  0
 12 13  1  0
 14 15  2  0
 15 16  1  0
 17 16  2  0
 18 17  1  0
 19 14  1  0
 19 18  2  0
  2 20  1  0
  3 21  1  0
 10 22  1  0
 11 23  1  0
 12 24  1  0
 13 25  1  0
 15 26  1  0
 16 27  1  0
 17 28  1  0
 18 29  1  0
M  ISO  8  20  14  21  14  22  14  23  14  24  14  25  14  26  14  27  14
M  ISO  2  28  14  29  14
M  END
>  <minimizedAffinity>  (1) 
-5.10484838

>  <minimizedRMSD>  (1) 
2.8454237

$$$$
