
     RDKit          3D

 41 43  0  0  1  0  0  0  0  0999 V2000
   37.0290   31.0660   45.8260 C   0  0  2  0  0  0  0  0  0  0  0  0
   37.6590   30.6060   44.5570 C   0  0  0  0  0  0  0  0  0  0  0  0
   38.8820   29.7210   44.7950 C   0  0  0  0  0  0  0  0  0  0  0  0
   39.9290   30.4640   45.5960 C   0  0  0  0  0  0  0  0  0  0  0  0
   39.3520   31.2680   46.7370 C   0  0  0  0  0  0  0  0  0  0  0  0
   37.9300   30.8400   47.0220 C   0  0  1  0  0  0  0  0  0  0  0  0
   37.4220   31.5370   48.1620 N   0  0  0  0  0  0  0  0  0  0  0  0
   37.9370   32.8460   48.3810 C   0  0  0  0  0  0  0  0  0  0  0  0
   37.4070   33.1830   49.7770 C   0  0  0  0  0  0  0  0  0  0  0  0
   36.9200   31.8620   50.3430 C   0  0  0  0  0  0  0  0  0  0  0  0
   37.6730   30.9270   49.4140 C   0  0  1  0  0  0  0  0  0  0  0  0
   37.3040   29.5530   49.7020 C   0  0  0  0  0  0  0  0  0  0  0  0
   36.6600   28.8710   48.7080 F   0  0  0  0  0  0  0  0  0  0  0  0
   36.3380   29.6290   50.7230 F   0  0  0  0  0  0  0  0  0  0  0  0
   38.3040   28.7960   50.2920 F   0  0  0  0  0  0  0  0  0  0  0  0
   35.7420   30.3960   46.1190 C   0  0  0  0  0  0  0  0  0  0  0  0
   35.3470   29.4590   45.1430 C   0  0  0  0  0  0  0  0  0  0  0  0
   34.1830   28.7670   45.3740 C   0  0  0  0  0  0  0  0  0  0  0  0
   33.4620   29.0030   46.5150 N   0  0  0  0  0  0  0  0  0  0  0  0
   33.8670   29.9130   47.4370 C   0  0  0  0  0  0  0  0  0  0  0  0
   34.9900   30.5860   47.2210 N   0  0  0  0  0  0  0  0  0  0  0  0
   36.8539   32.1401   45.6658 H   0  0  0  0  0  0  0  0  0  0  0  0
   37.9698   31.4881   43.9780 H   0  0  0  0  0  0  0  0  0  0  0  0
   36.9142   30.0059   44.0137 H   0  0  0  0  0  0  0  0  0  0  0  0
   38.5750   28.8211   45.3481 H   0  0  0  0  0  0  0  0  0  0  0  0
   39.3122   29.4412   43.8220 H   0  0  0  0  0  0  0  0  0  0  0  0
   40.6373   29.7308   46.0092 H   0  0  0  0  0  0  0  0  0  0  0  0
   40.4174   31.1742   44.9126 H   0  0  0  0  0  0  0  0  0  0  0  0
   39.9646   31.1102   47.6369 H   0  0  0  0  0  0  0  0  0  0  0  0
   39.3537   32.3321   46.4583 H   0  0  0  0  0  0  0  0  0  0  0  0
   37.9417   29.7607   47.2341 H   0  0  0  0  0  0  0  0  0  0  0  0
   39.0368   32.8484   48.3624 H   0  0  0  0  0  0  0  0  0  0  0  0
   37.6337   33.5704   47.6108 H   0  0  0  0  0  0  0  0  0  0  0  0
   38.2085   33.6001   50.4043 H   0  0  0  0  0  0  0  0  0  0  0  0
   36.6073   33.9376   49.7438 H   0  0  0  0  0  0  0  0  0  0  0  0
   37.2149   31.7277   51.3942 H   0  0  0  0  0  0  0  0  0  0  0  0
   35.8285   31.7287   50.3725 H   0  0  0  0  0  0  0  0  0  0  0  0
   38.7632   30.8090   49.5013 H   0  0  0  0  0  0  0  0  0  0  0  0
   35.9450   29.2892   44.2355 H   0  0  0  0  0  0  0  0  0  0  0  0
   33.8301   28.0241   44.6436 H   0  0  0  0  0  0  0  0  0  0  0  0
   33.2748   30.0894   48.3471 H   0  0  0  0  0  0  0  0  0  0  0  0
  1 16  1  0
  1  6  1  0
  2  3  1  0
  2  1  1  0
  3  4  1  0
  4  5  1  0
  5  6  1  0
  6  7  1  0
  7  8  1  0
  7 11  1  0
  8  9  1  0
  9 10  1  0
 11 12  1  0
 11 10  1  0
 12 15  1  0
 12 14  1  0
 13 12  1  0
 16 21  2  0
 17 18  2  0
 17 16  1  0
 18 19  1  0
 19 20  2  0
 21 20  1  0
  1 22  1  6
  2 23  1  0
  2 24  1  0
  3 25  1  0
  3 26  1  0
  4 27  1  0
  4 28  1  0
  5 29  1  0
  5 30  1  0
  6 31  1  1
  8 32  1  0
  8 33  1  0
  9 34  1  0
  9 35  1  0
 10 36  1  0
 10 37  1  0
 11 38  1  1
 17 39  1  0
 18 40  1  0
 20 41  1  0
M  ISO  8  22  13  23  13  24  13  25  13  26  13  27  13  28  13  29  13
M  ISO  8  30  13  31  13  32  13  33  13  34  13  35  13  36  13  37  13
M  ISO  4  38  13  39  14  40  14  41  14
M  END
>  <minimizedAffinity>  (1) 
-4.72767591

>  <minimizedRMSD>  (1) 
0.719896853

$$$$
