
     RDKit          3D

 30 32  0  0  0  0  0  0  0  0999 V2000
   36.4910   30.2710   47.6300 C   0  0  0  0  0  0  0  0  0  0  0  0
   35.3850   29.9680   46.8620 C   0  0  0  0  0  0  0  0  0  0  0  0
   35.3090   30.1530   45.4970 C   0  0  0  0  0  0  0  0  0  0  0  0
   36.3760   30.6630   44.8650 N   0  0  0  0  0  0  0  0  0  0  0  0
   37.4650   30.9640   45.6080 C   0  0  0  0  0  0  0  0  0  0  0  0
   37.5240   30.7780   46.9320 N   0  0  0  0  0  0  0  0  0  0  0  0
   38.6150   31.5080   44.9620 N   0  0  0  0  0  0  0  0  0  0  0  0
   39.8710   30.8410   44.6550 C   0  0  0  0  0  0  0  0  0  0  0  0
   40.8710   31.8920   45.0860 C   0  0  0  0  0  0  0  0  0  0  0  0
   40.1260   33.2120   45.1460 C   0  0  0  0  0  0  0  0  0  0  0  0
   38.8210   32.8530   44.4510 C   0  0  0  0  0  0  0  0  0  0  0  0
   35.7370   29.2850   51.1850 C   0  0  0  0  0  0  0  0  0  0  0  0
   35.5570   29.4130   49.7970 C   0  0  0  0  0  0  0  0  0  0  0  0
   36.5330   30.0610   49.0630 C   0  0  0  0  0  0  0  0  0  0  0  0
   37.5940   30.5260   49.7460 N   0  0  0  0  0  0  0  0  0  0  0  0
   37.7680   30.4040   51.0780 C   0  0  0  0  0  0  0  0  0  0  0  0
   36.8240   29.7740   51.7970 N   0  0  0  0  0  0  0  0  0  0  0  0
   34.5046   29.5508   47.3728 H   0  0  0  0  0  0  0  0  0  0  0  0
   34.3969   29.8890   44.9416 H   0  0  0  0  0  0  0  0  0  0  0  0
   39.9868   29.9124   45.2332 H   0  0  0  0  0  0  0  0  0  0  0  0
   39.9708   30.5240   43.6064 H   0  0  0  0  0  0  0  0  0  0  0  0
   41.2785   31.6424   46.0768 H   0  0  0  0  0  0  0  0  0  0  0  0
   41.7127   31.9471   44.3800 H   0  0  0  0  0  0  0  0  0  0  0  0
   39.9542   33.5300   46.1849 H   0  0  0  0  0  0  0  0  0  0  0  0
   40.6642   34.0531   44.6847 H   0  0  0  0  0  0  0  0  0  0  0  0
   38.9277   32.8604   43.3562 H   0  0  0  0  0  0  0  0  0  0  0  0
   37.9914   33.5497   44.6417 H   0  0  0  0  0  0  0  0  0  0  0  0
   34.9686   28.7721   51.7820 H   0  0  0  0  0  0  0  0  0  0  0  0
   34.6603   29.0070   49.3060 H   0  0  0  0  0  0  0  0  0  0  0  0
   38.6653   30.8123   51.5660 H   0  0  0  0  0  0  0  0  0  0  0  0
  1 14  1  0
  2  1  2  0
  3  2  1  0
  4  3  2  0
  4  5  1  0
  5  6  2  0
  6  1  1  0
  7  5  1  0
  8  7  1  0
  8  9  1  0
  9 10  1  0
 11  7  1  0
 11 10  1  0
 12 17  2  0
 13 12  1  0
 14 15  1  0
 14 13  2  0
 15 16  2  0
 16 17  1  0
  2 18  1  0
  3 19  1  0
  8 20  1  0
  8 21  1  0
  9 22  1  0
  9 23  1  0
 10 24  1  0
 10 25  1  0
 11 26  1  0
 11 27  1  0
 12 28  1  0
 13 29  1  0
 16 30  1  0
M  ISO  8  18  14  19  14  20  13  21  13  22  13  23  13  24  13  25  13
M  ISO  5  26  13  27  13  28  14  29  14  30  14
M  END
>  <minimizedAffinity>  (1) 
-5.46896315

>  <minimizedRMSD>  (1) 
2.76851726

$$$$
