
     RDKit          3D

 22 23  0  0  0  0  0  0  0  0999 V2000
   37.6150   31.1680   48.0560 C   0  0  0  0  0  0  0  0  0  0  0  0
   37.1870   30.7550   46.8160 C   0  0  0  0  0  0  0  0  0  0  0  0
   37.6250   31.3240   45.6260 C   0  0  0  0  0  0  0  0  0  0  0  0
   38.5110   32.3300   45.6750 N   0  0  0  0  0  0  0  0  0  0  0  0
   38.9260   32.7310   46.8820 C   0  0  0  0  0  0  0  0  0  0  0  0
   38.5030   32.1810   48.0310 N   0  0  0  0  0  0  0  0  0  0  0  0
   40.1210   34.4920   48.1940 C   0  0  0  0  0  0  0  0  0  0  0  0
   39.4450   34.0840   49.2000 O   0  0  0  0  0  0  0  0  0  0  0  0
   39.8660   33.7970   46.9650 N   0  0  0  0  0  0  0  0  0  0  0  0
   37.2390   30.0380   51.6330 C   0  0  0  0  0  0  0  0  0  0  0  0
   37.8120   30.6760   50.5170 C   0  0  0  0  0  0  0  0  0  0  0  0
   37.1510   30.5660   49.3030 C   0  0  0  0  0  0  0  0  0  0  0  0
   36.0040   29.8590   49.2600 N   0  0  0  0  0  0  0  0  0  0  0  0
   35.4710   29.2550   50.3410 C   0  0  0  0  0  0  0  0  0  0  0  0
   36.0940   29.3480   51.5260 N   0  0  0  0  0  0  0  0  0  0  0  0
   36.4600   29.9312   46.7633 H   0  0  0  0  0  0  0  0  0  0  0  0
   37.2511   30.9553   44.6594 H   0  0  0  0  0  0  0  0  0  0  0  0
   40.8457   35.3164   48.2658 H   0  0  0  0  0  0  0  0  0  0  0  0
   40.3786   34.0778   46.1169 H   0  0  0  0  0  0  0  0  0  0  0  0
   37.7392   30.1065   52.6103 H   0  0  0  0  0  0  0  0  0  0  0  0
   38.7511   31.2420   50.6047 H   0  0  0  0  0  0  0  0  0  0  0  0
   34.5316   28.6896   50.2523 H   0  0  0  0  0  0  0  0  0  0  0  0
  1 12  1  0
  2  1  2  0
  3  4  2  0
  3  2  1  0
  4  5  1  0
  5  9  1  0
  5  6  2  0
  6  1  1  0
  7  8  2  0
  9  7  1  0
 11 10  2  0
 12 11  1  0
 13 12  2  0
 13 14  1  0
 14 15  2  0
 15 10  1  0
  2 16  1  0
  3 17  1  0
  7 18  1  0
  9 19  1  0
 10 20  1  0
 11 21  1  0
 14 22  1  0
M  ISO  6  16  14  17  14  18   6  20  14  21  14  22  14
M  END
>  <minimizedAffinity>  (1) 
-5.38814974

>  <minimizedRMSD>  (1) 
0.54572618

$$$$
