
     RDKit          3D

 32 34  0  0  0  0  0  0  0  0999 V2000
   36.2700   30.2010   47.6710 C   0  0  0  0  0  0  0  0  0  0  0  0
   35.0620   29.8170   47.1570 C   0  0  0  0  0  0  0  0  0  0  0  0
   34.7140   29.8630   45.8240 C   0  0  0  0  0  0  0  0  0  0  0  0
   35.6340   30.3190   44.9530 N   0  0  0  0  0  0  0  0  0  0  0  0
   36.8210   30.7000   45.4350 C   0  0  0  0  0  0  0  0  0  0  0  0
   37.1340   30.6460   46.7350 N   0  0  0  0  0  0  0  0  0  0  0  0
   37.7750   31.1810   44.4780 N   0  0  0  0  0  0  0  0  0  0  0  0
   38.4550   30.2340   43.6160 C   0  0  0  0  0  0  0  0  0  0  0  0
   39.8820   30.5790   43.3580 C   0  0  0  0  0  0  0  0  0  0  0  0
   40.1580   31.9910   43.2850 N   0  0  0  0  0  0  0  0  0  0  0  0
   39.5860   32.7320   44.3860 C   0  0  0  0  0  0  0  0  0  0  0  0
   38.0920   32.5900   44.3350 C   0  0  0  0  0  0  0  0  0  0  0  0
   37.9190   30.5570   51.0390 C   0  0  0  0  0  0  0  0  0  0  0  0
   37.7340   30.6970   49.6570 C   0  0  0  0  0  0  0  0  0  0  0  0
   36.5970   30.1380   49.0850 C   0  0  0  0  0  0  0  0  0  0  0  0
   35.7300   29.4900   49.8990 N   0  0  0  0  0  0  0  0  0  0  0  0
   35.9380   29.3720   51.2290 C   0  0  0  0  0  0  0  0  0  0  0  0
   37.0290   29.9060   51.7900 N   0  0  0  0  0  0  0  0  0  0  0  0
   34.3077   29.4414   47.8641 H   0  0  0  0  0  0  0  0  0  0  0  0
   33.7195   29.5385   45.4837 H   0  0  0  0  0  0  0  0  0  0  0  0
   38.4174   29.2425   44.0909 H   0  0  0  0  0  0  0  0  0  0  0  0
   37.9382   30.2531   42.6452 H   0  0  0  0  0  0  0  0  0  0  0  0
   40.4894   30.1531   44.1702 H   0  0  0  0  0  0  0  0  0  0  0  0
   40.1273   30.1638   42.3693 H   0  0  0  0  0  0  0  0  0  0  0  0
   41.1789   32.1274   43.2919 H   0  0  0  0  0  0  0  0  0  0  0  0
   39.9639   32.3314   45.3382 H   0  0  0  0  0  0  0  0  0  0  0  0
   39.8652   33.7932   44.3097 H   0  0  0  0  0  0  0  0  0  0  0  0
   37.6336   33.1618   45.1553 H   0  0  0  0  0  0  0  0  0  0  0  0
   37.7016   32.9768   43.3821 H   0  0  0  0  0  0  0  0  0  0  0  0
   38.8123   30.9908   51.5122 H   0  0  0  0  0  0  0  0  0  0  0  0
   38.4693   31.2352   49.0409 H   0  0  0  0  0  0  0  0  0  0  0  0
   35.2079   28.8351   51.8525 H   0  0  0  0  0  0  0  0  0  0  0  0
  1 15  1  0
  2  1  2  0
  3  2  1  0
  4  5  1  0
  4  3  2  0
  5  6  2  0
  6  1  1  0
  7  5  1  0
  8  7  1  0
  9  8  1  0
 10  9  1  0
 10 11  1  0
 12 11  1  0
 12  7  1  0
 13 18  2  0
 14 13  1  0
 15 14  2  0
 15 16  1  0
 16 17  2  0
 17 18  1  0
  2 19  1  0
  3 20  1  0
  8 21  1  0
  8 22  1  0
  9 23  1  0
  9 24  1  0
 10 25  1  0
 11 26  1  0
 11 27  1  0
 12 28  1  0
 12 29  1  0
 13 30  1  0
 14 31  1  0
 17 32  1  0
M  ISO  8  19  14  20  14  21  13  22  13  23  13  24  13  25   5  26  13
M  ISO  6  27  13  28  13  29  13  30  14  31  14  32  14
M  END
>  <minimizedAffinity>  (1) 
-5.21831989

>  <minimizedRMSD>  (1) 
3.4748497

$$$$
