
     RDKit          3D

 32 34  0  0  1  0  0  0  0  0999 V2000
   36.1810   30.1780   47.6880 C   0  0  0  0  0  0  0  0  0  0  0  0
   34.9650   29.7880   47.1950 C   0  0  0  0  0  0  0  0  0  0  0  0
   34.6020   29.8310   45.8650 C   0  0  0  0  0  0  0  0  0  0  0  0
   35.5060   30.2890   44.9740 N   0  0  0  0  0  0  0  0  0  0  0  0
   36.7010   30.6730   45.4480 C   0  0  0  0  0  0  0  0  0  0  0  0
   37.0550   30.6310   46.7500 N   0  0  0  0  0  0  0  0  0  0  0  0
   37.9010   30.5480   51.0300 C   0  0  0  0  0  0  0  0  0  0  0  0
   37.6880   30.6830   49.6520 C   0  0  0  0  0  0  0  0  0  0  0  0
   36.5500   30.1280   49.0960 C   0  0  0  0  0  0  0  0  0  0  0  0
   35.6910   29.4730   49.9330 N   0  0  0  0  0  0  0  0  0  0  0  0
   35.9240   29.3590   51.2570 C   0  0  0  0  0  0  0  0  0  0  0  0
   37.0230   29.8950   51.7990 N   0  0  0  0  0  0  0  0  0  0  0  0
   37.6450   31.1700   44.3810 C   0  0  2  0  0  0  0  0  0  0  0  0
   38.6790   30.0940   44.2030 C   0  0  0  0  0  0  0  0  0  0  0  0
   40.0090   30.5440   43.7350 C   0  0  0  0  0  0  0  0  0  0  0  0
   40.1140   31.9670   43.3250 C   0  0  0  0  0  0  0  0  0  0  0  0
   39.3830   32.9680   44.1460 C   0  0  0  0  0  0  0  0  0  0  0  0
   38.2010   32.4640   44.9070 C   0  0  0  0  0  0  0  0  0  0  0  0
   34.2216   29.4121   47.9134 H   0  0  0  0  0  0  0  0  0  0  0  0
   33.6042   29.5014   45.5400 H   0  0  0  0  0  0  0  0  0  0  0  0
   38.8020   30.9847   51.4854 H   0  0  0  0  0  0  0  0  0  0  0  0
   38.4130   31.2209   49.0235 H   0  0  0  0  0  0  0  0  0  0  0  0
   35.2060   28.8221   51.8944 H   0  0  0  0  0  0  0  0  0  0  0  0
   37.1921   31.3635   43.3974 H   0  0  0  0  0  0  0  0  0  0  0  0
   38.4605   29.0356   44.4082 H   0  0  0  0  0  0  0  0  0  0  0  0
   40.8713   29.8623   43.6933 H   0  0  0  0  0  0  0  0  0  0  0  0
   41.1797   32.2387   43.3440 H   0  0  0  0  0  0  0  0  0  0  0  0
   39.6379   32.0117   42.3344 H   0  0  0  0  0  0  0  0  0  0  0  0
   40.0940   33.3895   44.8719 H   0  0  0  0  0  0  0  0  0  0  0  0
   38.9801   33.6978   43.4283 H   0  0  0  0  0  0  0  0  0  0  0  0
   37.4087   33.2257   44.8608 H   0  0  0  0  0  0  0  0  0  0  0  0
   38.5415   32.2710   45.9350 H   0  0  0  0  0  0  0  0  0  0  0  0
  1  9  1  0
  2  1  2  0
  3  2  1  0
  4  5  1  0
  4  3  2  0
  5  6  2  0
  6  1  1  0
  7 12  2  0
  8  7  1  0
  9  8  2  0
  9 10  1  0
 10 11  2  0
 11 12  1  0
 13 18  1  0
 13  5  1  0
 14 13  1  0
 15 14  2  0
 16 15  1  0
 16 17  1  0
 17 18  1  0
  2 19  1  0
  3 20  1  0
  7 21  1  0
  8 22  1  0
 11 23  1  0
 13 24  1  6
 14 25  1  0
 15 26  1  0
 16 27  1  0
 16 28  1  0
 17 29  1  0
 17 30  1  0
 18 31  1  0
 18 32  1  0
M  ISO  8  19  14  20  14  21  14  22  14  23  14  24  13  25  13  26  13
M  ISO  6  27  13  28  13  29  13  30  13  31  13  32  13
M  END
>  <minimizedAffinity>  (1) 
-5.21616697

>  <minimizedRMSD>  (1) 
3.52070546

$$$$
