
     RDKit          3D

 41 43  0  0  1  0  0  0  0  0999 V2000
   37.0920   31.0850   45.8280 C   0  0  2  0  0  0  0  0  0  0  0  0
   37.6880   30.7230   44.5110 C   0  0  0  0  0  0  0  0  0  0  0  0
   38.9440   29.8630   44.6510 C   0  0  0  0  0  0  0  0  0  0  0  0
   39.9980   30.6120   45.4440 C   0  0  0  0  0  0  0  0  0  0  0  0
   39.4450   31.3120   46.6610 C   0  0  0  0  0  0  0  0  0  0  0  0
   38.0470   30.8290   46.9740 C   0  0  1  0  0  0  0  0  0  0  0  0
   37.5590   31.4580   48.1630 N   0  0  0  0  0  0  0  0  0  0  0  0
   37.9800   32.7910   48.4060 C   0  0  0  0  0  0  0  0  0  0  0  0
   37.5190   33.0220   49.8470 C   0  0  0  0  0  0  0  0  0  0  0  0
   37.1900   31.6410   50.3900 C   0  0  0  0  0  0  0  0  0  0  0  0
   37.9440   30.7880   49.3780 C   0  0  1  0  0  0  0  0  0  0  0  0
   37.4790   29.3730   49.4940 C   0  0  0  0  0  0  0  0  0  0  0  0
   35.8460   30.3500   46.1340 C   0  0  0  0  0  0  0  0  0  0  0  0
   35.3810   29.5520   45.0720 C   0  0  0  0  0  0  0  0  0  0  0  0
   34.2480   28.8060   45.2980 C   0  0  0  0  0  0  0  0  0  0  0  0
   33.6230   28.8630   46.5190 N   0  0  0  0  0  0  0  0  0  0  0  0
   34.0960   29.6450   47.5230 C   0  0  0  0  0  0  0  0  0  0  0  0
   35.1880   30.3670   47.3110 N   0  0  0  0  0  0  0  0  0  0  0  0
   36.8698   32.1581   45.7332 H   0  0  0  0  0  0  0  0  0  0  0  0
   37.9520   31.6480   43.9775 H   0  0  0  0  0  0  0  0  0  0  0  0
   36.9412   30.1347   43.9576 H   0  0  0  0  0  0  0  0  0  0  0  0
   38.6899   28.9290   45.1736 H   0  0  0  0  0  0  0  0  0  0  0  0
   39.3391   29.6341   43.6502 H   0  0  0  0  0  0  0  0  0  0  0  0
   40.7636   29.8937   45.7724 H   0  0  0  0  0  0  0  0  0  0  0  0
   40.4127   31.3873   44.7830 H   0  0  0  0  0  0  0  0  0  0  0  0
   40.0980   31.1066   47.5221 H   0  0  0  0  0  0  0  0  0  0  0  0
   39.4056   32.3922   46.4569 H   0  0  0  0  0  0  0  0  0  0  0  0
   38.1024   29.7415   47.1301 H   0  0  0  0  0  0  0  0  0  0  0  0
   39.0723   32.8861   48.3173 H   0  0  0  0  0  0  0  0  0  0  0  0
   37.5702   33.5193   47.6907 H   0  0  0  0  0  0  0  0  0  0  0  0
   38.3215   33.4872   50.4382 H   0  0  0  0  0  0  0  0  0  0  0  0
   36.6533   33.6988   49.8968 H   0  0  0  0  0  0  0  0  0  0  0  0
   37.5723   31.4998   51.4117 H   0  0  0  0  0  0  0  0  0  0  0  0
   36.1170   31.4178   50.4840 H   0  0  0  0  0  0  0  0  0  0  0  0
   39.0362   30.7085   49.4815 H   0  0  0  0  0  0  0  0  0  0  0  0
   37.3900   29.1022   50.5564 H   0  0  0  0  0  0  0  0  0  0  0  0
   36.4990   29.2679   49.0055 H   0  0  0  0  0  0  0  0  0  0  0  0
   38.2056   28.7071   49.0055 H   0  0  0  0  0  0  0  0  0  0  0  0
   35.9013   29.5261   44.1032 H   0  0  0  0  0  0  0  0  0  0  0  0
   33.8431   28.1645   44.5015 H   0  0  0  0  0  0  0  0  0  0  0  0
   33.5825   29.6791   48.4952 H   0  0  0  0  0  0  0  0  0  0  0  0
  1 13  1  0
  1  6  1  0
  2  3  1  0
  2  1  1  0
  3  4  1  0
  4  5  1  0
  5  6  1  0
  6  7  1  0
  7  8  1  0
  7 11  1  0
  8  9  1  0
  9 10  1  0
 11 12  1  0
 11 10  1  0
 13 18  2  0
 14 15  2  0
 14 13  1  0
 15 16  1  0
 16 17  2  0
 18 17  1  0
  1 19  1  6
  2 20  1  0
  2 21  1  0
  3 22  1  0
  3 23  1  0
  4 24  1  0
  4 25  1  0
  5 26  1  0
  5 27  1  0
  6 28  1  1
  8 29  1  0
  8 30  1  0
  9 31  1  0
  9 32  1  0
 10 33  1  0
 10 34  1  0
 11 35  1  1
 12 36  1  0
 12 37  1  0
 12 38  1  0
 14 39  1  0
 15 40  1  0
 17 41  1  0
M  ISO  8  19  13  20  13  21  13  22  13  23  13  24  13  25  13  26  13
M  ISO  8  27  13  28  13  29  13  30  13  31  13  32  13  33  13  34  13
M  ISO  7  35  13  36   8  37   8  38   8  39  14  40  14  41  14
M  END
>  <minimizedAffinity>  (1) 
-4.68860435

>  <minimizedRMSD>  (1) 
0.423696637

$$$$
