
     RDKit          3D

 20 21  0  0  0  0  0  0  0  0999 V2000
   37.7160   31.1630   47.8630 C   0  0  0  0  0  0  0  0  0  0  0  0
   37.1960   30.7780   46.6430 C   0  0  0  0  0  0  0  0  0  0  0  0
   37.5850   31.3110   45.4290 C   0  0  0  0  0  0  0  0  0  0  0  0
   38.5280   32.2670   45.4240 N   0  0  0  0  0  0  0  0  0  0  0  0
   39.0370   32.6460   46.6130 C   0  0  0  0  0  0  0  0  0  0  0  0
   38.6560   32.1240   47.7850 N   0  0  0  0  0  0  0  0  0  0  0  0
   40.0440   33.6660   46.6080 N   0  0  0  0  0  0  0  0  0  0  0  0
   37.3940   30.1940   51.4920 C   0  0  0  0  0  0  0  0  0  0  0  0
   37.9000   30.8120   50.3430 C   0  0  0  0  0  0  0  0  0  0  0  0
   37.2870   30.5840   49.1170 C   0  0  0  0  0  0  0  0  0  0  0  0
   36.2060   29.7550   49.1010 N   0  0  0  0  0  0  0  0  0  0  0  0
   35.7330   29.1690   50.2200 C   0  0  0  0  0  0  0  0  0  0  0  0
   36.3250   29.3870   51.4170 N   0  0  0  0  0  0  0  0  0  0  0  0
   36.4220   29.9964   46.6373 H   0  0  0  0  0  0  0  0  0  0  0  0
   37.1331   30.9606   44.4893 H   0  0  0  0  0  0  0  0  0  0  0  0
   40.4590   33.9844   47.4953 H   0  0  0  0  0  0  0  0  0  0  0  0
   40.3527   34.0806   45.7171 H   0  0  0  0  0  0  0  0  0  0  0  0
   37.8766   30.3713   52.4644 H   0  0  0  0  0  0  0  0  0  0  0  0
   38.7765   31.4733   50.4098 H   0  0  0  0  0  0  0  0  0  0  0  0
   34.8567   28.5069   50.1588 H   0  0  0  0  0  0  0  0  0  0  0  0
  1 10  1  0
  2  1  2  0
  3  2  1  0
  4  3  2  0
  4  5  1  0
  5  6  2  0
  6  1  1  0
  7  5  1  0
  9  8  2  0
 10  9  1  0
 11 10  2  0
 11 12  1  0
 12 13  2  0
 13  8  1  0
  2 14  1  0
  3 15  1  0
  7 16  1  0
  7 17  1  0
  8 18  1  0
  9 19  1  0
 12 20  1  0
M  ISO  5  14  14  15  14  18  14  19  14  20  14
M  END
>  <minimizedAffinity>  (1) 
-4.90997553

>  <minimizedRMSD>  (1) 
0.259240359

$$$$
