
     RDKit          3D

 24 25  0  0  0  0  0  0  0  0999 V2000
   37.4650   30.9290   47.7060 C   0  0  0  0  0  0  0  0  0  0  0  0
   36.7310   30.5610   46.5990 C   0  0  0  0  0  0  0  0  0  0  0  0
   37.0240   30.9970   45.3190 C   0  0  0  0  0  0  0  0  0  0  0  0
   38.0670   31.8150   45.1420 N   0  0  0  0  0  0  0  0  0  0  0  0
   38.7860   32.1770   46.2110 C   0  0  0  0  0  0  0  0  0  0  0  0
   38.5030   31.7550   47.4490 N   0  0  0  0  0  0  0  0  0  0  0  0
   37.5010   30.2070   51.4020 C   0  0  0  0  0  0  0  0  0  0  0  0
   37.9370   30.7210   50.1740 C   0  0  0  0  0  0  0  0  0  0  0  0
   37.1540   30.4670   49.0560 C   0  0  0  0  0  0  0  0  0  0  0  0
   36.0150   29.7370   49.2200 N   0  0  0  0  0  0  0  0  0  0  0  0
   35.6250   29.2560   50.4260 C   0  0  0  0  0  0  0  0  0  0  0  0
   36.3710   29.4940   51.5110 N   0  0  0  0  0  0  0  0  0  0  0  0
   39.9710   33.0790   46.1630 C   0  0  0  0  0  0  0  0  0  0  0  0
   40.1570   33.6790   44.7840 C   0  0  0  0  0  0  0  0  0  0  0  0
   35.8717   29.8889   46.7398 H   0  0  0  0  0  0  0  0  0  0  0  0
   36.4109   30.6770   44.4636 H   0  0  0  0  0  0  0  0  0  0  0  0
   38.1034   30.3939   52.3032 H   0  0  0  0  0  0  0  0  0  0  0  0
   38.8662   31.3048   50.0982 H   0  0  0  0  0  0  0  0  0  0  0  0
   34.6973   28.6713   50.5124 H   0  0  0  0  0  0  0  0  0  0  0  0
   39.8310   33.8920   46.8906 H   0  0  0  0  0  0  0  0  0  0  0  0
   40.8656   32.4865   46.4050 H   0  0  0  0  0  0  0  0  0  0  0  0
   40.4815   34.7256   44.8802 H   0  0  0  0  0  0  0  0  0  0  0  0
   40.9201   33.1075   44.2354 H   0  0  0  0  0  0  0  0  0  0  0  0
   39.2044   33.6394   44.2354 H   0  0  0  0  0  0  0  0  0  0  0  0
  1  9  1  0
  2  1  2  0
  3  2  1  0
  4  3  2  0
  4  5  1  0
  5  6  2  0
  6  1  1  0
  7 12  2  0
  8  7  1  0
  9 10  1  0
  9  8  2  0
 10 11  2  0
 11 12  1  0
 13  5  1  0
 14 13  1  0
  2 15  1  0
  3 16  1  0
  7 17  1  0
  8 18  1  0
 11 19  1  0
 13 20  1  0
 13 21  1  0
 14 22  1  0
 14 23  1  0
 14 24  1  0
M  ISO  8  15  14  16  14  17  14  18  14  19  14  20   8  21   8  22   8
M  ISO  2  23   8  24   8
M  END
>  <minimizedAffinity>  (1) 
-4.85533762

>  <minimizedRMSD>  (1) 
0.767091334

$$$$
