
     RDKit          3D

 21 22  0  0  0  0  0  0  0  0999 V2000
   37.7420   31.0780   47.5150 C   0  0  0  0  0  0  0  0  0  0  0  0
   37.0600   30.7550   46.3710 C   0  0  0  0  0  0  0  0  0  0  0  0
   37.3740   31.2510   45.1190 C   0  0  0  0  0  0  0  0  0  0  0  0
   38.4040   32.0980   45.0080 N   0  0  0  0  0  0  0  0  0  0  0  0
   39.0740   32.4170   46.1270 C   0  0  0  0  0  0  0  0  0  0  0  0
   38.7690   31.9370   47.3370 N   0  0  0  0  0  0  0  0  0  0  0  0
   37.5490   30.3250   51.2080 C   0  0  0  0  0  0  0  0  0  0  0  0
   37.9840   30.9190   50.0140 C   0  0  0  0  0  0  0  0  0  0  0  0
   37.3740   30.5320   48.8110 C   0  0  0  0  0  0  0  0  0  0  0  0
   36.4000   29.6050   48.8810 N   0  0  0  0  0  0  0  0  0  0  0  0
   35.9940   29.0430   50.0400 C   0  0  0  0  0  0  0  0  0  0  0  0
   36.5630   29.3980   51.2030 N   0  0  0  0  0  0  0  0  0  0  0  0
   40.2310   33.3580   46.0590 C   0  0  0  0  0  0  0  0  0  0  0  0
   36.2119   30.0594   46.4537 H   0  0  0  0  0  0  0  0  0  0  0  0
   36.7904   30.9560   44.2345 H   0  0  0  0  0  0  0  0  0  0  0  0
   38.0153   30.6164   52.1607 H   0  0  0  0  0  0  0  0  0  0  0  0
   38.7859   31.6719   50.0206 H   0  0  0  0  0  0  0  0  0  0  0  0
   35.1923   28.2899   50.0310 H   0  0  0  0  0  0  0  0  0  0  0  0
   40.5518   33.6189   47.0783 H   0  0  0  0  0  0  0  0  0  0  0  0
   41.0635   32.8774   45.5243 H   0  0  0  0  0  0  0  0  0  0  0  0
   39.9301   34.2710   45.5243 H   0  0  0  0  0  0  0  0  0  0  0  0
  1  9  1  0
  2  1  2  0
  3  2  1  0
  4  3  2  0
  4  5  1  0
  5  6  2  0
  6  1  1  0
  8  7  2  0
  9 10  2  0
  9  8  1  0
 10 11  1  0
 11 12  2  0
 12  7  1  0
 13  5  1  0
  2 14  1  0
  3 15  1  0
  7 16  1  0
  8 17  1  0
 11 18  1  0
 13 19  1  0
 13 20  1  0
 13 21  1  0
M  ISO  8  14  14  15  14  16  14  17  14  18  14  19   8  20   8  21   8
M  END
>  <minimizedAffinity>  (1) 
-4.70105362

>  <minimizedRMSD>  (1) 
0.528096259

$$$$
