
     RDKit          3D

 20 21  0  0  0  0  0  0  0  0999 V2000
   37.5570   30.9520   47.6040 C   0  0  0  0  0  0  0  0  0  0  0  0
   36.8320   30.5800   46.4800 C   0  0  0  0  0  0  0  0  0  0  0  0
   37.1470   31.0320   45.2080 C   0  0  0  0  0  0  0  0  0  0  0  0
   38.1860   31.8580   45.0370 N   0  0  0  0  0  0  0  0  0  0  0  0
   38.8800   32.2110   46.1310 C   0  0  0  0  0  0  0  0  0  0  0  0
   38.6000   31.7920   47.3700 N   0  0  0  0  0  0  0  0  0  0  0  0
   37.5180   30.2770   51.3080 C   0  0  0  0  0  0  0  0  0  0  0  0
   37.9530   30.8070   50.0870 C   0  0  0  0  0  0  0  0  0  0  0  0
   37.2250   30.4780   48.9340 C   0  0  0  0  0  0  0  0  0  0  0  0
   36.1530   29.6730   49.0690 N   0  0  0  0  0  0  0  0  0  0  0  0
   35.7480   29.1710   50.2570 C   0  0  0  0  0  0  0  0  0  0  0  0
   36.4350   29.4760   51.3770 N   0  0  0  0  0  0  0  0  0  0  0  0
   40.0130   33.1120   45.9440 C   0  0  0  0  0  0  0  0  0  0  0  0
   40.1840   33.8550   44.9450 O   0  0  0  0  0  0  0  0  0  0  0  0
   35.9754   29.9010   46.6034 H   0  0  0  0  0  0  0  0  0  0  0  0
   36.5460   30.7134   44.3435 H   0  0  0  0  0  0  0  0  0  0  0  0
   38.0700   30.5185   52.2283 H   0  0  0  0  0  0  0  0  0  0  0  0
   38.8367   31.4599   50.0338 H   0  0  0  0  0  0  0  0  0  0  0  0
   34.8642   28.5182   50.3100 H   0  0  0  0  0  0  0  0  0  0  0  0
   40.7745   33.1430   46.7372 H   0  0  0  0  0  0  0  0  0  0  0  0
  1  9  1  0
  2  1  2  0
  3  2  1  0
  4  3  2  0
  4  5  1  0
  5  6  2  0
  6  1  1  0
  7 12  2  0
  8  7  1  0
  9 10  1  0
  9  8  2  0
 10 11  2  0
 11 12  1  0
 13  5  1  0
 14 13  2  0
  2 15  1  0
  3 16  1  0
  7 17  1  0
  8 18  1  0
 11 19  1  0
 13 20  1  0
M  ISO  6  15  14  16  14  17  14  18  14  19  14  20   6
M  END
>  <minimizedAffinity>  (1) 
-4.66221046

>  <minimizedRMSD>  (1) 
0.711370111

$$$$
