
     RDKit          3D

 21 22  0  0  0  0  0  0  0  0999 V2000
   37.7750   31.0590   47.4220 C   0  0  0  0  0  0  0  0  0  0  0  0
   37.0220   30.7330   46.3180 C   0  0  0  0  0  0  0  0  0  0  0  0
   37.3040   31.2150   45.0520 C   0  0  0  0  0  0  0  0  0  0  0  0
   38.3590   32.0410   44.8840 N   0  0  0  0  0  0  0  0  0  0  0  0
   39.0820   32.3500   45.9650 C   0  0  0  0  0  0  0  0  0  0  0  0
   38.8150   31.8870   47.1910 N   0  0  0  0  0  0  0  0  0  0  0  0
   37.6960   30.3820   51.1290 C   0  0  0  0  0  0  0  0  0  0  0  0
   38.0940   30.9650   49.9190 C   0  0  0  0  0  0  0  0  0  0  0  0
   37.4660   30.5420   48.7580 C   0  0  0  0  0  0  0  0  0  0  0  0
   36.5130   29.5950   48.8630 N   0  0  0  0  0  0  0  0  0  0  0  0
   36.1390   29.0400   50.0360 C   0  0  0  0  0  0  0  0  0  0  0  0
   36.7470   29.4480   51.1770 N   0  0  0  0  0  0  0  0  0  0  0  0
   40.2520   33.2580   45.8110 C   0  0  0  0  0  0  0  0  0  0  0  0
   40.3870   33.9910   46.9810 F   0  0  0  0  0  0  0  0  0  0  0  0
   41.4140   32.5350   45.5420 F   0  0  0  0  0  0  0  0  0  0  0  0
   40.0820   34.1470   44.7960 F   0  0  0  0  0  0  0  0  0  0  0  0
   36.1603   30.0616   46.4469 H   0  0  0  0  0  0  0  0  0  0  0  0
   36.6774   30.9293   44.1942 H   0  0  0  0  0  0  0  0  0  0  0  0
   38.1793   30.7035   52.0634 H   0  0  0  0  0  0  0  0  0  0  0  0
   38.8800   31.7341   49.8911 H   0  0  0  0  0  0  0  0  0  0  0  0
   35.3542   28.2698   50.0652 H   0  0  0  0  0  0  0  0  0  0  0  0
  1  9  1  0
  2  1  2  0
  3  2  1  0
  4  3  2  0
  4  5  1  0
  5  6  2  0
  6  1  1  0
  7 12  2  0
  8  7  1  0
  9 10  1  0
  9  8  2  0
 10 11  2  0
 11 12  1  0
 13  5  1  0
 13 14  1  0
 15 13  1  0
 16 13  1  0
  2 17  1  0
  3 18  1  0
  7 19  1  0
  8 20  1  0
 11 21  1  0
M  ISO  5  17  14  18  14  19  14  20  14  21  14
M  END
>  <minimizedAffinity>  (1) 
-5.78175211

>  <minimizedRMSD>  (1) 
0.991246283

$$$$
