
     RDKit          3D

 28 30  0  0  0  0  0  0  0  0999 V2000
   37.1010   29.6770   49.8480 C   0  0  0  0  0  0  0  0  0  0  0  0
   37.6760   30.3640   48.7740 C   0  0  0  0  0  0  0  0  0  0  0  0
   36.9810   30.4930   47.5870 C   0  0  0  0  0  0  0  0  0  0  0  0
   35.7460   29.9310   47.5280 N   0  0  0  0  0  0  0  0  0  0  0  0
   35.2100   29.2760   48.5670 C   0  0  0  0  0  0  0  0  0  0  0  0
   35.8910   29.1520   49.7230 N   0  0  0  0  0  0  0  0  0  0  0  0
   37.4830   31.1720   46.4010 C   0  0  0  0  0  0  0  0  0  0  0  0
   36.8750   31.0420   45.1780 C   0  0  0  0  0  0  0  0  0  0  0  0
   37.3510   31.6770   44.0400 C   0  0  0  0  0  0  0  0  0  0  0  0
   38.4540   32.4580   44.1260 N   0  0  0  0  0  0  0  0  0  0  0  0
   39.0310   32.5710   45.3290 C   0  0  0  0  0  0  0  0  0  0  0  0
   38.5820   31.9640   46.4350 N   0  0  0  0  0  0  0  0  0  0  0  0
   40.2470   33.4210   45.4650 C   0  0  0  0  0  0  0  0  0  0  0  0
   40.2810   33.9180   46.7480 F   0  0  0  0  0  0  0  0  0  0  0  0
   41.4010   32.6780   45.1650 F   0  0  0  0  0  0  0  0  0  0  0  0
   40.2170   34.4860   44.6180 F   0  0  0  0  0  0  0  0  0  0  0  0
   33.8430   28.7270   48.3130 C   0  0  0  0  0  0  0  0  0  0  0  0
   32.9530   28.0000   48.9630 C   0  0  0  0  0  0  0  0  0  0  0  0
   31.7660   27.6990   48.3590 C   0  0  0  0  0  0  0  0  0  0  0  0
   31.5690   28.1930   47.0620 C   0  0  0  0  0  0  0  0  0  0  0  0
   33.1970   29.1180   46.7650 S   0  0  0  0  0  0  0  0  0  0  0  0
   37.6521   29.5728   50.7943 H   0  0  0  0  0  0  0  0  0  0  0  0
   38.6804   30.8011   48.8743 H   0  0  0  0  0  0  0  0  0  0  0  0
   35.9774   30.4113   45.0967 H   0  0  0  0  0  0  0  0  0  0  0  0
   36.8369   31.5472   43.0762 H   0  0  0  0  0  0  0  0  0  0  0  0
   33.1656   27.6405   49.9806 H   0  0  0  0  0  0  0  0  0  0  0  0
   30.9990   27.0961   48.8672 H   0  0  0  0  0  0  0  0  0  0  0  0
   30.7021   28.0754   46.3952 H   0  0  0  0  0  0  0  0  0  0  0  0
  2  1  2  0
  3  2  1  0
  4  3  2  0
  4  5  1  0
  5  6  2  0
  6  1  1  0
  7 12  1  0
  7  3  1  0
  8  7  2  0
  9 10  2  0
  9  8  1  0
 10 11  1  0
 11 13  1  0
 11 12  2  0
 13 14  1  0
 15 13  1  0
 16 13  1  0
 17  5  1  0
 17 18  2  0
 19 18  1  0
 20 19  2  0
 21 20  1  0
 21 17  1  0
  1 22  1  0
  2 23  1  0
  8 24  1  0
  9 25  1  0
 18 26  1  0
 19 27  1  0
 20 28  1  0
M  ISO  7  22  14  23  14  24  14  25  14  26  14  27  14  28  14
M  END
>  <minimizedAffinity>  (1) 
-5.98362732

>  <minimizedRMSD>  (1) 
1.85814238

$$$$
