
     RDKit          3D

 23 24  0  0  0  0  0  0  0  0999 V2000
   37.7370   31.1390   47.3510 C   0  0  0  0  0  0  0  0  0  0  0  0
   37.0270   30.7890   46.2140 C   0  0  0  0  0  0  0  0  0  0  0  0
   37.3540   31.2330   44.9490 C   0  0  0  0  0  0  0  0  0  0  0  0
   38.4230   32.0540   44.8070 N   0  0  0  0  0  0  0  0  0  0  0  0
   39.0960   32.3830   45.9050 C   0  0  0  0  0  0  0  0  0  0  0  0
   38.7800   31.9530   47.1280 N   0  0  0  0  0  0  0  0  0  0  0  0
   37.6120   30.3920   51.0330 C   0  0  0  0  0  0  0  0  0  0  0  0
   38.0850   30.9220   49.8160 C   0  0  0  0  0  0  0  0  0  0  0  0
   37.3600   30.6510   48.6690 C   0  0  0  0  0  0  0  0  0  0  0  0
   36.2570   29.9020   48.7850 N   0  0  0  0  0  0  0  0  0  0  0  0
   35.8140   29.4000   49.9560 C   0  0  0  0  0  0  0  0  0  0  0  0
   36.5050   29.6520   51.0880 N   0  0  0  0  0  0  0  0  0  0  0  0
   34.6020   28.5930   50.0020 C   0  0  0  0  0  0  0  0  0  0  0  0
   34.3270   27.7940   49.0760 O   0  0  0  0  0  0  0  0  0  0  0  0
   40.2750   33.2860   45.7770 C   0  0  0  0  0  0  0  0  0  0  0  0
   40.3940   34.0090   46.9660 F   0  0  0  0  0  0  0  0  0  0  0  0
   41.4290   32.5690   45.5100 F   0  0  0  0  0  0  0  0  0  0  0  0
   40.1040   34.2070   44.7810 F   0  0  0  0  0  0  0  0  0  0  0  0
   36.1584   30.1233   46.3253 H   0  0  0  0  0  0  0  0  0  0  0  0
   36.7601   30.9273   44.0750 H   0  0  0  0  0  0  0  0  0  0  0  0
   38.1696   30.5938   51.9595 H   0  0  0  0  0  0  0  0  0  0  0  0
   39.0003   31.5310   49.7790 H   0  0  0  0  0  0  0  0  0  0  0  0
   33.9198   28.6859   50.8598 H   0  0  0  0  0  0  0  0  0  0  0  0
  1  9  1  0
  2  1  2  0
  3  2  1  0
  4  3  2  0
  4  5  1  0
  5  6  2  0
  6  1  1  0
  7 12  2  0
  8  7  1  0
  9 10  1  0
  9  8  2  0
 10 11  2  0
 11 13  1  0
 11 12  1  0
 14 13  2  0
 15  5  1  0
 15 16  1  0
 17 15  1  0
 18 15  1  0
  2 19  1  0
  3 20  1  0
  7 21  1  0
  8 22  1  0
 13 23  1  0
M  ISO  5  19  14  20  14  21  14  22  14  23   6
M  END
>  <minimizedAffinity>  (1) 
-5.91697598

>  <minimizedRMSD>  (1) 
0.350421697

$$$$
