
     RDKit          3D

 45 48  0  0  1  0  0  0  0  0999 V2000
   37.3060   31.1220   46.0160 C   0  0  2  0  0  0  0  0  0  0  0  0
   37.5670   30.3900   44.7420 C   0  0  0  0  0  0  0  0  0  0  0  0
   38.8170   29.5290   44.8480 C   0  0  0  0  0  0  0  0  0  0  0  0
   40.0300   30.3770   45.1720 C   0  0  0  0  0  0  0  0  0  0  0  0
   39.7760   31.4190   46.2230 C   0  0  0  0  0  0  0  0  0  0  0  0
   38.4790   31.1420   46.9680 C   0  0  1  0  0  0  0  0  0  0  0  0
   38.2680   32.1190   47.9820 N   0  0  0  0  0  0  0  0  0  0  0  0
   38.8780   33.4070   47.7540 C   0  0  0  0  0  0  0  0  0  0  0  0
   38.6930   34.0970   49.1080 C   0  0  0  0  0  0  0  0  0  0  0  0
   38.2760   33.0130   50.0600 C   0  0  0  0  0  0  0  0  0  0  0  0
   38.7570   31.7820   49.2630 C   0  0  1  0  0  0  0  0  0  0  0  0
   38.1210   30.6380   49.9490 C   0  0  0  0  0  0  0  0  0  0  0  0
   37.4300   30.6550   51.1710 C   0  0  0  0  0  0  0  0  0  0  0  0
   36.9770   29.3960   51.4930 C   0  0  0  0  0  0  0  0  0  0  0  0
   37.4190   28.6400   50.4310 C   0  0  0  0  0  0  0  0  0  0  0  0
   38.0620   29.4050   49.5870 O   0  0  0  0  0  0  0  0  0  0  0  0
   36.1330   30.6010   46.7510 C   0  0  0  0  0  0  0  0  0  0  0  0
   35.3460   29.6900   46.0450 C   0  0  0  0  0  0  0  0  0  0  0  0
   34.2110   29.1800   46.6980 C   0  0  0  0  0  0  0  0  0  0  0  0
   33.9460   29.6020   47.9820 N   0  0  0  0  0  0  0  0  0  0  0  0
   34.7630   30.5040   48.6290 C   0  0  0  0  0  0  0  0  0  0  0  0
   35.8510   30.9940   48.0010 N   0  0  0  0  0  0  0  0  0  0  0  0
   37.1099   32.1500   45.6772 H   0  0  0  0  0  0  0  0  0  0  0  0
   37.7018   31.1198   43.9301 H   0  0  0  0  0  0  0  0  0  0  0  0
   36.7087   29.7338   44.5353 H   0  0  0  0  0  0  0  0  0  0  0  0
   38.6749   28.7839   45.6447 H   0  0  0  0  0  0  0  0  0  0  0  0
   38.9840   29.0303   43.8819 H   0  0  0  0  0  0  0  0  0  0  0  0
   40.8322   29.7137   45.5276 H   0  0  0  0  0  0  0  0  0  0  0  0
   40.3039   30.9110   44.2501 H   0  0  0  0  0  0  0  0  0  0  0  0
   40.6098   31.4161   46.9404 H   0  0  0  0  0  0  0  0  0  0  0  0
   39.6929   32.3988   45.7300 H   0  0  0  0  0  0  0  0  0  0  0  0
   38.5623   30.1519   47.4401 H   0  0  0  0  0  0  0  0  0  0  0  0
   39.9436   33.3044   47.5010 H   0  0  0  0  0  0  0  0  0  0  0  0
   38.4374   33.9613   46.9122 H   0  0  0  0  0  0  0  0  0  0  0  0
   39.6371   34.5552   49.4376 H   0  0  0  0  0  0  0  0  0  0  0  0
   37.9456   34.9024   49.0557 H   0  0  0  0  0  0  0  0  0  0  0  0
   38.7864   33.0995   51.0306 H   0  0  0  0  0  0  0  0  0  0  0  0
   37.2100   33.0101   50.3312 H   0  0  0  0  0  0  0  0  0  0  0  0
   39.8241   31.5250   49.1911 H   0  0  0  0  0  0  0  0  0  0  0  0
   37.2722   31.5524   51.7872 H   0  0  0  0  0  0  0  0  0  0  0  0
   36.4057   29.0748   52.3764 H   0  0  0  0  0  0  0  0  0  0  0  0
   37.2565   27.5588   50.3106 H   0  0  0  0  0  0  0  0  0  0  0  0
   35.6034   29.3840   45.0203 H   0  0  0  0  0  0  0  0  0  0  0  0
   33.5490   28.4598   46.1949 H   0  0  0  0  0  0  0  0  0  0  0  0
   34.5281   30.8233   49.6551 H   0  0  0  0  0  0  0  0  0  0  0  0
  1 17  1  0
  1  6  1  0
  2  3  1  0
  2  1  1  0
  3  4  1  0
  4  5  1  0
  5  6  1  0
  6  7  1  0
  7  8  1  0
  7 11  1  0
  8  9  1  0
  9 10  1  0
 11 12  1  0
 11 10  1  0
 12 13  2  0
 13 14  1  0
 15 14  2  0
 16 12  1  0
 16 15  1  0
 17 22  2  0
 18 19  2  0
 18 17  1  0
 19 20  1  0
 20 21  2  0
 22 21  1  0
  1 23  1  6
  2 24  1  0
  2 25  1  0
  3 26  1  0
  3 27  1  0
  4 28  1  0
  4 29  1  0
  5 30  1  0
  5 31  1  0
  6 32  1  1
  8 33  1  0
  8 34  1  0
  9 35  1  0
  9 36  1  0
 10 37  1  0
 10 38  1  0
 11 39  1  6
 13 40  1  0
 14 41  1  0
 15 42  1  0
 18 43  1  0
 19 44  1  0
 21 45  1  0
M  ISO  8  23  13  24  13  25  13  26  13  27  13  28  13  29  13  30  13
M  ISO  8  31  13  32  13  33  13  34  13  35  13  36  13  37  13  38  13
M  ISO  7  39  13  40  14  41  14  42  14  43  14  44  14  45  14
M  END
>  <minimizedAffinity>  (1) 
-4.51916265

>  <minimizedRMSD>  (1) 
1.86067283

$$$$
