
     RDKit          3D

 36 39  0  0  0  0  0  0  0  0999 V2000
   37.1570   29.9390   50.9070 C   0  0  0  0  0  0  0  0  0  0  0  0
   37.7320   30.4850   49.7330 C   0  0  0  0  0  0  0  0  0  0  0  0
   36.9490   30.4550   48.5710 C   0  0  0  0  0  0  0  0  0  0  0  0
   35.7260   29.9190   48.6480 N   0  0  0  0  0  0  0  0  0  0  0  0
   35.1930   29.4040   49.7650 C   0  0  0  0  0  0  0  0  0  0  0  0
   35.9200   29.4170   50.9050 N   0  0  0  0  0  0  0  0  0  0  0  0
   37.4210   30.9800   47.3080 C   0  0  0  0  0  0  0  0  0  0  0  0
   36.7900   30.6740   46.1260 C   0  0  0  0  0  0  0  0  0  0  0  0
   37.2030   31.1470   44.8990 C   0  0  0  0  0  0  0  0  0  0  0  0
   38.2880   31.9590   44.8430 N   0  0  0  0  0  0  0  0  0  0  0  0
   38.8960   32.2530   45.9990 C   0  0  0  0  0  0  0  0  0  0  0  0
   38.4960   31.7930   47.1940 N   0  0  0  0  0  0  0  0  0  0  0  0
   40.0830   33.1390   45.9610 C   0  0  0  0  0  0  0  0  0  0  0  0
   40.1480   33.7990   47.2000 F   0  0  0  0  0  0  0  0  0  0  0  0
   41.2390   32.4390   45.7130 F   0  0  0  0  0  0  0  0  0  0  0  0
   39.9510   34.1380   45.0250 F   0  0  0  0  0  0  0  0  0  0  0  0
   33.9300   28.8890   49.6890 O   0  0  0  0  0  0  0  0  0  0  0  0
   33.5840   27.9990   48.7070 C   0  0  0  0  0  0  0  0  0  0  0  0
   34.2250   27.3480   47.7490 N   0  0  0  0  0  0  0  0  0  0  0  0
   33.6770   26.4990   46.8710 C   0  0  0  0  0  0  0  0  0  0  0  0
   32.3600   26.2240   46.8960 N   0  0  0  0  0  0  0  0  0  0  0  0
   31.6320   26.8330   47.8290 C   0  0  0  0  0  0  0  0  0  0  0  0
   30.2890   26.5270   47.8210 C   0  0  0  0  0  0  0  0  0  0  0  0
   29.4610   27.1120   48.7530 C   0  0  0  0  0  0  0  0  0  0  0  0
   29.9770   27.9890   49.6720 C   0  0  0  0  0  0  0  0  0  0  0  0
   31.3250   28.2540   49.6260 C   0  0  0  0  0  0  0  0  0  0  0  0
   32.2230   27.7070   48.7230 C   0  0  0  0  0  0  0  0  0  0  0  0
   37.7372   29.9428   51.8415 H   0  0  0  0  0  0  0  0  0  0  0  0
   38.7455   30.9125   49.7334 H   0  0  0  0  0  0  0  0  0  0  0  0
   35.9086   30.0168   46.1611 H   0  0  0  0  0  0  0  0  0  0  0  0
   36.6624   30.8709   43.9817 H   0  0  0  0  0  0  0  0  0  0  0  0
   34.3149   26.0174   46.1153 H   0  0  0  0  0  0  0  0  0  0  0  0
   29.8828   25.8238   47.0791 H   0  0  0  0  0  0  0  0  0  0  0  0
   28.3867   26.8759   48.7602 H   0  0  0  0  0  0  0  0  0  0  0  0
   29.3314   28.4664   50.4238 H   0  0  0  0  0  0  0  0  0  0  0  0
   31.7249   28.9600   50.3687 H   0  0  0  0  0  0  0  0  0  0  0  0
  2  1  2  0
  3  4  2  0
  3  2  1  0
  4  5  1  0
  5  6  2  0
  6  1  1  0
  7  3  1  0
  8  7  2  0
  9  8  1  0
 10  9  2  0
 10 11  1  0
 11 12  2  0
 12  7  1  0
 13 11  1  0
 13 14  1  0
 15 13  1  0
 16 13  1  0
 17  5  1  0
 18 27  1  0
 18 17  1  0
 19 18  2  0
 20 21  2  0
 20 19  1  0
 21 22  1  0
 22 27  2  0
 23 22  1  0
 23 24  2  0
 24 25  1  0
 26 25  2  0
 27 26  1  0
  1 28  1  0
  2 29  1  0
  8 30  1  0
  9 31  1  0
 20 32  1  0
 23 33  1  0
 24 34  1  0
 25 35  1  0
 26 36  1  0
M  ISO  8  28  14  29  14  30  14  31  14  32  14  33  14  34  14  35  14
M  ISO  1  36  14
M  END
>  <minimizedAffinity>  (1) 
-6.78186464

>  <minimizedRMSD>  (1) 
0.87051785

$$$$
