
     RDKit          3D

 31 32  0  0  0  0  0  0  0  0999 V2000
   37.6710   30.3590   51.1140 C   0  0  0  0  0  0  0  0  0  0  0  0
   38.0970   30.9240   49.8970 C   0  0  0  0  0  0  0  0  0  0  0  0
   37.4130   30.5700   48.7480 C   0  0  0  0  0  0  0  0  0  0  0  0
   36.3800   29.7080   48.8530 N   0  0  0  0  0  0  0  0  0  0  0  0
   35.9890   29.1780   50.0350 C   0  0  0  0  0  0  0  0  0  0  0  0
   36.6420   29.5100   51.1560 N   0  0  0  0  0  0  0  0  0  0  0  0
   37.7370   31.0660   47.4140 C   0  0  0  0  0  0  0  0  0  0  0  0
   36.9930   30.7250   46.3030 C   0  0  0  0  0  0  0  0  0  0  0  0
   37.2930   31.1840   45.0350 C   0  0  0  0  0  0  0  0  0  0  0  0
   38.3640   32.0070   44.8640 N   0  0  0  0  0  0  0  0  0  0  0  0
   39.0680   32.3230   45.9490 C   0  0  0  0  0  0  0  0  0  0  0  0
   38.7920   31.8860   47.1920 N   0  0  0  0  0  0  0  0  0  0  0  0
   40.2400   33.2160   45.7950 C   0  0  0  0  0  0  0  0  0  0  0  0
   40.3770   33.9600   46.9610 F   0  0  0  0  0  0  0  0  0  0  0  0
   41.4040   32.4990   45.5590 F   0  0  0  0  0  0  0  0  0  0  0  0
   40.0690   34.1220   44.7790 F   0  0  0  0  0  0  0  0  0  0  0  0
   34.9160   28.3080   50.0010 O   0  0  0  0  0  0  0  0  0  0  0  0
   33.7820   28.5040   49.2580 C   0  0  0  0  0  0  0  0  0  0  0  0
   33.1370   27.9590   48.2370 C   0  0  0  0  0  0  0  0  0  0  0  0
   33.7910   26.7510   47.6670 C   0  0  0  0  0  0  0  0  0  0  0  0
   38.1945   30.6214   52.0452 H   0  0  0  0  0  0  0  0  0  0  0  0
   38.9452   31.6234   49.8610 H   0  0  0  0  0  0  0  0  0  0  0  0
   36.1258   30.0607   46.4322 H   0  0  0  0  0  0  0  0  0  0  0  0
   36.6746   30.8884   44.1747 H   0  0  0  0  0  0  0  0  0  0  0  0
   33.0055   28.4958   50.0371 H   0  0  0  0  0  0  0  0  0  0  0  0
   34.2689   29.2539   48.6172 H   0  0  0  0  0  0  0  0  0  0  0  0
   32.1305   27.6757   48.5785 H   0  0  0  0  0  0  0  0  0  0  0  0
   33.1238   28.7139   47.4370 H   0  0  0  0  0  0  0  0  0  0  0  0
   34.1415   26.1036   48.4844 H   0  0  0  0  0  0  0  0  0  0  0  0
   33.0678   26.2003   47.0475 H   0  0  0  0  0  0  0  0  0  0  0  0
   34.6474   27.0555   47.0475 H   0  0  0  0  0  0  0  0  0  0  0  0
  1  6  2  0
  2  1  1  0
  3  4  1  0
  3  2  2  0
  4  5  2  0
  5  6  1  0
  7  3  1  0
  8  7  2  0
  9  8  1  0
 10  9  2  0
 10 11  1  0
 11 12  2  0
 12  7  1  0
 13 11  1  0
 13 14  1  0
 15 13  1  0
 16 13  1  0
 17  5  1  0
 18 17  1  0
 19 18  1  0
 20 19  1  0
  1 21  1  0
  2 22  1  0
  8 23  1  0
  9 24  1  0
 18 25  1  0
 18 26  1  0
 19 27  1  0
 19 28  1  0
 20 29  1  0
 20 30  1  0
 20 31  1  0
M  ISO  8  21  14  22  14  23  14  24  14  25   8  26   8  27   8  28   8
M  ISO  3  29   8  30   8  31   8
M  END
>  <minimizedAffinity>  (1) 
-6.34552765

>  <minimizedRMSD>  (1) 
0.666750193

$$$$
