
     RDKit          3D

 32 34  0  0  0  0  0  0  0  0999 V2000
   37.8140   30.4100   51.1000 C   0  0  0  0  0  0  0  0  0  0  0  0
   38.2200   30.9780   49.8810 C   0  0  0  0  0  0  0  0  0  0  0  0
   37.5940   30.5370   48.7250 C   0  0  0  0  0  0  0  0  0  0  0  0
   36.6430   29.5970   48.8490 N   0  0  0  0  0  0  0  0  0  0  0  0
   36.2650   29.0630   50.0190 C   0  0  0  0  0  0  0  0  0  0  0  0
   36.8550   29.4730   51.1520 N   0  0  0  0  0  0  0  0  0  0  0  0
   37.9010   31.0650   47.4110 C   0  0  0  0  0  0  0  0  0  0  0  0
   37.1130   30.7530   46.3160 C   0  0  0  0  0  0  0  0  0  0  0  0
   37.3500   31.2490   45.0560 C   0  0  0  0  0  0  0  0  0  0  0  0
   38.4040   32.0830   44.8650 N   0  0  0  0  0  0  0  0  0  0  0  0
   39.1570   32.3730   45.9370 C   0  0  0  0  0  0  0  0  0  0  0  0
   38.9420   31.8990   47.1780 N   0  0  0  0  0  0  0  0  0  0  0  0
   40.3180   33.2840   45.7570 C   0  0  0  0  0  0  0  0  0  0  0  0
   40.4310   34.0570   46.9240 F   0  0  0  0  0  0  0  0  0  0  0  0
   41.4690   32.5800   45.5170 F   0  0  0  0  0  0  0  0  0  0  0  0
   40.1100   34.1880   44.7410 F   0  0  0  0  0  0  0  0  0  0  0  0
   35.2660   28.1040   49.9640 O   0  0  0  0  0  0  0  0  0  0  0  0
   33.2870   27.1710   46.9990 N   0  0  0  0  0  0  0  0  0  0  0  0
   34.1730   27.0070   47.9980 C   0  0  0  0  0  0  0  0  0  0  0  0
   34.4130   28.0430   48.8770 C   0  0  0  0  0  0  0  0  0  0  0  0
   33.7150   29.2390   48.6940 C   0  0  0  0  0  0  0  0  0  0  0  0
   33.7690   30.3070   49.3650 O   0  0  0  0  0  0  0  0  0  0  0  0
   32.8310   29.3550   47.6710 N   0  0  0  0  0  0  0  0  0  0  0  0
   32.6180   28.3240   46.8260 C   0  0  0  0  0  0  0  0  0  0  0  0
   31.8040   28.3860   45.8570 O   0  0  0  0  0  0  0  0  0  0  0  0
   38.2932   30.7409   52.0332 H   0  0  0  0  0  0  0  0  0  0  0  0
   39.0070   31.7457   49.8448 H   0  0  0  0  0  0  0  0  0  0  0  0
   36.2576   30.0768   46.4611 H   0  0  0  0  0  0  0  0  0  0  0  0
   36.6957   30.9743   44.2155 H   0  0  0  0  0  0  0  0  0  0  0  0
   33.1165   26.3910   46.3483 H   0  0  0  0  0  0  0  0  0  0  0  0
   34.7040   26.0506   48.1136 H   0  0  0  0  0  0  0  0  0  0  0  0
   32.3177   30.2380   47.5380 H   0  0  0  0  0  0  0  0  0  0  0  0
  1  6  2  0
  2  1  1  0
  3  4  1  0
  3  2  2  0
  4  5  2  0
  5  6  1  0
  7  3  1  0
  8  7  2  0
  9  8  1  0
 10  9  2  0
 10 11  1  0
 11 12  2  0
 12  7  1  0
 13 11  1  0
 13 14  1  0
 15 13  1  0
 16 13  1  0
 17  5  1  0
 18 19  1  0
 19 20  2  0
 20 17  1  0
 21 20  1  0
 21 22  2  0
 23 21  1  0
 24 18  1  0
 24 23  1  0
 25 24  2  0
  1 26  1  0
  2 27  1  0
  8 28  1  0
  9 29  1  0
 18 30  1  0
 19 31  1  0
 23 32  1  0
M  ISO  7  26  14  27  14  28  14  29  14  30   9  31  14  32   9
M  END
>  <minimizedAffinity>  (1) 
-6.35906363

>  <minimizedRMSD>  (1) 
0.686527848

$$$$
