
     RDKit          3D

 13 13  0  0  0  0  0  0  0  0999 V2000
   37.3650   30.2200   51.3340 C   0  0  0  0  0  0  0  0  0  0  0  0
   38.0220   30.6880   50.1600 C   0  0  0  0  0  0  0  0  0  0  0  0
   37.4890   30.3060   48.9290 C   0  0  0  0  0  0  0  0  0  0  0  0
   36.3850   29.5160   48.9060 N   0  0  0  0  0  0  0  0  0  0  0  0
   35.7880   29.0910   50.0460 C   0  0  0  0  0  0  0  0  0  0  0  0
   36.2790   29.4440   51.2480 N   0  0  0  0  0  0  0  0  0  0  0  0
   38.1700   30.7920   47.6980 C   0  0  0  0  0  0  0  0  0  0  0  0
   37.7555   30.5002   52.3234 H   0  0  0  0  0  0  0  0  0  0  0  0
   38.9157   31.3264   50.2219 H   0  0  0  0  0  0  0  0  0  0  0  0
   34.8945   28.4520   49.9882 H   0  0  0  0  0  0  0  0  0  0  0  0
   39.0359   31.4100   47.9777 H   0  0  0  0  0  0  0  0  0  0  0  0
   38.5104   29.9315   47.1033 H   0  0  0  0  0  0  0  0  0  0  0  0
   37.4669   31.3937   47.1033 H   0  0  0  0  0  0  0  0  0  0  0  0
  2  1  2  0
  3  2  1  0
  4  3  2  0
  4  5  1  0
  5  6  2  0
  6  1  1  0
  7  3  1  0
  1  8  1  0
  2  9  1  0
  5 10  1  0
  7 11  1  0
  7 12  1  0
  7 13  1  0
M  ISO  6   8  14   9  14  10  14  11   8  12   8  13   8
M  END
>  <minimizedAffinity>  (1) 
-3.2942667

>  <minimizedRMSD>  (1) 
0.208824962

$$$$
