
     RDKit          3D

 40 43  0  0  0  0  0  0  0  0999 V2000
   37.6560   30.3300   51.0150 C   0  0  0  0  0  0  0  0  0  0  0  0
   38.1470   30.8610   49.8140 C   0  0  0  0  0  0  0  0  0  0  0  0
   37.4160   30.6290   48.6680 C   0  0  0  0  0  0  0  0  0  0  0  0
   36.2870   29.9140   48.7780 N   0  0  0  0  0  0  0  0  0  0  0  0
   35.8240   29.4100   49.9320 C   0  0  0  0  0  0  0  0  0  0  0  0
   36.5140   29.6210   51.0530 N   0  0  0  0  0  0  0  0  0  0  0  0
   37.8080   31.1280   47.3660 C   0  0  0  0  0  0  0  0  0  0  0  0
   37.1010   30.7780   46.2220 C   0  0  0  0  0  0  0  0  0  0  0  0
   37.4260   31.2260   44.9660 C   0  0  0  0  0  0  0  0  0  0  0  0
   38.4900   32.0520   44.8250 N   0  0  0  0  0  0  0  0  0  0  0  0
   39.1600   32.3810   45.9310 C   0  0  0  0  0  0  0  0  0  0  0  0
   38.8620   31.9560   47.1750 N   0  0  0  0  0  0  0  0  0  0  0  0
   40.3320   33.2870   45.8040 C   0  0  0  0  0  0  0  0  0  0  0  0
   40.4200   34.0250   47.0060 F   0  0  0  0  0  0  0  0  0  0  0  0
   41.4780   32.6000   45.5460 F   0  0  0  0  0  0  0  0  0  0  0  0
   40.1270   34.2460   44.8280 F   0  0  0  0  0  0  0  0  0  0  0  0
   34.6330   28.6910   49.8670 O   0  0  0  0  0  0  0  0  0  0  0  0
   33.6150   26.6580   46.9920 N   0  0  0  0  0  0  0  0  0  0  0  0
   34.1000   26.9130   48.2140 C   0  0  0  0  0  0  0  0  0  0  0  0
   34.1740   28.2100   48.6620 C   0  0  0  0  0  0  0  0  0  0  0  0
   33.7340   29.2360   47.8170 C   0  0  0  0  0  0  0  0  0  0  0  0
   33.7120   30.4870   48.0270 O   0  0  0  0  0  0  0  0  0  0  0  0
   33.2540   28.9120   46.5930 N   0  0  0  0  0  0  0  0  0  0  0  0
   33.1930   27.6380   46.1810 C   0  0  0  0  0  0  0  0  0  0  0  0
   32.7510   27.2980   45.0440 O   0  0  0  0  0  0  0  0  0  0  0  0
   32.7820   29.8610   45.6540 C   0  0  0  0  0  0  0  0  0  0  0  0
   31.4960   30.3360   45.6370 C   0  0  0  0  0  0  0  0  0  0  0  0
   30.9890   31.2580   44.7470 C   0  0  0  0  0  0  0  0  0  0  0  0
   31.8740   31.7120   43.8190 N   0  0  0  0  0  0  0  0  0  0  0  0
   33.1440   31.2670   43.8060 C   0  0  0  0  0  0  0  0  0  0  0  0
   33.6090   30.3630   44.6930 N   0  0  0  0  0  0  0  0  0  0  0  0
   38.2170   30.4969   51.9463 H   0  0  0  0  0  0  0  0  0  0  0  0
   39.0810   31.4414   49.7868 H   0  0  0  0  0  0  0  0  0  0  0  0
   36.2359   30.1070   46.3286 H   0  0  0  0  0  0  0  0  0  0  0  0
   36.8338   30.9201   44.0909 H   0  0  0  0  0  0  0  0  0  0  0  0
   33.5649   25.6821   46.6665 H   0  0  0  0  0  0  0  0  0  0  0  0
   34.4380   26.0870   48.8570 H   0  0  0  0  0  0  0  0  0  0  0  0
   30.8078   29.9466   46.4017 H   0  0  0  0  0  0  0  0  0  0  0  0
   29.9448   31.6018   44.7843 H   0  0  0  0  0  0  0  0  0  0  0  0
   33.8313   31.6564   43.0405 H   0  0  0  0  0  0  0  0  0  0  0  0
  1  6  2  0
  2  1  1  0
  3  4  1  0
  3  2  2  0
  4  5  2  0
  5  6  1  0
  7  3  1  0
  8  7  2  0
  9  8  1  0
 10  9  2  0
 10 11  1  0
 11 12  2  0
 12  7  1  0
 13 11  1  0
 13 14  1  0
 15 13  1  0
 16 13  1  0
 17  5  1  0
 18 19  1  0
 19 20  2  0
 20 17  1  0
 21 22  2  0
 21 20  1  0
 23 21  1  0
 24 23  1  0
 24 18  1  0
 25 24  2  0
 26 23  1  0
 27 26  2  0
 28 27  1  0
 29 28  2  0
 30 29  1  0
 30 31  2  0
 31 26  1  0
  1 32  1  0
  2 33  1  0
  8 34  1  0
  9 35  1  0
 18 36  1  0
 19 37  1  0
 27 38  1  0
 28 39  1  0
 30 40  1  0
M  ISO  8  32  14  33  14  34  14  35  14  36   9  37  14  38  14  39  14
M  ISO  1  40  14
M  END
>  <minimizedAffinity>  (1) 
-6.73754072

>  <minimizedRMSD>  (1) 
1.38896418

$$$$
