
     RDKit          3D

 39 42  0  0  0  0  0  0  0  0999 V2000
   37.6250   30.2910   50.9520 C   0  0  0  0  0  0  0  0  0  0  0  0
   38.1350   30.8250   49.7530 C   0  0  0  0  0  0  0  0  0  0  0  0
   37.3870   30.6500   48.6100 C   0  0  0  0  0  0  0  0  0  0  0  0
   36.2350   29.9870   48.7170 N   0  0  0  0  0  0  0  0  0  0  0  0
   35.7570   29.4830   49.8620 C   0  0  0  0  0  0  0  0  0  0  0  0
   36.4600   29.6370   50.9900 N   0  0  0  0  0  0  0  0  0  0  0  0
   37.8050   31.1510   47.3210 C   0  0  0  0  0  0  0  0  0  0  0  0
   37.1150   30.7890   46.1670 C   0  0  0  0  0  0  0  0  0  0  0  0
   37.4610   31.2320   44.9080 C   0  0  0  0  0  0  0  0  0  0  0  0
   38.5290   32.0660   44.7850 N   0  0  0  0  0  0  0  0  0  0  0  0
   39.1790   32.4020   45.9020 C   0  0  0  0  0  0  0  0  0  0  0  0
   38.8540   31.9770   47.1440 N   0  0  0  0  0  0  0  0  0  0  0  0
   40.3510   33.3120   45.7950 C   0  0  0  0  0  0  0  0  0  0  0  0
   40.4270   34.0370   47.0060 F   0  0  0  0  0  0  0  0  0  0  0  0
   41.5000   32.6270   45.5460 F   0  0  0  0  0  0  0  0  0  0  0  0
   40.1560   34.2780   44.8280 F   0  0  0  0  0  0  0  0  0  0  0  0
   34.5320   28.8170   49.7950 O   0  0  0  0  0  0  0  0  0  0  0  0
   33.5810   26.6500   46.9890 N   0  0  0  0  0  0  0  0  0  0  0  0
   34.0390   26.9650   48.2020 C   0  0  0  0  0  0  0  0  0  0  0  0
   34.0970   28.2910   48.6010 C   0  0  0  0  0  0  0  0  0  0  0  0
   33.6720   29.2680   47.7140 C   0  0  0  0  0  0  0  0  0  0  0  0
   33.6390   30.5190   47.8670 O   0  0  0  0  0  0  0  0  0  0  0  0
   33.2140   28.8850   46.4880 N   0  0  0  0  0  0  0  0  0  0  0  0
   33.1700   27.5950   46.1300 C   0  0  0  0  0  0  0  0  0  0  0  0
   32.7480   27.2120   44.9950 O   0  0  0  0  0  0  0  0  0  0  0  0
   32.7570   29.7900   45.5030 C   0  0  0  0  0  0  0  0  0  0  0  0
   33.6630   30.2720   44.6330 C   0  0  0  0  0  0  0  0  0  0  0  0
   33.5070   31.1330   43.6110 C   0  0  0  0  0  0  0  0  0  0  0  0
   32.0600   31.5000   43.5940 C   0  0  0  0  0  0  0  0  0  0  0  0
   31.1880   30.5590   45.0260 S   0  0  0  0  0  0  0  0  0  0  0  0
   38.2002   30.4153   51.8813 H   0  0  0  0  0  0  0  0  0  0  0  0
   39.0949   31.3618   49.7302 H   0  0  0  0  0  0  0  0  0  0  0  0
   36.2505   30.1158   46.2647 H   0  0  0  0  0  0  0  0  0  0  0  0
   36.8870   30.9185   44.0236 H   0  0  0  0  0  0  0  0  0  0  0  0
   33.5422   25.6604   46.7061 H   0  0  0  0  0  0  0  0  0  0  0  0
   34.3712   26.1707   48.8867 H   0  0  0  0  0  0  0  0  0  0  0  0
   34.6897   29.9056   44.7799 H   0  0  0  0  0  0  0  0  0  0  0  0
   34.2883   31.4939   42.9259 H   0  0  0  0  0  0  0  0  0  0  0  0
   31.5768   32.1889   42.8855 H   0  0  0  0  0  0  0  0  0  0  0  0
  1  6  2  0
  2  1  1  0
  3  4  1  0
  3  2  2  0
  4  5  2  0
  5  6  1  0
  7  3  1  0
  8  7  2  0
  9  8  1  0
 10  9  2  0
 10 11  1  0
 11 12  2  0
 12  7  1  0
 13 11  1  0
 13 14  1  0
 15 13  1  0
 16 13  1  0
 17  5  1  0
 18 19  1  0
 19 20  2  0
 20 17  1  0
 21 22  2  0
 21 20  1  0
 23 21  1  0
 24 23  1  0
 24 18  1  0
 25 24  2  0
 26 23  1  0
 27 26  2  0
 28 27  1  0
 29 28  2  0
 29 30  1  0
 30 26  1  0
  1 31  1  0
  2 32  1  0
  8 33  1  0
  9 34  1  0
 18 35  1  0
 19 36  1  0
 27 37  1  0
 28 38  1  0
 29 39  1  0
M  ISO  8  31  14  32  14  33  14  34  14  35   9  36  14  37  14  38  14
M  ISO  1  39  14
M  END
>  <minimizedAffinity>  (1) 
-6.49593735

>  <minimizedRMSD>  (1) 
1.39018965

$$$$
