
     RDKit          3D

 27 28  0  0  0  0  0  0  0  0999 V2000
   39.3120   33.0610   47.7290 C   0  0  0  0  0  0  0  0  0  0  0  0
   39.6370   32.5880   46.3600 C   0  0  0  0  0  0  0  0  0  0  0  0
   39.8560   33.5340   45.3620 C   0  0  0  0  0  0  0  0  0  0  0  0
   40.1610   33.1110   44.0710 C   0  0  0  0  0  0  0  0  0  0  0  0
   40.2410   31.7480   43.8170 C   0  0  0  0  0  0  0  0  0  0  0  0
   40.0170   30.8190   44.8350 C   0  0  0  0  0  0  0  0  0  0  0  0
   39.7120   31.2380   46.1240 C   0  0  0  0  0  0  0  0  0  0  0  0
   37.4120   32.0680   48.9320 C   0  0  0  0  0  0  0  0  0  0  0  0
   38.6710   32.0120   48.5620 C   0  0  0  0  0  0  0  0  0  0  0  0
   36.7700   29.5800   51.5830 C   0  0  0  0  0  0  0  0  0  0  0  0
   37.4400   30.5550   50.8110 C   0  0  0  0  0  0  0  0  0  0  0  0
   36.7540   31.0840   49.7260 C   0  0  0  0  0  0  0  0  0  0  0  0
   35.5060   30.6600   49.4580 N   0  0  0  0  0  0  0  0  0  0  0  0
   34.8850   29.7320   50.2020 C   0  0  0  0  0  0  0  0  0  0  0  0
   35.5130   29.1930   51.2610 N   0  0  0  0  0  0  0  0  0  0  0  0
   38.6254   33.9169   47.6516 H   0  0  0  0  0  0  0  0  0  0  0  0
   40.2576   33.3400   48.2168 H   0  0  0  0  0  0  0  0  0  0  0  0
   39.7885   34.6076   45.5918 H   0  0  0  0  0  0  0  0  0  0  0  0
   40.3352   33.8422   43.2679 H   0  0  0  0  0  0  0  0  0  0  0  0
   40.4834   31.3966   42.8032 H   0  0  0  0  0  0  0  0  0  0  0  0
   40.0827   29.7434   44.6140 H   0  0  0  0  0  0  0  0  0  0  0  0
   39.5361   30.5106   46.9302 H   0  0  0  0  0  0  0  0  0  0  0  0
   36.8226   32.9374   48.6054 H   0  0  0  0  0  0  0  0  0  0  0  0
   39.2764   31.1514   48.8828 H   0  0  0  0  0  0  0  0  0  0  0  0
   37.2733   29.1317   52.4524 H   0  0  0  0  0  0  0  0  0  0  0  0
   38.4610   30.8810   51.0587 H   0  0  0  0  0  0  0  0  0  0  0  0
   33.8639   29.4130   49.9457 H   0  0  0  0  0  0  0  0  0  0  0  0
  1  9  1  0
  2  1  1  0
  3  2  2  0
  4  3  1  0
  5  4  2  0
  5  6  1  0
  6  7  2  0
  7  2  1  0
  8 12  1  0
  9  8  2  0
 11 10  2  0
 12 11  1  0
 13 12  2  0
 13 14  1  0
 14 15  2  0
 15 10  1  0
  1 16  1  0
  1 17  1  0
  3 18  1  0
  4 19  1  0
  5 20  1  0
  6 21  1  0
  7 22  1  0
  8 23  1  0
  9 24  1  0
 10 25  1  0
 11 26  1  0
 14 27  1  0
M  ISO  8  16   8  17   8  18  14  19  14  20  14  21  14  22  14  25  14
M  ISO  2  26  14  27  14
M  END
>  <minimizedAffinity>  (1) 
-5.37097692

>  <minimizedRMSD>  (1) 
2.38121581

$$$$
