
     RDKit          3D

 24 24  0  0  0  0  0  0  0  0999 V2000
   38.1640   30.9500   47.8750 C   0  0  0  0  0  0  0  0  0  0  0  0
   38.7910   32.1060   47.8460 C   0  0  0  0  0  0  0  0  0  0  0  0
   37.3390   30.2160   51.3950 C   0  0  0  0  0  0  0  0  0  0  0  0
   37.9780   30.7410   50.2610 C   0  0  0  0  0  0  0  0  0  0  0  0
   37.4990   30.4090   49.0080 C   0  0  0  0  0  0  0  0  0  0  0  0
   36.4340   29.5900   48.8940 N   0  0  0  0  0  0  0  0  0  0  0  0
   35.8290   29.0920   49.9930 C   0  0  0  0  0  0  0  0  0  0  0  0
   36.2640   29.3930   51.2320 N   0  0  0  0  0  0  0  0  0  0  0  0
   39.4780   32.6350   46.6370 C   0  0  0  0  0  0  0  0  0  0  0  0
   41.5310   30.8070   45.8440 N   0  0  0  0  0  0  0  0  0  0  0  0
   40.4660   30.9670   45.1400 C   0  0  0  0  0  0  0  0  0  0  0  0
   39.3000   31.6450   45.5960 N   0  0  0  0  0  0  0  0  0  0  0  0
   40.4850   30.4110   43.8100 N   0  0  0  0  0  0  0  0  0  0  0  0
   41.6330   31.1620   46.8150 H   0  0  0  0  0  0  0  0  0  0  0  0
   38.1537   30.3556   46.9495 H   0  0  0  0  0  0  0  0  0  0  0  0
   38.8083   32.7130   48.7632 H   0  0  0  0  0  0  0  0  0  0  0  0
   37.7011   30.4655   52.4033 H   0  0  0  0  0  0  0  0  0  0  0  0
   38.8471   31.4068   50.3680 H   0  0  0  0  0  0  0  0  0  0  0  0
   34.9618   28.4258   49.8744 H   0  0  0  0  0  0  0  0  0  0  0  0
   39.0282   33.5915   46.3325 H   0  0  0  0  0  0  0  0  0  0  0  0
   40.5448   32.8174   46.8339 H   0  0  0  0  0  0  0  0  0  0  0  0
   38.3705   31.4400   45.2024 H   0  0  0  0  0  0  0  0  0  0  0  0
   41.3231   29.9185   43.4696 H   0  0  0  0  0  0  0  0  0  0  0  0
   39.6604   30.5063   43.2001 H   0  0  0  0  0  0  0  0  0  0  0  0
  1  5  1  0
  2  1  2  0
  4  3  2  0
  5  4  1  0
  6  5  2  0
  6  7  1  0
  7  8  2  0
  8  3  1  0
  9  2  1  0
 10 14  1  0
 11 12  1  0
 11 10  2  0
 12  9  1  0
 13 11  1  0
  1 15  1  0
  2 16  1  0
  3 17  1  0
  4 18  1  0
  7 19  1  0
  9 20  1  0
  9 21  1  0
 12 22  1  0
 13 23  1  0
 13 24  1  0
M  ISO  5  17  14  18  14  19  14  20   8  21   8
M  END
>  <minimizedAffinity>  (1) 
-5.02081394

>  <minimizedRMSD>  (1) 
2.43370771

$$$$
