
     RDKit          3D

 26 27  0  0  0  0  0  0  0  0999 V2000
   38.3290   30.8950   47.5260 C   0  0  0  0  0  0  0  0  0  0  0  0
   37.5710   31.6160   48.3100 C   0  0  0  0  0  0  0  0  0  0  0  0
   39.0290   32.8120   44.4280 C   0  0  0  0  0  0  0  0  0  0  0  0
   38.3210   32.3430   45.5510 C   0  0  0  0  0  0  0  0  0  0  0  0
   38.9690   31.4290   46.3650 C   0  0  0  0  0  0  0  0  0  0  0  0
   40.2370   31.0280   46.0560 N   0  0  0  0  0  0  0  0  0  0  0  0
   40.8860   31.4960   44.9770 C   0  0  0  0  0  0  0  0  0  0  0  0
   40.2920   32.3840   44.1620 N   0  0  0  0  0  0  0  0  0  0  0  0
   36.8890   31.0960   49.5290 C   0  0  0  0  0  0  0  0  0  0  0  0
   35.8060   30.1580   49.1160 C   0  0  0  0  0  0  0  0  0  0  0  0
   34.9540   30.3640   48.0430 C   0  0  0  0  0  0  0  0  0  0  0  0
   33.9730   29.4480   47.7210 C   0  0  0  0  0  0  0  0  0  0  0  0
   33.8980   28.3320   48.5230 C   0  0  0  0  0  0  0  0  0  0  0  0
   34.7590   28.1370   49.5960 C   0  0  0  0  0  0  0  0  0  0  0  0
   35.7100   29.0450   49.8930 N   0  0  0  0  0  0  0  0  0  0  0  0
   38.4805   29.8332   47.7700 H   0  0  0  0  0  0  0  0  0  0  0  0
   37.4271   32.6759   48.0532 H   0  0  0  0  0  0  0  0  0  0  0  0
   38.5517   33.5380   43.7534 H   0  0  0  0  0  0  0  0  0  0  0  0
   37.2997   32.6869   45.7717 H   0  0  0  0  0  0  0  0  0  0  0  0
   41.9076   31.1510   44.7598 H   0  0  0  0  0  0  0  0  0  0  0  0
   37.6164   30.5646   50.1603 H   0  0  0  0  0  0  0  0  0  0  0  0
   36.4590   31.9323   50.0997 H   0  0  0  0  0  0  0  0  0  0  0  0
   35.0615   31.2751   47.4361 H   0  0  0  0  0  0  0  0  0  0  0  0
   33.2903   29.6011   46.8722 H   0  0  0  0  0  0  0  0  0  0  0  0
   33.1331   27.5713   48.3080 H   0  0  0  0  0  0  0  0  0  0  0  0
   34.6633   27.2300   50.2110 H   0  0  0  0  0  0  0  0  0  0  0  0
  1  2  2  0
  2  9  1  0
  3  4  2  0
  4  5  1  0
  5  1  1  0
  6  5  2  0
  7  6  1  0
  8  3  1  0
  8  7  2  0
 10  9  1  0
 10 15  1  0
 11 10  2  0
 12 11  1  0
 12 13  2  0
 13 14  1  0
 14 15  2  0
  1 16  1  0
  2 17  1  0
  3 18  1  0
  4 19  1  0
  7 20  1  0
  9 21  1  0
  9 22  1  0
 11 23  1  0
 12 24  1  0
 13 25  1  0
 14 26  1  0
M  ISO  8  18  14  19  14  20  14  21   8  22   8  23  14  24  14  25  14
M  ISO  1  26  14
M  END
>  <minimizedAffinity>  (1) 
-4.87894058

>  <minimizedRMSD>  (1) 
6.94484758

$$$$
