
     RDKit          3D

 23 23  0  0  0  0  0  0  0  0999 V2000
   37.0810   30.5870   47.5530 C   0  0  0  0  0  0  0  0  0  0  0  0
   38.2600   30.6250   47.0140 C   0  0  0  0  0  0  0  0  0  0  0  0
   37.5370   30.2630   51.2290 C   0  0  0  0  0  0  0  0  0  0  0  0
   37.8170   30.6270   49.8920 C   0  0  0  0  0  0  0  0  0  0  0  0
   36.8790   30.2590   48.9420 C   0  0  0  0  0  0  0  0  0  0  0  0
   35.7510   29.5820   49.3140 N   0  0  0  0  0  0  0  0  0  0  0  0
   35.5280   29.2590   50.6000 C   0  0  0  0  0  0  0  0  0  0  0  0
   36.4120   29.5950   51.5570 N   0  0  0  0  0  0  0  0  0  0  0  0
   38.4920   30.9640   45.5720 C   0  0  0  0  0  0  0  0  0  0  0  0
   38.4140   32.3470   45.3840 O   0  0  0  0  0  0  0  0  0  0  0  0
   41.0510   32.0680   45.4260 O   0  0  0  0  0  0  0  0  0  0  0  0
   39.9110   33.0830   45.4420 P   0  0  0  0  0  0  0  0  0  0  0  0
   40.0950   33.9640   46.8770 O   0  0  0  0  0  0  0  0  0  0  0  0
   40.1110   34.0600   44.0850 O   0  0  0  0  0  0  0  0  0  0  0  0
   36.2043   30.8130   46.9282 H   0  0  0  0  0  0  0  0  0  0  0  0
   39.1317   30.3976   47.6451 H   0  0  0  0  0  0  0  0  0  0  0  0
   38.2530   30.5307   52.0200 H   0  0  0  0  0  0  0  0  0  0  0  0
   38.7320   31.1739   49.6205 H   0  0  0  0  0  0  0  0  0  0  0  0
   34.6124   28.7138   50.8728 H   0  0  0  0  0  0  0  0  0  0  0  0
   39.4899   30.6119   45.2717 H   0  0  0  0  0  0  0  0  0  0  0  0
   37.7214   30.4738   44.9589 H   0  0  0  0  0  0  0  0  0  0  0  0
   39.9692   33.3616   47.6525 H   0  0  0  0  0  0  0  0  0  0  0  0
   40.3010   34.9883   44.3718 H   0  0  0  0  0  0  0  0  0  0  0  0
  1  5  1  0
  2  1  2  0
  3  8  2  0
  4  3  1  0
  5  6  1  0
  5  4  2  0
  6  7  2  0
  7  8  1  0
  9  2  1  0
 10 12  1  0
 10  9  1  0
 11 12  2  0
 12 13  1  0
 14 12  1  0
  1 15  1  0
  2 16  1  0
  3 17  1  0
  4 18  1  0
  7 19  1  0
  9 20  1  0
  9 21  1  0
 13 22  1  0
 14 23  1  0
M  ISO  7  17  14  18  14  19  14  20   8  21   8  22   3  23   3
M  END
>  <minimizedAffinity>  (1) 
-4.57143879

>  <minimizedRMSD>  (1) 
1.68751001

$$$$
