
     RDKit          3D

 19 19  0  0  0  0  0  0  0  0999 V2000
   37.3730   30.2250   51.3860 C   0  0  0  0  0  0  0  0  0  0  0  0
   38.0040   30.7070   50.2430 C   0  0  0  0  0  0  0  0  0  0  0  0
   37.5460   30.3760   48.9800 C   0  0  0  0  0  0  0  0  0  0  0  0
   36.4710   29.5730   48.9030 N   0  0  0  0  0  0  0  0  0  0  0  0
   35.8510   29.0990   49.9970 C   0  0  0  0  0  0  0  0  0  0  0  0
   36.2890   29.4150   51.2380 N   0  0  0  0  0  0  0  0  0  0  0  0
   38.2140   30.8860   47.8260 C   0  0  0  0  0  0  0  0  0  0  0  0
   38.7900   32.0430   47.7640 C   0  0  0  0  0  0  0  0  0  0  0  0
   39.4930   32.6050   46.5820 C   0  0  0  0  0  0  0  0  0  0  0  0
   39.4800   31.7660   45.4250 N   0  0  0  0  0  0  0  0  0  0  0  0
   37.7421   30.4927   52.3870 H   0  0  0  0  0  0  0  0  0  0  0  0
   38.8817   31.3622   50.3454 H   0  0  0  0  0  0  0  0  0  0  0  0
   34.9745   28.4444   49.8822 H   0  0  0  0  0  0  0  0  0  0  0  0
   38.2409   30.2517   46.9277 H   0  0  0  0  0  0  0  0  0  0  0  0
   38.7561   32.6674   48.6690 H   0  0  0  0  0  0  0  0  0  0  0  0
   39.0124   33.5589   46.3190 H   0  0  0  0  0  0  0  0  0  0  0  0
   40.5480   32.7176   46.8724 H   0  0  0  0  0  0  0  0  0  0  0  0
   39.4647   30.7784   45.7172 H   0  0  0  0  0  0  0  0  0  0  0  0
   38.6421   31.9705   44.8620 H   0  0  0  0  0  0  0  0  0  0  0  0
  2  1  2  0
  3  2  1  0
  4  3  2  0
  4  5  1  0
  5  6  2  0
  6  1  1  0
  7  3  1  0
  8  7  2  0
  9  8  1  0
 10  9  1  0
  1 11  1  0
  2 12  1  0
  5 13  1  0
  7 14  1  0
  8 15  1  0
  9 16  1  0
  9 17  1  0
 10 18  1  0
 10 19  1  0
M  ISO  7  11  14  12  14  13  14  16   8  17   8  18   5  19   5
M  END
>  <minimizedAffinity>  (1) 
-3.93136597

>  <minimizedRMSD>  (1) 
0.0260751694

$$$$
