
     RDKit          3D

 18 18  0  0  0  0  0  0  0  0999 V2000
   37.3490   30.2110   51.3940 C   0  0  0  0  0  0  0  0  0  0  0  0
   38.0140   30.7070   50.2660 C   0  0  0  0  0  0  0  0  0  0  0  0
   37.5340   30.3590   49.0170 C   0  0  0  0  0  0  0  0  0  0  0  0
   36.4350   29.5470   48.9160 N   0  0  0  0  0  0  0  0  0  0  0  0
   35.8290   29.0950   50.0270 C   0  0  0  0  0  0  0  0  0  0  0  0
   36.2750   29.4180   51.2580 N   0  0  0  0  0  0  0  0  0  0  0  0
   38.1720   30.8380   47.8140 C   0  0  0  0  0  0  0  0  0  0  0  0
   38.7670   32.0130   47.7890 C   0  0  0  0  0  0  0  0  0  0  0  0
   39.4330   32.5250   46.5510 C   0  0  0  0  0  0  0  0  0  0  0  0
   38.2910   32.2970   45.1400 S   0  0  0  0  0  0  0  0  0  0  0  0
   37.7098   30.4734   52.3995 H   0  0  0  0  0  0  0  0  0  0  0  0
   38.8954   31.3567   50.3709 H   0  0  0  0  0  0  0  0  0  0  0  0
   34.9468   28.4451   49.9299 H   0  0  0  0  0  0  0  0  0  0  0  0
   38.1612   30.2147   46.9077 H   0  0  0  0  0  0  0  0  0  0  0  0
   38.7743   32.6315   48.6986 H   0  0  0  0  0  0  0  0  0  0  0  0
   39.6667   33.5933   46.6702 H   0  0  0  0  0  0  0  0  0  0  0  0
   40.3683   31.9746   46.3713 H   0  0  0  0  0  0  0  0  0  0  0  0
   37.0290   32.0451   45.6100 H   0  0  0  0  0  0  0  0  0  0  0  0
  2  1  2  0
  3  2  1  0
  4  3  2  0
  4  5  1  0
  5  6  2  0
  6  1  1  0
  7  3  1  0
  8  7  2  0
  9  8  1  0
 10  9  1  0
  1 11  1  0
  2 12  1  0
  5 13  1  0
  7 14  1  0
  8 15  1  0
  9 16  1  0
  9 17  1  0
 10 18  1  0
M  ISO  6  11  14  12  14  13  14  16   8  17   8  18  11
M  END
>  <minimizedAffinity>  (1) 
-4.08359385

>  <minimizedRMSD>  (1) 
0.640648603

$$$$
