
     RDKit          3D

 35 36  0  0  1  0  0  0  0  0999 V2000
   39.3170   32.6910   46.7200 C   0  0  0  0  0  0  0  0  0  0  0  0
   38.1630   30.8720   47.9380 C   0  0  0  0  0  0  0  0  0  0  0  0
   38.6920   32.0540   47.8990 C   0  0  0  0  0  0  0  0  0  0  0  0
   37.2930   30.1600   51.4880 C   0  0  0  0  0  0  0  0  0  0  0  0
   37.9510   30.6720   50.3620 C   0  0  0  0  0  0  0  0  0  0  0  0
   37.5100   30.3760   49.1000 C   0  0  0  0  0  0  0  0  0  0  0  0
   36.4110   29.5710   48.9620 N   0  0  0  0  0  0  0  0  0  0  0  0
   35.7980   29.0950   50.0730 C   0  0  0  0  0  0  0  0  0  0  0  0
   36.2300   29.3820   51.3170 N   0  0  0  0  0  0  0  0  0  0  0  0
   38.2920   32.3130   45.2570 S   0  0  0  0  0  0  0  0  0  0  0  0
   40.3030   31.1140   43.9420 C   0  0  2  0  0  0  0  0  0  0  0  0
   38.8870   30.8000   44.3860 C   0  0  2  0  0  0  0  0  0  0  0  0
   38.0320   30.6210   43.3230 O   0  0  0  0  0  0  0  0  0  0  0  0
   38.4600   29.8240   42.3040 C   0  0  0  0  0  0  0  0  0  0  0  0
   39.6200   30.5280   41.6050 C   0  0  2  0  0  0  0  0  0  0  0  0
   40.7170   30.5850   42.6230 C   0  0  2  0  0  0  0  0  0  0  0  0
   41.1970   30.6280   44.8920 O   0  0  0  0  0  0  0  0  0  0  0  0
   39.2340   31.7780   41.1850 O   0  0  0  0  0  0  0  0  0  0  0  0
   41.4010   29.3720   42.7400 O   0  0  0  0  0  0  0  0  0  0  0  0
   39.3675   33.7798   46.8680 H   0  0  0  0  0  0  0  0  0  0  0  0
   40.3382   32.3078   46.5778 H   0  0  0  0  0  0  0  0  0  0  0  0
   38.2207   30.2324   47.0449 H   0  0  0  0  0  0  0  0  0  0  0  0
   38.6746   32.6387   48.8306 H   0  0  0  0  0  0  0  0  0  0  0  0
   37.6518   30.3991   52.5000 H   0  0  0  0  0  0  0  0  0  0  0  0
   38.8312   31.3186   50.4932 H   0  0  0  0  0  0  0  0  0  0  0  0
   34.9147   28.4502   49.9550 H   0  0  0  0  0  0  0  0  0  0  0  0
   40.3169   32.2093   43.8412 H   0  0  0  0  0  0  0  0  0  0  0  0
   38.8977   29.8824   44.9925 H   0  0  0  0  0  0  0  0  0  0  0  0
   38.7979   28.8567   42.7042 H   0  0  0  0  0  0  0  0  0  0  0  0
   37.6407   29.6426   41.5928 H   0  0  0  0  0  0  0  0  0  0  0  0
   39.9552   29.9991   40.7006 H   0  0  0  0  0  0  0  0  0  0  0  0
   41.4240   31.3272   42.2239 H   0  0  0  0  0  0  0  0  0  0  0  0
   40.8493   30.8170   45.7995 H   0  0  0  0  0  0  0  0  0  0  0  0
   39.0571   32.3508   41.9728 H   0  0  0  0  0  0  0  0  0  0  0  0
   41.5241   29.1536   43.6977 H   0  0  0  0  0  0  0  0  0  0  0  0
  1  3  1  0
  2  6  1  0
  3  2  2  0
  5  4  2  0
  6  5  1  0
  7  6  2  0
  7  8  1  0
  8  9  2  0
  9  4  1  0
 10  1  1  0
 11 12  1  0
 11 17  1  0
 12 10  1  0
 13 12  1  0
 14 13  1  0
 15 18  1  0
 15 14  1  0
 15 16  1  0
 16 19  1  0
 16 11  1  0
  1 20  1  0
  1 21  1  0
  2 22  1  0
  3 23  1  0
  4 24  1  0
  5 25  1  0
  8 26  1  0
 11 27  1  6
 12 28  1  1
 14 29  1  0
 14 30  1  0
 15 31  1  6
 16 32  1  6
 17 33  1  0
 18 34  1  0
 19 35  1  0
M  ISO  8  20   8  21   8  24  14  25  14  26  14  27  13  28  13  29  13
M  ISO  6  30  13  31  13  32  13  33   3  34   3  35   3
M  END
>  <minimizedAffinity>  (1) 
-5.75059509

>  <minimizedRMSD>  (1) 
0.892554879

$$$$
