
     RDKit          3D

 31 32  0  0  1  0  0  0  0  0999 V2000
   37.2530   30.3360   48.4560 C   0  0  2  0  0  0  0  0  0  0  0  0
   38.1930   31.0950   47.6380 N   0  0  0  0  0  0  0  0  0  0  0  0
   38.6980   30.5380   46.5350 C   0  0  0  0  0  0  0  0  0  0  0  0
   39.4910   31.4170   45.7740 C   0  0  0  0  0  0  0  0  0  0  0  0
   39.6770   32.7440   46.2140 C   0  0  0  0  0  0  0  0  0  0  0  0
   40.3680   33.5340   45.5510 O   0  0  0  0  0  0  0  0  0  0  0  0
   39.1160   33.1670   47.3420 N   0  0  0  0  0  0  0  0  0  0  0  0
   38.3660   32.3430   48.0690 C   0  0  0  0  0  0  0  0  0  0  0  0
   37.8550   32.8120   49.1400 O   0  0  0  0  0  0  0  0  0  0  0  0
   35.1060   29.3680   47.9820 C   0  0  0  0  0  0  0  0  0  0  0  0
   35.9180   30.3850   47.7680 C   0  0  0  0  0  0  0  0  0  0  0  0
   32.1300   30.2990   45.9360 C   0  0  0  0  0  0  0  0  0  0  0  0
   33.4040   30.2960   46.5120 C   0  0  0  0  0  0  0  0  0  0  0  0
   33.7970   29.3100   47.4020 C   0  0  0  0  0  0  0  0  0  0  0  0
   32.8860   28.3370   47.6910 N   0  0  0  0  0  0  0  0  0  0  0  0
   31.6620   28.3490   47.1310 C   0  0  0  0  0  0  0  0  0  0  0  0
   31.2890   29.3180   46.2680 N   0  0  0  0  0  0  0  0  0  0  0  0
   37.0580   31.0360   50.1270 S   0  0  0  0  0  0  0  0  0  0  0  0
   36.9730   29.7290   51.3530 C   0  0  0  0  0  0  0  0  0  0  0  0
   37.5570   30.0480   52.5590 F   0  0  0  0  0  0  0  0  0  0  0  0
   35.6600   29.2780   51.5080 F   0  0  0  0  0  0  0  0  0  0  0  0
   37.6610   28.6160   50.7940 F   0  0  0  0  0  0  0  0  0  0  0  0
   37.6371   29.3112   48.5670 H   0  0  0  0  0  0  0  0  0  0  0  0
   38.5122   29.4924   46.2484 H   0  0  0  0  0  0  0  0  0  0  0  0
   39.9626   31.0714   44.8423 H   0  0  0  0  0  0  0  0  0  0  0  0
   39.2625   34.1373   47.6549 H   0  0  0  0  0  0  0  0  0  0  0  0
   35.4432   28.5408   48.6239 H   0  0  0  0  0  0  0  0  0  0  0  0
   35.6326   31.2261   47.1191 H   0  0  0  0  0  0  0  0  0  0  0  0
   31.8299   31.0871   45.2298 H   0  0  0  0  0  0  0  0  0  0  0  0
   34.1120   31.0967   46.2519 H   0  0  0  0  0  0  0  0  0  0  0  0
   30.9487   27.5503   47.3825 H   0  0  0  0  0  0  0  0  0  0  0  0
  1 18  1  0
  2  8  1  0
  2  1  1  0
  3  2  1  0
  4  5  1  0
  4  3  2  0
  5  7  1  0
  6  5  2  0
  7  8  1  0
  8  9  2  0
 11 10  2  0
 11  1  1  0
 12 17  2  0
 12 13  1  0
 13 14  2  0
 14 15  1  0
 14 10  1  0
 16 15  2  0
 17 16  1  0
 18 19  1  0
 19 21  1  0
 19 20  1  0
 22 19  1  0
  1 23  1  1
  3 24  1  0
  4 25  1  0
  7 26  1  0
 10 27  1  0
 11 28  1  0
 12 29  1  0
 13 30  1  0
 16 31  1  0
M  ISO  7  23   8  24  14  25  14  26   9  29  14  30  14  31  14
M  END
>  <minimizedAffinity>  (1) 
-6.48559046

>  <minimizedRMSD>  (1) 
5.54687834

$$$$
