
     RDKit          3D

 28 29  0  0  1  0  0  0  0  0999 V2000
   37.9390   30.8770   47.9980 C   0  0  2  0  0  0  0  0  0  0  0  0
   38.5110   32.1120   48.3940 C   0  0  0  0  0  0  0  0  0  0  0  0
   38.6150   33.0380   49.4590 C   0  0  0  0  0  0  0  0  0  0  0  0
   39.3880   34.1570   49.2840 C   0  0  0  0  0  0  0  0  0  0  0  0
   40.0370   34.3030   48.0290 C   0  0  0  0  0  0  0  0  0  0  0  0
   39.5220   32.8370   47.1260 S   0  0  0  0  0  0  0  0  0  0  0  0
   36.8030   30.6300   45.9110 C   0  0  0  0  0  0  0  0  0  0  0  0
   37.9510   30.6720   46.5130 C   0  0  0  0  0  0  0  0  0  0  0  0
   37.6700   29.5810   42.4360 C   0  0  0  0  0  0  0  0  0  0  0  0
   37.7360   29.8200   43.8120 C   0  0  0  0  0  0  0  0  0  0  0  0
   36.6840   30.4130   44.4990 C   0  0  0  0  0  0  0  0  0  0  0  0
   35.6060   30.7440   43.7710 N   0  0  0  0  0  0  0  0  0  0  0  0
   35.5340   30.5190   42.4590 C   0  0  0  0  0  0  0  0  0  0  0  0
   36.5460   29.9450   41.7800 N   0  0  0  0  0  0  0  0  0  0  0  0
   36.2530   30.6250   48.5890 S   0  0  0  0  0  0  0  0  0  0  0  0
   36.2410   29.9220   50.2390 C   0  0  0  0  0  0  0  0  0  0  0  0
   36.9130   30.7150   51.1600 F   0  0  0  0  0  0  0  0  0  0  0  0
   34.9710   29.5820   50.6620 F   0  0  0  0  0  0  0  0  0  0  0  0
   36.9430   28.6930   50.1630 F   0  0  0  0  0  0  0  0  0  0  0  0
   38.5926   30.1335   48.4775 H   0  0  0  0  0  0  0  0  0  0  0  0
   38.0865   32.8637   50.4079 H   0  0  0  0  0  0  0  0  0  0  0  0
   39.5005   34.9080   50.0799 H   0  0  0  0  0  0  0  0  0  0  0  0
   40.6957   35.1167   47.6914 H   0  0  0  0  0  0  0  0  0  0  0  0
   35.8875   30.7658   46.5054 H   0  0  0  0  0  0  0  0  0  0  0  0
   38.8939   30.5618   45.9573 H   0  0  0  0  0  0  0  0  0  0  0  0
   38.5090   29.1102   41.9027 H   0  0  0  0  0  0  0  0  0  0  0  0
   38.6427   29.5316   44.3640 H   0  0  0  0  0  0  0  0  0  0  0  0
   34.6229   30.8101   41.9158 H   0  0  0  0  0  0  0  0  0  0  0  0
  1  2  1  0
  1 15  1  0
  2  3  2  0
  4  3  1  0
  5  4  2  0
  6  5  1  0
  6  2  1  0
  7  8  2  0
  8  1  1  0
  9 10  2  0
 10 11  1  0
 11  7  1  0
 12 11  2  0
 13 12  1  0
 14  9  1  0
 14 13  2  0
 15 16  1  0
 16 18  1  0
 16 17  1  0
 19 16  1  0
  1 20  1  1
  3 21  1  0
  4 22  1  0
  5 23  1  0
  7 24  1  0
  8 25  1  0
  9 26  1  0
 10 27  1  0
 13 28  1  0
M  ISO  7  20   8  21  14  22  14  23  14  26  14  27  14  28  14
M  END
>  <minimizedAffinity>  (1) 
-4.7760787

>  <minimizedRMSD>  (1) 
3.44835258

$$$$
