
     RDKit          3D

 37 39  0  0  1  0  0  0  0  0999 V2000
   37.7760   30.6970   48.7090 C   0  0  2  0  0  0  0  0  0  0  0  0
   38.5570   31.8780   48.3090 C   0  0  0  0  0  0  0  0  0  0  0  0
   38.6500   32.8570   49.3320 C   0  0  0  0  0  0  0  0  0  0  0  0
   39.3300   34.0440   49.1840 C   0  0  0  0  0  0  0  0  0  0  0  0
   39.9840   34.3530   47.9850 C   0  0  0  0  0  0  0  0  0  0  0  0
   39.8430   33.3440   47.0410 C   0  0  0  0  0  0  0  0  0  0  0  0
   39.1880   32.1800   47.1540 N   0  0  0  0  0  0  0  0  0  0  0  0
   35.6370   29.7940   48.1130 C   0  0  0  0  0  0  0  0  0  0  0  0
   36.6710   30.4660   47.7200 C   0  0  0  0  0  0  0  0  0  0  0  0
   33.5340   29.6420   45.0350 C   0  0  0  0  0  0  0  0  0  0  0  0
   34.5810   29.8650   45.9250 C   0  0  0  0  0  0  0  0  0  0  0  0
   34.5220   29.5250   47.2510 C   0  0  0  0  0  0  0  0  0  0  0  0
   33.3710   28.9480   47.6620 N   0  0  0  0  0  0  0  0  0  0  0  0
   32.3620   28.7300   46.8140 C   0  0  0  0  0  0  0  0  0  0  0  0
   32.4350   29.0700   45.5190 N   0  0  0  0  0  0  0  0  0  0  0  0
   31.2000   28.0810   47.5040 C   0  0  0  0  0  0  0  0  0  0  0  0
   31.0510   27.5940   48.7250 C   0  0  0  0  0  0  0  0  0  0  0  0
   29.8800   27.0440   49.1290 C   0  0  0  0  0  0  0  0  0  0  0  0
   28.8360   27.0540   48.0890 C   0  0  0  0  0  0  0  0  0  0  0  0
   29.7430   27.8830   46.6460 S   0  0  0  0  0  0  0  0  0  0  0  0
   36.9930   31.1230   50.3010 S   0  0  0  0  0  0  0  0  0  0  0  0
   36.9700   29.7180   51.4000 C   0  0  0  0  0  0  0  0  0  0  0  0
   37.6370   29.9490   52.5930 F   0  0  0  0  0  0  0  0  0  0  0  0
   35.6890   29.2540   51.6140 F   0  0  0  0  0  0  0  0  0  0  0  0
   37.6450   28.6770   50.7290 F   0  0  0  0  0  0  0  0  0  0  0  0
   38.4174   29.8053   48.7679 H   0  0  0  0  0  0  0  0  0  0  0  0
   38.1530   32.6567   50.2926 H   0  0  0  0  0  0  0  0  0  0  0  0
   39.3603   34.7598   50.0187 H   0  0  0  0  0  0  0  0  0  0  0  0
   40.5431   35.2843   47.8114 H   0  0  0  0  0  0  0  0  0  0  0  0
   40.3335   33.5238   46.0730 H   0  0  0  0  0  0  0  0  0  0  0  0
   35.6121   29.4153   49.1455 H   0  0  0  0  0  0  0  0  0  0  0  0
   36.7378   30.8556   46.6935 H   0  0  0  0  0  0  0  0  0  0  0  0
   33.6123   29.9270   43.9755 H   0  0  0  0  0  0  0  0  0  0  0  0
   35.4995   30.3367   45.5456 H   0  0  0  0  0  0  0  0  0  0  0  0
   31.8961   27.6364   49.4278 H   0  0  0  0  0  0  0  0  0  0  0  0
   29.7239   26.6301   50.1361 H   0  0  0  0  0  0  0  0  0  0  0  0
   27.8029   26.6792   48.1374 H   0  0  0  0  0  0  0  0  0  0  0  0
  1 21  1  0
  2  1  1  0
  2  3  2  0
  4  3  1  0
  5  4  2  0
  6  7  2  0
  6  5  1  0
  7  2  1  0
  9  8  2  0
  9  1  1  0
 10 15  2  0
 10 11  1  0
 11 12  2  0
 12 13  1  0
 12  8  1  0
 14 16  1  0
 14 13  2  0
 15 14  1  0
 16 17  2  0
 17 18  1  0
 19 18  2  0
 20 16  1  0
 20 19  1  0
 21 22  1  0
 22 24  1  0
 22 23  1  0
 25 22  1  0
  1 26  1  1
  3 27  1  0
  4 28  1  0
  5 29  1  0
  6 30  1  0
  8 31  1  0
  9 32  1  0
 10 33  1  0
 11 34  1  0
 17 35  1  0
 18 36  1  0
 19 37  1  0
M  ISO  8  26   8  27  14  28  14  29  14  30  14  33  14  34  14  35  14
M  ISO  2  36  14  37  14
M  END
>  <minimizedAffinity>  (1) 
-6.54658079

>  <minimizedRMSD>  (1) 
0.619543314

$$$$
