
     RDKit          3D

 23 24  0  0  0  0  0  0  0  0999 V2000
   37.4390   30.6120   50.7270 C   0  0  0  0  0  0  0  0  0  0  0  0
   38.3340   31.3120   49.8740 C   0  0  0  0  0  0  0  0  0  0  0  0
   37.9320   31.5330   48.5520 C   0  0  0  0  0  0  0  0  0  0  0  0
   36.7100   31.0650   48.1540 N   0  0  0  0  0  0  0  0  0  0  0  0
   35.9000   30.4060   49.0060 C   0  0  0  0  0  0  0  0  0  0  0  0
   36.2600   30.1780   50.2890 N   0  0  0  0  0  0  0  0  0  0  0  0
   38.8580   32.2610   47.6580 C   0  0  0  0  0  0  0  0  0  0  0  0
   38.9080   31.6750   46.3340 N   0  0  0  0  0  0  0  0  0  0  0  0
   38.3870   32.4950   45.2970 C   0  0  0  0  0  0  0  0  0  0  0  0
   39.4960   32.7600   44.3120 C   0  0  0  0  0  0  0  0  0  0  0  0
   40.6420   31.9020   44.7280 C   0  0  0  0  0  0  0  0  0  0  0  0
   40.2160   31.2240   46.0030 C   0  0  0  0  0  0  0  0  0  0  0  0
   37.7270   30.4248   51.7720 H   0  0  0  0  0  0  0  0  0  0  0  0
   39.3085   31.6677   50.2399 H   0  0  0  0  0  0  0  0  0  0  0  0
   34.9239   30.0455   48.6494 H   0  0  0  0  0  0  0  0  0  0  0  0
   38.5213   33.3046   47.5718 H   0  0  0  0  0  0  0  0  0  0  0  0
   39.8665   32.2026   48.0934 H   0  0  0  0  0  0  0  0  0  0  0  0
   37.3555   32.8703   45.2259 H   0  0  0  0  0  0  0  0  0  0  0  0
   39.4660   33.4498   43.4557 H   0  0  0  0  0  0  0  0  0  0  0  0
   40.8596   31.1534   43.9520 H   0  0  0  0  0  0  0  0  0  0  0  0
   41.5558   32.4964   44.8753 H   0  0  0  0  0  0  0  0  0  0  0  0
   40.2081   30.1334   45.8595 H   0  0  0  0  0  0  0  0  0  0  0  0
   40.9174   31.4682   46.8144 H   0  0  0  0  0  0  0  0  0  0  0  0
  2  1  2  0
  3  2  1  0
  4  3  2  0
  4  5  1  0
  5  6  2  0
  6  1  1  0
  7  3  1  0
  8  7  1  0
  9  8  1  0
 10 11  1  0
 10  9  2  0
 11 12  1  0
 12  8  1  0
  1 13  1  0
  2 14  1  0
  5 15  1  0
  7 16  1  0
  7 17  1  0
  9 18  1  0
 10 19  1  0
 11 20  1  0
 11 21  1  0
 12 22  1  0
 12 23  1  0
M  ISO  8  13  14  14  14  15  14  16   8  17   8  18  13  19  13  20  13
M  ISO  3  21  13  22  13  23  13
M  END
>  <minimizedAffinity>  (1) 
-4.28815985

>  <minimizedRMSD>  (1) 
2.04879403

$$$$
