
     RDKit          3D

 32 33  0  0  1  0  0  0  0  0999 V2000
   37.7170   30.6820   48.6460 C   0  0  2  0  0  0  0  0  0  0  0  0
   38.5110   31.8780   48.3170 C   0  0  0  0  0  0  0  0  0  0  0  0
   38.5860   32.8040   49.3900 C   0  0  0  0  0  0  0  0  0  0  0  0
   39.2730   33.9990   49.3200 C   0  0  0  0  0  0  0  0  0  0  0  0
   39.9500   34.3560   48.1400 C   0  0  0  0  0  0  0  0  0  0  0  0
   39.8260   33.3950   47.1440 C   0  0  0  0  0  0  0  0  0  0  0  0
   39.1660   32.2360   47.1950 N   0  0  0  0  0  0  0  0  0  0  0  0
   35.5580   29.9290   47.9280 C   0  0  0  0  0  0  0  0  0  0  0  0
   36.6840   30.4580   47.5770 C   0  0  0  0  0  0  0  0  0  0  0  0
   33.7210   29.7250   44.6910 C   0  0  0  0  0  0  0  0  0  0  0  0
   34.6970   29.9330   45.6490 C   0  0  0  0  0  0  0  0  0  0  0  0
   34.5040   29.6840   46.9820 C   0  0  0  0  0  0  0  0  0  0  0  0
   33.2790   29.2100   47.3290 N   0  0  0  0  0  0  0  0  0  0  0  0
   32.3270   29.0030   46.4170 C   0  0  0  0  0  0  0  0  0  0  0  0
   32.5300   29.2510   45.1150 N   0  0  0  0  0  0  0  0  0  0  0  0
   31.0200   28.4910   46.8340 C   0  0  0  0  0  0  0  0  0  0  0  0
   29.9860   29.2070   46.7750 O   0  0  0  0  0  0  0  0  0  0  0  0
   36.8150   31.0770   50.1830 S   0  0  0  0  0  0  0  0  0  0  0  0
   36.8790   29.7180   51.3340 C   0  0  0  0  0  0  0  0  0  0  0  0
   37.5620   30.0130   52.5000 F   0  0  0  0  0  0  0  0  0  0  0  0
   35.6120   29.2170   51.5960 F   0  0  0  0  0  0  0  0  0  0  0  0
   37.5810   28.6800   50.6840 F   0  0  0  0  0  0  0  0  0  0  0  0
   38.3634   29.7968   48.7391 H   0  0  0  0  0  0  0  0  0  0  0  0
   38.0685   32.5558   50.3284 H   0  0  0  0  0  0  0  0  0  0  0  0
   39.2911   34.6735   50.1887 H   0  0  0  0  0  0  0  0  0  0  0  0
   40.5149   35.2921   48.0190 H   0  0  0  0  0  0  0  0  0  0  0  0
   40.3355   33.6172   46.1948 H   0  0  0  0  0  0  0  0  0  0  0  0
   35.4017   29.6581   48.9826 H   0  0  0  0  0  0  0  0  0  0  0  0
   36.8799   30.7351   46.5307 H   0  0  0  0  0  0  0  0  0  0  0  0
   33.9075   29.9370   43.6279 H   0  0  0  0  0  0  0  0  0  0  0  0
   35.6754   30.3169   45.3246 H   0  0  0  0  0  0  0  0  0  0  0  0
   30.9399   27.4591   47.2066 H   0  0  0  0  0  0  0  0  0  0  0  0
  1 18  1  0
  2  1  1  0
  2  3  2  0
  4  3  1  0
  5  4  2  0
  6  7  2  0
  6  5  1  0
  7  2  1  0
  9  8  2  0
  9  1  1  0
 10 15  2  0
 10 11  1  0
 11 12  2  0
 12 13  1  0
 12  8  1  0
 14 16  1  0
 14 13  2  0
 15 14  1  0
 17 16  2  0
 18 19  1  0
 19 21  1  0
 19 20  1  0
 22 19  1  0
  1 23  1  1
  3 24  1  0
  4 25  1  0
  5 26  1  0
  6 27  1  0
  8 28  1  0
  9 29  1  0
 10 30  1  0
 11 31  1  0
 16 32  1  0
M  ISO  8  23   8  24  14  25  14  26  14  27  14  30  14  31  14  32   6
M  END
>  <minimizedAffinity>  (1) 
-5.95620203

>  <minimizedRMSD>  (1) 
0.0896976963

$$$$
