
     RDKit          3D

 32 34  0  0  1  0  0  0  0  0999 V2000
   33.6150   29.8460   46.4920 N   0  0  0  0  0  0  0  0  0  0  0  0
   34.8520   29.7290   45.7320 C   0  0  0  0  0  0  0  0  0  0  0  0
   35.9100   30.1260   46.7570 C   0  0  0  0  0  0  0  0  0  0  0  0
   35.1580   30.5130   48.0070 C   0  0  1  0  0  0  0  0  0  0  0  0
   33.9600   29.5840   47.8920 C   0  0  0  0  0  0  0  0  0  0  0  0
   32.3240   30.1520   45.9920 C   0  0  0  0  0  0  0  0  0  0  0  0
   32.2110   31.2890   45.1990 C   0  0  0  0  0  0  0  0  0  0  0  0
   30.9500   31.6310   44.6810 C   0  0  0  0  0  0  0  0  0  0  0  0
   29.9020   30.7920   45.0080 N   0  0  0  0  0  0  0  0  0  0  0  0
   30.0620   29.7010   45.7800 C   0  0  0  0  0  0  0  0  0  0  0  0
   31.2810   29.3840   46.2720 N   0  0  0  0  0  0  0  0  0  0  0  0
   37.6510   32.1420   48.0450 Cl  0  0  0  0  0  0  0  0  0  0  0  0
   37.0750   31.0460   49.3080 C   0  0  0  0  0  0  0  0  0  0  0  0
   35.9040   30.3010   49.2560 C   0  0  0  0  0  0  0  0  0  0  0  0
   35.5950   29.4910   50.3250 C   0  0  0  0  0  0  0  0  0  0  0  0
   36.4170   29.4110   51.4310 C   0  0  0  0  0  0  0  0  0  0  0  0
   37.5860   30.1680   51.4610 C   0  0  0  0  0  0  0  0  0  0  0  0
   37.9210   30.9810   50.4140 C   0  0  0  0  0  0  0  0  0  0  0  0
   35.0064   28.6981   45.3807 H   0  0  0  0  0  0  0  0  0  0  0  0
   34.8681   30.3490   44.8235 H   0  0  0  0  0  0  0  0  0  0  0  0
   36.5801   29.2781   46.9618 H   0  0  0  0  0  0  0  0  0  0  0  0
   36.5333   30.9549   46.3904 H   0  0  0  0  0  0  0  0  0  0  0  0
   34.9269   31.5869   48.0647 H   0  0  0  0  0  0  0  0  0  0  0  0
   33.1486   29.8671   48.5787 H   0  0  0  0  0  0  0  0  0  0  0  0
   34.1461   28.5307   48.1489 H   0  0  0  0  0  0  0  0  0  0  0  0
   33.0928   31.9095   44.9811 H   0  0  0  0  0  0  0  0  0  0  0  0
   30.8051   32.5194   44.0488 H   0  0  0  0  0  0  0  0  0  0  0  0
   29.1961   29.0636   46.0120 H   0  0  0  0  0  0  0  0  0  0  0  0
   34.6717   28.8936   50.2973 H   0  0  0  0  0  0  0  0  0  0  0  0
   36.1528   28.7589   52.2765 H   0  0  0  0  0  0  0  0  0  0  0  0
   38.2477   30.1110   52.3378 H   0  0  0  0  0  0  0  0  0  0  0  0
   38.8458   31.5759   50.4440 H   0  0  0  0  0  0  0  0  0  0  0  0
  1  5  1  0
  2  1  1  0
  2  3  1  0
  3  4  1  0
  4 14  1  0
  5  4  1  0
  6 11  1  0
  6  1  1  0
  7  6  2  0
  8  9  2  0
  8  7  1  0
  9 10  1  0
 10 11  2  0
 12 13  1  0
 13 18  2  0
 14 13  1  0
 14 15  2  0
 15 16  1  0
 16 17  2  0
 18 17  1  0
  2 19  1  0
  2 20  1  0
  3 21  1  0
  3 22  1  0
  4 23  1  6
  5 24  1  0
  5 25  1  0
  7 26  1  0
  8 27  1  0
 10 28  1  0
 15 29  1  0
 16 30  1  0
 17 31  1  0
 18 32  1  0
M  ISO  8  19  13  20  13  21  13  22  13  23  13  24  13  25  13  26  14
M  ISO  6  27  14  28  14  29  14  30  14  31  14  32  14
M  END
>  <minimizedAffinity>  (1) 
-5.39577484

>  <minimizedRMSD>  (1) 
4.22313118

$$$$
