
     RDKit          3D

 29 31  0  0  1  0  0  0  0  0999 V2000
   37.7790   30.9450   48.8310 N   0  0  0  0  0  0  0  0  0  0  0  0
   37.9030   30.1770   50.0460 C   0  0  0  0  0  0  0  0  0  0  0  0
   36.4700   29.7020   50.2980 C   0  0  0  0  0  0  0  0  0  0  0  0
   35.6380   30.2860   49.1780 C   0  0  1  0  0  0  0  0  0  0  0  0
   36.7020   30.3460   48.0770 C   0  0  0  0  0  0  0  0  0  0  0  0
   38.5590   32.0680   48.4450 C   0  0  0  0  0  0  0  0  0  0  0  0
   38.7080   33.0900   49.3880 C   0  0  0  0  0  0  0  0  0  0  0  0
   39.4740   34.2170   49.0380 C   0  0  0  0  0  0  0  0  0  0  0  0
   40.0230   34.2320   47.7880 N   0  0  0  0  0  0  0  0  0  0  0  0
   39.8570   33.2280   46.9060 C   0  0  0  0  0  0  0  0  0  0  0  0
   39.1140   32.1320   47.2400 N   0  0  0  0  0  0  0  0  0  0  0  0
   34.4790   29.4660   48.8020 C   0  0  0  0  0  0  0  0  0  0  0  0
   34.0120   29.1080   47.5400 C   0  0  0  0  0  0  0  0  0  0  0  0
   32.8930   28.3300   47.7770 C   0  0  0  0  0  0  0  0  0  0  0  0
   32.7030   28.2280   49.0970 N   0  0  0  0  0  0  0  0  0  0  0  0
   33.6430   28.9000   49.6950 N   0  0  0  0  0  0  0  0  0  0  0  0
   38.5840   29.3243   49.9074 H   0  0  0  0  0  0  0  0  0  0  0  0
   38.3231   30.7535   50.8833 H   0  0  0  0  0  0  0  0  0  0  0  0
   36.4218   28.6032   50.2779 H   0  0  0  0  0  0  0  0  0  0  0  0
   36.1045   30.0249   51.2840 H   0  0  0  0  0  0  0  0  0  0  0  0
   35.1564   31.2435   49.4256 H   0  0  0  0  0  0  0  0  0  0  0  0
   36.3874   30.9791   47.2343 H   0  0  0  0  0  0  0  0  0  0  0  0
   36.9394   29.3848   47.5976 H   0  0  0  0  0  0  0  0  0  0  0  0
   38.2376   33.0145   50.3795 H   0  0  0  0  0  0  0  0  0  0  0  0
   39.6241   35.0498   49.7408 H   0  0  0  0  0  0  0  0  0  0  0  0
   40.3224   33.2911   45.9113 H   0  0  0  0  0  0  0  0  0  0  0  0
   34.4403   29.3842   46.5652 H   0  0  0  0  0  0  0  0  0  0  0  0
   32.2608   27.8691   47.0038 H   0  0  0  0  0  0  0  0  0  0  0  0
   31.9441   27.7077   49.5599 H   0  0  0  0  0  0  0  0  0  0  0  0
  1  2  1  0
  2  3  1  0
  4  3  1  0
  5  1  1  0
  5  4  1  0
  6  1  1  0
  6  7  2  0
  8  7  1  0
  9  8  2  0
 10 11  2  0
 10  9  1  0
 11  6  1  0
 12  4  1  0
 12 16  2  0
 13 14  2  0
 13 12  1  0
 14 15  1  0
 15 16  1  0
  2 17  1  0
  2 18  1  0
  3 19  1  0
  3 20  1  0
  4 21  1  1
  5 22  1  0
  5 23  1  0
  7 24  1  0
  8 25  1  0
 10 26  1  0
 13 27  1  0
 14 28  1  0
 15 29  1  0
M  ISO  8  17  13  18  13  19  13  20  13  21  13  22  13  23  13  24  14
M  ISO  5  25  14  26  14  27  14  28  14  29   9
M  END
>  <minimizedAffinity>  (1) 
-5.19677734

>  <minimizedRMSD>  (1) 
6.19530392

$$$$
