
     RDKit          3D

 28 29  0  0  1  0  0  0  0  0999 V2000
   37.4280   30.4000   48.5630 N   0  0  0  0  0  0  0  0  0  0  0  0
   37.8440   30.4570   49.9600 C   0  0  0  0  0  0  0  0  0  0  0  0
   36.5580   30.1090   50.6880 C   0  0  0  0  0  0  0  0  0  0  0  0
   35.5230   29.8230   49.6310 C   0  0  1  0  0  0  0  0  0  0  0  0
   36.3860   29.3880   48.4700 C   0  0  0  0  0  0  0  0  0  0  0  0
   37.9500   31.1890   47.5090 C   0  0  0  0  0  0  0  0  0  0  0  0
   39.0140   32.0430   47.7710 C   0  0  0  0  0  0  0  0  0  0  0  0
   39.5310   32.8200   46.7350 C   0  0  0  0  0  0  0  0  0  0  0  0
   38.9540   32.6960   45.5020 N   0  0  0  0  0  0  0  0  0  0  0  0
   37.9130   31.8520   45.2740 C   0  0  0  0  0  0  0  0  0  0  0  0
   37.3990   31.0860   46.2850 N   0  0  0  0  0  0  0  0  0  0  0  0
   34.7140   28.7450   49.9600 O   0  0  0  0  0  0  0  0  0  0  0  0
   33.5550   29.4100   47.6630 O   0  0  0  0  0  0  0  0  0  0  0  0
   33.5860   28.3780   48.7550 P   0  0  0  0  0  0  0  0  0  0  0  0
   33.9840   26.8430   48.1450 O   0  0  0  0  0  0  0  0  0  0  0  0
   32.0330   28.3210   49.4670 O   0  0  0  0  0  0  0  0  0  0  0  0
   38.6344   29.7219   50.1718 H   0  0  0  0  0  0  0  0  0  0  0  0
   38.2721   31.4262   50.2556 H   0  0  0  0  0  0  0  0  0  0  0  0
   36.7090   29.2215   51.3201 H   0  0  0  0  0  0  0  0  0  0  0  0
   36.2380   30.9347   51.3405 H   0  0  0  0  0  0  0  0  0  0  0  0
   34.8590   30.6838   49.4637 H   0  0  0  0  0  0  0  0  0  0  0  0
   35.8457   29.4401   47.5132 H   0  0  0  0  0  0  0  0  0  0  0  0
   36.7364   28.3460   48.5077 H   0  0  0  0  0  0  0  0  0  0  0  0
   39.4428   32.1054   48.7821 H   0  0  0  0  0  0  0  0  0  0  0  0
   40.3727   33.5078   46.9038 H   0  0  0  0  0  0  0  0  0  0  0  0
   37.4789   31.7840   44.2656 H   0  0  0  0  0  0  0  0  0  0  0  0
   34.1454   26.2205   48.8977 H   0  0  0  0  0  0  0  0  0  0  0  0
   32.1217   28.3243   50.4530 H   0  0  0  0  0  0  0  0  0  0  0  0
  1  2  1  0
  2  3  1  0
  4 12  1  0
  4  3  1  0
  5  1  1  0
  5  4  1  0
  6  7  2  0
  6  1  1  0
  8  7  1  0
  9  8  2  0
 10  9  1  0
 10 11  2  0
 11  6  1  0
 13 14  2  0
 14 16  1  0
 14 12  1  0
 15 14  1  0
  2 17  1  0
  2 18  1  0
  3 19  1  0
  3 20  1  0
  4 21  1  6
  5 22  1  0
  5 23  1  0
  7 24  1  0
  8 25  1  0
 10 26  1  0
 15 27  1  0
 16 28  1  0
M  ISO  8  17  13  18  13  19  13  20  13  21  13  22  13  23  13  24  14
M  ISO  4  25  14  26  14  27   3  28   3
M  END
>  <minimizedAffinity>  (1) 
-4.57432365

>  <minimizedRMSD>  (1) 
5.19621515

$$$$
