
     RDKit          3D

 23 24  0  0  1  0  0  0  0  0999 V2000
   36.5800   30.0990   48.9010 N   0  0  0  0  0  0  0  0  0  0  0  0
   37.0220   31.4590   48.6820 C   0  0  0  0  0  0  0  0  0  0  0  0
   37.8830   31.7370   49.9090 C   0  0  0  0  0  0  0  0  0  0  0  0
   37.9660   30.4340   50.6720 C   0  0  2  0  0  0  0  0  0  0  0  0
   37.6730   29.4280   49.5790 C   0  0  0  0  0  0  0  0  0  0  0  0
   35.3320   29.5230   48.5300 C   0  0  0  0  0  0  0  0  0  0  0  0
   34.7490   29.9920   47.3570 C   0  0  0  0  0  0  0  0  0  0  0  0
   33.5120   29.4390   46.9660 C   0  0  0  0  0  0  0  0  0  0  0  0
   32.9690   28.4650   47.7850 N   0  0  0  0  0  0  0  0  0  0  0  0
   33.5820   28.0530   48.9100 C   0  0  0  0  0  0  0  0  0  0  0  0
   34.7730   28.5850   49.2860 N   0  0  0  0  0  0  0  0  0  0  0  0
   37.0880   30.3510   51.7310 O   0  0  0  0  0  0  0  0  0  0  0  0
   37.6124   31.5395   47.7574 H   0  0  0  0  0  0  0  0  0  0  0  0
   36.1930   32.1719   48.5615 H   0  0  0  0  0  0  0  0  0  0  0  0
   38.8877   32.0642   49.6033 H   0  0  0  0  0  0  0  0  0  0  0  0
   37.4508   32.5367   50.5284 H   0  0  0  0  0  0  0  0  0  0  0  0
   38.9340   30.2842   51.1726 H   0  0  0  0  0  0  0  0  0  0  0  0
   37.3620   28.4568   49.9915 H   0  0  0  0  0  0  0  0  0  0  0  0
   38.5314   29.1794   48.9377 H   0  0  0  0  0  0  0  0  0  0  0  0
   35.2380   30.7704   46.7530 H   0  0  0  0  0  0  0  0  0  0  0  0
   33.0008   29.7679   46.0492 H   0  0  0  0  0  0  0  0  0  0  0  0
   33.1127   27.2764   49.5319 H   0  0  0  0  0  0  0  0  0  0  0  0
   37.5918   30.3986   52.5819 H   0  0  0  0  0  0  0  0  0  0  0  0
  1  5  1  0
  2  1  1  0
  2  3  1  0
  3  4  1  0
  4 12  1  0
  5  4  1  0
  6  1  1  0
  6 11  1  0
  7  6  2  0
  8  7  1  0
  8  9  2  0
  9 10  1  0
 10 11  2  0
  2 13  1  0
  2 14  1  0
  3 15  1  0
  3 16  1  0
  4 17  1  1
  5 18  1  0
  5 19  1  0
  7 20  1  0
  8 21  1  0
 10 22  1  0
 12 23  1  0
M  ISO  8  13  13  14  13  15  13  16  13  17  13  18  13  19  13  20  14
M  ISO  3  21  14  22  14  23   3
M  END
>  <minimizedAffinity>  (1) 
-3.73881698

>  <minimizedRMSD>  (1) 
0.733899534

$$$$
