
     RDKit          3D

 45 49  0  0  1  0  0  0  0  0999 V2000
   35.6780   30.0020   46.9950 F   0  0  0  0  0  0  0  0  0  0  0  0
   35.8490   29.8130   48.3180 C   0  0  0  0  0  0  0  0  0  0  0  0
   35.0100   29.1500   49.1760 C   0  0  0  0  0  0  0  0  0  0  0  0
   35.3820   29.0420   50.5280 C   0  0  0  0  0  0  0  0  0  0  0  0
   36.5580   29.5840   51.0010 C   0  0  0  0  0  0  0  0  0  0  0  0
   37.3890   30.2500   50.1130 C   0  0  0  0  0  0  0  0  0  0  0  0
   37.0330   30.3650   48.7570 C   0  0  0  0  0  0  0  0  0  0  0  0
   31.7970   27.5620   48.6920 N   0  0  0  0  0  0  0  0  0  0  0  0
   32.6040   26.6570   47.8890 C   0  0  0  0  0  0  0  0  0  0  0  0
   33.9570   27.3080   47.8980 C   0  0  0  0  0  0  0  0  0  0  0  0
   33.7300   28.7120   48.6070 C   0  0  1  0  0  0  0  0  0  0  0  0
   32.6940   28.3360   49.5750 C   0  0  0  0  0  0  0  0  0  0  0  0
   30.3950   27.7140   48.6620 C   0  0  0  0  0  0  0  0  0  0  0  0
   29.8860   28.4420   47.5750 C   0  0  0  0  0  0  0  0  0  0  0  0
   28.4990   28.6430   47.4860 C   0  0  0  0  0  0  0  0  0  0  0  0
   27.7320   28.0960   48.4970 N   0  0  0  0  0  0  0  0  0  0  0  0
   28.2590   27.4040   49.5200 C   0  0  0  0  0  0  0  0  0  0  0  0
   29.5970   27.2160   49.5990 N   0  0  0  0  0  0  0  0  0  0  0  0
   38.3930   32.3960   48.1610 C   0  0  0  0  0  0  0  0  0  0  0  0
   37.9860   31.0840   47.9170 C   0  0  0  0  0  0  0  0  0  0  0  0
   38.4980   30.4120   46.8300 C   0  0  0  0  0  0  0  0  0  0  0  0
   39.4040   31.0370   45.9950 C   0  0  0  0  0  0  0  0  0  0  0  0
   40.0540   30.6210   44.8770 N   0  0  0  0  0  0  0  0  0  0  0  0
   40.8470   31.6300   44.4240 C   0  0  0  0  0  0  0  0  0  0  0  0
   40.7140   32.7070   45.2490 N   0  0  0  0  0  0  0  0  0  0  0  0
   39.8310   32.3370   46.2060 C   0  0  0  0  0  0  0  0  0  0  0  0
   39.3000   32.9950   47.3080 C   0  0  0  0  0  0  0  0  0  0  0  0
   34.7176   28.5115   51.2259 H   0  0  0  0  0  0  0  0  0  0  0  0
   36.8318   29.4900   52.0622 H   0  0  0  0  0  0  0  0  0  0  0  0
   38.3313   30.6906   50.4707 H   0  0  0  0  0  0  0  0  0  0  0  0
   32.2099   26.5796   46.8650 H   0  0  0  0  0  0  0  0  0  0  0  0
   32.6166   25.6282   48.2782 H   0  0  0  0  0  0  0  0  0  0  0  0
   34.6757   26.6992   48.4661 H   0  0  0  0  0  0  0  0  0  0  0  0
   34.3707   27.4177   46.8847 H   0  0  0  0  0  0  0  0  0  0  0  0
   33.4154   29.5695   47.9940 H   0  0  0  0  0  0  0  0  0  0  0  0
   32.1906   29.2173   49.9990 H   0  0  0  0  0  0  0  0  0  0  0  0
   33.0579   27.7941   50.4604 H   0  0  0  0  0  0  0  0  0  0  0  0
   30.5612   28.8475   46.8071 H   0  0  0  0  0  0  0  0  0  0  0  0
   28.0472   29.2058   46.6559 H   0  0  0  0  0  0  0  0  0  0  0  0
   27.6006   26.9882   50.2970 H   0  0  0  0  0  0  0  0  0  0  0  0
   37.9953   32.9487   49.0249 H   0  0  0  0  0  0  0  0  0  0  0  0
   38.1856   29.3771   46.6262 H   0  0  0  0  0  0  0  0  0  0  0  0
   39.9616   29.6918   44.4423 H   0  0  0  0  0  0  0  0  0  0  0  0
   41.4922   31.5838   43.5343 H   0  0  0  0  0  0  0  0  0  0  0  0
   39.6128   34.0303   47.5089 H   0  0  0  0  0  0  0  0  0  0  0  0
  1  2  1  0
  2  7  2  0
  2  3  1  0
  3  4  2  0
  4  5  1  0
  6  5  2  0
  7  6  1  0
  8 12  1  0
  9 10  1  0
  9  8  1  0
 10 11  1  0
 11  3  1  0
 11 12  1  0
 13  8  1  0
 13 18  1  0
 14 13  2  0
 15 14  1  0
 15 16  2  0
 16 17  1  0
 17 18  2  0
 20 19  2  0
 20  7  1  0
 21 20  1  0
 22 26  1  0
 22 21  2  0
 23 22  1  0
 24 23  1  0
 24 25  2  0
 25 26  1  0
 26 27  2  0
 27 19  1  0
  4 28  1  0
  5 29  1  0
  6 30  1  0
  9 31  1  0
  9 32  1  0
 10 33  1  0
 10 34  1  0
 11 35  1  6
 12 36  1  0
 12 37  1  0
 14 38  1  0
 15 39  1  0
 17 40  1  0
 19 41  1  0
 21 42  1  0
 23 43  1  0
 24 44  1  0
 27 45  1  0
M  ISO  8  28  14  29  14  30  14  31  13  32  13  33  13  34  13  35  13
M  ISO  8  36  13  37  13  38  14  39  14  40  14  41  14  42  14  43   9
M  ISO  2  44  14  45  14
M  END
>  <minimizedAffinity>  (1) 
-7.93194675

>  <minimizedRMSD>  (1) 
3.96563649

$$$$
