
     RDKit          3D

 27 28  0  0  0  0  0  0  0  0999 V2000
   38.0220   30.3640   47.7690 C   0  0  0  0  0  0  0  0  0  0  0  0
   37.3010   29.8060   51.4340 C   0  0  0  0  0  0  0  0  0  0  0  0
   37.9870   30.1050   50.2310 C   0  0  0  0  0  0  0  0  0  0  0  0
   37.2820   30.0460   49.0230 C   0  0  0  0  0  0  0  0  0  0  0  0
   35.9740   29.7050   49.0510 N   0  0  0  0  0  0  0  0  0  0  0  0
   35.3440   29.4240   50.2200 C   0  0  0  0  0  0  0  0  0  0  0  0
   35.9970   29.4740   51.3860 N   0  0  0  0  0  0  0  0  0  0  0  0
   38.3630   31.7280   47.8210 N   0  0  0  0  0  0  0  0  0  0  0  0
   39.3100   32.2340   46.9320 C   0  0  0  0  0  0  0  0  0  0  0  0
   39.6010   33.6780   47.3160 C   0  0  0  0  0  0  0  0  0  0  0  0
   39.5250   33.7880   48.7610 N   0  0  0  0  0  0  0  0  0  0  0  0
   38.2000   33.5770   49.2720 C   0  0  0  0  0  0  0  0  0  0  0  0
   37.4240   32.6290   48.3760 C   0  0  0  0  0  0  0  0  0  0  0  0
   37.3836   30.1683   46.8949 H   0  0  0  0  0  0  0  0  0  0  0  0
   38.9231   29.7397   47.6786 H   0  0  0  0  0  0  0  0  0  0  0  0
   37.8288   29.8447   52.3983 H   0  0  0  0  0  0  0  0  0  0  0  0
   39.0525   30.3781   50.2459 H   0  0  0  0  0  0  0  0  0  0  0  0
   34.2786   29.1506   50.2081 H   0  0  0  0  0  0  0  0  0  0  0  0
   38.9158   32.1940   45.9058 H   0  0  0  0  0  0  0  0  0  0  0  0
   40.2319   31.6358   46.9787 H   0  0  0  0  0  0  0  0  0  0  0  0
   40.6081   33.9584   46.9738 H   0  0  0  0  0  0  0  0  0  0  0  0
   38.8692   34.3508   46.8451 H   0  0  0  0  0  0  0  0  0  0  0  0
   40.1527   33.0852   49.1769 H   0  0  0  0  0  0  0  0  0  0  0  0
   38.2668   33.1460   50.2818 H   0  0  0  0  0  0  0  0  0  0  0  0
   37.6751   34.5432   49.3034 H   0  0  0  0  0  0  0  0  0  0  0  0
   36.9207   33.1915   47.5758 H   0  0  0  0  0  0  0  0  0  0  0  0
   36.6517   32.0917   48.9459 H   0  0  0  0  0  0  0  0  0  0  0  0
  1  8  1  0
  1  4  1  0
  3  2  2  0
  4  5  2  0
  4  3  1  0
  5  6  1  0
  6  7  2  0
  7  2  1  0
  8 13  1  0
  9 10  1  0
  9  8  1  0
 10 11  1  0
 11 12  1  0
 13 12  1  0
  1 14  1  0
  1 15  1  0
  2 16  1  0
  3 17  1  0
  6 18  1  0
  9 19  1  0
  9 20  1  0
 10 21  1  0
 10 22  1  0
 11 23  1  0
 12 24  1  0
 12 25  1  0
 13 26  1  0
 13 27  1  0
M  ISO  8  14   8  15   8  16  14  17  14  18  14  19  13  20  13  21  13
M  ISO  6  22  13  23   5  24  13  25  13  26  13  27  13
M  END
>  <minimizedAffinity>  (1) 
-3.54204082

>  <minimizedRMSD>  (1) 
1.38683367

$$$$
