
     RDKit          3D

 45 48  0  0  1  0  0  0  0  0999 V2000
   35.8730   30.4720   46.5990 F   0  0  0  0  0  0  0  0  0  0  0  0
   36.1930   30.0470   47.8390 C   0  0  0  0  0  0  0  0  0  0  0  0
   35.3900   29.3370   48.7040 C   0  0  0  0  0  0  0  0  0  0  0  0
   35.9170   28.9610   49.9510 C   0  0  0  0  0  0  0  0  0  0  0  0
   37.2070   29.2880   50.3190 C   0  0  0  0  0  0  0  0  0  0  0  0
   38.0000   30.0080   49.4270 C   0  0  0  0  0  0  0  0  0  0  0  0
   37.4790   30.3850   48.1790 C   0  0  0  0  0  0  0  0  0  0  0  0
   32.0930   27.9420   48.1950 N   0  0  0  0  0  0  0  0  0  0  0  0
   32.6800   27.5580   46.9260 C   0  0  0  0  0  0  0  0  0  0  0  0
   34.0270   28.2160   46.9610 C   0  0  0  0  0  0  0  0  0  0  0  0
   34.0020   29.1340   48.2600 C   0  0  1  0  0  0  0  0  0  0  0  0
   33.1810   28.2900   49.1350 C   0  0  0  0  0  0  0  0  0  0  0  0
   30.7210   27.9990   48.5230 C   0  0  0  0  0  0  0  0  0  0  0  0
   29.8530   28.2890   47.4580 C   0  0  0  0  0  0  0  0  0  0  0  0
   28.4770   28.3730   47.7130 C   0  0  0  0  0  0  0  0  0  0  0  0
   28.0760   28.1590   49.0180 N   0  0  0  0  0  0  0  0  0  0  0  0
   28.9340   27.8870   50.0030 C   0  0  0  0  0  0  0  0  0  0  0  0
   30.2680   27.8050   49.7590 N   0  0  0  0  0  0  0  0  0  0  0  0
   38.9110   32.3820   47.5520 C   0  0  0  0  0  0  0  0  0  0  0  0
   38.3980   31.1340   47.3280 C   0  0  0  0  0  0  0  0  0  0  0  0
   38.7420   30.4320   46.1780 C   0  0  0  0  0  0  0  0  0  0  0  0
   39.6110   31.0130   45.2660 C   0  0  0  0  0  0  0  0  0  0  0  0
   40.1520   32.2810   45.4630 C   0  0  0  0  0  0  0  0  0  0  0  0
   39.7700   32.9330   46.6300 C   0  0  0  0  0  0  0  0  0  0  0  0
   38.4170   33.1680   49.0150 S   0  0  0  0  0  0  0  0  0  0  0  0
   39.0890   32.5070   50.1750 O   0  0  0  0  0  0  0  0  0  0  0  0
   38.9770   34.5800   48.9590 O   0  0  0  0  0  0  0  0  0  0  0  0
   35.2868   28.3925   50.6508 H   0  0  0  0  0  0  0  0  0  0  0  0
   37.6024   28.9853   51.2999 H   0  0  0  0  0  0  0  0  0  0  0  0
   39.0303   30.2798   49.6999 H   0  0  0  0  0  0  0  0  0  0  0  0
   32.0795   27.9323   46.0838 H   0  0  0  0  0  0  0  0  0  0  0  0
   32.7348   26.4682   46.7872 H   0  0  0  0  0  0  0  0  0  0  0  0
   34.8241   27.4617   47.0357 H   0  0  0  0  0  0  0  0  0  0  0  0
   34.2277   28.7963   46.0483 H   0  0  0  0  0  0  0  0  0  0  0  0
   33.6001   30.1547   48.1778 H   0  0  0  0  0  0  0  0  0  0  0  0
   32.8066   28.8462   50.0070 H   0  0  0  0  0  0  0  0  0  0  0  0
   33.7049   27.4316   49.5807 H   0  0  0  0  0  0  0  0  0  0  0  0
   30.2453   28.4473   46.4426 H   0  0  0  0  0  0  0  0  0  0  0  0
   27.7537   28.5977   46.9153 H   0  0  0  0  0  0  0  0  0  0  0  0
   28.5570   27.7274   51.0240 H   0  0  0  0  0  0  0  0  0  0  0  0
   38.3303   29.4287   45.9938 H   0  0  0  0  0  0  0  0  0  0  0  0
   39.8814   30.4541   44.3580 H   0  0  0  0  0  0  0  0  0  0  0  0
   40.8408   32.7396   44.7382 H   0  0  0  0  0  0  0  0  0  0  0  0
   40.1740   33.9373   46.8252 H   0  0  0  0  0  0  0  0  0  0  0  0
   37.0538   33.1271   49.1449 H   0  0  0  0  0  0  0  0  0  0  0  0
  1  2  1  0
  2  7  2  0
  2  3  1  0
  3  4  2  0
  4  5  1  0
  6  5  2  0
  7  6  1  0
  8 13  1  0
  8 12  1  0
  9 10  1  0
  9  8  1  0
 10 11  1  0
 11  3  1  0
 11 12  1  0
 13 18  2  0
 14 15  2  0
 14 13  1  0
 15 16  1  0
 16 17  2  0
 18 17  1  0
 19 25  1  0
 20 19  2  0
 20  7  1  0
 21 20  1  0
 22 23  1  0
 22 21  2  0
 23 24  2  0
 24 19  1  0
 25 26  2  0
 27 25  2  0
  4 28  1  0
  5 29  1  0
  6 30  1  0
  9 31  1  0
  9 32  1  0
 10 33  1  0
 10 34  1  0
 11 35  1  6
 12 36  1  0
 12 37  1  0
 14 38  1  0
 15 39  1  0
 17 40  1  0
 21 41  1  0
 22 42  1  0
 23 43  1  0
 24 44  1  0
 25 45  1  0
M  ISO  8  28  14  29  14  30  14  31  13  32  13  33  13  34  13  35  13
M  ISO  8  36  13  37  13  38  14  39  14  40  14  41  14  42  14  43  14
M  ISO  2  44  14  45  11
M  END
>  <minimizedAffinity>  (1) 
-7.37940454

>  <minimizedRMSD>  (1) 
3.53460646

$$$$
