
     RDKit          3D

 49 52  0  0  1  0  0  0  0  0999 V2000
   36.1510   30.0300   46.7090 F   0  0  0  0  0  0  0  0  0  0  0  0
   36.3970   29.8890   48.0210 C   0  0  0  0  0  0  0  0  0  0  0  0
   35.5560   29.3530   48.9600 C   0  0  0  0  0  0  0  0  0  0  0  0
   35.9950   29.3020   50.2950 C   0  0  0  0  0  0  0  0  0  0  0  0
   37.2320   29.7710   50.6720 C   0  0  0  0  0  0  0  0  0  0  0  0
   38.0700   30.3090   49.6910 C   0  0  0  0  0  0  0  0  0  0  0  0
   37.6390   30.3630   48.3550 C   0  0  0  0  0  0  0  0  0  0  0  0
   32.2890   27.8250   48.6840 N   0  0  0  0  0  0  0  0  0  0  0  0
   33.0060   26.9630   47.7580 C   0  0  0  0  0  0  0  0  0  0  0  0
   34.3630   27.6010   47.6770 C   0  0  0  0  0  0  0  0  0  0  0  0
   34.2250   28.9610   48.4950 C   0  0  1  0  0  0  0  0  0  0  0  0
   33.2740   28.5430   49.5240 C   0  0  0  0  0  0  0  0  0  0  0  0
   30.8960   27.9940   48.7980 C   0  0  0  0  0  0  0  0  0  0  0  0
   30.2170   28.2310   47.5910 C   0  0  0  0  0  0  0  0  0  0  0  0
   28.8260   28.4240   47.6110 C   0  0  0  0  0  0  0  0  0  0  0  0
   28.2280   28.3600   48.8560 N   0  0  0  0  0  0  0  0  0  0  0  0
   28.9040   28.1310   49.9840 C   0  0  0  0  0  0  0  0  0  0  0  0
   30.2400   27.9500   49.9380 N   0  0  0  0  0  0  0  0  0  0  0  0
   38.0920   32.2920   46.8600 C   0  0  2  0  0  0  0  0  0  0  0  0
   38.5990   30.9590   47.3710 C   0  0  2  0  0  0  0  0  0  0  0  0
   38.8650   30.1410   46.2960 O   0  0  0  0  0  0  0  0  0  0  0  0
   38.3060   30.6110   45.1200 C   0  0  0  0  0  0  0  0  0  0  0  0
   38.9780   31.8740   44.6450 C   0  0  1  0  0  0  0  0  0  0  0  0
   39.0210   32.8440   45.7970 C   0  0  2  0  0  0  0  0  0  0  0  0
   38.1690   33.1610   47.9610 O   0  0  0  0  0  0  0  0  0  0  0  0
   40.2410   31.6290   44.1140 O   0  0  0  0  0  0  0  0  0  0  0  0
   40.3150   32.9940   46.2990 O   0  0  0  0  0  0  0  0  0  0  0  0
   35.3300   28.8747   51.0599 H   0  0  0  0  0  0  0  0  0  0  0  0
   37.5547   29.7237   51.7225 H   0  0  0  0  0  0  0  0  0  0  0  0
   39.0652   30.6894   49.9647 H   0  0  0  0  0  0  0  0  0  0  0  0
   33.0752   25.9366   48.1475 H   0  0  0  0  0  0  0  0  0  0  0  0
   32.5114   26.8747   46.7794 H   0  0  0  0  0  0  0  0  0  0  0  0
   35.1243   26.9508   48.1326 H   0  0  0  0  0  0  0  0  0  0  0  0
   34.6788   27.7729   46.6374 H   0  0  0  0  0  0  0  0  0  0  0  0
   33.8684   29.8601   47.9710 H   0  0  0  0  0  0  0  0  0  0  0  0
   32.8223   29.4047   50.0372 H   0  0  0  0  0  0  0  0  0  0  0  0
   33.7069   27.9488   50.3423 H   0  0  0  0  0  0  0  0  0  0  0  0
   30.7691   28.2650   46.6402 H   0  0  0  0  0  0  0  0  0  0  0  0
   28.2488   28.6141   46.6941 H   0  0  0  0  0  0  0  0  0  0  0  0
   28.3739   28.0901   50.9470 H   0  0  0  0  0  0  0  0  0  0  0  0
   37.0819   32.1883   46.4369 H   0  0  0  0  0  0  0  0  0  0  0  0
   39.5393   31.0937   47.9257 H   0  0  0  0  0  0  0  0  0  0  0  0
   38.4097   29.8390   44.3433 H   0  0  0  0  0  0  0  0  0  0  0  0
   37.2473   30.8392   45.3126 H   0  0  0  0  0  0  0  0  0  0  0  0
   38.3981   32.3117   43.8191 H   0  0  0  0  0  0  0  0  0  0  0  0
   38.7038   33.8445   45.4679 H   0  0  0  0  0  0  0  0  0  0  0  0
   38.1225   32.6364   48.7993 H   0  0  0  0  0  0  0  0  0  0  0  0
   40.8900   31.5031   44.8509 H   0  0  0  0  0  0  0  0  0  0  0  0
   40.2875   32.9908   47.2886 H   0  0  0  0  0  0  0  0  0  0  0  0
  1  2  1  0
  2  7  2  0
  2  3  1  0
  3  4  2  0
  4  5  1  0
  6  5  2  0
  7  6  1  0
  8 13  1  0
  8 12  1  0
  9  8  1  0
 10  9  1  0
 10 11  1  0
 11  3  1  0
 11 12  1  0
 13 18  2  0
 14 15  2  0
 14 13  1  0
 15 16  1  0
 16 17  2  0
 18 17  1  0
 19 20  1  0
 19 25  1  0
 20  7  1  0
 21 20  1  0
 22 21  1  0
 23 26  1  0
 23 22  1  0
 23 24  1  0
 24 27  1  0
 24 19  1  0
  4 28  1  0
  5 29  1  0
  6 30  1  0
  9 31  1  0
  9 32  1  0
 10 33  1  0
 10 34  1  0
 11 35  1  6
 12 36  1  0
 12 37  1  0
 14 38  1  0
 15 39  1  0
 17 40  1  0
 19 41  1  6
 20 42  1  1
 22 43  1  0
 22 44  1  0
 23 45  1  6
 24 46  1  6
 25 47  1  0
 26 48  1  0
 27 49  1  0
M  ISO  8  28  14  29  14  30  14  31  13  32  13  33  13  34  13  35  13
M  ISO  8  36  13  37  13  38  14  39  14  40  14  41  13  42  13  43  13
M  ISO  6  44  13  45  13  46  13  47   3  48   3  49   3
M  END
>  <minimizedAffinity>  (1) 
-7.24417448

>  <minimizedRMSD>  (1) 
3.76307631

$$$$
