
     RDKit          3D

 15 15  0  0  0  0  0  0  0  0999 V2000
   37.3650   30.2250   51.2900 C   0  0  0  0  0  0  0  0  0  0  0  0
   37.9760   30.6520   50.0880 C   0  0  0  0  0  0  0  0  0  0  0  0
   37.4090   30.2510   48.8790 C   0  0  0  0  0  0  0  0  0  0  0  0
   36.3000   29.4720   48.9250 N   0  0  0  0  0  0  0  0  0  0  0  0
   35.7330   29.0770   50.0810 C   0  0  0  0  0  0  0  0  0  0  0  0
   36.2760   29.4600   51.2550 N   0  0  0  0  0  0  0  0  0  0  0  0
   38.0510   30.6990   47.6240 C   0  0  0  0  0  0  0  0  0  0  0  0
   37.0970   31.1950   46.6670 N   0  0  0  0  0  0  0  0  0  0  0  0
   37.7915   30.5264   52.2581 H   0  0  0  0  0  0  0  0  0  0  0  0
   38.8758   31.2845   50.1065 H   0  0  0  0  0  0  0  0  0  0  0  0
   34.8323   28.4457   50.0679 H   0  0  0  0  0  0  0  0  0  0  0  0
   38.7653   31.5017   47.8595 H   0  0  0  0  0  0  0  0  0  0  0  0
   38.5550   29.8300   47.1760 H   0  0  0  0  0  0  0  0  0  0  0  0
   36.2966   31.6111   47.1641 H   0  0  0  0  0  0  0  0  0  0  0  0
   37.5438   31.9106   46.0760 H   0  0  0  0  0  0  0  0  0  0  0  0
  2  1  2  0
  3  4  2  0
  3  2  1  0
  4  5  1  0
  5  6  2  0
  6  1  1  0
  7  3  1  0
  8  7  1  0
  1  9  1  0
  2 10  1  0
  5 11  1  0
  7 12  1  0
  7 13  1  0
  8 14  1  0
  8 15  1  0
M  ISO  7   9  14  10  14  11  14  12   8  13   8  14   5  15   5
M  END
>  <minimizedAffinity>  (1) 
-3.35337639

>  <minimizedRMSD>  (1) 
0.424025357

$$$$
