
     RDKit          3D

 34 36  0  0  1  0  0  0  0  0999 V2000
   32.6820   27.8740   48.5270 N   0  0  0  0  0  0  0  0  0  0  0  0
   33.4680   27.5920   47.3340 C   0  0  0  0  0  0  0  0  0  0  0  0
   34.6820   28.4590   47.5100 C   0  0  0  0  0  0  0  0  0  0  0  0
   34.3580   29.3540   48.7870 C   0  0  1  0  0  0  0  0  0  0  0  0
   33.5910   28.3800   49.5710 C   0  0  0  0  0  0  0  0  0  0  0  0
   36.1400   31.0170   47.3340 F   0  0  0  0  0  0  0  0  0  0  0  0
   36.3840   30.6430   48.6080 C   0  0  0  0  0  0  0  0  0  0  0  0
   35.6310   29.7900   49.3720 C   0  0  0  0  0  0  0  0  0  0  0  0
   36.0710   29.4930   50.6740 C   0  0  0  0  0  0  0  0  0  0  0  0
   37.2250   30.0340   51.1920 C   0  0  0  0  0  0  0  0  0  0  0  0
   37.9790   30.9000   50.4010 C   0  0  0  0  0  0  0  0  0  0  0  0
   37.5450   31.1990   49.1000 C   0  0  0  0  0  0  0  0  0  0  0  0
   38.3790   32.1120   48.3230 C   0  0  0  0  0  0  0  0  0  0  0  0
   38.6940   33.2430   48.7630 O   0  0  0  0  0  0  0  0  0  0  0  0
   31.2940   27.7100   48.6880 C   0  0  0  0  0  0  0  0  0  0  0  0
   30.6080   27.1720   47.5890 C   0  0  0  0  0  0  0  0  0  0  0  0
   29.2170   26.9860   47.6860 C   0  0  0  0  0  0  0  0  0  0  0  0
   28.6290   27.3570   48.8820 N   0  0  0  0  0  0  0  0  0  0  0  0
   29.3250   27.8680   49.9080 C   0  0  0  0  0  0  0  0  0  0  0  0
   30.6620   28.0480   49.8170 N   0  0  0  0  0  0  0  0  0  0  0  0
   32.9155   27.8671   46.4235 H   0  0  0  0  0  0  0  0  0  0  0  0
   33.7123   26.5255   47.2205 H   0  0  0  0  0  0  0  0  0  0  0  0
   35.5765   27.8431   47.6848 H   0  0  0  0  0  0  0  0  0  0  0  0
   34.8919   29.0673   46.6179 H   0  0  0  0  0  0  0  0  0  0  0  0
   33.8030   30.2944   48.6540 H   0  0  0  0  0  0  0  0  0  0  0  0
   33.0412   28.8600   50.3940 H   0  0  0  0  0  0  0  0  0  0  0  0
   34.1947   27.6102   50.0740 H   0  0  0  0  0  0  0  0  0  0  0  0
   35.4756   28.8086   51.2961 H   0  0  0  0  0  0  0  0  0  0  0  0
   37.5478   29.7872   52.2142 H   0  0  0  0  0  0  0  0  0  0  0  0
   38.9055   31.3449   50.7929 H   0  0  0  0  0  0  0  0  0  0  0  0
   38.7383   31.8009   47.3310 H   0  0  0  0  0  0  0  0  0  0  0  0
   31.1472   26.9009   46.6694 H   0  0  0  0  0  0  0  0  0  0  0  0
   28.6287   26.5682   46.8558 H   0  0  0  0  0  0  0  0  0  0  0  0
   28.8017   28.1442   50.8353 H   0  0  0  0  0  0  0  0  0  0  0  0
  1 15  1  0
  1  5  1  0
  2  3  1  0
  2  1  1  0
  3  4  1  0
  4  8  1  0
  4  5  1  0
  6  7  1  0
  7 12  2  0
  7  8  1  0
  8  9  2  0
  9 10  1  0
 11 10  2  0
 12 11  1  0
 13 14  2  0
 13 12  1  0
 15 20  2  0
 16 17  2  0
 16 15  1  0
 17 18  1  0
 18 19  2  0
 20 19  1  0
  2 21  1  0
  2 22  1  0
  3 23  1  0
  3 24  1  0
  4 25  1  6
  5 26  1  0
  5 27  1  0
  9 28  1  0
 10 29  1  0
 11 30  1  0
 13 31  1  0
 16 32  1  0
 17 33  1  0
 19 34  1  0
M  ISO  8  21  13  22  13  23  13  24  13  25  13  26  13  27  13  28  14
M  ISO  6  29  14  30  14  31   6  32  14  33  14  34  14
M  END
>  <minimizedAffinity>  (1) 
-6.08938789

>  <minimizedRMSD>  (1) 
3.00962138

$$$$
