
     RDKit          3D

 14 14  0  0  0  0  0  0  0  0999 V2000
   37.3690   30.2250   51.3030 C   0  0  0  0  0  0  0  0  0  0  0  0
   37.9980   30.6880   50.1020 C   0  0  0  0  0  0  0  0  0  0  0  0
   37.4410   30.2970   48.8890 C   0  0  0  0  0  0  0  0  0  0  0  0
   36.3460   29.5090   48.8900 N   0  0  0  0  0  0  0  0  0  0  0  0
   35.7710   29.0850   50.0350 C   0  0  0  0  0  0  0  0  0  0  0  0
   36.2920   29.4500   51.2310 N   0  0  0  0  0  0  0  0  0  0  0  0
   38.0910   30.7760   47.6470 C   0  0  0  0  0  0  0  0  0  0  0  0
   37.1450   31.3890   46.8070 O   0  0  0  0  0  0  0  0  0  0  0  0
   37.7771   30.5107   52.2837 H   0  0  0  0  0  0  0  0  0  0  0  0
   38.8903   31.3303   50.1379 H   0  0  0  0  0  0  0  0  0  0  0  0
   34.8788   28.4427   49.9970 H   0  0  0  0  0  0  0  0  0  0  0  0
   38.8737   31.5047   47.9047 H   0  0  0  0  0  0  0  0  0  0  0  0
   38.5341   29.9176   47.1208 H   0  0  0  0  0  0  0  0  0  0  0  0
   36.4549   31.8362   47.3583 H   0  0  0  0  0  0  0  0  0  0  0  0
  2  1  2  0
  3  4  2  0
  3  2  1  0
  4  5  1  0
  5  6  2  0
  6  1  1  0
  7  3  1  0
  8  7  1  0
  1  9  1  0
  2 10  1  0
  5 11  1  0
  7 12  1  0
  7 13  1  0
  8 14  1  0
M  ISO  6   9  14  10  14  11  14  12   8  13   8  14   3
M  END
>  <minimizedAffinity>  (1) 
-3.33053589

>  <minimizedRMSD>  (1) 
0.332462639

$$$$
