
     RDKit          3D

 34 36  0  0  1  0  0  0  0  0999 V2000
   33.2180   29.8900   46.3340 N   0  0  0  0  0  0  0  0  0  0  0  0
   34.4470   29.7660   45.5650 C   0  0  0  0  0  0  0  0  0  0  0  0
   35.5160   30.0050   46.5910 C   0  0  0  0  0  0  0  0  0  0  0  0
   34.7290   30.4650   47.9020 C   0  0  1  0  0  0  0  0  0  0  0  0
   33.5300   29.6400   47.7580 C   0  0  0  0  0  0  0  0  0  0  0  0
   37.2960   31.6470   48.1750 F   0  0  0  0  0  0  0  0  0  0  0  0
   36.7800   30.8330   49.1160 C   0  0  0  0  0  0  0  0  0  0  0  0
   35.5790   30.1750   49.0610 C   0  0  0  0  0  0  0  0  0  0  0  0
   35.2130   29.3580   50.1490 C   0  0  0  0  0  0  0  0  0  0  0  0
   36.0300   29.2140   51.2500 C   0  0  0  0  0  0  0  0  0  0  0  0
   37.2500   29.8950   51.2790 C   0  0  0  0  0  0  0  0  0  0  0  0
   37.6160   30.7090   50.1950 C   0  0  0  0  0  0  0  0  0  0  0  0
   38.8770   31.3520   50.3340 N   0  0  0  0  0  0  0  0  0  0  0  0
   31.9320   30.2010   45.8530 C   0  0  0  0  0  0  0  0  0  0  0  0
   31.8480   31.3360   45.0340 C   0  0  0  0  0  0  0  0  0  0  0  0
   30.6000   31.7210   44.5190 C   0  0  0  0  0  0  0  0  0  0  0  0
   29.5270   30.9240   44.8720 N   0  0  0  0  0  0  0  0  0  0  0  0
   29.6430   29.8470   45.6560 C   0  0  0  0  0  0  0  0  0  0  0  0
   30.8550   29.4840   46.1490 N   0  0  0  0  0  0  0  0  0  0  0  0
   34.5385   28.7616   45.1260 H   0  0  0  0  0  0  0  0  0  0  0  0
   34.4984   30.4640   44.7164 H   0  0  0  0  0  0  0  0  0  0  0  0
   36.0820   29.0815   46.7830 H   0  0  0  0  0  0  0  0  0  0  0  0
   36.2472   30.7575   46.2607 H   0  0  0  0  0  0  0  0  0  0  0  0
   34.4734   31.5269   48.0325 H   0  0  0  0  0  0  0  0  0  0  0  0
   32.7191   29.9788   48.4195 H   0  0  0  0  0  0  0  0  0  0  0  0
   33.6605   28.5810   48.0254 H   0  0  0  0  0  0  0  0  0  0  0  0
   34.2527   28.8224   50.1192 H   0  0  0  0  0  0  0  0  0  0  0  0
   35.7267   28.5738   52.0916 H   0  0  0  0  0  0  0  0  0  0  0  0
   37.9196   29.7939   52.1459 H   0  0  0  0  0  0  0  0  0  0  0  0
   39.4412   31.2013   51.1824 H   0  0  0  0  0  0  0  0  0  0  0  0
   39.2260   31.9684   49.5862 H   0  0  0  0  0  0  0  0  0  0  0  0
   32.7505   31.9187   44.7975 H   0  0  0  0  0  0  0  0  0  0  0  0
   30.4830   32.6039   43.8733 H   0  0  0  0  0  0  0  0  0  0  0  0
   28.7516   29.2517   45.9030 H   0  0  0  0  0  0  0  0  0  0  0  0
  1  5  1  0
  2  1  1  0
  2  3  1  0
  3  4  1  0
  4  8  1  0
  5  4  1  0
  6  7  1  0
  7 12  2  0
  8  7  1  0
  8  9  2  0
  9 10  1  0
 10 11  2  0
 12 13  1  0
 12 11  1  0
 14 19  1  0
 14  1  1  0
 15 14  2  0
 16 17  2  0
 16 15  1  0
 17 18  1  0
 18 19  2  0
  2 20  1  0
  2 21  1  0
  3 22  1  0
  3 23  1  0
  4 24  1  6
  5 25  1  0
  5 26  1  0
  9 27  1  0
 10 28  1  0
 11 29  1  0
 13 30  1  0
 13 31  1  0
 15 32  1  0
 16 33  1  0
 18 34  1  0
M  ISO  8  20  13  21  13  22  13  23  13  24  13  25  13  26  13  27  14
M  ISO  5  28  14  29  14  32  14  33  14  34  14
M  END
>  <minimizedAffinity>  (1) 
-5.40377998

>  <minimizedRMSD>  (1) 
0.425451756

$$$$
