
     RDKit          3D

 27 29  0  0  0  0  0  0  0  0999 V2000
   37.7860   32.8200   49.6230 C   0  0  0  0  0  0  0  0  0  0  0  0
   38.7270   32.8950   48.5890 C   0  0  0  0  0  0  0  0  0  0  0  0
   38.5760   31.9960   47.5170 C   0  0  0  0  0  0  0  0  0  0  0  0
   37.5450   31.1210   47.5450 N   0  0  0  0  0  0  0  0  0  0  0  0
   36.6550   31.0750   48.5590 C   0  0  0  0  0  0  0  0  0  0  0  0
   36.7870   31.9350   49.5970 N   0  0  0  0  0  0  0  0  0  0  0  0
   36.7620   29.0190   50.6830 Cl  0  0  0  0  0  0  0  0  0  0  0  0
   35.5210   29.1160   49.4640 C   0  0  0  0  0  0  0  0  0  0  0  0
   35.5690   30.1100   48.5260 C   0  0  0  0  0  0  0  0  0  0  0  0
   34.6100   30.2160   47.5520 C   0  0  0  0  0  0  0  0  0  0  0  0
   33.5620   29.3240   47.4820 C   0  0  0  0  0  0  0  0  0  0  0  0
   33.4850   28.3020   48.4210 C   0  0  0  0  0  0  0  0  0  0  0  0
   32.2300   27.0810   48.4910 Cl  0  0  0  0  0  0  0  0  0  0  0  0
   34.4770   28.2300   49.3920 C   0  0  0  0  0  0  0  0  0  0  0  0
   39.5390   32.0460   46.4220 C   0  0  0  0  0  0  0  0  0  0  0  0
   39.9170   33.2000   45.7710 C   0  0  0  0  0  0  0  0  0  0  0  0
   40.8260   32.7590   44.8310 C   0  0  0  0  0  0  0  0  0  0  0  0
   40.9510   31.3920   44.9560 C   0  0  0  0  0  0  0  0  0  0  0  0
   40.1430   31.0080   45.9430 O   0  0  0  0  0  0  0  0  0  0  0  0
   37.8720   33.5071   50.4777 H   0  0  0  0  0  0  0  0  0  0  0  0
   39.5491   33.6254   48.6136 H   0  0  0  0  0  0  0  0  0  0  0  0
   34.6784   31.0279   46.8129 H   0  0  0  0  0  0  0  0  0  0  0  0
   32.7987   29.4192   46.6957 H   0  0  0  0  0  0  0  0  0  0  0  0
   34.4219   27.4238   50.1383 H   0  0  0  0  0  0  0  0  0  0  0  0
   39.5752   34.2290   45.9566 H   0  0  0  0  0  0  0  0  0  0  0  0
   41.3598   33.3907   44.1057 H   0  0  0  0  0  0  0  0  0  0  0  0
   41.5983   30.7389   44.3523 H   0  0  0  0  0  0  0  0  0  0  0  0
  2  1  2  0
  3  4  2  0
  3  2  1  0
  4  5  1  0
  5  6  2  0
  6  1  1  0
  8  7  1  0
  9  5  1  0
  9  8  2  0
 10  9  1  0
 11 10  2  0
 11 12  1  0
 12 13  1  0
 12 14  2  0
 14  8  1  0
 15  3  1  0
 16 15  2  0
 17 18  2  0
 17 16  1  0
 18 19  1  0
 19 15  1  0
  1 20  1  0
  2 21  1  0
 10 22  1  0
 11 23  1  0
 14 24  1  0
 16 25  1  0
 17 26  1  0
 18 27  1  0
M  ISO  8  20  14  21  14  22  14  23  14  24  14  25  14  26  14  27  14
M  END
>  <minimizedAffinity>  (1) 
-6.67647696

>  <minimizedRMSD>  (1) 
0.630982876

$$$$
