
     RDKit          3D

 23 24  0  0  0  0  0  0  0  0999 V2000
   38.0390   33.0330   49.6890 C   0  0  0  0  0  0  0  0  0  0  0  0
   38.9180   33.2460   48.6290 C   0  0  0  0  0  0  0  0  0  0  0  0
   38.7600   32.4180   47.5070 C   0  0  0  0  0  0  0  0  0  0  0  0
   37.7860   31.4730   47.5030 N   0  0  0  0  0  0  0  0  0  0  0  0
   36.9530   31.3130   48.5780 C   0  0  0  0  0  0  0  0  0  0  0  0
   37.0900   32.0940   49.6560 N   0  0  0  0  0  0  0  0  0  0  0  0
   37.2720   29.1200   50.5320 Cl  0  0  0  0  0  0  0  0  0  0  0  0
   35.9860   29.2180   49.3690 C   0  0  0  0  0  0  0  0  0  0  0  0
   35.9280   30.2770   48.5060 C   0  0  0  0  0  0  0  0  0  0  0  0
   34.9230   30.3900   47.5690 C   0  0  0  0  0  0  0  0  0  0  0  0
   33.9410   29.4110   47.4900 C   0  0  0  0  0  0  0  0  0  0  0  0
   33.9730   28.3340   48.3430 C   0  0  0  0  0  0  0  0  0  0  0  0
   32.7970   27.0360   48.3460 Cl  0  0  0  0  0  0  0  0  0  0  0  0
   35.0020   28.2620   49.2690 C   0  0  0  0  0  0  0  0  0  0  0  0
   39.6300   32.5420   46.3120 C   0  0  0  0  0  0  0  0  0  0  0  0
   38.8570   32.7240   45.1820 F   0  0  0  0  0  0  0  0  0  0  0  0
   40.4340   31.4030   46.1770 F   0  0  0  0  0  0  0  0  0  0  0  0
   40.4450   33.6750   46.4060 F   0  0  0  0  0  0  0  0  0  0  0  0
   38.1302   33.6620   50.5868 H   0  0  0  0  0  0  0  0  0  0  0  0
   39.6956   34.0230   48.6696 H   0  0  0  0  0  0  0  0  0  0  0  0
   34.8990   31.2523   46.8865 H   0  0  0  0  0  0  0  0  0  0  0  0
   33.1371   29.4978   46.7442 H   0  0  0  0  0  0  0  0  0  0  0  0
   35.0331   27.4021   49.9543 H   0  0  0  0  0  0  0  0  0  0  0  0
  2  1  2  0
  3  2  1  0
  4  3  2  0
  4  5  1  0
  5  6  2  0
  6  1  1  0
  8  7  1  0
  9  5  1  0
  9  8  2  0
 10  9  1  0
 11 10  2  0
 11 12  1  0
 12 13  1  0
 12 14  2  0
 14  8  1  0
 15 18  1  0
 15  3  1  0
 16 15  1  0
 17 15  1  0
  1 19  1  0
  2 20  1  0
 10 21  1  0
 11 22  1  0
 14 23  1  0
M  ISO  5  19  14  20  14  21  14  22  14  23  14
M  END
>  <minimizedAffinity>  (1) 
-6.51431084

>  <minimizedRMSD>  (1) 
0.458074003

$$$$
