
     RDKit          3D

 21 22  0  0  0  0  0  0  0  0999 V2000
   37.2080   29.0710   50.4680 Cl  0  0  0  0  0  0  0  0  0  0  0  0
   35.9030   29.1710   49.3180 C   0  0  0  0  0  0  0  0  0  0  0  0
   35.8730   30.2000   48.3930 C   0  0  0  0  0  0  0  0  0  0  0  0
   34.8660   30.3150   47.4740 C   0  0  0  0  0  0  0  0  0  0  0  0
   33.8380   29.3860   47.4480 C   0  0  0  0  0  0  0  0  0  0  0  0
   33.8330   28.3360   48.3630 C   0  0  0  0  0  0  0  0  0  0  0  0
   32.5900   27.1020   48.4290 Cl  0  0  0  0  0  0  0  0  0  0  0  0
   34.8740   28.2650   49.2730 C   0  0  0  0  0  0  0  0  0  0  0  0
   38.0540   32.9760   49.4120 C   0  0  0  0  0  0  0  0  0  0  0  0
   38.9880   33.0300   48.3770 C   0  0  0  0  0  0  0  0  0  0  0  0
   38.8510   32.1010   47.3300 C   0  0  0  0  0  0  0  0  0  0  0  0
   37.8290   31.2080   47.3840 N   0  0  0  0  0  0  0  0  0  0  0  0
   36.9400   31.1820   48.4030 C   0  0  0  0  0  0  0  0  0  0  0  0
   37.0710   32.0750   49.4090 N   0  0  0  0  0  0  0  0  0  0  0  0
   39.9650   32.0270   45.9150 S   0  0  0  0  0  0  0  0  0  0  0  0
   34.8724   31.1467   46.7541 H   0  0  0  0  0  0  0  0  0  0  0  0
   33.0294   29.4775   46.7078 H   0  0  0  0  0  0  0  0  0  0  0  0
   34.8760   27.4381   49.9985 H   0  0  0  0  0  0  0  0  0  0  0  0
   38.1299   33.6896   50.2456 H   0  0  0  0  0  0  0  0  0  0  0  0
   39.8008   33.7712   48.3798 H   0  0  0  0  0  0  0  0  0  0  0  0
   41.2590   31.9410   46.3566 H   0  0  0  0  0  0  0  0  0  0  0  0
  2  1  1  0
  3 13  1  0
  3  2  2  0
  4  3  1  0
  5  4  2  0
  5  6  1  0
  6  7  1  0
  6  8  2  0
  8  2  1  0
 10  9  2  0
 11 12  2  0
 11 10  1  0
 12 13  1  0
 13 14  2  0
 14  9  1  0
 15 11  1  0
  4 16  1  0
  5 17  1  0
  8 18  1  0
  9 19  1  0
 10 20  1  0
 15 21  1  0
M  ISO  6  16  14  17  14  18  14  19  14  20  14  21  11
M  END
>  <minimizedAffinity>  (1) 
-5.63067627

>  <minimizedRMSD>  (1) 
0.18527995

$$$$
