
     RDKit          3D

 27 29  0  0  0  0  0  0  0  0999 V2000
   37.7380   32.8800   49.6200 C   0  0  0  0  0  0  0  0  0  0  0  0
   38.7030   32.9710   48.6190 C   0  0  0  0  0  0  0  0  0  0  0  0
   38.5920   32.0530   47.5630 C   0  0  0  0  0  0  0  0  0  0  0  0
   37.5790   31.1460   47.5680 N   0  0  0  0  0  0  0  0  0  0  0  0
   36.6660   31.1030   48.5710 C   0  0  0  0  0  0  0  0  0  0  0  0
   36.7640   31.9750   49.5820 N   0  0  0  0  0  0  0  0  0  0  0  0
   36.9130   28.9170   50.5530 Cl  0  0  0  0  0  0  0  0  0  0  0  0
   35.6320   29.0480   49.4060 C   0  0  0  0  0  0  0  0  0  0  0  0
   35.6050   30.1090   48.5190 C   0  0  0  0  0  0  0  0  0  0  0  0
   34.6040   30.2460   47.5950 C   0  0  0  0  0  0  0  0  0  0  0  0
   33.5790   29.3120   47.5240 C   0  0  0  0  0  0  0  0  0  0  0  0
   33.5760   28.2450   48.3910 C   0  0  0  0  0  0  0  0  0  0  0  0
   32.3350   26.9990   48.4000 Cl  0  0  0  0  0  0  0  0  0  0  0  0
   34.5980   28.1450   49.3040 C   0  0  0  0  0  0  0  0  0  0  0  0
   39.5440   32.0500   46.4570 C   0  0  0  0  0  0  0  0  0  0  0  0
   39.9920   30.8980   45.8260 C   0  0  0  0  0  0  0  0  0  0  0  0
   40.8720   31.1940   44.8330 N   0  0  0  0  0  0  0  0  0  0  0  0
   40.9730   32.5370   44.8410 C   0  0  0  0  0  0  0  0  0  0  0  0
   40.1840   33.0300   45.8050 N   0  0  0  0  0  0  0  0  0  0  0  0
   37.7831   33.5787   50.4684 H   0  0  0  0  0  0  0  0  0  0  0  0
   39.5072   33.7207   48.6544 H   0  0  0  0  0  0  0  0  0  0  0  0
   34.6118   31.1019   46.9041 H   0  0  0  0  0  0  0  0  0  0  0  0
   32.7763   29.4248   46.7804 H   0  0  0  0  0  0  0  0  0  0  0  0
   34.5894   27.2903   49.9964 H   0  0  0  0  0  0  0  0  0  0  0  0
   39.6764   29.8789   46.0942 H   0  0  0  0  0  0  0  0  0  0  0  0
   41.3570   30.5335   44.2090 H   0  0  0  0  0  0  0  0  0  0  0  0
   41.6025   33.1336   44.1644 H   0  0  0  0  0  0  0  0  0  0  0  0
  2  1  2  0
  3  4  2  0
  3  2  1  0
  4  5  1  0
  5  6  2  0
  6  1  1  0
  8  7  1  0
  9  5  1  0
  9  8  2  0
 10  9  1  0
 11 10  2  0
 11 12  1  0
 12 13  1  0
 12 14  2  0
 14  8  1  0
 15  3  1  0
 16 15  2  0
 17 18  1  0
 17 16  1  0
 18 19  2  0
 19 15  1  0
  1 20  1  0
  2 21  1  0
 10 22  1  0
 11 23  1  0
 14 24  1  0
 16 25  1  0
 17 26  1  0
 18 27  1  0
M  ISO  8  20  14  21  14  22  14  23  14  24  14  25  14  26   9  27  14
M  END
>  <minimizedAffinity>  (1) 
-6.52597809

>  <minimizedRMSD>  (1) 
0.431186169

$$$$
