
     RDKit          3D

 30 32  0  0  0  0  0  0  0  0999 V2000
   38.0460   32.5650   49.5600 C   0  0  0  0  0  0  0  0  0  0  0  0
   38.7290   32.9040   48.3950 C   0  0  0  0  0  0  0  0  0  0  0  0
   38.3220   32.2490   47.2220 C   0  0  0  0  0  0  0  0  0  0  0  0
   37.3140   31.3430   47.2750 N   0  0  0  0  0  0  0  0  0  0  0  0
   36.6820   31.0500   48.4420 C   0  0  0  0  0  0  0  0  0  0  0  0
   37.0640   31.6690   49.5570 N   0  0  0  0  0  0  0  0  0  0  0  0
   36.9510   28.8930   50.4480 Cl  0  0  0  0  0  0  0  0  0  0  0  0
   35.6420   29.0300   49.3270 C   0  0  0  0  0  0  0  0  0  0  0  0
   35.6130   30.0740   48.4340 C   0  0  0  0  0  0  0  0  0  0  0  0
   34.5810   30.2060   47.5290 C   0  0  0  0  0  0  0  0  0  0  0  0
   33.5540   29.2850   47.5070 C   0  0  0  0  0  0  0  0  0  0  0  0
   33.5570   28.2270   48.3920 C   0  0  0  0  0  0  0  0  0  0  0  0
   32.3040   27.0070   48.4450 Cl  0  0  0  0  0  0  0  0  0  0  0  0
   34.6020   28.1340   49.2730 C   0  0  0  0  0  0  0  0  0  0  0  0
   38.9710   32.5270   45.9360 C   0  0  0  0  0  0  0  0  0  0  0  0
   40.3010   32.8790   45.8150 C   0  0  0  0  0  0  0  0  0  0  0  0
   40.6350   33.0770   44.5160 N   0  0  0  0  0  0  0  0  0  0  0  0
   39.5130   32.8510   43.8210 C   0  0  0  0  0  0  0  0  0  0  0  0
   38.5220   32.5220   44.6750 N   0  0  0  0  0  0  0  0  0  0  0  0
   39.1990   32.8960   42.3760 C   0  0  0  0  0  0  0  0  0  0  0  0
   40.0860   32.0650   41.6870 F   0  0  0  0  0  0  0  0  0  0  0  0
   37.9470   32.3770   42.1490 F   0  0  0  0  0  0  0  0  0  0  0  0
   39.3570   34.1450   41.8430 F   0  0  0  0  0  0  0  0  0  0  0  0
   38.3260   33.0507   50.5064 H   0  0  0  0  0  0  0  0  0  0  0  0
   39.5426   33.6443   48.3938 H   0  0  0  0  0  0  0  0  0  0  0  0
   34.5766   31.0487   46.8220 H   0  0  0  0  0  0  0  0  0  0  0  0
   32.7326   29.3944   46.7836 H   0  0  0  0  0  0  0  0  0  0  0  0
   34.6087   27.2911   49.9797 H   0  0  0  0  0  0  0  0  0  0  0  0
   40.9969   32.9847   46.6603 H   0  0  0  0  0  0  0  0  0  0  0  0
   41.5569   33.3447   44.1427 H   0  0  0  0  0  0  0  0  0  0  0  0
  2  1  2  0
  3  4  2  0
  3  2  1  0
  4  5  1  0
  5  6  2  0
  6  1  1  0
  8  7  1  0
  9  5  1  0
  9  8  2  0
 10  9  1  0
 11 10  2  0
 11 12  1  0
 12 13  1  0
 12 14  2  0
 14  8  1  0
 15  3  1  0
 16 15  2  0
 17 16  1  0
 18 17  1  0
 18 19  2  0
 19 15  1  0
 20 18  1  0
 21 20  1  0
 22 20  1  0
 23 20  1  0
  1 24  1  0
  2 25  1  0
 10 26  1  0
 11 27  1  0
 14 28  1  0
 16 29  1  0
 17 30  1  0
M  ISO  7  24  14  25  14  26  14  27  14  28  14  29  14  30   9
M  END
>  <minimizedAffinity>  (1) 
-6.80257988

>  <minimizedRMSD>  (1) 
1.73810887

$$$$
