
     RDKit          3D

 29 31  0  0  0  0  0  0  0  0999 V2000
   38.1420   32.5500   49.5100 C   0  0  0  0  0  0  0  0  0  0  0  0
   38.8030   32.9000   48.3310 C   0  0  0  0  0  0  0  0  0  0  0  0
   38.3620   32.2600   47.1540 C   0  0  0  0  0  0  0  0  0  0  0  0
   37.3460   31.3600   47.2230 N   0  0  0  0  0  0  0  0  0  0  0  0
   36.7380   31.0570   48.4070 C   0  0  0  0  0  0  0  0  0  0  0  0
   37.1540   31.6630   49.5210 N   0  0  0  0  0  0  0  0  0  0  0  0
   37.0080   28.9220   50.4350 Cl  0  0  0  0  0  0  0  0  0  0  0  0
   35.6920   29.0420   49.3320 C   0  0  0  0  0  0  0  0  0  0  0  0
   35.6590   30.0880   48.4130 C   0  0  0  0  0  0  0  0  0  0  0  0
   34.6370   30.2210   47.5230 C   0  0  0  0  0  0  0  0  0  0  0  0
   33.5930   29.3090   47.5050 C   0  0  0  0  0  0  0  0  0  0  0  0
   33.5940   28.2600   48.4010 C   0  0  0  0  0  0  0  0  0  0  0  0
   32.3350   27.0340   48.4880 Cl  0  0  0  0  0  0  0  0  0  0  0  0
   34.6460   28.1590   49.2870 C   0  0  0  0  0  0  0  0  0  0  0  0
   38.9780   32.5480   45.8740 C   0  0  0  0  0  0  0  0  0  0  0  0
   40.3560   32.6940   45.6950 C   0  0  0  0  0  0  0  0  0  0  0  0
   40.6590   32.9600   44.3980 N   0  0  0  0  0  0  0  0  0  0  0  0
   39.4620   32.9790   43.7600 C   0  0  0  0  0  0  0  0  0  0  0  0
   38.5010   32.7360   44.6470 N   0  0  0  0  0  0  0  0  0  0  0  0
   39.3670   33.2320   42.3610 N   0  0  0  0  0  0  0  0  0  0  0  0
   38.4480   33.0219   50.4553 H   0  0  0  0  0  0  0  0  0  0  0  0
   39.6222   33.6341   48.3206 H   0  0  0  0  0  0  0  0  0  0  0  0
   34.6398   31.0600   46.8116 H   0  0  0  0  0  0  0  0  0  0  0  0
   32.7710   29.4208   46.7826 H   0  0  0  0  0  0  0  0  0  0  0  0
   34.6449   27.3205   49.9990 H   0  0  0  0  0  0  0  0  0  0  0  0
   41.0996   32.6050   46.5007 H   0  0  0  0  0  0  0  0  0  0  0  0
   41.5918   33.1134   43.9891 H   0  0  0  0  0  0  0  0  0  0  0  0
   38.4456   33.2409   41.9007 H   0  0  0  0  0  0  0  0  0  0  0  0
   40.2197   33.4060   41.8100 H   0  0  0  0  0  0  0  0  0  0  0  0
  1  6  2  0
  2  1  1  0
  3  4  1  0
  3  2  2  0
  4  5  2  0
  5  9  1  0
  5  6  1  0
  8  7  1  0
  9  8  2  0
 10  9  1  0
 11 10  2  0
 11 12  1  0
 12 13  1  0
 12 14  2  0
 14  8  1  0
 15  3  1  0
 16 15  2  0
 17 16  1  0
 18 17  1  0
 18 19  2  0
 19 15  1  0
 20 18  1  0
  1 21  1  0
  2 22  1  0
 10 23  1  0
 11 24  1  0
 14 25  1  0
 16 26  1  0
 17 27  1  0
 20 28  1  0
 20 29  1  0
M  ISO  7  21  14  22  14  23  14  24  14  25  14  26  14  27   9
M  END
>  <minimizedAffinity>  (1) 
-6.58359623

>  <minimizedRMSD>  (1) 
1.12832749

$$$$
