
     RDKit          3D

 43 46  0  0  0  0  0  0  0  0999 V2000
   34.4560   27.7210   49.4700 Cl  0  0  0  0  0  0  0  0  0  0  0  0
   33.7520   28.6390   48.1600 C   0  0  0  0  0  0  0  0  0  0  0  0
   34.3050   29.8480   47.8280 C   0  0  0  0  0  0  0  0  0  0  0  0
   33.7770   30.5910   46.8070 C   0  0  0  0  0  0  0  0  0  0  0  0
   32.6920   30.1730   46.0810 C   0  0  0  0  0  0  0  0  0  0  0  0
   32.1280   28.9560   46.4080 C   0  0  0  0  0  0  0  0  0  0  0  0
   30.7280   28.2860   45.5630 Cl  0  0  0  0  0  0  0  0  0  0  0  0
   32.6760   28.2290   47.4380 C   0  0  0  0  0  0  0  0  0  0  0  0
   36.6560   30.6110   50.5330 C   0  0  0  0  0  0  0  0  0  0  0  0
   37.6630   31.3310   49.8940 C   0  0  0  0  0  0  0  0  0  0  0  0
   37.5130   31.5440   48.5280 C   0  0  0  0  0  0  0  0  0  0  0  0
   36.4120   31.0450   47.9050 N   0  0  0  0  0  0  0  0  0  0  0  0
   35.4650   30.3560   48.5600 C   0  0  0  0  0  0  0  0  0  0  0  0
   35.6020   30.1490   49.8710 N   0  0  0  0  0  0  0  0  0  0  0  0
   38.4990   32.2860   47.7330 C   0  0  0  0  0  0  0  0  0  0  0  0
   39.2040   33.3710   48.1930 C   0  0  0  0  0  0  0  0  0  0  0  0
   40.0380   33.8490   47.2450 N   0  0  0  0  0  0  0  0  0  0  0  0
   39.8660   33.0740   46.1850 C   0  0  0  0  0  0  0  0  0  0  0  0
   38.9430   32.1430   46.4920 N   0  0  0  0  0  0  0  0  0  0  0  0
   40.5960   31.8340   44.2160 C   0  0  0  0  0  0  0  0  0  0  0  0
   40.1990   30.7840   44.7480 O   0  0  0  0  0  0  0  0  0  0  0  0
   40.4630   33.0870   44.8930 N   0  0  0  0  0  0  0  0  0  0  0  0
   32.1060   30.9310   44.9940 C   0  0  0  0  0  0  0  0  0  0  0  0
   32.3630   30.6810   43.6630 C   0  0  0  0  0  0  0  0  0  0  0  0
   31.7950   31.4130   42.6410 C   0  0  0  0  0  0  0  0  0  0  0  0
   30.9310   32.4480   42.9070 C   0  0  0  0  0  0  0  0  0  0  0  0
   30.6930   32.6750   44.2460 C   0  0  0  0  0  0  0  0  0  0  0  0
   31.2570   31.9490   45.2140 N   0  0  0  0  0  0  0  0  0  0  0  0
   32.0700   26.9100   47.7970 C   0  0  0  0  0  0  0  0  0  0  0  0
   33.0690   25.9230   47.8820 F   0  0  0  0  0  0  0  0  0  0  0  0
   31.2450   26.4580   46.7520 F   0  0  0  0  0  0  0  0  0  0  0  0
   31.2990   26.9630   48.9300 F   0  0  0  0  0  0  0  0  0  0  0  0
   34.2398   31.5579   46.5602 H   0  0  0  0  0  0  0  0  0  0  0  0
   36.7362   30.4205   51.6134 H   0  0  0  0  0  0  0  0  0  0  0  0
   38.5356   31.7130   50.4440 H   0  0  0  0  0  0  0  0  0  0  0  0
   39.1024   33.7955   49.2027 H   0  0  0  0  0  0  0  0  0  0  0  0
   40.6773   34.6522   47.3290 H   0  0  0  0  0  0  0  0  0  0  0  0
   41.0535   31.7999   43.2162 H   0  0  0  0  0  0  0  0  0  0  0  0
   40.7867   33.9648   44.4622 H   0  0  0  0  0  0  0  0  0  0  0  0
   33.0508   29.8624   43.4046 H   0  0  0  0  0  0  0  0  0  0  0  0
   32.0374   31.1644   41.5972 H   0  0  0  0  0  0  0  0  0  0  0  0
   30.4650   33.0493   42.1125 H   0  0  0  0  0  0  0  0  0  0  0  0
   30.0093   33.4890   44.5287 H   0  0  0  0  0  0  0  0  0  0  0  0
  2  1  1  0
  3  2  2  0
  3 13  1  0
  4  3  1  0
  5  6  1  0
  5  4  2  0
  6  8  2  0
  7  6  1  0
  8 29  1  0
  8  2  1  0
 10  9  2  0
 11 10  1  0
 12 11  2  0
 12 13  1  0
 13 14  2  0
 14  9  1  0
 15 16  2  0
 15 11  1  0
 17 16  1  0
 18 19  2  0
 18 17  1  0
 19 15  1  0
 20 21  2  0
 20 22  1  0
 22 18  1  0
 23 28  1  0
 23  5  1  0
 24 23  2  0
 25 26  2  0
 25 24  1  0
 26 27  1  0
 27 28  2  0
 29 30  1  0
 29 32  1  0
 31 29  1  0
  4 33  1  0
  9 34  1  0
 10 35  1  0
 16 36  1  0
 17 37  1  0
 20 38  1  0
 22 39  1  0
 24 40  1  0
 25 41  1  0
 26 42  1  0
 27 43  1  0
M  ISO  8  33  14  34  14  35  14  36  14  37   9  38   6  40  14  41  14
M  ISO  2  42  14  43  14
M  END
>  <minimizedAffinity>  (1) 
-6.92025948

>  <minimizedRMSD>  (1) 
0.201239452

$$$$
