
     RDKit          3D

 49 52  0  0  0  0  0  0  0  0999 V2000
   36.5440   30.6730   50.5390 C   0  0  0  0  0  0  0  0  0  0  0  0
   37.5580   31.3900   49.9180 C   0  0  0  0  0  0  0  0  0  0  0  0
   37.4560   31.5620   48.5340 C   0  0  0  0  0  0  0  0  0  0  0  0
   36.3920   31.0300   47.8790 N   0  0  0  0  0  0  0  0  0  0  0  0
   35.4280   30.3380   48.5380 C   0  0  0  0  0  0  0  0  0  0  0  0
   35.5270   30.1770   49.8530 N   0  0  0  0  0  0  0  0  0  0  0  0
   38.4580   32.2960   47.7570 C   0  0  0  0  0  0  0  0  0  0  0  0
   39.1650   33.3810   48.2280 C   0  0  0  0  0  0  0  0  0  0  0  0
   40.0140   33.8470   47.2880 N   0  0  0  0  0  0  0  0  0  0  0  0
   39.8540   33.0680   46.2190 C   0  0  0  0  0  0  0  0  0  0  0  0
   38.9160   32.1450   46.5220 N   0  0  0  0  0  0  0  0  0  0  0  0
   40.5940   31.8120   44.2650 C   0  0  0  0  0  0  0  0  0  0  0  0
   40.1780   30.7760   44.7950 O   0  0  0  0  0  0  0  0  0  0  0  0
   40.4700   33.0750   44.9370 N   0  0  0  0  0  0  0  0  0  0  0  0
   34.4820   27.6920   49.4360 Cl  0  0  0  0  0  0  0  0  0  0  0  0
   33.7870   28.5630   48.1090 C   0  0  0  0  0  0  0  0  0  0  0  0
   34.3060   29.7910   47.7760 C   0  0  0  0  0  0  0  0  0  0  0  0
   33.7830   30.5170   46.7270 C   0  0  0  0  0  0  0  0  0  0  0  0
   32.7170   30.0320   45.9760 C   0  0  0  0  0  0  0  0  0  0  0  0
   32.1920   28.7950   46.3100 C   0  0  0  0  0  0  0  0  0  0  0  0
   30.8510   28.0940   45.4310 Cl  0  0  0  0  0  0  0  0  0  0  0  0
   32.7460   28.1140   47.3590 C   0  0  0  0  0  0  0  0  0  0  0  0
   32.1680   30.7780   44.8870 N   0  0  0  0  0  0  0  0  0  0  0  0
   32.7690   30.7170   43.5920 C   0  0  0  0  0  0  0  0  0  0  0  0
   32.4280   31.9290   42.7600 C   0  0  0  0  0  0  0  0  0  0  0  0
   32.2550   33.1230   43.6660 C   0  0  0  0  0  0  0  0  0  0  0  0
   30.9990   32.8990   44.4810 C   0  0  0  0  0  0  0  0  0  0  0  0
   30.9940   31.5770   45.1810 C   0  0  0  0  0  0  0  0  0  0  0  0
   32.1760   26.7800   47.7150 C   0  0  0  0  0  0  0  0  0  0  0  0
   33.2000   25.8170   47.7900 F   0  0  0  0  0  0  0  0  0  0  0  0
   31.3540   26.3100   46.6790 F   0  0  0  0  0  0  0  0  0  0  0  0
   31.4000   26.8060   48.8470 F   0  0  0  0  0  0  0  0  0  0  0  0
   36.5871   30.5136   51.6265 H   0  0  0  0  0  0  0  0  0  0  0  0
   38.4027   31.8037   50.4885 H   0  0  0  0  0  0  0  0  0  0  0  0
   39.0525   33.8097   49.2348 H   0  0  0  0  0  0  0  0  0  0  0  0
   40.6576   34.6460   47.3789 H   0  0  0  0  0  0  0  0  0  0  0  0
   41.0628   31.7663   43.2710 H   0  0  0  0  0  0  0  0  0  0  0  0
   40.8120   33.9474   44.5095 H   0  0  0  0  0  0  0  0  0  0  0  0
   34.2164   31.4973   46.4794 H   0  0  0  0  0  0  0  0  0  0  0  0
   33.8614   30.6605   43.7084 H   0  0  0  0  0  0  0  0  0  0  0  0
   32.3807   29.8267   43.0757 H   0  0  0  0  0  0  0  0  0  0  0  0
   33.2410   32.1247   42.0454 H   0  0  0  0  0  0  0  0  0  0  0  0
   31.4939   31.7465   42.2085 H   0  0  0  0  0  0  0  0  0  0  0  0
   33.1241   33.2165   44.3338 H   0  0  0  0  0  0  0  0  0  0  0  0
   32.1737   34.0479   43.0761 H   0  0  0  0  0  0  0  0  0  0  0  0
   30.9213   33.6966   45.2345 H   0  0  0  0  0  0  0  0  0  0  0  0
   30.1457   32.9111   43.7870 H   0  0  0  0  0  0  0  0  0  0  0  0
   30.1008   31.0170   44.8670 H   0  0  0  0  0  0  0  0  0  0  0  0
   30.9930   31.7764   46.2628 H   0  0  0  0  0  0  0  0  0  0  0  0
  2  1  2  0
  3  2  1  0
  4  3  2  0
  4  5  1  0
  5  6  2  0
  6  1  1  0
  7  8  2  0
  7  3  1  0
  9  8  1  0
 10 11  2  0
 10  9  1  0
 11  7  1  0
 12 13  2  0
 12 14  1  0
 14 10  1  0
 16 15  1  0
 17 16  2  0
 17  5  1  0
 18 17  1  0
 19 20  1  0
 19 18  2  0
 20 22  2  0
 21 20  1  0
 22 29  1  0
 22 16  1  0
 23 28  1  0
 23 19  1  0
 24 23  1  0
 25 24  1  0
 25 26  1  0
 26 27  1  0
 27 28  1  0
 29 30  1  0
 29 32  1  0
 31 29  1  0
  1 33  1  0
  2 34  1  0
  8 35  1  0
  9 36  1  0
 12 37  1  0
 14 38  1  0
 18 39  1  0
 24 40  1  0
 24 41  1  0
 25 42  1  0
 25 43  1  0
 26 44  1  0
 26 45  1  0
 27 46  1  0
 27 47  1  0
 28 48  1  0
 28 49  1  0
M  ISO  8  33  14  34  14  35  14  36   9  37   6  39  14  40  13  41  13
M  ISO  8  42  13  43  13  44  13  45  13  46  13  47  13  48  13  49  13
M  END
>  <minimizedAffinity>  (1) 
-6.88826656

>  <minimizedRMSD>  (1) 
0.345177591

$$$$
