
     RDKit          3D

 40 43  0  0  0  0  0  0  0  0999 V2000
   36.6260   30.6210   50.5460 C   0  0  0  0  0  0  0  0  0  0  0  0
   37.6320   31.3390   49.9160 C   0  0  0  0  0  0  0  0  0  0  0  0
   37.4920   31.5440   48.5470 C   0  0  0  0  0  0  0  0  0  0  0  0
   36.4010   31.0430   47.9040 N   0  0  0  0  0  0  0  0  0  0  0  0
   35.4530   30.3540   48.5550 C   0  0  0  0  0  0  0  0  0  0  0  0
   35.5820   30.1540   49.8730 N   0  0  0  0  0  0  0  0  0  0  0  0
   38.4850   32.2880   47.7520 C   0  0  0  0  0  0  0  0  0  0  0  0
   39.1730   33.3750   48.2210 C   0  0  0  0  0  0  0  0  0  0  0  0
   40.0180   33.8580   47.2770 N   0  0  0  0  0  0  0  0  0  0  0  0
   39.8610   33.0690   46.2090 C   0  0  0  0  0  0  0  0  0  0  0  0
   38.9410   32.1410   46.5180 N   0  0  0  0  0  0  0  0  0  0  0  0
   40.6040   31.8220   44.2490 C   0  0  0  0  0  0  0  0  0  0  0  0
   40.2000   30.7800   44.7840 O   0  0  0  0  0  0  0  0  0  0  0  0
   40.4670   33.0760   44.9240 N   0  0  0  0  0  0  0  0  0  0  0  0
   34.4890   27.6940   49.4400 Cl  0  0  0  0  0  0  0  0  0  0  0  0
   33.7650   28.6110   48.1400 C   0  0  0  0  0  0  0  0  0  0  0  0
   34.3060   29.8380   47.8230 C   0  0  0  0  0  0  0  0  0  0  0  0
   33.7660   30.5830   46.8110 C   0  0  0  0  0  0  0  0  0  0  0  0
   32.6720   30.1490   46.0710 C   0  0  0  0  0  0  0  0  0  0  0  0
   32.1380   28.9080   46.4040 C   0  0  0  0  0  0  0  0  0  0  0  0
   30.7550   28.2560   45.5350 Cl  0  0  0  0  0  0  0  0  0  0  0  0
   32.7010   28.1910   47.4190 C   0  0  0  0  0  0  0  0  0  0  0  0
   32.1000   30.9560   44.9870 C   0  0  0  0  0  0  0  0  0  0  0  0
   32.4670   30.7450   43.6700 C   0  0  0  0  0  0  0  0  0  0  0  0
   31.4940   31.9830   42.7150 S   0  0  0  0  0  0  0  0  0  0  0  0
   30.7270   32.6000   44.3420 C   0  0  0  0  0  0  0  0  0  0  0  0
   31.2240   31.9230   45.1080 N   0  0  0  0  0  0  0  0  0  0  0  0
   32.1150   26.8660   47.7580 C   0  0  0  0  0  0  0  0  0  0  0  0
   33.1250   25.8900   47.8430 F   0  0  0  0  0  0  0  0  0  0  0  0
   31.3070   26.4050   46.7010 F   0  0  0  0  0  0  0  0  0  0  0  0
   31.3410   26.8830   48.8780 F   0  0  0  0  0  0  0  0  0  0  0  0
   36.6953   30.4346   51.6279 H   0  0  0  0  0  0  0  0  0  0  0  0
   38.4982   31.7273   50.4717 H   0  0  0  0  0  0  0  0  0  0  0  0
   39.0558   33.7997   49.2289 H   0  0  0  0  0  0  0  0  0  0  0  0
   40.6505   34.6662   47.3646 H   0  0  0  0  0  0  0  0  0  0  0  0
   41.0690   31.7828   43.2529 H   0  0  0  0  0  0  0  0  0  0  0  0
   40.7958   33.9522   44.4939 H   0  0  0  0  0  0  0  0  0  0  0  0
   34.2130   31.5598   46.5743 H   0  0  0  0  0  0  0  0  0  0  0  0
   33.1803   30.0037   43.2804 H   0  0  0  0  0  0  0  0  0  0  0  0
   29.9928   33.4036   44.5007 H   0  0  0  0  0  0  0  0  0  0  0  0
  2  1  2  0
  3  2  1  0
  4  3  2  0
  4  5  1  0
  5  6  2  0
  6  1  1  0
  7  8  2  0
  7  3  1  0
  9  8  1  0
 10 11  2  0
 10  9  1  0
 11  7  1  0
 12 13  2  0
 12 14  1  0
 14 10  1  0
 16 15  1  0
 17 16  2  0
 17  5  1  0
 18 17  1  0
 19 20  1  0
 19 18  2  0
 20 22  2  0
 21 20  1  0
 22 28  1  0
 22 16  1  0
 23 27  1  0
 23 19  1  0
 24 23  2  0
 25 24  1  0
 25 26  1  0
 26 27  2  0
 28 29  1  0
 28 31  1  0
 30 28  1  0
  1 32  1  0
  2 33  1  0
  8 34  1  0
  9 35  1  0
 12 36  1  0
 14 37  1  0
 18 38  1  0
 24 39  1  0
 26 40  1  0
M  ISO  8  32  14  33  14  34  14  35   9  36   6  38  14  39  14  40  14
M  END
>  <minimizedAffinity>  (1) 
-6.86793518

>  <minimizedRMSD>  (1) 
0.189592436

$$$$
