
     RDKit          3D

 41 44  0  0  0  0  0  0  0  0999 V2000
   34.5240   27.6550   49.4140 Cl  0  0  0  0  0  0  0  0  0  0  0  0
   33.7770   28.5820   48.1400 C   0  0  0  0  0  0  0  0  0  0  0  0
   34.2840   29.8200   47.8370 C   0  0  0  0  0  0  0  0  0  0  0  0
   33.7220   30.5750   46.8420 C   0  0  0  0  0  0  0  0  0  0  0  0
   32.6330   30.1230   46.1090 C   0  0  0  0  0  0  0  0  0  0  0  0
   32.1230   28.8740   46.4140 C   0  0  0  0  0  0  0  0  0  0  0  0
   30.7450   28.2010   45.5520 Cl  0  0  0  0  0  0  0  0  0  0  0  0
   32.7150   28.1600   47.4130 C   0  0  0  0  0  0  0  0  0  0  0  0
   36.5960   30.6380   50.5590 C   0  0  0  0  0  0  0  0  0  0  0  0
   37.6060   31.3540   49.9250 C   0  0  0  0  0  0  0  0  0  0  0  0
   37.4660   31.5440   48.5480 C   0  0  0  0  0  0  0  0  0  0  0  0
   36.3800   31.0300   47.9250 N   0  0  0  0  0  0  0  0  0  0  0  0
   35.4250   30.3440   48.5740 C   0  0  0  0  0  0  0  0  0  0  0  0
   35.5510   30.1590   49.8910 N   0  0  0  0  0  0  0  0  0  0  0  0
   38.4590   32.2800   47.7570 C   0  0  0  0  0  0  0  0  0  0  0  0
   39.1560   33.3690   48.2190 C   0  0  0  0  0  0  0  0  0  0  0  0
   40.0000   33.8410   47.2740 N   0  0  0  0  0  0  0  0  0  0  0  0
   39.8380   33.0540   46.2170 C   0  0  0  0  0  0  0  0  0  0  0  0
   38.9160   32.1280   46.5210 N   0  0  0  0  0  0  0  0  0  0  0  0
   40.5790   31.8060   44.2540 C   0  0  0  0  0  0  0  0  0  0  0  0
   40.1650   30.7670   44.7950 O   0  0  0  0  0  0  0  0  0  0  0  0
   40.4480   33.0540   44.9290 N   0  0  0  0  0  0  0  0  0  0  0  0
   32.0280   30.9230   45.0460 C   0  0  0  0  0  0  0  0  0  0  0  0
   32.6410   31.1400   43.8150 C   0  0  0  0  0  0  0  0  0  0  0  0
   31.7350   31.9340   43.1310 C   0  0  0  0  0  0  0  0  0  0  0  0
   30.6640   32.1360   43.9760 C   0  0  0  0  0  0  0  0  0  0  0  0
   30.8670   31.5230   45.1080 O   0  0  0  0  0  0  0  0  0  0  0  0
   32.1590   26.8060   47.7420 C   0  0  0  0  0  0  0  0  0  0  0  0
   33.2010   25.8610   47.8170 F   0  0  0  0  0  0  0  0  0  0  0  0
   31.3860   26.3330   46.6670 F   0  0  0  0  0  0  0  0  0  0  0  0
   31.3620   26.7930   48.8470 F   0  0  0  0  0  0  0  0  0  0  0  0
   34.1446   31.5655   46.6177 H   0  0  0  0  0  0  0  0  0  0  0  0
   36.6637   30.4633   51.6429 H   0  0  0  0  0  0  0  0  0  0  0  0
   38.4699   31.7500   50.4789 H   0  0  0  0  0  0  0  0  0  0  0  0
   39.0428   33.8003   49.2246 H   0  0  0  0  0  0  0  0  0  0  0  0
   40.6376   34.6457   47.3570 H   0  0  0  0  0  0  0  0  0  0  0  0
   41.0446   31.7626   43.2583 H   0  0  0  0  0  0  0  0  0  0  0  0
   40.7834   33.9282   44.4998 H   0  0  0  0  0  0  0  0  0  0  0  0
   33.6160   30.7682   43.4671 H   0  0  0  0  0  0  0  0  0  0  0  0
   31.8481   32.3277   42.1101 H   0  0  0  0  0  0  0  0  0  0  0  0
   29.7697   32.7276   43.7306 H   0  0  0  0  0  0  0  0  0  0  0  0
  2  1  1  0
  3  2  2  0
  3 13  1  0
  4  3  1  0
  5  6  1  0
  5  4  2  0
  6  8  2  0
  7  6  1  0
  8 28  1  0
  8  2  1  0
 10  9  2  0
 11 10  1  0
 12 11  2  0
 12 13  1  0
 13 14  2  0
 14  9  1  0
 15 16  2  0
 15 11  1  0
 17 16  1  0
 18 19  2  0
 18 17  1  0
 19 15  1  0
 20 21  2  0
 20 22  1  0
 22 18  1  0
 23 27  1  0
 23  5  1  0
 24 23  2  0
 25 24  1  0
 25 26  2  0
 26 27  1  0
 28 29  1  0
 28 31  1  0
 30 28  1  0
  4 32  1  0
  9 33  1  0
 10 34  1  0
 16 35  1  0
 17 36  1  0
 20 37  1  0
 22 38  1  0
 24 39  1  0
 25 40  1  0
 26 41  1  0
M  ISO  8  32  14  33  14  34  14  35  14  36   9  37   6  39  14  40  14
M  ISO  1  41  14
M  END
>  <minimizedAffinity>  (1) 
-6.85613966

>  <minimizedRMSD>  (1) 
0.105400518

$$$$
