
     RDKit          3D

 41 44  0  0  0  0  0  0  0  0999 V2000
   34.5040   27.6640   49.4240 Cl  0  0  0  0  0  0  0  0  0  0  0  0
   33.7820   28.5790   48.1360 C   0  0  0  0  0  0  0  0  0  0  0  0
   34.2830   29.8160   47.8120 C   0  0  0  0  0  0  0  0  0  0  0  0
   33.7420   30.5670   46.8040 C   0  0  0  0  0  0  0  0  0  0  0  0
   32.6620   30.1100   46.0670 C   0  0  0  0  0  0  0  0  0  0  0  0
   32.1370   28.8590   46.3770 C   0  0  0  0  0  0  0  0  0  0  0  0
   30.7700   28.1800   45.5110 Cl  0  0  0  0  0  0  0  0  0  0  0  0
   32.7180   28.1470   47.3990 C   0  0  0  0  0  0  0  0  0  0  0  0
   36.5790   30.6470   50.5530 C   0  0  0  0  0  0  0  0  0  0  0  0
   37.5910   31.3630   49.9230 C   0  0  0  0  0  0  0  0  0  0  0  0
   37.4680   31.5520   48.5560 C   0  0  0  0  0  0  0  0  0  0  0  0
   36.3800   31.0310   47.9210 N   0  0  0  0  0  0  0  0  0  0  0  0
   35.4220   30.3440   48.5580 C   0  0  0  0  0  0  0  0  0  0  0  0
   35.5430   30.1640   49.8760 N   0  0  0  0  0  0  0  0  0  0  0  0
   38.4640   32.2910   47.7620 C   0  0  0  0  0  0  0  0  0  0  0  0
   39.1580   33.3740   48.2280 C   0  0  0  0  0  0  0  0  0  0  0  0
   40.0030   33.8530   47.2890 N   0  0  0  0  0  0  0  0  0  0  0  0
   39.8420   33.0640   46.2150 C   0  0  0  0  0  0  0  0  0  0  0  0
   38.9140   32.1350   46.5230 N   0  0  0  0  0  0  0  0  0  0  0  0
   40.5900   31.8120   44.2670 C   0  0  0  0  0  0  0  0  0  0  0  0
   40.1870   30.7660   44.8090 O   0  0  0  0  0  0  0  0  0  0  0  0
   40.4480   33.0710   44.9370 N   0  0  0  0  0  0  0  0  0  0  0  0
   32.0580   30.8820   44.9860 C   0  0  0  0  0  0  0  0  0  0  0  0
   32.6420   30.9890   43.7190 C   0  0  0  0  0  0  0  0  0  0  0  0
   31.7660   31.7780   43.0470 N   0  0  0  0  0  0  0  0  0  0  0  0
   30.7240   32.1380   43.8180 C   0  0  0  0  0  0  0  0  0  0  0  0
   30.9240   31.5710   45.0220 N   0  0  0  0  0  0  0  0  0  0  0  0
   32.1530   26.8060   47.7290 C   0  0  0  0  0  0  0  0  0  0  0  0
   33.1760   25.8620   47.8370 F   0  0  0  0  0  0  0  0  0  0  0  0
   31.3620   26.3340   46.6790 F   0  0  0  0  0  0  0  0  0  0  0  0
   31.3600   26.8270   48.8500 F   0  0  0  0  0  0  0  0  0  0  0  0
   34.1732   31.5526   46.5746 H   0  0  0  0  0  0  0  0  0  0  0  0
   36.6377   30.4764   51.6381 H   0  0  0  0  0  0  0  0  0  0  0  0
   38.4495   31.7609   50.4840 H   0  0  0  0  0  0  0  0  0  0  0  0
   39.0430   33.7993   49.2359 H   0  0  0  0  0  0  0  0  0  0  0  0
   40.6396   34.6577   47.3787 H   0  0  0  0  0  0  0  0  0  0  0  0
   41.0561   31.7697   43.2715 H   0  0  0  0  0  0  0  0  0  0  0  0
   40.7746   33.9469   44.5046 H   0  0  0  0  0  0  0  0  0  0  0  0
   33.5802   30.5433   43.3568 H   0  0  0  0  0  0  0  0  0  0  0  0
   31.8846   32.0664   42.0653 H   0  0  0  0  0  0  0  0  0  0  0  0
   29.8749   32.7717   43.5222 H   0  0  0  0  0  0  0  0  0  0  0  0
  2  1  1  0
  3  2  2  0
  3 13  1  0
  4  3  1  0
  5  6  1  0
  5  4  2  0
  6  8  2  0
  7  6  1  0
  8 28  1  0
  8  2  1  0
 10  9  2  0
 11 10  1  0
 12 11  2  0
 12 13  1  0
 13 14  2  0
 14  9  1  0
 15 16  2  0
 15 11  1  0
 17 16  1  0
 18 19  2  0
 18 17  1  0
 19 15  1  0
 20 21  2  0
 20 22  1  0
 22 18  1  0
 23 27  1  0
 23  5  1  0
 24 23  2  0
 25 24  1  0
 25 26  1  0
 26 27  2  0
 28 29  1  0
 28 31  1  0
 30 28  1  0
  4 32  1  0
  9 33  1  0
 10 34  1  0
 16 35  1  0
 17 36  1  0
 20 37  1  0
 22 38  1  0
 24 39  1  0
 25 40  1  0
 26 41  1  0
M  ISO  8  32  14  33  14  34  14  35  14  36   9  37   6  39  14  40   9
M  ISO  1  41  14
M  END
>  <minimizedAffinity>  (1) 
-6.79746485

>  <minimizedRMSD>  (1) 
0.413425833

$$$$
