
     RDKit          3D

 37 39  0  0  0  0  0  0  0  0999 V2000
   36.6290   30.6070   50.5670 C   0  0  0  0  0  0  0  0  0  0  0  0
   37.6340   31.3300   49.9240 C   0  0  0  0  0  0  0  0  0  0  0  0
   37.4800   31.5350   48.5540 C   0  0  0  0  0  0  0  0  0  0  0  0
   36.3830   31.0330   47.9240 N   0  0  0  0  0  0  0  0  0  0  0  0
   35.4370   30.3380   48.5990 C   0  0  0  0  0  0  0  0  0  0  0  0
   35.5770   30.1400   49.8970 N   0  0  0  0  0  0  0  0  0  0  0  0
   38.4700   32.2820   47.7580 C   0  0  0  0  0  0  0  0  0  0  0  0
   39.1560   33.3680   48.2190 C   0  0  0  0  0  0  0  0  0  0  0  0
   39.9980   33.8420   47.2580 N   0  0  0  0  0  0  0  0  0  0  0  0
   39.8360   33.0540   46.1990 C   0  0  0  0  0  0  0  0  0  0  0  0
   38.9150   32.1230   46.5200 N   0  0  0  0  0  0  0  0  0  0  0  0
   40.5770   31.8010   44.2500 C   0  0  0  0  0  0  0  0  0  0  0  0
   40.1750   30.7510   44.7920 O   0  0  0  0  0  0  0  0  0  0  0  0
   40.4390   33.0620   44.9200 N   0  0  0  0  0  0  0  0  0  0  0  0
   34.5520   27.6330   49.3990 Cl  0  0  0  0  0  0  0  0  0  0  0  0
   33.7880   28.5840   48.1530 C   0  0  0  0  0  0  0  0  0  0  0  0
   34.2790   29.8240   47.8630 C   0  0  0  0  0  0  0  0  0  0  0  0
   33.7000   30.6070   46.8810 C   0  0  0  0  0  0  0  0  0  0  0  0
   32.6070   30.1580   46.1640 C   0  0  0  0  0  0  0  0  0  0  0  0
   32.0970   28.9050   46.4460 C   0  0  0  0  0  0  0  0  0  0  0  0
   30.7100   28.2250   45.6020 Cl  0  0  0  0  0  0  0  0  0  0  0  0
   32.7060   28.1740   47.4240 C   0  0  0  0  0  0  0  0  0  0  0  0
   32.1660   26.8140   47.7410 C   0  0  0  0  0  0  0  0  0  0  0  0
   33.2020   25.8720   47.8260 F   0  0  0  0  0  0  0  0  0  0  0  0
   31.3830   26.3450   46.6740 F   0  0  0  0  0  0  0  0  0  0  0  0
   31.3690   26.7900   48.8530 F   0  0  0  0  0  0  0  0  0  0  0  0
   31.9570   30.9600   45.1080 C   0  0  0  0  0  0  0  0  0  0  0  0
   36.7069   30.4191   51.6480 H   0  0  0  0  0  0  0  0  0  0  0  0
   38.5052   31.7192   50.4713 H   0  0  0  0  0  0  0  0  0  0  0  0
   39.0449   33.7999   49.2246 H   0  0  0  0  0  0  0  0  0  0  0  0
   40.6330   34.6492   47.3362 H   0  0  0  0  0  0  0  0  0  0  0  0
   41.0397   31.7592   43.2529 H   0  0  0  0  0  0  0  0  0  0  0  0
   40.7658   33.9376   44.4870 H   0  0  0  0  0  0  0  0  0  0  0  0
   34.1158   31.6027   46.6672 H   0  0  0  0  0  0  0  0  0  0  0  0
   31.3287   31.7353   45.5708 H   0  0  0  0  0  0  0  0  0  0  0  0
   32.7268   31.4366   44.4833 H   0  0  0  0  0  0  0  0  0  0  0  0
   31.3313   30.3056   44.4833 H   0  0  0  0  0  0  0  0  0  0  0  0
  2  1  2  0
  3  2  1  0
  4  3  2  0
  4  5  1  0
  5  6  2  0
  6  1  1  0
  7  8  2  0
  7  3  1  0
  9  8  1  0
 10 11  2  0
 10  9  1  0
 11  7  1  0
 12 13  2  0
 12 14  1  0
 14 10  1  0
 16 15  1  0
 17 16  2  0
 17  5  1  0
 18 17  1  0
 19 20  1  0
 19 18  2  0
 20 22  2  0
 21 20  1  0
 22 23  1  0
 22 16  1  0
 23 24  1  0
 23 26  1  0
 25 23  1  0
 27 19  1  0
  1 28  1  0
  2 29  1  0
  8 30  1  0
  9 31  1  0
 12 32  1  0
 14 33  1  0
 18 34  1  0
 27 35  1  0
 27 36  1  0
 27 37  1  0
M  ISO  8  28  14  29  14  30  14  31   9  32   6  34  14  35   8  36   8
M  ISO  1  37   8
M  END
>  <minimizedAffinity>  (1) 
-6.76695967

>  <minimizedRMSD>  (1) 
0.0779823214

$$$$
