
     RDKit          3D

 36 38  0  0  0  0  0  0  0  0999 V2000
   36.6090   30.6110   50.5650 C   0  0  0  0  0  0  0  0  0  0  0  0
   37.6180   31.3340   49.9250 C   0  0  0  0  0  0  0  0  0  0  0  0
   37.4670   31.5340   48.5550 C   0  0  0  0  0  0  0  0  0  0  0  0
   36.3730   31.0290   47.9280 N   0  0  0  0  0  0  0  0  0  0  0  0
   35.4260   30.3390   48.5910 C   0  0  0  0  0  0  0  0  0  0  0  0
   35.5640   30.1420   49.9050 N   0  0  0  0  0  0  0  0  0  0  0  0
   38.4590   32.2780   47.7600 C   0  0  0  0  0  0  0  0  0  0  0  0
   39.1540   33.3670   48.2140 C   0  0  0  0  0  0  0  0  0  0  0  0
   39.9970   33.8440   47.2620 N   0  0  0  0  0  0  0  0  0  0  0  0
   39.8290   33.0450   46.1950 C   0  0  0  0  0  0  0  0  0  0  0  0
   38.9030   32.1160   46.5200 N   0  0  0  0  0  0  0  0  0  0  0  0
   40.5780   31.8110   44.2550 C   0  0  0  0  0  0  0  0  0  0  0  0
   40.1750   30.7540   44.7910 O   0  0  0  0  0  0  0  0  0  0  0  0
   40.4360   33.0590   44.9210 N   0  0  0  0  0  0  0  0  0  0  0  0
   34.5410   27.6260   49.3960 Cl  0  0  0  0  0  0  0  0  0  0  0  0
   33.7760   28.5740   48.1430 C   0  0  0  0  0  0  0  0  0  0  0  0
   34.2690   29.8210   47.8510 C   0  0  0  0  0  0  0  0  0  0  0  0
   33.6980   30.5950   46.8770 C   0  0  0  0  0  0  0  0  0  0  0  0
   32.6070   30.1550   46.1520 C   0  0  0  0  0  0  0  0  0  0  0  0
   32.0950   28.8980   46.4310 C   0  0  0  0  0  0  0  0  0  0  0  0
   30.7120   28.2150   45.5850 Cl  0  0  0  0  0  0  0  0  0  0  0  0
   32.7030   28.1580   47.4190 C   0  0  0  0  0  0  0  0  0  0  0  0
   32.1650   26.8000   47.7350 C   0  0  0  0  0  0  0  0  0  0  0  0
   33.1940   25.8620   47.8150 F   0  0  0  0  0  0  0  0  0  0  0  0
   31.3800   26.3320   46.6660 F   0  0  0  0  0  0  0  0  0  0  0  0
   31.3650   26.7780   48.8440 F   0  0  0  0  0  0  0  0  0  0  0  0
   31.9980   30.9330   45.1410 N   0  0  0  0  0  0  0  0  0  0  0  0
   36.6858   30.4269   51.6468 H   0  0  0  0  0  0  0  0  0  0  0  0
   38.4869   31.7252   50.4745 H   0  0  0  0  0  0  0  0  0  0  0  0
   39.0438   33.7994   49.2194 H   0  0  0  0  0  0  0  0  0  0  0  0
   40.6328   34.6504   47.3415 H   0  0  0  0  0  0  0  0  0  0  0  0
   41.0460   31.7739   43.2602 H   0  0  0  0  0  0  0  0  0  0  0  0
   40.7624   33.9365   44.4917 H   0  0  0  0  0  0  0  0  0  0  0  0
   34.1172   31.5900   46.6666 H   0  0  0  0  0  0  0  0  0  0  0  0
   32.3654   31.8696   44.9204 H   0  0  0  0  0  0  0  0  0  0  0  0
   31.1869   30.5633   44.6250 H   0  0  0  0  0  0  0  0  0  0  0  0
  2  1  2  0
  3  2  1  0
  4  3  2  0
  4  5  1  0
  5  6  2  0
  6  1  1  0
  7  8  2  0
  7  3  1  0
  9  8  1  0
 10 11  2  0
 10  9  1  0
 11  7  1  0
 12 13  2  0
 12 14  1  0
 14 10  1  0
 16 15  1  0
 17 16  2  0
 17  5  1  0
 18 17  1  0
 19 20  1  0
 19 18  2  0
 20 22  2  0
 21 20  1  0
 22 23  1  0
 22 16  1  0
 23 24  1  0
 23 26  1  0
 25 23  1  0
 27 19  1  0
  1 28  1  0
  2 29  1  0
  8 30  1  0
  9 31  1  0
 12 32  1  0
 14 33  1  0
 18 34  1  0
 27 35  1  0
 27 36  1  0
M  ISO  6  28  14  29  14  30  14  31   9  32   6  34  14
M  END
>  <minimizedAffinity>  (1) 
-6.71168709

>  <minimizedRMSD>  (1) 
0.0772008896

$$$$
