
     RDKit          3D

 38 40  0  0  0  0  0  0  0  0999 V2000
   36.6600   30.6080   50.5710 C   0  0  0  0  0  0  0  0  0  0  0  0
   37.6590   31.3280   49.9230 C   0  0  0  0  0  0  0  0  0  0  0  0
   37.5020   31.5400   48.5550 C   0  0  0  0  0  0  0  0  0  0  0  0
   36.3970   31.0390   47.9430 N   0  0  0  0  0  0  0  0  0  0  0  0
   35.4500   30.3430   48.6170 C   0  0  0  0  0  0  0  0  0  0  0  0
   35.6010   30.1430   49.9160 N   0  0  0  0  0  0  0  0  0  0  0  0
   38.4810   32.2820   47.7600 C   0  0  0  0  0  0  0  0  0  0  0  0
   39.1730   33.3730   48.2090 C   0  0  0  0  0  0  0  0  0  0  0  0
   40.0090   33.8530   47.2600 N   0  0  0  0  0  0  0  0  0  0  0  0
   39.8440   33.0560   46.1940 C   0  0  0  0  0  0  0  0  0  0  0  0
   38.9260   32.1270   46.5200 N   0  0  0  0  0  0  0  0  0  0  0  0
   40.5790   31.8110   44.2480 C   0  0  0  0  0  0  0  0  0  0  0  0
   40.1810   30.7700   44.7810 O   0  0  0  0  0  0  0  0  0  0  0  0
   40.4430   33.0660   44.9180 N   0  0  0  0  0  0  0  0  0  0  0  0
   34.5750   27.6380   49.3950 Cl  0  0  0  0  0  0  0  0  0  0  0  0
   33.8020   28.5950   48.1640 C   0  0  0  0  0  0  0  0  0  0  0  0
   34.2930   29.8380   47.8860 C   0  0  0  0  0  0  0  0  0  0  0  0
   33.6950   30.6210   46.9080 C   0  0  0  0  0  0  0  0  0  0  0  0
   32.6080   30.1820   46.2000 C   0  0  0  0  0  0  0  0  0  0  0  0
   32.1120   28.9260   46.4830 C   0  0  0  0  0  0  0  0  0  0  0  0
   30.7130   28.2550   45.6320 Cl  0  0  0  0  0  0  0  0  0  0  0  0
   32.7250   28.1870   47.4460 C   0  0  0  0  0  0  0  0  0  0  0  0
   32.3470   31.2290   43.8800 C   0  0  0  0  0  0  0  0  0  0  0  0
   33.4580   30.8090   43.4940 O   0  0  0  0  0  0  0  0  0  0  0  0
   31.9520   30.9110   45.2030 N   0  0  0  0  0  0  0  0  0  0  0  0
   32.1730   26.8250   47.7390 C   0  0  0  0  0  0  0  0  0  0  0  0
   33.2230   25.8920   47.8440 F   0  0  0  0  0  0  0  0  0  0  0  0
   31.4140   26.3530   46.6570 F   0  0  0  0  0  0  0  0  0  0  0  0
   31.3740   26.7910   48.8480 F   0  0  0  0  0  0  0  0  0  0  0  0
   36.7488   30.4192   51.6510 H   0  0  0  0  0  0  0  0  0  0  0  0
   38.5342   31.7129   50.4669 H   0  0  0  0  0  0  0  0  0  0  0  0
   39.0636   33.8054   49.2145 H   0  0  0  0  0  0  0  0  0  0  0  0
   40.6410   34.6624   47.3396 H   0  0  0  0  0  0  0  0  0  0  0  0
   41.0413   31.7717   43.2507 H   0  0  0  0  0  0  0  0  0  0  0  0
   40.7694   33.9422   44.4861 H   0  0  0  0  0  0  0  0  0  0  0  0
   34.1048   31.6196   46.6963 H   0  0  0  0  0  0  0  0  0  0  0  0
   31.6998   31.8232   43.2181 H   0  0  0  0  0  0  0  0  0  0  0  0
   31.0288   31.2774   45.4756 H   0  0  0  0  0  0  0  0  0  0  0  0
  2  1  2  0
  3  2  1  0
  4  3  2  0
  4  5  1  0
  5  6  2  0
  6  1  1  0
  7  8  2  0
  7  3  1  0
  9  8  1  0
 10 11  2  0
 10  9  1  0
 11  7  1  0
 12 13  2  0
 12 14  1  0
 14 10  1  0
 16 15  1  0
 17 16  2  0
 17  5  1  0
 18 17  1  0
 19 20  1  0
 19 18  2  0
 20 22  2  0
 21 20  1  0
 22 26  1  0
 22 16  1  0
 23 25  1  0
 24 23  2  0
 25 19  1  0
 26 27  1  0
 26 29  1  0
 28 26  1  0
  1 30  1  0
  2 31  1  0
  8 32  1  0
  9 33  1  0
 12 34  1  0
 14 35  1  0
 18 36  1  0
 23 37  1  0
 25 38  1  0
M  ISO  7  30  14  31  14  32  14  33   9  34   6  36  14  37   6
M  END
>  <minimizedAffinity>  (1) 
-6.6249733

>  <minimizedRMSD>  (1) 
0.203182325

$$$$
