
     RDKit          3D

 33 36  0  0  0  0  0  0  0  0999 V2000
   35.9770   30.2850   48.5570 C   0  0  0  0  0  0  0  0  0  0  0  0
   36.0340   29.2730   49.4980 C   0  0  0  0  0  0  0  0  0  0  0  0
   35.0540   28.3020   49.5620 C   0  0  0  0  0  0  0  0  0  0  0  0
   34.0370   28.4060   48.6450 C   0  0  0  0  0  0  0  0  0  0  0  0
   33.9600   29.4090   47.6940 C   0  0  0  0  0  0  0  0  0  0  0  0
   34.9590   30.3550   47.6680 N   0  0  0  0  0  0  0  0  0  0  0  0
   32.0520   28.4650   46.3970 C   0  0  0  0  0  0  0  0  0  0  0  0
   32.8790   29.5180   46.7210 C   0  0  0  0  0  0  0  0  0  0  0  0
   32.6360   30.6870   46.0770 C   0  0  0  0  0  0  0  0  0  0  0  0
   31.6370   30.8740   45.1450 C   0  0  0  0  0  0  0  0  0  0  0  0
   31.2610   31.9520   44.4220 N   0  0  0  0  0  0  0  0  0  0  0  0
   30.2230   31.5960   43.6560 C   0  0  0  0  0  0  0  0  0  0  0  0
   29.9400   30.2660   43.9060 C   0  0  0  0  0  0  0  0  0  0  0  0
   30.8360   29.7890   44.8560 C   0  0  0  0  0  0  0  0  0  0  0  0
   31.0210   28.5710   45.4680 C   0  0  0  0  0  0  0  0  0  0  0  0
   38.1160   33.0910   49.5190 C   0  0  0  0  0  0  0  0  0  0  0  0
   38.9970   33.2250   48.4480 C   0  0  0  0  0  0  0  0  0  0  0  0
   38.8380   32.3320   47.3960 C   0  0  0  0  0  0  0  0  0  0  0  0
   37.8400   31.3860   47.4690 N   0  0  0  0  0  0  0  0  0  0  0  0
   37.0210   31.2990   48.5150 C   0  0  0  0  0  0  0  0  0  0  0  0
   37.1650   32.1610   49.5460 N   0  0  0  0  0  0  0  0  0  0  0  0
   36.8741   29.2410   50.2074 H   0  0  0  0  0  0  0  0  0  0  0  0
   35.0862   27.4916   50.3051 H   0  0  0  0  0  0  0  0  0  0  0  0
   33.2386   27.6497   48.6674 H   0  0  0  0  0  0  0  0  0  0  0  0
   32.2136   27.4974   46.8946 H   0  0  0  0  0  0  0  0  0  0  0  0
   33.2809   31.5458   46.3149 H   0  0  0  0  0  0  0  0  0  0  0  0
   31.6971   32.8846   44.4548 H   0  0  0  0  0  0  0  0  0  0  0  0
   29.6879   32.2482   42.9501 H   0  0  0  0  0  0  0  0  0  0  0  0
   29.1380   29.6815   43.4314 H   0  0  0  0  0  0  0  0  0  0  0  0
   30.3769   27.7112   45.2315 H   0  0  0  0  0  0  0  0  0  0  0  0
   38.2101   33.7785   50.3725 H   0  0  0  0  0  0  0  0  0  0  0  0
   39.7788   33.9987   48.4361 H   0  0  0  0  0  0  0  0  0  0  0  0
   39.4991   32.3798   46.5181 H   0  0  0  0  0  0  0  0  0  0  0  0
  1  2  2  0
  2  3  1  0
  4  3  2  0
  5  4  1  0
  6  5  2  0
  6  1  1  0
  7  8  2  0
  8  5  1  0
  9  8  1  0
 10  9  2  0
 11 10  1  0
 12 13  2  0
 12 11  1  0
 13 14  1  0
 14 10  1  0
 14 15  2  0
 15  7  1  0
 16 21  2  0
 17 16  1  0
 18 19  1  0
 18 17  2  0
 19 20  2  0
 20  1  1  0
 20 21  1  0
  2 22  1  0
  3 23  1  0
  4 24  1  0
  7 25  1  0
  9 26  1  0
 11 27  1  0
 12 28  1  0
 13 29  1  0
 15 30  1  0
 16 31  1  0
 17 32  1  0
 18 33  1  0
M  ISO  8  22  14  23  14  24  14  25  14  26  14  27   9  28  14  29  14
M  ISO  4  30  14  31  14  32  14  33  14
M  END
>  <minimizedAffinity>  (1) 
-5.62494183

>  <minimizedRMSD>  (1) 
0.655960202

$$$$
