
     RDKit          3D

 29 31  0  0  0  0  0  0  0  0999 V2000
   35.9600   30.2960   48.5600 C   0  0  0  0  0  0  0  0  0  0  0  0
   36.0350   29.2950   49.5230 C   0  0  0  0  0  0  0  0  0  0  0  0
   35.0520   28.3170   49.5810 C   0  0  0  0  0  0  0  0  0  0  0  0
   34.0310   28.4110   48.6380 C   0  0  0  0  0  0  0  0  0  0  0  0
   33.9570   29.4060   47.6790 C   0  0  0  0  0  0  0  0  0  0  0  0
   34.9520   30.3250   47.6870 N   0  0  0  0  0  0  0  0  0  0  0  0
   38.1150   33.0980   49.5080 C   0  0  0  0  0  0  0  0  0  0  0  0
   39.0030   33.2080   48.4350 C   0  0  0  0  0  0  0  0  0  0  0  0
   38.8480   32.3000   47.3690 C   0  0  0  0  0  0  0  0  0  0  0  0
   37.8420   31.3710   47.4550 N   0  0  0  0  0  0  0  0  0  0  0  0
   37.0090   31.3060   48.5190 C   0  0  0  0  0  0  0  0  0  0  0  0
   37.1640   32.1690   49.5180 N   0  0  0  0  0  0  0  0  0  0  0  0
   32.8920   29.4950   46.7060 C   0  0  0  0  0  0  0  0  0  0  0  0
   32.0500   28.4530   46.3840 C   0  0  0  0  0  0  0  0  0  0  0  0
   31.0260   28.5060   45.4610 C   0  0  0  0  0  0  0  0  0  0  0  0
   30.8410   29.7280   44.8070 C   0  0  0  0  0  0  0  0  0  0  0  0
   31.6610   30.8250   45.0860 C   0  0  0  0  0  0  0  0  0  0  0  0
   32.6730   30.6790   46.0360 C   0  0  0  0  0  0  0  0  0  0  0  0
   36.8716   29.2786   50.2370 H   0  0  0  0  0  0  0  0  0  0  0  0
   35.0777   27.5120   50.3303 H   0  0  0  0  0  0  0  0  0  0  0  0
   33.2371   27.6498   48.6567 H   0  0  0  0  0  0  0  0  0  0  0  0
   38.2041   33.7908   50.3577 H   0  0  0  0  0  0  0  0  0  0  0  0
   39.7925   33.9738   48.4230 H   0  0  0  0  0  0  0  0  0  0  0  0
   39.5136   32.3348   46.4939 H   0  0  0  0  0  0  0  0  0  0  0  0
   32.2076   27.4982   46.9070 H   0  0  0  0  0  0  0  0  0  0  0  0
   30.3894   27.6339   45.2509 H   0  0  0  0  0  0  0  0  0  0  0  0
   30.0381   29.8275   44.0617 H   0  0  0  0  0  0  0  0  0  0  0  0
   31.5118   31.7836   44.5675 H   0  0  0  0  0  0  0  0  0  0  0  0
   33.3195   31.5408   46.2580 H   0  0  0  0  0  0  0  0  0  0  0  0
  1  2  2  0
  2  3  1  0
  4  3  2  0
  5  6  2  0
  5  4  1  0
  6  1  1  0
  7 12  2  0
  8  7  1  0
  9 10  1  0
  9  8  2  0
 10 11  2  0
 11  1  1  0
 11 12  1  0
 13  5  1  0
 14 13  2  0
 15 14  1  0
 16 17  1  0
 16 15  2  0
 17 18  2  0
 18 13  1  0
  2 19  1  0
  3 20  1  0
  4 21  1  0
  7 22  1  0
  8 23  1  0
  9 24  1  0
 14 25  1  0
 15 26  1  0
 16 27  1  0
 17 28  1  0
 18 29  1  0
M  ISO  8  19  14  20  14  21  14  22  14  23  14  24  14  25  14  26  14
M  ISO  3  27  14  28  14  29  14
M  END
>  <minimizedAffinity>  (1) 
-5.31508207

>  <minimizedRMSD>  (1) 
0.410810769

$$$$
