
     RDKit          3D

 32 34  0  0  0  0  0  0  0  0999 V2000
   35.9590   30.2510   48.5790 C   0  0  0  0  0  0  0  0  0  0  0  0
   35.9180   29.3490   49.6290 C   0  0  0  0  0  0  0  0  0  0  0  0
   34.9440   28.3760   49.7080 C   0  0  0  0  0  0  0  0  0  0  0  0
   34.0200   28.3630   48.6760 C   0  0  0  0  0  0  0  0  0  0  0  0
   34.0380   29.2600   47.6080 C   0  0  0  0  0  0  0  0  0  0  0  0
   35.0300   30.1810   47.6110 N   0  0  0  0  0  0  0  0  0  0  0  0
   38.0580   33.1040   49.4950 C   0  0  0  0  0  0  0  0  0  0  0  0
   38.9830   33.1720   48.4300 C   0  0  0  0  0  0  0  0  0  0  0  0
   38.8640   32.2270   47.4110 C   0  0  0  0  0  0  0  0  0  0  0  0
   37.8650   31.3040   47.5120 N   0  0  0  0  0  0  0  0  0  0  0  0
   37.0080   31.2680   48.5320 C   0  0  0  0  0  0  0  0  0  0  0  0
   37.1120   32.1680   49.5150 N   0  0  0  0  0  0  0  0  0  0  0  0
   33.0650   29.2440   46.5240 C   0  0  0  0  0  0  0  0  0  0  0  0
   31.7440   28.6240   46.8250 C   0  0  0  0  0  0  0  0  0  0  0  0
   30.9400   28.9960   45.5940 C   0  0  0  0  0  0  0  0  0  0  0  0
   31.5840   30.2750   45.0450 C   0  0  0  0  0  0  0  0  0  0  0  0
   32.6270   30.6500   46.1080 C   0  0  0  0  0  0  0  0  0  0  0  0
   36.6808   29.4101   50.4191 H   0  0  0  0  0  0  0  0  0  0  0  0
   34.9033   27.6555   50.5382 H   0  0  0  0  0  0  0  0  0  0  0  0
   33.2265   27.6016   48.7002 H   0  0  0  0  0  0  0  0  0  0  0  0
   38.1200   33.8325   50.3169 H   0  0  0  0  0  0  0  0  0  0  0  0
   39.7683   33.9418   48.4050 H   0  0  0  0  0  0  0  0  0  0  0  0
   39.5534   32.2262   46.5539 H   0  0  0  0  0  0  0  0  0  0  0  0
   33.6279   28.6713   45.7722 H   0  0  0  0  0  0  0  0  0  0  0  0
   31.8290   27.5327   46.9333 H   0  0  0  0  0  0  0  0  0  0  0  0
   31.2962   28.9655   47.7699 H   0  0  0  0  0  0  0  0  0  0  0  0
   30.9897   28.1907   44.8463 H   0  0  0  0  0  0  0  0  0  0  0  0
   29.8778   29.1490   45.8353 H   0  0  0  0  0  0  0  0  0  0  0  0
   32.0655   30.0850   44.0744 H   0  0  0  0  0  0  0  0  0  0  0  0
   30.8515   31.0764   44.8686 H   0  0  0  0  0  0  0  0  0  0  0  0
   33.4582   31.2315   45.6826 H   0  0  0  0  0  0  0  0  0  0  0  0
   32.2606   31.2909   46.9234 H   0  0  0  0  0  0  0  0  0  0  0  0
  1  2  2  0
  2  3  1  0
  4  3  2  0
  5  6  2  0
  5  4  1  0
  6  1  1  0
  7 12  2  0
  8  7  1  0
  9 10  1  0
  9  8  2  0
 10 11  2  0
 11  1  1  0
 11 12  1  0
 13 14  1  0
 13  5  1  0
 15 14  1  0
 16 15  1  0
 16 17  1  0
 17 13  1  0
  2 18  1  0
  3 19  1  0
  4 20  1  0
  7 21  1  0
  8 22  1  0
  9 23  1  0
 13 24  1  0
 14 25  1  0
 14 26  1  0
 15 27  1  0
 15 28  1  0
 16 29  1  0
 16 30  1  0
 17 31  1  0
 17 32  1  0
M  ISO  8  18  14  19  14  20  14  21  14  22  14  23  14  24  13  25  13
M  ISO  7  26  13  27  13  28  13  29  13  30  13  31  13  32  13
M  END
>  <minimizedAffinity>  (1) 
-5.25341749

>  <minimizedRMSD>  (1) 
0.332850009

$$$$
