
     RDKit          3D

 22 23  0  0  0  0  0  0  0  0999 V2000
   35.9680   30.2730   48.6000 C   0  0  0  0  0  0  0  0  0  0  0  0
   35.9390   29.3330   49.5960 C   0  0  0  0  0  0  0  0  0  0  0  0
   34.9590   28.3620   49.6660 C   0  0  0  0  0  0  0  0  0  0  0  0
   34.0110   28.3970   48.6730 C   0  0  0  0  0  0  0  0  0  0  0  0
   34.0010   29.3300   47.6450 C   0  0  0  0  0  0  0  0  0  0  0  0
   35.0070   30.2580   47.6480 N   0  0  0  0  0  0  0  0  0  0  0  0
   38.0580   33.1260   49.5090 C   0  0  0  0  0  0  0  0  0  0  0  0
   38.9960   33.1830   48.4510 C   0  0  0  0  0  0  0  0  0  0  0  0
   38.8870   32.2340   47.4420 C   0  0  0  0  0  0  0  0  0  0  0  0
   37.8830   31.3100   47.5420 N   0  0  0  0  0  0  0  0  0  0  0  0
   37.0170   31.2870   48.5550 C   0  0  0  0  0  0  0  0  0  0  0  0
   37.1040   32.1970   49.5410 N   0  0  0  0  0  0  0  0  0  0  0  0
   32.9710   29.3410   46.5930 C   0  0  0  0  0  0  0  0  0  0  0  0
   36.7234   29.3521   50.3669 H   0  0  0  0  0  0  0  0  0  0  0  0
   34.9392   27.6081   50.4668 H   0  0  0  0  0  0  0  0  0  0  0  0
   33.2122   27.6410   48.6934 H   0  0  0  0  0  0  0  0  0  0  0  0
   38.1180   33.8644   50.3221 H   0  0  0  0  0  0  0  0  0  0  0  0
   39.7832   33.9510   48.4282 H   0  0  0  0  0  0  0  0  0  0  0  0
   39.5845   32.2259   46.5914 H   0  0  0  0  0  0  0  0  0  0  0  0
   31.9735   29.3517   47.0566 H   0  0  0  0  0  0  0  0  0  0  0  0
   33.0946   30.2379   45.9682 H   0  0  0  0  0  0  0  0  0  0  0  0
   33.0754   28.4417   45.9682 H   0  0  0  0  0  0  0  0  0  0  0  0
  1  2  2  0
  2  3  1  0
  4  3  2  0
  5  6  2  0
  5  4  1  0
  6  1  1  0
  7 12  2  0
  8  7  1  0
  9 10  1  0
  9  8  2  0
 10 11  2  0
 11  1  1  0
 11 12  1  0
 13  5  1  0
  2 14  1  0
  3 15  1  0
  4 16  1  0
  7 17  1  0
  8 18  1  0
  9 19  1  0
 13 20  1  0
 13 21  1  0
 13 22  1  0
M  ISO  8  14  14  15  14  16  14  17  14  18  14  19  14  20   8  21   8
M  ISO  1  22   8
M  END
>  <minimizedAffinity>  (1) 
-4.85618782

>  <minimizedRMSD>  (1) 
0.054762926

$$$$
