
     RDKit          3D

 21 22  0  0  0  0  0  0  0  0999 V2000
   35.9650   30.3390   48.5400 C   0  0  0  0  0  0  0  0  0  0  0  0
   35.9770   29.3350   49.4990 C   0  0  0  0  0  0  0  0  0  0  0  0
   35.0020   28.3530   49.5330 C   0  0  0  0  0  0  0  0  0  0  0  0
   34.0220   28.4440   48.5470 C   0  0  0  0  0  0  0  0  0  0  0  0
   33.9900   29.4420   47.5750 C   0  0  0  0  0  0  0  0  0  0  0  0
   34.9890   30.3550   47.6290 N   0  0  0  0  0  0  0  0  0  0  0  0
   38.1340   33.0890   49.5820 C   0  0  0  0  0  0  0  0  0  0  0  0
   39.0100   33.2370   48.4930 C   0  0  0  0  0  0  0  0  0  0  0  0
   38.8350   32.3730   47.4040 C   0  0  0  0  0  0  0  0  0  0  0  0
   37.8290   31.4490   47.4710 N   0  0  0  0  0  0  0  0  0  0  0  0
   37.0140   31.3510   48.5440 C   0  0  0  0  0  0  0  0  0  0  0  0
   37.1640   32.1620   49.5870 N   0  0  0  0  0  0  0  0  0  0  0  0
   32.9580   29.4890   46.5850 C   0  0  0  0  0  0  0  0  0  0  0  0
   32.5600   30.6050   46.1580 O   0  0  0  0  0  0  0  0  0  0  0  0
   36.7807   29.3196   50.2499 H   0  0  0  0  0  0  0  0  0  0  0  0
   35.0011   27.5536   50.2886 H   0  0  0  0  0  0  0  0  0  0  0  0
   33.2271   27.6837   48.5351 H   0  0  0  0  0  0  0  0  0  0  0  0
   38.2466   33.7508   50.4534 H   0  0  0  0  0  0  0  0  0  0  0  0
   39.8016   34.0008   48.4955 H   0  0  0  0  0  0  0  0  0  0  0  0
   39.4878   32.4360   46.5209 H   0  0  0  0  0  0  0  0  0  0  0  0
   32.5159   28.5582   46.2001 H   0  0  0  0  0  0  0  0  0  0  0  0
  1 11  1  0
  1  2  2  0
  2  3  1  0
  4  3  2  0
  5  6  2  0
  5  4  1  0
  6  1  1  0
  7 12  2  0
  8  7  1  0
  9 10  1  0
  9  8  2  0
 10 11  2  0
 11 12  1  0
 13  5  1  0
 14 13  2  0
  2 15  1  0
  3 16  1  0
  4 17  1  0
  7 18  1  0
  8 19  1  0
  9 20  1  0
 13 21  1  0
M  ISO  7  15  14  16  14  17  14  18  14  19  14  20  14  21   6
M  END
>  <minimizedAffinity>  (1) 
-4.80602169

>  <minimizedRMSD>  (1) 
0.360571474

$$$$
