
     RDKit          3D

 35 38  0  0  1  0  0  0  0  0999 V2000
   38.8160   32.3610   46.9010 C   0  0  1  0  0  0  0  0  0  0  0  0
   39.9750   33.2040   46.3560 C   0  0  0  0  0  0  0  0  0  0  0  0
   39.9360   31.7120   46.2130 C   0  0  2  0  0  0  0  0  0  0  0  0
   39.8150   31.1160   44.8660 C   0  0  0  0  0  0  0  0  0  0  0  0
   40.1960   31.8220   43.7320 C   0  0  0  0  0  0  0  0  0  0  0  0
   40.0940   31.2850   42.4600 C   0  0  0  0  0  0  0  0  0  0  0  0
   39.6020   30.0090   42.2720 C   0  0  0  0  0  0  0  0  0  0  0  0
   39.4720   29.4210   41.0750 N   0  0  0  0  0  0  0  0  0  0  0  0
   38.9830   28.1710   40.9620 C   0  0  0  0  0  0  0  0  0  0  0  0
   38.5810   27.4050   42.0540 C   0  0  0  0  0  0  0  0  0  0  0  0
   38.7140   28.0120   43.2990 C   0  0  0  0  0  0  0  0  0  0  0  0
   39.2200   29.3000   43.3820 C   0  0  0  0  0  0  0  0  0  0  0  0
   39.3270   29.8440   44.6390 C   0  0  0  0  0  0  0  0  0  0  0  0
   38.6980   32.4040   48.3830 C   0  0  0  0  0  0  0  0  0  0  0  0
   37.4260   29.8450   50.7910 C   0  0  0  0  0  0  0  0  0  0  0  0
   38.1670   30.9300   50.2610 C   0  0  0  0  0  0  0  0  0  0  0  0
   37.9270   31.2710   48.9440 C   0  0  0  0  0  0  0  0  0  0  0  0
   37.0180   30.5800   48.2210 N   0  0  0  0  0  0  0  0  0  0  0  0
   36.3290   29.5450   48.7720 C   0  0  0  0  0  0  0  0  0  0  0  0
   36.5440   29.1890   50.0610 N   0  0  0  0  0  0  0  0  0  0  0  0
   37.7285   32.2583   46.7714 H   0  0  0  0  0  0  0  0  0  0  0  0
   39.8275   33.8507   45.4785 H   0  0  0  0  0  0  0  0  0  0  0  0
   40.6798   33.9403   46.7697 H   0  0  0  0  0  0  0  0  0  0  0  0
   40.5968   30.8782   46.4924 H   0  0  0  0  0  0  0  0  0  0  0  0
   40.5919   32.8416   43.8485 H   0  0  0  0  0  0  0  0  0  0  0  0
   40.4081   31.8811   41.5905 H   0  0  0  0  0  0  0  0  0  0  0  0
   38.8967   27.7329   39.9567 H   0  0  0  0  0  0  0  0  0  0  0  0
   38.1839   26.3856   41.9394 H   0  0  0  0  0  0  0  0  0  0  0  0
   38.4195   27.4732   44.2117 H   0  0  0  0  0  0  0  0  0  0  0  0
   39.0102   29.2403   45.5022 H   0  0  0  0  0  0  0  0  0  0  0  0
   39.7098   32.3849   48.8142 H   0  0  0  0  0  0  0  0  0  0  0  0
   38.1546   33.3255   48.6392 H   0  0  0  0  0  0  0  0  0  0  0  0
   37.5898   29.5423   51.8358 H   0  0  0  0  0  0  0  0  0  0  0  0
   38.9010   31.4767   50.8712 H   0  0  0  0  0  0  0  0  0  0  0  0
   35.5933   28.9941   48.1677 H   0  0  0  0  0  0  0  0  0  0  0  0
  1 14  1  0
  2  1  1  0
  3  2  1  0
  3  1  1  0
  4  3  1  0
  5  4  2  0
  6  5  1  0
  7  6  2  0
  7 12  1  0
  8  7  1  0
  9  8  2  0
  9 10  1  0
 10 11  2  0
 11 12  1  0
 12 13  2  0
 13  4  1  0
 14 17  1  0
 16 15  2  0
 17 16  1  0
 18 19  1  0
 18 17  2  0
 19 20  2  0
 20 15  1  0
  1 21  1  6
  2 22  1  0
  2 23  1  0
  3 24  1  1
  5 25  1  0
  6 26  1  0
  9 27  1  0
 10 28  1  0
 11 29  1  0
 13 30  1  0
 14 31  1  0
 14 32  1  0
 15 33  1  0
 16 34  1  0
 19 35  1  0
M  ISO  8  21  13  22  13  23  13  24  13  25  14  26  14  27  14  28  14
M  ISO  7  29  14  30  14  31   8  32   8  33  14  34  14  35  14
M  END
>  <minimizedAffinity>  (1) 
-5.78299332

>  <minimizedRMSD>  (1) 
0.910153806

$$$$
