
     RDKit          3D

 44 47  0  0  0  0  0  0  0  0999 V2000
   36.8730   30.8210   49.4100 C   0  0  0  0  0  0  0  0  0  0  0  0
   36.9580   30.4840   50.7650 C   0  0  0  0  0  0  0  0  0  0  0  0
   36.0900   29.5770   51.3330 C   0  0  0  0  0  0  0  0  0  0  0  0
   35.1440   29.0340   50.4750 C   0  0  0  0  0  0  0  0  0  0  0  0
   35.0460   29.3550   49.1410 C   0  0  0  0  0  0  0  0  0  0  0  0
   35.9330   30.2570   48.6420 N   0  0  0  0  0  0  0  0  0  0  0  0
   34.0450   28.7440   48.3590 N   0  0  0  0  0  0  0  0  0  0  0  0
   32.9660   28.0720   49.0440 C   0  0  0  0  0  0  0  0  0  0  0  0
   32.1130   27.4030   47.9770 C   0  0  0  0  0  0  0  0  0  0  0  0
   31.5960   28.4360   47.0060 C   0  0  0  0  0  0  0  0  0  0  0  0
   32.6910   29.2940   46.4580 C   0  0  0  0  0  0  0  0  0  0  0  0
   34.0330   28.7470   46.9140 C   0  0  0  0  0  0  0  0  0  0  0  0
   39.1340   33.6860   49.0580 C   0  0  0  0  0  0  0  0  0  0  0  0
   39.6000   33.5270   47.7350 C   0  0  0  0  0  0  0  0  0  0  0  0
   39.1480   32.4660   46.9940 C   0  0  0  0  0  0  0  0  0  0  0  0
   38.2650   31.6400   47.6180 N   0  0  0  0  0  0  0  0  0  0  0  0
   37.8220   31.7890   48.8720 C   0  0  0  0  0  0  0  0  0  0  0  0
   38.2610   32.8120   49.5790 N   0  0  0  0  0  0  0  0  0  0  0  0
   39.9300   34.2860   44.8940 F   0  0  0  0  0  0  0  0  0  0  0  0
   39.8640   32.9650   44.6400 C   0  0  0  0  0  0  0  0  0  0  0  0
   39.4920   32.1270   45.6470 C   0  0  0  0  0  0  0  0  0  0  0  0
   39.4670   30.8020   45.2500 C   0  0  0  0  0  0  0  0  0  0  0  0
   39.7820   30.3750   43.9770 C   0  0  0  0  0  0  0  0  0  0  0  0
   40.1500   31.2790   43.0060 C   0  0  0  0  0  0  0  0  0  0  0  0
   40.1920   32.6140   43.3490 C   0  0  0  0  0  0  0  0  0  0  0  0
   37.7331   30.9523   51.3894 H   0  0  0  0  0  0  0  0  0  0  0  0
   36.1434   29.3015   52.3966 H   0  0  0  0  0  0  0  0  0  0  0  0
   34.4308   28.3042   50.8857 H   0  0  0  0  0  0  0  0  0  0  0  0
   33.3689   27.3166   49.7346 H   0  0  0  0  0  0  0  0  0  0  0  0
   32.3707   28.7842   49.6343 H   0  0  0  0  0  0  0  0  0  0  0  0
   32.7217   26.6651   47.4339 H   0  0  0  0  0  0  0  0  0  0  0  0
   31.2604   26.9018   48.4585 H   0  0  0  0  0  0  0  0  0  0  0  0
   31.0988   27.9201   46.1713 H   0  0  0  0  0  0  0  0  0  0  0  0
   30.8952   29.0881   47.5480 H   0  0  0  0  0  0  0  0  0  0  0  0
   32.5698   30.3237   46.8254 H   0  0  0  0  0  0  0  0  0  0  0  0
   32.6462   29.2916   45.3589 H   0  0  0  0  0  0  0  0  0  0  0  0
   34.1661   27.7221   46.5372 H   0  0  0  0  0  0  0  0  0  0  0  0
   34.8521   29.3702   46.5258 H   0  0  0  0  0  0  0  0  0  0  0  0
   39.4892   34.5319   49.6649 H   0  0  0  0  0  0  0  0  0  0  0  0
   40.3151   34.2438   47.3051 H   0  0  0  0  0  0  0  0  0  0  0  0
   39.1789   30.0443   45.9936 H   0  0  0  0  0  0  0  0  0  0  0  0
   39.7388   29.3027   43.7354 H   0  0  0  0  0  0  0  0  0  0  0  0
   40.4027   30.9467   41.9883 H   0  0  0  0  0  0  0  0  0  0  0  0
   40.4796   33.3779   42.6116 H   0  0  0  0  0  0  0  0  0  0  0  0
  1  2  2  0
  2  3  1  0
  4  3  2  0
  5  4  1  0
  6  5  2  0
  6  1  1  0
  7  8  1  0
  7  5  1  0
  9  8  1  0
 10  9  1  0
 11 12  1  0
 11 10  1  0
 12  7  1  0
 13 18  2  0
 14 13  1  0
 15 16  1  0
 15 14  2  0
 16 17  2  0
 17  1  1  0
 17 18  1  0
 20 19  1  0
 20 21  2  0
 21 15  1  0
 22 21  1  0
 23 22  2  0
 24 25  2  0
 24 23  1  0
 25 20  1  0
  2 26  1  0
  3 27  1  0
  4 28  1  0
  8 29  1  0
  8 30  1  0
  9 31  1  0
  9 32  1  0
 10 33  1  0
 10 34  1  0
 11 35  1  0
 11 36  1  0
 12 37  1  0
 12 38  1  0
 13 39  1  0
 14 40  1  0
 22 41  1  0
 23 42  1  0
 24 43  1  0
 25 44  1  0
M  ISO  8  26  14  27  14  28  14  29  13  30  13  31  13  32  13  33  13
M  ISO  8  34  13  35  13  36  13  37  13  38  13  39  14  40  14  41  14
M  ISO  3  42  14  43  14  44  14
M  END
>  <minimizedAffinity>  (1) 
-7.46684504

>  <minimizedRMSD>  (1) 
1.6055088

$$$$
