
     RDKit          3D

 44 47  0  0  0  0  0  0  0  0999 V2000
   35.8450   30.0970   48.7020 C   0  0  0  0  0  0  0  0  0  0  0  0
   35.8880   29.1640   49.7450 C   0  0  0  0  0  0  0  0  0  0  0  0
   34.9100   28.1970   49.8660 C   0  0  0  0  0  0  0  0  0  0  0  0
   33.9090   28.2180   48.9010 C   0  0  0  0  0  0  0  0  0  0  0  0
   33.8580   29.1310   47.8730 C   0  0  0  0  0  0  0  0  0  0  0  0
   34.8450   30.0540   47.8080 N   0  0  0  0  0  0  0  0  0  0  0  0
   32.7970   29.0560   46.9550 N   0  0  0  0  0  0  0  0  0  0  0  0
   31.6430   28.2570   47.3000 C   0  0  0  0  0  0  0  0  0  0  0  0
   30.7430   28.2440   46.0700 C   0  0  0  0  0  0  0  0  0  0  0  0
   30.3270   29.6800   45.7590 C   0  0  0  0  0  0  0  0  0  0  0  0
   31.5200   30.5630   45.5870 C   0  0  0  0  0  0  0  0  0  0  0  0
   32.7910   29.7350   45.6750 C   0  0  0  0  0  0  0  0  0  0  0  0
   38.3870   32.5800   49.5580 C   0  0  0  0  0  0  0  0  0  0  0  0
   38.9080   32.9290   48.3140 C   0  0  0  0  0  0  0  0  0  0  0  0
   38.3890   32.3270   47.2000 C   0  0  0  0  0  0  0  0  0  0  0  0
   37.3980   31.4270   47.4260 N   0  0  0  0  0  0  0  0  0  0  0  0
   36.8960   31.0870   48.6150 C   0  0  0  0  0  0  0  0  0  0  0  0
   37.4040   31.6770   49.6730 N   0  0  0  0  0  0  0  0  0  0  0  0
   36.7870   30.8800   44.9380 Cl  0  0  0  0  0  0  0  0  0  0  0  0
   38.1510   31.9330   44.7040 C   0  0  0  0  0  0  0  0  0  0  0  0
   38.7420   32.4840   45.8070 C   0  0  0  0  0  0  0  0  0  0  0  0
   39.8150   33.2720   45.4690 C   0  0  0  0  0  0  0  0  0  0  0  0
   40.2470   33.4850   44.1800 C   0  0  0  0  0  0  0  0  0  0  0  0
   39.6050   32.8990   43.1140 C   0  0  0  0  0  0  0  0  0  0  0  0
   38.5210   32.0970   43.3940 C   0  0  0  0  0  0  0  0  0  0  0  0
   37.7010   31.3500   42.0670 Cl  0  0  0  0  0  0  0  0  0  0  0  0
   36.7095   29.2018   50.4756 H   0  0  0  0  0  0  0  0  0  0  0  0
   34.9219   27.4543   50.6773 H   0  0  0  0  0  0  0  0  0  0  0  0
   33.1127   27.4617   48.9631 H   0  0  0  0  0  0  0  0  0  0  0  0
   31.9524   27.2328   47.5554 H   0  0  0  0  0  0  0  0  0  0  0  0
   31.1180   28.6721   48.1730 H   0  0  0  0  0  0  0  0  0  0  0  0
   31.2905   27.8226   45.2140 H   0  0  0  0  0  0  0  0  0  0  0  0
   29.8528   27.6266   46.2608 H   0  0  0  0  0  0  0  0  0  0  0  0
   29.7368   29.6895   44.8308 H   0  0  0  0  0  0  0  0  0  0  0  0
   29.7309   30.0602   46.6017 H   0  0  0  0  0  0  0  0  0  0  0  0
   31.5262   31.3266   46.3788 H   0  0  0  0  0  0  0  0  0  0  0  0
   31.4718   31.0503   44.6020 H   0  0  0  0  0  0  0  0  0  0  0  0
   32.8119   28.9959   44.8606 H   0  0  0  0  0  0  0  0  0  0  0  0
   33.6754   30.3826   45.5825 H   0  0  0  0  0  0  0  0  0  0  0  0
   38.7908   33.0554   50.4640 H   0  0  0  0  0  0  0  0  0  0  0  0
   39.7165   33.6701   48.2293 H   0  0  0  0  0  0  0  0  0  0  0  0
   40.3658   33.7658   46.2831 H   0  0  0  0  0  0  0  0  0  0  0  0
   41.1176   34.1327   43.9996 H   0  0  0  0  0  0  0  0  0  0  0  0
   39.9434   33.0641   42.0805 H   0  0  0  0  0  0  0  0  0  0  0  0
  1  2  2  0
  2  3  1  0
  4  3  2  0
  5  4  1  0
  6  5  2  0
  6  1  1  0
  7  8  1  0
  7  5  1  0
  9  8  1  0
 10  9  1  0
 11 12  1  0
 11 10  1  0
 12  7  1  0
 13 18  2  0
 14 13  1  0
 15 16  1  0
 15 14  2  0
 16 17  2  0
 17  1  1  0
 17 18  1  0
 20 19  1  0
 20 21  2  0
 21 15  1  0
 22 21  1  0
 23 22  2  0
 24 25  2  0
 24 23  1  0
 25 20  1  0
 26 25  1  0
  2 27  1  0
  3 28  1  0
  4 29  1  0
  8 30  1  0
  8 31  1  0
  9 32  1  0
  9 33  1  0
 10 34  1  0
 10 35  1  0
 11 36  1  0
 11 37  1  0
 12 38  1  0
 12 39  1  0
 13 40  1  0
 14 41  1  0
 22 42  1  0
 23 43  1  0
 24 44  1  0
M  ISO  8  27  14  28  14  29  14  30  13  31  13  32  13  33  13  34  13
M  ISO  8  35  13  36  13  37  13  38  13  39  13  40  14  41  14  42  14
M  ISO  2  43  14  44  14
M  END
>  <minimizedAffinity>  (1) 
-7.24530172

>  <minimizedRMSD>  (1) 
1.05048549

$$$$
