
     RDKit          3D

 41 44  0  0  0  0  0  0  0  0999 V2000
   35.8440   30.2450   48.7360 C   0  0  0  0  0  0  0  0  0  0  0  0
   35.8700   29.2700   49.7160 C   0  0  0  0  0  0  0  0  0  0  0  0
   34.9120   28.2710   49.7610 C   0  0  0  0  0  0  0  0  0  0  0  0
   33.9380   28.3240   48.7620 C   0  0  0  0  0  0  0  0  0  0  0  0
   33.8970   29.2900   47.7750 C   0  0  0  0  0  0  0  0  0  0  0  0
   34.8720   30.2240   47.8100 N   0  0  0  0  0  0  0  0  0  0  0  0
   32.8730   29.2410   46.8270 N   0  0  0  0  0  0  0  0  0  0  0  0
   31.7440   28.3740   47.0760 C   0  0  0  0  0  0  0  0  0  0  0  0
   30.8660   28.4190   45.8410 C   0  0  0  0  0  0  0  0  0  0  0  0
   30.4220   29.8590   45.5970 C   0  0  0  0  0  0  0  0  0  0  0  0
   31.5860   30.7940   45.5280 C   0  0  0  0  0  0  0  0  0  0  0  0
   32.8700   30.0120   45.5960 C   0  0  0  0  0  0  0  0  0  0  0  0
   37.9270   33.0890   49.7280 C   0  0  0  0  0  0  0  0  0  0  0  0
   38.8250   33.2120   48.6710 C   0  0  0  0  0  0  0  0  0  0  0  0
   38.6980   32.3140   47.6340 C   0  0  0  0  0  0  0  0  0  0  0  0
   37.7150   31.3530   47.6810 N   0  0  0  0  0  0  0  0  0  0  0  0
   36.8660   31.2710   48.7260 C   0  0  0  0  0  0  0  0  0  0  0  0
   36.9880   32.1350   49.7230 N   0  0  0  0  0  0  0  0  0  0  0  0
   39.5660   32.3200   46.4620 C   0  0  0  0  0  0  0  0  0  0  0  0
   40.0740   31.1500   45.8900 C   0  0  0  0  0  0  0  0  0  0  0  0
   40.8590   31.4670   44.7990 C   0  0  0  0  0  0  0  0  0  0  0  0
   40.8160   32.8110   44.7260 N   0  0  0  0  0  0  0  0  0  0  0  0
   40.0610   33.2990   45.6980 N   0  0  0  0  0  0  0  0  0  0  0  0
   36.6667   29.2882   50.4743 H   0  0  0  0  0  0  0  0  0  0  0  0
   34.9180   27.4874   50.5329 H   0  0  0  0  0  0  0  0  0  0  0  0
   33.1563   27.5501   48.7607 H   0  0  0  0  0  0  0  0  0  0  0  0
   32.0905   27.3455   47.2553 H   0  0  0  0  0  0  0  0  0  0  0  0
   31.1862   28.7034   47.9650 H   0  0  0  0  0  0  0  0  0  0  0  0
   31.4340   28.0562   44.9717 H   0  0  0  0  0  0  0  0  0  0  0  0
   29.9838   27.7789   45.9895 H   0  0  0  0  0  0  0  0  0  0  0  0
   29.8709   29.9055   44.6461 H   0  0  0  0  0  0  0  0  0  0  0  0
   29.7845   30.1678   46.4386 H   0  0  0  0  0  0  0  0  0  0  0  0
   31.5409   31.4969   46.3729 H   0  0  0  0  0  0  0  0  0  0  0  0
   31.5492   31.3519   44.5807 H   0  0  0  0  0  0  0  0  0  0  0  0
   32.9379   29.3337   44.7327 H   0  0  0  0  0  0  0  0  0  0  0  0
   33.7308   30.6966   45.5769 H   0  0  0  0  0  0  0  0  0  0  0  0
   37.9900   33.7845   50.5779 H   0  0  0  0  0  0  0  0  0  0  0  0
   39.6012   33.9914   48.6643 H   0  0  0  0  0  0  0  0  0  0  0  0
   39.8780   30.1306   46.2540 H   0  0  0  0  0  0  0  0  0  0  0  0
   41.3996   30.7751   44.1364 H   0  0  0  0  0  0  0  0  0  0  0  0
   41.3009   33.3780   44.0159 H   0  0  0  0  0  0  0  0  0  0  0  0
  1  2  2  0
  2  3  1  0
  4  3  2  0
  5  6  2  0
  5  4  1  0
  6  1  1  0
  7  8  1  0
  7  5  1  0
  9  8  1  0
 10  9  1  0
 11 12  1  0
 11 10  1  0
 12  7  1  0
 14 13  2  0
 15 16  2  0
 15 14  1  0
 16 17  1  0
 17  1  1  0
 17 18  2  0
 18 13  1  0
 19 15  1  0
 20 19  1  0
 21 20  2  0
 22 21  1  0
 22 23  1  0
 23 19  2  0
  2 24  1  0
  3 25  1  0
  4 26  1  0
  8 27  1  0
  8 28  1  0
  9 29  1  0
  9 30  1  0
 10 31  1  0
 10 32  1  0
 11 33  1  0
 11 34  1  0
 12 35  1  0
 12 36  1  0
 13 37  1  0
 14 38  1  0
 20 39  1  0
 21 40  1  0
 22 41  1  0
M  ISO  8  24  14  25  14  26  14  27  13  28  13  29  13  30  13  31  13
M  ISO  8  32  13  33  13  34  13  35  13  36  13  37  14  38  14  39  14
M  ISO  2  40  14  41   9
M  END
>  <minimizedAffinity>  (1) 
-7.07244873

>  <minimizedRMSD>  (1) 
0.248910308

$$$$
