
     RDKit          3D

 38 40  0  0  0  0  0  0  0  0999 V2000
   37.6110   31.1520   49.1220 C   0  0  0  0  0  0  0  0  0  0  0  0
   37.8530   30.5450   50.3480 C   0  0  0  0  0  0  0  0  0  0  0  0
   37.0780   29.4760   50.7660 C   0  0  0  0  0  0  0  0  0  0  0  0
   36.0820   29.0710   49.9030 C   0  0  0  0  0  0  0  0  0  0  0  0
   35.8340   29.6690   48.6800 C   0  0  0  0  0  0  0  0  0  0  0  0
   36.6220   30.7110   48.3210 N   0  0  0  0  0  0  0  0  0  0  0  0
   34.7870   29.1690   47.8810 N   0  0  0  0  0  0  0  0  0  0  0  0
   33.8430   28.2570   48.4770 C   0  0  0  0  0  0  0  0  0  0  0  0
   32.9290   27.7810   47.3620 C   0  0  0  0  0  0  0  0  0  0  0  0
   32.2330   28.9790   46.7380 C   0  0  0  0  0  0  0  0  0  0  0  0
   33.1960   30.0350   46.3150 C   0  0  0  0  0  0  0  0  0  0  0  0
   34.6050   29.5220   46.4860 C   0  0  0  0  0  0  0  0  0  0  0  0
   39.6300   34.2100   49.2220 C   0  0  0  0  0  0  0  0  0  0  0  0
   40.0230   34.3800   47.8960 C   0  0  0  0  0  0  0  0  0  0  0  0
   39.5910   33.4380   46.9730 C   0  0  0  0  0  0  0  0  0  0  0  0
   38.8100   32.4110   47.4250 N   0  0  0  0  0  0  0  0  0  0  0  0
   38.4480   32.2770   48.7150 C   0  0  0  0  0  0  0  0  0  0  0  0
   38.8620   33.1790   49.5970 N   0  0  0  0  0  0  0  0  0  0  0  0
   40.6770   32.3870   45.0010 C   0  0  0  0  0  0  0  0  0  0  0  0
   41.2540   31.4860   45.6630 O   0  0  0  0  0  0  0  0  0  0  0  0
   39.8460   33.3770   45.5730 N   0  0  0  0  0  0  0  0  0  0  0  0
   38.6651   30.9157   50.9907 H   0  0  0  0  0  0  0  0  0  0  0  0
   37.2476   28.9781   51.7321 H   0  0  0  0  0  0  0  0  0  0  0  0
   35.4481   28.2239   50.2039 H   0  0  0  0  0  0  0  0  0  0  0  0
   34.3723   27.4024   48.9236 H   0  0  0  0  0  0  0  0  0  0  0  0
   33.2684   28.7496   49.2752 H   0  0  0  0  0  0  0  0  0  0  0  0
   33.5234   27.2612   46.5962 H   0  0  0  0  0  0  0  0  0  0  0  0
   32.1774   27.0898   47.7711 H   0  0  0  0  0  0  0  0  0  0  0  0
   31.6689   28.6408   45.8563 H   0  0  0  0  0  0  0  0  0  0  0  0
   31.5674   29.4150   47.4975 H   0  0  0  0  0  0  0  0  0  0  0  0
   33.0537   30.9321   46.9355 H   0  0  0  0  0  0  0  0  0  0  0  0
   33.0224   30.2908   45.2593 H   0  0  0  0  0  0  0  0  0  0  0  0
   34.7588   28.6354   45.8534 H   0  0  0  0  0  0  0  0  0  0  0  0
   35.3312   30.2930   46.1889 H   0  0  0  0  0  0  0  0  0  0  0  0
   39.9579   34.9390   49.9777 H   0  0  0  0  0  0  0  0  0  0  0  0
   40.6524   35.2294   47.5921 H   0  0  0  0  0  0  0  0  0  0  0  0
   40.8283   32.4054   43.9116 H   0  0  0  0  0  0  0  0  0  0  0  0
   39.4102   34.0779   44.9567 H   0  0  0  0  0  0  0  0  0  0  0  0
  1  2  2  0
  2  3  1  0
  4  3  2  0
  5  4  1  0
  6  5  2  0
  6  1  1  0
  7  8  1  0
  7  5  1  0
  9  8  1  0
 10  9  1  0
 11 12  1  0
 11 10  1  0
 12  7  1  0
 13 18  2  0
 14 13  1  0
 15 16  1  0
 15 14  2  0
 16 17  2  0
 17  1  1  0
 17 18  1  0
 19 21  1  0
 19 20  2  0
 21 15  1  0
  2 22  1  0
  3 23  1  0
  4 24  1  0
  8 25  1  0
  8 26  1  0
  9 27  1  0
  9 28  1  0
 10 29  1  0
 10 30  1  0
 11 31  1  0
 11 32  1  0
 12 33  1  0
 12 34  1  0
 13 35  1  0
 14 36  1  0
 19 37  1  0
 21 38  1  0
M  ISO  8  22  14  23  14  24  14  25  13  26  13  27  13  28  13  29  13
M  ISO  8  30  13  31  13  32  13  33  13  34  13  35  14  36  14  37   6
M  END
>  <minimizedAffinity>  (1) 
-6.68846846

>  <minimizedRMSD>  (1) 
2.05418372

$$$$
