
     RDKit          3D

 36 38  0  0  0  0  0  0  0  0999 V2000
   35.9910   30.3320   48.5600 C   0  0  0  0  0  0  0  0  0  0  0  0
   36.0120   29.3280   49.5120 C   0  0  0  0  0  0  0  0  0  0  0  0
   35.0510   28.3500   49.5430 C   0  0  0  0  0  0  0  0  0  0  0  0
   34.0620   28.4260   48.5650 C   0  0  0  0  0  0  0  0  0  0  0  0
   34.0290   29.4210   47.6090 C   0  0  0  0  0  0  0  0  0  0  0  0
   35.0100   30.3480   47.6470 N   0  0  0  0  0  0  0  0  0  0  0  0
   32.9870   29.4120   46.6640 N   0  0  0  0  0  0  0  0  0  0  0  0
   31.8450   28.5630   46.9030 C   0  0  0  0  0  0  0  0  0  0  0  0
   30.9420   28.6520   45.6920 C   0  0  0  0  0  0  0  0  0  0  0  0
   30.5320   30.1050   45.4700 C   0  0  0  0  0  0  0  0  0  0  0  0
   31.7080   31.0110   45.4150 C   0  0  0  0  0  0  0  0  0  0  0  0
   32.9790   30.2000   45.4580 C   0  0  0  0  0  0  0  0  0  0  0  0
   38.1430   33.0940   49.6310 C   0  0  0  0  0  0  0  0  0  0  0  0
   38.9950   33.2670   48.5390 C   0  0  0  0  0  0  0  0  0  0  0  0
   38.8180   32.4360   47.4550 C   0  0  0  0  0  0  0  0  0  0  0  0
   37.8350   31.4850   47.4770 N   0  0  0  0  0  0  0  0  0  0  0  0
   37.0260   31.3490   48.5620 C   0  0  0  0  0  0  0  0  0  0  0  0
   37.1970   32.1540   49.6110 N   0  0  0  0  0  0  0  0  0  0  0  0
   39.6510   32.5590   46.3100 N   0  0  0  0  0  0  0  0  0  0  0  0
   36.8176   29.3140   50.2608 H   0  0  0  0  0  0  0  0  0  0  0  0
   35.0607   27.5502   50.2981 H   0  0  0  0  0  0  0  0  0  0  0  0
   33.2729   27.6597   48.5541 H   0  0  0  0  0  0  0  0  0  0  0  0
   32.1750   27.5238   47.0483 H   0  0  0  0  0  0  0  0  0  0  0  0
   31.3084   28.8857   47.8074 H   0  0  0  0  0  0  0  0  0  0  0  0
   31.4792   28.2830   44.8059 H   0  0  0  0  0  0  0  0  0  0  0  0
   30.0441   28.0385   45.8578 H   0  0  0  0  0  0  0  0  0  0  0  0
   29.9822   30.1781   44.5200 H   0  0  0  0  0  0  0  0  0  0  0  0
   29.9029   30.4146   46.3175 H   0  0  0  0  0  0  0  0  0  0  0  0
   31.6822   31.6957   46.2755 H   0  0  0  0  0  0  0  0  0  0  0  0
   31.6776   31.5900   44.4802 H   0  0  0  0  0  0  0  0  0  0  0  0
   33.0235   29.5359   44.5823 H   0  0  0  0  0  0  0  0  0  0  0  0
   33.8507   30.8708   45.4443 H   0  0  0  0  0  0  0  0  0  0  0  0
   38.2527   33.7385   50.5157 H   0  0  0  0  0  0  0  0  0  0  0  0
   39.7789   34.0386   48.5440 H   0  0  0  0  0  0  0  0  0  0  0  0
   40.3930   33.2731   46.2872 H   0  0  0  0  0  0  0  0  0  0  0  0
   39.5127   31.9341   45.5030 H   0  0  0  0  0  0  0  0  0  0  0  0
  1 17  1  0
  1  2  2  0
  2  3  1  0
  4  3  2  0
  5  6  2  0
  5  4  1  0
  6  1  1  0
  7  8  1  0
  7  5  1  0
  9  8  1  0
 10  9  1  0
 11 12  1  0
 11 10  1  0
 12  7  1  0
 14 13  2  0
 15 16  2  0
 15 14  1  0
 16 17  1  0
 17 18  2  0
 18 13  1  0
 19 15  1  0
  2 20  1  0
  3 21  1  0
  4 22  1  0
  8 23  1  0
  8 24  1  0
  9 25  1  0
  9 26  1  0
 10 27  1  0
 10 28  1  0
 11 29  1  0
 11 30  1  0
 12 31  1  0
 12 32  1  0
 13 33  1  0
 14 34  1  0
 19 35  1  0
 19 36  1  0
M  ISO  8  20  14  21  14  22  14  23  13  24  13  25  13  26  13  27  13
M  ISO  7  28  13  29  13  30  13  31  13  32  13  33  14  34  14
M  END
>  <minimizedAffinity>  (1) 
-5.99119329

>  <minimizedRMSD>  (1) 
0.202207163

$$$$
