
     RDKit          3D

 30 32  0  0  1  0  0  0  0  0999 V2000
   38.1360   32.4610   47.9960 C   0  0  1  0  0  0  0  0  0  0  0  0
   39.3410   33.3740   47.7260 C   0  0  0  0  0  0  0  0  0  0  0  0
   39.3790   31.8940   47.4750 C   0  0  2  0  0  0  0  0  0  0  0  0
   41.4940   32.4490   45.5760 F   0  0  0  0  0  0  0  0  0  0  0  0
   40.5130   31.6210   45.1500 C   0  0  0  0  0  0  0  0  0  0  0  0
   39.5440   31.4070   46.1060 C   0  0  0  0  0  0  0  0  0  0  0  0
   38.4990   30.5590   45.7210 C   0  0  0  0  0  0  0  0  0  0  0  0
   38.4490   29.9790   44.4640 C   0  0  0  0  0  0  0  0  0  0  0  0
   39.4420   30.2200   43.5420 C   0  0  0  0  0  0  0  0  0  0  0  0
   40.4650   31.0510   43.9160 C   0  0  0  0  0  0  0  0  0  0  0  0
   37.7900   32.3880   49.4550 C   0  0  0  0  0  0  0  0  0  0  0  0
   36.2960   29.4370   51.2020 C   0  0  0  0  0  0  0  0  0  0  0  0
   37.1580   30.5360   50.9230 C   0  0  0  0  0  0  0  0  0  0  0  0
   36.8900   31.2370   49.7530 C   0  0  0  0  0  0  0  0  0  0  0  0
   35.8700   30.8760   48.9490 N   0  0  0  0  0  0  0  0  0  0  0  0
   35.0770   29.8130   49.2700 C   0  0  0  0  0  0  0  0  0  0  0  0
   35.3020   29.1130   50.3870 N   0  0  0  0  0  0  0  0  0  0  0  0
   37.0923   32.3435   47.6692 H   0  0  0  0  0  0  0  0  0  0  0  0
   39.3259   34.0813   46.8837 H   0  0  0  0  0  0  0  0  0  0  0  0
   39.9351   34.0941   48.3078 H   0  0  0  0  0  0  0  0  0  0  0  0
   39.9984   31.0490   47.8102 H   0  0  0  0  0  0  0  0  0  0  0  0
   37.6928   30.3467   46.4386 H   0  0  0  0  0  0  0  0  0  0  0  0
   37.6085   29.3202   44.2005 H   0  0  0  0  0  0  0  0  0  0  0  0
   39.4153   29.7624   42.5420 H   0  0  0  0  0  0  0  0  0  0  0  0
   41.2706   31.2633   43.1977 H   0  0  0  0  0  0  0  0  0  0  0  0
   38.7173   32.2747   50.0358 H   0  0  0  0  0  0  0  0  0  0  0  0
   37.2632   33.3141   49.7286 H   0  0  0  0  0  0  0  0  0  0  0  0
   36.4587   28.8439   52.1140 H   0  0  0  0  0  0  0  0  0  0  0  0
   37.9855   30.8132   51.5927 H   0  0  0  0  0  0  0  0  0  0  0  0
   34.2472   29.5300   48.6056 H   0  0  0  0  0  0  0  0  0  0  0  0
  1 11  1  0
  2  1  1  0
  3  2  1  0
  3  1  1  0
  5  4  1  0
  5  6  2  0
  6  3  1  0
  7  6  1  0
  8  7  2  0
  9 10  2  0
  9  8  1  0
 10  5  1  0
 11 14  1  0
 13 12  2  0
 14 13  1  0
 15 16  1  0
 15 14  2  0
 16 17  2  0
 17 12  1  0
  1 18  1  6
  2 19  1  0
  2 20  1  0
  3 21  1  1
  7 22  1  0
  8 23  1  0
  9 24  1  0
 10 25  1  0
 11 26  1  0
 11 27  1  0
 12 28  1  0
 13 29  1  0
 16 30  1  0
M  ISO  8  18  13  19  13  20  13  21  13  22  14  23  14  24  14  25  14
M  ISO  5  26   8  27   8  28  14  29  14  30  14
M  END
>  <minimizedAffinity>  (1) 
-5.60943079

>  <minimizedRMSD>  (1) 
1.63352311

$$$$
