
     RDKit          3D

 34 36  0  0  1  0  0  0  0  0999 V2000
   35.8800   29.6450   48.7910 N   0  0  0  0  0  0  0  0  0  0  0  0
   36.6800   28.8800   49.7220 C   0  0  0  0  0  0  0  0  0  0  0  0
   37.2070   29.5680   50.9010 C   0  0  0  0  0  0  0  0  0  0  0  0
   37.3970   31.0330   50.8400 C   0  0  0  0  0  0  0  0  0  0  0  0
   36.5920   31.7170   49.7790 C   0  0  0  0  0  0  0  0  0  0  0  0
   36.5770   30.8730   48.4990 C   0  0  1  0  0  0  0  0  0  0  0  0
   34.6180   29.2370   48.2620 C   0  0  0  0  0  0  0  0  0  0  0  0
   34.0780   29.7090   47.0690 C   0  0  0  0  0  0  0  0  0  0  0  0
   32.8350   29.2220   46.6760 C   0  0  0  0  0  0  0  0  0  0  0  0
   32.2160   28.3120   47.4810 N   0  0  0  0  0  0  0  0  0  0  0  0
   32.7720   27.8840   48.6260 C   0  0  0  0  0  0  0  0  0  0  0  0
   33.9750   28.3540   49.0080 N   0  0  0  0  0  0  0  0  0  0  0  0
   37.9280   30.6490   48.2230 O   0  0  0  0  0  0  0  0  0  0  0  0
   38.6740   31.2820   47.2450 C   0  0  0  0  0  0  0  0  0  0  0  0
   38.9160   30.5410   46.1270 C   0  0  0  0  0  0  0  0  0  0  0  0
   39.6510   31.0090   45.0320 C   0  0  0  0  0  0  0  0  0  0  0  0
   40.1230   32.2810   45.1520 N   0  0  0  0  0  0  0  0  0  0  0  0
   39.8760   32.9860   46.2510 C   0  0  0  0  0  0  0  0  0  0  0  0
   39.1670   32.5310   47.3040 N   0  0  0  0  0  0  0  0  0  0  0  0
   36.0577   28.0467   50.0803 H   0  0  0  0  0  0  0  0  0  0  0  0
   37.5737   28.5954   49.1473 H   0  0  0  0  0  0  0  0  0  0  0  0
   36.5144   29.3652   51.7312 H   0  0  0  0  0  0  0  0  0  0  0  0
   38.2266   29.1698   51.0102 H   0  0  0  0  0  0  0  0  0  0  0  0
   37.1136   31.4576   51.8144 H   0  0  0  0  0  0  0  0  0  0  0  0
   38.4547   31.2024   50.5900 H   0  0  0  0  0  0  0  0  0  0  0  0
   35.5607   31.8532   50.1365 H   0  0  0  0  0  0  0  0  0  0  0  0
   37.0454   32.6948   49.5589 H   0  0  0  0  0  0  0  0  0  0  0  0
   36.0734   31.3440   47.6420 H   0  0  0  0  0  0  0  0  0  0  0  0
   34.6178   30.4451   46.4551 H   0  0  0  0  0  0  0  0  0  0  0  0
   32.3647   29.5619   45.7415 H   0  0  0  0  0  0  0  0  0  0  0  0
   32.2447   27.1492   49.2522 H   0  0  0  0  0  0  0  0  0  0  0  0
   38.5114   29.5191   46.0830 H   0  0  0  0  0  0  0  0  0  0  0  0
   39.8344   30.3939   44.1387 H   0  0  0  0  0  0  0  0  0  0  0  0
   40.2766   34.0090   46.3054 H   0  0  0  0  0  0  0  0  0  0  0  0
  1  2  1  0
  2  3  1  0
  4  3  1  0
  5  4  1  0
  6  1  1  0
  6  5  1  0
  7  1  1  0
  7 12  1  0
  8  7  2  0
  9  8  1  0
  9 10  2  0
 10 11  1  0
 11 12  2  0
 13  6  1  0
 14 19  1  0
 14 13  1  0
 15 14  2  0
 16 17  2  0
 16 15  1  0
 17 18  1  0
 18 19  2  0
  2 20  1  0
  2 21  1  0
  3 22  1  0
  3 23  1  0
  4 24  1  0
  4 25  1  0
  5 26  1  0
  5 27  1  0
  6 28  1  6
  8 29  1  0
  9 30  1  0
 11 31  1  0
 15 32  1  0
 16 33  1  0
 18 34  1  0
M  ISO  8  20  13  21  13  22  13  23  13  24  13  25  13  26  13  27  13
M  ISO  7  28  13  29  14  30  14  31  14  32  14  33  14  34  14
M  END
>  <minimizedAffinity>  (1) 
-5.65847015

>  <minimizedRMSD>  (1) 
0.771418571

$$$$
