
     RDKit          3D

 32 33  0  0  1  0  0  0  0  0999 V2000
   35.7970   29.5350   48.8480 N   0  0  0  0  0  0  0  0  0  0  0  0
   36.5300   28.7850   49.8390 C   0  0  0  0  0  0  0  0  0  0  0  0
   37.0310   29.5110   51.0170 C   0  0  0  0  0  0  0  0  0  0  0  0
   37.2950   30.9590   50.8930 C   0  0  0  0  0  0  0  0  0  0  0  0
   36.5580   31.6260   49.7690 C   0  0  0  0  0  0  0  0  0  0  0  0
   36.5710   30.7300   48.5320 C   0  0  1  0  0  0  0  0  0  0  0  0
   34.5370   29.1660   48.2850 C   0  0  0  0  0  0  0  0  0  0  0  0
   34.0360   29.6760   47.0910 C   0  0  0  0  0  0  0  0  0  0  0  0
   32.7960   29.2310   46.6590 C   0  0  0  0  0  0  0  0  0  0  0  0
   32.1400   28.3140   47.4310 N   0  0  0  0  0  0  0  0  0  0  0  0
   32.6630   27.8510   48.5710 C   0  0  0  0  0  0  0  0  0  0  0  0
   33.8630   28.2790   48.9970 N   0  0  0  0  0  0  0  0  0  0  0  0
   37.9150   30.4180   48.3210 O   0  0  0  0  0  0  0  0  0  0  0  0
   38.4040   30.8360   47.1080 C   0  0  0  0  0  0  0  0  0  0  0  0
   39.0540   32.2010   47.1830 C   0  0  0  0  0  0  0  0  0  0  0  0
   35.8666   27.9868   50.2033 H   0  0  0  0  0  0  0  0  0  0  0  0
   37.4366   28.4469   49.3158 H   0  0  0  0  0  0  0  0  0  0  0  0
   36.2871   29.3840   51.8173 H   0  0  0  0  0  0  0  0  0  0  0  0
   38.0222   29.0716   51.2026 H   0  0  0  0  0  0  0  0  0  0  0  0
   37.0003   31.4450   51.8348 H   0  0  0  0  0  0  0  0  0  0  0  0
   38.3677   31.0665   50.6745 H   0  0  0  0  0  0  0  0  0  0  0  0
   35.5175   31.8105   50.0744 H   0  0  0  0  0  0  0  0  0  0  0  0
   37.0509   32.5797   49.5295 H   0  0  0  0  0  0  0  0  0  0  0  0
   36.1372   31.1973   47.6357 H   0  0  0  0  0  0  0  0  0  0  0  0
   34.6078   30.4116   46.5063 H   0  0  0  0  0  0  0  0  0  0  0  0
   32.3539   29.6046   45.7236 H   0  0  0  0  0  0  0  0  0  0  0  0
   32.1054   27.1126   49.1658 H   0  0  0  0  0  0  0  0  0  0  0  0
   37.5726   30.8804   46.3891 H   0  0  0  0  0  0  0  0  0  0  0  0
   39.1740   30.1165   46.7927 H   0  0  0  0  0  0  0  0  0  0  0  0
   39.1894   32.4852   48.2370 H   0  0  0  0  0  0  0  0  0  0  0  0
   40.0334   32.1687   46.6833 H   0  0  0  0  0  0  0  0  0  0  0  0
   38.4116   32.9410   46.6833 H   0  0  0  0  0  0  0  0  0  0  0  0
  1  2  1  0
  2  3  1  0
  4  3  1  0
  5  4  1  0
  6  1  1  0
  6  5  1  0
  7  1  1  0
  7 12  1  0
  8  7  2  0
  9  8  1  0
  9 10  2  0
 10 11  1  0
 11 12  2  0
 13  6  1  0
 14 15  1  0
 14 13  1  0
  2 16  1  0
  2 17  1  0
  3 18  1  0
  3 19  1  0
  4 20  1  0
  4 21  1  0
  5 22  1  0
  5 23  1  0
  6 24  1  6
  8 25  1  0
  9 26  1  0
 11 27  1  0
 14 28  1  0
 14 29  1  0
 15 30  1  0
 15 31  1  0
 15 32  1  0
M  ISO  8  16  13  17  13  18  13  19  13  20  13  21  13  22  13  23  13
M  ISO  8  24  13  25  14  26  14  27  14  28   8  29   8  30   8  31   8
M  ISO  1  32   8
M  END
>  <minimizedAffinity>  (1) 
-4.65852976

>  <minimizedRMSD>  (1) 
0.494412094

$$$$
