
     RDKit          3D

 30 32  0  0  1  0  0  0  0  0999 V2000
   38.5960   32.5030   47.2970 C   0  0  1  0  0  0  0  0  0  0  0  0
   39.8340   33.1780   46.6680 C   0  0  0  0  0  0  0  0  0  0  0  0
   39.5490   31.7210   46.5170 C   0  0  2  0  0  0  0  0  0  0  0  0
   36.7130   30.4660   45.6040 Br  0  0  0  0  0  0  0  0  0  0  0  0
   38.3110   30.4770   44.6160 C   0  0  0  0  0  0  0  0  0  0  0  0
   39.3860   31.0710   45.2370 C   0  0  0  0  0  0  0  0  0  0  0  0
   40.5620   31.0470   44.4600 C   0  0  0  0  0  0  0  0  0  0  0  0
   40.6290   30.4920   43.2180 C   0  0  0  0  0  0  0  0  0  0  0  0
   39.5280   29.9220   42.6660 C   0  0  0  0  0  0  0  0  0  0  0  0
   38.3600   29.9100   43.3600 C   0  0  0  0  0  0  0  0  0  0  0  0
   38.6330   32.5390   48.8070 C   0  0  0  0  0  0  0  0  0  0  0  0
   37.3280   29.8800   51.0740 C   0  0  0  0  0  0  0  0  0  0  0  0
   38.1930   30.8130   50.4730 C   0  0  0  0  0  0  0  0  0  0  0  0
   37.7110   31.5680   49.4220 C   0  0  0  0  0  0  0  0  0  0  0  0
   36.4480   31.3790   49.0240 N   0  0  0  0  0  0  0  0  0  0  0  0
   35.6250   30.4800   49.6060 C   0  0  0  0  0  0  0  0  0  0  0  0
   36.0760   29.7390   50.6280 N   0  0  0  0  0  0  0  0  0  0  0  0
   37.4982   32.5587   47.2545 H   0  0  0  0  0  0  0  0  0  0  0  0
   39.7222   33.8592   45.8116 H   0  0  0  0  0  0  0  0  0  0  0  0
   40.6744   33.7880   47.0308 H   0  0  0  0  0  0  0  0  0  0  0  0
   40.0617   30.7737   46.7399 H   0  0  0  0  0  0  0  0  0  0  0  0
   41.4728   31.5000   44.8785 H   0  0  0  0  0  0  0  0  0  0  0  0
   41.5775   30.5058   42.6611 H   0  0  0  0  0  0  0  0  0  0  0  0
   39.5809   29.4727   41.6633 H   0  0  0  0  0  0  0  0  0  0  0  0
   37.4605   29.4515   42.9233 H   0  0  0  0  0  0  0  0  0  0  0  0
   39.6566   32.3115   49.1394 H   0  0  0  0  0  0  0  0  0  0  0  0
   38.3163   33.5439   49.1231 H   0  0  0  0  0  0  0  0  0  0  0  0
   37.6834   29.2646   51.9137 H   0  0  0  0  0  0  0  0  0  0  0  0
   39.2257   30.9376   50.8308 H   0  0  0  0  0  0  0  0  0  0  0  0
   34.5934   30.3569   49.2444 H   0  0  0  0  0  0  0  0  0  0  0  0
  1 11  1  0
  2  1  1  0
  3  2  1  0
  3  1  1  0
  5  6  2  0
  5  4  1  0
  6  3  1  0
  7  6  1  0
  8  7  2  0
  9  8  1  0
  9 10  2  0
 10  5  1  0
 11 14  1  0
 13 12  2  0
 14 13  1  0
 15 14  2  0
 15 16  1  0
 16 17  2  0
 17 12  1  0
  1 18  1  6
  2 19  1  0
  2 20  1  0
  3 21  1  1
  7 22  1  0
  8 23  1  0
  9 24  1  0
 10 25  1  0
 11 26  1  0
 11 27  1  0
 12 28  1  0
 13 29  1  0
 16 30  1  0
M  ISO  8  18  13  19  13  20  13  21  13  22  14  23  14  24  14  25  14
M  ISO  5  26   8  27   8  28  14  29  14  30  14
M  END
>  <minimizedAffinity>  (1) 
-5.31520796

>  <minimizedRMSD>  (1) 
1.18539703

$$$$
