
     RDKit          3D

 34 36  0  0  0  0  0  0  0  0999 V2000
   38.4340   30.9820   47.0580 F   0  0  0  0  0  0  0  0  0  0  0  0
   38.8220   32.1060   47.7060 C   0  0  0  0  0  0  0  0  0  0  0  0
   38.3780   32.3290   48.9720 C   0  0  0  0  0  0  0  0  0  0  0  0
   38.8040   33.4860   49.5810 C   0  0  0  0  0  0  0  0  0  0  0  0
   39.6390   34.3850   48.9530 C   0  0  0  0  0  0  0  0  0  0  0  0
   40.0680   34.1280   47.6690 C   0  0  0  0  0  0  0  0  0  0  0  0
   39.6540   32.9780   47.0460 C   0  0  0  0  0  0  0  0  0  0  0  0
   37.0620   29.5940   51.2480 C   0  0  0  0  0  0  0  0  0  0  0  0
   37.9000   30.5390   50.6570 C   0  0  0  0  0  0  0  0  0  0  0  0
   37.5010   31.3470   49.5840 C   0  0  0  0  0  0  0  0  0  0  0  0
   36.2400   31.1460   49.1620 N   0  0  0  0  0  0  0  0  0  0  0  0
   35.4230   30.2370   49.7260 C   0  0  0  0  0  0  0  0  0  0  0  0
   35.8260   29.4750   50.7500 N   0  0  0  0  0  0  0  0  0  0  0  0
   40.1400   32.7830   45.7220 N   0  0  0  0  0  0  0  0  0  0  0  0
   39.9840   33.6360   44.5720 C   0  0  0  0  0  0  0  0  0  0  0  0
   39.2150   32.8550   43.5330 C   0  0  0  0  0  0  0  0  0  0  0  0
   39.8840   31.6630   43.1690 N   0  0  0  0  0  0  0  0  0  0  0  0
   40.3880   30.8490   44.2260 C   0  0  0  0  0  0  0  0  0  0  0  0
   40.8910   31.6130   45.4180 C   0  0  0  0  0  0  0  0  0  0  0  0
   38.4665   33.7017   50.6055 H   0  0  0  0  0  0  0  0  0  0  0  0
   39.9602   35.2999   49.4724 H   0  0  0  0  0  0  0  0  0  0  0  0
   40.7329   34.8348   47.1510 H   0  0  0  0  0  0  0  0  0  0  0  0
   37.4031   28.9722   52.0888 H   0  0  0  0  0  0  0  0  0  0  0  0
   38.9204   30.6554   51.0510 H   0  0  0  0  0  0  0  0  0  0  0  0
   34.4012   30.1177   49.3366 H   0  0  0  0  0  0  0  0  0  0  0  0
   39.4270   34.5431   44.8492 H   0  0  0  0  0  0  0  0  0  0  0  0
   40.9647   33.9438   44.1801 H   0  0  0  0  0  0  0  0  0  0  0  0
   38.2263   32.5979   43.9408 H   0  0  0  0  0  0  0  0  0  0  0  0
   39.1216   33.4823   42.6342 H   0  0  0  0  0  0  0  0  0  0  0  0
   39.2227   31.0903   42.6254 H   0  0  0  0  0  0  0  0  0  0  0  0
   39.5795   30.1829   44.5616 H   0  0  0  0  0  0  0  0  0  0  0  0
   41.2523   30.3057   43.8163 H   0  0  0  0  0  0  0  0  0  0  0  0
   40.8601   30.9466   46.2926 H   0  0  0  0  0  0  0  0  0  0  0  0
   41.9096   31.9472   45.1716 H   0  0  0  0  0  0  0  0  0  0  0  0
  1  2  1  0
  2  3  2  0
  3  4  1  0
  3 10  1  0
  5  4  2  0
  6  5  1  0
  7  6  2  0
  7  2  1  0
  9  8  2  0
 10  9  1  0
 11 10  2  0
 11 12  1  0
 12 13  2  0
 13  8  1  0
 14  7  1  0
 15 14  1  0
 16 15  1  0
 17 16  1  0
 17 18  1  0
 18 19  1  0
 19 14  1  0
  4 20  1  0
  5 21  1  0
  6 22  1  0
  8 23  1  0
  9 24  1  0
 12 25  1  0
 15 26  1  0
 15 27  1  0
 16 28  1  0
 16 29  1  0
 17 30  1  0
 18 31  1  0
 18 32  1  0
 19 33  1  0
 19 34  1  0
M  ISO  8  20  14  21  14  22  14  23  14  24  14  25  14  26  13  27  13
M  ISO  7  28  13  29  13  30   5  31  13  32  13  33  13  34  13
M  END
>  <minimizedAffinity>  (1) 
-6.76721048

>  <minimizedRMSD>  (1) 
0.481216162

$$$$
