
     RDKit          3D

 27 29  0  0  0  0  0  0  0  0999 V2000
   38.1800   30.5270   47.3130 F   0  0  0  0  0  0  0  0  0  0  0  0
   38.5480   31.7130   47.8670 C   0  0  0  0  0  0  0  0  0  0  0  0
   38.0760   32.0420   49.1100 C   0  0  0  0  0  0  0  0  0  0  0  0
   38.4850   33.2490   49.6070 C   0  0  0  0  0  0  0  0  0  0  0  0
   39.3230   34.1000   48.9150 C   0  0  0  0  0  0  0  0  0  0  0  0
   39.7790   33.7380   47.6650 C   0  0  0  0  0  0  0  0  0  0  0  0
   39.3800   32.5190   47.1340 C   0  0  0  0  0  0  0  0  0  0  0  0
   36.7010   29.5120   51.5480 C   0  0  0  0  0  0  0  0  0  0  0  0
   37.5800   30.3980   50.9210 C   0  0  0  0  0  0  0  0  0  0  0  0
   37.1960   31.1080   49.7970 C   0  0  0  0  0  0  0  0  0  0  0  0
   35.9250   30.8940   49.3460 N   0  0  0  0  0  0  0  0  0  0  0  0
   35.0930   30.0350   49.9660 C   0  0  0  0  0  0  0  0  0  0  0  0
   35.4650   29.3530   51.0460 N   0  0  0  0  0  0  0  0  0  0  0  0
   39.8380   32.0850   45.8070 C   0  0  0  0  0  0  0  0  0  0  0  0
   39.4470   32.6870   44.6170 C   0  0  0  0  0  0  0  0  0  0  0  0
   40.1160   31.9530   43.6670 C   0  0  0  0  0  0  0  0  0  0  0  0
   40.8600   30.9790   44.2180 N   0  0  0  0  0  0  0  0  0  0  0  0
   40.6940   31.0530   45.5470 N   0  0  0  0  0  0  0  0  0  0  0  0
   38.1304   33.5550   50.6023 H   0  0  0  0  0  0  0  0  0  0  0  0
   39.6251   35.0606   49.3578 H   0  0  0  0  0  0  0  0  0  0  0  0
   40.4471   34.4034   47.0986 H   0  0  0  0  0  0  0  0  0  0  0  0
   37.0164   28.9520   52.4407 H   0  0  0  0  0  0  0  0  0  0  0  0
   38.5933   30.5335   51.3270 H   0  0  0  0  0  0  0  0  0  0  0  0
   34.0773   29.8934   49.5681 H   0  0  0  0  0  0  0  0  0  0  0  0
   38.7689   33.5408   44.4713 H   0  0  0  0  0  0  0  0  0  0  0  0
   40.0503   32.1404   42.5851 H   0  0  0  0  0  0  0  0  0  0  0  0
   41.4487   30.3011   43.7133 H   0  0  0  0  0  0  0  0  0  0  0  0
  1  2  1  0
  2  3  2  0
  3  4  1  0
  3 10  1  0
  5  4  2  0
  6  5  1  0
  7  6  2  0
  7  2  1  0
  9  8  2  0
 10  9  1  0
 11 10  2  0
 11 12  1  0
 12 13  2  0
 13  8  1  0
 14  7  1  0
 15 14  1  0
 16 17  1  0
 16 15  2  0
 17 18  1  0
 18 14  2  0
  4 19  1  0
  5 20  1  0
  6 21  1  0
  8 22  1  0
  9 23  1  0
 12 24  1  0
 15 25  1  0
 16 26  1  0
 17 27  1  0
M  ISO  8  19  14  20  14  21  14  22  14  23  14  24  14  25  14  26  14
M  ISO  1  27   9
M  END
>  <minimizedAffinity>  (1) 
-6.6811924

>  <minimizedRMSD>  (1) 
0.505297244

$$$$
