
     RDKit          3D

 32 34  0  0  0  0  0  0  0  0999 V2000
   38.4540   30.7520   47.2120 F   0  0  0  0  0  0  0  0  0  0  0  0
   38.7880   31.9190   47.7900 C   0  0  0  0  0  0  0  0  0  0  0  0
   38.2940   32.2120   49.0190 C   0  0  0  0  0  0  0  0  0  0  0  0
   38.6640   33.4240   49.5810 C   0  0  0  0  0  0  0  0  0  0  0  0
   39.5010   34.3000   48.9110 C   0  0  0  0  0  0  0  0  0  0  0  0
   39.9800   33.9720   47.6730 C   0  0  0  0  0  0  0  0  0  0  0  0
   39.6200   32.7700   47.1050 C   0  0  0  0  0  0  0  0  0  0  0  0
   36.9370   29.5680   51.3660 C   0  0  0  0  0  0  0  0  0  0  0  0
   37.8150   30.4800   50.7700 C   0  0  0  0  0  0  0  0  0  0  0  0
   37.4160   31.2490   49.6730 C   0  0  0  0  0  0  0  0  0  0  0  0
   36.1400   31.0480   49.2360 N   0  0  0  0  0  0  0  0  0  0  0  0
   35.3170   30.1650   49.8270 C   0  0  0  0  0  0  0  0  0  0  0  0
   35.7100   29.4360   50.8750 N   0  0  0  0  0  0  0  0  0  0  0  0
   40.1540   32.4890   45.8140 N   0  0  0  0  0  0  0  0  0  0  0  0
   39.9170   33.2110   44.5800 C   0  0  0  0  0  0  0  0  0  0  0  0
   39.7770   32.1940   43.4690 C   0  0  0  0  0  0  0  0  0  0  0  0
   40.1160   30.9050   44.1860 C   0  0  0  0  0  0  0  0  0  0  0  0
   41.0430   31.4940   45.2580 C   0  0  0  0  0  0  0  0  0  0  0  0
   38.2856   33.6948   50.5777 H   0  0  0  0  0  0  0  0  0  0  0  0
   39.7801   35.2581   49.3738 H   0  0  0  0  0  0  0  0  0  0  0  0
   40.6470   34.6620   47.1354 H   0  0  0  0  0  0  0  0  0  0  0  0
   37.2588   28.9681   52.2300 H   0  0  0  0  0  0  0  0  0  0  0  0
   38.8333   30.5934   51.1702 H   0  0  0  0  0  0  0  0  0  0  0  0
   34.2956   30.0397   49.4385 H   0  0  0  0  0  0  0  0  0  0  0  0
   38.9936   33.8028   44.6641 H   0  0  0  0  0  0  0  0  0  0  0  0
   40.7507   33.8972   44.3700 H   0  0  0  0  0  0  0  0  0  0  0  0
   40.4838   32.3950   42.6504 H   0  0  0  0  0  0  0  0  0  0  0  0
   38.7868   32.1906   42.9899 H   0  0  0  0  0  0  0  0  0  0  0  0
   39.2276   30.4246   44.6218 H   0  0  0  0  0  0  0  0  0  0  0  0
   40.5443   30.1051   43.5642 H   0  0  0  0  0  0  0  0  0  0  0  0
   41.3376   30.7423   46.0051 H   0  0  0  0  0  0  0  0  0  0  0  0
   42.0055   31.8773   44.8884 H   0  0  0  0  0  0  0  0  0  0  0  0
  1  2  1  0
  2  3  2  0
  3  4  1  0
  3 10  1  0
  5  4  2  0
  6  5  1  0
  7  6  2  0
  7  2  1  0
  9  8  2  0
 10  9  1  0
 11 10  2  0
 11 12  1  0
 12 13  2  0
 13  8  1  0
 14  7  1  0
 15 14  1  0
 16 17  1  0
 16 15  1  0
 17 18  1  0
 18 14  1  0
  4 19  1  0
  5 20  1  0
  6 21  1  0
  8 22  1  0
  9 23  1  0
 12 24  1  0
 15 25  1  0
 15 26  1  0
 16 27  1  0
 16 28  1  0
 17 29  1  0
 17 30  1  0
 18 31  1  0
 18 32  1  0
M  ISO  8  19  14  20  14  21  14  22  14  23  14  24  14  25  13  26  13
M  ISO  6  27  13  28  13  29  13  30  13  31  13  32  13
M  END
>  <minimizedAffinity>  (1) 
-6.60672712

>  <minimizedRMSD>  (1) 
0.184186295

$$$$
