
     RDKit          3D

 30 32  0  0  0  0  0  0  0  0999 V2000
   37.5840   29.8880   46.8630 F   0  0  0  0  0  0  0  0  0  0  0  0
   38.1850   31.0430   47.2560 C   0  0  0  0  0  0  0  0  0  0  0  0
   37.9260   31.5450   48.5080 C   0  0  0  0  0  0  0  0  0  0  0  0
   38.5600   32.7110   48.8520 C   0  0  0  0  0  0  0  0  0  0  0  0
   39.4180   33.3570   47.9830 C   0  0  0  0  0  0  0  0  0  0  0  0
   39.6630   32.8410   46.7370 C   0  0  0  0  0  0  0  0  0  0  0  0
   39.0350   31.6710   46.3800 C   0  0  0  0  0  0  0  0  0  0  0  0
   36.5430   29.4740   51.3640 C   0  0  0  0  0  0  0  0  0  0  0  0
   37.4210   30.1800   50.5400 C   0  0  0  0  0  0  0  0  0  0  0  0
   37.0130   30.8090   49.3630 C   0  0  0  0  0  0  0  0  0  0  0  0
   35.6950   30.6870   49.0710 N   0  0  0  0  0  0  0  0  0  0  0  0
   34.8540   30.0070   49.8650 C   0  0  0  0  0  0  0  0  0  0  0  0
   35.2580   29.4080   50.9910 N   0  0  0  0  0  0  0  0  0  0  0  0
   40.0620   33.8640   44.4710 Br  0  0  0  0  0  0  0  0  0  0  0  0
   39.7790   32.0080   44.0760 C   0  0  0  0  0  0  0  0  0  0  0  0
   39.3100   31.1350   45.0440 C   0  0  0  0  0  0  0  0  0  0  0  0
   39.1010   29.7820   44.7630 C   0  0  0  0  0  0  0  0  0  0  0  0
   39.3720   29.2990   43.4790 C   0  0  0  0  0  0  0  0  0  0  0  0
   39.8440   30.1680   42.5000 C   0  0  0  0  0  0  0  0  0  0  0  0
   40.0410   31.5070   42.8090 C   0  0  0  0  0  0  0  0  0  0  0  0
   38.3806   33.1440   49.8472 H   0  0  0  0  0  0  0  0  0  0  0  0
   39.9079   34.2918   48.2931 H   0  0  0  0  0  0  0  0  0  0  0  0
   40.3450   33.3502   46.0401 H   0  0  0  0  0  0  0  0  0  0  0  0
   36.8937   28.9890   52.2869 H   0  0  0  0  0  0  0  0  0  0  0  0
   38.4800   30.2433   50.8309 H   0  0  0  0  0  0  0  0  0  0  0  0
   33.7938   29.9395   49.5798 H   0  0  0  0  0  0  0  0  0  0  0  0
   38.7270   29.1038   45.5441 H   0  0  0  0  0  0  0  0  0  0  0  0
   39.2127   28.2363   43.2438 H   0  0  0  0  0  0  0  0  0  0  0  0
   40.0597   29.7962   41.4875 H   0  0  0  0  0  0  0  0  0  0  0  0
   40.4142   32.1878   42.0298 H   0  0  0  0  0  0  0  0  0  0  0  0
  1  2  1  0
  2  3  2  0
  3  4  1  0
  3 10  1  0
  5  4  2  0
  6  5  1  0
  7  6  2  0
  7  2  1  0
  9  8  2  0
 10  9  1  0
 11 10  2  0
 11 12  1  0
 12 13  2  0
 13  8  1  0
 15 14  1  0
 15 16  2  0
 16  7  1  0
 17 16  1  0
 18 17  2  0
 19 20  2  0
 19 18  1  0
 20 15  1  0
  4 21  1  0
  5 22  1  0
  6 23  1  0
  8 24  1  0
  9 25  1  0
 12 26  1  0
 17 27  1  0
 18 28  1  0
 19 29  1  0
 20 30  1  0
M  ISO  8  21  14  22  14  23  14  24  14  25  14  26  14  27  14  28  14
M  ISO  2  29  14  30  14
M  END
>  <minimizedAffinity>  (1) 
-6.19913864

>  <minimizedRMSD>  (1) 
1.32111406

$$$$
