
     RDKit          3D

 26 27  0  0  0  0  0  0  0  0999 V2000
   38.4430   30.6930   47.2010 F   0  0  0  0  0  0  0  0  0  0  0  0
   38.7830   31.8730   47.7530 C   0  0  0  0  0  0  0  0  0  0  0  0
   38.3130   32.1890   48.9880 C   0  0  0  0  0  0  0  0  0  0  0  0
   38.7010   33.4160   49.5080 C   0  0  0  0  0  0  0  0  0  0  0  0
   39.5230   34.2890   48.8280 C   0  0  0  0  0  0  0  0  0  0  0  0
   39.9840   33.9430   47.5810 C   0  0  0  0  0  0  0  0  0  0  0  0
   39.6110   32.7190   47.0320 C   0  0  0  0  0  0  0  0  0  0  0  0
   36.9980   29.6030   51.4130 C   0  0  0  0  0  0  0  0  0  0  0  0
   37.8500   30.5090   50.7740 C   0  0  0  0  0  0  0  0  0  0  0  0
   37.4440   31.2390   49.6720 C   0  0  0  0  0  0  0  0  0  0  0  0
   36.1710   31.0310   49.2400 N   0  0  0  0  0  0  0  0  0  0  0  0
   35.3550   30.1540   49.8630 C   0  0  0  0  0  0  0  0  0  0  0  0
   35.7580   29.4590   50.9200 N   0  0  0  0  0  0  0  0  0  0  0  0
   40.1250   32.3970   45.6910 C   0  0  0  0  0  0  0  0  0  0  0  0
   40.0170   33.5490   44.7140 C   0  0  0  0  0  0  0  0  0  0  0  0
   38.3370   33.7041   50.5053 H   0  0  0  0  0  0  0  0  0  0  0  0
   39.8065   35.2516   49.2787 H   0  0  0  0  0  0  0  0  0  0  0  0
   40.6409   34.6257   47.0221 H   0  0  0  0  0  0  0  0  0  0  0  0
   37.3324   29.0283   52.2893 H   0  0  0  0  0  0  0  0  0  0  0  0
   38.8716   30.6448   51.1586 H   0  0  0  0  0  0  0  0  0  0  0  0
   34.3316   30.0119   49.4857 H   0  0  0  0  0  0  0  0  0  0  0  0
   41.1843   32.1148   45.7819 H   0  0  0  0  0  0  0  0  0  0  0  0
   39.5090   31.5761   45.2951 H   0  0  0  0  0  0  0  0  0  0  0  0
   39.9284   34.4941   45.2698 H   0  0  0  0  0  0  0  0  0  0  0  0
   40.9163   33.5787   44.0812 H   0  0  0  0  0  0  0  0  0  0  0  0
   39.1279   33.4110   44.0812 H   0  0  0  0  0  0  0  0  0  0  0  0
  1  2  1  0
  2  3  2  0
  3  4  1  0
  3 10  1  0
  5  4  2  0
  6  5  1  0
  7  6  2  0
  7  2  1  0
  9  8  2  0
 10  9  1  0
 11 10  2  0
 11 12  1  0
 12 13  2  0
 13  8  1  0
 14  7  1  0
 15 14  1  0
  4 16  1  0
  5 17  1  0
  6 18  1  0
  8 19  1  0
  9 20  1  0
 12 21  1  0
 14 22  1  0
 14 23  1  0
 15 24  1  0
 15 25  1  0
 15 26  1  0
M  ISO  8  16  14  17  14  18  14  19  14  20  14  21  14  22   8  23   8
M  ISO  3  24   8  25   8  26   8
M  END
>  <minimizedAffinity>  (1) 
-5.99319077

>  <minimizedRMSD>  (1) 
0.621540606

$$$$
