
     RDKit          3D

 23 24  0  0  0  0  0  0  0  0999 V2000
   38.4630   30.7140   47.1650 F   0  0  0  0  0  0  0  0  0  0  0  0
   38.8090   31.9020   47.7250 C   0  0  0  0  0  0  0  0  0  0  0  0
   38.3460   32.2140   48.9700 C   0  0  0  0  0  0  0  0  0  0  0  0
   38.7300   33.4280   49.4820 C   0  0  0  0  0  0  0  0  0  0  0  0
   39.5420   34.3050   48.7900 C   0  0  0  0  0  0  0  0  0  0  0  0
   39.9910   33.9520   47.5290 C   0  0  0  0  0  0  0  0  0  0  0  0
   39.6180   32.7310   46.9900 C   0  0  0  0  0  0  0  0  0  0  0  0
   37.0780   29.6020   51.3970 C   0  0  0  0  0  0  0  0  0  0  0  0
   37.9000   30.5170   50.7450 C   0  0  0  0  0  0  0  0  0  0  0  0
   37.4960   31.2590   49.6540 C   0  0  0  0  0  0  0  0  0  0  0  0
   36.2130   31.0380   49.2380 N   0  0  0  0  0  0  0  0  0  0  0  0
   35.4120   30.1490   49.8700 C   0  0  0  0  0  0  0  0  0  0  0  0
   35.8290   29.4470   50.9210 N   0  0  0  0  0  0  0  0  0  0  0  0
   40.0810   32.3160   45.6370 C   0  0  0  0  0  0  0  0  0  0  0  0
   38.3769   33.7140   50.4837 H   0  0  0  0  0  0  0  0  0  0  0  0
   39.8278   35.2698   49.2343 H   0  0  0  0  0  0  0  0  0  0  0  0
   40.6385   34.6350   46.9595 H   0  0  0  0  0  0  0  0  0  0  0  0
   37.4349   29.0292   52.2657 H   0  0  0  0  0  0  0  0  0  0  0  0
   38.9251   30.6557   51.1191 H   0  0  0  0  0  0  0  0  0  0  0  0
   34.3851   30.0021   49.5040 H   0  0  0  0  0  0  0  0  0  0  0  0
   40.8967   31.5848   45.7369 H   0  0  0  0  0  0  0  0  0  0  0  0
   39.2447   31.8595   45.0873 H   0  0  0  0  0  0  0  0  0  0  0  0
   40.4436   33.1971   45.0873 H   0  0  0  0  0  0  0  0  0  0  0  0
  1  2  1  0
  2  3  2  0
  3  4  1  0
  3 10  1  0
  5  4  2  0
  6  5  1  0
  7  6  2  0
  7  2  1  0
  9  8  2  0
 10  9  1  0
 11 10  2  0
 11 12  1  0
 12 13  2  0
 13  8  1  0
 14  7  1  0
  4 15  1  0
  5 16  1  0
  6 17  1  0
  8 18  1  0
  9 19  1  0
 12 20  1  0
 14 21  1  0
 14 22  1  0
 14 23  1  0
M  ISO  8  15  14  16  14  17  14  18  14  19  14  20  14  21   8  22   8
M  ISO  1  23   8
M  END
>  <minimizedAffinity>  (1) 
-5.76764631

>  <minimizedRMSD>  (1) 
0.0421991944

$$$$
