
     RDKit          3D

 22 23  0  0  0  0  0  0  0  0999 V2000
   38.3830   30.7140   47.1560 F   0  0  0  0  0  0  0  0  0  0  0  0
   38.7530   31.8920   47.7280 C   0  0  0  0  0  0  0  0  0  0  0  0
   38.3240   32.1930   48.9790 C   0  0  0  0  0  0  0  0  0  0  0  0
   38.7250   33.3980   49.5170 C   0  0  0  0  0  0  0  0  0  0  0  0
   39.5380   34.2610   48.7910 C   0  0  0  0  0  0  0  0  0  0  0  0
   39.9610   33.9370   47.5280 C   0  0  0  0  0  0  0  0  0  0  0  0
   39.5580   32.7380   47.0020 C   0  0  0  0  0  0  0  0  0  0  0  0
   37.0580   29.5920   51.4320 C   0  0  0  0  0  0  0  0  0  0  0  0
   37.8840   30.5050   50.7720 C   0  0  0  0  0  0  0  0  0  0  0  0
   37.4720   31.2360   49.6770 C   0  0  0  0  0  0  0  0  0  0  0  0
   36.1870   31.0100   49.2700 N   0  0  0  0  0  0  0  0  0  0  0  0
   35.3890   30.1310   49.9010 C   0  0  0  0  0  0  0  0  0  0  0  0
   35.8080   29.4340   50.9590 N   0  0  0  0  0  0  0  0  0  0  0  0
   40.0000   32.3910   45.6740 C   0  0  0  0  0  0  0  0  0  0  0  0
   41.2030   32.3460   45.3450 O   0  0  0  0  0  0  0  0  0  0  0  0
   38.3987   33.6787   50.5293 H   0  0  0  0  0  0  0  0  0  0  0  0
   39.8464   35.2182   49.2368 H   0  0  0  0  0  0  0  0  0  0  0  0
   40.6049   34.6195   46.9539 H   0  0  0  0  0  0  0  0  0  0  0  0
   37.4152   29.0245   52.3040 H   0  0  0  0  0  0  0  0  0  0  0  0
   38.9099   30.6476   51.1424 H   0  0  0  0  0  0  0  0  0  0  0  0
   34.3624   29.9823   49.5350 H   0  0  0  0  0  0  0  0  0  0  0  0
   39.2403   32.1546   44.9144 H   0  0  0  0  0  0  0  0  0  0  0  0
  1  2  1  0
  2  3  2  0
  3  4  1  0
  3 10  1  0
  5  4  2  0
  6  5  1  0
  7  6  2  0
  7  2  1  0
  9  8  2  0
 10  9  1  0
 11 10  2  0
 11 12  1  0
 12 13  2  0
 13  8  1  0
 14  7  1  0
 15 14  2  0
  4 16  1  0
  5 17  1  0
  6 18  1  0
  8 19  1  0
  9 20  1  0
 12 21  1  0
 14 22  1  0
M  ISO  7  16  14  17  14  18  14  19  14  20  14  21  14  22   6
M  END
>  <minimizedAffinity>  (1) 
-5.75160837

>  <minimizedRMSD>  (1) 
0.051863648

$$$$
