
     RDKit          3D

 22 23  0  0  0  0  0  0  0  0999 V2000
   38.3920   30.6980   47.1750 F   0  0  0  0  0  0  0  0  0  0  0  0
   38.7500   31.8740   47.7440 C   0  0  0  0  0  0  0  0  0  0  0  0
   38.3050   32.2050   48.9940 C   0  0  0  0  0  0  0  0  0  0  0  0
   38.7040   33.4080   49.5080 C   0  0  0  0  0  0  0  0  0  0  0  0
   39.5210   34.2650   48.8080 C   0  0  0  0  0  0  0  0  0  0  0  0
   39.9660   33.9280   47.5520 C   0  0  0  0  0  0  0  0  0  0  0  0
   39.5710   32.7200   47.0220 C   0  0  0  0  0  0  0  0  0  0  0  0
   37.0040   29.6010   51.4180 C   0  0  0  0  0  0  0  0  0  0  0  0
   37.8530   30.5140   50.7800 C   0  0  0  0  0  0  0  0  0  0  0  0
   37.4400   31.2460   49.6780 C   0  0  0  0  0  0  0  0  0  0  0  0
   36.1600   31.0200   49.2580 N   0  0  0  0  0  0  0  0  0  0  0  0
   35.3570   30.1370   49.8840 C   0  0  0  0  0  0  0  0  0  0  0  0
   35.7730   29.4400   50.9470 N   0  0  0  0  0  0  0  0  0  0  0  0
   40.0530   32.3930   45.7040 N   0  0  0  0  0  0  0  0  0  0  0  0
   38.3611   33.6991   50.5118 H   0  0  0  0  0  0  0  0  0  0  0  0
   39.8196   35.2245   49.2555 H   0  0  0  0  0  0  0  0  0  0  0  0
   40.6208   34.6058   46.9848 H   0  0  0  0  0  0  0  0  0  0  0  0
   37.3499   29.0289   52.2915 H   0  0  0  0  0  0  0  0  0  0  0  0
   38.8744   30.6538   51.1636 H   0  0  0  0  0  0  0  0  0  0  0  0
   34.3332   29.9857   49.5111 H   0  0  0  0  0  0  0  0  0  0  0  0
   39.7854   31.5008   45.2644 H   0  0  0  0  0  0  0  0  0  0  0  0
   40.6652   33.0515   45.2015 H   0  0  0  0  0  0  0  0  0  0  0  0
  1  2  1  0
  2  3  2  0
  3  4  1  0
  3 10  1  0
  5  4  2  0
  6  5  1  0
  7  6  2  0
  7  2  1  0
  9  8  2  0
 10  9  1  0
 11 10  2  0
 11 12  1  0
 12 13  2  0
 13  8  1  0
 14  7  1  0
  4 15  1  0
  5 16  1  0
  6 17  1  0
  8 18  1  0
  9 19  1  0
 12 20  1  0
 14 21  1  0
 14 22  1  0
M  ISO  6  15  14  16  14  17  14  18  14  19  14  20  14
M  END
>  <minimizedAffinity>  (1) 
-5.57525539

>  <minimizedRMSD>  (1) 
0.0293977801

$$$$
