
     RDKit          3D

 38 41  0  0  0  0  0  0  0  0999 V2000
   38.1290   30.1450   47.4920 F   0  0  0  0  0  0  0  0  0  0  0  0
   38.3740   31.3920   47.9860 C   0  0  0  0  0  0  0  0  0  0  0  0
   37.7130   31.8370   49.0970 C   0  0  0  0  0  0  0  0  0  0  0  0
   38.0160   33.0970   49.5270 C   0  0  0  0  0  0  0  0  0  0  0  0
   38.9350   33.9040   48.9000 C   0  0  0  0  0  0  0  0  0  0  0  0
   39.5920   33.4320   47.7790 C   0  0  0  0  0  0  0  0  0  0  0  0
   39.3080   32.1580   47.3150 C   0  0  0  0  0  0  0  0  0  0  0  0
   36.0830   29.3650   51.4430 C   0  0  0  0  0  0  0  0  0  0  0  0
   37.0290   30.2130   50.8640 C   0  0  0  0  0  0  0  0  0  0  0  0
   36.7470   30.9440   49.7250 C   0  0  0  0  0  0  0  0  0  0  0  0
   35.4900   30.7890   49.1900 N   0  0  0  0  0  0  0  0  0  0  0  0
   34.5880   29.9670   49.7580 C   0  0  0  0  0  0  0  0  0  0  0  0
   34.8700   29.2750   50.8480 N   0  0  0  0  0  0  0  0  0  0  0  0
   39.2820   31.9000   44.9280 C   0  0  0  0  0  0  0  0  0  0  0  0
   38.2050   32.5590   45.0510 O   0  0  0  0  0  0  0  0  0  0  0  0
   39.9670   31.6270   46.1530 N   0  0  0  0  0  0  0  0  0  0  0  0
   39.2050   32.1970   42.5530 C   0  0  0  0  0  0  0  0  0  0  0  0
   39.7370   31.4810   43.6060 C   0  0  0  0  0  0  0  0  0  0  0  0
   40.6170   30.4600   43.4570 C   0  0  0  0  0  0  0  0  0  0  0  0
   40.9790   30.1490   42.1420 C   0  0  0  0  0  0  0  0  0  0  0  0
   41.8320   29.1820   41.7310 N   0  0  0  0  0  0  0  0  0  0  0  0
   41.8940   29.2270   40.3700 C   0  0  0  0  0  0  0  0  0  0  0  0
   41.0710   30.2300   39.9520 C   0  0  0  0  0  0  0  0  0  0  0  0
   40.4710   30.8390   41.0550 C   0  0  0  0  0  0  0  0  0  0  0  0
   39.5720   31.8790   41.2460 C   0  0  0  0  0  0  0  0  0  0  0  0
   37.5000   33.4847   50.4177 H   0  0  0  0  0  0  0  0  0  0  0  0
   39.1451   34.9127   49.2853 H   0  0  0  0  0  0  0  0  0  0  0  0
   40.3316   34.0607   47.2615 H   0  0  0  0  0  0  0  0  0  0  0  0
   36.3151   28.7897   52.3514 H   0  0  0  0  0  0  0  0  0  0  0  0
   38.0235   30.3017   51.3256 H   0  0  0  0  0  0  0  0  0  0  0  0
   33.5911   29.8688   49.3035 H   0  0  0  0  0  0  0  0  0  0  0  0
   40.8503   31.0991   46.1986 H   0  0  0  0  0  0  0  0  0  0  0  0
   38.4946   33.0149   42.7439 H   0  0  0  0  0  0  0  0  0  0  0  0
   41.0220   29.9092   44.3188 H   0  0  0  0  0  0  0  0  0  0  0  0
   42.3441   28.5274   42.3394 H   0  0  0  0  0  0  0  0  0  0  0  0
   42.4989   28.5722   39.7255 H   0  0  0  0  0  0  0  0  0  0  0  0
   40.9048   30.5163   38.9030 H   0  0  0  0  0  0  0  0  0  0  0  0
   39.1610   32.4361   40.3912 H   0  0  0  0  0  0  0  0  0  0  0  0
  1  2  1  0
  2  3  2  0
  3  4  1  0
  3 10  1  0
  5  4  2  0
  6  5  1  0
  7  6  2  0
  7  2  1  0
  9  8  2  0
 10  9  1  0
 11 10  2  0
 11 12  1  0
 12 13  2  0
 13  8  1  0
 14 15  2  0
 14 16  1  0
 16  7  1  0
 17 18  2  0
 18 14  1  0
 19 18  1  0
 20 19  2  0
 21 20  1  0
 22 21  1  0
 23 22  2  0
 23 24  1  0
 24 25  2  0
 24 20  1  0
 25 17  1  0
  4 26  1  0
  5 27  1  0
  6 28  1  0
  8 29  1  0
  9 30  1  0
 12 31  1  0
 16 32  1  0
 17 33  1  0
 19 34  1  0
 21 35  1  0
 22 36  1  0
 23 37  1  0
 25 38  1  0
M  ISO  8  26  14  27  14  28  14  29  14  30  14  31  14  33  14  34  14
M  ISO  4  35   9  36  14  37  14  38  14
M  END
>  <minimizedAffinity>  (1) 
-7.37349319

>  <minimizedRMSD>  (1) 
0.974403203

$$$$
