
     RDKit          3D

 39 41  0  0  0  0  0  0  0  0999 V2000
   38.4270   30.4660   47.3630 F   0  0  0  0  0  0  0  0  0  0  0  0
   38.7310   31.7010   47.8480 C   0  0  0  0  0  0  0  0  0  0  0  0
   38.2260   32.0810   49.0610 C   0  0  0  0  0  0  0  0  0  0  0  0
   38.5700   33.3380   49.4950 C   0  0  0  0  0  0  0  0  0  0  0  0
   39.3760   34.1910   48.7710 C   0  0  0  0  0  0  0  0  0  0  0  0
   39.8700   33.7720   47.5450 C   0  0  0  0  0  0  0  0  0  0  0  0
   39.5420   32.5010   47.0740 C   0  0  0  0  0  0  0  0  0  0  0  0
   39.0590   32.0650   44.7780 C   0  0  0  0  0  0  0  0  0  0  0  0
   37.9240   32.5220   45.1040 O   0  0  0  0  0  0  0  0  0  0  0  0
   40.0370   32.0460   45.8170 N   0  0  0  0  0  0  0  0  0  0  0  0
   39.2720   31.6210   43.4480 N   0  0  0  0  0  0  0  0  0  0  0  0
   39.3260   30.1970   43.1820 C   0  0  0  0  0  0  0  0  0  0  0  0
   40.6590   29.9680   42.5000 C   0  0  0  0  0  0  0  0  0  0  0  0
   40.5850   30.6140   41.1350 C   0  0  0  0  0  0  0  0  0  0  0  0
   39.6610   31.7810   41.0520 C   0  0  0  0  0  0  0  0  0  0  0  0
   39.4420   32.5280   42.3300 C   0  0  0  0  0  0  0  0  0  0  0  0
   36.9620   29.5840   51.6040 C   0  0  0  0  0  0  0  0  0  0  0  0
   37.8120   30.4830   50.9240 C   0  0  0  0  0  0  0  0  0  0  0  0
   37.3770   31.1450   49.7900 C   0  0  0  0  0  0  0  0  0  0  0  0
   36.1000   30.8870   49.3660 N   0  0  0  0  0  0  0  0  0  0  0  0
   35.3070   30.0210   50.0340 C   0  0  0  0  0  0  0  0  0  0  0  0
   35.7250   29.3920   51.1160 N   0  0  0  0  0  0  0  0  0  0  0  0
   38.1841   33.6805   50.4665 H   0  0  0  0  0  0  0  0  0  0  0  0
   39.6235   35.1895   49.1605 H   0  0  0  0  0  0  0  0  0  0  0  0
   40.5143   34.4357   46.9497 H   0  0  0  0  0  0  0  0  0  0  0  0
   41.0077   31.7334   45.6725 H   0  0  0  0  0  0  0  0  0  0  0  0
   39.2709   29.6272   44.1213 H   0  0  0  0  0  0  0  0  0  0  0  0
   38.4835   29.8642   42.5579 H   0  0  0  0  0  0  0  0  0  0  0  0
   41.4667   30.4262   43.0896 H   0  0  0  0  0  0  0  0  0  0  0  0
   40.8695   28.8921   42.4098 H   0  0  0  0  0  0  0  0  0  0  0  0
   41.5944   30.9549   40.8612 H   0  0  0  0  0  0  0  0  0  0  0  0
   40.1875   29.8512   40.4493 H   0  0  0  0  0  0  0  0  0  0  0  0
   40.0726   32.4861   40.3148 H   0  0  0  0  0  0  0  0  0  0  0  0
   38.6801   31.3674   40.7748 H   0  0  0  0  0  0  0  0  0  0  0  0
   40.3120   33.1734   42.5213 H   0  0  0  0  0  0  0  0  0  0  0  0
   38.5263   33.1290   42.2282 H   0  0  0  0  0  0  0  0  0  0  0  0
   37.3025   29.0561   52.5070 H   0  0  0  0  0  0  0  0  0  0  0  0
   38.8307   30.6588   51.2998 H   0  0  0  0  0  0  0  0  0  0  0  0
   34.2869   29.8355   49.6666 H   0  0  0  0  0  0  0  0  0  0  0  0
  1  2  1  0
  2  3  2  0
  3  4  1  0
  3 19  1  0
  5  4  2  0
  6  5  1  0
  7  6  2  0
  7  2  1  0
  8  9  2  0
  8 10  1  0
 10  7  1  0
 11  8  1  0
 12 11  1  0
 13 12  1  0
 14 13  1  0
 15 14  1  0
 15 16  1  0
 16 11  1  0
 18 17  2  0
 19 18  1  0
 20 19  2  0
 20 21  1  0
 21 22  2  0
 22 17  1  0
  4 23  1  0
  5 24  1  0
  6 25  1  0
 10 26  1  0
 12 27  1  0
 12 28  1  0
 13 29  1  0
 13 30  1  0
 14 31  1  0
 14 32  1  0
 15 33  1  0
 15 34  1  0
 16 35  1  0
 16 36  1  0
 17 37  1  0
 18 38  1  0
 21 39  1  0
M  ISO  8  23  14  24  14  25  14  27  13  28  13  29  13  30  13  31  13
M  ISO  8  32  13  33  13  34  13  35  13  36  13  37  14  38  14  39  14
M  END
>  <minimizedAffinity>  (1) 
-7.02313042

>  <minimizedRMSD>  (1) 
0.150849089

$$$$
