
     RDKit          3D

 33 35  0  0  0  0  0  0  0  0999 V2000
   38.4040   30.4050   47.3260 F   0  0  0  0  0  0  0  0  0  0  0  0
   38.7070   31.6370   47.8070 C   0  0  0  0  0  0  0  0  0  0  0  0
   38.1650   32.0560   49.0010 C   0  0  0  0  0  0  0  0  0  0  0  0
   38.5070   33.3050   49.4320 C   0  0  0  0  0  0  0  0  0  0  0  0
   39.3520   34.1320   48.7320 C   0  0  0  0  0  0  0  0  0  0  0  0
   39.8860   33.6870   47.5340 C   0  0  0  0  0  0  0  0  0  0  0  0
   39.5570   32.4250   47.0700 C   0  0  0  0  0  0  0  0  0  0  0  0
   36.7740   29.5730   51.5070 C   0  0  0  0  0  0  0  0  0  0  0  0
   37.6510   30.4500   50.8550 C   0  0  0  0  0  0  0  0  0  0  0  0
   37.2700   31.1330   49.7040 C   0  0  0  0  0  0  0  0  0  0  0  0
   36.0000   30.9050   49.2440 N   0  0  0  0  0  0  0  0  0  0  0  0
   35.1640   30.0560   49.8830 C   0  0  0  0  0  0  0  0  0  0  0  0
   35.5430   29.4130   50.9800 N   0  0  0  0  0  0  0  0  0  0  0  0
   39.2210   32.1200   44.7160 C   0  0  0  0  0  0  0  0  0  0  0  0
   38.1240   32.6980   44.9810 O   0  0  0  0  0  0  0  0  0  0  0  0
   40.0870   31.9260   45.8350 N   0  0  0  0  0  0  0  0  0  0  0  0
   39.6050   31.6740   43.3790 C   0  0  0  0  0  0  0  0  0  0  0  0
   40.4490   30.6050   43.2490 C   0  0  0  0  0  0  0  0  0  0  0  0
   40.8190   30.1750   41.9690 C   0  0  0  0  0  0  0  0  0  0  0  0
   40.2690   30.9070   40.9350 C   0  0  0  0  0  0  0  0  0  0  0  0
   39.4170   31.9850   41.0490 C   0  0  0  0  0  0  0  0  0  0  0  0
   39.1020   32.3480   42.3060 N   0  0  0  0  0  0  0  0  0  0  0  0
   38.0873   33.6658   50.3826 H   0  0  0  0  0  0  0  0  0  0  0  0
   39.6005   35.1320   49.1171 H   0  0  0  0  0  0  0  0  0  0  0  0
   40.5656   34.3308   46.9563 H   0  0  0  0  0  0  0  0  0  0  0  0
   37.0787   29.0342   52.4163 H   0  0  0  0  0  0  0  0  0  0  0  0
   38.6618   30.6018   51.2615 H   0  0  0  0  0  0  0  0  0  0  0  0
   34.1508   29.8953   49.4860 H   0  0  0  0  0  0  0  0  0  0  0  0
   41.0075   31.4697   45.7615 H   0  0  0  0  0  0  0  0  0  0  0  0
   40.8330   30.0886   44.1411 H   0  0  0  0  0  0  0  0  0  0  0  0
   41.4936   29.3226   41.8004 H   0  0  0  0  0  0  0  0  0  0  0  0
   40.5387   30.5978   39.9144 H   0  0  0  0  0  0  0  0  0  0  0  0
   39.0205   32.5139   40.1697 H   0  0  0  0  0  0  0  0  0  0  0  0
  1  2  1  0
  2  3  2  0
  3  4  1  0
  3 10  1  0
  5  4  2  0
  6  5  1  0
  7  6  2  0
  7  2  1  0
  9  8  2  0
 10  9  1  0
 11 10  2  0
 11 12  1  0
 12 13  2  0
 13  8  1  0
 14 15  2  0
 14 16  1  0
 16  7  1  0
 17 14  1  0
 18 17  2  0
 19 18  1  0
 20 21  1  0
 20 19  2  0
 21 22  2  0
 22 17  1  0
  4 23  1  0
  5 24  1  0
  6 25  1  0
  8 26  1  0
  9 27  1  0
 12 28  1  0
 16 29  1  0
 18 30  1  0
 19 31  1  0
 20 32  1  0
 21 33  1  0
M  ISO  8  23  14  24  14  25  14  26  14  27  14  28  14  30  14  31  14
M  ISO  2  32  14  33  14
M  END
>  <minimizedAffinity>  (1) 
-6.71200323

>  <minimizedRMSD>  (1) 
0.286857307

$$$$
