
     RDKit          3D

 32 33  0  0  0  0  0  0  0  0999 V2000
   38.3640   30.2890   47.3520 F   0  0  0  0  0  0  0  0  0  0  0  0
   38.6570   31.5280   47.8170 C   0  0  0  0  0  0  0  0  0  0  0  0
   38.1060   31.9810   48.9880 C   0  0  0  0  0  0  0  0  0  0  0  0
   38.4470   33.2380   49.3950 C   0  0  0  0  0  0  0  0  0  0  0  0
   39.3050   34.0450   48.6810 C   0  0  0  0  0  0  0  0  0  0  0  0
   39.8490   33.5750   47.5070 C   0  0  0  0  0  0  0  0  0  0  0  0
   39.5260   32.3060   47.0650 C   0  0  0  0  0  0  0  0  0  0  0  0
   36.6710   29.5530   51.5090 C   0  0  0  0  0  0  0  0  0  0  0  0
   37.5670   30.4040   50.8530 C   0  0  0  0  0  0  0  0  0  0  0  0
   37.2050   31.0850   49.7030 C   0  0  0  0  0  0  0  0  0  0  0  0
   35.9240   30.8710   49.2570 N   0  0  0  0  0  0  0  0  0  0  0  0
   35.0760   30.0510   49.8980 C   0  0  0  0  0  0  0  0  0  0  0  0
   35.4420   29.3990   51.0080 N   0  0  0  0  0  0  0  0  0  0  0  0
   39.3060   32.1030   44.6870 C   0  0  0  0  0  0  0  0  0  0  0  0
   38.2410   32.7580   44.9110 O   0  0  0  0  0  0  0  0  0  0  0  0
   40.0690   31.7740   45.8470 N   0  0  0  0  0  0  0  0  0  0  0  0
   39.6850   31.7390   43.3640 N   0  0  0  0  0  0  0  0  0  0  0  0
   39.8910   30.0980   42.8650 S   0  0  0  0  0  0  0  0  0  0  0  0
   41.2880   29.8860   42.4250 O   0  0  0  0  0  0  0  0  0  0  0  0
   38.9700   29.7790   41.7080 O   0  0  0  0  0  0  0  0  0  0  0  0
   39.4370   29.0810   44.1310 O   0  0  0  0  0  0  0  0  0  0  0  0
   38.0189   33.6229   50.3323 H   0  0  0  0  0  0  0  0  0  0  0  0
   39.5526   35.0532   49.0446 H   0  0  0  0  0  0  0  0  0  0  0  0
   40.5366   34.2056   46.9243 H   0  0  0  0  0  0  0  0  0  0  0  0
   36.9734   29.0195   52.4222 H   0  0  0  0  0  0  0  0  0  0  0  0
   38.5807   30.5349   51.2595 H   0  0  0  0  0  0  0  0  0  0  0  0
   34.0590   29.9121   49.5026 H   0  0  0  0  0  0  0  0  0  0  0  0
   40.9288   31.2079   45.8137 H   0  0  0  0  0  0  0  0  0  0  0  0
   39.8434   32.4870   42.6739 H   0  0  0  0  0  0  0  0  0  0  0  0
   41.8739   29.7971   43.2181 H   0  0  0  0  0  0  0  0  0  0  0  0
   38.0946   29.4758   42.0570 H   0  0  0  0  0  0  0  0  0  0  0  0
   39.6338   29.5219   44.9953 H   0  0  0  0  0  0  0  0  0  0  0  0
  1  2  1  0
  2  3  2  0
  3  4  1  0
  3 10  1  0
  5  4  2  0
  6  5  1  0
  7  6  2  0
  7  2  1  0
  9  8  2  0
 10  9  1  0
 11 10  2  0
 11 12  1  0
 12 13  2  0
 13  8  1  0
 14 15  2  0
 14 16  1  0
 16  7  1  0
 17 14  1  0
 18 17  1  0
 18 21  1  0
 19 18  1  0
 20 18  1  0
  4 22  1  0
  5 23  1  0
  6 24  1  0
  8 25  1  0
  9 26  1  0
 12 27  1  0
 16 28  1  0
 17 29  1  0
 19 30  1  0
 20 31  1  0
 21 32  1  0
M  ISO  8  22  14  23  14  24  14  25  14  26  14  27  14  30   3  31   3
M  ISO  1  32   3
M  END
>  <minimizedAffinity>  (1) 
-6.61660004

>  <minimizedRMSD>  (1) 
0.221912593

$$$$
