
     RDKit          3D

 31 33  0  0  0  0  0  0  0  0999 V2000
   38.4780   30.4280   47.3130 F   0  0  0  0  0  0  0  0  0  0  0  0
   38.7540   31.6630   47.8070 C   0  0  0  0  0  0  0  0  0  0  0  0
   38.1930   32.0850   48.9820 C   0  0  0  0  0  0  0  0  0  0  0  0
   38.5120   33.3330   49.4190 C   0  0  0  0  0  0  0  0  0  0  0  0
   39.3590   34.1610   48.7310 C   0  0  0  0  0  0  0  0  0  0  0  0
   39.9220   33.7290   47.5470 C   0  0  0  0  0  0  0  0  0  0  0  0
   39.6150   32.4600   47.0750 C   0  0  0  0  0  0  0  0  0  0  0  0
   36.7920   29.5790   51.4580 C   0  0  0  0  0  0  0  0  0  0  0  0
   37.6710   30.4620   50.8200 C   0  0  0  0  0  0  0  0  0  0  0  0
   37.2930   31.1520   49.6740 C   0  0  0  0  0  0  0  0  0  0  0  0
   36.0300   30.9270   49.2050 N   0  0  0  0  0  0  0  0  0  0  0  0
   35.1980   30.0710   49.8360 C   0  0  0  0  0  0  0  0  0  0  0  0
   35.5620   29.4140   50.9290 N   0  0  0  0  0  0  0  0  0  0  0  0
   39.3320   32.1900   44.7140 C   0  0  0  0  0  0  0  0  0  0  0  0
   38.2420   32.7900   44.9500 O   0  0  0  0  0  0  0  0  0  0  0  0
   40.1770   31.9680   45.8450 N   0  0  0  0  0  0  0  0  0  0  0  0
   39.6550   31.7710   43.3530 C   0  0  0  0  0  0  0  0  0  0  0  0
   40.3940   30.6320   43.1080 C   0  0  0  0  0  0  0  0  0  0  0  0
   40.4820   30.5810   41.7250 C   0  0  0  0  0  0  0  0  0  0  0  0
   39.8250   31.6440   41.1790 N   0  0  0  0  0  0  0  0  0  0  0  0
   39.3290   32.3520   42.2060 N   0  0  0  0  0  0  0  0  0  0  0  0
   38.0727   33.6913   50.3617 H   0  0  0  0  0  0  0  0  0  0  0  0
   39.5891   35.1640   49.1196 H   0  0  0  0  0  0  0  0  0  0  0  0
   40.6054   34.3821   46.9845 H   0  0  0  0  0  0  0  0  0  0  0  0
   37.0955   29.0352   52.3647 H   0  0  0  0  0  0  0  0  0  0  0  0
   38.6793   30.6126   51.2330 H   0  0  0  0  0  0  0  0  0  0  0  0
   34.1874   29.9138   49.4311 H   0  0  0  0  0  0  0  0  0  0  0  0
   41.0944   31.5034   45.7858 H   0  0  0  0  0  0  0  0  0  0  0  0
   40.8157   29.9276   43.8401 H   0  0  0  0  0  0  0  0  0  0  0  0
   41.0040   29.7995   41.1535 H   0  0  0  0  0  0  0  0  0  0  0  0
   39.7284   31.8608   40.1767 H   0  0  0  0  0  0  0  0  0  0  0  0
  1  2  1  0
  2  3  2  0
  3  4  1  0
  3 10  1  0
  5  4  2  0
  6  5  1  0
  7  6  2  0
  7  2  1  0
  9  8  2  0
 10  9  1  0
 11 10  2  0
 11 12  1  0
 12 13  2  0
 13  8  1  0
 14 15  2  0
 14 16  1  0
 16  7  1  0
 17 14  1  0
 18 17  1  0
 19 18  2  0
 20 19  1  0
 20 21  1  0
 21 17  2  0
  4 22  1  0
  5 23  1  0
  6 24  1  0
  8 25  1  0
  9 26  1  0
 12 27  1  0
 16 28  1  0
 18 29  1  0
 19 30  1  0
 20 31  1  0
M  ISO  8  22  14  23  14  24  14  25  14  26  14  27  14  29  14  30  14
M  ISO  1  31   9
M  END
>  <minimizedAffinity>  (1) 
-6.52401114

>  <minimizedRMSD>  (1) 
0.239535794

$$$$
