
     RDKit          3D

 28 29  0  0  1  0  0  0  0  0999 V2000
   37.2240   30.8140   46.8800 C   0  0  1  0  0  0  0  0  0  0  0  0
   37.4830   31.6700   45.6230 C   0  0  0  0  0  0  0  0  0  0  0  0
   38.4530   30.6220   46.0830 C   0  0  1  0  0  0  0  0  0  0  0  0
   37.1920   31.6230   48.1430 C   0  0  0  0  0  0  0  0  0  0  0  0
   37.2650   30.0330   51.5250 C   0  0  0  0  0  0  0  0  0  0  0  0
   37.6540   30.7970   50.4050 C   0  0  0  0  0  0  0  0  0  0  0  0
   36.7900   30.8250   49.3220 C   0  0  0  0  0  0  0  0  0  0  0  0
   35.6340   30.1370   49.3750 N   0  0  0  0  0  0  0  0  0  0  0  0
   35.2930   29.4090   50.4770 C   0  0  0  0  0  0  0  0  0  0  0  0
   36.1180   29.3660   51.5480 N   0  0  0  0  0  0  0  0  0  0  0  0
   39.6580   31.1310   46.7090 N   0  0  0  0  0  0  0  0  0  0  0  0
   40.8970   31.2770   45.4970 S   0  0  0  0  0  0  0  0  0  0  0  0
   41.0840   32.7680   45.2650 O   0  0  0  0  0  0  0  0  0  0  0  0
   40.4020   30.5930   44.2580 O   0  0  0  0  0  0  0  0  0  0  0  0
   42.3380   30.6240   46.0600 O   0  0  0  0  0  0  0  0  0  0  0  0
   36.4899   30.0906   47.2645 H   0  0  0  0  0  0  0  0  0  0  0  0
   37.7315   32.7372   45.7195 H   0  0  0  0  0  0  0  0  0  0  0  0
   36.9402   31.8882   44.6915 H   0  0  0  0  0  0  0  0  0  0  0  0
   38.9276   29.7574   45.5959 H   0  0  0  0  0  0  0  0  0  0  0  0
   38.1960   32.0350   48.3226 H   0  0  0  0  0  0  0  0  0  0  0  0
   36.4439   32.4183   48.0093 H   0  0  0  0  0  0  0  0  0  0  0  0
   37.9288   29.9890   52.4010 H   0  0  0  0  0  0  0  0  0  0  0  0
   38.6055   31.3487   50.3918 H   0  0  0  0  0  0  0  0  0  0  0  0
   34.3431   28.8546   50.4948 H   0  0  0  0  0  0  0  0  0  0  0  0
   39.4692   32.0543   47.1246 H   0  0  0  0  0  0  0  0  0  0  0  0
   41.1423   33.2329   46.1371 H   0  0  0  0  0  0  0  0  0  0  0  0
   39.8409   29.8176   44.5109 H   0  0  0  0  0  0  0  0  0  0  0  0
   42.3361   30.6248   47.0500 H   0  0  0  0  0  0  0  0  0  0  0  0
  1  4  1  0
  2  3  1  0
  2  1  1  0
  3 11  1  0
  3  1  1  0
  4  7  1  0
  5 10  2  0
  6  5  1  0
  7  8  1  0
  7  6  2  0
  8  9  2  0
  9 10  1  0
 12 15  1  0
 12 11  1  0
 13 12  1  0
 14 12  1  0
  1 16  1  6
  2 17  1  0
  2 18  1  0
  3 19  1  6
  4 20  1  0
  4 21  1  0
  5 22  1  0
  6 23  1  0
  9 24  1  0
 11 25  1  0
 13 26  1  0
 14 27  1  0
 15 28  1  0
M  ISO  8  16  13  17  13  18  13  19  13  20   8  21   8  22  14  23  14
M  ISO  5  24  14  25   5  26   3  27   3  28   3
M  END
>  <minimizedAffinity>  (1) 
-4.79404736

>  <minimizedRMSD>  (1) 
1.65154004

$$$$
