
     RDKit          3D

 26 27  0  0  0  0  0  0  0  0999 V2000
   38.4840   30.4120   47.3020 F   0  0  0  0  0  0  0  0  0  0  0  0
   38.7630   31.6450   47.7830 C   0  0  0  0  0  0  0  0  0  0  0  0
   38.1980   32.0650   48.9690 C   0  0  0  0  0  0  0  0  0  0  0  0
   38.5200   33.3290   49.4050 C   0  0  0  0  0  0  0  0  0  0  0  0
   39.3690   34.1510   48.7000 C   0  0  0  0  0  0  0  0  0  0  0  0
   39.9260   33.7250   47.5200 C   0  0  0  0  0  0  0  0  0  0  0  0
   39.6180   32.4520   47.0540 C   0  0  0  0  0  0  0  0  0  0  0  0
   36.8030   29.5840   51.4550 C   0  0  0  0  0  0  0  0  0  0  0  0
   37.6760   30.4600   50.8060 C   0  0  0  0  0  0  0  0  0  0  0  0
   37.3100   31.1470   49.6660 C   0  0  0  0  0  0  0  0  0  0  0  0
   36.0370   30.9220   49.2010 N   0  0  0  0  0  0  0  0  0  0  0  0
   35.1980   30.0770   49.8280 C   0  0  0  0  0  0  0  0  0  0  0  0
   35.5660   29.4270   50.9220 N   0  0  0  0  0  0  0  0  0  0  0  0
   39.3420   32.1780   44.6850 C   0  0  0  0  0  0  0  0  0  0  0  0
   38.2490   32.7840   44.9350 O   0  0  0  0  0  0  0  0  0  0  0  0
   40.1730   31.9580   45.8280 N   0  0  0  0  0  0  0  0  0  0  0  0
   39.6650   31.7770   43.3830 N   0  0  0  0  0  0  0  0  0  0  0  0
   38.0851   33.6944   50.3470 H   0  0  0  0  0  0  0  0  0  0  0  0
   39.6026   35.1549   49.0841 H   0  0  0  0  0  0  0  0  0  0  0  0
   40.6043   34.3795   46.9530 H   0  0  0  0  0  0  0  0  0  0  0  0
   37.1070   29.0426   52.3630 H   0  0  0  0  0  0  0  0  0  0  0  0
   38.6862   30.6070   51.2158 H   0  0  0  0  0  0  0  0  0  0  0  0
   34.1865   29.9230   49.4240 H   0  0  0  0  0  0  0  0  0  0  0  0
   41.0876   31.4872   45.7751 H   0  0  0  0  0  0  0  0  0  0  0  0
   40.5530   31.2883   43.2000 H   0  0  0  0  0  0  0  0  0  0  0  0
   39.0146   31.9707   42.6082 H   0  0  0  0  0  0  0  0  0  0  0  0
  1  2  1  0
  2  3  2  0
  3  4  1  0
  3 10  1  0
  5  4  2  0
  6  5  1  0
  7  6  2  0
  7  2  1  0
  9  8  2  0
 10  9  1  0
 11 10  2  0
 11 12  1  0
 12 13  2  0
 13  8  1  0
 14 15  2  0
 14 16  1  0
 16  7  1  0
 17 14  1  0
  4 18  1  0
  5 19  1  0
  6 20  1  0
  8 21  1  0
  9 22  1  0
 12 23  1  0
 16 24  1  0
 17 25  1  0
 17 26  1  0
M  ISO  6  18  14  19  14  20  14  21  14  22  14  23  14
M  END
>  <minimizedAffinity>  (1) 
-5.91580534

>  <minimizedRMSD>  (1) 
0.115410164

$$$$
