
     RDKit          3D

 37 40  0  0  0  0  0  0  0  0999 V2000
   38.1160   30.1470   47.4940 F   0  0  0  0  0  0  0  0  0  0  0  0
   38.3750   31.3950   47.9800 C   0  0  0  0  0  0  0  0  0  0  0  0
   37.7120   31.8310   49.0940 C   0  0  0  0  0  0  0  0  0  0  0  0
   38.0220   33.0930   49.5250 C   0  0  0  0  0  0  0  0  0  0  0  0
   38.9390   33.9030   48.9030 C   0  0  0  0  0  0  0  0  0  0  0  0
   39.5890   33.4270   47.7780 C   0  0  0  0  0  0  0  0  0  0  0  0
   39.3040   32.1600   47.3130 C   0  0  0  0  0  0  0  0  0  0  0  0
   36.0820   29.3610   51.4470 C   0  0  0  0  0  0  0  0  0  0  0  0
   37.0380   30.2140   50.8610 C   0  0  0  0  0  0  0  0  0  0  0  0
   36.7450   30.9380   49.7260 C   0  0  0  0  0  0  0  0  0  0  0  0
   35.4930   30.7890   49.2040 N   0  0  0  0  0  0  0  0  0  0  0  0
   34.5820   29.9730   49.7640 C   0  0  0  0  0  0  0  0  0  0  0  0
   34.8730   29.2770   50.8610 N   0  0  0  0  0  0  0  0  0  0  0  0
   39.2730   31.9040   44.9290 C   0  0  0  0  0  0  0  0  0  0  0  0
   38.1940   32.5540   45.0470 O   0  0  0  0  0  0  0  0  0  0  0  0
   39.9590   31.6350   46.1510 N   0  0  0  0  0  0  0  0  0  0  0  0
   39.1960   32.2040   42.5510 C   0  0  0  0  0  0  0  0  0  0  0  0
   39.7160   31.4970   43.6170 C   0  0  0  0  0  0  0  0  0  0  0  0
   40.6090   30.4570   43.4620 C   0  0  0  0  0  0  0  0  0  0  0  0
   41.0090   30.0980   42.1870 C   0  0  0  0  0  0  0  0  0  0  0  0
   41.8470   29.1500   41.7330 N   0  0  0  0  0  0  0  0  0  0  0  0
   41.8640   29.2460   40.4010 C   0  0  0  0  0  0  0  0  0  0  0  0
   41.0510   30.2390   40.0140 N   0  0  0  0  0  0  0  0  0  0  0  0
   40.4900   30.8040   41.1200 C   0  0  0  0  0  0  0  0  0  0  0  0
   39.5940   31.8480   41.2590 C   0  0  0  0  0  0  0  0  0  0  0  0
   37.5084   33.4786   50.4180 H   0  0  0  0  0  0  0  0  0  0  0  0
   39.1528   34.9099   49.2909 H   0  0  0  0  0  0  0  0  0  0  0  0
   40.3278   34.0546   47.2581 H   0  0  0  0  0  0  0  0  0  0  0  0
   36.3157   28.7829   52.3532 H   0  0  0  0  0  0  0  0  0  0  0  0
   38.0349   30.3034   51.3172 H   0  0  0  0  0  0  0  0  0  0  0  0
   33.5844   29.8796   49.3100 H   0  0  0  0  0  0  0  0  0  0  0  0
   40.8447   31.1110   46.1942 H   0  0  0  0  0  0  0  0  0  0  0  0
   38.4855   33.0277   42.7145 H   0  0  0  0  0  0  0  0  0  0  0  0
   40.9978   29.9204   44.3401 H   0  0  0  0  0  0  0  0  0  0  0  0
   42.3763   28.4764   42.3048 H   0  0  0  0  0  0  0  0  0  0  0  0
   42.4540   28.6087   39.7259 H   0  0  0  0  0  0  0  0  0  0  0  0
   39.2060   32.3824   40.3793 H   0  0  0  0  0  0  0  0  0  0  0  0
  1  2  1  0
  2  3  2  0
  3  4  1  0
  3 10  1  0
  5  4  2  0
  6  5  1  0
  7  6  2  0
  7  2  1  0
  9  8  2  0
 10  9  1  0
 11 10  2  0
 11 12  1  0
 12 13  2  0
 13  8  1  0
 14 15  2  0
 14 16  1  0
 16  7  1  0
 17 18  2  0
 18 14  1  0
 19 18  1  0
 20 19  2  0
 21 20  1  0
 22 21  1  0
 23 22  2  0
 23 24  1  0
 24 25  2  0
 24 20  1  0
 25 17  1  0
  4 26  1  0
  5 27  1  0
  6 28  1  0
  8 29  1  0
  9 30  1  0
 12 31  1  0
 16 32  1  0
 17 33  1  0
 19 34  1  0
 21 35  1  0
 22 36  1  0
 25 37  1  0
M  ISO  8  26  14  27  14  28  14  29  14  30  14  31  14  33  14  34  14
M  ISO  3  35   9  36  14  37  14
M  END
>  <minimizedAffinity>  (1) 
-7.36155081

>  <minimizedRMSD>  (1) 
1.21004355

$$$$
