
     RDKit          3D

 44 48  0  0  0  0  0  0  0  0999 V2000
   39.2580   31.9330   44.9920 C   0  0  0  0  0  0  0  0  0  0  0  0
   38.1390   32.5180   45.1320 O   0  0  0  0  0  0  0  0  0  0  0  0
   39.9840   31.7290   46.1960 N   0  0  0  0  0  0  0  0  0  0  0  0
   39.1390   32.2380   42.6100 C   0  0  0  0  0  0  0  0  0  0  0  0
   39.6920   31.5350   43.6720 C   0  0  0  0  0  0  0  0  0  0  0  0
   40.6040   30.5160   43.5070 C   0  0  0  0  0  0  0  0  0  0  0  0
   40.9900   30.1720   42.2190 C   0  0  0  0  0  0  0  0  0  0  0  0
   41.8440   29.2370   41.7650 N   0  0  0  0  0  0  0  0  0  0  0  0
   41.8440   29.3330   40.4340 C   0  0  0  0  0  0  0  0  0  0  0  0
   41.0080   30.3050   40.0600 N   0  0  0  0  0  0  0  0  0  0  0  0
   40.4450   30.8640   41.1690 C   0  0  0  0  0  0  0  0  0  0  0  0
   39.5360   31.8790   41.3300 C   0  0  0  0  0  0  0  0  0  0  0  0
   38.9680   32.6040   40.2040 C   0  0  0  0  0  0  0  0  0  0  0  0
   38.8960   32.1960   38.8870 C   0  0  0  0  0  0  0  0  0  0  0  0
   38.2910   33.1800   38.1900 N   0  0  0  0  0  0  0  0  0  0  0  0
   37.9840   34.1950   39.0460 C   0  0  0  0  0  0  0  0  0  0  0  0
   38.4100   33.8230   40.2890 N   0  0  0  0  0  0  0  0  0  0  0  0
   38.1460   30.2160   47.5140 F   0  0  0  0  0  0  0  0  0  0  0  0
   38.4000   31.4450   48.0220 C   0  0  0  0  0  0  0  0  0  0  0  0
   37.7460   31.8700   49.1440 C   0  0  0  0  0  0  0  0  0  0  0  0
   38.0530   33.1240   49.6020 C   0  0  0  0  0  0  0  0  0  0  0  0
   38.9640   33.9370   48.9900 C   0  0  0  0  0  0  0  0  0  0  0  0
   39.6170   33.4910   47.8560 C   0  0  0  0  0  0  0  0  0  0  0  0
   39.3260   32.2250   47.3700 C   0  0  0  0  0  0  0  0  0  0  0  0
   36.1050   29.3550   51.4540 C   0  0  0  0  0  0  0  0  0  0  0  0
   37.0720   30.2210   50.8920 C   0  0  0  0  0  0  0  0  0  0  0  0
   36.7770   30.9600   49.7630 C   0  0  0  0  0  0  0  0  0  0  0  0
   35.5240   30.8140   49.2220 N   0  0  0  0  0  0  0  0  0  0  0  0
   34.6180   29.9840   49.7750 C   0  0  0  0  0  0  0  0  0  0  0  0
   34.8970   29.2740   50.8560 N   0  0  0  0  0  0  0  0  0  0  0  0
   40.9032   31.2651   46.2235 H   0  0  0  0  0  0  0  0  0  0  0  0
   38.4141   33.0483   42.7770 H   0  0  0  0  0  0  0  0  0  0  0  0
   41.0176   29.9861   44.3777 H   0  0  0  0  0  0  0  0  0  0  0  0
   42.3914   28.5756   42.3341 H   0  0  0  0  0  0  0  0  0  0  0  0
   42.4396   28.7090   39.7515 H   0  0  0  0  0  0  0  0  0  0  0  0
   39.2646   31.2427   38.4803 H   0  0  0  0  0  0  0  0  0  0  0  0
   38.0939   33.1664   37.1791 H   0  0  0  0  0  0  0  0  0  0  0  0
   37.4851   35.1397   38.7840 H   0  0  0  0  0  0  0  0  0  0  0  0
   37.5425   33.4930   50.5038 H   0  0  0  0  0  0  0  0  0  0  0  0
   39.1761   34.9372   49.3956 H   0  0  0  0  0  0  0  0  0  0  0  0
   40.3548   34.1293   47.3478 H   0  0  0  0  0  0  0  0  0  0  0  0
   36.3309   28.7637   52.3536 H   0  0  0  0  0  0  0  0  0  0  0  0
   38.0652   30.3064   51.3570 H   0  0  0  0  0  0  0  0  0  0  0  0
   33.6221   29.8945   49.3165 H   0  0  0  0  0  0  0  0  0  0  0  0
  1  2  2  0
  1  3  1  0
  3 24  1  0
  4  5  2  0
  5  1  1  0
  6  5  1  0
  7  6  2  0
  8  7  1  0
  9  8  1  0
 10  9  2  0
 10 11  1  0
 11 12  2  0
 11  7  1  0
 12  4  1  0
 13 17  1  0
 13 12  1  0
 14 13  2  0
 15 14  1  0
 15 16  1  0
 16 17  2  0
 18 19  1  0
 19 20  2  0
 20 21  1  0
 20 27  1  0
 22 21  2  0
 23 22  1  0
 24 23  2  0
 24 19  1  0
 26 25  2  0
 27 26  1  0
 28 27  2  0
 28 29  1  0
 29 30  2  0
 30 25  1  0
  3 31  1  0
  4 32  1  0
  6 33  1  0
  8 34  1  0
  9 35  1  0
 14 36  1  0
 15 37  1  0
 16 38  1  0
 21 39  1  0
 22 40  1  0
 23 41  1  0
 25 42  1  0
 26 43  1  0
 29 44  1  0
M  ISO  8  32  14  33  14  34   9  35  14  36  14  37   9  38  14  39  14
M  ISO  5  40  14  41  14  42  14  43  14  44  14
M  END
>  <minimizedAffinity>  (1) 
-7.48779249

>  <minimizedRMSD>  (1) 
0.150871038

$$$$
