
     RDKit          3D

 39 42  0  0  0  0  0  0  0  0999 V2000
   39.2810   31.8970   44.9350 C   0  0  0  0  0  0  0  0  0  0  0  0
   38.1920   32.5470   45.0510 O   0  0  0  0  0  0  0  0  0  0  0  0
   39.9580   31.6430   46.1510 N   0  0  0  0  0  0  0  0  0  0  0  0
   39.1740   32.1860   42.5520 C   0  0  0  0  0  0  0  0  0  0  0  0
   39.7130   31.4910   43.6180 C   0  0  0  0  0  0  0  0  0  0  0  0
   40.6100   30.4670   43.4610 C   0  0  0  0  0  0  0  0  0  0  0  0
   41.0050   30.1000   42.1810 C   0  0  0  0  0  0  0  0  0  0  0  0
   41.8550   29.1520   41.7440 N   0  0  0  0  0  0  0  0  0  0  0  0
   41.8640   29.2350   40.4060 C   0  0  0  0  0  0  0  0  0  0  0  0
   41.0310   30.2210   40.0190 N   0  0  0  0  0  0  0  0  0  0  0  0
   40.4710   30.7900   41.1150 C   0  0  0  0  0  0  0  0  0  0  0  0
   39.5670   31.8210   41.2640 C   0  0  0  0  0  0  0  0  0  0  0  0
   39.0250   32.5210   40.1630 N   0  0  0  0  0  0  0  0  0  0  0  0
   38.1170   30.1540   47.4990 F   0  0  0  0  0  0  0  0  0  0  0  0
   38.3740   31.3920   47.9820 C   0  0  0  0  0  0  0  0  0  0  0  0
   37.7170   31.8290   49.0940 C   0  0  0  0  0  0  0  0  0  0  0  0
   38.0260   33.0930   49.5280 C   0  0  0  0  0  0  0  0  0  0  0  0
   38.9410   33.9010   48.9020 C   0  0  0  0  0  0  0  0  0  0  0  0
   39.5880   33.4240   47.7760 C   0  0  0  0  0  0  0  0  0  0  0  0
   39.3060   32.1620   47.3100 C   0  0  0  0  0  0  0  0  0  0  0  0
   36.0840   29.3600   51.4500 C   0  0  0  0  0  0  0  0  0  0  0  0
   37.0480   30.2100   50.8690 C   0  0  0  0  0  0  0  0  0  0  0  0
   36.7550   30.9410   49.7270 C   0  0  0  0  0  0  0  0  0  0  0  0
   35.5020   30.7850   49.2190 N   0  0  0  0  0  0  0  0  0  0  0  0
   34.5840   29.9800   49.7650 C   0  0  0  0  0  0  0  0  0  0  0  0
   34.8680   29.2810   50.8600 N   0  0  0  0  0  0  0  0  0  0  0  0
   40.8479   31.1263   46.1963 H   0  0  0  0  0  0  0  0  0  0  0  0
   38.4559   33.0033   42.7143 H   0  0  0  0  0  0  0  0  0  0  0  0
   41.0129   29.9413   44.3393 H   0  0  0  0  0  0  0  0  0  0  0  0
   42.3929   28.4923   42.3239 H   0  0  0  0  0  0  0  0  0  0  0  0
   42.4568   28.5996   39.7316 H   0  0  0  0  0  0  0  0  0  0  0  0
   38.3523   33.2851   40.3192 H   0  0  0  0  0  0  0  0  0  0  0  0
   39.3026   32.2672   39.2041 H   0  0  0  0  0  0  0  0  0  0  0  0
   37.5146   33.4779   50.4226 H   0  0  0  0  0  0  0  0  0  0  0  0
   39.1560   34.9084   49.2878 H   0  0  0  0  0  0  0  0  0  0  0  0
   40.3256   34.0525   47.2554 H   0  0  0  0  0  0  0  0  0  0  0  0
   36.3133   28.7787   52.3553 H   0  0  0  0  0  0  0  0  0  0  0  0
   38.0445   30.2943   51.3271 H   0  0  0  0  0  0  0  0  0  0  0  0
   33.5881   29.8957   49.3055 H   0  0  0  0  0  0  0  0  0  0  0  0
  1  2  2  0
  1  3  1  0
  3 20  1  0
  4  5  2  0
  5  1  1  0
  6  5  1  0
  7  6  2  0
  8  7  1  0
  9  8  1  0
 10  9  2  0
 10 11  1  0
 11 12  2  0
 11  7  1  0
 12  4  1  0
 13 12  1  0
 14 15  1  0
 15 16  2  0
 16 17  1  0
 16 23  1  0
 18 17  2  0
 19 18  1  0
 20 19  2  0
 20 15  1  0
 22 21  2  0
 23 22  1  0
 24 23  2  0
 24 25  1  0
 25 26  2  0
 26 21  1  0
  3 27  1  0
  4 28  1  0
  6 29  1  0
  8 30  1  0
  9 31  1  0
 13 32  1  0
 13 33  1  0
 17 34  1  0
 18 35  1  0
 19 36  1  0
 21 37  1  0
 22 38  1  0
 25 39  1  0
M  ISO  8  28  14  29  14  30   9  31  14  34  14  35  14  36  14  37  14
M  ISO  2  38  14  39  14
M  END
>  <minimizedAffinity>  (1) 
-7.48189306

>  <minimizedRMSD>  (1) 
0.0191121809

$$$$
