
     RDKit          3D

 52 56  0  0  0  0  0  0  0  0999 V2000
   39.1590   31.9650   44.9100 C   0  0  0  0  0  0  0  0  0  0  0  0
   38.0690   32.6000   45.0840 O   0  0  0  0  0  0  0  0  0  0  0  0
   39.9030   31.6970   46.0980 N   0  0  0  0  0  0  0  0  0  0  0  0
   38.8850   32.2020   42.5470 C   0  0  0  0  0  0  0  0  0  0  0  0
   39.5510   31.5720   43.5720 C   0  0  0  0  0  0  0  0  0  0  0  0
   40.5260   30.6330   43.3710 C   0  0  0  0  0  0  0  0  0  0  0  0
   40.8690   30.2890   42.0730 C   0  0  0  0  0  0  0  0  0  0  0  0
   41.7740   29.4150   41.5800 N   0  0  0  0  0  0  0  0  0  0  0  0
   41.6770   29.4930   40.2390 C   0  0  0  0  0  0  0  0  0  0  0  0
   40.7420   30.3880   39.8980 N   0  0  0  0  0  0  0  0  0  0  0  0
   40.2100   30.9110   41.0370 C   0  0  0  0  0  0  0  0  0  0  0  0
   39.2250   31.8600   41.2340 C   0  0  0  0  0  0  0  0  0  0  0  0
   38.5470   32.5000   40.1410 N   0  0  0  0  0  0  0  0  0  0  0  0
   37.1240   32.2430   39.9200 C   0  0  0  0  0  0  0  0  0  0  0  0
   36.4620   33.6230   40.0000 C   0  0  0  0  0  0  0  0  0  0  0  0
   36.9680   34.4270   38.8350 C   0  0  0  0  0  0  0  0  0  0  0  0
   38.1790   33.7880   38.1730 C   0  0  0  0  0  0  0  0  0  0  0  0
   39.2080   33.4070   39.2230 C   0  0  0  0  0  0  0  0  0  0  0  0
   38.0670   30.1870   47.4460 F   0  0  0  0  0  0  0  0  0  0  0  0
   38.3620   31.4050   47.9620 C   0  0  0  0  0  0  0  0  0  0  0  0
   37.7430   31.8240   49.1130 C   0  0  0  0  0  0  0  0  0  0  0  0
   38.0940   33.0660   49.5710 C   0  0  0  0  0  0  0  0  0  0  0  0
   39.0050   33.8790   48.9500 C   0  0  0  0  0  0  0  0  0  0  0  0
   39.6110   33.4250   47.7890 C   0  0  0  0  0  0  0  0  0  0  0  0
   39.2880   32.1860   47.2960 C   0  0  0  0  0  0  0  0  0  0  0  0
   36.1300   29.3520   51.4630 C   0  0  0  0  0  0  0  0  0  0  0  0
   37.0820   30.2070   50.8750 C   0  0  0  0  0  0  0  0  0  0  0  0
   36.7790   30.9310   49.7460 C   0  0  0  0  0  0  0  0  0  0  0  0
   35.5330   30.7870   49.2270 N   0  0  0  0  0  0  0  0  0  0  0  0
   34.6170   29.9720   49.7840 C   0  0  0  0  0  0  0  0  0  0  0  0
   34.9180   29.2700   50.8840 N   0  0  0  0  0  0  0  0  0  0  0  0
   40.8030   31.1961   46.0944 H   0  0  0  0  0  0  0  0  0  0  0  0
   38.1079   32.9526   42.7535 H   0  0  0  0  0  0  0  0  0  0  0  0
   41.0296   30.1587   44.2262 H   0  0  0  0  0  0  0  0  0  0  0  0
   42.4096   28.8111   42.1206 H   0  0  0  0  0  0  0  0  0  0  0  0
   42.2781   28.9070   39.5281 H   0  0  0  0  0  0  0  0  0  0  0  0
   36.7250   31.5757   40.6981 H   0  0  0  0  0  0  0  0  0  0  0  0
   36.9356   31.7464   38.9567 H   0  0  0  0  0  0  0  0  0  0  0  0
   35.3684   33.5204   39.9405 H   0  0  0  0  0  0  0  0  0  0  0  0
   36.7056   34.1183   40.9515 H   0  0  0  0  0  0  0  0  0  0  0  0
   36.1633   34.5149   38.0901 H   0  0  0  0  0  0  0  0  0  0  0  0
   37.2742   35.4128   39.2151 H   0  0  0  0  0  0  0  0  0  0  0  0
   37.8625   32.8855   37.6296 H   0  0  0  0  0  0  0  0  0  0  0  0
   38.6284   34.5081   37.4734 H   0  0  0  0  0  0  0  0  0  0  0  0
   40.0668   32.9086   38.7495 H   0  0  0  0  0  0  0  0  0  0  0  0
   39.5870   34.2963   39.7480 H   0  0  0  0  0  0  0  0  0  0  0  0
   37.6163   33.4323   50.4917 H   0  0  0  0  0  0  0  0  0  0  0  0
   39.2498   34.8687   49.3629 H   0  0  0  0  0  0  0  0  0  0  0  0
   40.3463   34.0542   47.2661 H   0  0  0  0  0  0  0  0  0  0  0  0
   36.3691   28.7705   52.3656 H   0  0  0  0  0  0  0  0  0  0  0  0
   38.0817   30.2969   51.3250 H   0  0  0  0  0  0  0  0  0  0  0  0
   33.6174   29.8825   49.3336 H   0  0  0  0  0  0  0  0  0  0  0  0
  1  2  2  0
  1  3  1  0
  3 25  1  0
  4  5  2  0
  5  1  1  0
  6  5  1  0
  7  6  2  0
  8  7  1  0
  9  8  1  0
 10  9  2  0
 10 11  1  0
 11 12  2  0
 11  7  1  0
 12  4  1  0
 13 12  1  0
 14 15  1  0
 14 13  1  0
 16 15  1  0
 17 16  1  0
 17 18  1  0
 18 13  1  0
 19 20  1  0
 20 21  2  0
 21 22  1  0
 21 28  1  0
 23 22  2  0
 24 23  1  0
 25 24  2  0
 25 20  1  0
 27 26  2  0
 28 27  1  0
 29 28  2  0
 29 30  1  0
 30 31  2  0
 31 26  1  0
  3 32  1  0
  4 33  1  0
  6 34  1  0
  8 35  1  0
  9 36  1  0
 14 37  1  0
 14 38  1  0
 15 39  1  0
 15 40  1  0
 16 41  1  0
 16 42  1  0
 17 43  1  0
 17 44  1  0
 18 45  1  0
 18 46  1  0
 22 47  1  0
 23 48  1  0
 24 49  1  0
 26 50  1  0
 27 51  1  0
 30 52  1  0
M  ISO  8  33  14  34  14  35   9  36  14  37  13  38  13  39  13  40  13
M  ISO  8  41  13  42  13  43  13  44  13  45  13  46  13  47  14  48  14
M  ISO  4  49  14  50  14  51  14  52  14
M  END
>  <minimizedAffinity>  (1) 
-7.38625431

>  <minimizedRMSD>  (1) 
0.456293017

$$$$
