
     RDKit          3D

 41 44  0  0  0  0  0  0  0  0999 V2000
   39.0860   31.9030   44.9660 C   0  0  0  0  0  0  0  0  0  0  0  0
   37.9940   32.4970   45.1410 O   0  0  0  0  0  0  0  0  0  0  0  0
   39.8580   31.6680   46.1560 N   0  0  0  0  0  0  0  0  0  0  0  0
   38.7900   32.0700   42.5940 C   0  0  0  0  0  0  0  0  0  0  0  0
   39.4940   31.5050   43.6390 C   0  0  0  0  0  0  0  0  0  0  0  0
   40.5180   30.6210   43.4300 C   0  0  0  0  0  0  0  0  0  0  0  0
   40.8780   30.2660   42.1440 C   0  0  0  0  0  0  0  0  0  0  0  0
   41.8250   29.4370   41.6680 N   0  0  0  0  0  0  0  0  0  0  0  0
   41.7210   29.4770   40.3280 C   0  0  0  0  0  0  0  0  0  0  0  0
   40.7270   30.3150   39.9760 N   0  0  0  0  0  0  0  0  0  0  0  0
   40.1730   30.8310   41.1120 C   0  0  0  0  0  0  0  0  0  0  0  0
   39.1410   31.7220   41.2960 C   0  0  0  0  0  0  0  0  0  0  0  0
   38.4760   33.7010   40.2260 C   0  0  0  0  0  0  0  0  0  0  0  0
   39.0780   34.1340   41.2650 O   0  0  0  0  0  0  0  0  0  0  0  0
   38.4630   32.2610   40.1580 N   0  0  0  0  0  0  0  0  0  0  0  0
   38.0350   30.1700   47.5070 F   0  0  0  0  0  0  0  0  0  0  0  0
   38.3280   31.4050   48.0170 C   0  0  0  0  0  0  0  0  0  0  0  0
   37.7000   31.8190   49.1610 C   0  0  0  0  0  0  0  0  0  0  0  0
   38.0390   33.0620   49.6160 C   0  0  0  0  0  0  0  0  0  0  0  0
   38.9460   33.8770   48.9950 C   0  0  0  0  0  0  0  0  0  0  0  0
   39.5620   33.4290   47.8390 C   0  0  0  0  0  0  0  0  0  0  0  0
   39.2470   32.1790   47.3480 C   0  0  0  0  0  0  0  0  0  0  0  0
   36.0940   29.3260   51.5030 C   0  0  0  0  0  0  0  0  0  0  0  0
   37.0320   30.1850   50.9120 C   0  0  0  0  0  0  0  0  0  0  0  0
   36.7410   30.9200   49.7920 C   0  0  0  0  0  0  0  0  0  0  0  0
   35.4800   30.7640   49.2870 N   0  0  0  0  0  0  0  0  0  0  0  0
   34.5820   29.9460   49.8460 C   0  0  0  0  0  0  0  0  0  0  0  0
   34.8750   29.2400   50.9310 N   0  0  0  0  0  0  0  0  0  0  0  0
   40.7644   31.1787   46.1524 H   0  0  0  0  0  0  0  0  0  0  0  0
   37.9708   32.7788   42.7850 H   0  0  0  0  0  0  0  0  0  0  0  0
   41.0559   30.1920   44.2883 H   0  0  0  0  0  0  0  0  0  0  0  0
   42.4954   28.8827   42.2197 H   0  0  0  0  0  0  0  0  0  0  0  0
   42.3516   28.9115   39.6262 H   0  0  0  0  0  0  0  0  0  0  0  0
   38.0185   34.3534   39.4676 H   0  0  0  0  0  0  0  0  0  0  0  0
   38.0316   31.7057   39.4054 H   0  0  0  0  0  0  0  0  0  0  0  0
   37.5554   33.4283   50.5336 H   0  0  0  0  0  0  0  0  0  0  0  0
   39.1812   34.8696   49.4066 H   0  0  0  0  0  0  0  0  0  0  0  0
   40.2945   34.0628   47.3178 H   0  0  0  0  0  0  0  0  0  0  0  0
   36.3434   28.7427   52.4016 H   0  0  0  0  0  0  0  0  0  0  0  0
   38.0324   30.2717   51.3612 H   0  0  0  0  0  0  0  0  0  0  0  0
   33.5813   29.8565   49.3981 H   0  0  0  0  0  0  0  0  0  0  0  0
  1  2  2  0
  1  3  1  0
  3 22  1  0
  4  5  2  0
  5  1  1  0
  6  5  1  0
  7  6  2  0
  8  7  1  0
  9  8  1  0
 10  9  2  0
 10 11  1  0
 11 12  2  0
 11  7  1  0
 12  4  1  0
 13 14  2  0
 15 13  1  0
 15 12  1  0
 16 17  1  0
 17 18  2  0
 18 19  1  0
 18 25  1  0
 20 19  2  0
 21 20  1  0
 22 21  2  0
 22 17  1  0
 24 23  2  0
 25 24  1  0
 26 25  2  0
 26 27  1  0
 27 28  2  0
 28 23  1  0
  3 29  1  0
  4 30  1  0
  6 31  1  0
  8 32  1  0
  9 33  1  0
 13 34  1  0
 15 35  1  0
 19 36  1  0
 20 37  1  0
 21 38  1  0
 23 39  1  0
 24 40  1  0
 27 41  1  0
M  ISO  8  30  14  31  14  32   9  33  14  34   6  36  14  37  14  38  14
M  ISO  3  39  14  40  14  41  14
M  END
>  <minimizedAffinity>  (1) 
-7.29247665

>  <minimizedRMSD>  (1) 
0.366851866

$$$$
