
     RDKit          3D

 27 29  0  0  1  0  0  0  0  0999 V2000
   38.7770   32.3840   48.4830 C   0  0  0  0  0  0  0  0  0  0  0  0
   37.2050   30.0680   50.9760 C   0  0  0  0  0  0  0  0  0  0  0  0
   38.1450   30.9220   50.3590 C   0  0  0  0  0  0  0  0  0  0  0  0
   37.8070   31.4870   49.1470 C   0  0  0  0  0  0  0  0  0  0  0  0
   36.6040   31.1980   48.6190 N   0  0  0  0  0  0  0  0  0  0  0  0
   35.7120   30.3820   49.2160 C   0  0  0  0  0  0  0  0  0  0  0  0
   36.0240   29.8130   50.4090 N   0  0  0  0  0  0  0  0  0  0  0  0
   38.7080   32.3290   46.9960 C   0  0  1  0  0  0  0  0  0  0  0  0
   39.8870   33.0270   46.3080 C   0  0  0  0  0  0  0  0  0  0  0  0
   39.6310   31.5590   46.1530 C   0  0  2  0  0  0  0  0  0  0  0  0
   39.1600   31.1760   44.7580 C   0  0  0  0  0  0  0  0  0  0  0  0
   39.0630   29.7520   44.3770 C   0  0  0  0  0  0  0  0  0  0  0  0
   40.1780   30.5650   43.8590 C   0  0  0  0  0  0  0  0  0  0  0  0
   38.5743   33.4164   48.8040 H   0  0  0  0  0  0  0  0  0  0  0  0
   39.7833   32.0492   48.7751 H   0  0  0  0  0  0  0  0  0  0  0  0
   37.4508   29.6039   51.9426 H   0  0  0  0  0  0  0  0  0  0  0  0
   39.1168   31.1303   50.8303 H   0  0  0  0  0  0  0  0  0  0  0  0
   34.7407   30.1791   48.7412 H   0  0  0  0  0  0  0  0  0  0  0  0
   37.6084   32.3536   47.0148 H   0  0  0  0  0  0  0  0  0  0  0  0
   39.7121   33.7135   45.4665 H   0  0  0  0  0  0  0  0  0  0  0  0
   40.7330   33.6514   46.6312 H   0  0  0  0  0  0  0  0  0  0  0  0
   40.1982   30.6332   46.3299 H   0  0  0  0  0  0  0  0  0  0  0  0
   38.4598   32.0234   44.7162 H   0  0  0  0  0  0  0  0  0  0  0  0
   39.2564   28.9697   45.1257 H   0  0  0  0  0  0  0  0  0  0  0  0
   38.2843   29.1244   43.9189 H   0  0  0  0  0  0  0  0  0  0  0  0
   41.2013   30.3919   44.2235 H   0  0  0  0  0  0  0  0  0  0  0  0
   40.5741   30.7971   42.8594 H   0  0  0  0  0  0  0  0  0  0  0  0
  1  4  1  0
  3  2  2  0
  4  3  1  0
  5  4  2  0
  5  6  1  0
  6  7  2  0
  7  2  1  0
  8  1  1  0
  9  8  1  0
 10  9  1  0
 10  8  1  0
 11 10  1  0
 12 11  1  0
 13 12  1  0
 13 11  1  0
  1 14  1  0
  1 15  1  0
  2 16  1  0
  3 17  1  0
  6 18  1  0
  8 19  1  6
  9 20  1  0
  9 21  1  0
 10 22  1  1
 11 23  1  0
 12 24  1  0
 12 25  1  0
 13 26  1  0
 13 27  1  0
M  ISO  8  14   8  15   8  16  14  17  14  18  14  19  13  20  13  21  13
M  ISO  6  22  13  23  13  24  13  25  13  26  13  27  13
M  END
>  <minimizedAffinity>  (1) 
-4.54372406

>  <minimizedRMSD>  (1) 
0.893982053

$$$$
