
     RDKit          3D

 51 55  0  0  1  0  0  0  0  0999 V2000
   39.2450   31.8770   44.9490 C   0  0  0  0  0  0  0  0  0  0  0  0
   38.1490   32.5300   45.0780 O   0  0  0  0  0  0  0  0  0  0  0  0
   39.9380   31.6190   46.1520 N   0  0  0  0  0  0  0  0  0  0  0  0
   39.0770   32.1290   42.5670 C   0  0  0  0  0  0  0  0  0  0  0  0
   39.6720   31.4680   43.6250 C   0  0  0  0  0  0  0  0  0  0  0  0
   40.6030   30.4910   43.4630 C   0  0  0  0  0  0  0  0  0  0  0  0
   40.9860   30.1270   42.1800 C   0  0  0  0  0  0  0  0  0  0  0  0
   41.8570   29.2220   41.7130 N   0  0  0  0  0  0  0  0  0  0  0  0
   41.8390   29.2840   40.3950 C   0  0  0  0  0  0  0  0  0  0  0  0
   40.9580   30.2260   40.0110 N   0  0  0  0  0  0  0  0  0  0  0  0
   40.3930   30.7860   41.1150 C   0  0  0  0  0  0  0  0  0  0  0  0
   39.4450   31.7840   41.2610 C   0  0  0  0  0  0  0  0  0  0  0  0
   38.8740   32.4210   40.1920 O   0  0  0  0  0  0  0  0  0  0  0  0
   39.0030   34.0630   38.6020 N   0  0  0  0  0  0  0  0  0  0  0  0
   38.6780   33.7660   39.9730 C   0  0  1  0  0  0  0  0  0  0  0  0
   37.2040   34.0740   40.1670 C   0  0  0  0  0  0  0  0  0  0  0  0
   36.5110   33.1460   39.3970 O   0  0  0  0  0  0  0  0  0  0  0  0
   36.7090   33.3250   38.0410 C   0  0  0  0  0  0  0  0  0  0  0  0
   37.9350   34.0690   37.6770 C   0  0  0  0  0  0  0  0  0  0  0  0
   38.1050   30.1420   47.5010 F   0  0  0  0  0  0  0  0  0  0  0  0
   38.3660   31.3890   47.9930 C   0  0  0  0  0  0  0  0  0  0  0  0
   37.7170   31.8330   49.1090 C   0  0  0  0  0  0  0  0  0  0  0  0
   38.0310   33.0920   49.5420 C   0  0  0  0  0  0  0  0  0  0  0  0
   38.9460   33.8950   48.9110 C   0  0  0  0  0  0  0  0  0  0  0  0
   39.5950   33.4220   47.7780 C   0  0  0  0  0  0  0  0  0  0  0  0
   39.2920   32.1510   47.3210 C   0  0  0  0  0  0  0  0  0  0  0  0
   36.0850   29.3550   51.4690 C   0  0  0  0  0  0  0  0  0  0  0  0
   37.0570   30.2130   50.8850 C   0  0  0  0  0  0  0  0  0  0  0  0
   36.7510   30.9390   49.7460 C   0  0  0  0  0  0  0  0  0  0  0  0
   35.4940   30.7890   49.2260 N   0  0  0  0  0  0  0  0  0  0  0  0
   34.5790   29.9760   49.7830 C   0  0  0  0  0  0  0  0  0  0  0  0
   34.8690   29.2760   50.8790 N   0  0  0  0  0  0  0  0  0  0  0  0
   40.8253   31.0973   46.1886 H   0  0  0  0  0  0  0  0  0  0  0  0
   38.3269   32.9130   42.7481 H   0  0  0  0  0  0  0  0  0  0  0  0
   41.0474   29.9949   44.3384 H   0  0  0  0  0  0  0  0  0  0  0  0
   42.4378   28.5898   42.2821 H   0  0  0  0  0  0  0  0  0  0  0  0
   42.4467   28.6649   39.7186 H   0  0  0  0  0  0  0  0  0  0  0  0
   39.4378   34.9965   38.5808 H   0  0  0  0  0  0  0  0  0  0  0  0
   39.3022   34.3540   40.6619 H   0  0  0  0  0  0  0  0  0  0  0  0
   36.9290   33.9717   41.2272 H   0  0  0  0  0  0  0  0  0  0  0  0
   36.9658   35.1045   39.8649 H   0  0  0  0  0  0  0  0  0  0  0  0
   36.7610   32.3320   37.5705 H   0  0  0  0  0  0  0  0  0  0  0  0
   35.8649   33.9349   37.6868 H   0  0  0  0  0  0  0  0  0  0  0  0
   38.3121   33.6416   36.7362 H   0  0  0  0  0  0  0  0  0  0  0  0
   37.6178   35.1209   37.6236 H   0  0  0  0  0  0  0  0  0  0  0  0
   37.5254   33.4787   50.4391 H   0  0  0  0  0  0  0  0  0  0  0  0
   39.1633   34.9016   49.2976 H   0  0  0  0  0  0  0  0  0  0  0  0
   40.3350   34.0449   47.2542 H   0  0  0  0  0  0  0  0  0  0  0  0
   36.3143   28.7726   52.3735 H   0  0  0  0  0  0  0  0  0  0  0  0
   38.0550   30.3004   51.3393 H   0  0  0  0  0  0  0  0  0  0  0  0
   33.5809   29.8880   49.3291 H   0  0  0  0  0  0  0  0  0  0  0  0
  1  2  2  0
  1  3  1  0
  3 26  1  0
  4  5  2  0
  5  1  1  0
  6  5  1  0
  7  6  2  0
  8  7  1  0
  9  8  1  0
 10  9  2  0
 10 11  1  0
 11 12  2  0
 11  7  1  0
 12  4  1  0
 13 12  1  0
 14 15  1  0
 15 16  1  0
 15 13  1  0
 17 16  1  0
 18 17  1  0
 19 18  1  0
 19 14  1  0
 20 21  1  0
 21 22  2  0
 22 23  1  0
 22 29  1  0
 24 23  2  0
 25 24  1  0
 26 25  2  0
 26 21  1  0
 28 27  2  0
 29 28  1  0
 30 29  2  0
 30 31  1  0
 31 32  2  0
 32 27  1  0
  3 33  1  0
  4 34  1  0
  6 35  1  0
  8 36  1  0
  9 37  1  0
 14 38  1  0
 15 39  1  1
 16 40  1  0
 16 41  1  0
 18 42  1  0
 18 43  1  0
 19 44  1  0
 19 45  1  0
 23 46  1  0
 24 47  1  0
 25 48  1  0
 27 49  1  0
 28 50  1  0
 31 51  1  0
M  ISO  8  34  14  35  14  36   9  37  14  38   5  39  13  40  13  41  13
M  ISO  8  42  13  43  13  44  13  45  13  46  14  47  14  48  14  49  14
M  ISO  2  50  14  51  14
M  END
>  <minimizedAffinity>  (1) 
-7.31910563

>  <minimizedRMSD>  (1) 
1.61016178

$$$$
