
     RDKit          3D

 44 47  0  0  0  0  0  0  0  0999 V2000
   39.2760   31.9000   44.9520 C   0  0  0  0  0  0  0  0  0  0  0  0
   38.1900   32.5600   45.0650 O   0  0  0  0  0  0  0  0  0  0  0  0
   39.9540   31.6340   46.1590 N   0  0  0  0  0  0  0  0  0  0  0  0
   39.1780   32.1990   42.5740 C   0  0  0  0  0  0  0  0  0  0  0  0
   39.7080   31.4940   43.6240 C   0  0  0  0  0  0  0  0  0  0  0  0
   40.6020   30.4620   43.4680 C   0  0  0  0  0  0  0  0  0  0  0  0
   40.9980   30.1050   42.1870 C   0  0  0  0  0  0  0  0  0  0  0  0
   41.8330   29.1770   41.7330 N   0  0  0  0  0  0  0  0  0  0  0  0
   41.8580   29.2690   40.3950 C   0  0  0  0  0  0  0  0  0  0  0  0
   41.0290   30.2620   40.0140 N   0  0  0  0  0  0  0  0  0  0  0  0
   40.4690   30.8130   41.1210 C   0  0  0  0  0  0  0  0  0  0  0  0
   39.5620   31.8590   41.2610 C   0  0  0  0  0  0  0  0  0  0  0  0
   39.0460   32.5460   40.2020 O   0  0  0  0  0  0  0  0  0  0  0  0
   38.5210   33.8360   40.2780 C   0  0  0  0  0  0  0  0  0  0  0  0
   37.1680   34.0180   39.6650 C   0  0  0  0  0  0  0  0  0  0  0  0
   38.1130   30.1480   47.4930 F   0  0  0  0  0  0  0  0  0  0  0  0
   38.3680   31.3920   47.9870 C   0  0  0  0  0  0  0  0  0  0  0  0
   37.7150   31.8460   49.1000 C   0  0  0  0  0  0  0  0  0  0  0  0
   38.0190   33.0990   49.5380 C   0  0  0  0  0  0  0  0  0  0  0  0
   38.9420   33.9020   48.9110 C   0  0  0  0  0  0  0  0  0  0  0  0
   39.5900   33.4220   47.7870 C   0  0  0  0  0  0  0  0  0  0  0  0
   39.2950   32.1460   47.3210 C   0  0  0  0  0  0  0  0  0  0  0  0
   36.0790   29.3520   51.4490 C   0  0  0  0  0  0  0  0  0  0  0  0
   37.0350   30.2170   50.8630 C   0  0  0  0  0  0  0  0  0  0  0  0
   36.7410   30.9430   49.7270 C   0  0  0  0  0  0  0  0  0  0  0  0
   35.4900   30.7870   49.1990 N   0  0  0  0  0  0  0  0  0  0  0  0
   34.5810   29.9670   49.7520 C   0  0  0  0  0  0  0  0  0  0  0  0
   34.8680   29.2690   50.8500 N   0  0  0  0  0  0  0  0  0  0  0  0
   40.8441   31.1173   46.2006 H   0  0  0  0  0  0  0  0  0  0  0  0
   38.4646   33.0168   42.7535 H   0  0  0  0  0  0  0  0  0  0  0  0
   40.9972   29.9276   44.3445 H   0  0  0  0  0  0  0  0  0  0  0  0
   42.3658   28.5069   42.3057 H   0  0  0  0  0  0  0  0  0  0  0  0
   42.4558   28.6387   39.7202 H   0  0  0  0  0  0  0  0  0  0  0  0
   38.4515   34.1115   41.3407 H   0  0  0  0  0  0  0  0  0  0  0  0
   39.2037   34.4745   39.6981 H   0  0  0  0  0  0  0  0  0  0  0  0
   36.4155   34.1192   40.4609 H   0  0  0  0  0  0  0  0  0  0  0  0
   37.1667   34.9244   39.0418 H   0  0  0  0  0  0  0  0  0  0  0  0
   36.9273   33.1441   39.0418 H   0  0  0  0  0  0  0  0  0  0  0  0
   37.5047   33.4847   50.4306 H   0  0  0  0  0  0  0  0  0  0  0  0
   39.1615   34.9087   49.2963 H   0  0  0  0  0  0  0  0  0  0  0  0
   40.3324   34.0448   47.2664 H   0  0  0  0  0  0  0  0  0  0  0  0
   36.3111   28.7713   52.3540 H   0  0  0  0  0  0  0  0  0  0  0  0
   38.0302   30.3119   51.3219 H   0  0  0  0  0  0  0  0  0  0  0  0
   33.5864   29.8705   49.2922 H   0  0  0  0  0  0  0  0  0  0  0  0
  1  2  2  0
  1  3  1  0
  3 22  1  0
  4  5  2  0
  5  1  1  0
  6  5  1  0
  7  6  2  0
  8  7  1  0
  9  8  1  0
 10  9  2  0
 10 11  1  0
 11 12  2  0
 11  7  1  0
 12  4  1  0
 13 14  1  0
 13 12  1  0
 15 14  1  0
 16 17  1  0
 17 18  2  0
 18 19  1  0
 18 25  1  0
 20 19  2  0
 21 20  1  0
 22 21  2  0
 22 17  1  0
 24 23  2  0
 25 24  1  0
 26 25  2  0
 26 27  1  0
 27 28  2  0
 28 23  1  0
  3 29  1  0
  4 30  1  0
  6 31  1  0
  8 32  1  0
  9 33  1  0
 14 34  1  0
 14 35  1  0
 15 36  1  0
 15 37  1  0
 15 38  1  0
 19 39  1  0
 20 40  1  0
 21 41  1  0
 23 42  1  0
 24 43  1  0
 27 44  1  0
M  ISO  8  30  14  31  14  32   9  33  14  34   8  35   8  36   8  37   8
M  ISO  7  38   8  39  14  40  14  41  14  42  14  43  14  44  14
M  END
>  <minimizedAffinity>  (1) 
-7.09279108

>  <minimizedRMSD>  (1) 
0.141303271

$$$$
