
     RDKit          3D

 30 33  0  0  0  0  0  0  0  0999 V2000
   38.1230   31.0990   48.0100 C   0  0  0  0  0  0  0  0  0  0  0  0
   38.8820   32.1830   47.8160 C   0  0  0  0  0  0  0  0  0  0  0  0
   39.3580   32.4900   46.5970 C   0  0  0  0  0  0  0  0  0  0  0  0
   39.0180   31.6250   45.5620 C   0  0  0  0  0  0  0  0  0  0  0  0
   37.9890   30.3600   46.4280 S   0  0  0  0  0  0  0  0  0  0  0  0
   38.8230   32.6460   43.3740 C   0  0  0  0  0  0  0  0  0  0  0  0
   39.3380   31.6340   44.1560 C   0  0  0  0  0  0  0  0  0  0  0  0
   40.1360   30.6280   43.6810 C   0  0  0  0  0  0  0  0  0  0  0  0
   40.4620   30.6090   42.3300 C   0  0  0  0  0  0  0  0  0  0  0  0
   41.2110   29.7620   41.6000 N   0  0  0  0  0  0  0  0  0  0  0  0
   41.1920   30.2230   40.3160 C   0  0  0  0  0  0  0  0  0  0  0  0
   40.4300   31.3480   40.2760 N   0  0  0  0  0  0  0  0  0  0  0  0
   39.9580   31.6180   41.5210 C   0  0  0  0  0  0  0  0  0  0  0  0
   39.1550   32.6160   42.0330 C   0  0  0  0  0  0  0  0  0  0  0  0
   37.3580   30.2170   51.5850 C   0  0  0  0  0  0  0  0  0  0  0  0
   38.0400   30.7800   50.4900 C   0  0  0  0  0  0  0  0  0  0  0  0
   37.4990   30.5630   49.2140 C   0  0  0  0  0  0  0  0  0  0  0  0
   36.3710   29.8380   49.0930 N   0  0  0  0  0  0  0  0  0  0  0  0
   35.7430   29.3140   50.1590 C   0  0  0  0  0  0  0  0  0  0  0  0
   36.2330   29.5020   51.3920 N   0  0  0  0  0  0  0  0  0  0  0  0
   39.1210   32.8349   48.6692 H   0  0  0  0  0  0  0  0  0  0  0  0
   39.9836   33.3786   46.4268 H   0  0  0  0  0  0  0  0  0  0  0  0
   38.1823   33.4349   43.7950 H   0  0  0  0  0  0  0  0  0  0  0  0
   40.5131   29.8472   44.3578 H   0  0  0  0  0  0  0  0  0  0  0  0
   41.7041   28.9259   41.9446 H   0  0  0  0  0  0  0  0  0  0  0  0
   41.7058   29.7627   39.4591 H   0  0  0  0  0  0  0  0  0  0  0  0
   38.7729   33.4004   41.3631 H   0  0  0  0  0  0  0  0  0  0  0  0
   37.7460   30.3618   52.6041 H   0  0  0  0  0  0  0  0  0  0  0  0
   38.9601   31.3665   50.6292 H   0  0  0  0  0  0  0  0  0  0  0  0
   34.8226   28.7281   50.0190 H   0  0  0  0  0  0  0  0  0  0  0  0
  1 17  1  0
  2  1  2  0
  3  2  1  0
  4  5  1  0
  4  3  2  0
  5  1  1  0
  6  7  2  0
  7  4  1  0
  8  7  1  0
  9  8  2  0
 10  9  1  0
 11 10  1  0
 12 11  2  0
 12 13  1  0
 13 14  2  0
 13  9  1  0
 14  6  1  0
 16 15  2  0
 17 16  1  0
 18 17  2  0
 18 19  1  0
 19 20  2  0
 20 15  1  0
  2 21  1  0
  3 22  1  0
  6 23  1  0
  8 24  1  0
 10 25  1  0
 11 26  1  0
 14 27  1  0
 15 28  1  0
 16 29  1  0
 19 30  1  0
M  ISO  8  21  14  22  14  23  14  24  14  25   9  26  14  27  14  28  14
M  ISO  2  29  14  30  14
M  END
>  <minimizedAffinity>  (1) 
-5.67236423

>  <minimizedRMSD>  (1) 
1.38349831

$$$$
