
     RDKit          3D

 30 32  0  0  0  0  0  0  0  0999 V2000
   38.0160   31.4970   48.6830 C   0  0  0  0  0  0  0  0  0  0  0  0
   38.6200   32.6810   48.7990 C   0  0  0  0  0  0  0  0  0  0  0  0
   39.2930   33.2220   47.7740 C   0  0  0  0  0  0  0  0  0  0  0  0
   39.3190   32.4780   46.6020 C   0  0  0  0  0  0  0  0  0  0  0  0
   38.3420   30.9920   47.0520 S   0  0  0  0  0  0  0  0  0  0  0  0
   36.8730   29.6580   51.7540 C   0  0  0  0  0  0  0  0  0  0  0  0
   37.7200   30.3980   50.9140 C   0  0  0  0  0  0  0  0  0  0  0  0
   37.2350   30.7270   49.6600 C   0  0  0  0  0  0  0  0  0  0  0  0
   35.9980   30.3310   49.3080 N   0  0  0  0  0  0  0  0  0  0  0  0
   35.2030   29.6260   50.1190 C   0  0  0  0  0  0  0  0  0  0  0  0
   35.6430   29.2930   51.3370 N   0  0  0  0  0  0  0  0  0  0  0  0
   39.8700   32.5590   45.2270 C   0  0  0  0  0  0  0  0  0  0  0  0
   40.4020   31.2180   44.7510 C   0  0  0  0  0  0  0  0  0  0  0  0
   40.4400   31.3610   43.2450 C   0  0  0  0  0  0  0  0  0  0  0  0
   39.5150   32.5290   42.9230 C   0  0  0  0  0  0  0  0  0  0  0  0
   38.7610   32.7950   44.2310 C   0  0  0  0  0  0  0  0  0  0  0  0
   38.5645   33.2236   49.7543 H   0  0  0  0  0  0  0  0  0  0  0  0
   39.7949   34.1974   47.8563 H   0  0  0  0  0  0  0  0  0  0  0  0
   37.2149   29.3735   52.7601 H   0  0  0  0  0  0  0  0  0  0  0  0
   38.7258   30.7033   51.2383 H   0  0  0  0  0  0  0  0  0  0  0  0
   34.1985   29.3233   49.7883 H   0  0  0  0  0  0  0  0  0  0  0  0
   40.6344   33.3486   45.2739 H   0  0  0  0  0  0  0  0  0  0  0  0
   41.4087   31.0305   45.1527 H   0  0  0  0  0  0  0  0  0  0  0  0
   39.7829   30.3716   45.0833 H   0  0  0  0  0  0  0  0  0  0  0  0
   41.4637   31.5764   42.9051 H   0  0  0  0  0  0  0  0  0  0  0  0
   40.1220   30.4373   42.7394 H   0  0  0  0  0  0  0  0  0  0  0  0
   40.0960   33.4134   42.6226 H   0  0  0  0  0  0  0  0  0  0  0  0
   38.8357   32.3058   42.0871 H   0  0  0  0  0  0  0  0  0  0  0  0
   38.3808   33.8260   44.2804 H   0  0  0  0  0  0  0  0  0  0  0  0
   37.8639   32.1766   44.3821 H   0  0  0  0  0  0  0  0  0  0  0  0
  1  2  2  0
  1  8  1  0
  3  2  1  0
  4  5  1  0
  4  3  2  0
  5  1  1  0
  7  6  2  0
  8  7  1  0
  9  8  2  0
  9 10  1  0
 10 11  2  0
 11  6  1  0
 12  4  1  0
 13 12  1  0
 14 13  1  0
 15 14  1  0
 15 16  1  0
 16 12  1  0
  2 17  1  0
  3 18  1  0
  6 19  1  0
  7 20  1  0
 10 21  1  0
 12 22  1  0
 13 23  1  0
 13 24  1  0
 14 25  1  0
 14 26  1  0
 15 27  1  0
 15 28  1  0
 16 29  1  0
 16 30  1  0
M  ISO  8  17  14  18  14  19  14  20  14  21  14  22  13  23  13  24  13
M  ISO  6  25  13  26  13  27  13  28  13  29  13  30  13
M  END
>  <minimizedAffinity>  (1) 
-5.52503872

>  <minimizedRMSD>  (1) 
1.39712954

$$$$
