
     RDKit          3D

 20 21  0  0  0  0  0  0  0  0999 V2000
   38.0820   31.5580   48.6240 C   0  0  0  0  0  0  0  0  0  0  0  0
   38.6590   32.7560   48.7610 C   0  0  0  0  0  0  0  0  0  0  0  0
   39.3580   33.3030   47.7560 C   0  0  0  0  0  0  0  0  0  0  0  0
   39.4420   32.5580   46.5890 C   0  0  0  0  0  0  0  0  0  0  0  0
   38.4730   31.0460   47.0030 S   0  0  0  0  0  0  0  0  0  0  0  0
   36.8780   29.6850   51.6550 C   0  0  0  0  0  0  0  0  0  0  0  0
   37.7310   30.4370   50.8410 C   0  0  0  0  0  0  0  0  0  0  0  0
   37.2810   30.7740   49.5690 C   0  0  0  0  0  0  0  0  0  0  0  0
   36.0580   30.3630   49.1830 N   0  0  0  0  0  0  0  0  0  0  0  0
   35.2570   29.6440   49.9760 C   0  0  0  0  0  0  0  0  0  0  0  0
   35.6690   29.3070   51.2100 N   0  0  0  0  0  0  0  0  0  0  0  0
   40.1080   32.8220   45.2950 C   0  0  0  0  0  0  0  0  0  0  0  0
   40.1070   34.1770   44.9880 F   0  0  0  0  0  0  0  0  0  0  0  0
   39.5430   32.0360   44.3360 F   0  0  0  0  0  0  0  0  0  0  0  0
   41.4500   32.4880   45.4280 F   0  0  0  0  0  0  0  0  0  0  0  0
   38.5590   33.3007   49.7114 H   0  0  0  0  0  0  0  0  0  0  0  0
   39.8382   34.2880   47.8517 H   0  0  0  0  0  0  0  0  0  0  0  0
   37.2001   29.4010   52.6677 H   0  0  0  0  0  0  0  0  0  0  0  0
   38.7240   30.7512   51.1948 H   0  0  0  0  0  0  0  0  0  0  0  0
   34.2649   29.3296   49.6199 H   0  0  0  0  0  0  0  0  0  0  0  0
  1  2  2  0
  1  8  1  0
  3  2  1  0
  4  5  1  0
  4  3  2  0
  5  1  1  0
  7  6  2  0
  8  7  1  0
  9  8  2  0
  9 10  1  0
 10 11  2  0
 11  6  1  0
 12 15  1  0
 12  4  1  0
 13 12  1  0
 14 12  1  0
  2 16  1  0
  3 17  1  0
  6 18  1  0
  7 19  1  0
 10 20  1  0
M  ISO  5  16  14  17  14  18  14  19  14  20  14
M  END
>  <minimizedAffinity>  (1) 
-5.46546078

>  <minimizedRMSD>  (1) 
1.61263096

$$$$
