
     RDKit          3D

 32 34  0  0  0  0  0  0  0  0999 V2000
   37.9020   31.2020   48.1880 C   0  0  0  0  0  0  0  0  0  0  0  0
   38.8160   32.1710   48.0850 C   0  0  0  0  0  0  0  0  0  0  0  0
   39.2400   32.6010   46.8870 C   0  0  0  0  0  0  0  0  0  0  0  0
   38.6820   31.9860   45.7740 C   0  0  0  0  0  0  0  0  0  0  0  0
   37.5220   30.7670   46.5400 S   0  0  0  0  0  0  0  0  0  0  0  0
   37.2340   30.0230   51.6930 C   0  0  0  0  0  0  0  0  0  0  0  0
   37.8790   30.6490   50.6180 C   0  0  0  0  0  0  0  0  0  0  0  0
   37.2940   30.5760   49.3590 C   0  0  0  0  0  0  0  0  0  0  0  0
   36.1340   29.9110   49.2140 N   0  0  0  0  0  0  0  0  0  0  0  0
   35.5260   29.3130   50.2630 C   0  0  0  0  0  0  0  0  0  0  0  0
   36.0730   29.3720   51.4800 N   0  0  0  0  0  0  0  0  0  0  0  0
   38.8390   32.1270   44.3690 N   0  0  0  0  0  0  0  0  0  0  0  0
   37.7150   32.5820   43.5830 C   0  0  0  0  0  0  0  0  0  0  0  0
   37.8410   32.2500   42.1340 C   0  0  0  0  0  0  0  0  0  0  0  0
   39.2750   32.2490   41.6540 C   0  0  0  0  0  0  0  0  0  0  0  0
   40.1370   31.3640   42.4940 C   0  0  0  0  0  0  0  0  0  0  0  0
   40.1730   31.7740   43.9380 C   0  0  0  0  0  0  0  0  0  0  0  0
   39.2282   32.6243   48.9986 H   0  0  0  0  0  0  0  0  0  0  0  0
   39.9907   33.3993   46.7913 H   0  0  0  0  0  0  0  0  0  0  0  0
   37.6711   30.0625   52.7016 H   0  0  0  0  0  0  0  0  0  0  0  0
   38.8272   31.1863   50.7670 H   0  0  0  0  0  0  0  0  0  0  0  0
   34.5776   28.7761   50.1137 H   0  0  0  0  0  0  0  0  0  0  0  0
   36.8013   32.1091   43.9723 H   0  0  0  0  0  0  0  0  0  0  0  0
   37.6791   33.6783   43.6662 H   0  0  0  0  0  0  0  0  0  0  0  0
   37.4131   31.2510   41.9641 H   0  0  0  0  0  0  0  0  0  0  0  0
   37.3039   33.0262   41.5692 H   0  0  0  0  0  0  0  0  0  0  0  0
   39.3028   31.8913   40.6142 H   0  0  0  0  0  0  0  0  0  0  0  0
   39.6625   33.2759   41.7275 H   0  0  0  0  0  0  0  0  0  0  0  0
   39.7494   30.3365   42.4316 H   0  0  0  0  0  0  0  0  0  0  0  0
   41.1632   31.4418   42.1056 H   0  0  0  0  0  0  0  0  0  0  0  0
   40.5469   30.9383   44.5478 H   0  0  0  0  0  0  0  0  0  0  0  0
   40.8399   32.6405   44.0580 H   0  0  0  0  0  0  0  0  0  0  0  0
  1  8  1  0
  2  1  2  0
  3  2  1  0
  4  5  1  0
  4  3  2  0
  5  1  1  0
  7  6  2  0
  8  7  1  0
  9  8  2  0
  9 10  1  0
 10 11  2  0
 11  6  1  0
 12  4  1  0
 13 12  1  0
 14 13  1  0
 15 14  1  0
 15 16  1  0
 16 17  1  0
 17 12  1  0
  2 18  1  0
  3 19  1  0
  6 20  1  0
  7 21  1  0
 10 22  1  0
 13 23  1  0
 13 24  1  0
 14 25  1  0
 14 26  1  0
 15 27  1  0
 15 28  1  0
 16 29  1  0
 16 30  1  0
 17 31  1  0
 17 32  1  0
M  ISO  8  18  14  19  14  20  14  21  14  22  14  23  13  24  13  25  13
M  ISO  7  26  13  27  13  28  13  29  13  30  13  31  13  32  13
M  END
>  <minimizedAffinity>  (1) 
-5.36372662

>  <minimizedRMSD>  (1) 
0.92711091

$$$$
