
     RDKit          3D

 21 22  0  0  1  0  0  0  0  0999 V2000
   38.9150   32.1090   47.9090 C   0  0  0  0  0  0  0  0  0  0  0  0
   37.4930   30.3790   50.9110 C   0  0  0  0  0  0  0  0  0  0  0  0
   38.2750   31.2600   50.1040 C   0  0  0  0  0  0  0  0  0  0  0  0
   38.0950   31.1870   48.7380 C   0  0  0  0  0  0  0  0  0  0  0  0
   37.2200   30.3160   48.2230 N   0  0  0  0  0  0  0  0  0  0  0  0
   36.4910   29.4920   49.0030 C   0  0  0  0  0  0  0  0  0  0  0  0
   36.6350   29.5310   50.3490 N   0  0  0  0  0  0  0  0  0  0  0  0
   38.6410   31.9740   46.4520 C   0  0  1  0  0  0  0  0  0  0  0  0
   39.5780   32.8210   45.5670 C   0  0  0  0  0  0  0  0  0  0  0  0
   39.6090   31.3400   45.5230 C   0  0  1  0  0  0  0  0  0  0  0  0
   40.7030   30.7160   46.0980 O   0  0  0  0  0  0  0  0  0  0  0  0
   38.6965   33.1433   48.2132 H   0  0  0  0  0  0  0  0  0  0  0  0
   39.9714   31.8497   48.0724 H   0  0  0  0  0  0  0  0  0  0  0  0
   37.6006   30.4014   52.0055 H   0  0  0  0  0  0  0  0  0  0  0  0
   38.9898   31.9661   50.5518 H   0  0  0  0  0  0  0  0  0  0  0  0
   35.7796   28.7884   48.5460 H   0  0  0  0  0  0  0  0  0  0  0  0
   37.5650   31.8156   46.6168 H   0  0  0  0  0  0  0  0  0  0  0  0
   39.1720   33.3916   44.7187 H   0  0  0  0  0  0  0  0  0  0  0  0
   40.3167   33.6170   45.7425 H   0  0  0  0  0  0  0  0  0  0  0  0
   39.5205   30.6015   44.7125 H   0  0  0  0  0  0  0  0  0  0  0  0
   40.6270   30.7593   47.0841 H   0  0  0  0  0  0  0  0  0  0  0  0
  1  4  1  0
  3  2  2  0
  4  3  1  0
  5  4  2  0
  5  6  1  0
  6  7  2  0
  7  2  1  0
  8  1  1  0
  9  8  1  0
 10  9  1  0
 10 11  1  0
 10  8  1  0
  1 12  1  0
  1 13  1  0
  2 14  1  0
  3 15  1  0
  6 16  1  0
  8 17  1  1
  9 18  1  0
  9 19  1  0
 10 20  1  6
 11 21  1  0
M  ISO  8  12   8  13   8  14  14  15  14  16  14  17  13  18  13  19  13
M  ISO  2  20  13  21   3
M  END
>  <minimizedAffinity>  (1) 
-4.43551874

>  <minimizedRMSD>  (1) 
0.494079351

$$$$
