
     RDKit          3D

 27 29  0  0  0  0  0  0  0  0999 V2000
   38.1330   31.1300   47.9970 C   0  0  0  0  0  0  0  0  0  0  0  0
   38.9250   32.1990   47.8570 C   0  0  0  0  0  0  0  0  0  0  0  0
   39.3830   32.5590   46.6550 C   0  0  0  0  0  0  0  0  0  0  0  0
   38.9970   31.7690   45.5800 C   0  0  0  0  0  0  0  0  0  0  0  0
   37.9390   30.4860   46.3880 S   0  0  0  0  0  0  0  0  0  0  0  0
   37.3590   30.2080   51.5580 C   0  0  0  0  0  0  0  0  0  0  0  0
   38.0050   30.7980   50.4690 C   0  0  0  0  0  0  0  0  0  0  0  0
   37.5210   30.5560   49.1920 C   0  0  0  0  0  0  0  0  0  0  0  0
   36.4470   29.7620   49.0560 N   0  0  0  0  0  0  0  0  0  0  0  0
   35.8310   29.2010   50.1040 C   0  0  0  0  0  0  0  0  0  0  0  0
   36.2830   29.4200   51.3460 N   0  0  0  0  0  0  0  0  0  0  0  0
   39.2730   31.8160   44.1240 C   0  0  0  0  0  0  0  0  0  0  0  0
   40.0740   30.8060   43.6330 C   0  0  0  0  0  0  0  0  0  0  0  0
   40.3260   30.8520   42.2910 C   0  0  0  0  0  0  0  0  0  0  0  0
   39.7860   31.8750   41.5090 C   0  0  0  0  0  0  0  0  0  0  0  0
   38.9910   32.8590   42.0550 C   0  0  0  0  0  0  0  0  0  0  0  0
   38.7210   32.8310   43.4180 C   0  0  0  0  0  0  0  0  0  0  0  0
   39.2026   32.7890   48.7429 H   0  0  0  0  0  0  0  0  0  0  0  0
   40.0329   33.4366   46.5233 H   0  0  0  0  0  0  0  0  0  0  0  0
   37.7241   30.3840   52.5806 H   0  0  0  0  0  0  0  0  0  0  0  0
   38.8825   31.4435   50.6217 H   0  0  0  0  0  0  0  0  0  0  0  0
   34.9520   28.5590   49.9450 H   0  0  0  0  0  0  0  0  0  0  0  0
   40.4830   30.0155   44.2794 H   0  0  0  0  0  0  0  0  0  0  0  0
   40.9565   30.0805   41.8250 H   0  0  0  0  0  0  0  0  0  0  0  0
   40.0006   31.8958   40.4303 H   0  0  0  0  0  0  0  0  0  0  0  0
   38.5756   33.6559   41.4207 H   0  0  0  0  0  0  0  0  0  0  0  0
   38.0912   33.5942   43.8986 H   0  0  0  0  0  0  0  0  0  0  0  0
  1  8  1  0
  2  1  2  0
  3  2  1  0
  4  5  1  0
  4  3  2  0
  5  1  1  0
  7  6  2  0
  8  7  1  0
  9  8  2  0
  9 10  1  0
 10 11  2  0
 11  6  1  0
 12  4  1  0
 13 12  2  0
 14 13  1  0
 15 16  1  0
 15 14  2  0
 16 17  2  0
 17 12  1  0
  2 18  1  0
  3 19  1  0
  6 20  1  0
  7 21  1  0
 10 22  1  0
 13 23  1  0
 14 24  1  0
 15 25  1  0
 16 26  1  0
 17 27  1  0
M  ISO  8  18  14  19  14  20  14  21  14  22  14  23  14  24  14  25  14
M  ISO  2  26  14  27  14
M  END
>  <minimizedAffinity>  (1) 
-5.32305098

>  <minimizedRMSD>  (1) 
0.763262212

$$$$
