
     RDKit          3D

 23 24  0  0  0  0  0  0  0  0999 V2000
   38.3160   31.3710   48.1280 C   0  0  0  0  0  0  0  0  0  0  0  0
   38.8990   32.5700   48.0940 C   0  0  0  0  0  0  0  0  0  0  0  0
   39.4600   33.0830   46.9950 C   0  0  0  0  0  0  0  0  0  0  0  0
   39.3870   32.2630   45.8850 C   0  0  0  0  0  0  0  0  0  0  0  0
   38.4910   30.7590   46.4930 S   0  0  0  0  0  0  0  0  0  0  0  0
   37.2820   30.1070   51.5180 C   0  0  0  0  0  0  0  0  0  0  0  0
   37.9950   30.8620   50.5710 C   0  0  0  0  0  0  0  0  0  0  0  0
   37.6610   30.6590   49.2230 C   0  0  0  0  0  0  0  0  0  0  0  0
   36.6920   29.7710   48.8980 N   0  0  0  0  0  0  0  0  0  0  0  0
   36.0350   29.0700   49.8350 C   0  0  0  0  0  0  0  0  0  0  0  0
   36.3330   29.2430   51.1380 N   0  0  0  0  0  0  0  0  0  0  0  0
   39.8410   32.3770   44.4950 O   0  0  0  0  0  0  0  0  0  0  0  0
   38.5190   30.9870   42.6880 O   0  0  0  0  0  0  0  0  0  0  0  0
   38.6140   32.3850   43.3020 P   0  0  0  0  0  0  0  0  0  0  0  0
   39.0110   33.5210   42.1030 O   0  0  0  0  0  0  0  0  0  0  0  0
   37.1310   32.8520   43.9930 O   0  0  0  0  0  0  0  0  0  0  0  0
   38.9191   33.1670   49.0177 H   0  0  0  0  0  0  0  0  0  0  0  0
   39.9389   34.0731   46.9755 H   0  0  0  0  0  0  0  0  0  0  0  0
   37.5073   30.2280   52.5879 H   0  0  0  0  0  0  0  0  0  0  0  0
   38.7758   31.5763   50.8713 H   0  0  0  0  0  0  0  0  0  0  0  0
   35.2535   28.3544   49.5397 H   0  0  0  0  0  0  0  0  0  0  0  0
   39.3055   34.3636   42.5313 H   0  0  0  0  0  0  0  0  0  0  0  0
   37.2049   32.8287   44.9800 H   0  0  0  0  0  0  0  0  0  0  0  0
  1  8  1  0
  2  1  2  0
  3  2  1  0
  4  5  1  0
  4  3  2  0
  5  1  1  0
  7  6  2  0
  8  7  1  0
  9  8  2  0
  9 10  1  0
 10 11  2  0
 11  6  1  0
 12  4  1  0
 13 14  2  0
 14 16  1  0
 14 12  1  0
 15 14  1  0
  2 17  1  0
  3 18  1  0
  6 19  1  0
  7 20  1  0
 10 21  1  0
 15 22  1  0
 16 23  1  0
M  ISO  7  17  14  18  14  19  14  20  14  21  14  22   3  23   3
M  END
>  <minimizedAffinity>  (1) 
-5.17188549

>  <minimizedRMSD>  (1) 
0.9306795

$$$$
