
     RDKit          3D

 23 24  0  0  0  0  0  0  0  0999 V2000
   38.0460   31.6870   48.7830 C   0  0  0  0  0  0  0  0  0  0  0  0
   38.6090   32.8850   48.9760 C   0  0  0  0  0  0  0  0  0  0  0  0
   39.3350   33.4710   48.0070 C   0  0  0  0  0  0  0  0  0  0  0  0
   39.4590   32.7640   46.8150 C   0  0  0  0  0  0  0  0  0  0  0  0
   38.4920   31.2260   47.1470 S   0  0  0  0  0  0  0  0  0  0  0  0
   36.8270   29.6250   51.6800 C   0  0  0  0  0  0  0  0  0  0  0  0
   37.6940   30.4200   50.9060 C   0  0  0  0  0  0  0  0  0  0  0  0
   37.2280   30.8600   49.6610 C   0  0  0  0  0  0  0  0  0  0  0  0
   35.9930   30.5120   49.2650 N   0  0  0  0  0  0  0  0  0  0  0  0
   35.1850   29.7520   50.0230 C   0  0  0  0  0  0  0  0  0  0  0  0
   35.6070   29.3140   51.2260 N   0  0  0  0  0  0  0  0  0  0  0  0
   40.1630   33.0830   45.5620 C   0  0  0  0  0  0  0  0  0  0  0  0
   40.8800   31.8170   45.1130 C   0  0  0  0  0  0  0  0  0  0  0  0
   38.4765   33.3978   49.9401 H   0  0  0  0  0  0  0  0  0  0  0  0
   39.8050   34.4553   48.1492 H   0  0  0  0  0  0  0  0  0  0  0  0
   37.1544   29.2574   52.6637 H   0  0  0  0  0  0  0  0  0  0  0  0
   38.6991   30.6853   51.2657 H   0  0  0  0  0  0  0  0  0  0  0  0
   34.1801   29.4874   49.6623 H   0  0  0  0  0  0  0  0  0  0  0  0
   39.4414   33.3997   44.7945 H   0  0  0  0  0  0  0  0  0  0  0  0
   40.8792   33.9038   45.7148 H   0  0  0  0  0  0  0  0  0  0  0  0
   41.2034   31.2460   45.9959 H   0  0  0  0  0  0  0  0  0  0  0  0
   40.1958   31.2026   44.5094 H   0  0  0  0  0  0  0  0  0  0  0  0
   41.7588   32.0878   44.5094 H   0  0  0  0  0  0  0  0  0  0  0  0
  1  2  2  0
  1  8  1  0
  3  2  1  0
  4  5  1  0
  4  3  2  0
  5  1  1  0
  7  6  2  0
  8  7  1  0
  9  8  2  0
  9 10  1  0
 10 11  2  0
 11  6  1  0
 12  4  1  0
 13 12  1  0
  2 14  1  0
  3 15  1  0
  6 16  1  0
  7 17  1  0
 10 18  1  0
 12 19  1  0
 12 20  1  0
 13 21  1  0
 13 22  1  0
 13 23  1  0
M  ISO  8  14  14  15  14  16  14  17  14  18  14  19   8  20   8  21   8
M  ISO  2  22   8  23   8
M  END
>  <minimizedAffinity>  (1) 
-4.92240906

>  <minimizedRMSD>  (1) 
1.38022387

$$$$
