
     RDKit          3D

 19 20  0  0  0  0  0  0  0  0999 V2000
   38.4660   31.5050   48.0500 C   0  0  0  0  0  0  0  0  0  0  0  0
   38.9920   32.7340   48.0750 C   0  0  0  0  0  0  0  0  0  0  0  0
   39.6110   33.2310   46.9940 C   0  0  0  0  0  0  0  0  0  0  0  0
   39.6740   32.4190   45.8730 C   0  0  0  0  0  0  0  0  0  0  0  0
   38.8040   30.8990   46.4340 S   0  0  0  0  0  0  0  0  0  0  0  0
   37.2680   30.1290   51.3370 C   0  0  0  0  0  0  0  0  0  0  0  0
   38.0100   30.9180   50.4350 C   0  0  0  0  0  0  0  0  0  0  0  0
   37.7540   30.7410   49.0670 C   0  0  0  0  0  0  0  0  0  0  0  0
   36.8290   29.8440   48.6820 N   0  0  0  0  0  0  0  0  0  0  0  0
   36.1370   29.1070   49.5660 C   0  0  0  0  0  0  0  0  0  0  0  0
   36.3620   29.2560   50.8870 N   0  0  0  0  0  0  0  0  0  0  0  0
   40.2310   32.5680   44.5520 C   0  0  0  0  0  0  0  0  0  0  0  0
   39.7690   33.4600   43.8000 O   0  0  0  0  0  0  0  0  0  0  0  0
   38.9165   33.3418   48.9887 H   0  0  0  0  0  0  0  0  0  0  0  0
   40.0497   34.2397   46.9972 H   0  0  0  0  0  0  0  0  0  0  0  0
   37.4360   30.2327   52.4191 H   0  0  0  0  0  0  0  0  0  0  0  0
   38.7585   31.6422   50.7889 H   0  0  0  0  0  0  0  0  0  0  0  0
   35.3879   28.3830   49.2129 H   0  0  0  0  0  0  0  0  0  0  0  0
   41.0453   31.9125   44.2097 H   0  0  0  0  0  0  0  0  0  0  0  0
  1  2  2  0
  1  8  1  0
  3  2  1  0
  4  5  1  0
  4  3  2  0
  5  1  1  0
  7  6  2  0
  8  7  1  0
  9  8  2  0
  9 10  1  0
 10 11  2  0
 11  6  1  0
 12  4  1  0
 13 12  2  0
  2 14  1  0
  3 15  1  0
  6 16  1  0
  7 17  1  0
 10 18  1  0
 12 19  1  0
M  ISO  6  14  14  15  14  16  14  17  14  18  14  19   6
M  END
>  <minimizedAffinity>  (1) 
-4.6358161

>  <minimizedRMSD>  (1) 
0.788469255

$$$$
