
     RDKit          3D

 31 33  0  0  0  0  0  0  0  0999 V2000
   37.5350   31.1490   48.1510 C   0  0  0  0  0  0  0  0  0  0  0  0
   38.4770   32.0930   48.0700 C   0  0  0  0  0  0  0  0  0  0  0  0
   38.9010   32.5320   46.8790 C   0  0  0  0  0  0  0  0  0  0  0  0
   38.3260   31.9700   45.7570 C   0  0  0  0  0  0  0  0  0  0  0  0
   37.1410   30.7750   46.4930 S   0  0  0  0  0  0  0  0  0  0  0  0
   36.8870   29.7080   51.5650 C   0  0  0  0  0  0  0  0  0  0  0  0
   37.5950   30.3130   50.5110 C   0  0  0  0  0  0  0  0  0  0  0  0
   36.9100   30.5190   49.3170 C   0  0  0  0  0  0  0  0  0  0  0  0
   35.6140   30.1360   49.2210 N   0  0  0  0  0  0  0  0  0  0  0  0
   34.9730   29.5610   50.2510 C   0  0  0  0  0  0  0  0  0  0  0  0
   35.6000   29.3490   51.4090 N   0  0  0  0  0  0  0  0  0  0  0  0
   33.3130   28.2300   49.0580 C   0  0  0  0  0  0  0  0  0  0  0  0
   34.1760   27.7120   48.2930 O   0  0  0  0  0  0  0  0  0  0  0  0
   33.6020   29.1770   50.0850 N   0  0  0  0  0  0  0  0  0  0  0  0
   41.1010   31.2360   44.7090 Cl  0  0  0  0  0  0  0  0  0  0  0  0
   39.7280   31.8460   43.7960 C   0  0  0  0  0  0  0  0  0  0  0  0
   38.5000   32.1580   44.3440 C   0  0  0  0  0  0  0  0  0  0  0  0
   37.4300   32.6260   43.6800 C   0  0  0  0  0  0  0  0  0  0  0  0
   37.5440   32.8260   42.3020 C   0  0  0  0  0  0  0  0  0  0  0  0
   38.7290   32.5410   41.6860 C   0  0  0  0  0  0  0  0  0  0  0  0
   38.9500   32.7660   39.9570 Cl  0  0  0  0  0  0  0  0  0  0  0  0
   39.8280   32.0500   42.4210 C   0  0  0  0  0  0  0  0  0  0  0  0
   38.9080   32.5132   48.9907 H   0  0  0  0  0  0  0  0  0  0  0  0
   39.6757   33.3086   46.7975 H   0  0  0  0  0  0  0  0  0  0  0  0
   37.3905   29.5267   52.5261 H   0  0  0  0  0  0  0  0  0  0  0  0
   38.6476   30.6113   50.6257 H   0  0  0  0  0  0  0  0  0  0  0  0
   32.2638   27.9288   48.9219 H   0  0  0  0  0  0  0  0  0  0  0  0
   32.8583   29.5676   50.6810 H   0  0  0  0  0  0  0  0  0  0  0  0
   36.4898   32.8457   44.2069 H   0  0  0  0  0  0  0  0  0  0  0  0
   36.6912   33.2077   41.7214 H   0  0  0  0  0  0  0  0  0  0  0  0
   40.7728   31.8260   41.9042 H   0  0  0  0  0  0  0  0  0  0  0  0
  1  8  1  0
  2  1  2  0
  3  2  1  0
  4  5  1  0
  4  3  2  0
  5  1  1  0
  7  6  2  0
  8  7  1  0
  9  8  2  0
  9 10  1  0
 10 11  2  0
 11  6  1  0
 12 14  1  0
 13 12  2  0
 14 10  1  0
 16 17  2  0
 16 15  1  0
 17  4  1  0
 18 17  1  0
 19 18  2  0
 20 19  1  0
 20 22  2  0
 21 20  1  0
 22 16  1  0
  2 23  1  0
  3 24  1  0
  6 25  1  0
  7 26  1  0
 12 27  1  0
 14 28  1  0
 18 29  1  0
 19 30  1  0
 22 31  1  0
M  ISO  8  23  14  24  14  25  14  26  14  27   6  29  14  30  14  31  14
M  END
>  <minimizedAffinity>  (1) 
-6.52132273

>  <minimizedRMSD>  (1) 
0.452351183

$$$$
