
     RDKit          3D

 21 22  0  0  1  0  0  0  0  0999 V2000
   38.6980   32.1090   48.3900 C   0  0  0  0  0  0  0  0  0  0  0  0
   37.3030   30.0000   51.1380 C   0  0  0  0  0  0  0  0  0  0  0  0
   38.0730   30.9940   50.4600 C   0  0  0  0  0  0  0  0  0  0  0  0
   37.8890   31.0640   49.0950 C   0  0  0  0  0  0  0  0  0  0  0  0
   37.0430   30.2520   48.4460 N   0  0  0  0  0  0  0  0  0  0  0  0
   36.3260   29.3140   49.1390 C   0  0  0  0  0  0  0  0  0  0  0  0
   36.4640   29.1970   50.4850 N   0  0  0  0  0  0  0  0  0  0  0  0
   38.6380   31.9630   46.9070 C   0  0  1  0  0  0  0  0  0  0  0  0
   39.7130   32.7210   46.1400 C   0  0  0  0  0  0  0  0  0  0  0  0
   39.6620   31.2220   46.1660 C   0  0  2  0  0  0  0  0  0  0  0  0
   39.2030   30.2940   44.7010 S   0  0  0  0  0  0  0  0  0  0  0  0
   38.3107   33.1014   48.6641 H   0  0  0  0  0  0  0  0  0  0  0  0
   39.7469   31.9891   48.6988 H   0  0  0  0  0  0  0  0  0  0  0  0
   37.4055   29.8948   52.2281 H   0  0  0  0  0  0  0  0  0  0  0  0
   38.7677   31.6604   50.9922 H   0  0  0  0  0  0  0  0  0  0  0  0
   35.6329   28.6501   48.6016 H   0  0  0  0  0  0  0  0  0  0  0  0
   37.5402   31.8947   46.9185 H   0  0  0  0  0  0  0  0  0  0  0  0
   40.5057   33.2593   46.6802 H   0  0  0  0  0  0  0  0  0  0  0  0
   39.7279   33.4970   45.3605 H   0  0  0  0  0  0  0  0  0  0  0  0
   40.3908   30.4402   46.4258 H   0  0  0  0  0  0  0  0  0  0  0  0
   38.6185   29.1123   45.0735 H   0  0  0  0  0  0  0  0  0  0  0  0
  1  4  1  0
  3  2  2  0
  4  3  1  0
  5  4  2  0
  5  6  1  0
  6  7  2  0
  7  2  1  0
  8  1  1  0
  9 10  1  0
  9  8  1  0
 10  8  1  0
 11 10  1  0
  1 12  1  0
  1 13  1  0
  2 14  1  0
  3 15  1  0
  6 16  1  0
  8 17  1  6
  9 18  1  0
  9 19  1  0
 10 20  1  1
 11 21  1  0
M  ISO  8  12   8  13   8  14  14  15  14  16  14  17  13  18  13  19  13
M  ISO  2  20  13  21  11
M  END
>  <minimizedAffinity>  (1) 
-4.24285555

>  <minimizedRMSD>  (1) 
0.144096255

$$$$
