
     RDKit          3D

 33 35  0  0  0  0  0  0  0  0999 V2000
   37.8710   31.2060   47.8570 C   0  0  0  0  0  0  0  0  0  0  0  0
   38.8320   32.1270   47.6700 C   0  0  0  0  0  0  0  0  0  0  0  0
   39.1420   32.5210   46.4300 C   0  0  0  0  0  0  0  0  0  0  0  0
   38.4480   31.9540   45.3800 C   0  0  0  0  0  0  0  0  0  0  0  0
   37.3110   30.8110   46.2510 S   0  0  0  0  0  0  0  0  0  0  0  0
   40.9550   30.8450   44.0380 Cl  0  0  0  0  0  0  0  0  0  0  0  0
   39.5970   31.6470   43.2760 C   0  0  0  0  0  0  0  0  0  0  0  0
   38.4970   32.1190   43.9520 C   0  0  0  0  0  0  0  0  0  0  0  0
   37.4240   32.7420   43.4130 C   0  0  0  0  0  0  0  0  0  0  0  0
   37.4060   32.9390   42.0280 C   0  0  0  0  0  0  0  0  0  0  0  0
   38.4760   32.4920   41.2840 C   0  0  0  0  0  0  0  0  0  0  0  0
   38.5350   32.6990   39.5450 Cl  0  0  0  0  0  0  0  0  0  0  0  0
   39.5590   31.8540   41.8920 C   0  0  0  0  0  0  0  0  0  0  0  0
   37.3670   30.1540   51.4400 C   0  0  0  0  0  0  0  0  0  0  0  0
   37.9740   30.7760   50.3200 C   0  0  0  0  0  0  0  0  0  0  0  0
   37.3410   30.6090   49.0870 C   0  0  0  0  0  0  0  0  0  0  0  0
   36.2140   29.8850   49.0110 N   0  0  0  0  0  0  0  0  0  0  0  0
   35.6660   29.3080   50.1020 C   0  0  0  0  0  0  0  0  0  0  0  0
   36.2400   29.4440   51.2990 N   0  0  0  0  0  0  0  0  0  0  0  0
   34.4330   28.5310   49.9430 C   0  0  0  0  0  0  0  0  0  0  0  0
   34.3270   27.8740   48.5790 C   0  0  0  0  0  0  0  0  0  0  0  0
   39.3617   32.5552   48.5338 H   0  0  0  0  0  0  0  0  0  0  0  0
   39.9250   33.2729   46.2525 H   0  0  0  0  0  0  0  0  0  0  0  0
   36.5907   33.0834   44.0447 H   0  0  0  0  0  0  0  0  0  0  0  0
   36.5553   33.4403   41.5432 H   0  0  0  0  0  0  0  0  0  0  0  0
   40.3985   31.5073   41.2715 H   0  0  0  0  0  0  0  0  0  0  0  0
   37.8260   30.2554   52.4345 H   0  0  0  0  0  0  0  0  0  0  0  0
   38.8996   31.3622   50.4178 H   0  0  0  0  0  0  0  0  0  0  0  0
   34.4091   27.7469   50.7142 H   0  0  0  0  0  0  0  0  0  0  0  0
   33.5866   29.2263   50.0438 H   0  0  0  0  0  0  0  0  0  0  0  0
   34.1529   26.7951   48.7042 H   0  0  0  0  0  0  0  0  0  0  0  0
   33.4889   28.3184   48.0221 H   0  0  0  0  0  0  0  0  0  0  0  0
   35.2623   28.0323   48.0221 H   0  0  0  0  0  0  0  0  0  0  0  0
  1 16  1  0
  2  1  2  0
  3  2  1  0
  4  5  1  0
  4  3  2  0
  5  1  1  0
  7  8  2  0
  7  6  1  0
  8  4  1  0
  9  8  1  0
 10  9  2  0
 11 13  2  0
 11 10  1  0
 12 11  1  0
 13  7  1  0
 15 14  2  0
 16 15  1  0
 17 16  2  0
 17 18  1  0
 18 19  2  0
 19 14  1  0
 20 18  1  0
 21 20  1  0
  2 22  1  0
  3 23  1  0
  9 24  1  0
 10 25  1  0
 13 26  1  0
 14 27  1  0
 15 28  1  0
 20 29  1  0
 20 30  1  0
 21 31  1  0
 21 32  1  0
 21 33  1  0
M  ISO  8  22  14  23  14  24  14  25  14  26  14  27  14  28  14  29   8
M  ISO  4  30   8  31   8  32   8  33   8
M  END
>  <minimizedAffinity>  (1) 
-5.99079418

>  <minimizedRMSD>  (1) 
1.07179892

$$$$
