
     RDKit          3D

 41 44  0  0  0  0  0  0  0  0999 V2000
   36.8890   30.7950   47.5830 C   0  0  0  0  0  0  0  0  0  0  0  0
   37.8720   31.6860   47.7130 C   0  0  0  0  0  0  0  0  0  0  0  0
   38.3790   32.2910   46.6260 C   0  0  0  0  0  0  0  0  0  0  0  0
   37.8380   31.9500   45.4040 C   0  0  0  0  0  0  0  0  0  0  0  0
   36.5630   30.7150   45.8580 S   0  0  0  0  0  0  0  0  0  0  0  0
   40.7870   32.1870   44.6490 Cl  0  0  0  0  0  0  0  0  0  0  0  0
   39.4000   32.5010   43.6370 C   0  0  0  0  0  0  0  0  0  0  0  0
   38.1080   32.3720   44.0460 C   0  0  0  0  0  0  0  0  0  0  0  0
   37.0080   32.6050   43.2960 C   0  0  0  0  0  0  0  0  0  0  0  0
   37.1710   33.0190   41.9710 C   0  0  0  0  0  0  0  0  0  0  0  0
   38.4480   33.1670   41.4970 C   0  0  0  0  0  0  0  0  0  0  0  0
   38.7600   33.6830   39.8450 Cl  0  0  0  0  0  0  0  0  0  0  0  0
   39.5550   32.9150   42.3130 C   0  0  0  0  0  0  0  0  0  0  0  0
   35.6520   29.3540   50.8330 C   0  0  0  0  0  0  0  0  0  0  0  0
   36.4080   30.1720   49.9620 C   0  0  0  0  0  0  0  0  0  0  0  0
   36.1650   30.0010   48.5800 C   0  0  0  0  0  0  0  0  0  0  0  0
   35.2550   29.0970   48.1650 N   0  0  0  0  0  0  0  0  0  0  0  0
   34.5660   28.3450   49.0440 C   0  0  0  0  0  0  0  0  0  0  0  0
   34.7650   28.4760   50.3630 N   0  0  0  0  0  0  0  0  0  0  0  0
   33.5580   27.3430   48.6120 C   0  0  0  0  0  0  0  0  0  0  0  0
   33.9410   26.8460   47.2590 C   0  0  0  0  0  0  0  0  0  0  0  0
   33.1990   27.6930   46.2290 C   0  0  0  0  0  0  0  0  0  0  0  0
   31.8430   27.3250   46.3920 O   0  0  0  0  0  0  0  0  0  0  0  0
   31.3980   28.0460   47.4780 C   0  0  0  0  0  0  0  0  0  0  0  0
   32.1660   27.8590   48.7270 C   0  0  0  0  0  0  0  0  0  0  0  0
   38.2681   31.9259   48.7107 H   0  0  0  0  0  0  0  0  0  0  0  0
   39.1918   33.0277   46.7072 H   0  0  0  0  0  0  0  0  0  0  0  0
   36.0022   32.4712   43.7209 H   0  0  0  0  0  0  0  0  0  0  0  0
   36.3009   33.2198   41.3286 H   0  0  0  0  0  0  0  0  0  0  0  0
   40.5676   33.0455   41.9037 H   0  0  0  0  0  0  0  0  0  0  0  0
   35.7983   29.4436   51.9195 H   0  0  0  0  0  0  0  0  0  0  0  0
   37.1426   30.8993   50.3380 H   0  0  0  0  0  0  0  0  0  0  0  0
   33.5574   26.4773   49.2906 H   0  0  0  0  0  0  0  0  0  0  0  0
   35.0269   26.9473   47.1157 H   0  0  0  0  0  0  0  0  0  0  0  0
   33.6765   25.7840   47.1485 H   0  0  0  0  0  0  0  0  0  0  0  0
   33.5464   27.4629   45.2110 H   0  0  0  0  0  0  0  0  0  0  0  0
   33.3639   28.7712   46.3714 H   0  0  0  0  0  0  0  0  0  0  0  0
   31.4357   29.1132   47.2141 H   0  0  0  0  0  0  0  0  0  0  0  0
   30.3841   27.6757   47.6900 H   0  0  0  0  0  0  0  0  0  0  0  0
   31.6043   27.1522   49.3555 H   0  0  0  0  0  0  0  0  0  0  0  0
   32.2780   28.8726   49.1393 H   0  0  0  0  0  0  0  0  0  0  0  0
  1  2  2  0
  1 16  1  0
  3  2  1  0
  4  5  1  0
  4  3  2  0
  5  1  1  0
  7  8  2  0
  7  6  1  0
  8  4  1  0
  9  8  1  0
 10  9  2  0
 11 10  1  0
 11 13  2  0
 12 11  1  0
 13  7  1  0
 15 14  2  0
 16 15  1  0
 17 16  2  0
 17 18  1  0
 18 19  2  0
 19 14  1  0
 20 25  1  0
 20 18  1  0
 21 20  1  0
 22 23  1  0
 22 21  1  0
 23 24  1  0
 24 25  1  0
  2 26  1  0
  3 27  1  0
  9 28  1  0
 10 29  1  0
 13 30  1  0
 14 31  1  0
 15 32  1  0
 20 33  1  0
 21 34  1  0
 21 35  1  0
 22 36  1  0
 22 37  1  0
 24 38  1  0
 24 39  1  0
 25 40  1  0
 25 41  1  0
M  ISO  8  26  14  27  14  28  14  29  14  30  14  31  14  32  14  33  13
M  ISO  8  34  13  35  13  36  13  37  13  38  13  39  13  40  13  41  13
M  END
>  <minimizedAffinity>  (1) 
-5.89233828

>  <minimizedRMSD>  (1) 
1.5459156

$$$$
