
     RDKit          3D

 30 32  0  0  0  0  0  0  0  0999 V2000
   37.7930   31.3010   48.0300 C   0  0  0  0  0  0  0  0  0  0  0  0
   38.7230   32.2370   47.8800 C   0  0  0  0  0  0  0  0  0  0  0  0
   39.0840   32.6240   46.6430 C   0  0  0  0  0  0  0  0  0  0  0  0
   38.4620   32.0190   45.5790 C   0  0  0  0  0  0  0  0  0  0  0  0
   37.3150   30.8510   46.4120 S   0  0  0  0  0  0  0  0  0  0  0  0
   41.0790   31.0380   44.3680 Cl  0  0  0  0  0  0  0  0  0  0  0  0
   39.7050   31.7420   43.5300 C   0  0  0  0  0  0  0  0  0  0  0  0
   38.5710   32.1550   44.1520 C   0  0  0  0  0  0  0  0  0  0  0  0
   37.5010   32.6960   43.5390 C   0  0  0  0  0  0  0  0  0  0  0  0
   37.5190   32.8660   42.1490 C   0  0  0  0  0  0  0  0  0  0  0  0
   38.6300   32.4710   41.4720 C   0  0  0  0  0  0  0  0  0  0  0  0
   38.7610   32.6370   39.7310 Cl  0  0  0  0  0  0  0  0  0  0  0  0
   39.7090   31.9170   42.1400 C   0  0  0  0  0  0  0  0  0  0  0  0
   37.3080   30.0010   51.5340 C   0  0  0  0  0  0  0  0  0  0  0  0
   37.9330   30.6020   50.4300 C   0  0  0  0  0  0  0  0  0  0  0  0
   37.1990   30.6820   49.2350 C   0  0  0  0  0  0  0  0  0  0  0  0
   35.9690   30.1940   49.2000 N   0  0  0  0  0  0  0  0  0  0  0  0
   35.3890   29.6250   50.2650 C   0  0  0  0  0  0  0  0  0  0  0  0
   36.0620   29.5320   51.4210 N   0  0  0  0  0  0  0  0  0  0  0  0
   34.0270   29.1190   50.1230 C   0  0  0  0  0  0  0  0  0  0  0  0
   33.8230   28.1470   49.3490 O   0  0  0  0  0  0  0  0  0  0  0  0
   32.9720   29.6990   50.8300 O   0  0  0  0  0  0  0  0  0  0  0  0
   39.1956   32.6934   48.7622 H   0  0  0  0  0  0  0  0  0  0  0  0
   39.8505   33.3979   46.4895 H   0  0  0  0  0  0  0  0  0  0  0  0
   36.6212   33.0015   44.1244 H   0  0  0  0  0  0  0  0  0  0  0  0
   36.6602   33.3058   41.6208 H   0  0  0  0  0  0  0  0  0  0  0  0
   40.5929   31.6060   41.5639 H   0  0  0  0  0  0  0  0  0  0  0  0
   37.8435   29.9163   52.4911 H   0  0  0  0  0  0  0  0  0  0  0  0
   38.9581   30.9952   50.4981 H   0  0  0  0  0  0  0  0  0  0  0  0
   32.0528   29.3466   50.7250 H   0  0  0  0  0  0  0  0  0  0  0  0
  1 16  1  0
  2  1  2  0
  3  2  1  0
  4  5  1  0
  4  3  2  0
  5  1  1  0
  7  8  2  0
  7  6  1  0
  8  4  1  0
  9  8  1  0
 10  9  2  0
 11 13  2  0
 11 10  1  0
 12 11  1  0
 13  7  1  0
 15 14  2  0
 16 15  1  0
 17 16  2  0
 17 18  1  0
 18 19  2  0
 19 14  1  0
 20 18  1  0
 20 22  1  0
 21 20  2  0
  2 23  1  0
  3 24  1  0
  9 25  1  0
 10 26  1  0
 13 27  1  0
 14 28  1  0
 15 29  1  0
 22 30  1  0
M  ISO  8  23  14  24  14  25  14  26  14  27  14  28  14  29  14  30   3
M  END
>  <minimizedAffinity>  (1) 
-6.25325871

>  <minimizedRMSD>  (1) 
0.255646765

$$$$
