
     RDKit          3D

 36 39  0  0  1  0  0  0  0  0999 V2000
   35.5780   29.4500   48.2390 N   0  0  0  0  0  0  0  0  0  0  0  0
   36.7950   29.8390   48.8060 C   0  0  2  0  0  0  0  0  0  0  0  0
   36.5110   29.7180   50.3260 C   0  0  0  0  0  0  0  0  0  0  0  0
   35.1280   29.1410   50.4580 C   0  0  0  0  0  0  0  0  0  0  0  0
   34.9900   28.4290   49.1470 C   0  0  0  0  0  0  0  0  0  0  0  0
   37.4790   31.0750   48.5430 C   0  0  0  0  0  0  0  0  0  0  0  0
   37.1810   31.9970   49.5200 N   0  0  0  0  0  0  0  0  0  0  0  0
   37.7910   33.2190   49.4850 C   0  0  0  0  0  0  0  0  0  0  0  0
   38.6870   33.5560   48.5130 N   0  0  0  0  0  0  0  0  0  0  0  0
   39.0090   32.6900   47.5370 C   0  0  0  0  0  0  0  0  0  0  0  0
   39.8970   32.9290   46.5080 C   0  0  0  0  0  0  0  0  0  0  0  0
   40.1400   31.9420   45.5540 C   0  0  0  0  0  0  0  0  0  0  0  0
   39.5040   30.6970   45.6100 C   0  0  0  0  0  0  0  0  0  0  0  0
   38.6220   30.4840   46.6500 C   0  0  0  0  0  0  0  0  0  0  0  0
   38.3910   31.4680   47.5840 C   0  0  0  0  0  0  0  0  0  0  0  0
   34.9240   29.8190   47.0390 C   0  0  0  0  0  0  0  0  0  0  0  0
   33.6010   30.1940   47.1920 C   0  0  0  0  0  0  0  0  0  0  0  0
   32.8440   30.6100   46.1010 C   0  0  0  0  0  0  0  0  0  0  0  0
   33.5000   30.6180   44.8880 N   0  0  0  0  0  0  0  0  0  0  0  0
   34.7840   30.2480   44.7700 C   0  0  0  0  0  0  0  0  0  0  0  0
   35.5040   29.8460   45.8490 N   0  0  0  0  0  0  0  0  0  0  0  0
   37.5334   29.1950   48.3059 H   0  0  0  0  0  0  0  0  0  0  0  0
   37.2475   29.0512   50.7982 H   0  0  0  0  0  0  0  0  0  0  0  0
   36.5826   30.6967   50.8230 H   0  0  0  0  0  0  0  0  0  0  0  0
   35.0604   28.4434   51.3058 H   0  0  0  0  0  0  0  0  0  0  0  0
   34.3426   29.8855   50.6550 H   0  0  0  0  0  0  0  0  0  0  0  0
   33.9375   28.2225   48.9028 H   0  0  0  0  0  0  0  0  0  0  0  0
   35.4672   27.4389   49.1037 H   0  0  0  0  0  0  0  0  0  0  0  0
   37.5518   33.9554   50.2663 H   0  0  0  0  0  0  0  0  0  0  0  0
   40.4130   33.8981   46.4406 H   0  0  0  0  0  0  0  0  0  0  0  0
   40.8485   32.1468   44.7379 H   0  0  0  0  0  0  0  0  0  0  0  0
   39.6989   29.9200   44.8562 H   0  0  0  0  0  0  0  0  0  0  0  0
   38.0993   29.5197   46.7330 H   0  0  0  0  0  0  0  0  0  0  0  0
   33.1409   30.1628   48.1907 H   0  0  0  0  0  0  0  0  0  0  0  0
   31.7911   30.9127   46.1997 H   0  0  0  0  0  0  0  0  0  0  0  0
   35.2630   30.2707   43.7800 H   0  0  0  0  0  0  0  0  0  0  0  0
  1  2  1  0
  1  5  1  0
  2  3  1  0
  3  4  1  0
  5  4  1  0
  6  2  1  0
  6  7  2  0
  8  7  1  0
  9  8  2  0
 10 15  2  0
 10  9  1  0
 11 10  1  0
 12 13  1  0
 12 11  2  0
 13 14  2  0
 14 15  1  0
 15  6  1  0
 16 17  2  0
 16  1  1  0
 18 17  1  0
 19 18  2  0
 20 19  1  0
 20 21  2  0
 21 16  1  0
  2 22  1  6
  3 23  1  0
  3 24  1  0
  4 25  1  0
  4 26  1  0
  5 27  1  0
  5 28  1  0
  8 29  1  0
 11 30  1  0
 12 31  1  0
 13 32  1  0
 14 33  1  0
 17 34  1  0
 18 35  1  0
 20 36  1  0
M  ISO  8  22  13  23  13  24  13  25  13  26  13  27  13  28  13  29  14
M  ISO  7  30  14  31  14  32  14  33  14  34  14  35  14  36  14
M  END
>  <minimizedAffinity>  (1) 
-6.41432047

>  <minimizedRMSD>  (1) 
2.78894663

$$$$
