
     RDKit          3D

 32 34  0  0  1  0  0  0  0  0999 V2000
   36.4970   29.8490   49.2960 N   0  0  0  0  0  0  0  0  0  0  0  0
   37.1780   31.1280   49.2190 C   0  0  1  0  0  0  0  0  0  0  0  0
   37.8440   31.2300   50.5640 C   0  0  0  0  0  0  0  0  0  0  0  0
   37.3970   30.0090   51.3690 C   0  0  0  0  0  0  0  0  0  0  0  0
   37.2050   29.0120   50.2610 C   0  0  0  0  0  0  0  0  0  0  0  0
   35.3450   29.4400   48.5870 C   0  0  0  0  0  0  0  0  0  0  0  0
   34.7740   30.3760   47.7220 C   0  0  0  0  0  0  0  0  0  0  0  0
   33.6340   30.0510   46.9900 C   0  0  0  0  0  0  0  0  0  0  0  0
   33.1360   28.7740   47.1860 N   0  0  0  0  0  0  0  0  0  0  0  0
   33.7090   27.8950   48.0250 C   0  0  0  0  0  0  0  0  0  0  0  0
   34.8270   28.2280   48.7370 N   0  0  0  0  0  0  0  0  0  0  0  0
   38.5450   33.7520   49.2040 Cl  0  0  0  0  0  0  0  0  0  0  0  0
   38.7470   32.5170   47.9540 C   0  0  0  0  0  0  0  0  0  0  0  0
   38.0470   31.3080   48.0680 C   0  0  0  0  0  0  0  0  0  0  0  0
   38.2910   30.4290   47.0320 C   0  0  0  0  0  0  0  0  0  0  0  0
   39.1350   30.6850   45.9740 C   0  0  0  0  0  0  0  0  0  0  0  0
   39.7960   31.8950   45.9190 C   0  0  0  0  0  0  0  0  0  0  0  0
   39.6020   32.8240   46.9200 C   0  0  0  0  0  0  0  0  0  0  0  0
   36.4866   31.9627   49.0312 H   0  0  0  0  0  0  0  0  0  0  0  0
   38.9377   31.2272   50.4467 H   0  0  0  0  0  0  0  0  0  0  0  0
   37.5653   32.1640   51.0739 H   0  0  0  0  0  0  0  0  0  0  0  0
   38.1716   29.6840   52.0792 H   0  0  0  0  0  0  0  0  0  0  0  0
   36.5107   30.1727   51.9996 H   0  0  0  0  0  0  0  0  0  0  0  0
   36.5964   28.1542   50.5831 H   0  0  0  0  0  0  0  0  0  0  0  0
   38.1293   28.5483   49.8860 H   0  0  0  0  0  0  0  0  0  0  0  0
   35.2260   31.3735   47.6182 H   0  0  0  0  0  0  0  0  0  0  0  0
   33.1594   30.7640   46.2998 H   0  0  0  0  0  0  0  0  0  0  0  0
   33.2718   26.8923   48.1406 H   0  0  0  0  0  0  0  0  0  0  0  0
   37.7760   29.4572   47.0528 H   0  0  0  0  0  0  0  0  0  0  0  0
   39.2802   29.9345   45.1830 H   0  0  0  0  0  0  0  0  0  0  0  0
   40.4738   32.1175   45.0817 H   0  0  0  0  0  0  0  0  0  0  0  0
   40.1215   33.7932   46.8924 H   0  0  0  0  0  0  0  0  0  0  0  0
  1  5  1  0
  2  1  1  0
  2  3  1  0
  3  4  1  0
  5  4  1  0
  6 11  1  0
  6  1  1  0
  7  6  2  0
  8  9  2  0
  8  7  1  0
  9 10  1  0
 10 11  2  0
 13 14  2  0
 13 12  1  0
 14  2  1  0
 15 14  1  0
 16 15  2  0
 17 16  1  0
 17 18  2  0
 18 13  1  0
  2 19  1  1
  3 20  1  0
  3 21  1  0
  4 22  1  0
  4 23  1  0
  5 24  1  0
  5 25  1  0
  7 26  1  0
  8 27  1  0
 10 28  1  0
 15 29  1  0
 16 30  1  0
 17 31  1  0
 18 32  1  0
M  ISO  8  19  13  20  13  21  13  22  13  23  13  24  13  25  13  26  14
M  ISO  6  27  14  28  14  29  14  30  14  31  14  32  14
M  END
>  <minimizedAffinity>  (1) 
-6.25264978

>  <minimizedRMSD>  (1) 
1.55475831

$$$$
