
     RDKit          3D

 26 27  0  0  1  0  0  0  0  0999 V2000
   36.5550   29.7390   49.4020 N   0  0  0  0  0  0  0  0  0  0  0  0
   37.3040   30.9390   49.1130 C   0  0  1  0  0  0  0  0  0  0  0  0
   37.9410   31.2610   50.4590 C   0  0  0  0  0  0  0  0  0  0  0  0
   37.4550   30.1950   51.4180 C   0  0  0  0  0  0  0  0  0  0  0  0
   37.2300   29.0270   50.4870 C   0  0  0  0  0  0  0  0  0  0  0  0
   35.3770   29.3090   48.7590 C   0  0  0  0  0  0  0  0  0  0  0  0
   34.8750   30.0950   47.7110 C   0  0  0  0  0  0  0  0  0  0  0  0
   33.7170   29.7210   47.0320 C   0  0  0  0  0  0  0  0  0  0  0  0
   33.1260   28.5650   47.4540 N   0  0  0  0  0  0  0  0  0  0  0  0
   33.6190   27.8250   48.4570 C   0  0  0  0  0  0  0  0  0  0  0  0
   34.7590   28.1930   49.1250 N   0  0  0  0  0  0  0  0  0  0  0  0
   38.7340   31.2360   46.9850 C   0  0  0  0  0  0  0  0  0  0  0  0
   38.1290   32.2920   46.7190 O   0  0  0  0  0  0  0  0  0  0  0  0
   38.3560   30.5270   48.1710 N   0  0  0  0  0  0  0  0  0  0  0  0
   36.7294   31.7805   48.6985 H   0  0  0  0  0  0  0  0  0  0  0  0
   39.0377   31.2318   50.3793 H   0  0  0  0  0  0  0  0  0  0  0  0
   37.6652   32.2684   50.8039 H   0  0  0  0  0  0  0  0  0  0  0  0
   38.2156   29.9618   52.1777 H   0  0  0  0  0  0  0  0  0  0  0  0
   36.5643   30.4850   51.9947 H   0  0  0  0  0  0  0  0  0  0  0  0
   36.5887   28.2555   50.9380 H   0  0  0  0  0  0  0  0  0  0  0  0
   38.1311   28.4649   50.2006 H   0  0  0  0  0  0  0  0  0  0  0  0
   35.4013   31.0167   47.4221 H   0  0  0  0  0  0  0  0  0  0  0  0
   33.3046   30.3203   46.2069 H   0  0  0  0  0  0  0  0  0  0  0  0
   33.0977   26.9020   48.7509 H   0  0  0  0  0  0  0  0  0  0  0  0
   39.5334   30.8598   46.3297 H   0  0  0  0  0  0  0  0  0  0  0  0
   38.8633   29.6558   48.3818 H   0  0  0  0  0  0  0  0  0  0  0  0
  1  5  1  0
  2  1  1  0
  2  3  1  0
  3  4  1  0
  5  4  1  0
  6 11  1  0
  6  1  1  0
  7  6  2  0
  8  9  2  0
  8  7  1  0
  9 10  1  0
 10 11  2  0
 12 14  1  0
 13 12  2  0
 14  2  1  0
  2 15  1  6
  3 16  1  0
  3 17  1  0
  4 18  1  0
  4 19  1  0
  5 20  1  0
  5 21  1  0
  7 22  1  0
  8 23  1  0
 10 24  1  0
 12 25  1  0
 14 26  1  0
M  ISO  8  15  13  16  13  17  13  18  13  19  13  20  13  21  13  22  14
M  ISO  3  23  14  24  14  25   6
M  END
>  <minimizedAffinity>  (1) 
-4.87268543

>  <minimizedRMSD>  (1) 
1.34404588

$$$$
