
     RDKit          3D

 24 25  0  0  1  0  0  0  0  0999 V2000
   36.6210   29.7770   49.3460 N   0  0  0  0  0  0  0  0  0  0  0  0
   37.4100   30.9370   48.9710 C   0  0  1  0  0  0  0  0  0  0  0  0
   38.1100   31.2940   50.2660 C   0  0  0  0  0  0  0  0  0  0  0  0
   37.5670   30.3360   51.3030 C   0  0  0  0  0  0  0  0  0  0  0  0
   37.2660   29.1200   50.4710 C   0  0  0  0  0  0  0  0  0  0  0  0
   35.4300   29.3500   48.7280 C   0  0  0  0  0  0  0  0  0  0  0  0
   34.8990   30.1630   47.7120 C   0  0  0  0  0  0  0  0  0  0  0  0
   33.7290   29.8080   47.0470 C   0  0  0  0  0  0  0  0  0  0  0  0
   33.1510   28.6350   47.4520 N   0  0  0  0  0  0  0  0  0  0  0  0
   33.6730   27.8710   48.4240 C   0  0  0  0  0  0  0  0  0  0  0  0
   34.8260   28.2230   49.0790 N   0  0  0  0  0  0  0  0  0  0  0  0
   38.3230   30.4910   47.9490 N   0  0  0  0  0  0  0  0  0  0  0  0
   36.8621   31.8026   48.5702 H   0  0  0  0  0  0  0  0  0  0  0  0
   39.1978   31.1691   50.1609 H   0  0  0  0  0  0  0  0  0  0  0  0
   37.9310   32.3419   50.5485 H   0  0  0  0  0  0  0  0  0  0  0  0
   38.3172   30.1161   52.0768 H   0  0  0  0  0  0  0  0  0  0  0  0
   36.6986   30.7235   51.8559 H   0  0  0  0  0  0  0  0  0  0  0  0
   36.5889   28.4231   50.9867 H   0  0  0  0  0  0  0  0  0  0  0  0
   38.1312   28.4884   50.2210 H   0  0  0  0  0  0  0  0  0  0  0  0
   35.4161   31.0944   47.4381 H   0  0  0  0  0  0  0  0  0  0  0  0
   33.2971   30.4292   46.2485 H   0  0  0  0  0  0  0  0  0  0  0  0
   33.1627   26.9374   48.7031 H   0  0  0  0  0  0  0  0  0  0  0  0
   39.1593   30.0825   48.3902 H   0  0  0  0  0  0  0  0  0  0  0  0
   37.8620   29.7802   47.3632 H   0  0  0  0  0  0  0  0  0  0  0  0
  1  5  1  0
  2  1  1  0
  2  3  1  0
  3  4  1  0
  5  4  1  0
  6 11  1  0
  6  1  1  0
  7  6  2  0
  8  9  2  0
  8  7  1  0
  9 10  1  0
 10 11  2  0
 12  2  1  0
  2 13  1  6
  3 14  1  0
  3 15  1  0
  4 16  1  0
  4 17  1  0
  5 18  1  0
  5 19  1  0
  7 20  1  0
  8 21  1  0
 10 22  1  0
 12 23  1  0
 12 24  1  0
M  ISO  8  13  13  14  13  15  13  16  13  17  13  18  13  19  13  20  14
M  ISO  4  21  14  22  14  23   5  24   5
M  END
>  <minimizedAffinity>  (1) 
-4.4907465

>  <minimizedRMSD>  (1) 
0.313669592

$$$$
