
     RDKit          3D

 39 41  0  0  1  0  0  0  0  0999 V2000
   36.2980   29.8820   49.3660 N   0  0  0  0  0  0  0  0  0  0  0  0
   36.6740   31.2860   49.4170 C   0  0  1  0  0  0  0  0  0  0  0  0
   37.3940   31.3270   50.7570 C   0  0  0  0  0  0  0  0  0  0  0  0
   37.2740   29.9530   51.3870 C   0  0  0  0  0  0  0  0  0  0  0  0
   37.1910   29.0890   50.1660 C   0  0  0  0  0  0  0  0  0  0  0  0
   35.1940   29.3700   48.6300 C   0  0  0  0  0  0  0  0  0  0  0  0
   34.5440   30.2370   47.7390 C   0  0  0  0  0  0  0  0  0  0  0  0
   33.4550   29.7770   46.9950 C   0  0  0  0  0  0  0  0  0  0  0  0
   33.0870   28.4670   47.1950 N   0  0  0  0  0  0  0  0  0  0  0  0
   33.7320   27.6550   48.0610 C   0  0  0  0  0  0  0  0  0  0  0  0
   34.7890   28.1060   48.7810 N   0  0  0  0  0  0  0  0  0  0  0  0
   37.5480   31.6900   48.3090 C   0  0  0  0  0  0  0  0  0  0  0  0
   38.1910   32.7130   48.4630 O   0  0  0  0  0  0  0  0  0  0  0  0
   38.0280   31.3990   47.0030 N   0  0  0  0  0  0  0  0  0  0  0  0
   39.4500   31.5260   46.7780 C   0  0  0  0  0  0  0  0  0  0  0  0
   39.7760   32.6860   45.8620 C   0  0  0  0  0  0  0  0  0  0  0  0
   38.8120   32.6740   44.6950 C   0  0  0  0  0  0  0  0  0  0  0  0
   38.1120   31.3380   44.5700 C   0  0  0  0  0  0  0  0  0  0  0  0
   37.3000   30.9770   45.7960 C   0  0  0  0  0  0  0  0  0  0  0  0
   35.8261   31.9803   49.3221 H   0  0  0  0  0  0  0  0  0  0  0  0
   38.4541   31.5782   50.6052 H   0  0  0  0  0  0  0  0  0  0  0  0
   36.9480   32.0909   51.4108 H   0  0  0  0  0  0  0  0  0  0  0  0
   38.1567   29.7088   51.9962 H   0  0  0  0  0  0  0  0  0  0  0  0
   36.4273   29.8430   52.0805 H   0  0  0  0  0  0  0  0  0  0  0  0
   36.7676   28.0995   50.3930 H   0  0  0  0  0  0  0  0  0  0  0  0
   38.1569   28.8565   49.6938 H   0  0  0  0  0  0  0  0  0  0  0  0
   34.8906   31.2749   47.6267 H   0  0  0  0  0  0  0  0  0  0  0  0
   32.9204   30.4275   46.2872 H   0  0  0  0  0  0  0  0  0  0  0  0
   33.3955   26.6149   48.1836 H   0  0  0  0  0  0  0  0  0  0  0  0
   39.9500   31.6851   47.7448 H   0  0  0  0  0  0  0  0  0  0  0  0
   39.8024   30.6021   46.2961 H   0  0  0  0  0  0  0  0  0  0  0  0
   39.6759   33.6321   46.4141 H   0  0  0  0  0  0  0  0  0  0  0  0
   40.8084   32.5921   45.4941 H   0  0  0  0  0  0  0  0  0  0  0  0
   38.0578   33.4604   44.8459 H   0  0  0  0  0  0  0  0  0  0  0  0
   39.3835   32.8528   43.7723 H   0  0  0  0  0  0  0  0  0  0  0  0
   37.4376   31.3758   43.7018 H   0  0  0  0  0  0  0  0  0  0  0  0
   38.8900   30.5692   44.4533 H   0  0  0  0  0  0  0  0  0  0  0  0
   36.3270   31.4886   45.7560 H   0  0  0  0  0  0  0  0  0  0  0  0
   37.1391   29.8892   45.8242 H   0  0  0  0  0  0  0  0  0  0  0  0
  1  2  1  0
  1  5  1  0
  2  3  1  0
  3  4  1  0
  5  4  1  0
  6 11  1  0
  6  1  1  0
  7  6  2  0
  8  9  2  0
  8  7  1  0
  9 10  1  0
 10 11  2  0
 12 13  2  0
 12  2  1  0
 14 12  1  0
 15 14  1  0
 16 15  1  0
 17 16  1  0
 18 17  1  0
 18 19  1  0
 19 14  1  0
  2 20  1  1
  3 21  1  0
  3 22  1  0
  4 23  1  0
  4 24  1  0
  5 25  1  0
  5 26  1  0
  7 27  1  0
  8 28  1  0
 10 29  1  0
 15 30  1  0
 15 31  1  0
 16 32  1  0
 16 33  1  0
 17 34  1  0
 17 35  1  0
 18 36  1  0
 18 37  1  0
 19 38  1  0
 19 39  1  0
M  ISO  8  20  13  21  13  22  13  23  13  24  13  25  13  26  13  27  14
M  ISO  8  28  14  29  14  30  13  31  13  32  13  33  13  34  13  35  13
M  ISO  4  36  13  37  13  38  13  39  13
M  END
>  <minimizedAffinity>  (1) 
-5.79193592

>  <minimizedRMSD>  (1) 
1.45103025

$$$$
