
     RDKit          3D

 36 39  0  0  1  0  0  0  0  0999 V2000
   35.8530   29.4930   49.3070 N   0  0  0  0  0  0  0  0  0  0  0  0
   37.2210   29.5030   48.8570 C   0  0  0  0  0  0  0  0  0  0  0  0
   37.9060   30.4780   49.8010 C   0  0  2  0  0  0  0  0  0  0  0  0
   36.7940   30.9550   50.7500 C   0  0  0  0  0  0  0  0  0  0  0  0
   35.8950   29.7410   50.7280 C   0  0  0  0  0  0  0  0  0  0  0  0
   38.4680   31.6380   49.0590 C   0  0  0  0  0  0  0  0  0  0  0  0
   38.6940   32.7680   49.7910 N   0  0  0  0  0  0  0  0  0  0  0  0
   39.2000   33.8940   49.2720 C   0  0  0  0  0  0  0  0  0  0  0  0
   39.5150   33.9450   47.9500 N   0  0  0  0  0  0  0  0  0  0  0  0
   39.3140   32.8630   47.1760 C   0  0  0  0  0  0  0  0  0  0  0  0
   39.6070   32.8340   45.8220 C   0  0  0  0  0  0  0  0  0  0  0  0
   39.3910   31.7040   45.0380 C   0  0  0  0  0  0  0  0  0  0  0  0
   38.8600   30.5670   45.6470 C   0  0  0  0  0  0  0  0  0  0  0  0
   38.5620   30.5760   46.9940 C   0  0  0  0  0  0  0  0  0  0  0  0
   38.7920   31.7160   47.7350 C   0  0  0  0  0  0  0  0  0  0  0  0
   34.6930   29.2790   48.5020 C   0  0  0  0  0  0  0  0  0  0  0  0
   34.5010   30.1200   47.4100 C   0  0  0  0  0  0  0  0  0  0  0  0
   33.3690   29.9130   46.6240 C   0  0  0  0  0  0  0  0  0  0  0  0
   32.5130   28.8930   46.9710 N   0  0  0  0  0  0  0  0  0  0  0  0
   32.7350   28.1040   48.0330 C   0  0  0  0  0  0  0  0  0  0  0  0
   33.8410   28.2950   48.8160 N   0  0  0  0  0  0  0  0  0  0  0  0
   37.6673   28.5008   48.9372 H   0  0  0  0  0  0  0  0  0  0  0  0
   37.3193   29.7934   47.8006 H   0  0  0  0  0  0  0  0  0  0  0  0
   38.7455   30.0046   50.3313 H   0  0  0  0  0  0  0  0  0  0  0  0
   37.1788   31.1603   51.7598 H   0  0  0  0  0  0  0  0  0  0  0  0
   36.3080   31.8979   50.4588 H   0  0  0  0  0  0  0  0  0  0  0  0
   34.8972   29.9633   51.1342 H   0  0  0  0  0  0  0  0  0  0  0  0
   36.2415   28.8940   51.3383 H   0  0  0  0  0  0  0  0  0  0  0  0
   39.3602   34.7740   49.9123 H   0  0  0  0  0  0  0  0  0  0  0  0
   40.0249   33.7354   45.3500 H   0  0  0  0  0  0  0  0  0  0  0  0
   39.6331   31.7077   43.9650 H   0  0  0  0  0  0  0  0  0  0  0  0
   38.6783   29.6603   45.0513 H   0  0  0  0  0  0  0  0  0  0  0  0
   38.1434   29.6792   47.4741 H   0  0  0  0  0  0  0  0  0  0  0  0
   35.2180   30.9205   47.1753 H   0  0  0  0  0  0  0  0  0  0  0  0
   33.1651   30.5482   45.7494 H   0  0  0  0  0  0  0  0  0  0  0  0
   32.0248   27.2998   48.2756 H   0  0  0  0  0  0  0  0  0  0  0  0
  1  5  1  0
  2  1  1  0
  2  3  1  0
  3  4  1  0
  5  4  1  0
  6  7  2  0
  6  3  1  0
  8  7  1  0
  9  8  2  0
 10 15  2  0
 10  9  1  0
 11 10  1  0
 12 13  1  0
 12 11  2  0
 13 14  2  0
 14 15  1  0
 15  6  1  0
 16 21  1  0
 16  1  1  0
 17 16  2  0
 18 19  2  0
 18 17  1  0
 19 20  1  0
 20 21  2  0
  2 22  1  0
  2 23  1  0
  3 24  1  1
  4 25  1  0
  4 26  1  0
  5 27  1  0
  5 28  1  0
  8 29  1  0
 11 30  1  0
 12 31  1  0
 13 32  1  0
 14 33  1  0
 17 34  1  0
 18 35  1  0
 20 36  1  0
M  ISO  8  22  13  23  13  24  13  25  13  26  13  27  13  28  13  29  14
M  ISO  7  30  14  31  14  32  14  33  14  34  14  35  14  36  14
M  END
>  <minimizedAffinity>  (1) 
-6.15494585

>  <minimizedRMSD>  (1) 
2.28208971

$$$$
