
     RDKit          3D

 31 33  0  0  1  0  0  0  0  0999 V2000
   35.9950   29.4340   49.3070 N   0  0  0  0  0  0  0  0  0  0  0  0
   37.2710   29.6710   48.6870 C   0  0  0  0  0  0  0  0  0  0  0  0
   37.9380   30.6330   49.6570 C   0  0  2  0  0  0  0  0  0  0  0  0
   36.8970   30.9780   50.7080 C   0  0  0  0  0  0  0  0  0  0  0  0
   36.1910   29.6180   50.7360 C   0  0  0  0  0  0  0  0  0  0  0  0
   34.7740   29.0900   48.6790 C   0  0  0  0  0  0  0  0  0  0  0  0
   34.4800   29.7600   47.4820 C   0  0  0  0  0  0  0  0  0  0  0  0
   33.2760   29.4470   46.8280 C   0  0  0  0  0  0  0  0  0  0  0  0
   32.4680   28.5050   47.4030 N   0  0  0  0  0  0  0  0  0  0  0  0
   32.7990   27.8840   48.5640 C   0  0  0  0  0  0  0  0  0  0  0  0
   33.9480   28.1690   49.2080 N   0  0  0  0  0  0  0  0  0  0  0  0
   38.5320   31.7950   49.0040 C   0  0  0  0  0  0  0  0  0  0  0  0
   38.7460   32.9460   49.7370 C   0  0  0  0  0  0  0  0  0  0  0  0
   39.3100   34.0700   49.1440 C   0  0  0  0  0  0  0  0  0  0  0  0
   39.6220   33.9180   47.7960 C   0  0  0  0  0  0  0  0  0  0  0  0
   39.3960   32.7520   47.0840 C   0  0  0  0  0  0  0  0  0  0  0  0
   38.8460   31.6960   47.7190 N   0  0  0  0  0  0  0  0  0  0  0  0
   37.8466   28.7382   48.5941 H   0  0  0  0  0  0  0  0  0  0  0  0
   37.1932   30.0660   47.6633 H   0  0  0  0  0  0  0  0  0  0  0  0
   38.8081   30.1590   50.1347 H   0  0  0  0  0  0  0  0  0  0  0  0
   37.3487   31.2363   51.6771 H   0  0  0  0  0  0  0  0  0  0  0  0
   36.2644   31.8539   50.5015 H   0  0  0  0  0  0  0  0  0  0  0  0
   35.2365   29.6599   51.2812 H   0  0  0  0  0  0  0  0  0  0  0  0
   36.7380   28.8115   51.2462 H   0  0  0  0  0  0  0  0  0  0  0  0
   35.1715   30.5083   47.0675 H   0  0  0  0  0  0  0  0  0  0  0  0
   32.9935   29.9420   45.8872 H   0  0  0  0  0  0  0  0  0  0  0  0
   32.1157   27.1332   48.9875 H   0  0  0  0  0  0  0  0  0  0  0  0
   38.4674   32.9736   50.8008 H   0  0  0  0  0  0  0  0  0  0  0  0
   39.4947   35.0037   49.6954 H   0  0  0  0  0  0  0  0  0  0  0  0
   40.0728   34.7708   47.2674 H   0  0  0  0  0  0  0  0  0  0  0  0
   39.6605   32.6877   46.0182 H   0  0  0  0  0  0  0  0  0  0  0  0
  1  5  1  0
  2  1  1  0
  2  3  1  0
  3  4  1  0
  4  5  1  0
  6 11  1  0
  6  1  1  0
  7  6  2  0
  8  9  2  0
  8  7  1  0
  9 10  1  0
 10 11  2  0
 12  3  1  0
 12 13  2  0
 14 13  1  0
 15 14  2  0
 16 17  2  0
 16 15  1  0
 17 12  1  0
  2 18  1  0
  2 19  1  0
  3 20  1  1
  4 21  1  0
  4 22  1  0
  5 23  1  0
  5 24  1  0
  7 25  1  0
  8 26  1  0
 10 27  1  0
 13 28  1  0
 14 29  1  0
 15 30  1  0
 16 31  1  0
M  ISO  8  18  13  19  13  20  13  21  13  22  13  23  13  24  13  25  14
M  ISO  6  26  14  27  14  28  14  29  14  30  14  31  14
M  END
>  <minimizedAffinity>  (1) 
-5.37484074

>  <minimizedRMSD>  (1) 
1.59184051

$$$$
