
     RDKit          3D

 28 29  0  0  1  0  0  0  0  0999 V2000
   36.6180   29.7310   48.8640 N   0  0  0  0  0  0  0  0  0  0  0  0
   37.6360   30.2080   47.9660 C   0  0  0  0  0  0  0  0  0  0  0  0
   38.4170   31.1800   48.8340 C   0  0  2  0  0  0  0  0  0  0  0  0
   37.7550   31.1750   50.2010 C   0  0  0  0  0  0  0  0  0  0  0  0
   37.1880   29.7740   50.2100 C   0  0  0  0  0  0  0  0  0  0  0  0
   35.2990   29.2930   48.5540 C   0  0  0  0  0  0  0  0  0  0  0  0
   34.7580   29.7540   47.3550 C   0  0  0  0  0  0  0  0  0  0  0  0
   33.4700   29.3580   46.9950 C   0  0  0  0  0  0  0  0  0  0  0  0
   32.8140   28.5230   47.8750 N   0  0  0  0  0  0  0  0  0  0  0  0
   33.3690   28.0990   49.0280 C   0  0  0  0  0  0  0  0  0  0  0  0
   34.6280   28.4900   49.3680 N   0  0  0  0  0  0  0  0  0  0  0  0
   38.5290   32.4410   48.2980 O   0  0  0  0  0  0  0  0  0  0  0  0
   40.1090   33.6870   46.5550 O   0  0  0  0  0  0  0  0  0  0  0  0
   39.2160   32.4790   46.7650 P   0  0  0  0  0  0  0  0  0  0  0  0
   37.9530   32.6160   45.6450 O   0  0  0  0  0  0  0  0  0  0  0  0
   40.0540   31.0270   46.4600 O   0  0  0  0  0  0  0  0  0  0  0  0
   37.1924   30.7188   47.0986 H   0  0  0  0  0  0  0  0  0  0  0  0
   38.2566   29.4044   47.5428 H   0  0  0  0  0  0  0  0  0  0  0  0
   39.4636   30.8496   48.9078 H   0  0  0  0  0  0  0  0  0  0  0  0
   38.4856   31.3254   51.0094 H   0  0  0  0  0  0  0  0  0  0  0  0
   37.0178   31.9753   50.3628 H   0  0  0  0  0  0  0  0  0  0  0  0
   36.4177   29.6488   50.9852 H   0  0  0  0  0  0  0  0  0  0  0  0
   37.9136   28.9785   50.4350 H   0  0  0  0  0  0  0  0  0  0  0  0
   35.3391   30.4212   46.7014 H   0  0  0  0  0  0  0  0  0  0  0  0
   33.0019   29.6942   46.0581 H   0  0  0  0  0  0  0  0  0  0  0  0
   32.8024   27.4344   49.6968 H   0  0  0  0  0  0  0  0  0  0  0  0
   37.0933   32.7093   46.1269 H   0  0  0  0  0  0  0  0  0  0  0  0
   40.2998   30.6011   47.3192 H   0  0  0  0  0  0  0  0  0  0  0  0
  1  5  1  0
  2  3  1  0
  2  1  1  0
  3  4  1  0
  4  5  1  0
  6  1  1  0
  6 11  1  0
  7  6  2  0
  8  7  1  0
  8  9  2  0
  9 10  1  0
 10 11  2  0
 12  3  1  0
 13 14  2  0
 14 12  1  0
 15 14  1  0
 16 14  1  0
  2 17  1  0
  2 18  1  0
  3 19  1  1
  4 20  1  0
  4 21  1  0
  5 22  1  0
  5 23  1  0
  7 24  1  0
  8 25  1  0
 10 26  1  0
 15 27  1  0
 16 28  1  0
M  ISO  8  17  13  18  13  19  13  20  13  21  13  22  13  23  13  24  14
M  ISO  4  25  14  26  14  27   3  28   3
M  END
>  <minimizedAffinity>  (1) 
-4.95110321

>  <minimizedRMSD>  (1) 
1.85802341

$$$$
