
     RDKit          3D

 35 37  0  0  1  0  0  0  0  0999 V2000
   35.7370   29.5860   47.9270 N   0  0  0  0  0  0  0  0  0  0  0  0
   36.8750   30.2030   47.2710 C   0  0  0  0  0  0  0  0  0  0  0  0
   37.7820   30.5280   48.4460 C   0  0  2  0  0  0  0  0  0  0  0  0
   37.0050   30.2010   49.6960 C   0  0  0  0  0  0  0  0  0  0  0  0
   36.2340   28.9880   49.1600 C   0  0  0  0  0  0  0  0  0  0  0  0
   34.3840   29.5600   47.4700 C   0  0  0  0  0  0  0  0  0  0  0  0
   34.0100   30.5670   46.5840 C   0  0  0  0  0  0  0  0  0  0  0  0
   32.6900   30.5750   46.1140 C   0  0  0  0  0  0  0  0  0  0  0  0
   31.8580   29.5810   46.5650 N   0  0  0  0  0  0  0  0  0  0  0  0
   32.2680   28.6180   47.4320 C   0  0  0  0  0  0  0  0  0  0  0  0
   33.5460   28.6180   47.8820 N   0  0  0  0  0  0  0  0  0  0  0  0
   39.0070   32.4080   47.3050 C   0  0  0  0  0  0  0  0  0  0  0  0
   38.4150   31.8270   48.4080 C   0  0  0  0  0  0  0  0  0  0  0  0
   38.4300   32.5600   49.5840 C   0  0  0  0  0  0  0  0  0  0  0  0
   39.0110   33.8160   49.6560 C   0  0  0  0  0  0  0  0  0  0  0  0
   39.6040   34.3940   48.5460 C   0  0  0  0  0  0  0  0  0  0  0  0
   39.5920   33.6760   47.3830 C   0  0  0  0  0  0  0  0  0  0  0  0
   39.0000   31.5010   45.8060 S   0  0  0  0  0  0  0  0  0  0  0  0
   37.6740   31.4560   45.1450 O   0  0  0  0  0  0  0  0  0  0  0  0
   39.6280   30.1390   45.9930 O   0  0  0  0  0  0  0  0  0  0  0  0
   37.3604   29.5049   46.5731 H   0  0  0  0  0  0  0  0  0  0  0  0
   36.6121   31.0787   46.6594 H   0  0  0  0  0  0  0  0  0  0  0  0
   38.6852   29.9014   48.4065 H   0  0  0  0  0  0  0  0  0  0  0  0
   37.6623   29.9376   50.5378 H   0  0  0  0  0  0  0  0  0  0  0  0
   36.3933   31.0161   50.1102 H   0  0  0  0  0  0  0  0  0  0  0  0
   35.4186   28.6832   49.8325 H   0  0  0  0  0  0  0  0  0  0  0  0
   36.8153   28.0613   49.0447 H   0  0  0  0  0  0  0  0  0  0  0  0
   34.7299   31.3340   46.2624 H   0  0  0  0  0  0  0  0  0  0  0  0
   32.3356   31.3453   45.4133 H   0  0  0  0  0  0  0  0  0  0  0  0
   31.5648   27.8414   47.7672 H   0  0  0  0  0  0  0  0  0  0  0  0
   37.9676   32.1327   50.4860 H   0  0  0  0  0  0  0  0  0  0  0  0
   39.0010   34.3628   50.6104 H   0  0  0  0  0  0  0  0  0  0  0  0
   40.0661   35.3909   48.5982 H   0  0  0  0  0  0  0  0  0  0  0  0
   40.0553   34.1074   46.4834 H   0  0  0  0  0  0  0  0  0  0  0  0
   39.7884   32.1878   44.9208 H   0  0  0  0  0  0  0  0  0  0  0  0
  1  5  1  0
  2  1  1  0
  2  3  1  0
  3  4  1  0
  5  4  1  0
  6 11  1  0
  6  1  1  0
  7  6  2  0
  8  9  2  0
  8  7  1  0
  9 10  1  0
 10 11  2  0
 12 17  2  0
 12 13  1  0
 13  3  1  0
 13 14  2  0
 14 15  1  0
 16 15  2  0
 17 16  1  0
 18 20  2  0
 18 12  1  0
 19 18  2  0
  2 21  1  0
  2 22  1  0
  3 23  1  6
  4 24  1  0
  4 25  1  0
  5 26  1  0
  5 27  1  0
  7 28  1  0
  8 29  1  0
 10 30  1  0
 14 31  1  0
 15 32  1  0
 16 33  1  0
 17 34  1  0
 18 35  1  0
M  ISO  8  21  13  22  13  23  13  24  13  25  13  26  13  27  13  28  14
M  ISO  7  29  14  30  14  31  14  32  14  33  14  34  14  35  11
M  END
>  <minimizedAffinity>  (1) 
-4.8560071

>  <minimizedRMSD>  (1) 
2.45338345

$$$$
