
     RDKit          3D

 25 26  0  0  1  0  0  0  0  0999 V2000
   36.6010   29.6530   49.0800 N   0  0  0  0  0  0  0  0  0  0  0  0
   37.5520   30.4970   48.4120 C   0  0  0  0  0  0  0  0  0  0  0  0
   38.2320   31.2100   49.5680 C   0  0  2  0  0  0  0  0  0  0  0  0
   37.4920   30.7710   50.8290 C   0  0  0  0  0  0  0  0  0  0  0  0
   37.1540   29.3480   50.3760 C   0  0  0  0  0  0  0  0  0  0  0  0
   35.3420   29.1980   48.5630 C   0  0  0  0  0  0  0  0  0  0  0  0
   34.8160   29.9000   47.4740 C   0  0  0  0  0  0  0  0  0  0  0  0
   33.5810   29.4590   46.9710 C   0  0  0  0  0  0  0  0  0  0  0  0
   32.9960   28.3810   47.5850 N   0  0  0  0  0  0  0  0  0  0  0  0
   33.5310   27.7330   48.6270 C   0  0  0  0  0  0  0  0  0  0  0  0
   34.7160   28.1450   49.1210 N   0  0  0  0  0  0  0  0  0  0  0  0
   38.2490   32.7030   49.4110 C   0  0  0  0  0  0  0  0  0  0  0  0
   37.0520   33.1600   49.9330 F   0  0  0  0  0  0  0  0  0  0  0  0
   38.2300   32.9630   48.0560 F   0  0  0  0  0  0  0  0  0  0  0  0
   39.3190   33.3140   49.9910 F   0  0  0  0  0  0  0  0  0  0  0  0
   38.2734   29.9016   47.8331 H   0  0  0  0  0  0  0  0  0  0  0  0
   37.0931   31.1825   47.6844 H   0  0  0  0  0  0  0  0  0  0  0  0
   39.2962   30.9356   49.6138 H   0  0  0  0  0  0  0  0  0  0  0  0
   38.1374   30.7849   51.7197 H   0  0  0  0  0  0  0  0  0  0  0  0
   36.6438   31.3984   51.1403 H   0  0  0  0  0  0  0  0  0  0  0  0
   36.4172   28.8682   51.0370 H   0  0  0  0  0  0  0  0  0  0  0  0
   37.9936   28.6374   50.3782 H   0  0  0  0  0  0  0  0  0  0  0  0
   35.3447   30.7574   47.0320 H   0  0  0  0  0  0  0  0  0  0  0  0
   33.1011   29.9592   46.1169 H   0  0  0  0  0  0  0  0  0  0  0  0
   33.0098   26.8742   49.0751 H   0  0  0  0  0  0  0  0  0  0  0  0
  1  5  1  0
  2  1  1  0
  2  3  1  0
  3  4  1  0
  5  4  1  0
  6  1  1  0
  6 11  1  0
  7  6  2  0
  8  7  1  0
  8  9  2  0
  9 10  1  0
 10 11  2  0
 12  3  1  0
 12 13  1  0
 12 15  1  0
 14 12  1  0
  2 16  1  0
  2 17  1  0
  3 18  1  1
  4 19  1  0
  4 20  1  0
  5 21  1  0
  5 22  1  0
  7 23  1  0
  8 24  1  0
 10 25  1  0
M  ISO  8  16  13  17  13  18  13  19  13  20  13  21  13  22  13  23  14
M  ISO  2  24  14  25  14
M  END
>  <minimizedAffinity>  (1) 
-5.64853001

>  <minimizedRMSD>  (1) 
0.580128372

$$$$
