
     RDKit          3D

 32 34  0  0  1  0  0  0  0  0999 V2000
   36.6290   29.7790   48.9960 N   0  0  0  0  0  0  0  0  0  0  0  0
   37.5970   30.6110   48.3550 C   0  0  0  0  0  0  0  0  0  0  0  0
   38.2750   31.3100   49.5300 C   0  0  2  0  0  0  0  0  0  0  0  0
   37.5470   30.8420   50.7770 C   0  0  0  0  0  0  0  0  0  0  0  0
   37.1650   29.4390   50.2970 C   0  0  0  0  0  0  0  0  0  0  0  0
   35.3700   29.3450   48.4810 C   0  0  0  0  0  0  0  0  0  0  0  0
   34.7750   28.2610   49.1120 C   0  0  0  0  0  0  0  0  0  0  0  0
   33.5360   27.8260   48.6100 C   0  0  0  0  0  0  0  0  0  0  0  0
   33.0070   28.4940   47.5470 N   0  0  0  0  0  0  0  0  0  0  0  0
   33.6130   29.5400   46.9620 C   0  0  0  0  0  0  0  0  0  0  0  0
   34.7980   29.9680   47.4300 N   0  0  0  0  0  0  0  0  0  0  0  0
   33.0650   30.2620   45.8310 C   0  0  0  0  0  0  0  0  0  0  0  0
   33.2180   30.1500   44.4620 C   0  0  0  0  0  0  0  0  0  0  0  0
   32.4290   31.1320   43.8980 C   0  0  0  0  0  0  0  0  0  0  0  0
   31.8320   31.7960   44.9520 C   0  0  0  0  0  0  0  0  0  0  0  0
   32.2270   31.2590   46.0910 O   0  0  0  0  0  0  0  0  0  0  0  0
   38.3140   32.8010   49.3860 C   0  0  0  0  0  0  0  0  0  0  0  0
   37.1060   33.2480   49.9020 F   0  0  0  0  0  0  0  0  0  0  0  0
   38.3290   33.0880   48.0470 F   0  0  0  0  0  0  0  0  0  0  0  0
   39.3730   33.3910   50.0170 F   0  0  0  0  0  0  0  0  0  0  0  0
   38.3184   30.0100   47.7819 H   0  0  0  0  0  0  0  0  0  0  0  0
   37.1570   31.3097   47.6282 H   0  0  0  0  0  0  0  0  0  0  0  0
   39.3397   31.0388   49.5828 H   0  0  0  0  0  0  0  0  0  0  0  0
   38.2062   30.8147   51.6572 H   0  0  0  0  0  0  0  0  0  0  0  0
   36.7143   31.4773   51.1132 H   0  0  0  0  0  0  0  0  0  0  0  0
   36.4081   28.9737   50.9455 H   0  0  0  0  0  0  0  0  0  0  0  0
   37.9826   28.7031   50.2927 H   0  0  0  0  0  0  0  0  0  0  0  0
   35.2529   27.7634   49.9687 H   0  0  0  0  0  0  0  0  0  0  0  0
   33.0097   26.9722   49.0618 H   0  0  0  0  0  0  0  0  0  0  0  0
   33.8452   29.4216   43.9272 H   0  0  0  0  0  0  0  0  0  0  0  0
   32.3014   31.3432   42.8260 H   0  0  0  0  0  0  0  0  0  0  0  0
   31.1351   32.6417   44.8567 H   0  0  0  0  0  0  0  0  0  0  0  0
  1  5  1  0
  2  1  1  0
  2  3  1  0
  3  4  1  0
  5  4  1  0
  6  1  1  0
  6  7  2  0
  8  7  1  0
  9  8  2  0
 10 11  2  0
 10  9  1  0
 11  6  1  0
 12 16  1  0
 12 10  1  0
 13 12  2  0
 14 13  1  0
 14 15  2  0
 15 16  1  0
 17  3  1  0
 17 18  1  0
 17 20  1  0
 19 17  1  0
  2 21  1  0
  2 22  1  0
  3 23  1  1
  4 24  1  0
  4 25  1  0
  5 26  1  0
  5 27  1  0
  7 28  1  0
  8 29  1  0
 13 30  1  0
 14 31  1  0
 15 32  1  0
M  ISO  8  21  13  22  13  23  13  24  13  25  13  26  13  27  13  28  14
M  ISO  4  29  14  30  14  31  14  32  14
M  END
>  <minimizedAffinity>  (1) 
-6.23234844

>  <minimizedRMSD>  (1) 
3.85056376

$$$$
