
     RDKit          3D

 32 34  0  0  1  0  0  0  0  0999 V2000
   36.5620   29.9180   48.7550 N   0  0  0  0  0  0  0  0  0  0  0  0
   37.6340   30.7350   48.2340 C   0  0  0  0  0  0  0  0  0  0  0  0
   38.2140   31.3580   49.4950 C   0  0  2  0  0  0  0  0  0  0  0  0
   37.3110   30.9230   50.6340 C   0  0  0  0  0  0  0  0  0  0  0  0
   36.9480   29.5440   50.0920 C   0  0  0  0  0  0  0  0  0  0  0  0
   35.3570   29.5540   48.0790 C   0  0  0  0  0  0  0  0  0  0  0  0
   35.2220   29.9830   46.7660 C   0  0  0  0  0  0  0  0  0  0  0  0
   34.0340   29.6280   46.0860 C   0  0  0  0  0  0  0  0  0  0  0  0
   33.1150   28.8840   46.8000 N   0  0  0  0  0  0  0  0  0  0  0  0
   33.2820   28.4900   48.0600 C   0  0  0  0  0  0  0  0  0  0  0  0
   34.4110   28.8270   48.7060 N   0  0  0  0  0  0  0  0  0  0  0  0
   32.2240   27.6890   48.7320 C   0  0  0  0  0  0  0  0  0  0  0  0
   30.8700   27.7140   48.0890 C   0  0  0  0  0  0  0  0  0  0  0  0
   31.7270   26.4680   48.0550 C   0  0  0  0  0  0  0  0  0  0  0  0
   38.3300   32.8460   49.3920 C   0  0  0  0  0  0  0  0  0  0  0  0
   37.1360   33.3710   49.8770 F   0  0  0  0  0  0  0  0  0  0  0  0
   38.3880   33.1640   48.0440 F   0  0  0  0  0  0  0  0  0  0  0  0
   39.4070   33.3780   50.0430 F   0  0  0  0  0  0  0  0  0  0  0  0
   38.3836   30.1221   47.7121 H   0  0  0  0  0  0  0  0  0  0  0  0
   37.3009   31.4753   47.4917 H   0  0  0  0  0  0  0  0  0  0  0  0
   39.2456   31.0155   49.6637 H   0  0  0  0  0  0  0  0  0  0  0  0
   37.8460   30.8673   51.5935 H   0  0  0  0  0  0  0  0  0  0  0  0
   36.4682   31.5902   50.8675 H   0  0  0  0  0  0  0  0  0  0  0  0
   36.1158   29.0886   50.6488 H   0  0  0  0  0  0  0  0  0  0  0  0
   37.7428   28.7865   50.1591 H   0  0  0  0  0  0  0  0  0  0  0  0
   36.0076   30.5754   46.2741 H   0  0  0  0  0  0  0  0  0  0  0  0
   33.8514   29.9284   45.0437 H   0  0  0  0  0  0  0  0  0  0  0  0
   32.6206   27.8911   49.7379 H   0  0  0  0  0  0  0  0  0  0  0  0
   29.9631   27.7445   48.7108 H   0  0  0  0  0  0  0  0  0  0  0  0
   30.3707   28.3428   47.3371 H   0  0  0  0  0  0  0  0  0  0  0  0
   31.4410   25.5876   48.6492 H   0  0  0  0  0  0  0  0  0  0  0  0
   32.1092   25.8087   47.2617 H   0  0  0  0  0  0  0  0  0  0  0  0
  1  5  1  0
  2  1  1  0
  2  3  1  0
  3  4  1  0
  5  4  1  0
  6 11  1  0
  6  1  1  0
  7  6  2  0
  8  7  1  0
  8  9  2  0
  9 10  1  0
 10 11  2  0
 10 12  1  0
 13 12  1  0
 14 13  1  0
 14 12  1  0
 15  3  1  0
 15 16  1  0
 15 18  1  0
 17 15  1  0
  2 19  1  0
  2 20  1  0
  3 21  1  1
  4 22  1  0
  4 23  1  0
  5 24  1  0
  5 25  1  0
  7 26  1  0
  8 27  1  0
 12 28  1  0
 13 29  1  0
 13 30  1  0
 14 31  1  0
 14 32  1  0
M  ISO  8  19  13  20  13  21  13  22  13  23  13  24  13  25  13  26  14
M  ISO  6  27  14  28  13  29  13  30  13  31  13  32  13
M  END
>  <minimizedAffinity>  (1) 
-5.75608206

>  <minimizedRMSD>  (1) 
0.80640918

$$$$
