
     RDKit          3D

 27 28  0  0  1  0  0  0  0  0999 V2000
   36.5280   29.8670   48.7280 N   0  0  0  0  0  0  0  0  0  0  0  0
   37.6210   30.6520   48.2560 C   0  0  0  0  0  0  0  0  0  0  0  0
   38.1600   31.2960   49.5270 C   0  0  2  0  0  0  0  0  0  0  0  0
   37.1970   30.8890   50.6300 C   0  0  0  0  0  0  0  0  0  0  0  0
   36.8520   29.5020   50.0940 C   0  0  0  0  0  0  0  0  0  0  0  0
   35.3400   29.5000   48.0180 C   0  0  0  0  0  0  0  0  0  0  0  0
   35.1730   30.0570   46.7580 C   0  0  0  0  0  0  0  0  0  0  0  0
   34.0070   29.7010   46.0530 C   0  0  0  0  0  0  0  0  0  0  0  0
   33.1370   28.8420   46.6550 N   0  0  0  0  0  0  0  0  0  0  0  0
   33.3380   28.3230   47.8790 C   0  0  0  0  0  0  0  0  0  0  0  0
   34.4460   28.6590   48.5540 N   0  0  0  0  0  0  0  0  0  0  0  0
   32.3720   27.4080   48.4740 C   0  0  0  0  0  0  0  0  0  0  0  0
   31.3850   27.8020   49.1400 O   0  0  0  0  0  0  0  0  0  0  0  0
   38.2920   32.7900   49.4010 C   0  0  0  0  0  0  0  0  0  0  0  0
   37.1050   33.3200   49.9000 F   0  0  0  0  0  0  0  0  0  0  0  0
   38.3380   33.0880   48.0540 F   0  0  0  0  0  0  0  0  0  0  0  0
   39.3800   33.2990   50.0380 F   0  0  0  0  0  0  0  0  0  0  0  0
   38.3845   30.0194   47.7797 H   0  0  0  0  0  0  0  0  0  0  0  0
   37.3270   31.3859   47.4912 H   0  0  0  0  0  0  0  0  0  0  0  0
   39.1820   30.9529   49.7454 H   0  0  0  0  0  0  0  0  0  0  0  0
   37.6832   30.8476   51.6158 H   0  0  0  0  0  0  0  0  0  0  0  0
   36.3490   31.5661   50.8103 H   0  0  0  0  0  0  0  0  0  0  0  0
   35.9928   29.0582   50.6182 H   0  0  0  0  0  0  0  0  0  0  0  0
   37.6364   28.7394   50.2089 H   0  0  0  0  0  0  0  0  0  0  0  0
   35.9170   30.7448   46.3297 H   0  0  0  0  0  0  0  0  0  0  0  0
   33.8051   30.1031   45.0492 H   0  0  0  0  0  0  0  0  0  0  0  0
   32.5146   26.3264   48.3330 H   0  0  0  0  0  0  0  0  0  0  0  0
  1  5  1  0
  2  1  1  0
  2  3  1  0
  3  4  1  0
  5  4  1  0
  6 11  1  0
  6  1  1  0
  7  6  2  0
  8  9  2  0
  8  7  1  0
  9 10  1  0
 10 12  1  0
 10 11  2  0
 12 13  2  0
 14  3  1  0
 14 15  1  0
 14 17  1  0
 16 14  1  0
  2 18  1  0
  2 19  1  0
  3 20  1  1
  4 21  1  0
  4 22  1  0
  5 23  1  0
  5 24  1  0
  7 25  1  0
  8 26  1  0
 12 27  1  0
M  ISO  8  18  13  19  13  20  13  21  13  22  13  23  13  24  13  25  14
M  ISO  2  26  14  27   6
M  END
>  <minimizedAffinity>  (1) 
-5.46003199

>  <minimizedRMSD>  (1) 
0.783178449

$$$$
