
     RDKit          3D

 36 38  0  0  1  0  0  0  0  0999 V2000
   35.3020   29.5430   48.0000 C   0  0  0  0  0  0  0  0  0  0  0  0
   35.2230   29.9870   46.6680 C   0  0  0  0  0  0  0  0  0  0  0  0
   34.0510   29.6470   45.9720 C   0  0  0  0  0  0  0  0  0  0  0  0
   33.0940   28.9220   46.6370 N   0  0  0  0  0  0  0  0  0  0  0  0
   33.2070   28.5220   47.8970 C   0  0  0  0  0  0  0  0  0  0  0  0
   34.3330   28.8420   48.5820 N   0  0  0  0  0  0  0  0  0  0  0  0
   36.5040   29.8950   48.7060 N   0  0  0  0  0  0  0  0  0  0  0  0
   37.6070   30.6650   48.2320 C   0  0  0  0  0  0  0  0  0  0  0  0
   38.1500   31.3050   49.5080 C   0  0  2  0  0  0  0  0  0  0  0  0
   37.1910   30.9000   50.6130 C   0  0  0  0  0  0  0  0  0  0  0  0
   36.8250   29.5260   50.0640 C   0  0  0  0  0  0  0  0  0  0  0  0
   38.3010   32.7960   49.3960 C   0  0  0  0  0  0  0  0  0  0  0  0
   37.1150   33.3460   49.8810 F   0  0  0  0  0  0  0  0  0  0  0  0
   38.3310   33.1120   48.0490 F   0  0  0  0  0  0  0  0  0  0  0  0
   39.3880   33.2900   50.0350 F   0  0  0  0  0  0  0  0  0  0  0  0
   31.9470   27.5920   48.7100 S   0  0  0  0  0  0  0  0  0  0  0  0
   29.2300   27.9410   47.1820 Cl  0  0  0  0  0  0  0  0  0  0  0  0
   30.1640   26.4680   46.9290 C   0  0  0  0  0  0  0  0  0  0  0  0
   31.3760   26.3090   47.6080 C   0  0  0  0  0  0  0  0  0  0  0  0
   32.0870   25.1330   47.3840 C   0  0  0  0  0  0  0  0  0  0  0  0
   31.5830   24.1770   46.5140 C   0  0  0  0  0  0  0  0  0  0  0  0
   30.4020   24.3360   45.8550 C   0  0  0  0  0  0  0  0  0  0  0  0
   29.6910   25.5070   46.0770 C   0  0  0  0  0  0  0  0  0  0  0  0
   28.1820   25.7740   45.2700 Cl  0  0  0  0  0  0  0  0  0  0  0  0
   36.0315   30.5666   46.1986 H   0  0  0  0  0  0  0  0  0  0  0  0
   33.9047   29.9527   44.9255 H   0  0  0  0  0  0  0  0  0  0  0  0
   38.3639   30.0223   47.7586 H   0  0  0  0  0  0  0  0  0  0  0  0
   37.3253   31.3998   47.4634 H   0  0  0  0  0  0  0  0  0  0  0  0
   39.1707   30.9524   49.7176 H   0  0  0  0  0  0  0  0  0  0  0  0
   37.6839   30.8411   51.5946 H   0  0  0  0  0  0  0  0  0  0  0  0
   36.3537   31.5862   50.8081 H   0  0  0  0  0  0  0  0  0  0  0  0
   35.9606   29.0911   50.5872 H   0  0  0  0  0  0  0  0  0  0  0  0
   37.6024   28.7550   50.1703 H   0  0  0  0  0  0  0  0  0  0  0  0
   33.0458   24.9623   47.8955 H   0  0  0  0  0  0  0  0  0  0  0  0
   32.1598   23.2548   46.3502 H   0  0  0  0  0  0  0  0  0  0  0  0
   30.0244   23.5626   45.1700 H   0  0  0  0  0  0  0  0  0  0  0  0
  1  6  1  0
  1  7  1  0
  2  1  2  0
  3  4  2  0
  3  2  1  0
  4  5  1  0
  5  6  2  0
  5 16  1  0
  7 11  1  0
  8  7  1  0
  8  9  1  0
  9 10  1  0
 11 10  1  0
 12  9  1  0
 12 13  1  0
 12 15  1  0
 14 12  1  0
 18 17  1  0
 18 19  2  0
 19 16  1  0
 20 19  1  0
 21 20  2  0
 22 23  2  0
 22 21  1  0
 23 18  1  0
 24 23  1  0
  2 25  1  0
  3 26  1  0
  8 27  1  0
  8 28  1  0
  9 29  1  1
 10 30  1  0
 10 31  1  0
 11 32  1  0
 11 33  1  0
 20 34  1  0
 21 35  1  0
 22 36  1  0
M  ISO  8  25  14  26  14  27  13  28  13  29  13  30  13  31  13  32  13
M  ISO  4  33  13  34  14  35  14  36  14
M  END
>  <minimizedAffinity>  (1) 
-6.02140188

>  <minimizedRMSD>  (1) 
1.50816143

$$$$
