
     RDKit          3D

 41 44  0  0  1  0  0  0  0  0999 V2000
   35.0650   29.4570   47.9220 C   0  0  0  0  0  0  0  0  0  0  0  0
   34.8250   30.2160   46.7670 C   0  0  0  0  0  0  0  0  0  0  0  0
   33.6550   29.9370   46.0460 C   0  0  0  0  0  0  0  0  0  0  0  0
   32.8330   28.9400   46.5340 N   0  0  0  0  0  0  0  0  0  0  0  0
   33.1040   28.2500   47.6350 C   0  0  0  0  0  0  0  0  0  0  0  0
   34.2250   28.5020   48.3410 N   0  0  0  0  0  0  0  0  0  0  0  0
   36.2680   29.7510   48.6520 N   0  0  0  0  0  0  0  0  0  0  0  0
   37.3980   30.5000   48.1900 C   0  0  0  0  0  0  0  0  0  0  0  0
   37.9570   31.0820   49.4840 C   0  0  2  0  0  0  0  0  0  0  0  0
   36.9780   30.6840   50.5800 C   0  0  0  0  0  0  0  0  0  0  0  0
   36.5630   29.3390   50.0120 C   0  0  0  0  0  0  0  0  0  0  0  0
   38.1460   32.5700   49.4160 C   0  0  0  0  0  0  0  0  0  0  0  0
   37.0050   33.1410   49.9370 F   0  0  0  0  0  0  0  0  0  0  0  0
   38.1820   32.9050   48.0790 F   0  0  0  0  0  0  0  0  0  0  0  0
   39.2770   33.0020   50.0530 F   0  0  0  0  0  0  0  0  0  0  0  0
   32.0070   26.9760   48.2130 S   0  0  0  0  0  0  0  0  0  0  0  0
   30.5400   27.4440   48.9000 C   0  0  0  0  0  0  0  0  0  0  0  0
   29.8200   27.3120   50.0530 C   0  0  0  0  0  0  0  0  0  0  0  0
   28.5990   27.8530   50.2780 C   0  0  0  0  0  0  0  0  0  0  0  0
   28.0930   28.6320   49.1150 C   0  0  0  0  0  0  0  0  0  0  0  0
   29.3940   28.5030   47.8630 S   0  0  0  0  0  0  0  0  0  0  0  0
   26.8230   29.3020   49.1060 C   0  0  0  0  0  0  0  0  0  0  0  0
   25.6340   28.7230   49.3920 C   0  0  0  0  0  0  0  0  0  0  0  0
   24.5190   29.5330   49.3310 C   0  0  0  0  0  0  0  0  0  0  0  0
   24.6410   30.8310   48.9990 N   0  0  0  0  0  0  0  0  0  0  0  0
   25.8210   31.4030   48.7150 C   0  0  0  0  0  0  0  0  0  0  0  0
   26.9040   30.5960   48.7800 N   0  0  0  0  0  0  0  0  0  0  0  0
   35.5260   30.9982   46.4401 H   0  0  0  0  0  0  0  0  0  0  0  0
   33.4022   30.4897   45.1291 H   0  0  0  0  0  0  0  0  0  0  0  0
   38.1334   29.8472   47.6970 H   0  0  0  0  0  0  0  0  0  0  0  0
   37.1425   31.2627   47.4396 H   0  0  0  0  0  0  0  0  0  0  0  0
   38.9638   30.6856   49.6822 H   0  0  0  0  0  0  0  0  0  0  0  0
   37.4664   30.5895   51.5611 H   0  0  0  0  0  0  0  0  0  0  0  0
   36.1637   31.3953   50.7824 H   0  0  0  0  0  0  0  0  0  0  0  0
   35.6773   28.9313   50.5212 H   0  0  0  0  0  0  0  0  0  0  0  0
   37.3044   28.5327   50.1128 H   0  0  0  0  0  0  0  0  0  0  0  0
   30.2677   26.7187   50.8639 H   0  0  0  0  0  0  0  0  0  0  0  0
   28.0416   27.7300   51.2183 H   0  0  0  0  0  0  0  0  0  0  0  0
   25.5601   27.6587   49.6600 H   0  0  0  0  0  0  0  0  0  0  0  0
   23.5261   29.1159   49.5547 H   0  0  0  0  0  0  0  0  0  0  0  0
   25.9026   32.4662   48.4451 H   0  0  0  0  0  0  0  0  0  0  0  0
  1  6  1  0
  1  7  1  0
  2  1  2  0
  3  4  2  0
  3  2  1  0
  4  5  1  0
  5 16  1  0
  5  6  2  0
  7 11  1  0
  8  7  1  0
  8  9  1  0
  9 10  1  0
 11 10  1  0
 12  9  1  0
 12 13  1  0
 12 15  1  0
 14 12  1  0
 16 17  1  0
 17 18  2  0
 18 19  1  0
 20 19  2  0
 21 17  1  0
 21 20  1  0
 22 20  1  0
 22 23  2  0
 24 23  1  0
 25 24  2  0
 26 27  2  0
 26 25  1  0
 27 22  1  0
  2 28  1  0
  3 29  1  0
  8 30  1  0
  8 31  1  0
  9 32  1  1
 10 33  1  0
 10 34  1  0
 11 35  1  0
 11 36  1  0
 18 37  1  0
 19 38  1  0
 23 39  1  0
 24 40  1  0
 26 41  1  0
M  ISO  8  28  14  29  14  30  13  31  13  32  13  33  13  34  13  35  13
M  ISO  6  36  13  37  14  38  14  39  14  40  14  41  14
M  END
>  <minimizedAffinity>  (1) 
-7.80166101

>  <minimizedRMSD>  (1) 
0.605124235

$$$$
