
     RDKit          3D

 44 48  0  0  1  0  0  0  0  0999 V2000
   34.8060   29.4150   47.9600 C   0  0  0  0  0  0  0  0  0  0  0  0
   34.5380   30.2310   46.8500 C   0  0  0  0  0  0  0  0  0  0  0  0
   33.3490   29.9980   46.1540 C   0  0  0  0  0  0  0  0  0  0  0  0
   32.5330   28.9870   46.6150 N   0  0  0  0  0  0  0  0  0  0  0  0
   32.8280   28.2390   47.6730 C   0  0  0  0  0  0  0  0  0  0  0  0
   33.9670   28.4490   48.3510 N   0  0  0  0  0  0  0  0  0  0  0  0
   36.0310   29.6590   48.6710 N   0  0  0  0  0  0  0  0  0  0  0  0
   37.1780   30.3700   48.1930 C   0  0  0  0  0  0  0  0  0  0  0  0
   37.7830   30.9180   49.4830 C   0  0  2  0  0  0  0  0  0  0  0  0
   36.8120   30.5480   50.5960 C   0  0  0  0  0  0  0  0  0  0  0  0
   36.3360   29.2240   50.0220 C   0  0  0  0  0  0  0  0  0  0  0  0
   38.0270   32.3980   49.4240 C   0  0  0  0  0  0  0  0  0  0  0  0
   36.9170   33.0060   49.9730 F   0  0  0  0  0  0  0  0  0  0  0  0
   38.0450   32.7470   48.0860 F   0  0  0  0  0  0  0  0  0  0  0  0
   39.1820   32.7860   50.0410 F   0  0  0  0  0  0  0  0  0  0  0  0
   31.7290   26.9480   48.2150 S   0  0  0  0  0  0  0  0  0  0  0  0
   30.2900   27.3890   48.9670 C   0  0  0  0  0  0  0  0  0  0  0  0
   29.6560   27.3360   50.1720 C   0  0  0  0  0  0  0  0  0  0  0  0
   28.4130   27.8160   50.4300 C   0  0  0  0  0  0  0  0  0  0  0  0
   27.7710   28.4330   49.2360 C   0  0  0  0  0  0  0  0  0  0  0  0
   29.0100   28.2510   47.9110 S   0  0  0  0  0  0  0  0  0  0  0  0
   26.5040   28.9790   49.2960 N   0  0  0  0  0  0  0  0  0  0  0  0
   25.3370   28.5770   49.8780 C   0  0  0  0  0  0  0  0  0  0  0  0
   24.3990   29.5050   49.6180 N   0  0  0  0  0  0  0  0  0  0  0  0
   24.9360   30.5010   48.8790 C   0  0  0  0  0  0  0  0  0  0  0  0
   24.3230   31.6390   48.4000 C   0  0  0  0  0  0  0  0  0  0  0  0
   25.0910   32.4990   47.6710 N   0  0  0  0  0  0  0  0  0  0  0  0
   26.3990   32.1680   47.4730 C   0  0  0  0  0  0  0  0  0  0  0  0
   26.9820   31.0530   47.9480 N   0  0  0  0  0  0  0  0  0  0  0  0
   26.2610   30.1710   48.6760 C   0  0  0  0  0  0  0  0  0  0  0  0
   35.2362   31.0225   46.5402 H   0  0  0  0  0  0  0  0  0  0  0  0
   33.0750   30.5974   45.2733 H   0  0  0  0  0  0  0  0  0  0  0  0
   37.8791   29.6956   47.6794 H   0  0  0  0  0  0  0  0  0  0  0  0
   36.9369   31.1487   47.4544 H   0  0  0  0  0  0  0  0  0  0  0  0
   38.7768   30.4801   49.6579 H   0  0  0  0  0  0  0  0  0  0  0  0
   37.3158   30.4255   51.5661 H   0  0  0  0  0  0  0  0  0  0  0  0
   36.0298   31.2874   50.8227 H   0  0  0  0  0  0  0  0  0  0  0  0
   35.4453   28.8444   50.5441 H   0  0  0  0  0  0  0  0  0  0  0  0
   37.0492   28.3903   50.1010 H   0  0  0  0  0  0  0  0  0  0  0  0
   30.1971   26.8646   51.0057 H   0  0  0  0  0  0  0  0  0  0  0  0
   27.9306   27.7557   51.4167 H   0  0  0  0  0  0  0  0  0  0  0  0
   25.1893   27.6545   50.4587 H   0  0  0  0  0  0  0  0  0  0  0  0
   23.2605   31.8447   48.5971 H   0  0  0  0  0  0  0  0  0  0  0  0
   27.0195   32.8601   46.8847 H   0  0  0  0  0  0  0  0  0  0  0  0
  1  6  1  0
  1  7  1  0
  2  1  2  0
  3  4  2  0
  3  2  1  0
  4  5  1  0
  5 16  1  0
  5  6  2  0
  7 11  1  0
  8  7  1  0
  8  9  1  0
  9 10  1  0
 11 10  1  0
 12  9  1  0
 12 13  1  0
 12 15  1  0
 14 12  1  0
 16 17  1  0
 17 18  2  0
 18 19  1  0
 20 22  1  0
 20 19  2  0
 21 17  1  0
 21 20  1  0
 22 23  1  0
 24 23  2  0
 25 24  1  0
 26 25  2  0
 27 26  1  0
 28 27  2  0
 28 29  1  0
 29 30  2  0
 30 25  1  0
 30 22  1  0
  2 31  1  0
  3 32  1  0
  8 33  1  0
  8 34  1  0
  9 35  1  1
 10 36  1  0
 10 37  1  0
 11 38  1  0
 11 39  1  0
 18 40  1  0
 19 41  1  0
 23 42  1  0
 26 43  1  0
 28 44  1  0
M  ISO  8  31  14  32  14  33  13  34  13  35  13  36  13  37  13  38  13
M  ISO  6  39  13  40  14  41  14  42  14  43  14  44  14
M  END
>  <minimizedAffinity>  (1) 
-7.64338875

>  <minimizedRMSD>  (1) 
0.944079757

$$$$
