
     RDKit          3D

 43 46  0  0  1  0  0  0  0  0999 V2000
   35.5950   29.6280   47.5580 C   0  0  0  0  0  0  0  0  0  0  0  0
   35.6090   30.2650   46.3180 C   0  0  0  0  0  0  0  0  0  0  0  0
   34.6150   29.9050   45.4040 C   0  0  0  0  0  0  0  0  0  0  0  0
   33.6980   28.9430   45.8060 N   0  0  0  0  0  0  0  0  0  0  0  0
   33.7290   28.3670   46.9990 C   0  0  0  0  0  0  0  0  0  0  0  0
   34.6770   28.7060   47.8790 N   0  0  0  0  0  0  0  0  0  0  0  0
   36.6200   29.9990   48.5040 N   0  0  0  0  0  0  0  0  0  0  0  0
   37.8250   30.7240   48.2220 C   0  0  0  0  0  0  0  0  0  0  0  0
   38.1000   31.4220   49.5550 C   0  0  2  0  0  0  0  0  0  0  0  0
   36.9130   31.0990   50.4550 C   0  0  0  0  0  0  0  0  0  0  0  0
   36.6260   29.7060   49.9280 C   0  0  0  0  0  0  0  0  0  0  0  0
   38.3070   32.9030   49.3870 C   0  0  0  0  0  0  0  0  0  0  0  0
   37.1530   33.5130   49.8230 F   0  0  0  0  0  0  0  0  0  0  0  0
   38.3970   33.1520   48.0340 F   0  0  0  0  0  0  0  0  0  0  0  0
   39.4160   33.3670   50.0430 F   0  0  0  0  0  0  0  0  0  0  0  0
   32.5220   27.1460   47.4390 S   0  0  0  0  0  0  0  0  0  0  0  0
   31.1900   27.6380   48.3490 C   0  0  0  0  0  0  0  0  0  0  0  0
   30.7500   27.7370   49.6380 C   0  0  0  0  0  0  0  0  0  0  0  0
   29.5450   28.2020   50.0420 C   0  0  0  0  0  0  0  0  0  0  0  0
   28.6960   28.6180   48.8990 C   0  0  0  0  0  0  0  0  0  0  0  0
   29.7030   28.3010   47.4220 S   0  0  0  0  0  0  0  0  0  0  0  0
   26.6330   26.5170   48.8140 Cl  0  0  0  0  0  0  0  0  0  0  0  0
   26.3520   28.2290   48.9030 C   0  0  0  0  0  0  0  0  0  0  0  0
   27.3690   29.1550   48.9400 C   0  0  0  0  0  0  0  0  0  0  0  0
   27.2630   30.5240   49.0090 C   0  0  0  0  0  0  0  0  0  0  0  0
   25.9510   31.0170   49.0470 C   0  0  0  0  0  0  0  0  0  0  0  0
   24.8580   30.1410   49.0140 C   0  0  0  0  0  0  0  0  0  0  0  0
   25.0530   28.7560   48.9430 C   0  0  0  0  0  0  0  0  0  0  0  0
   36.3703   31.0191   46.0695 H   0  0  0  0  0  0  0  0  0  0  0  0
   34.5612   30.3652   44.4063 H   0  0  0  0  0  0  0  0  0  0  0  0
   38.6458   30.0437   47.9510 H   0  0  0  0  0  0  0  0  0  0  0  0
   37.7361   31.4154   47.3711 H   0  0  0  0  0  0  0  0  0  0  0  0
   39.0375   31.0612   50.0034 H   0  0  0  0  0  0  0  0  0  0  0  0
   37.1865   31.0939   51.5205 H   0  0  0  0  0  0  0  0  0  0  0  0
   36.0746   31.8104   50.4243 H   0  0  0  0  0  0  0  0  0  0  0  0
   35.6539   29.3258   50.2751 H   0  0  0  0  0  0  0  0  0  0  0  0
   37.3311   28.9245   50.2475 H   0  0  0  0  0  0  0  0  0  0  0  0
   31.4433   27.4062   50.4254 H   0  0  0  0  0  0  0  0  0  0  0  0
   29.2318   28.2642   51.0946 H   0  0  0  0  0  0  0  0  0  0  0  0
   28.1427   31.1839   49.0327 H   0  0  0  0  0  0  0  0  0  0  0  0
   25.7781   32.1019   49.1033 H   0  0  0  0  0  0  0  0  0  0  0  0
   23.8355   30.5455   49.0442 H   0  0  0  0  0  0  0  0  0  0  0  0
   24.1855   28.0801   48.9186 H   0  0  0  0  0  0  0  0  0  0  0  0
  1  6  1  0
  1  7  1  0
  2  1  2  0
  3  4  2  0
  3  2  1  0
  4  5  1  0
  5 16  1  0
  5  6  2  0
  7 11  1  0
  8  7  1  0
  8  9  1  0
  9 10  1  0
 11 10  1  0
 12  9  1  0
 12 13  1  0
 12 15  1  0
 14 12  1  0
 16 17  1  0
 17 18  2  0
 18 19  1  0
 20 24  1  0
 20 19  2  0
 21 17  1  0
 21 20  1  0
 22 23  1  0
 23 24  2  0
 23 28  1  0
 24 25  1  0
 25 26  2  0
 27 26  1  0
 28 27  2  0
  2 29  1  0
  3 30  1  0
  8 31  1  0
  8 32  1  0
  9 33  1  1
 10 34  1  0
 10 35  1  0
 11 36  1  0
 11 37  1  0
 18 38  1  0
 19 39  1  0
 25 40  1  0
 26 41  1  0
 27 42  1  0
 28 43  1  0
M  ISO  8  29  14  30  14  31  13  32  13  33  13  34  13  35  13  36  13
M  ISO  7  37  13  38  14  39  14  40  14  41  14  42  14  43  14
M  END
>  <minimizedAffinity>  (1) 
-7.54590607

>  <minimizedRMSD>  (1) 
0.855226755

$$$$
