
     RDKit          3D

 39 42  0  0  1  0  0  0  0  0999 V2000
   38.7950   32.3210   46.8180 C   0  0  1  0  0  0  0  0  0  0  0  0
   39.9580   32.9730   46.0880 C   0  0  0  0  0  0  0  0  0  0  0  0
   39.9070   31.5160   46.2500 C   0  0  2  0  0  0  0  0  0  0  0  0
   38.7250   32.6250   48.2910 C   0  0  0  0  0  0  0  0  0  0  0  0
   37.4790   30.3190   50.9590 C   0  0  0  0  0  0  0  0  0  0  0  0
   38.3050   31.2390   50.2250 C   0  0  0  0  0  0  0  0  0  0  0  0
   37.8420   31.6780   49.0120 C   0  0  0  0  0  0  0  0  0  0  0  0
   36.6660   31.2500   48.5590 N   0  0  0  0  0  0  0  0  0  0  0  0
   35.8980   30.3910   49.2470 C   0  0  0  0  0  0  0  0  0  0  0  0
   36.3120   29.9310   50.4460 N   0  0  0  0  0  0  0  0  0  0  0  0
   39.5360   30.5850   45.1440 C   0  0  0  0  0  0  0  0  0  0  0  0
   40.2020   30.9220   43.8160 C   0  0  0  0  0  0  0  0  0  0  0  0
   39.2450   28.6690   43.4300 C   0  0  0  0  0  0  0  0  0  0  0  0
   40.0860   29.6810   42.9980 C   0  0  0  0  0  0  0  0  0  0  0  0
   40.7780   29.4800   41.8210 C   0  0  0  0  0  0  0  0  0  0  0  0
   40.6490   28.3160   41.0840 C   0  0  0  0  0  0  0  0  0  0  0  0
   41.1890   27.8670   39.9330 N   0  0  0  0  0  0  0  0  0  0  0  0
   40.7040   26.6230   39.6540 C   0  0  0  0  0  0  0  0  0  0  0  0
   39.8510   26.3280   40.6760 N   0  0  0  0  0  0  0  0  0  0  0  0
   39.7940   27.3280   41.5560 C   0  0  0  0  0  0  0  0  0  0  0  0
   39.0890   27.5040   42.7320 C   0  0  0  0  0  0  0  0  0  0  0  0
   37.7004   32.2546   46.7317 H   0  0  0  0  0  0  0  0  0  0  0  0
   40.6980   33.5641   46.6475 H   0  0  0  0  0  0  0  0  0  0  0  0
   40.0567   33.6600   45.2346 H   0  0  0  0  0  0  0  0  0  0  0  0
   40.6599   30.8030   46.6171 H   0  0  0  0  0  0  0  0  0  0  0  0
   39.7377   32.5598   48.7156 H   0  0  0  0  0  0  0  0  0  0  0  0
   38.3080   33.6360   48.4098 H   0  0  0  0  0  0  0  0  0  0  0  0
   37.8081   29.9382   51.9371 H   0  0  0  0  0  0  0  0  0  0  0  0
   39.2730   31.5781   50.6224 H   0  0  0  0  0  0  0  0  0  0  0  0
   34.9328   30.0625   48.8342 H   0  0  0  0  0  0  0  0  0  0  0  0
   39.8319   29.5657   45.4330 H   0  0  0  0  0  0  0  0  0  0  0  0
   38.4503   30.6778   44.9939 H   0  0  0  0  0  0  0  0  0  0  0  0
   39.6830   31.7583   43.3248 H   0  0  0  0  0  0  0  0  0  0  0  0
   41.2489   31.2332   43.9470 H   0  0  0  0  0  0  0  0  0  0  0  0
   38.6839   28.8072   44.3660 H   0  0  0  0  0  0  0  0  0  0  0  0
   41.4527   30.2692   41.4577 H   0  0  0  0  0  0  0  0  0  0  0  0
   41.8647   28.3845   39.3529 H   0  0  0  0  0  0  0  0  0  0  0  0
   40.9492   25.9912   38.7875 H   0  0  0  0  0  0  0  0  0  0  0  0
   38.4128   26.7186   43.1005 H   0  0  0  0  0  0  0  0  0  0  0  0
  1  4  1  0
  2  3  1  0
  2  1  1  0
  3  1  1  0
  4  7  1  0
  6  5  2  0
  7  6  1  0
  8  7  2  0
  8  9  1  0
  9 10  2  0
 10  5  1  0
 11  3  1  0
 12 11  1  0
 14 13  2  0
 14 12  1  0
 15 14  1  0
 16 20  1  0
 16 15  2  0
 17 16  1  0
 18 17  1  0
 18 19  2  0
 19 20  1  0
 20 21  2  0
 21 13  1  0
  1 22  1  6
  2 23  1  0
  2 24  1  0
  3 25  1  1
  4 26  1  0
  4 27  1  0
  5 28  1  0
  6 29  1  0
  9 30  1  0
 11 31  1  0
 11 32  1  0
 12 33  1  0
 12 34  1  0
 13 35  1  0
 15 36  1  0
 17 37  1  0
 18 38  1  0
 21 39  1  0
M  ISO  8  22  13  23  13  24  13  25  13  26   8  27   8  28  14  29  14
M  ISO  8  30  14  31   8  32   8  33   8  34   8  35  14  36  14  37   9
M  ISO  2  38  14  39  14
M  END
>  <minimizedAffinity>  (1) 
-5.66170073

>  <minimizedRMSD>  (1) 
1.47946358

$$$$
