
     RDKit          3D

 26 27  0  0  0  0  0  0  0  0999 V2000
   37.3140   30.4100   50.3560 C   0  0  0  0  0  0  0  0  0  0  0  0
   38.2970   30.8500   49.4700 C   0  0  0  0  0  0  0  0  0  0  0  0
   37.9020   31.1000   48.1570 C   0  0  0  0  0  0  0  0  0  0  0  0
   36.6010   30.9050   47.8240 N   0  0  0  0  0  0  0  0  0  0  0  0
   35.6730   30.4770   48.7080 C   0  0  0  0  0  0  0  0  0  0  0  0
   36.0410   30.2310   49.9800 N   0  0  0  0  0  0  0  0  0  0  0  0
   38.7790   31.5480   47.1490 N   0  0  0  0  0  0  0  0  0  0  0  0
   39.5000   32.8060   47.2550 C   0  0  0  0  0  0  0  0  0  0  0  0
   39.8260   33.3380   45.8810 C   0  0  0  0  0  0  0  0  0  0  0  0
   40.7710   32.4050   45.1460 C   0  0  0  0  0  0  0  0  0  0  0  0
   40.5800   31.0100   45.7220 C   0  0  0  0  0  0  0  0  0  0  0  0
   39.0670   30.8480   45.9270 C   0  0  0  0  0  0  0  0  0  0  0  0
   37.8470   30.2000   51.6330 O   0  0  0  0  0  0  0  0  0  0  0  0
   39.3386   30.9935   49.7933 H   0  0  0  0  0  0  0  0  0  0  0  0
   34.6294   30.3312   48.3925 H   0  0  0  0  0  0  0  0  0  0  0  0
   38.8767   33.5380   47.7894 H   0  0  0  0  0  0  0  0  0  0  0  0
   40.4371   32.6370   47.8058 H   0  0  0  0  0  0  0  0  0  0  0  0
   38.8952   33.4356   45.3030 H   0  0  0  0  0  0  0  0  0  0  0  0
   40.3158   34.3167   45.9915 H   0  0  0  0  0  0  0  0  0  0  0  0
   41.8109   32.7323   45.2928 H   0  0  0  0  0  0  0  0  0  0  0  0
   40.5575   32.4101   44.0669 H   0  0  0  0  0  0  0  0  0  0  0  0
   40.9553   30.2507   45.0201 H   0  0  0  0  0  0  0  0  0  0  0  0
   41.1332   30.8807   46.6639 H   0  0  0  0  0  0  0  0  0  0  0  0
   38.5134   31.2930   45.0871 H   0  0  0  0  0  0  0  0  0  0  0  0
   38.7681   29.7905   45.9768 H   0  0  0  0  0  0  0  0  0  0  0  0
   37.2627   29.8854   52.3677 H   0  0  0  0  0  0  0  0  0  0  0  0
  1 13  1  0
  2  1  2  0
  3  2  1  0
  4  3  2  0
  4  5  1  0
  5  6  2  0
  6  1  1  0
  7  8  1  0
  7  3  1  0
  9  8  1  0
 10 11  1  0
 10  9  1  0
 11 12  1  0
 12  7  1  0
  2 14  1  0
  5 15  1  0
  8 16  1  0
  8 17  1  0
  9 18  1  0
  9 19  1  0
 10 20  1  0
 10 21  1  0
 11 22  1  0
 11 23  1  0
 12 24  1  0
 12 25  1  0
 13 26  1  0
M  ISO  8  14  14  15  14  16  13  17  13  18  13  19  13  20  13  21  13
M  ISO  5  22  13  23  13  24  13  25  13  26   3
M  END
>  <minimizedAffinity>  (1) 
-5.28800964

>  <minimizedRMSD>  (1) 
1.74720418

$$$$
