
     RDKit          3D

 23 24  0  0  1  0  0  0  0  0999 V2000
   37.2100   29.7990   51.4160 C   0  0  0  0  0  0  0  0  0  0  0  0
   37.7160   30.6540   50.4150 C   0  0  0  0  0  0  0  0  0  0  0  0
   36.9060   30.9740   49.3340 C   0  0  0  0  0  0  0  0  0  0  0  0
   35.6440   30.4330   49.3030 N   0  0  0  0  0  0  0  0  0  0  0  0
   35.1750   29.6140   50.2720 C   0  0  0  0  0  0  0  0  0  0  0  0
   35.9640   29.3120   51.3070 N   0  0  0  0  0  0  0  0  0  0  0  0
   37.7550   31.1190   47.0070 C   0  0  2  0  0  0  0  0  0  0  0  0
   37.3490   31.8620   48.2370 C   0  0  2  0  0  0  0  0  0  0  0  0
   38.5370   32.7100   48.6510 C   0  0  0  0  0  0  0  0  0  0  0  0
   39.3470   32.7540   47.5080 O   0  0  0  0  0  0  0  0  0  0  0  0
   39.2430   31.4760   46.9220 C   0  0  0  0  0  0  0  0  0  0  0  0
   37.1130   31.5740   45.8560 O   0  0  0  0  0  0  0  0  0  0  0  0
   38.1370   29.5810   52.4150 O   0  0  0  0  0  0  0  0  0  0  0  0
   38.7354   31.0605   50.4896 H   0  0  0  0  0  0  0  0  0  0  0  0
   34.1571   29.2019   50.2087 H   0  0  0  0  0  0  0  0  0  0  0  0
   37.5131   30.0475   47.0651 H   0  0  0  0  0  0  0  0  0  0  0  0
   36.4719   32.4878   48.0155 H   0  0  0  0  0  0  0  0  0  0  0  0
   38.2127   33.7212   48.9378 H   0  0  0  0  0  0  0  0  0  0  0  0
   39.0641   32.2969   49.5237 H   0  0  0  0  0  0  0  0  0  0  0  0
   39.8481   30.7453   47.4787 H   0  0  0  0  0  0  0  0  0  0  0  0
   39.6111   31.4662   45.8855 H   0  0  0  0  0  0  0  0  0  0  0  0
   36.3324   32.1272   46.1104 H   0  0  0  0  0  0  0  0  0  0  0  0
   37.9103   28.9974   53.1819 H   0  0  0  0  0  0  0  0  0  0  0  0
  1 13  1  0
  2  1  2  0
  3  2  1  0
  4  3  2  0
  4  5  1  0
  5  6  2  0
  6  1  1  0
  7 12  1  0
  7  8  1  0
  8  9  1  0
  8  3  1  0
 10  9  1  0
 11  7  1  0
 11 10  1  0
  2 14  1  0
  5 15  1  0
  7 16  1  1
  8 17  1  6
  9 18  1  0
  9 19  1  0
 11 20  1  0
 11 21  1  0
 12 22  1  0
 13 23  1  0
M  ISO  8  14  14  15  14  16  13  17  13  18  13  19  13  20  13  21  13
M  ISO  2  22   3  23   3
M  END
>  <minimizedAffinity>  (1) 
-5.08862448

>  <minimizedRMSD>  (1) 
1.99721956

$$$$
