
     RDKit          3D

 19 20  0  0  0  0  0  0  0  0999 V2000
   37.2150   29.8540   51.0750 C   0  0  0  0  0  0  0  0  0  0  0  0
   37.9190   30.4860   50.0290 C   0  0  0  0  0  0  0  0  0  0  0  0
   37.2410   30.7290   48.8470 C   0  0  0  0  0  0  0  0  0  0  0  0
   35.9380   30.3480   48.7570 N   0  0  0  0  0  0  0  0  0  0  0  0
   35.2850   29.7440   49.7760 C   0  0  0  0  0  0  0  0  0  0  0  0
   35.9220   29.4990   50.9270 N   0  0  0  0  0  0  0  0  0  0  0  0
   37.8340   31.3690   47.6860 C   0  0  0  0  0  0  0  0  0  0  0  0
   38.9470   32.1740   47.7410 C   0  0  0  0  0  0  0  0  0  0  0  0
   39.5310   32.7930   46.6550 C   0  0  0  0  0  0  0  0  0  0  0  0
   38.9560   32.5920   45.4350 N   0  0  0  0  0  0  0  0  0  0  0  0
   37.8530   31.7970   45.3620 C   0  0  0  0  0  0  0  0  0  0  0  0
   37.3200   31.2140   46.4520 N   0  0  0  0  0  0  0  0  0  0  0  0
   38.0130   29.6740   52.1950 O   0  0  0  0  0  0  0  0  0  0  0  0
   38.9732   30.7765   50.1487 H   0  0  0  0  0  0  0  0  0  0  0  0
   34.2304   29.4542   49.6585 H   0  0  0  0  0  0  0  0  0  0  0  0
   39.4074   32.3372   48.7266 H   0  0  0  0  0  0  0  0  0  0  0  0
   40.4250   33.4237   46.7688 H   0  0  0  0  0  0  0  0  0  0  0  0
   37.3830   31.6259   44.3823 H   0  0  0  0  0  0  0  0  0  0  0  0
   37.6408   29.2405   53.0035 H   0  0  0  0  0  0  0  0  0  0  0  0
  1 13  1  0
  2  1  2  0
  3  2  1  0
  4  3  2  0
  4  5  1  0
  5  6  2  0
  6  1  1  0
  7  8  2  0
  7  3  1  0
  9  8  1  0
 10  9  2  0
 11 10  1  0
 11 12  2  0
 12  7  1  0
  2 14  1  0
  5 15  1  0
  8 16  1  0
  9 17  1  0
 11 18  1  0
 13 19  1  0
M  ISO  6  14  14  15  14  16  14  17  14  18  14  19   3
M  END
>  <minimizedAffinity>  (1) 
-4.90726185

>  <minimizedRMSD>  (1) 
1.10744834

$$$$
