
     RDKit          3D

 24 25  0  0  1  0  0  0  0  0999 V2000
   37.7630   30.7200   49.0700 C   0  0  0  0  0  0  0  0  0  0  0  0
   38.4050   30.6540   47.8260 C   0  0  0  0  0  0  0  0  0  0  0  0
   37.6210   30.5460   46.6780 C   0  0  0  0  0  0  0  0  0  0  0  0
   36.2740   30.5090   46.8290 N   0  0  0  0  0  0  0  0  0  0  0  0
   35.6730   30.5760   48.0540 C   0  0  0  0  0  0  0  0  0  0  0  0
   36.4260   30.6800   49.1460 N   0  0  0  0  0  0  0  0  0  0  0  0
   39.5670   31.1410   45.2430 C   0  0  1  0  0  0  0  0  0  0  0  0
   38.2230   30.4700   45.3180 C   0  0  2  0  0  0  0  0  0  0  0  0
   37.4590   31.1210   44.3690 O   0  0  0  0  0  0  0  0  0  0  0  0
   37.7730   32.4860   44.4730 C   0  0  0  0  0  0  0  0  0  0  0  0
   39.2060   32.5670   44.8800 C   0  0  1  0  0  0  0  0  0  0  0  0
   40.3280   31.0290   46.3800 O   0  0  0  0  0  0  0  0  0  0  0  0
   39.4580   33.3650   45.9680 O   0  0  0  0  0  0  0  0  0  0  0  0
   38.6800   30.8260   50.1170 O   0  0  0  0  0  0  0  0  0  0  0  0
   39.5023   30.6867   47.7568 H   0  0  0  0  0  0  0  0  0  0  0  0
   34.5766   30.5443   48.1368 H   0  0  0  0  0  0  0  0  0  0  0  0
   40.2321   30.6648   44.5076 H   0  0  0  0  0  0  0  0  0  0  0  0
   38.2941   29.3901   45.1213 H   0  0  0  0  0  0  0  0  0  0  0  0
   37.6257   32.9837   43.5032 H   0  0  0  0  0  0  0  0  0  0  0  0
   37.1245   32.9861   45.2074 H   0  0  0  0  0  0  0  0  0  0  0  0
   39.7875   33.0140   44.0602 H   0  0  0  0  0  0  0  0  0  0  0  0
   39.7461   31.1146   47.1763 H   0  0  0  0  0  0  0  0  0  0  0  0
   39.2958   32.8513   46.7986 H   0  0  0  0  0  0  0  0  0  0  0  0
   39.6509   30.8452   49.9246 H   0  0  0  0  0  0  0  0  0  0  0  0
  1  6  2  0
  1 14  1  0
  2  1  1  0
  3  4  1  0
  3  2  2  0
  4  5  2  0
  5  6  1  0
  7  8  1  0
  7 12  1  0
  8  3  1  0
  9 10  1  0
  9  8  1  0
 10 11  1  0
 11  7  1  0
 11 13  1  0
  2 15  1  0
  5 16  1  0
  7 17  1  6
  8 18  1  6
 10 19  1  0
 10 20  1  0
 11 21  1  6
 12 22  1  0
 13 23  1  0
 14 24  1  0
M  ISO  8  15  14  16  14  17  13  18  13  19  13  20  13  21  13  22   3
M  ISO  2  23   3  24   3
M  END
>  <minimizedAffinity>  (1) 
-4.89155102

>  <minimizedRMSD>  (1) 
3.56016135

$$$$
