
     RDKit          3D

 18 19  0  0  0  0  0  0  0  0999 V2000
   37.2780   29.7620   51.3570 C   0  0  0  0  0  0  0  0  0  0  0  0
   37.8330   30.9430   50.8360 C   0  0  0  0  0  0  0  0  0  0  0  0
   37.1130   31.6210   49.8530 C   0  0  0  0  0  0  0  0  0  0  0  0
   35.9210   31.1080   49.4560 N   0  0  0  0  0  0  0  0  0  0  0  0
   35.4100   29.9680   49.9760 C   0  0  0  0  0  0  0  0  0  0  0  0
   36.0920   29.3120   50.9160 N   0  0  0  0  0  0  0  0  0  0  0  0
   37.6290   32.8900   49.2390 C   0  0  0  0  0  0  0  0  0  0  0  0
   38.7480   32.6510   48.1780 C   0  0  0  0  0  0  0  0  0  0  0  0
   39.0030   33.3290   49.4710 C   0  0  0  0  0  0  0  0  0  0  0  0
   38.0980   29.1970   52.3190 O   0  0  0  0  0  0  0  0  0  0  0  0
   38.8032   31.3202   51.1917 H   0  0  0  0  0  0  0  0  0  0  0  0
   34.4398   29.5853   49.6262 H   0  0  0  0  0  0  0  0  0  0  0  0
   36.6603   33.4046   49.3217 H   0  0  0  0  0  0  0  0  0  0  0  0
   39.1346   31.6377   47.9944 H   0  0  0  0  0  0  0  0  0  0  0  0
   38.8966   32.8894   47.1145 H   0  0  0  0  0  0  0  0  0  0  0  0
   39.2303   34.4052   49.4791 H   0  0  0  0  0  0  0  0  0  0  0  0
   39.7226   33.1539   50.2844 H   0  0  0  0  0  0  0  0  0  0  0  0
   37.8270   28.3583   52.7698 H   0  0  0  0  0  0  0  0  0  0  0  0
  1 10  1  0
  2  1  2  0
  3  2  1  0
  4  3  2  0
  4  5  1  0
  5  6  2  0
  6  1  1  0
  7  9  1  0
  7  3  1  0
  8  7  1  0
  8  9  1  0
  2 11  1  0
  5 12  1  0
  7 13  1  0
  8 14  1  0
  8 15  1  0
  9 16  1  0
  9 17  1  0
 10 18  1  0
M  ISO  8  11  14  12  14  13  13  14  13  15  13  16  13  17  13  18   3
M  END
>  <minimizedAffinity>  (1) 
-4.51306629

>  <minimizedRMSD>  (1) 
0.632848442

$$$$
