
     RDKit          3D

 14 14  0  0  0  0  0  0  0  0999 V2000
   37.3320   30.1390   51.0090 C   0  0  0  0  0  0  0  0  0  0  0  0
   38.1760   30.9880   50.2890 C   0  0  0  0  0  0  0  0  0  0  0  0
   37.7280   31.4980   49.0780 C   0  0  0  0  0  0  0  0  0  0  0  0
   36.4940   31.1480   48.6480 N   0  0  0  0  0  0  0  0  0  0  0  0
   35.6790   30.3120   49.3690 C   0  0  0  0  0  0  0  0  0  0  0  0
   36.1150   29.8290   50.5270 N   0  0  0  0  0  0  0  0  0  0  0  0
   37.9150   29.7130   52.1920 O   0  0  0  0  0  0  0  0  0  0  0  0
   38.5460   32.4130   48.2290 C   0  0  0  0  0  0  0  0  0  0  0  0
   39.1737   31.2468   50.6732 H   0  0  0  0  0  0  0  0  0  0  0  0
   34.6798   30.0459   48.9937 H   0  0  0  0  0  0  0  0  0  0  0  0
   37.4202   29.1052   52.7969 H   0  0  0  0  0  0  0  0  0  0  0  0
   39.1402   33.0777   48.8733 H   0  0  0  0  0  0  0  0  0  0  0  0
   39.2200   31.8193   47.5939 H   0  0  0  0  0  0  0  0  0  0  0  0
   37.8808   33.0165   47.5939 H   0  0  0  0  0  0  0  0  0  0  0  0
  1  7  1  0
  2  1  2  0
  3  2  1  0
  4  3  2  0
  4  5  1  0
  5  6  2  0
  6  1  1  0
  8  3  1  0
  2  9  1  0
  5 10  1  0
  7 11  1  0
  8 12  1  0
  8 13  1  0
  8 14  1  0
M  ISO  6   9  14  10  14  11   3  12   8  13   8  14   8
M  END
>  <minimizedAffinity>  (1) 
-3.78373528

>  <minimizedRMSD>  (1) 
0.475854844

$$$$
