
     RDKit          3D

 12 12  0  0  0  0  0  0  0  0999 V2000
   37.3330   30.0730   51.0910 C   0  0  0  0  0  0  0  0  0  0  0  0
   38.1610   30.9320   50.3330 C   0  0  0  0  0  0  0  0  0  0  0  0
   37.6540   31.4140   49.1360 C   0  0  0  0  0  0  0  0  0  0  0  0
   36.4040   31.0460   48.7500 N   0  0  0  0  0  0  0  0  0  0  0  0
   35.6350   30.2160   49.5110 C   0  0  0  0  0  0  0  0  0  0  0  0
   36.1070   29.7450   50.6630 N   0  0  0  0  0  0  0  0  0  0  0  0
   37.9480   29.6580   52.2650 O   0  0  0  0  0  0  0  0  0  0  0  0
   38.6220   32.5130   48.0920 S   0  0  0  0  0  0  0  0  0  0  0  0
   39.1681   31.2073   50.6793 H   0  0  0  0  0  0  0  0  0  0  0  0
   34.6262   29.9361   49.1734 H   0  0  0  0  0  0  0  0  0  0  0  0
   37.4715   29.0517   52.8859 H   0  0  0  0  0  0  0  0  0  0  0  0
   39.3633   33.3547   48.8787 H   0  0  0  0  0  0  0  0  0  0  0  0
  1  7  1  0
  2  1  2  0
  3  2  1  0
  4  3  2  0
  4  5  1  0
  5  6  2  0
  6  1  1  0
  8  3  1  0
  2  9  1  0
  5 10  1  0
  7 11  1  0
  8 12  1  0
M  ISO  4   9  14  10  14  11   3  12  11
M  END
>  <minimizedAffinity>  (1) 
-3.69595766

>  <minimizedRMSD>  (1) 
0.369220495

$$$$
