
     RDKit          3D

 18 19  0  0  0  0  0  0  0  0999 V2000
   37.3430   29.8280   50.9640 C   0  0  0  0  0  0  0  0  0  0  0  0
   38.1030   30.7250   50.2020 C   0  0  0  0  0  0  0  0  0  0  0  0
   37.8030   30.8560   48.8500 C   0  0  0  0  0  0  0  0  0  0  0  0
   36.7910   30.1080   48.3440 N   0  0  0  0  0  0  0  0  0  0  0  0
   36.0690   29.2450   49.1090 C   0  0  0  0  0  0  0  0  0  0  0  0
   36.3490   29.1100   50.4130 N   0  0  0  0  0  0  0  0  0  0  0  0
   38.5450   31.7660   47.9850 C   0  0  0  0  0  0  0  0  0  0  0  0
   39.0120   31.4400   46.7280 C   0  0  0  0  0  0  0  0  0  0  0  0
   39.6410   32.6190   46.3140 C   0  0  0  0  0  0  0  0  0  0  0  0
   39.5470   33.5770   47.2720 N   0  0  0  0  0  0  0  0  0  0  0  0
   38.8750   33.0310   48.2800 N   0  0  0  0  0  0  0  0  0  0  0  0
   37.7690   29.8140   52.2940 O   0  0  0  0  0  0  0  0  0  0  0  0
   38.9145   31.3095   50.6601 H   0  0  0  0  0  0  0  0  0  0  0  0
   35.2556   28.6581   48.6575 H   0  0  0  0  0  0  0  0  0  0  0  0
   38.9139   30.4881   46.1855 H   0  0  0  0  0  0  0  0  0  0  0  0
   40.1433   32.7520   45.3445 H   0  0  0  0  0  0  0  0  0  0  0  0
   39.9217   34.5353   47.2264 H   0  0  0  0  0  0  0  0  0  0  0  0
   37.3211   29.2242   52.9510 H   0  0  0  0  0  0  0  0  0  0  0  0
  1 12  1  0
  2  1  2  0
  3  2  1  0
  4  3  2  0
  4  5  1  0
  5  6  2  0
  6  1  1  0
  7 11  2  0
  7  3  1  0
  8  7  1  0
  9  8  2  0
  9 10  1  0
 10 11  1  0
  2 13  1  0
  5 14  1  0
  8 15  1  0
  9 16  1  0
 10 17  1  0
 12 18  1  0
M  ISO  6  13  14  14  14  15  14  16  14  17   9  18   3
M  END
>  <minimizedAffinity>  (1) 
-5.11415291

>  <minimizedRMSD>  (1) 
1.09694374

$$$$
