
     RDKit          3D

 32 34  0  0  1  0  0  0  0  0999 V2000
   38.5330   32.0180   47.1210 C   0  0  0  0  0  0  0  0  0  0  0  0
   37.5890   31.1850   47.7360 C   0  0  0  0  0  0  0  0  0  0  0  0
   37.2410   31.4180   49.0540 C   0  0  0  0  0  0  0  0  0  0  0  0
   37.8330   32.4460   49.6890 N   0  0  0  0  0  0  0  0  0  0  0  0
   38.7450   33.2500   49.0910 C   0  0  0  0  0  0  0  0  0  0  0  0
   39.0880   33.0350   47.8230 N   0  0  0  0  0  0  0  0  0  0  0  0
   36.2600   30.5790   49.7470 C   0  0  0  0  0  0  0  0  0  0  0  0
   36.5720   29.7550   50.8120 C   0  0  0  0  0  0  0  0  0  0  0  0
   35.3340   29.1710   51.1240 C   0  0  0  0  0  0  0  0  0  0  0  0
   34.3630   29.6390   50.2810 N   0  0  0  0  0  0  0  0  0  0  0  0
   34.9600   30.4850   49.4650 N   0  0  0  0  0  0  0  0  0  0  0  0
   38.7620   31.6450   45.8080 O   0  0  0  0  0  0  0  0  0  0  0  0
   40.7450   31.1230   44.7050 N   0  0  0  0  0  0  0  0  0  0  0  0
   39.6070   30.5820   45.4060 C   0  0  2  0  0  0  0  0  0  0  0  0
   38.7850   29.6440   44.5670 C   0  0  0  0  0  0  0  0  0  0  0  0
   39.5230   28.9690   43.5530 N   0  0  0  0  0  0  0  0  0  0  0  0
   40.3990   29.7750   42.7650 C   0  0  0  0  0  0  0  0  0  0  0  0
   40.5450   31.1730   43.2730 C   0  0  0  0  0  0  0  0  0  0  0  0
   37.1303   30.3559   47.1773 H   0  0  0  0  0  0  0  0  0  0  0  0
   39.2011   34.0788   49.6523 H   0  0  0  0  0  0  0  0  0  0  0  0
   37.5475   29.5963   51.2949 H   0  0  0  0  0  0  0  0  0  0  0  0
   35.1683   28.4417   51.9306 H   0  0  0  0  0  0  0  0  0  0  0  0
   33.3656   29.3818   50.2835 H   0  0  0  0  0  0  0  0  0  0  0  0
   40.9192   32.0787   45.0472 H   0  0  0  0  0  0  0  0  0  0  0  0
   40.0057   30.0174   46.2617 H   0  0  0  0  0  0  0  0  0  0  0  0
   38.3394   28.8882   45.2305 H   0  0  0  0  0  0  0  0  0  0  0  0
   38.0305   30.2579   44.0533 H   0  0  0  0  0  0  0  0  0  0  0  0
   40.0918   28.2421   44.0102 H   0  0  0  0  0  0  0  0  0  0  0  0
   40.0041   29.8172   41.7392 H   0  0  0  0  0  0  0  0  0  0  0  0
   41.3945   29.3094   42.8113 H   0  0  0  0  0  0  0  0  0  0  0  0
   41.4110   31.6532   42.7940 H   0  0  0  0  0  0  0  0  0  0  0  0
   39.6415   31.7551   43.0389 H   0  0  0  0  0  0  0  0  0  0  0  0
  1  2  2  0
  1  6  1  0
  2  3  1  0
  3  4  2  0
  3  7  1  0
  5  4  1  0
  6  5  2  0
  7  8  1  0
  8  9  2  0
 10  9  1  0
 11  7  2  0
 11 10  1  0
 12  1  1  0
 13 14  1  0
 14 12  1  0
 15 14  1  0
 16 15  1  0
 17 18  1  0
 17 16  1  0
 18 13  1  0
  2 19  1  0
  5 20  1  0
  8 21  1  0
  9 22  1  0
 10 23  1  0
 13 24  1  0
 14 25  1  1
 15 26  1  0
 15 27  1  0
 16 28  1  0
 17 29  1  0
 17 30  1  0
 18 31  1  0
 18 32  1  0
M  ISO  8  19  14  20  14  21  14  22  14  23   9  24   5  25  13  26  13
M  ISO  6  27  13  28   5  29  13  30  13  31  13  32  13
M  END
>  <minimizedAffinity>  (1) 
-5.57372284

>  <minimizedRMSD>  (1) 
7.7039361

$$$$
