
     RDKit          3D

 25 27  0  0  0  0  0  0  0  0999 V2000
   38.8590   31.7960   47.5680 C   0  0  0  0  0  0  0  0  0  0  0  0
   37.8370   30.8990   47.8670 C   0  0  0  0  0  0  0  0  0  0  0  0
   36.9870   31.2030   48.9120 C   0  0  0  0  0  0  0  0  0  0  0  0
   37.1790   32.3640   49.6070 N   0  0  0  0  0  0  0  0  0  0  0  0
   38.1910   33.2220   49.2870 C   0  0  0  0  0  0  0  0  0  0  0  0
   39.0210   32.9210   48.2640 N   0  0  0  0  0  0  0  0  0  0  0  0
   35.8800   30.3250   49.2990 C   0  0  0  0  0  0  0  0  0  0  0  0
   35.9410   28.9610   49.3890 C   0  0  0  0  0  0  0  0  0  0  0  0
   34.6610   28.5960   49.7880 C   0  0  0  0  0  0  0  0  0  0  0  0
   33.8880   29.6930   49.9240 N   0  0  0  0  0  0  0  0  0  0  0  0
   34.6430   30.7560   49.6220 N   0  0  0  0  0  0  0  0  0  0  0  0
   39.6340   31.3680   46.5040 O   0  0  0  0  0  0  0  0  0  0  0  0
   40.3650   32.2090   45.6480 C   0  0  0  0  0  0  0  0  0  0  0  0
   40.4520   31.9430   44.1950 C   0  0  0  0  0  0  0  0  0  0  0  0
   39.5720   33.0680   44.7300 C   0  0  0  0  0  0  0  0  0  0  0  0
   37.7101   29.9733   47.2866 H   0  0  0  0  0  0  0  0  0  0  0  0
   38.3300   34.1520   49.8578 H   0  0  0  0  0  0  0  0  0  0  0  0
   36.8025   28.3061   49.1915 H   0  0  0  0  0  0  0  0  0  0  0  0
   34.3269   27.5633   49.9668 H   0  0  0  0  0  0  0  0  0  0  0  0
   32.8981   29.7096   50.2082 H   0  0  0  0  0  0  0  0  0  0  0  0
   41.1368   32.3644   46.4162 H   0  0  0  0  0  0  0  0  0  0  0  0
   39.9934   31.0374   43.7712 H   0  0  0  0  0  0  0  0  0  0  0  0
   41.2678   31.8700   43.4608 H   0  0  0  0  0  0  0  0  0  0  0  0
   39.8581   34.1180   44.5697 H   0  0  0  0  0  0  0  0  0  0  0  0
   38.5121   33.3472   44.6364 H   0  0  0  0  0  0  0  0  0  0  0  0
  1  2  2  0
  1  6  1  0
  2  3  1  0
  3  7  1  0
  3  4  2  0
  5  4  1  0
  6  5  2  0
  7  8  1  0
  7 11  2  0
  8  9  2  0
  9 10  1  0
 11 10  1  0
 12  1  1  0
 13 12  1  0
 14 15  1  0
 14 13  1  0
 15 13  1  0
  2 16  1  0
  5 17  1  0
  8 18  1  0
  9 19  1  0
 10 20  1  0
 13 21  1  0
 14 22  1  0
 14 23  1  0
 15 24  1  0
 15 25  1  0
M  ISO  8  16  14  17  14  18  14  19  14  20   9  21  13  22  13  23  13
M  ISO  2  24  13  25  13
M  END
>  <minimizedAffinity>  (1) 
-5.38427067

>  <minimizedRMSD>  (1) 
6.26879787

$$$$
