
     RDKit          3D

 37 39  0  0  0  0  0  0  0  0999 V2000
   35.4550   29.8820   49.8110 C   0  0  0  0  0  0  0  0  0  0  0  0
   35.8280   30.2840   48.5410 C   0  0  0  0  0  0  0  0  0  0  0  0
   35.1880   29.7740   47.4240 C   0  0  0  0  0  0  0  0  0  0  0  0
   34.1940   28.8740   47.6460 N   0  0  0  0  0  0  0  0  0  0  0  0
   33.8400   28.4890   48.8980 C   0  0  0  0  0  0  0  0  0  0  0  0
   34.4640   28.9880   49.9670 N   0  0  0  0  0  0  0  0  0  0  0  0
   35.5350   30.1580   46.0820 C   0  0  0  0  0  0  0  0  0  0  0  0
   34.7320   30.0140   44.9790 C   0  0  0  0  0  0  0  0  0  0  0  0
   35.4750   30.5130   43.9270 C   0  0  0  0  0  0  0  0  0  0  0  0
   36.6670   30.9390   44.3680 N   0  0  0  0  0  0  0  0  0  0  0  0
   36.6880   30.7130   45.6970 N   0  0  0  0  0  0  0  0  0  0  0  0
   37.7470   31.5330   43.5830 C   0  0  0  0  0  0  0  0  0  0  0  0
   38.3030   32.7380   44.2360 C   0  0  0  0  0  0  0  0  0  0  0  0
   39.5390   32.5800   45.0330 C   0  0  0  0  0  0  0  0  0  0  0  0
   40.5270   31.7160   44.3050 C   0  0  0  0  0  0  0  0  0  0  0  0
   39.8770   30.3410   44.1880 C   0  0  0  0  0  0  0  0  0  0  0  0
   38.7600   30.4930   43.1920 C   0  0  0  0  0  0  0  0  0  0  0  0
   36.2060   30.4970   50.8060 O   0  0  0  0  0  0  0  0  0  0  0  0
   37.4710   30.0480   51.2270 C   0  0  0  0  0  0  0  0  0  0  0  0
   37.5660   30.0030   52.6070 F   0  0  0  0  0  0  0  0  0  0  0  0
   38.4340   30.8730   50.7020 F   0  0  0  0  0  0  0  0  0  0  0  0
   37.6650   28.7800   50.7100 F   0  0  0  0  0  0  0  0  0  0  0  0
   36.6403   31.0154   48.4174 H   0  0  0  0  0  0  0  0  0  0  0  0
   33.0297   27.7575   49.0334 H   0  0  0  0  0  0  0  0  0  0  0  0
   33.7167   29.5926   44.9407 H   0  0  0  0  0  0  0  0  0  0  0  0
   35.1380   30.5547   42.8807 H   0  0  0  0  0  0  0  0  0  0  0  0
   37.3367   31.9075   42.6336 H   0  0  0  0  0  0  0  0  0  0  0  0
   38.5140   33.4726   43.4449 H   0  0  0  0  0  0  0  0  0  0  0  0
   37.5371   33.0363   44.9671 H   0  0  0  0  0  0  0  0  0  0  0  0
   39.9849   33.5699   45.2096 H   0  0  0  0  0  0  0  0  0  0  0  0
   39.2860   32.1018   45.9908 H   0  0  0  0  0  0  0  0  0  0  0  0
   40.7319   32.1282   43.3059 H   0  0  0  0  0  0  0  0  0  0  0  0
   41.4871   31.6637   44.8394 H   0  0  0  0  0  0  0  0  0  0  0  0
   40.6090   29.6015   43.8313 H   0  0  0  0  0  0  0  0  0  0  0  0
   39.5038   29.9880   45.1607 H   0  0  0  0  0  0  0  0  0  0  0  0
   38.2461   29.5253   43.0945 H   0  0  0  0  0  0  0  0  0  0  0  0
   39.2127   30.8215   42.2448 H   0  0  0  0  0  0  0  0  0  0  0  0
  1  6  2  0
  1 18  1  0
  2  1  1  0
  3  4  1  0
  3  2  2  0
  4  5  2  0
  5  6  1  0
  7  3  1  0
  8  7  1  0
  9 10  1  0
  9  8  2  0
 10 11  1  0
 11  7  2  0
 12 13  1  0
 12 10  1  0
 13 14  1  0
 15 14  1  0
 16 15  1  0
 17 12  1  0
 17 16  1  0
 18 19  1  0
 19 20  1  0
 21 19  1  0
 22 19  1  0
  2 23  1  0
  5 24  1  0
  8 25  1  0
  9 26  1  0
 12 27  1  0
 13 28  1  0
 13 29  1  0
 14 30  1  0
 14 31  1  0
 15 32  1  0
 15 33  1  0
 16 34  1  0
 16 35  1  0
 17 36  1  0
 17 37  1  0
M  ISO  8  23  14  24  14  25  14  26  14  27  13  28  13  29  13  30  13
M  ISO  7  31  13  32  13  33  13  34  13  35  13  36  13  37  13
M  END
>  <minimizedAffinity>  (1) 
-5.81196499

>  <minimizedRMSD>  (1) 
3.68034172

$$$$
