
     RDKit          3D

 27 28  0  0  0  0  0  0  0  0999 V2000
   36.4840   30.6610   49.1080 C   0  0  0  0  0  0  0  0  0  0  0  0
   37.5170   31.1110   48.3100 C   0  0  0  0  0  0  0  0  0  0  0  0
   37.4260   31.0610   46.9270 C   0  0  0  0  0  0  0  0  0  0  0  0
   36.2930   30.5540   46.4100 N   0  0  0  0  0  0  0  0  0  0  0  0
   35.2780   30.1100   47.2060 C   0  0  0  0  0  0  0  0  0  0  0  0
   35.3720   30.1630   48.5240 N   0  0  0  0  0  0  0  0  0  0  0  0
   38.4900   31.5240   46.0630 C   0  0  0  0  0  0  0  0  0  0  0  0
   39.8070   31.1690   46.1640 C   0  0  0  0  0  0  0  0  0  0  0  0
   40.4260   31.8560   45.1350 C   0  0  0  0  0  0  0  0  0  0  0  0
   39.5310   32.5870   44.4510 N   0  0  0  0  0  0  0  0  0  0  0  0
   38.3380   32.3750   45.0310 N   0  0  0  0  0  0  0  0  0  0  0  0
   39.6610   33.4670   43.3080 C   0  0  0  0  0  0  0  0  0  0  0  0
   39.0100   32.8950   42.0640 C   0  0  0  0  0  0  0  0  0  0  0  0
   36.7360   30.7840   50.4630 O   0  0  0  0  0  0  0  0  0  0  0  0
   36.8110   29.6930   51.3470 C   0  0  0  0  0  0  0  0  0  0  0  0
   35.5540   29.1910   51.6550 F   0  0  0  0  0  0  0  0  0  0  0  0
   37.4570   30.1020   52.4860 F   0  0  0  0  0  0  0  0  0  0  0  0
   37.5670   28.7080   50.7510 F   0  0  0  0  0  0  0  0  0  0  0  0
   38.4264   31.5155   48.7785 H   0  0  0  0  0  0  0  0  0  0  0  0
   34.3670   29.7015   46.7442 H   0  0  0  0  0  0  0  0  0  0  0  0
   40.2691   30.4912   46.8969 H   0  0  0  0  0  0  0  0  0  0  0  0
   41.5015   31.8099   44.9087 H   0  0  0  0  0  0  0  0  0  0  0  0
   39.1839   34.4291   43.5463 H   0  0  0  0  0  0  0  0  0  0  0  0
   40.7339   33.5911   43.0994 H   0  0  0  0  0  0  0  0  0  0  0  0
   38.2133   32.1950   42.3559 H   0  0  0  0  0  0  0  0  0  0  0  0
   38.5794   33.7122   41.4667 H   0  0  0  0  0  0  0  0  0  0  0  0
   39.7650   32.3628   41.4667 H   0  0  0  0  0  0  0  0  0  0  0  0
  1 14  1  0
  2  1  2  0
  3  2  1  0
  4  3  2  0
  4  5  1  0
  5  6  2  0
  6  1  1  0
  7  8  1  0
  7  3  1  0
  9  8  2  0
 10 11  1  0
 10  9  1  0
 11  7  2  0
 12 10  1  0
 13 12  1  0
 14 15  1  0
 15 16  1  0
 15 17  1  0
 18 15  1  0
  2 19  1  0
  5 20  1  0
  8 21  1  0
  9 22  1  0
 12 23  1  0
 12 24  1  0
 13 25  1  0
 13 26  1  0
 13 27  1  0
M  ISO  8  19  14  20  14  21  14  22  14  23   8  24   8  25   8  26   8
M  ISO  1  27   8
M  END
>  <minimizedAffinity>  (1) 
-5.45180845

>  <minimizedRMSD>  (1) 
1.23181808

$$$$
