
     RDKit          3D

 36 38  0  0  1  0  0  0  0  0999 V2000
   38.5120   31.9300   47.0400 C   0  0  1  0  0  0  0  0  0  0  0  0
   39.6130   32.6170   46.2500 C   0  0  0  0  0  0  0  0  0  0  0  0
   39.5100   31.1530   46.2830 C   0  0  2  0  0  0  0  0  0  0  0  0
   38.6100   32.1020   48.5350 C   0  0  0  0  0  0  0  0  0  0  0  0
   37.3500   29.9680   51.3470 C   0  0  0  0  0  0  0  0  0  0  0  0
   38.0460   30.9620   50.6050 C   0  0  0  0  0  0  0  0  0  0  0  0
   37.8630   31.0550   49.2520 C   0  0  0  0  0  0  0  0  0  0  0  0
   37.0160   30.1850   48.6760 N   0  0  0  0  0  0  0  0  0  0  0  0
   36.3560   29.2460   49.3640 C   0  0  0  0  0  0  0  0  0  0  0  0
   36.5350   29.1530   50.6910 N   0  0  0  0  0  0  0  0  0  0  0  0
   39.0050   30.3110   45.1560 C   0  0  0  0  0  0  0  0  0  0  0  0
   39.7480   30.5370   43.8550 C   0  0  0  0  0  0  0  0  0  0  0  0
   41.2950   30.2810   41.4770 F   0  0  0  0  0  0  0  0  0  0  0  0
   40.5590   29.2010   41.8600 C   0  0  0  0  0  0  0  0  0  0  0  0
   39.7960   29.3200   43.0230 C   0  0  0  0  0  0  0  0  0  0  0  0
   39.0770   28.1820   43.3420 C   0  0  0  0  0  0  0  0  0  0  0  0
   39.0400   26.9880   42.6540 C   0  0  0  0  0  0  0  0  0  0  0  0
   39.8230   26.9690   41.5230 C   0  0  0  0  0  0  0  0  0  0  0  0
   40.5840   28.0400   41.1010 C   0  0  0  0  0  0  0  0  0  0  0  0
   37.4128   31.9007   47.0716 H   0  0  0  0  0  0  0  0  0  0  0  0
   40.4353   33.1250   46.7752 H   0  0  0  0  0  0  0  0  0  0  0  0
   39.6496   33.3818   45.4602 H   0  0  0  0  0  0  0  0  0  0  0  0
   40.2669   30.3831   46.4936 H   0  0  0  0  0  0  0  0  0  0  0  0
   39.6681   32.0518   48.8313 H   0  0  0  0  0  0  0  0  0  0  0  0
   38.1737   33.0769   48.7981 H   0  0  0  0  0  0  0  0  0  0  0  0
   37.4840   29.8777   52.4351 H   0  0  0  0  0  0  0  0  0  0  0  0
   38.7299   31.6545   51.1176 H   0  0  0  0  0  0  0  0  0  0  0  0
   35.6728   28.5564   48.8466 H   0  0  0  0  0  0  0  0  0  0  0  0
   39.1093   29.2528   45.4376 H   0  0  0  0  0  0  0  0  0  0  0  0
   37.9562   30.5945   44.9840 H   0  0  0  0  0  0  0  0  0  0  0  0
   39.2399   31.3325   43.2903 H   0  0  0  0  0  0  0  0  0  0  0  0
   40.7823   30.8193   44.1010 H   0  0  0  0  0  0  0  0  0  0  0  0
   38.4620   28.2363   44.2524 H   0  0  0  0  0  0  0  0  0  0  0  0
   38.4380   26.1271   42.9803 H   0  0  0  0  0  0  0  0  0  0  0  0
   39.8436   26.0484   40.9213 H   0  0  0  0  0  0  0  0  0  0  0  0
   41.1938   27.9750   40.1878 H   0  0  0  0  0  0  0  0  0  0  0  0
  1  4  1  0
  2  3  1  0
  2  1  1  0
  3  1  1  0
  4  7  1  0
  6  5  2  0
  7  6  1  0
  8  7  2  0
  8  9  1  0
  9 10  2  0
 10  5  1  0
 11  3  1  0
 12 11  1  0
 13 14  1  0
 14 15  2  0
 15 16  1  0
 15 12  1  0
 17 16  2  0
 18 17  1  0
 19 18  2  0
 19 14  1  0
  1 20  1  6
  2 21  1  0
  2 22  1  0
  3 23  1  1
  4 24  1  0
  4 25  1  0
  5 26  1  0
  6 27  1  0
  9 28  1  0
 11 29  1  0
 11 30  1  0
 12 31  1  0
 12 32  1  0
 16 33  1  0
 17 34  1  0
 18 35  1  0
 19 36  1  0
M  ISO  8  20  13  21  13  22  13  23  13  24   8  25   8  26  14  27  14
M  ISO  8  28  14  29   8  30   8  31   8  32   8  33  14  34  14  35  14
M  ISO  1  36  14
M  END
>  <minimizedAffinity>  (1) 
-5.33306885

>  <minimizedRMSD>  (1) 
0.88712734

$$$$
