
     RDKit          3D

 36 38  0  0  1  0  0  0  0  0999 V2000
   38.6730   32.1300   46.9600 C   0  0  1  0  0  0  0  0  0  0  0  0
   39.7920   32.9060   46.2900 C   0  0  0  0  0  0  0  0  0  0  0  0
   39.7950   31.4200   46.3190 C   0  0  2  0  0  0  0  0  0  0  0  0
   38.6030   32.2690   48.4570 C   0  0  0  0  0  0  0  0  0  0  0  0
   37.3350   29.9000   51.0590 C   0  0  0  0  0  0  0  0  0  0  0  0
   38.0520   30.9630   50.4200 C   0  0  0  0  0  0  0  0  0  0  0  0
   37.8420   31.1580   49.0780 C   0  0  0  0  0  0  0  0  0  0  0  0
   36.9870   30.3650   48.4030 N   0  0  0  0  0  0  0  0  0  0  0  0
   36.3260   29.3710   49.0260 C   0  0  0  0  0  0  0  0  0  0  0  0
   36.5000   29.1450   50.3400 N   0  0  0  0  0  0  0  0  0  0  0  0
   39.4600   30.5970   45.1250 C   0  0  0  0  0  0  0  0  0  0  0  0
   40.1840   31.0090   43.8500 C   0  0  0  0  0  0  0  0  0  0  0  0
   40.2010   29.7750   42.9840 C   0  0  0  0  0  0  0  0  0  0  0  0
   39.2410   28.7880   43.1870 C   0  0  0  0  0  0  0  0  0  0  0  0
   39.3020   27.6720   42.3610 C   0  0  0  0  0  0  0  0  0  0  0  0
   40.2530   27.5090   41.3710 C   0  0  0  0  0  0  0  0  0  0  0  0
   41.2030   28.4950   41.1760 C   0  0  0  0  0  0  0  0  0  0  0  0
   41.1570   29.6100   41.9870 C   0  0  0  0  0  0  0  0  0  0  0  0
   37.5805   32.0381   46.8709 H   0  0  0  0  0  0  0  0  0  0  0  0
   40.5131   33.4728   46.8973 H   0  0  0  0  0  0  0  0  0  0  0  0
   39.8537   33.6759   45.5068 H   0  0  0  0  0  0  0  0  0  0  0  0
   40.5659   30.6957   46.6209 H   0  0  0  0  0  0  0  0  0  0  0  0
   39.6255   32.2707   48.8627 H   0  0  0  0  0  0  0  0  0  0  0  0
   38.0841   33.2107   48.6892 H   0  0  0  0  0  0  0  0  0  0  0  0
   37.4710   29.7071   52.1334 H   0  0  0  0  0  0  0  0  0  0  0  0
   38.7470   31.6010   50.9857 H   0  0  0  0  0  0  0  0  0  0  0  0
   35.6348   28.7357   48.4527 H   0  0  0  0  0  0  0  0  0  0  0  0
   39.7199   29.5510   45.3449 H   0  0  0  0  0  0  0  0  0  0  0  0
   38.3863   30.7430   44.9359 H   0  0  0  0  0  0  0  0  0  0  0  0
   39.6441   31.8249   43.3471 H   0  0  0  0  0  0  0  0  0  0  0  0
   41.1993   31.3783   44.0567 H   0  0  0  0  0  0  0  0  0  0  0  0
   38.4698   28.8866   43.9651 H   0  0  0  0  0  0  0  0  0  0  0  0
   38.5548   26.8772   42.5023 H   0  0  0  0  0  0  0  0  0  0  0  0
   40.2541   26.6046   40.7449 H   0  0  0  0  0  0  0  0  0  0  0  0
   41.9728   28.3931   40.3969 H   0  0  0  0  0  0  0  0  0  0  0  0
   41.9070   30.4010   41.8393 H   0  0  0  0  0  0  0  0  0  0  0  0
  1  4  1  0
  2  3  1  0
  2  1  1  0
  3  1  1  0
  4  7  1  0
  6  5  2  0
  7  6  1  0
  8  9  1  0
  8  7  2  0
  9 10  2  0
 10  5  1  0
 11  3  1  0
 12 11  1  0
 13 14  2  0
 13 12  1  0
 15 14  1  0
 16 15  2  0
 17 16  1  0
 17 18  2  0
 18 13  1  0
  1 19  1  6
  2 20  1  0
  2 21  1  0
  3 22  1  1
  4 23  1  0
  4 24  1  0
  5 25  1  0
  6 26  1  0
  9 27  1  0
 11 28  1  0
 11 29  1  0
 12 30  1  0
 12 31  1  0
 14 32  1  0
 15 33  1  0
 16 34  1  0
 17 35  1  0
 18 36  1  0
M  ISO  8  19  13  20  13  21  13  22  13  23   8  24   8  25  14  26  14
M  ISO  8  27  14  28   8  29   8  30   8  31   8  32  14  33  14  34  14
M  ISO  2  35  14  36  14
M  END
>  <minimizedAffinity>  (1) 
-5.27430964

>  <minimizedRMSD>  (1) 
0.752862453

$$$$
