
     RDKit          3D

 39 41  0  0  1  0  0  0  0  0999 V2000
   38.7420   32.0160   46.8680 C   0  0  1  0  0  0  0  0  0  0  0  0
   39.8010   32.8500   46.1650 C   0  0  0  0  0  0  0  0  0  0  0  0
   39.8710   31.3850   46.1640 C   0  0  2  0  0  0  0  0  0  0  0  0
   38.7360   32.1620   48.3690 C   0  0  0  0  0  0  0  0  0  0  0  0
   37.3440   29.9230   51.0350 C   0  0  0  0  0  0  0  0  0  0  0  0
   38.0990   30.9400   50.3590 C   0  0  0  0  0  0  0  0  0  0  0  0
   37.9280   31.0960   49.0050 C   0  0  0  0  0  0  0  0  0  0  0  0
   37.0640   30.2910   48.3750 N   0  0  0  0  0  0  0  0  0  0  0  0
   36.3580   29.3390   49.0050 C   0  0  0  0  0  0  0  0  0  0  0  0
   36.5140   29.1770   50.3170 N   0  0  0  0  0  0  0  0  0  0  0  0
   39.5210   30.5210   44.9760 C   0  0  0  0  0  0  0  0  0  0  0  0
   40.4760   30.7810   43.8200 C   0  0  0  0  0  0  0  0  0  0  0  0
   40.1930   29.9320   42.6930 N   0  0  0  0  0  0  0  0  0  0  0  0
   39.1700   28.9830   43.0890 C   0  0  0  0  0  0  0  0  0  0  0  0
   39.6540   27.5680   42.7720 C   0  0  0  0  0  0  0  0  0  0  0  0
   39.8720   27.5370   41.4070 O   0  0  0  0  0  0  0  0  0  0  0  0
   40.9380   28.3370   41.0670 C   0  0  0  0  0  0  0  0  0  0  0  0
   41.3490   29.3090   42.1360 C   0  0  0  0  0  0  0  0  0  0  0  0
   37.6547   31.8544   46.8272 H   0  0  0  0  0  0  0  0  0  0  0  0
   39.5536   33.3921   45.2404 H   0  0  0  0  0  0  0  0  0  0  0  0
   40.4774   33.6664   46.4583 H   0  0  0  0  0  0  0  0  0  0  0  0
   40.7014   30.7062   46.4084 H   0  0  0  0  0  0  0  0  0  0  0  0
   39.7696   32.0993   48.7402 H   0  0  0  0  0  0  0  0  0  0  0  0
   38.2923   33.1358   48.6236 H   0  0  0  0  0  0  0  0  0  0  0  0
   37.4507   29.7665   52.1186 H   0  0  0  0  0  0  0  0  0  0  0  0
   38.7999   31.5810   50.9139 H   0  0  0  0  0  0  0  0  0  0  0  0
   35.6593   28.7008   48.4442 H   0  0  0  0  0  0  0  0  0  0  0  0
   39.5873   29.4624   45.2677 H   0  0  0  0  0  0  0  0  0  0  0  0
   38.4988   30.7648   44.6511 H   0  0  0  0  0  0  0  0  0  0  0  0
   40.3798   31.8314   43.5078 H   0  0  0  0  0  0  0  0  0  0  0  0
   41.4978   30.5635   44.1645 H   0  0  0  0  0  0  0  0  0  0  0  0
   38.9801   29.0746   44.1686 H   0  0  0  0  0  0  0  0  0  0  0  0
   38.2394   29.1891   42.5399 H   0  0  0  0  0  0  0  0  0  0  0  0
   40.5872   27.3530   43.3131 H   0  0  0  0  0  0  0  0  0  0  0  0
   38.9171   26.8115   43.0798 H   0  0  0  0  0  0  0  0  0  0  0  0
   41.7975   27.6882   40.8428 H   0  0  0  0  0  0  0  0  0  0  0  0
   40.6175   28.9373   40.2027 H   0  0  0  0  0  0  0  0  0  0  0  0
   41.8922   28.7726   42.9280 H   0  0  0  0  0  0  0  0  0  0  0  0
   42.0000   30.0788   41.6961 H   0  0  0  0  0  0  0  0  0  0  0  0
  1  4  1  0
  2  1  1  0
  3  2  1  0
  3  1  1  0
  4  7  1  0
  6  5  2  0
  7  6  1  0
  8  9  1  0
  8  7  2  0
  9 10  2  0
 10  5  1  0
 11  3  1  0
 12 11  1  0
 13 14  1  0
 13 12  1  0
 15 14  1  0
 16 15  1  0
 17 16  1  0
 17 18  1  0
 18 13  1  0
  1 19  1  6
  2 20  1  0
  2 21  1  0
  3 22  1  1
  4 23  1  0
  4 24  1  0
  5 25  1  0
  6 26  1  0
  9 27  1  0
 11 28  1  0
 11 29  1  0
 12 30  1  0
 12 31  1  0
 14 32  1  0
 14 33  1  0
 15 34  1  0
 15 35  1  0
 17 36  1  0
 17 37  1  0
 18 38  1  0
 18 39  1  0
M  ISO  8  19  13  20  13  21  13  22  13  23   8  24   8  25  14  26  14
M  ISO  8  27  14  28   8  29   8  30   8  31   8  32  13  33  13  34  13
M  ISO  5  35  13  36  13  37  13  38  13  39  13
M  END
>  <minimizedAffinity>  (1) 
-5.25803518

>  <minimizedRMSD>  (1) 
0.518789649

$$$$
