
     RDKit          3D

 49 52  0  0  1  0  0  0  0  0999 V2000
   38.4950   31.1030   45.9080 C   0  0  0  0  0  0  0  0  0  0  0  0
   39.8270   31.0300   46.2090 C   0  0  0  0  0  0  0  0  0  0  0  0
   40.4770   31.3720   45.0150 C   0  0  0  0  0  0  0  0  0  0  0  0
   39.5460   31.6280   44.0720 N   0  0  0  0  0  0  0  0  0  0  0  0
   38.3400   31.4650   44.6130 N   0  0  0  0  0  0  0  0  0  0  0  0
   40.2430   30.7790   41.8980 C   0  0  2  0  0  0  0  0  0  0  0  0
   39.9050   32.0000   42.7270 C   0  0  1  0  0  0  0  0  0  0  0  0
   38.7010   32.4800   41.9400 C   0  0  0  0  0  0  0  0  0  0  0  0
   38.9400   32.2170   40.6120 O   0  0  0  0  0  0  0  0  0  0  0  0
   40.0110   31.3850   40.4940 C   0  0  0  0  0  0  0  0  0  0  0  0
   39.2550   29.8230   42.1170 O   0  0  0  0  0  0  0  0  0  0  0  0
   39.7880   28.5520   42.3050 C   0  0  0  0  0  0  0  0  0  0  0  0
   38.8200   27.7690   43.1530 C   0  0  0  0  0  0  0  0  0  0  0  0
   39.1560   26.3080   43.2320 C   0  0  0  0  0  0  0  0  0  0  0  0
   39.0600   25.6960   41.8700 C   0  0  0  0  0  0  0  0  0  0  0  0
   38.9200   26.7630   40.7860 C   0  0  0  0  0  0  0  0  0  0  0  0
   39.9980   27.8290   40.9910 C   0  0  0  0  0  0  0  0  0  0  0  0
   36.4750   30.6300   49.0330 C   0  0  0  0  0  0  0  0  0  0  0  0
   37.5340   30.9150   48.1980 C   0  0  0  0  0  0  0  0  0  0  0  0
   37.4280   30.8230   46.8370 C   0  0  0  0  0  0  0  0  0  0  0  0
   36.2130   30.4330   46.3570 N   0  0  0  0  0  0  0  0  0  0  0  0
   35.1730   30.1530   47.1940 C   0  0  0  0  0  0  0  0  0  0  0  0
   35.2840   30.2440   48.4990 N   0  0  0  0  0  0  0  0  0  0  0  0
   36.7820   30.7820   50.3830 O   0  0  0  0  0  0  0  0  0  0  0  0
   36.8330   29.7050   51.2900 C   0  0  0  0  0  0  0  0  0  0  0  0
   35.5730   29.2290   51.6080 F   0  0  0  0  0  0  0  0  0  0  0  0
   37.5150   30.0920   52.4120 F   0  0  0  0  0  0  0  0  0  0  0  0
   37.5720   28.6810   50.7080 F   0  0  0  0  0  0  0  0  0  0  0  0
   40.2857   30.7627   47.1724 H   0  0  0  0  0  0  0  0  0  0  0  0
   41.5663   31.4233   44.8705 H   0  0  0  0  0  0  0  0  0  0  0  0
   41.2236   30.3158   42.0817 H   0  0  0  0  0  0  0  0  0  0  0  0
   40.7118   32.7361   42.8580 H   0  0  0  0  0  0  0  0  0  0  0  0
   37.7987   31.9453   42.2717 H   0  0  0  0  0  0  0  0  0  0  0  0
   38.5411   33.5568   42.0976 H   0  0  0  0  0  0  0  0  0  0  0  0
   39.7971   30.5889   39.7656 H   0  0  0  0  0  0  0  0  0  0  0  0
   40.9009   31.9249   40.1383 H   0  0  0  0  0  0  0  0  0  0  0  0
   40.7700   28.6444   42.7919 H   0  0  0  0  0  0  0  0  0  0  0  0
   38.8292   28.1861   44.1708 H   0  0  0  0  0  0  0  0  0  0  0  0
   37.8291   27.8531   42.6829 H   0  0  0  0  0  0  0  0  0  0  0  0
   40.1799   26.1882   43.6157 H   0  0  0  0  0  0  0  0  0  0  0  0
   38.4480   25.8066   43.9083 H   0  0  0  0  0  0  0  0  0  0  0  0
   39.9694   25.1078   41.6774 H   0  0  0  0  0  0  0  0  0  0  0  0
   38.1663   25.0554   41.8415 H   0  0  0  0  0  0  0  0  0  0  0  0
   37.9251   27.2276   40.8527 H   0  0  0  0  0  0  0  0  0  0  0  0
   39.0386   26.3018   39.7944 H   0  0  0  0  0  0  0  0  0  0  0  0
   40.9868   27.3470   40.9973 H   0  0  0  0  0  0  0  0  0  0  0  0
   39.9363   28.5588   40.1703 H   0  0  0  0  0  0  0  0  0  0  0  0
   38.4927   31.2256   48.6389 H   0  0  0  0  0  0  0  0  0  0  0  0
   34.2107   29.8410   46.7619 H   0  0  0  0  0  0  0  0  0  0  0  0
  1  2  1  0
  1 20  1  0
  3  2  2  0
  4  5  1  0
  4  3  1  0
  5  1  2  0
  6 11  1  0
  6  7  1  0
  7  4  1  0
  8  7  1  0
  9  8  1  0
 10  9  1  0
 10  6  1  0
 11 12  1  0
 12 13  1  0
 13 14  1  0
 15 14  1  0
 16 17  1  0
 16 15  1  0
 17 12  1  0
 18 24  1  0
 19 18  2  0
 20 19  1  0
 21 20  2  0
 21 22  1  0
 22 23  2  0
 23 18  1  0
 24 25  1  0
 25 26  1  0
 25 27  1  0
 28 25  1  0
  2 29  1  0
  3 30  1  0
  6 31  1  6
  7 32  1  1
  8 33  1  0
  8 34  1  0
 10 35  1  0
 10 36  1  0
 12 37  1  0
 13 38  1  0
 13 39  1  0
 14 40  1  0
 14 41  1  0
 15 42  1  0
 15 43  1  0
 16 44  1  0
 16 45  1  0
 17 46  1  0
 17 47  1  0
 19 48  1  0
 22 49  1  0
M  ISO  8  29  14  30  14  31  13  32  13  33  13  34  13  35  13  36  13
M  ISO  8  37  13  38  13  39  13  40  13  41  13  42  13  43  13  44  13
M  ISO  5  45  13  46  13  47  13  48  14  49  14
M  END
>  <minimizedAffinity>  (1) 
-6.34627199

>  <minimizedRMSD>  (1) 
0.719850659

$$$$
