
     RDKit          3D

 48 51  0  0  1  0  0  0  0  0999 V2000
   38.4870   31.0530   45.9860 C   0  0  0  0  0  0  0  0  0  0  0  0
   39.7790   31.3170   46.3430 C   0  0  0  0  0  0  0  0  0  0  0  0
   40.4420   31.5270   45.1340 C   0  0  0  0  0  0  0  0  0  0  0  0
   39.5910   31.3930   44.1330 N   0  0  0  0  0  0  0  0  0  0  0  0
   38.3860   31.1020   44.6400 N   0  0  0  0  0  0  0  0  0  0  0  0
   36.4270   30.6120   49.0770 C   0  0  0  0  0  0  0  0  0  0  0  0
   37.4830   30.8800   48.2520 C   0  0  0  0  0  0  0  0  0  0  0  0
   37.4130   30.7750   46.8940 C   0  0  0  0  0  0  0  0  0  0  0  0
   36.2160   30.3840   46.3960 N   0  0  0  0  0  0  0  0  0  0  0  0
   35.1500   30.1130   47.2190 C   0  0  0  0  0  0  0  0  0  0  0  0
   35.2600   30.2260   48.5310 N   0  0  0  0  0  0  0  0  0  0  0  0
   33.9270   29.7080   46.6170 N   0  0  0  0  0  0  0  0  0  0  0  0
   32.9370   30.6950   46.2270 C   0  0  0  0  0  0  0  0  0  0  0  0
   32.0610   29.9840   45.1870 C   0  0  0  0  0  0  0  0  0  0  0  0
   31.3780   28.9150   45.7420 O   0  0  0  0  0  0  0  0  0  0  0  0
   32.1470   28.0720   46.5070 C   0  0  0  0  0  0  0  0  0  0  0  0
   33.6170   28.3130   46.3690 C   0  0  0  0  0  0  0  0  0  0  0  0
   36.6940   30.7730   50.4300 O   0  0  0  0  0  0  0  0  0  0  0  0
   36.7750   29.7010   51.3370 C   0  0  0  0  0  0  0  0  0  0  0  0
   35.5190   29.1920   51.6600 F   0  0  0  0  0  0  0  0  0  0  0  0
   37.4530   30.1190   52.4570 F   0  0  0  0  0  0  0  0  0  0  0  0
   37.5200   28.6870   50.7540 F   0  0  0  0  0  0  0  0  0  0  0  0
   40.6920   30.3720   42.2640 C   0  0  2  0  0  0  0  0  0  0  0  0
   40.0140   31.5500   42.7670 C   0  0  1  0  0  0  0  0  0  0  0  0
   38.7950   31.5280   41.8170 C   0  0  0  0  0  0  0  0  0  0  0  0
   39.2350   31.0720   40.6020 O   0  0  0  0  0  0  0  0  0  0  0  0
   40.4450   30.5700   40.7090 C   0  0  0  0  0  0  0  0  0  0  0  0
   39.9250   29.2200   42.5780 O   0  0  0  0  0  0  0  0  0  0  0  0
   40.3080   27.9820   42.0630 C   0  0  0  0  0  0  0  0  0  0  0  0
   39.7350   27.0000   42.7210 O   0  0  0  0  0  0  0  0  0  0  0  0
   40.2021   31.3554   47.3577 H   0  0  0  0  0  0  0  0  0  0  0  0
   41.5104   31.7675   45.0301 H   0  0  0  0  0  0  0  0  0  0  0  0
   38.4346   31.1954   48.7047 H   0  0  0  0  0  0  0  0  0  0  0  0
   32.3351   31.0034   47.0945 H   0  0  0  0  0  0  0  0  0  0  0  0
   33.3987   31.6089   45.8250 H   0  0  0  0  0  0  0  0  0  0  0  0
   32.7019   29.6144   44.3730 H   0  0  0  0  0  0  0  0  0  0  0  0
   31.3221   30.7054   44.8081 H   0  0  0  0  0  0  0  0  0  0  0  0
   31.8695   28.2097   47.5625 H   0  0  0  0  0  0  0  0  0  0  0  0
   31.9530   27.0484   46.1539 H   0  0  0  0  0  0  0  0  0  0  0  0
   34.1564   27.6873   47.0953 H   0  0  0  0  0  0  0  0  0  0  0  0
   33.9258   28.0558   45.3450 H   0  0  0  0  0  0  0  0  0  0  0  0
   41.7237   30.2605   42.6288 H   0  0  0  0  0  0  0  0  0  0  0  0
   40.6178   32.4694   42.7790 H   0  0  0  0  0  0  0  0  0  0  0  0
   38.0203   30.8553   42.2138 H   0  0  0  0  0  0  0  0  0  0  0  0
   38.3570   32.5325   41.7212 H   0  0  0  0  0  0  0  0  0  0  0  0
   40.5076   29.6050   40.1848 H   0  0  0  0  0  0  0  0  0  0  0  0
   41.2001   31.2313   40.2590 H   0  0  0  0  0  0  0  0  0  0  0  0
   40.9985   27.8458   41.2177 H   0  0  0  0  0  0  0  0  0  0  0  0
  1  2  1  0
  1  8  1  0
  3  2  2  0
  4  5  1  0
  4  3  1  0
  5  1  2  0
  6 18  1  0
  7  6  2  0
  8  7  1  0
  9  8  2  0
  9 10  1  0
 10 11  2  0
 11  6  1  0
 12 10  1  0
 13 12  1  0
 14 15  1  0
 14 13  1  0
 15 16  1  0
 17 16  1  0
 17 12  1  0
 18 19  1  0
 19 20  1  0
 19 21  1  0
 22 19  1  0
 23 28  1  0
 23 24  1  0
 24  4  1  0
 25 24  1  0
 26 27  1  0
 26 25  1  0
 27 23  1  0
 29 28  1  0
 29 30  2  0
  2 31  1  0
  3 32  1  0
  7 33  1  0
 13 34  1  0
 13 35  1  0
 14 36  1  0
 14 37  1  0
 16 38  1  0
 16 39  1  0
 17 40  1  0
 17 41  1  0
 23 42  1  6
 24 43  1  1
 25 44  1  0
 25 45  1  0
 27 46  1  0
 27 47  1  0
 29 48  1  0
M  ISO  8  31  14  32  14  33  14  34  13  35  13  36  13  37  13  38  13
M  ISO  8  39  13  40  13  41  13  42  13  43  13  44  13  45  13  46  13
M  ISO  2  47  13  48   6
M  END
>  <minimizedAffinity>  (1) 
-6.66782141

>  <minimizedRMSD>  (1) 
0.134805694

$$$$
