
     RDKit          3D

 26 27  0  0  0  0  0  0  0  0999 V2000
   35.4670   30.1040   46.6720 O   0  0  0  0  0  0  0  0  0  0  0  0
   34.1860   30.0190   47.4630 P   0  0  2  0  0  0  0  0  0  0  0  0
   33.0890   31.0610   46.6960 O   0  0  0  0  0  0  0  0  0  0  0  0
   34.3770   30.4730   49.0970 O   0  0  0  0  0  0  0  0  0  0  0  0
   35.5960   30.4100   49.7430 C   0  0  0  0  0  0  0  0  0  0  0  0
   35.9710   29.4210   50.6710 C   0  0  0  0  0  0  0  0  0  0  0  0
   37.2440   29.5100   51.2280 C   0  0  0  0  0  0  0  0  0  0  0  0
   38.0660   30.5340   50.8610 N   0  0  0  0  0  0  0  0  0  0  0  0
   37.6680   31.4710   49.9620 C   0  0  0  0  0  0  0  0  0  0  0  0
   36.4350   31.4080   49.4040 N   0  0  0  0  0  0  0  0  0  0  0  0
   33.6030   28.4150   47.4660 O   0  0  0  0  0  0  0  0  0  0  0  0
   32.2500   28.1100   47.5160 C   0  0  0  0  0  0  0  0  0  0  0  0
   31.2880   28.1020   46.5280 C   0  0  0  0  0  0  0  0  0  0  0  0
   29.9950   27.7540   46.8560 C   0  0  0  0  0  0  0  0  0  0  0  0
   29.6360   27.4150   48.1360 C   0  0  0  0  0  0  0  0  0  0  0  0
   30.5790   27.4160   49.1400 C   0  0  0  0  0  0  0  0  0  0  0  0
   31.8950   27.7670   48.8260 C   0  0  0  0  0  0  0  0  0  0  0  0
   32.5696   31.5544   47.3793 H   0  0  0  0  0  0  0  0  0  0  0  0
   35.2837   28.6074   50.9463 H   0  0  0  0  0  0  0  0  0  0  0  0
   37.5837   28.7605   51.9580 H   0  0  0  0  0  0  0  0  0  0  0  0
   38.3517   32.2870   49.6849 H   0  0  0  0  0  0  0  0  0  0  0  0
   31.5485   28.3694   45.4933 H   0  0  0  0  0  0  0  0  0  0  0  0
   29.2279   27.7480   46.0676 H   0  0  0  0  0  0  0  0  0  0  0  0
   28.5943   27.1422   48.3607 H   0  0  0  0  0  0  0  0  0  0  0  0
   30.3016   27.1456   50.1695 H   0  0  0  0  0  0  0  0  0  0  0  0
   32.6598   27.7738   49.6166 H   0  0  0  0  0  0  0  0  0  0  0  0
  2  1  2  0
  2 11  1  0
  2  4  1  0
  3  2  1  0
  4  5  1  0
  5  6  2  0
  6  7  1  0
  8  7  2  0
  9  8  1  0
 10  5  1  0
 10  9  2  0
 11 12  1  0
 12 17  2  0
 13 14  2  0
 13 12  1  0
 14 15  1  0
 15 16  2  0
 17 16  1  0
  3 18  1  0
  6 19  1  0
  7 20  1  0
  9 21  1  0
 13 22  1  0
 14 23  1  0
 15 24  1  0
 16 25  1  0
 17 26  1  0
M  ISO  8  18   3  19  14  20  14  21  14  22  14  23  14  24  14  25  14
M  ISO  1  26  14
M  END
>  <minimizedAffinity>  (1) 
-4.66669703

>  <minimizedRMSD>  (1) 
0.881827295

$$$$
