
     RDKit          3D

 20 20  0  0  0  0  0  0  0  0999 V2000
   34.3250   30.1760   48.8560 O   0  0  0  0  0  0  0  0  0  0  0  0
   35.5930   30.1810   49.4180 C   0  0  0  0  0  0  0  0  0  0  0  0
   36.2530   29.0620   49.9250 C   0  0  0  0  0  0  0  0  0  0  0  0
   37.5360   29.2460   50.4590 C   0  0  0  0  0  0  0  0  0  0  0  0
   38.0730   30.4980   50.4580 N   0  0  0  0  0  0  0  0  0  0  0  0
   37.3980   31.5620   49.9560 C   0  0  0  0  0  0  0  0  0  0  0  0
   36.1500   31.4050   49.4310 N   0  0  0  0  0  0  0  0  0  0  0  0
   35.3590   30.1860   46.3810 O   0  0  0  0  0  0  0  0  0  0  0  0
   34.0800   29.9790   47.1660 P   0  0  2  0  0  0  0  0  0  0  0  0
   33.0040   31.1770   46.6210 O   0  0  0  0  0  0  0  0  0  0  0  0
   33.4220   28.4470   46.9400 O   0  0  0  0  0  0  0  0  0  0  0  0
   33.0880   27.5500   47.9110 C   0  0  0  0  0  0  0  0  0  0  0  0
   33.9410   26.6600   48.1470 O   0  0  0  0  0  0  0  0  0  0  0  0
   31.8840   27.5280   48.6670 N   0  0  0  0  0  0  0  0  0  0  0  0
   35.7824   28.0679   49.9065 H   0  0  0  0  0  0  0  0  0  0  0  0
   38.0986   28.3954   50.8711 H   0  0  0  0  0  0  0  0  0  0  0  0
   37.8614   32.5595   49.9727 H   0  0  0  0  0  0  0  0  0  0  0  0
   32.5952   31.6322   47.3993 H   0  0  0  0  0  0  0  0  0  0  0  0
   31.7367   26.7993   49.3799 H   0  0  0  0  0  0  0  0  0  0  0  0
   31.1591   28.2408   48.5018 H   0  0  0  0  0  0  0  0  0  0  0  0
  1  2  1  0
  2  7  2  0
  2  3  1  0
  3  4  2  0
  5  4  1  0
  6  5  2  0
  7  6  1  0
  9  8  2  0
  9  1  1  0
 10  9  1  0
 11  9  1  0
 11 12  1  0
 12 13  2  0
 12 14  1  0
  3 15  1  0
  4 16  1  0
  6 17  1  0
 10 18  1  0
 14 19  1  0
 14 20  1  0
M  ISO  4  15  14  16  14  17  14  18   3
M  END
>  <minimizedAffinity>  (1) 
-3.88108134

>  <minimizedRMSD>  (1) 
1.09179401

$$$$
