
     RDKit          3D

 18 18  0  0  0  0  0  0  0  0999 V2000
   35.6290   30.5080   49.7700 C   0  0  0  0  0  0  0  0  0  0  0  0
   35.9790   29.4950   50.6650 C   0  0  0  0  0  0  0  0  0  0  0  0
   37.2770   29.4960   51.1950 C   0  0  0  0  0  0  0  0  0  0  0  0
   38.1320   30.4820   50.8130 N   0  0  0  0  0  0  0  0  0  0  0  0
   37.7520   31.4490   49.9400 C   0  0  0  0  0  0  0  0  0  0  0  0
   36.5070   31.4540   49.4270 N   0  0  0  0  0  0  0  0  0  0  0  0
   34.3920   30.6460   49.1620 O   0  0  0  0  0  0  0  0  0  0  0  0
   35.3340   29.7770   46.7870 O   0  0  0  0  0  0  0  0  0  0  0  0
   34.0680   29.9890   47.6020 P   0  0  2  0  0  0  0  0  0  0  0  0
   33.0890   31.0580   46.7400 O   0  0  0  0  0  0  0  0  0  0  0  0
   33.2580   28.5170   47.8700 O   0  0  0  0  0  0  0  0  0  0  0  0
   34.0190   27.3920   48.1690 C   0  0  0  0  0  0  0  0  0  0  0  0
   33.9020   26.2620   47.6260 O   0  0  0  0  0  0  0  0  0  0  0  0
   35.2550   28.7163   50.9470 H   0  0  0  0  0  0  0  0  0  0  0  0
   37.5963   28.7173   51.9033 H   0  0  0  0  0  0  0  0  0  0  0  0
   38.4658   32.2340   49.6495 H   0  0  0  0  0  0  0  0  0  0  0  0
   32.5752   31.6190   47.3736 H   0  0  0  0  0  0  0  0  0  0  0  0
   34.7895   27.4985   48.9468 H   0  0  0  0  0  0  0  0  0  0  0  0
  1  2  2  0
  2  3  1  0
  4  3  2  0
  5  4  1  0
  6  1  1  0
  6  5  2  0
  7  1  1  0
  9  8  2  0
  9 11  1  0
  9  7  1  0
 10  9  1  0
 11 12  1  0
 13 12  2  0
  2 14  1  0
  3 15  1  0
  5 16  1  0
 10 17  1  0
 12 18  1  0
M  ISO  5  14  14  15  14  16  14  17   3  18   6
M  END
>  <minimizedAffinity>  (1) 
-3.78094411

>  <minimizedRMSD>  (1) 
0.617200077

$$$$
