
     RDKit          3D

 45 48  0  0  1  0  0  0  0  0999 V2000
   33.1710   27.3910   45.7040 C   0  0  1  0  0  0  0  0  0  0  0  0
   33.9810   27.4920   47.0150 C   0  0  2  0  0  0  0  0  0  0  0  0
   33.9180   26.2380   47.5330 O   0  0  0  0  0  0  0  0  0  0  0  0
   34.1920   25.4090   46.4560 C   0  0  0  0  0  0  0  0  0  0  0  0
   33.5930   26.0290   45.2110 C   0  0  2  0  0  0  0  0  0  0  0  0
   31.8210   27.5190   45.9630 O   0  0  0  0  0  0  0  0  0  0  0  0
   33.3550   28.4830   47.7260 O   0  0  0  0  0  0  0  0  0  0  0  0
   35.3680   29.8940   46.7540 O   0  0  0  0  0  0  0  0  0  0  0  0
   34.0920   29.9900   47.5860 P   0  0  1  0  0  0  0  0  0  0  0  0
   33.0890   31.0510   46.7280 O   0  0  0  0  0  0  0  0  0  0  0  0
   34.3570   30.5600   49.1730 O   0  0  0  0  0  0  0  0  0  0  0  0
   35.5990   30.4650   49.7840 C   0  0  0  0  0  0  0  0  0  0  0  0
   35.9640   29.4570   50.7080 C   0  0  0  0  0  0  0  0  0  0  0  0
   37.2470   29.4940   51.2360 C   0  0  0  0  0  0  0  0  0  0  0  0
   38.0920   30.5000   50.8400 N   0  0  0  0  0  0  0  0  0  0  0  0
   37.7140   31.4540   49.9520 C   0  0  0  0  0  0  0  0  0  0  0  0
   36.4630   31.4390   49.4200 N   0  0  0  0  0  0  0  0  0  0  0  0
   34.5430   26.1400   44.2320 O   0  0  0  0  0  0  0  0  0  0  0  0
   35.1870   25.0520   43.7030 C   0  0  0  0  0  0  0  0  0  0  0  0
   34.8490   23.7330   43.6290 C   0  0  0  0  0  0  0  0  0  0  0  0
   35.6380   22.7680   43.0490 C   0  0  0  0  0  0  0  0  0  0  0  0
   36.8570   23.0920   42.4910 C   0  0  0  0  0  0  0  0  0  0  0  0
   37.2300   24.4360   42.5520 C   0  0  0  0  0  0  0  0  0  0  0  0
   38.4580   24.7050   41.9810 C   0  0  0  0  0  0  0  0  0  0  0  0
   38.9160   26.0000   41.9890 C   0  0  0  0  0  0  0  0  0  0  0  0
   38.1520   26.9900   42.5610 C   0  0  0  0  0  0  0  0  0  0  0  0
   36.9300   26.6860   43.1230 C   0  0  0  0  0  0  0  0  0  0  0  0
   36.4200   25.4050   43.1440 C   0  0  0  0  0  0  0  0  0  0  0  0
   33.3541   28.1762   44.9557 H   0  0  0  0  0  0  0  0  0  0  0  0
   35.0447   27.7672   46.9621 H   0  0  0  0  0  0  0  0  0  0  0  0
   35.2803   25.3068   46.3333 H   0  0  0  0  0  0  0  0  0  0  0  0
   33.7600   24.4120   46.6270 H   0  0  0  0  0  0  0  0  0  0  0  0
   32.7707   25.4458   44.7708 H   0  0  0  0  0  0  0  0  0  0  0  0
   31.6726   27.5331   46.9417 H   0  0  0  0  0  0  0  0  0  0  0  0
   32.5687   31.6014   47.3655 H   0  0  0  0  0  0  0  0  0  0  0  0
   35.2534   28.6692   50.9985 H   0  0  0  0  0  0  0  0  0  0  0  0
   37.5796   28.7327   51.9570 H   0  0  0  0  0  0  0  0  0  0  0  0
   38.4231   32.2431   49.6613 H   0  0  0  0  0  0  0  0  0  0  0  0
   33.8859   23.4220   44.0598 H   0  0  0  0  0  0  0  0  0  0  0  0
   35.2926   21.7238   43.0297 H   0  0  0  0  0  0  0  0  0  0  0  0
   37.5006   22.3325   42.0232 H   0  0  0  0  0  0  0  0  0  0  0  0
   39.0564   23.8999   41.5296 H   0  0  0  0  0  0  0  0  0  0  0  0
   39.8899   26.2441   41.5397 H   0  0  0  0  0  0  0  0  0  0  0  0
   38.5168   28.0277   42.5703 H   0  0  0  0  0  0  0  0  0  0  0  0
   36.3387   27.4974   43.5723 H   0  0  0  0  0  0  0  0  0  0  0  0
  1  6  1  0
  1  2  1  0
  2  3  1  0
  2  7  1  0
  4  3  1  0
  5  1  1  0
  5  4  1  0
  9  8  2  0
  9  7  1  0
  9 11  1  0
 10  9  1  0
 11 12  1  0
 12 13  2  0
 13 14  1  0
 15 14  2  0
 16 15  1  0
 17 12  1  0
 17 16  2  0
 18  5  1  0
 19 18  1  0
 20 19  2  0
 21 20  1  0
 22 23  1  0
 22 21  2  0
 23 28  2  0
 24 25  2  0
 24 23  1  0
 25 26  1  0
 26 27  2  0
 27 28  1  0
 28 19  1  0
  1 29  1  6
  2 30  1  6
  4 31  1  0
  4 32  1  0
  5 33  1  6
  6 34  1  0
 10 35  1  0
 13 36  1  0
 14 37  1  0
 16 38  1  0
 20 39  1  0
 21 40  1  0
 22 41  1  0
 24 42  1  0
 25 43  1  0
 26 44  1  0
 27 45  1  0
M  ISO  8  29  13  30  13  31  13  32  13  33  13  34   3  35   3  36  14
M  ISO  8  37  14  38  14  39  14  40  14  41  14  42  14  43  14  44  14
M  ISO  1  45  14
M  END
>  <minimizedAffinity>  (1) 
-4.45324516

>  <minimizedRMSD>  (1) 
3.24066377

$$$$
