
     RDKit          3D

 36 38  0  0  1  0  0  0  0  0999 V2000
   33.1940   27.3940   45.8440 C   0  0  1  0  0  0  0  0  0  0  0  0
   33.9500   27.4870   47.1900 C   0  0  2  0  0  0  0  0  0  0  0  0
   33.8000   26.2450   47.7200 O   0  0  0  0  0  0  0  0  0  0  0  0
   34.0690   25.3840   46.6670 C   0  0  0  0  0  0  0  0  0  0  0  0
   33.5700   26.0100   45.4010 C   0  0  2  0  0  0  0  0  0  0  0  0
   31.8430   27.6060   46.0340 O   0  0  0  0  0  0  0  0  0  0  0  0
   33.3490   28.5200   47.8490 O   0  0  0  0  0  0  0  0  0  0  0  0
   35.3510   29.8560   46.7670 O   0  0  0  0  0  0  0  0  0  0  0  0
   34.0990   30.0090   47.6240 P   0  0  1  0  0  0  0  0  0  0  0  0
   33.0880   31.0430   46.7440 O   0  0  0  0  0  0  0  0  0  0  0  0
   34.4130   30.6500   49.1770 O   0  0  0  0  0  0  0  0  0  0  0  0
   35.6430   30.5160   49.7890 C   0  0  0  0  0  0  0  0  0  0  0  0
   35.9800   29.4920   50.7010 C   0  0  0  0  0  0  0  0  0  0  0  0
   37.2600   29.4860   51.2360 C   0  0  0  0  0  0  0  0  0  0  0  0
   38.1320   30.4690   50.8540 N   0  0  0  0  0  0  0  0  0  0  0  0
   37.7820   31.4450   49.9720 C   0  0  0  0  0  0  0  0  0  0  0  0
   36.5310   31.4630   49.4410 N   0  0  0  0  0  0  0  0  0  0  0  0
   34.5630   26.0550   44.4480 O   0  0  0  0  0  0  0  0  0  0  0  0
   34.5010   27.1520   43.6140 C   0  0  0  0  0  0  0  0  0  0  0  0
   35.6650   27.9610   43.2640 C   0  0  0  0  0  0  0  0  0  0  0  0
   35.2190   26.9120   42.2780 C   0  0  0  0  0  0  0  0  0  0  0  0
   33.4487   28.1483   45.0850 H   0  0  0  0  0  0  0  0  0  0  0  0
   35.0267   27.7121   47.1873 H   0  0  0  0  0  0  0  0  0  0  0  0
   35.1534   25.2141   46.5945 H   0  0  0  0  0  0  0  0  0  0  0  0
   33.5684   24.4186   46.8326 H   0  0  0  0  0  0  0  0  0  0  0  0
   32.7402   25.4558   44.9382 H   0  0  0  0  0  0  0  0  0  0  0  0
   31.6470   27.6368   47.0039 H   0  0  0  0  0  0  0  0  0  0  0  0
   32.5517   31.5915   47.3698 H   0  0  0  0  0  0  0  0  0  0  0  0
   35.2476   28.7201   50.9797 H   0  0  0  0  0  0  0  0  0  0  0  0
   37.5670   28.7086   51.9511 H   0  0  0  0  0  0  0  0  0  0  0  0
   38.5111   32.2186   49.6892 H   0  0  0  0  0  0  0  0  0  0  0  0
   33.5135   27.4517   43.9949 H   0  0  0  0  0  0  0  0  0  0  0  0
   35.5337   29.0258   43.0213 H   0  0  0  0  0  0  0  0  0  0  0  0
   36.6194   28.1830   43.7639 H   0  0  0  0  0  0  0  0  0  0  0  0
   34.7442   27.2045   41.3298 H   0  0  0  0  0  0  0  0  0  0  0  0
   35.6821   26.0535   41.7696 H   0  0  0  0  0  0  0  0  0  0  0  0
  1  6  1  0
  1  2  1  0
  2  3  1  0
  2  7  1  0
  4  3  1  0
  5  1  1  0
  5  4  1  0
  9  8  2  0
  9  7  1  0
  9 11  1  0
 10  9  1  0
 11 12  1  0
 12 13  2  0
 13 14  1  0
 15 14  2  0
 16 15  1  0
 17 12  1  0
 17 16  2  0
 18  5  1  0
 19 18  1  0
 20 19  1  0
 21 20  1  0
 21 19  1  0
  1 22  1  6
  2 23  1  6
  4 24  1  0
  4 25  1  0
  5 26  1  6
  6 27  1  0
 10 28  1  0
 13 29  1  0
 14 30  1  0
 16 31  1  0
 19 32  1  0
 20 33  1  0
 20 34  1  0
 21 35  1  0
 21 36  1  0
M  ISO  8  22  13  23  13  24  13  25  13  26  13  27   3  28   3  29  14
M  ISO  7  30  14  31  14  32  13  33  13  34  13  35  13  36  13
M  END
>  <minimizedAffinity>  (1) 
-4.02682829

>  <minimizedRMSD>  (1) 
1.30059838

$$$$
