
     RDKit          3D

 35 36  0  0  1  0  0  0  0  0999 V2000
   33.0780   27.3050   45.9020 C   0  0  1  0  0  0  0  0  0  0  0  0
   33.9060   27.4670   47.1950 C   0  0  2  0  0  0  0  0  0  0  0  0
   33.8110   26.2410   47.7790 O   0  0  0  0  0  0  0  0  0  0  0  0
   34.0340   25.3430   46.7520 C   0  0  0  0  0  0  0  0  0  0  0  0
   33.4440   25.9000   45.5010 C   0  0  2  0  0  0  0  0  0  0  0  0
   31.7330   27.4970   46.1660 O   0  0  0  0  0  0  0  0  0  0  0  0
   33.3220   28.5110   47.8500 O   0  0  0  0  0  0  0  0  0  0  0  0
   35.3480   29.8080   46.7660 O   0  0  0  0  0  0  0  0  0  0  0  0
   34.0950   29.9880   47.6130 P   0  0  1  0  0  0  0  0  0  0  0  0
   33.1050   31.0270   46.7140 O   0  0  0  0  0  0  0  0  0  0  0  0
   34.4050   30.6340   49.1610 O   0  0  0  0  0  0  0  0  0  0  0  0
   35.6460   30.5120   49.7720 C   0  0  0  0  0  0  0  0  0  0  0  0
   35.9820   29.4920   50.6880 C   0  0  0  0  0  0  0  0  0  0  0  0
   37.2620   29.4950   51.2230 C   0  0  0  0  0  0  0  0  0  0  0  0
   38.1310   30.4800   50.8390 N   0  0  0  0  0  0  0  0  0  0  0  0
   37.7770   31.4460   49.9550 C   0  0  0  0  0  0  0  0  0  0  0  0
   36.5240   31.4620   49.4190 N   0  0  0  0  0  0  0  0  0  0  0  0
   34.3880   25.9310   44.4820 O   0  0  0  0  0  0  0  0  0  0  0  0
   35.2020   24.8290   44.4190 C   0  0  0  0  0  0  0  0  0  0  0  0
   36.2860   25.1310   43.4070 C   0  0  0  0  0  0  0  0  0  0  0  0
   33.2806   28.0302   45.1001 H   0  0  0  0  0  0  0  0  0  0  0  0
   34.9751   27.7151   47.1208 H   0  0  0  0  0  0  0  0  0  0  0  0
   35.1155   25.1936   46.6178 H   0  0  0  0  0  0  0  0  0  0  0  0
   33.5690   24.3749   46.9898 H   0  0  0  0  0  0  0  0  0  0  0  0
   32.5974   25.3083   45.1227 H   0  0  0  0  0  0  0  0  0  0  0  0
   31.5886   27.5176   47.1452 H   0  0  0  0  0  0  0  0  0  0  0  0
   32.5703   31.5882   47.3298 H   0  0  0  0  0  0  0  0  0  0  0  0
   35.2517   28.7188   50.9689 H   0  0  0  0  0  0  0  0  0  0  0  0
   37.5720   28.7216   51.9411 H   0  0  0  0  0  0  0  0  0  0  0  0
   38.5046   32.2200   49.6694 H   0  0  0  0  0  0  0  0  0  0  0  0
   35.6501   24.6345   45.4046 H   0  0  0  0  0  0  0  0  0  0  0  0
   34.6298   23.9371   44.1240 H   0  0  0  0  0  0  0  0  0  0  0  0
   37.2167   25.3903   43.9329 H   0  0  0  0  0  0  0  0  0  0  0  0
   36.4556   24.2459   42.7763 H   0  0  0  0  0  0  0  0  0  0  0  0
   35.9736   25.9763   42.7763 H   0  0  0  0  0  0  0  0  0  0  0  0
  1  6  1  0
  1  2  1  0
  2  3  1  0
  2  7  1  0
  4  3  1  0
  5  1  1  0
  5  4  1  0
  9  8  2  0
  9  7  1  0
  9 11  1  0
 10  9  1  0
 11 12  1  0
 12 13  2  0
 13 14  1  0
 15 14  2  0
 16 15  1  0
 17 12  1  0
 17 16  2  0
 18  5  1  0
 19 18  1  0
 20 19  1  0
  1 21  1  6
  2 22  1  6
  4 23  1  0
  4 24  1  0
  5 25  1  6
  6 26  1  0
 10 27  1  0
 13 28  1  0
 14 29  1  0
 16 30  1  0
 19 31  1  0
 19 32  1  0
 20 33  1  0
 20 34  1  0
 20 35  1  0
M  ISO  8  21  13  22  13  23  13  24  13  25  13  26   3  27   3  28  14
M  ISO  7  29  14  30  14  31   8  32   8  33   8  34   8  35   8
M  END
>  <minimizedAffinity>  (1) 
-3.97696304

>  <minimizedRMSD>  (1) 
0.548809588

$$$$
