
     RDKit          3D

 27 29  0  0  0  0  0  0  0  0999 V2000
   38.3560   32.1600   48.9280 C   0  0  0  0  0  0  0  0  0  0  0  0
   38.6850   33.3150   49.6240 C   0  0  0  0  0  0  0  0  0  0  0  0
   39.5030   34.2810   49.0070 C   0  0  0  0  0  0  0  0  0  0  0  0
   39.9450   34.0250   47.7140 C   0  0  0  0  0  0  0  0  0  0  0  0
   39.6320   32.8900   47.0100 C   0  0  0  0  0  0  0  0  0  0  0  0
   38.8280   31.9720   47.6540 C   0  0  0  0  0  0  0  0  0  0  0  0
   37.0230   29.5010   51.2570 C   0  0  0  0  0  0  0  0  0  0  0  0
   37.9400   30.3830   50.6440 C   0  0  0  0  0  0  0  0  0  0  0  0
   37.5050   31.2120   49.6300 C   0  0  0  0  0  0  0  0  0  0  0  0
   36.1970   31.1480   49.2560 N   0  0  0  0  0  0  0  0  0  0  0  0
   35.3400   30.2820   49.8740 C   0  0  0  0  0  0  0  0  0  0  0  0
   35.7530   29.4700   50.8620 N   0  0  0  0  0  0  0  0  0  0  0  0
   38.4570   30.7350   46.9360 C   0  0  0  0  0  0  0  0  0  0  0  0
   38.8100   30.4640   45.5420 C   0  0  0  0  0  0  0  0  0  0  0  0
   37.3760   30.8750   45.8200 C   0  0  0  0  0  0  0  0  0  0  0  0
   38.3109   33.4740   50.6462 H   0  0  0  0  0  0  0  0  0  0  0  0
   39.7829   35.2071   49.5305 H   0  0  0  0  0  0  0  0  0  0  0  0
   40.5833   34.7768   47.2268 H   0  0  0  0  0  0  0  0  0  0  0  0
   40.0018   32.7209   45.9879 H   0  0  0  0  0  0  0  0  0  0  0  0
   37.3607   28.8360   52.0655 H   0  0  0  0  0  0  0  0  0  0  0  0
   38.9899   30.4089   50.9713 H   0  0  0  0  0  0  0  0  0  0  0  0
   34.2876   30.2486   49.5556 H   0  0  0  0  0  0  0  0  0  0  0  0
   38.6135   30.1563   47.8583 H   0  0  0  0  0  0  0  0  0  0  0  0
   39.0263   29.4318   45.2293 H   0  0  0  0  0  0  0  0  0  0  0  0
   39.5922   30.8452   44.8690 H   0  0  0  0  0  0  0  0  0  0  0  0
   37.0105   31.8674   45.5175 H   0  0  0  0  0  0  0  0  0  0  0  0
   36.3763   30.4604   45.6231 H   0  0  0  0  0  0  0  0  0  0  0  0
  1  2  2  0
  1  9  1  0
  3  2  1  0
  4  3  2  0
  5  6  2  0
  5  4  1  0
  6  1  1  0
  8  7  2  0
  9  8  1  0
 10  9  2  0
 10 11  1  0
 11 12  2  0
 12  7  1  0
 13  6  1  0
 14 15  1  0
 14 13  1  0
 15 13  1  0
  2 16  1  0
  3 17  1  0
  4 18  1  0
  5 19  1  0
  7 20  1  0
  8 21  1  0
 11 22  1  0
 13 23  1  0
 14 24  1  0
 14 25  1  0
 15 26  1  0
 15 27  1  0
M  ISO  8  16  14  17  14  18  14  19  14  20  14  21  14  22  14  23  13
M  ISO  4  24  13  25  13  26  13  27  13
M  END
>  <minimizedAffinity>  (1) 
-5.78784418

>  <minimizedRMSD>  (1) 
1.73608768

$$$$
