
     RDKit          3D

 28 29  0  0  0  0  0  0  0  0999 V2000
   38.4400   32.3170   48.8270 C   0  0  0  0  0  0  0  0  0  0  0  0
   38.7940   33.4230   49.5890 C   0  0  0  0  0  0  0  0  0  0  0  0
   39.6430   34.4030   49.0640 C   0  0  0  0  0  0  0  0  0  0  0  0
   40.1030   34.2220   47.7780 C   0  0  0  0  0  0  0  0  0  0  0  0
   39.7720   33.1410   47.0020 C   0  0  0  0  0  0  0  0  0  0  0  0
   38.9310   32.2030   47.5670 C   0  0  0  0  0  0  0  0  0  0  0  0
   36.9270   29.7600   51.1620 C   0  0  0  0  0  0  0  0  0  0  0  0
   37.8730   30.6630   50.6290 C   0  0  0  0  0  0  0  0  0  0  0  0
   37.5450   31.3620   49.4560 C   0  0  0  0  0  0  0  0  0  0  0  0
   36.3470   31.1360   48.8960 N   0  0  0  0  0  0  0  0  0  0  0  0
   35.4570   30.2610   49.4330 C   0  0  0  0  0  0  0  0  0  0  0  0
   35.7500   29.5900   50.5460 N   0  0  0  0  0  0  0  0  0  0  0  0
   38.6110   31.0970   46.7180 N   0  0  0  0  0  0  0  0  0  0  0  0
   37.5300   31.0350   45.3950 S   0  0  0  0  0  0  0  0  0  0  0  0
   37.8980   29.9260   44.4410 O   0  0  0  0  0  0  0  0  0  0  0  0
   37.5340   32.3540   44.7010 O   0  0  0  0  0  0  0  0  0  0  0  0
   35.9440   30.7230   45.9090 O   0  0  0  0  0  0  0  0  0  0  0  0
   38.4041   33.5290   50.6121 H   0  0  0  0  0  0  0  0  0  0  0  0
   39.9323   35.2843   49.6552 H   0  0  0  0  0  0  0  0  0  0  0  0
   40.7709   34.9848   47.3513 H   0  0  0  0  0  0  0  0  0  0  0  0
   40.1580   33.0266   45.9783 H   0  0  0  0  0  0  0  0  0  0  0  0
   37.1560   29.1984   52.0797 H   0  0  0  0  0  0  0  0  0  0  0  0
   38.8447   30.8154   51.1215 H   0  0  0  0  0  0  0  0  0  0  0  0
   34.4843   30.1050   48.9436 H   0  0  0  0  0  0  0  0  0  0  0  0
   39.0994   30.2162   46.9336 H   0  0  0  0  0  0  0  0  0  0  0  0
   38.1644   29.1231   44.9553 H   0  0  0  0  0  0  0  0  0  0  0  0
   37.5362   33.0807   45.3734 H   0  0  0  0  0  0  0  0  0  0  0  0
   35.9130   30.7169   46.8985 H   0  0  0  0  0  0  0  0  0  0  0  0
  1  9  1  0
  1  2  2  0
  3  2  1  0
  4  3  2  0
  5  6  2  0
  5  4  1  0
  6  1  1  0
  8  7  2  0
  9  8  1  0
 10 11  1  0
 10  9  2  0
 11 12  2  0
 12  7  1  0
 13  6  1  0
 14 17  1  0
 14 13  1  0
 15 14  1  0
 16 14  1  0
  2 18  1  0
  3 19  1  0
  4 20  1  0
  5 21  1  0
  7 22  1  0
  8 23  1  0
 11 24  1  0
 13 25  1  0
 15 26  1  0
 16 27  1  0
 17 28  1  0
M  ISO  8  18  14  19  14  20  14  21  14  22  14  23  14  24  14  26   3
M  ISO  2  27   3  28   3
M  END
>  <minimizedAffinity>  (1) 
-5.69829607

>  <minimizedRMSD>  (1) 
2.29702163

$$$$
