
     RDKit          3D

 26 27  0  0  0  0  0  0  0  0999 V2000
   38.3360   32.1750   48.9030 C   0  0  0  0  0  0  0  0  0  0  0  0
   38.7050   33.3150   49.5720 C   0  0  0  0  0  0  0  0  0  0  0  0
   39.5240   34.2780   49.0010 C   0  0  0  0  0  0  0  0  0  0  0  0
   39.9560   34.0420   47.7220 C   0  0  0  0  0  0  0  0  0  0  0  0
   39.6170   32.9050   46.9880 C   0  0  0  0  0  0  0  0  0  0  0  0
   38.7900   31.9810   47.6320 C   0  0  0  0  0  0  0  0  0  0  0  0
   37.0110   29.5360   51.2460 C   0  0  0  0  0  0  0  0  0  0  0  0
   37.9480   30.4200   50.6420 C   0  0  0  0  0  0  0  0  0  0  0  0
   37.4770   31.2320   49.5990 C   0  0  0  0  0  0  0  0  0  0  0  0
   36.1870   31.1180   49.2490 N   0  0  0  0  0  0  0  0  0  0  0  0
   35.3210   30.2670   49.8440 C   0  0  0  0  0  0  0  0  0  0  0  0
   35.7460   29.4810   50.8420 N   0  0  0  0  0  0  0  0  0  0  0  0
   38.4180   30.7680   46.8670 C   0  0  0  0  0  0  0  0  0  0  0  0
   39.2840   30.5890   45.6320 C   0  0  0  0  0  0  0  0  0  0  0  0
   38.3383   33.4706   50.5973 H   0  0  0  0  0  0  0  0  0  0  0  0
   39.8128   35.1873   49.5484 H   0  0  0  0  0  0  0  0  0  0  0  0
   40.6067   34.7912   47.2474 H   0  0  0  0  0  0  0  0  0  0  0  0
   39.9797   32.7452   45.9619 H   0  0  0  0  0  0  0  0  0  0  0  0
   37.3414   28.8825   52.0669 H   0  0  0  0  0  0  0  0  0  0  0  0
   38.9946   30.4649   50.9776 H   0  0  0  0  0  0  0  0  0  0  0  0
   34.2738   30.2204   49.5106 H   0  0  0  0  0  0  0  0  0  0  0  0
   38.5377   29.8878   47.5158 H   0  0  0  0  0  0  0  0  0  0  0  0
   37.3743   30.8794   46.5380 H   0  0  0  0  0  0  0  0  0  0  0  0
   40.3188   30.3751   45.9377 H   0  0  0  0  0  0  0  0  0  0  0  0
   38.8984   29.7516   45.0320 H   0  0  0  0  0  0  0  0  0  0  0  0
   39.2620   31.5107   45.0320 H   0  0  0  0  0  0  0  0  0  0  0  0
  1  2  2  0
  1  9  1  0
  3  2  1  0
  4  3  2  0
  5  6  2  0
  5  4  1  0
  6  1  1  0
  8  7  2  0
  9  8  1  0
 10  9  2  0
 10 11  1  0
 11 12  2  0
 12  7  1  0
 13  6  1  0
 14 13  1  0
  2 15  1  0
  3 16  1  0
  4 17  1  0
  5 18  1  0
  7 19  1  0
  8 20  1  0
 11 21  1  0
 13 22  1  0
 13 23  1  0
 14 24  1  0
 14 25  1  0
 14 26  1  0
M  ISO  8  15  14  16  14  17  14  18  14  19  14  20  14  21  14  22   8
M  ISO  4  23   8  24   8  25   8  26   8
M  END
>  <minimizedAffinity>  (1) 
-5.55445242

>  <minimizedRMSD>  (1) 
1.59247446

$$$$
