
     RDKit          3D

 23 24  0  0  0  0  0  0  0  0999 V2000
   38.3080   32.1470   48.9250 C   0  0  0  0  0  0  0  0  0  0  0  0
   38.6770   33.2860   49.5890 C   0  0  0  0  0  0  0  0  0  0  0  0
   39.4950   34.2530   49.0120 C   0  0  0  0  0  0  0  0  0  0  0  0
   39.9310   34.0290   47.7320 C   0  0  0  0  0  0  0  0  0  0  0  0
   39.5850   32.8990   47.0310 C   0  0  0  0  0  0  0  0  0  0  0  0
   38.7620   31.9570   47.6510 C   0  0  0  0  0  0  0  0  0  0  0  0
   37.0070   29.5260   51.3030 C   0  0  0  0  0  0  0  0  0  0  0  0
   37.9150   30.4130   50.6770 C   0  0  0  0  0  0  0  0  0  0  0  0
   37.4490   31.2080   49.6290 C   0  0  0  0  0  0  0  0  0  0  0  0
   36.1600   31.1090   49.2490 N   0  0  0  0  0  0  0  0  0  0  0  0
   35.3170   30.2330   49.8880 C   0  0  0  0  0  0  0  0  0  0  0  0
   35.7420   29.4590   50.8970 N   0  0  0  0  0  0  0  0  0  0  0  0
   38.3710   30.7280   46.9160 C   0  0  0  0  0  0  0  0  0  0  0  0
   38.3139   33.4425   50.6155 H   0  0  0  0  0  0  0  0  0  0  0  0
   39.7805   35.1619   49.5619 H   0  0  0  0  0  0  0  0  0  0  0  0
   40.5781   34.7772   47.2509 H   0  0  0  0  0  0  0  0  0  0  0  0
   39.9481   32.7402   46.0049 H   0  0  0  0  0  0  0  0  0  0  0  0
   37.3496   28.8878   52.1308 H   0  0  0  0  0  0  0  0  0  0  0  0
   38.9621   30.4742   51.0083 H   0  0  0  0  0  0  0  0  0  0  0  0
   34.2679   30.1648   49.5642 H   0  0  0  0  0  0  0  0  0  0  0  0
   38.1187   29.9351   47.6355 H   0  0  0  0  0  0  0  0  0  0  0  0
   37.4964   30.9414   46.2839 H   0  0  0  0  0  0  0  0  0  0  0  0
   39.2081   30.3968   46.2839 H   0  0  0  0  0  0  0  0  0  0  0  0
  1  2  2  0
  1  9  1  0
  3  2  1  0
  4  3  2  0
  5  6  2  0
  5  4  1  0
  6  1  1  0
  8  7  2  0
  9  8  1  0
 10  9  2  0
 10 11  1  0
 11 12  2  0
 12  7  1  0
 13  6  1  0
  2 14  1  0
  3 15  1  0
  4 16  1  0
  5 17  1  0
  7 18  1  0
  8 19  1  0
 11 20  1  0
 13 21  1  0
 13 22  1  0
 13 23  1  0
M  ISO  8  14  14  15  14  16  14  17  14  18  14  19  14  20  14  21   8
M  ISO  2  22   8  23   8
M  END
>  <minimizedAffinity>  (1) 
-5.46007824

>  <minimizedRMSD>  (1) 
1.38463819

$$$$
