
     RDKit          3D

 22 23  0  0  0  0  0  0  0  0999 V2000
   38.4710   32.0970   48.4430 C   0  0  0  0  0  0  0  0  0  0  0  0
   38.6540   33.1190   49.3510 C   0  0  0  0  0  0  0  0  0  0  0  0
   39.4620   34.2200   49.0640 C   0  0  0  0  0  0  0  0  0  0  0  0
   40.0760   34.2430   47.8180 C   0  0  0  0  0  0  0  0  0  0  0  0
   39.9220   33.2440   46.8800 C   0  0  0  0  0  0  0  0  0  0  0  0
   39.0980   32.1760   47.2420 C   0  0  0  0  0  0  0  0  0  0  0  0
   36.9590   29.1770   50.2840 C   0  0  0  0  0  0  0  0  0  0  0  0
   37.8810   30.2160   49.9810 C   0  0  0  0  0  0  0  0  0  0  0  0
   37.6070   31.0050   48.8590 C   0  0  0  0  0  0  0  0  0  0  0  0
   36.4920   30.7560   48.1120 N   0  0  0  0  0  0  0  0  0  0  0  0
   35.6480   29.7410   48.4610 C   0  0  0  0  0  0  0  0  0  0  0  0
   35.8750   28.9660   49.5250 N   0  0  0  0  0  0  0  0  0  0  0  0
   38.9100   31.1210   46.3030 N   0  0  0  0  0  0  0  0  0  0  0  0
   38.1497   33.0648   50.3271 H   0  0  0  0  0  0  0  0  0  0  0  0
   39.6062   35.0326   49.7912 H   0  0  0  0  0  0  0  0  0  0  0  0
   40.7170   35.1010   47.5671 H   0  0  0  0  0  0  0  0  0  0  0  0
   40.4207   33.2859   45.9005 H   0  0  0  0  0  0  0  0  0  0  0  0
   37.1389   28.5340   51.1582 H   0  0  0  0  0  0  0  0  0  0  0  0
   38.7716   30.3918   50.6023 H   0  0  0  0  0  0  0  0  0  0  0  0
   34.7540   29.5559   47.8474 H   0  0  0  0  0  0  0  0  0  0  0  0
   38.3079   30.3202   46.5418 H   0  0  0  0  0  0  0  0  0  0  0  0
   39.3762   31.1592   45.3853 H   0  0  0  0  0  0  0  0  0  0  0  0
  1  9  1  0
  1  2  2  0
  3  2  1  0
  4  3  2  0
  5  6  2  0
  5  4  1  0
  6  1  1  0
  8  7  2  0
  9  8  1  0
 10 11  1  0
 10  9  2  0
 11 12  2  0
 12  7  1  0
 13  6  1  0
  2 14  1  0
  3 15  1  0
  4 16  1  0
  5 17  1  0
  7 18  1  0
  8 19  1  0
 11 20  1  0
 13 21  1  0
 13 22  1  0
M  ISO  7  14  14  15  14  16  14  17  14  18  14  19  14  20  14
M  END
>  <minimizedAffinity>  (1) 
-5.15463305

>  <minimizedRMSD>  (1) 
1.57847214

$$$$
