
     RDKit          3D

 36 38  0  0  0  0  0  0  0  0999 V2000
   38.4020   32.2740   48.7690 C   0  0  0  0  0  0  0  0  0  0  0  0
   38.7780   33.2840   49.6500 C   0  0  0  0  0  0  0  0  0  0  0  0
   39.6250   34.3210   49.2310 C   0  0  0  0  0  0  0  0  0  0  0  0
   40.0620   34.2930   47.9190 C   0  0  0  0  0  0  0  0  0  0  0  0
   39.7030   33.3070   47.0370 C   0  0  0  0  0  0  0  0  0  0  0  0
   38.8550   32.2780   47.4770 C   0  0  0  0  0  0  0  0  0  0  0  0
   37.0230   29.2790   50.6100 C   0  0  0  0  0  0  0  0  0  0  0  0
   37.9710   30.2020   50.1240 C   0  0  0  0  0  0  0  0  0  0  0  0
   37.5240   31.2630   49.3170 C   0  0  0  0  0  0  0  0  0  0  0  0
   36.2140   31.3250   49.0610 N   0  0  0  0  0  0  0  0  0  0  0  0
   35.3110   30.4400   49.5280 C   0  0  0  0  0  0  0  0  0  0  0  0
   35.7190   29.4270   50.2950 N   0  0  0  0  0  0  0  0  0  0  0  0
   38.5230   31.2680   46.4740 C   0  0  0  0  0  0  0  0  0  0  0  0
   37.4130   31.6690   45.5220 C   0  0  0  0  0  0  0  0  0  0  0  0
   36.9800   30.3650   44.8480 C   0  0  0  0  0  0  0  0  0  0  0  0
   38.0820   29.9580   43.9290 C   0  0  0  0  0  0  0  0  0  0  0  0
   39.3620   29.7590   44.7050 C   0  0  0  0  0  0  0  0  0  0  0  0
   39.7080   30.9570   45.5570 C   0  0  0  0  0  0  0  0  0  0  0  0
   38.4072   33.2689   50.6855 H   0  0  0  0  0  0  0  0  0  0  0  0
   39.9293   35.1241   49.9183 H   0  0  0  0  0  0  0  0  0  0  0  0
   40.7262   35.0966   47.5683 H   0  0  0  0  0  0  0  0  0  0  0  0
   40.0733   33.3217   46.0013 H   0  0  0  0  0  0  0  0  0  0  0  0
   37.3452   28.4401   51.2444 H   0  0  0  0  0  0  0  0  0  0  0  0
   39.0376   30.0945   50.3708 H   0  0  0  0  0  0  0  0  0  0  0  0
   34.2455   30.5519   49.2787 H   0  0  0  0  0  0  0  0  0  0  0  0
   38.2158   30.4104   47.0906 H   0  0  0  0  0  0  0  0  0  0  0  0
   36.5732   32.1166   46.0737 H   0  0  0  0  0  0  0  0  0  0  0  0
   37.7462   32.4211   44.7917 H   0  0  0  0  0  0  0  0  0  0  0  0
   36.8141   29.5856   45.6063 H   0  0  0  0  0  0  0  0  0  0  0  0
   36.0401   30.5046   44.2938 H   0  0  0  0  0  0  0  0  0  0  0  0
   38.2335   30.7430   43.1735 H   0  0  0  0  0  0  0  0  0  0  0  0
   37.8091   29.0120   43.4385 H   0  0  0  0  0  0  0  0  0  0  0  0
   39.2467   28.8817   45.3584 H   0  0  0  0  0  0  0  0  0  0  0  0
   40.1764   29.6155   43.9796 H   0  0  0  0  0  0  0  0  0  0  0  0
   40.5974   30.7341   46.1647 H   0  0  0  0  0  0  0  0  0  0  0  0
   39.9212   31.8239   44.9144 H   0  0  0  0  0  0  0  0  0  0  0  0
  1  9  1  0
  1  2  2  0
  3  2  1  0
  4  3  2  0
  5  6  2  0
  5  4  1  0
  6  1  1  0
  8  7  2  0
  9  8  1  0
 10  9  2  0
 10 11  1  0
 11 12  2  0
 12  7  1  0
 13  6  1  0
 14 13  1  0
 15 14  1  0
 16 17  1  0
 16 15  1  0
 17 18  1  0
 18 13  1  0
  2 19  1  0
  3 20  1  0
  4 21  1  0
  5 22  1  0
  7 23  1  0
  8 24  1  0
 11 25  1  0
 13 26  1  0
 14 27  1  0
 14 28  1  0
 15 29  1  0
 15 30  1  0
 16 31  1  0
 16 32  1  0
 17 33  1  0
 17 34  1  0
 18 35  1  0
 18 36  1  0
M  ISO  8  19  14  20  14  21  14  22  14  23  14  24  14  25  14  26  13
M  ISO  8  27  13  28  13  29  13  30  13  31  13  32  13  33  13  34  13
M  ISO  2  35  13  36  13
M  END
>  <minimizedAffinity>  (1) 
-6.0744462

>  <minimizedRMSD>  (1) 
1.96677256

$$$$
