
     RDKit          3D

 37 39  0  0  1  0  0  0  0  0999 V2000
   38.4370   32.2360   48.6430 C   0  0  0  0  0  0  0  0  0  0  0  0
   38.7990   33.2320   49.5400 C   0  0  0  0  0  0  0  0  0  0  0  0
   39.6280   34.2860   49.1110 C   0  0  0  0  0  0  0  0  0  0  0  0
   40.0470   34.2810   47.8010 C   0  0  0  0  0  0  0  0  0  0  0  0
   39.6950   33.3020   46.9080 C   0  0  0  0  0  0  0  0  0  0  0  0
   38.8630   32.2470   47.3460 C   0  0  0  0  0  0  0  0  0  0  0  0
   38.5800   31.2150   46.3500 C   0  0  1  0  0  0  0  0  0  0  0  0
   37.3630   31.5970   45.4660 C   0  0  0  0  0  0  0  0  0  0  0  0
   36.9750   30.2660   44.7940 C   0  0  0  0  0  0  0  0  0  0  0  0
   38.0490   29.9610   43.7980 C   0  0  0  0  0  0  0  0  0  0  0  0
   39.3790   29.8160   44.4950 C   0  0  0  0  0  0  0  0  0  0  0  0
   39.6950   30.9990   45.3720 C   0  0  2  0  0  0  0  0  0  0  0  0
   40.8290   30.6700   46.0910 O   0  0  0  0  0  0  0  0  0  0  0  0
   37.0660   29.2200   50.4580 C   0  0  0  0  0  0  0  0  0  0  0  0
   38.0070   30.1510   49.9760 C   0  0  0  0  0  0  0  0  0  0  0  0
   37.5670   31.2150   49.1890 C   0  0  0  0  0  0  0  0  0  0  0  0
   36.2450   31.2720   48.9460 N   0  0  0  0  0  0  0  0  0  0  0  0
   35.3480   30.3810   49.4080 C   0  0  0  0  0  0  0  0  0  0  0  0
   35.7570   29.3670   50.1550 N   0  0  0  0  0  0  0  0  0  0  0  0
   38.4404   33.1978   50.5793 H   0  0  0  0  0  0  0  0  0  0  0  0
   39.9307   35.0874   49.8010 H   0  0  0  0  0  0  0  0  0  0  0  0
   40.6941   35.1000   47.4539 H   0  0  0  0  0  0  0  0  0  0  0  0
   40.0539   33.3371   45.8688 H   0  0  0  0  0  0  0  0  0  0  0  0
   38.4086   30.3121   46.9544 H   0  0  0  0  0  0  0  0  0  0  0  0
   36.5363   31.9829   46.0805 H   0  0  0  0  0  0  0  0  0  0  0  0
   37.5925   32.3920   44.7413 H   0  0  0  0  0  0  0  0  0  0  0  0
   36.9154   29.4647   45.5453 H   0  0  0  0  0  0  0  0  0  0  0  0
   35.9915   30.3395   44.3069 H   0  0  0  0  0  0  0  0  0  0  0  0
   38.1095   30.7802   43.0663 H   0  0  0  0  0  0  0  0  0  0  0  0
   37.8070   29.0179   43.2862 H   0  0  0  0  0  0  0  0  0  0  0  0
   39.3553   28.9097   45.1180 H   0  0  0  0  0  0  0  0  0  0  0  0
   40.1593   29.7511   43.7224 H   0  0  0  0  0  0  0  0  0  0  0  0
   39.8325   31.9051   44.7637 H   0  0  0  0  0  0  0  0  0  0  0  0
   40.6335   30.7267   47.0598 H   0  0  0  0  0  0  0  0  0  0  0  0
   37.3960   28.3748   51.0799 H   0  0  0  0  0  0  0  0  0  0  0  0
   39.0745   30.0402   50.2171 H   0  0  0  0  0  0  0  0  0  0  0  0
   34.2809   30.4946   49.1663 H   0  0  0  0  0  0  0  0  0  0  0  0
  1 16  1  0
  1  2  2  0
  3  2  1  0
  4  3  2  0
  5  6  2  0
  5  4  1  0
  6  1  1  0
  7  6  1  0
  8  7  1  0
  9  8  1  0
 10 11  1  0
 10  9  1  0
 11 12  1  0
 12 13  1  0
 12  7  1  0
 15 14  2  0
 16 15  1  0
 17 16  2  0
 17 18  1  0
 18 19  2  0
 19 14  1  0
  2 20  1  0
  3 21  1  0
  4 22  1  0
  5 23  1  0
  7 24  1  1
  8 25  1  0
  8 26  1  0
  9 27  1  0
  9 28  1  0
 10 29  1  0
 10 30  1  0
 11 31  1  0
 11 32  1  0
 12 33  1  6
 13 34  1  0
 14 35  1  0
 15 36  1  0
 18 37  1  0
M  ISO  8  20  14  21  14  22  14  23  14  24  13  25  13  26  13  27  13
M  ISO  8  28  13  29  13  30  13  31  13  32  13  33  13  34   3  35  14
M  ISO  2  36  14  37  14
M  END
>  <minimizedAffinity>  (1) 
-6.61050034

>  <minimizedRMSD>  (1) 
0.160942003

$$$$
