
     RDKit          3D

 49 52  0  0  1  0  0  0  0  0999 V2000
   34.6380   29.7520   46.4020 C   0  0  1  0  0  0  0  0  0  0  0  0
   33.1860   30.2520   46.2140 C   0  0  0  0  0  0  0  0  0  0  0  0
   32.8530   29.8680   44.7610 C   0  0  0  0  0  0  0  0  0  0  0  0
   33.6300   30.7960   43.9080 C   0  0  0  0  0  0  0  0  0  0  0  0
   35.1190   30.6140   44.1500 C   0  0  0  0  0  0  0  0  0  0  0  0
   35.4800   30.7210   45.6120 C   0  0  2  0  0  0  0  0  0  0  0  0
   34.5920   28.7100   48.6860 C   0  0  0  0  0  0  0  0  0  0  0  0
   35.0460   28.6820   49.9980 C   0  0  0  0  0  0  0  0  0  0  0  0
   35.9450   29.6510   50.4600 C   0  0  0  0  0  0  0  0  0  0  0  0
   36.3520   30.6230   49.5540 C   0  0  0  0  0  0  0  0  0  0  0  0
   35.9090   30.6580   48.2580 C   0  0  0  0  0  0  0  0  0  0  0  0
   35.0050   29.6720   47.8180 C   0  0  0  0  0  0  0  0  0  0  0  0
   32.9510   25.5610   47.3820 C   0  0  0  0  0  0  0  0  0  0  0  0
   33.9690   26.5050   47.6460 C   0  0  0  0  0  0  0  0  0  0  0  0
   33.6450   27.6660   48.3420 C   0  0  0  0  0  0  0  0  0  0  0  0
   32.3570   27.7980   48.7150 N   0  0  0  0  0  0  0  0  0  0  0  0
   31.3920   26.9010   48.4640 C   0  0  0  0  0  0  0  0  0  0  0  0
   31.6910   25.7940   47.8020 N   0  0  0  0  0  0  0  0  0  0  0  0
   37.7030   31.7860   46.2040 C   0  0  1  0  0  0  0  0  0  0  0  0
   36.9300   30.5420   45.8140 C   0  0  2  0  0  0  0  0  0  0  0  0
   37.6590   30.1670   44.6810 O   0  0  0  0  0  0  0  0  0  0  0  0
   38.9820   30.1960   45.0970 C   0  0  0  0  0  0  0  0  0  0  0  0
   39.0900   31.1070   46.3010 C   0  0  1  0  0  0  0  0  0  0  0  0
   37.8330   32.6720   45.1230 O   0  0  0  0  0  0  0  0  0  0  0  0
   40.1140   32.0230   46.2170 O   0  0  0  0  0  0  0  0  0  0  0  0
   34.7840   28.7236   46.0399 H   0  0  0  0  0  0  0  0  0  0  0  0
   32.5046   29.7517   46.9179 H   0  0  0  0  0  0  0  0  0  0  0  0
   33.0782   31.3298   46.4054 H   0  0  0  0  0  0  0  0  0  0  0  0
   33.1491   28.8273   44.5628 H   0  0  0  0  0  0  0  0  0  0  0  0
   31.7740   29.9427   44.5606 H   0  0  0  0  0  0  0  0  0  0  0  0
   33.3474   31.8317   44.1477 H   0  0  0  0  0  0  0  0  0  0  0  0
   33.4103   30.5799   42.8520 H   0  0  0  0  0  0  0  0  0  0  0  0
   35.4179   29.6208   43.7838 H   0  0  0  0  0  0  0  0  0  0  0  0
   35.6472   31.4161   43.6137 H   0  0  0  0  0  0  0  0  0  0  0  0
   35.2556   31.7316   45.9839 H   0  0  0  0  0  0  0  0  0  0  0  0
   34.6967   27.8925   50.6796 H   0  0  0  0  0  0  0  0  0  0  0  0
   36.3136   29.6432   51.4964 H   0  0  0  0  0  0  0  0  0  0  0  0
   37.0586   31.3957   49.8911 H   0  0  0  0  0  0  0  0  0  0  0  0
   36.2544   31.4448   47.5712 H   0  0  0  0  0  0  0  0  0  0  0  0
   33.1864   24.6366   46.8342 H   0  0  0  0  0  0  0  0  0  0  0  0
   35.0000   26.3253   47.3072 H   0  0  0  0  0  0  0  0  0  0  0  0
   30.3621   27.0832   48.8048 H   0  0  0  0  0  0  0  0  0  0  0  0
   37.2805   32.3403   47.0550 H   0  0  0  0  0  0  0  0  0  0  0  0
   36.8751   29.7742   46.5998 H   0  0  0  0  0  0  0  0  0  0  0  0
   39.3070   29.1811   45.3699 H   0  0  0  0  0  0  0  0  0  0  0  0
   39.6231   30.5692   44.2848 H   0  0  0  0  0  0  0  0  0  0  0  0
   39.3198   30.5910   47.2449 H   0  0  0  0  0  0  0  0  0  0  0  0
   37.9679   33.5915   45.4643 H   0  0  0  0  0  0  0  0  0  0  0  0
   40.4019   32.2806   47.1285 H   0  0  0  0  0  0  0  0  0  0  0  0
  1 12  1  0
  2  1  1  0
  3  2  1  0
  4  5  1  0
  4  3  1  0
  5  6  1  0
  6 20  1  0
  6  1  1  0
  7  8  2  0
  8  9  1  0
 10  9  2  0
 11 10  1  0
 12 11  2  0
 12  7  1  0
 13 14  2  0
 13 18  1  0
 14 15  1  0
 15  7  1  0
 15 16  2  0
 17 16  1  0
 18 17  2  0
 19 24  1  0
 19 23  1  0
 20 21  1  0
 20 19  1  0
 21 22  1  0
 22 23  1  0
 23 25  1  0
  1 26  1  6
  2 27  1  0
  2 28  1  0
  3 29  1  0
  3 30  1  0
  4 31  1  0
  4 32  1  0
  5 33  1  0
  5 34  1  0
  6 35  1  1
  8 36  1  0
  9 37  1  0
 10 38  1  0
 11 39  1  0
 13 40  1  0
 14 41  1  0
 17 42  1  0
 19 43  1  1
 20 44  1  1
 22 45  1  0
 22 46  1  0
 23 47  1  1
 24 48  1  0
 25 49  1  0
M  ISO  8  26  13  27  13  28  13  29  13  30  13  31  13  32  13  33  13
M  ISO  8  34  13  35  13  36  14  37  14  38  14  39  14  40  14  41  14
M  ISO  8  42  14  43  13  44  13  45  13  46  13  47  13  48   3  49   3
M  END
>  <minimizedAffinity>  (1) 
-6.25077534

>  <minimizedRMSD>  (1) 
4.94230556

$$$$
