
     RDKit          3D

 40 43  0  0  1  0  0  0  0  0999 V2000
   38.7570   32.1320   46.8520 C   0  0  1  0  0  0  0  0  0  0  0  0
   39.8590   32.9350   46.1720 C   0  0  0  0  0  0  0  0  0  0  0  0
   39.9150   31.4720   46.2180 C   0  0  2  0  0  0  0  0  0  0  0  0
   38.6860   32.3250   48.3400 C   0  0  0  0  0  0  0  0  0  0  0  0
   37.4370   30.0280   51.0210 C   0  0  0  0  0  0  0  0  0  0  0  0
   38.1450   31.0700   50.3500 C   0  0  0  0  0  0  0  0  0  0  0  0
   37.9380   31.2370   49.0030 C   0  0  0  0  0  0  0  0  0  0  0  0
   37.0810   30.4150   48.3810 N   0  0  0  0  0  0  0  0  0  0  0  0
   36.4160   29.4380   49.0090 C   0  0  0  0  0  0  0  0  0  0  0  0
   36.6050   29.2570   50.3260 N   0  0  0  0  0  0  0  0  0  0  0  0
   39.6030   30.6120   45.0360 C   0  0  0  0  0  0  0  0  0  0  0  0
   40.4430   30.9490   43.8110 C   0  0  0  0  0  0  0  0  0  0  0  0
   39.4120   28.7710   43.1630 C   0  0  0  0  0  0  0  0  0  0  0  0
   40.3370   29.7740   42.8740 C   0  0  0  0  0  0  0  0  0  0  0  0
   41.1340   29.6710   41.7340 C   0  0  0  0  0  0  0  0  0  0  0  0
   41.0200   28.5890   40.8900 C   0  0  0  0  0  0  0  0  0  0  0  0
   41.6610   28.2690   39.7570 N   0  0  0  0  0  0  0  0  0  0  0  0
   41.1530   27.0900   39.3410 C   0  0  0  0  0  0  0  0  0  0  0  0
   40.1740   26.6130   40.1870 C   0  0  0  0  0  0  0  0  0  0  0  0
   40.1040   27.5910   41.1760 C   0  0  0  0  0  0  0  0  0  0  0  0
   39.3210   27.6980   42.3000 C   0  0  0  0  0  0  0  0  0  0  0  0
   37.6713   31.9771   46.7667 H   0  0  0  0  0  0  0  0  0  0  0  0
   40.5581   33.5337   46.7743 H   0  0  0  0  0  0  0  0  0  0  0  0
   39.8973   33.6952   45.3779 H   0  0  0  0  0  0  0  0  0  0  0  0
   40.7222   30.7908   46.5253 H   0  0  0  0  0  0  0  0  0  0  0  0
   39.7087   32.3507   48.7442 H   0  0  0  0  0  0  0  0  0  0  0  0
   38.1576   33.2697   48.5358 H   0  0  0  0  0  0  0  0  0  0  0  0
   37.5776   29.8645   52.0997 H   0  0  0  0  0  0  0  0  0  0  0  0
   38.8395   31.7232   50.8986 H   0  0  0  0  0  0  0  0  0  0  0  0
   35.7224   28.7905   48.4525 H   0  0  0  0  0  0  0  0  0  0  0  0
   39.7877   29.5625   45.3087 H   0  0  0  0  0  0  0  0  0  0  0  0
   38.5506   30.7906   44.7702 H   0  0  0  0  0  0  0  0  0  0  0  0
   40.0566   31.8570   43.3250 H   0  0  0  0  0  0  0  0  0  0  0  0
   41.4901   31.1380   44.0902 H   0  0  0  0  0  0  0  0  0  0  0  0
   38.7718   28.8336   44.0553 H   0  0  0  0  0  0  0  0  0  0  0  0
   41.8622   30.4634   41.5065 H   0  0  0  0  0  0  0  0  0  0  0  0
   42.3992   28.8175   39.2932 H   0  0  0  0  0  0  0  0  0  0  0  0
   41.4825   26.5685   38.4302 H   0  0  0  0  0  0  0  0  0  0  0  0
   39.5899   25.6849   40.1014 H   0  0  0  0  0  0  0  0  0  0  0  0
   38.5961   26.9003   42.5197 H   0  0  0  0  0  0  0  0  0  0  0  0
  1  4  1  0
  2  3  1  0
  2  1  1  0
  3  1  1  0
  4  7  1  0
  6  5  2  0
  7  6  1  0
  8  7  2  0
  8  9  1  0
  9 10  2  0
 10  5  1  0
 11  3  1  0
 12 11  1  0
 14 13  2  0
 14 12  1  0
 15 14  1  0
 16 20  1  0
 16 15  2  0
 17 16  1  0
 18 17  1  0
 18 19  2  0
 19 20  1  0
 20 21  2  0
 21 13  1  0
  1 22  1  6
  2 23  1  0
  2 24  1  0
  3 25  1  1
  4 26  1  0
  4 27  1  0
  5 28  1  0
  6 29  1  0
  9 30  1  0
 11 31  1  0
 11 32  1  0
 12 33  1  0
 12 34  1  0
 13 35  1  0
 15 36  1  0
 17 37  1  0
 18 38  1  0
 19 39  1  0
 21 40  1  0
M  ISO  8  22  13  23  13  24  13  25  13  26   8  27   8  28  14  29  14
M  ISO  8  30  14  31   8  32   8  33   8  34   8  35  14  36  14  37   9
M  ISO  3  38  14  39  14  40  14
M  END
>  <minimizedAffinity>  (1) 
-5.65042067

>  <minimizedRMSD>  (1) 
1.05851448

$$$$
