
     RDKit          3D

 48 51  0  0  1  0  0  0  0  0999 V2000
   36.7390   30.3290   45.9430 C   0  0  1  0  0  0  0  0  0  0  0  0
   35.3330   30.2800   45.3020 C   0  0  0  0  0  0  0  0  0  0  0  0
   35.5100   29.3850   44.0720 C   0  0  0  0  0  0  0  0  0  0  0  0
   36.3310   30.1740   43.0970 C   0  0  0  0  0  0  0  0  0  0  0  0
   37.6680   30.5230   43.6780 C   0  0  0  0  0  0  0  0  0  0  0  0
   37.5400   31.2010   45.0210 C   0  0  2  0  0  0  0  0  0  0  0  0
   35.8210   30.3870   48.2800 C   0  0  0  0  0  0  0  0  0  0  0  0
   35.8890   30.8770   49.5810 C   0  0  0  0  0  0  0  0  0  0  0  0
   36.8630   31.8420   49.9240 C   0  0  0  0  0  0  0  0  0  0  0  0
   37.7180   32.2610   48.9360 C   0  0  0  0  0  0  0  0  0  0  0  0
   37.6600   31.7830   47.6520 C   0  0  0  0  0  0  0  0  0  0  0  0
   36.6860   30.8250   47.3280 C   0  0  0  0  0  0  0  0  0  0  0  0
   33.7530   27.2340   48.1280 C   0  0  0  0  0  0  0  0  0  0  0  0
   34.8430   28.0790   48.4120 C   0  0  0  0  0  0  0  0  0  0  0  0
   34.7720   29.4210   48.0390 C   0  0  0  0  0  0  0  0  0  0  0  0
   33.6410   29.8140   47.4230 N   0  0  0  0  0  0  0  0  0  0  0  0
   32.6030   29.0030   47.1550 C   0  0  0  0  0  0  0  0  0  0  0  0
   32.6610   27.7280   47.5050 N   0  0  0  0  0  0  0  0  0  0  0  0
   38.7460   31.5850   45.6040 N   0  0  0  0  0  0  0  0  0  0  0  0
   39.2210   32.8910   45.4190 C   0  0  0  0  0  0  0  0  0  0  0  0
   40.7520   32.8320   45.4160 C   0  0  0  0  0  0  0  0  0  0  0  0
   41.0890   31.3820   45.3210 C   0  0  0  0  0  0  0  0  0  0  0  0
   39.8010   30.6430   45.7080 C   0  0  0  0  0  0  0  0  0  0  0  0
   37.2005   29.3354   46.0418 H   0  0  0  0  0  0  0  0  0  0  0  0
   34.6018   29.8446   45.9990 H   0  0  0  0  0  0  0  0  0  0  0  0
   34.9533   31.2796   45.0438 H   0  0  0  0  0  0  0  0  0  0  0  0
   36.0323   28.4569   44.3474 H   0  0  0  0  0  0  0  0  0  0  0  0
   34.5394   29.0992   43.6405 H   0  0  0  0  0  0  0  0  0  0  0  0
   35.7959   31.1011   42.8438 H   0  0  0  0  0  0  0  0  0  0  0  0
   36.4894   29.5619   42.1969 H   0  0  0  0  0  0  0  0  0  0  0  0
   38.2542   29.6003   43.8001 H   0  0  0  0  0  0  0  0  0  0  0  0
   38.1662   31.2219   42.9900 H   0  0  0  0  0  0  0  0  0  0  0  0
   37.0156   32.1510   44.8406 H   0  0  0  0  0  0  0  0  0  0  0  0
   35.1841   30.5129   50.3429 H   0  0  0  0  0  0  0  0  0  0  0  0
   36.9331   32.2427   50.9460 H   0  0  0  0  0  0  0  0  0  0  0  0
   38.4823   33.0121   49.1844 H   0  0  0  0  0  0  0  0  0  0  0  0
   38.3648   32.1441   46.8886 H   0  0  0  0  0  0  0  0  0  0  0  0
   33.7907   26.1723   48.4133 H   0  0  0  0  0  0  0  0  0  0  0  0
   35.7364   27.6868   48.9200 H   0  0  0  0  0  0  0  0  0  0  0  0
   31.7101   29.3970   46.6475 H   0  0  0  0  0  0  0  0  0  0  0  0
   38.8593   33.2891   44.4595 H   0  0  0  0  0  0  0  0  0  0  0  0
   38.8617   33.5499   46.2232 H   0  0  0  0  0  0  0  0  0  0  0  0
   41.1571   33.3793   44.5521 H   0  0  0  0  0  0  0  0  0  0  0  0
   41.1824   33.2953   46.3161 H   0  0  0  0  0  0  0  0  0  0  0  0
   41.3893   31.1222   44.2952 H   0  0  0  0  0  0  0  0  0  0  0  0
   41.9304   31.1119   45.9760 H   0  0  0  0  0  0  0  0  0  0  0  0
   39.8742   30.2676   46.7394 H   0  0  0  0  0  0  0  0  0  0  0  0
   39.6270   29.7786   45.0504 H   0  0  0  0  0  0  0  0  0  0  0  0
  1 12  1  0
  2  1  1  0
  3  2  1  0
  4  5  1  0
  4  3  1  0
  5  6  1  0
  6 19  1  0
  6  1  1  0
  7  8  2  0
  8  9  1  0
 10  9  2  0
 11 10  1  0
 12 11  2  0
 12  7  1  0
 13 14  2  0
 15  7  1  0
 15 14  1  0
 16 15  2  0
 17 16  1  0
 17 18  2  0
 18 13  1  0
 19 20  1  0
 19 23  1  0
 21 20  1  0
 22 21  1  0
 22 23  1  0
  1 24  1  1
  2 25  1  0
  2 26  1  0
  3 27  1  0
  3 28  1  0
  4 29  1  0
  4 30  1  0
  5 31  1  0
  5 32  1  0
  6 33  1  6
  8 34  1  0
  9 35  1  0
 10 36  1  0
 11 37  1  0
 13 38  1  0
 14 39  1  0
 17 40  1  0
 20 41  1  0
 20 42  1  0
 21 43  1  0
 21 44  1  0
 22 45  1  0
 22 46  1  0
 23 47  1  0
 23 48  1  0
M  ISO  8  24  13  25  13  26  13  27  13  28  13  29  13  30  13  31  13
M  ISO  8  32  13  33  13  34  14  35  14  36  14  37  14  38  14  39  14
M  ISO  8  40  14  41  13  42  13  43  13  44  13  45  13  46  13  47  13
M  ISO  1  48  13
M  END
>  <minimizedAffinity>  (1) 
-6.03345823

>  <minimizedRMSD>  (1) 
3.21179938

$$$$
