
     RDKit          3D

 45 48  0  0  1  0  0  0  0  0999 V2000
   36.7470   30.5990   46.4990 C   0  0  1  0  0  0  0  0  0  0  0  0
   35.2000   30.5180   46.3810 C   0  0  0  0  0  0  0  0  0  0  0  0
   34.9670   29.4080   45.3480 C   0  0  0  0  0  0  0  0  0  0  0  0
   35.4090   29.9530   44.0270 C   0  0  0  0  0  0  0  0  0  0  0  0
   36.8630   30.3220   44.0640 C   0  0  0  0  0  0  0  0  0  0  0  0
   37.1790   31.2460   45.2150 C   0  0  2  0  0  0  0  0  0  0  0  0
   36.6830   31.1130   48.9570 C   0  0  0  0  0  0  0  0  0  0  0  0
   37.1740   31.8240   50.0440 C   0  0  0  0  0  0  0  0  0  0  0  0
   38.1710   32.7960   49.8650 C   0  0  0  0  0  0  0  0  0  0  0  0
   38.6270   33.0050   48.5810 C   0  0  0  0  0  0  0  0  0  0  0  0
   38.1510   32.3110   47.4970 C   0  0  0  0  0  0  0  0  0  0  0  0
   37.1510   31.3390   47.6980 C   0  0  0  0  0  0  0  0  0  0  0  0
   34.6740   27.9470   49.4200 C   0  0  0  0  0  0  0  0  0  0  0  0
   35.7590   28.7780   49.0650 C   0  0  0  0  0  0  0  0  0  0  0  0
   35.6420   30.1510   49.2710 C   0  0  0  0  0  0  0  0  0  0  0  0
   34.4840   30.5860   49.8020 N   0  0  0  0  0  0  0  0  0  0  0  0
   33.4550   29.7880   50.1390 C   0  0  0  0  0  0  0  0  0  0  0  0
   33.5540   28.4810   49.9460 N   0  0  0  0  0  0  0  0  0  0  0  0
   38.6300   31.5610   45.1930 C   0  0  0  0  0  0  0  0  0  0  0  0
   39.6000   30.6240   45.4970 C   0  0  0  0  0  0  0  0  0  0  0  0
   40.9480   30.9990   45.4540 C   0  0  0  0  0  0  0  0  0  0  0  0
   41.3370   32.2790   45.1140 C   0  0  0  0  0  0  0  0  0  0  0  0
   40.3340   33.1820   44.8180 C   0  0  0  0  0  0  0  0  0  0  0  0
   39.0290   32.8240   44.8590 N   0  0  0  0  0  0  0  0  0  0  0  0
   37.2273   29.6174   46.6247 H   0  0  0  0  0  0  0  0  0  0  0  0
   34.7469   30.2542   47.3480 H   0  0  0  0  0  0  0  0  0  0  0  0
   34.7462   31.4753   46.0850 H   0  0  0  0  0  0  0  0  0  0  0  0
   35.5581   28.5175   45.6080 H   0  0  0  0  0  0  0  0  0  0  0  0
   33.9088   29.1089   45.3194 H   0  0  0  0  0  0  0  0  0  0  0  0
   34.8155   30.8480   43.7890 H   0  0  0  0  0  0  0  0  0  0  0  0
   35.2602   29.1802   43.2584 H   0  0  0  0  0  0  0  0  0  0  0  0
   37.4604   29.4044   44.1700 H   0  0  0  0  0  0  0  0  0  0  0  0
   37.1059   30.8468   43.1283 H   0  0  0  0  0  0  0  0  0  0  0  0
   36.6306   32.1954   45.1260 H   0  0  0  0  0  0  0  0  0  0  0  0
   36.7795   31.6245   51.0512 H   0  0  0  0  0  0  0  0  0  0  0  0
   38.5721   33.3677   50.7149 H   0  0  0  0  0  0  0  0  0  0  0  0
   39.4078   33.7624   48.4179 H   0  0  0  0  0  0  0  0  0  0  0  0
   38.5433   32.5101   46.4888 H   0  0  0  0  0  0  0  0  0  0  0  0
   34.7432   26.8599   49.2667 H   0  0  0  0  0  0  0  0  0  0  0  0
   36.6769   28.3506   48.6351 H   0  0  0  0  0  0  0  0  0  0  0  0
   32.5389   30.2170   50.5712 H   0  0  0  0  0  0  0  0  0  0  0  0
   39.3161   29.5967   45.7692 H   0  0  0  0  0  0  0  0  0  0  0  0
   41.7186   30.2529   45.6979 H   0  0  0  0  0  0  0  0  0  0  0  0
   42.3980   32.5672   45.0802 H   0  0  0  0  0  0  0  0  0  0  0  0
   40.6013   34.2131   44.5434 H   0  0  0  0  0  0  0  0  0  0  0  0
  1 12  1  0
  2  1  1  0
  3  2  1  0
  4  5  1  0
  4  3  1  0
  5  6  1  0
  6  1  1  0
  7 15  1  0
  7  8  2  0
  9  8  1  0
 10  9  2  0
 11 12  2  0
 11 10  1  0
 12  7  1  0
 13 18  2  0
 14 15  2  0
 14 13  1  0
 15 16  1  0
 16 17  2  0
 18 17  1  0
 19  6  1  0
 19 20  2  0
 21 20  1  0
 22 21  2  0
 23 24  2  0
 23 22  1  0
 24 19  1  0
  1 25  1  1
  2 26  1  0
  2 27  1  0
  3 28  1  0
  3 29  1  0
  4 30  1  0
  4 31  1  0
  5 32  1  0
  5 33  1  0
  6 34  1  6
  8 35  1  0
  9 36  1  0
 10 37  1  0
 11 38  1  0
 13 39  1  0
 14 40  1  0
 17 41  1  0
 20 42  1  0
 21 43  1  0
 22 44  1  0
 23 45  1  0
M  ISO  8  25  13  26  13  27  13  28  13  29  13  30  13  31  13  32  13
M  ISO  8  33  13  34  13  35  14  36  14  37  14  38  14  39  14  40  14
M  ISO  5  41  14  42  14  43  14  44  14  45  14
M  END
>  <minimizedAffinity>  (1) 
-5.97303677

>  <minimizedRMSD>  (1) 
2.61625957

$$$$
