
     RDKit          3D

 42 45  0  0  1  0  0  0  0  0999 V2000
   37.0730   30.8140   46.4170 C   0  0  1  0  0  0  0  0  0  0  0  0
   35.5350   30.6840   46.3410 C   0  0  0  0  0  0  0  0  0  0  0  0
   35.3240   29.5390   45.3300 C   0  0  0  0  0  0  0  0  0  0  0  0
   35.6770   30.0950   43.9880 C   0  0  0  0  0  0  0  0  0  0  0  0
   37.1290   30.4980   43.9790 C   0  0  0  0  0  0  0  0  0  0  0  0
   37.4700   31.4460   45.1090 C   0  0  2  0  0  0  0  0  0  0  0  0
   37.0920   31.3400   48.8710 C   0  0  0  0  0  0  0  0  0  0  0  0
   37.6130   32.0710   49.9310 C   0  0  0  0  0  0  0  0  0  0  0  0
   38.5760   33.0670   49.7030 C   0  0  0  0  0  0  0  0  0  0  0  0
   38.9730   33.2790   48.3920 C   0  0  0  0  0  0  0  0  0  0  0  0
   38.4650   32.5630   47.3420 C   0  0  0  0  0  0  0  0  0  0  0  0
   37.5020   31.5710   47.5920 C   0  0  0  0  0  0  0  0  0  0  0  0
   35.2490   28.1380   49.6470 C   0  0  0  0  0  0  0  0  0  0  0  0
   36.3050   28.9870   49.2710 C   0  0  0  0  0  0  0  0  0  0  0  0
   36.0860   30.3630   49.2310 C   0  0  0  0  0  0  0  0  0  0  0  0
   34.8480   30.7770   49.5630 N   0  0  0  0  0  0  0  0  0  0  0  0
   33.8390   29.9660   49.9220 C   0  0  0  0  0  0  0  0  0  0  0  0
   34.0470   28.6590   49.9600 N   0  0  0  0  0  0  0  0  0  0  0  0
   38.9780   31.4760   45.1500 C   0  0  0  0  0  0  0  0  0  0  0  0
   39.8580   30.5580   45.5400 N   0  0  0  0  0  0  0  0  0  0  0  0
   41.0770   31.1100   45.3670 C   0  0  0  0  0  0  0  0  0  0  0  0
   40.9430   32.3720   44.8680 N   0  0  0  0  0  0  0  0  0  0  0  0
   39.6370   32.5770   44.7430 N   0  0  0  0  0  0  0  0  0  0  0  0
   37.5720   29.8423   46.5469 H   0  0  0  0  0  0  0  0  0  0  0  0
   35.1126   30.4250   47.3231 H   0  0  0  0  0  0  0  0  0  0  0  0
   35.0388   31.6189   46.0415 H   0  0  0  0  0  0  0  0  0  0  0  0
   35.9784   28.6893   45.5746 H   0  0  0  0  0  0  0  0  0  0  0  0
   34.2871   29.1725   45.3512 H   0  0  0  0  0  0  0  0  0  0  0  0
   35.5037   29.3300   43.2168 H   0  0  0  0  0  0  0  0  0  0  0  0
   35.0504   30.9745   43.7784 H   0  0  0  0  0  0  0  0  0  0  0  0
   37.7476   29.5937   44.0773 H   0  0  0  0  0  0  0  0  0  0  0  0
   37.3272   31.0198   43.0311 H   0  0  0  0  0  0  0  0  0  0  0  0
   36.9840   32.4225   44.9669 H   0  0  0  0  0  0  0  0  0  0  0  0
   37.2688   31.8682   50.9559 H   0  0  0  0  0  0  0  0  0  0  0  0
   38.9982   33.6552   50.5311 H   0  0  0  0  0  0  0  0  0  0  0  0
   39.7266   34.0538   48.1873 H   0  0  0  0  0  0  0  0  0  0  0  0
   38.8064   32.7617   46.3154 H   0  0  0  0  0  0  0  0  0  0  0  0
   35.4044   27.0497   49.6855 H   0  0  0  0  0  0  0  0  0  0  0  0
   37.2899   28.5712   49.0121 H   0  0  0  0  0  0  0  0  0  0  0  0
   32.8541   30.3819   50.1807 H   0  0  0  0  0  0  0  0  0  0  0  0
   42.0337   30.6169   45.5940 H   0  0  0  0  0  0  0  0  0  0  0  0
   41.6997   33.0311   44.6357 H   0  0  0  0  0  0  0  0  0  0  0  0
  1 12  1  0
  2  1  1  0
  3  2  1  0
  4  3  1  0
  5  4  1  0
  5  6  1  0
  6 19  1  0
  6  1  1  0
  7 15  1  0
  7  8  2  0
  9  8  1  0
 10  9  2  0
 11 12  2  0
 11 10  1  0
 12  7  1  0
 13 18  2  0
 14 13  1  0
 15 14  2  0
 15 16  1  0
 16 17  2  0
 17 18  1  0
 19 20  1  0
 21 20  2  0
 22 21  1  0
 23 22  1  0
 23 19  2  0
  1 24  1  1
  2 25  1  0
  2 26  1  0
  3 27  1  0
  3 28  1  0
  4 29  1  0
  4 30  1  0
  5 31  1  0
  5 32  1  0
  6 33  1  6
  8 34  1  0
  9 35  1  0
 10 36  1  0
 11 37  1  0
 13 38  1  0
 14 39  1  0
 17 40  1  0
 21 41  1  0
 22 42  1  0
M  ISO  8  24  13  25  13  26  13  27  13  28  13  29  13  30  13  31  13
M  ISO  8  32  13  33  13  34  14  35  14  36  14  37  14  38  14  39  14
M  ISO  3  40  14  41  14  42   9
M  END
>  <minimizedAffinity>  (1) 
-5.64253187

>  <minimizedRMSD>  (1) 
2.22814226

$$$$
