
     RDKit          3D

 39 43  0  0  0  0  0  0  0  0999 V2000
   37.1190   29.6060   50.1020 C   0  0  0  0  0  0  0  0  0  0  0  0
   37.9220   30.3970   49.2740 C   0  0  0  0  0  0  0  0  0  0  0  0
   37.4070   30.6640   48.0300 C   0  0  0  0  0  0  0  0  0  0  0  0
   36.2200   30.1660   47.7120 N   0  0  0  0  0  0  0  0  0  0  0  0
   35.4380   29.4200   48.4630 C   0  0  0  0  0  0  0  0  0  0  0  0
   35.9620   29.1850   49.6430 N   0  0  0  0  0  0  0  0  0  0  0  0
   34.1270   28.8110   48.2680 C   0  0  0  0  0  0  0  0  0  0  0  0
   33.3270   28.4410   49.3000 N   0  0  0  0  0  0  0  0  0  0  0  0
   32.1240   27.8950   49.1020 C   0  0  0  0  0  0  0  0  0  0  0  0
   31.5990   27.6600   47.8910 N   0  0  0  0  0  0  0  0  0  0  0  0
   32.3440   28.0040   46.8200 C   0  0  0  0  0  0  0  0  0  0  0  0
   31.8120   27.7640   45.5740 C   0  0  0  0  0  0  0  0  0  0  0  0
   32.5240   28.0890   44.4470 C   0  0  0  0  0  0  0  0  0  0  0  0
   33.7710   28.6560   44.6410 C   0  0  0  0  0  0  0  0  0  0  0  0
   34.2580   28.8750   45.9030 C   0  0  0  0  0  0  0  0  0  0  0  0
   33.5760   28.5630   47.0410 C   0  0  0  0  0  0  0  0  0  0  0  0
   39.1460   32.2970   47.4920 C   0  0  0  0  0  0  0  0  0  0  0  0
   38.1270   31.4740   47.0590 C   0  0  0  0  0  0  0  0  0  0  0  0
   37.8660   31.4850   45.7050 C   0  0  0  0  0  0  0  0  0  0  0  0
   38.5940   32.2820   44.8470 C   0  0  0  0  0  0  0  0  0  0  0  0
   38.4950   32.4330   43.5210 N   0  0  0  0  0  0  0  0  0  0  0  0
   39.3790   33.2910   43.0860 N   0  0  0  0  0  0  0  0  0  0  0  0
   40.0930   33.7310   44.1560 C   0  0  0  0  0  0  0  0  0  0  0  0
   39.6110   33.1000   45.2950 C   0  0  0  0  0  0  0  0  0  0  0  0
   39.8860   33.1020   46.6460 C   0  0  0  0  0  0  0  0  0  0  0  0
   37.5300   29.2420   51.4530 N   0  0  0  0  0  0  0  0  0  0  0  0
   38.9010   30.7797   49.5981 H   0  0  0  0  0  0  0  0  0  0  0  0
   31.5284   27.6218   49.9856 H   0  0  0  0  0  0  0  0  0  0  0  0
   30.8140   27.3107   45.4812 H   0  0  0  0  0  0  0  0  0  0  0  0
   32.1231   27.9077   43.4388 H   0  0  0  0  0  0  0  0  0  0  0  0
   34.3807   28.9352   43.7691 H   0  0  0  0  0  0  0  0  0  0  0  0
   35.2554   29.3280   46.0032 H   0  0  0  0  0  0  0  0  0  0  0  0
   39.3820   32.3136   48.5663 H   0  0  0  0  0  0  0  0  0  0  0  0
   37.0644   30.8479   45.3030 H   0  0  0  0  0  0  0  0  0  0  0  0
   37.8148   31.9402   42.9249 H   0  0  0  0  0  0  0  0  0  0  0  0
   40.9136   34.4629   44.1247 H   0  0  0  0  0  0  0  0  0  0  0  0
   40.6878   33.7390   47.0476 H   0  0  0  0  0  0  0  0  0  0  0  0
   36.9159   28.6578   52.0383 H   0  0  0  0  0  0  0  0  0  0  0  0
   38.4344   29.5691   51.8219 H   0  0  0  0  0  0  0  0  0  0  0  0
  1 26  1  0
  2  1  2  0
  3  2  1  0
  4  3  2  0
  4  5  1  0
  5  6  2  0
  6  1  1  0
  7  5  1  0
  7  8  2  0
  9  8  1  0
 10  9  2  0
 11 16  2  0
 11 10  1  0
 12 11  1  0
 13 14  1  0
 13 12  2  0
 14 15  2  0
 15 16  1  0
 16  7  1  0
 18 17  2  0
 18  3  1  0
 19 18  1  0
 20 24  1  0
 20 19  2  0
 21 20  1  0
 22 21  1  0
 22 23  2  0
 23 24  1  0
 24 25  2  0
 25 17  1  0
  2 27  1  0
  9 28  1  0
 12 29  1  0
 13 30  1  0
 14 31  1  0
 15 32  1  0
 17 33  1  0
 19 34  1  0
 21 35  1  0
 23 36  1  0
 25 37  1  0
 26 38  1  0
 26 39  1  0
M  ISO  8  27  14  28  14  29  14  30  14  31  14  32  14  33  14  34  14
M  ISO  3  35   9  36  14  37  14
M  END
>  <minimizedAffinity>  (1) 
-6.84247208

>  <minimizedRMSD>  (1) 
1.87778282

$$$$
