
     RDKit          3D

 33 36  0  0  0  0  0  0  0  0999 V2000
   37.4980   30.0890   50.9960 C   0  0  0  0  0  0  0  0  0  0  0  0
   38.3350   31.0810   50.4360 C   0  0  0  0  0  0  0  0  0  0  0  0
   37.9700   31.5210   49.1680 C   0  0  0  0  0  0  0  0  0  0  0  0
   36.9010   30.9910   48.6050 N   0  0  0  0  0  0  0  0  0  0  0  0
   36.1010   30.0680   49.0950 C   0  0  0  0  0  0  0  0  0  0  0  0
   36.4720   29.6700   50.2980 N   0  0  0  0  0  0  0  0  0  0  0  0
   34.9040   29.4050   48.5940 C   0  0  0  0  0  0  0  0  0  0  0  0
   34.0420   28.7320   49.3960 N   0  0  0  0  0  0  0  0  0  0  0  0
   32.9480   28.1330   48.9210 C   0  0  0  0  0  0  0  0  0  0  0  0
   32.5930   28.1330   47.6320 N   0  0  0  0  0  0  0  0  0  0  0  0
   33.4040   28.7820   46.7790 C   0  0  0  0  0  0  0  0  0  0  0  0
   33.0460   28.7870   45.4560 C   0  0  0  0  0  0  0  0  0  0  0  0
   33.8360   29.4360   44.5320 C   0  0  0  0  0  0  0  0  0  0  0  0
   34.9780   30.0650   45.0110 C   0  0  0  0  0  0  0  0  0  0  0  0
   35.2870   30.0270   46.3470 C   0  0  0  0  0  0  0  0  0  0  0  0
   34.5240   29.3920   47.2830 C   0  0  0  0  0  0  0  0  0  0  0  0
   38.7550   32.5420   48.4880 C   0  0  0  0  0  0  0  0  0  0  0  0
   39.1530   33.7410   49.0400 C   0  0  0  0  0  0  0  0  0  0  0  0
   39.8770   34.4090   48.0560 C   0  0  0  0  0  0  0  0  0  0  0  0
   39.8720   33.5660   46.9590 C   0  0  0  0  0  0  0  0  0  0  0  0
   39.2020   32.4740   47.2460 O   0  0  0  0  0  0  0  0  0  0  0  0
   37.7570   29.5410   52.3090 N   0  0  0  0  0  0  0  0  0  0  0  0
   39.2136   31.4773   50.9660 H   0  0  0  0  0  0  0  0  0  0  0  0
   32.2976   27.6063   49.6348 H   0  0  0  0  0  0  0  0  0  0  0  0
   32.1288   28.2734   45.1320 H   0  0  0  0  0  0  0  0  0  0  0  0
   33.5741   29.4550   43.4638 H   0  0  0  0  0  0  0  0  0  0  0  0
   35.6403   30.5982   44.3131 H   0  0  0  0  0  0  0  0  0  0  0  0
   36.2018   30.5374   46.6827 H   0  0  0  0  0  0  0  0  0  0  0  0
   38.9403   34.0995   50.0580 H   0  0  0  0  0  0  0  0  0  0  0  0
   40.3524   35.3979   48.1343 H   0  0  0  0  0  0  0  0  0  0  0  0
   40.3554   33.7782   45.9940 H   0  0  0  0  0  0  0  0  0  0  0  0
   37.1339   28.8188   52.6977 H   0  0  0  0  0  0  0  0  0  0  0  0
   38.5645   29.8729   52.8555 H   0  0  0  0  0  0  0  0  0  0  0  0
  1 22  1  0
  2  1  2  0
  3  2  1  0
  4  5  1  0
  4  3  2  0
  5  6  2  0
  6  1  1  0
  7  5  1  0
  7  8  2  0
  9  8  1  0
 10  9  2  0
 11 16  2  0
 11 10  1  0
 12 11  1  0
 13 14  1  0
 13 12  2  0
 14 15  2  0
 15 16  1  0
 16  7  1  0
 17 18  2  0
 17  3  1  0
 19 18  1  0
 20 21  1  0
 20 19  2  0
 21 17  1  0
  2 23  1  0
  9 24  1  0
 12 25  1  0
 13 26  1  0
 14 27  1  0
 15 28  1  0
 18 29  1  0
 19 30  1  0
 20 31  1  0
 22 32  1  0
 22 33  1  0
M  ISO  8  23  14  24  14  25  14  26  14  27  14  28  14  29  14  30  14
M  ISO  1  31  14
M  END
>  <minimizedAffinity>  (1) 
-6.35509014

>  <minimizedRMSD>  (1) 
0.409153104

$$$$
