
     RDKit          3D

 36 39  0  0  0  0  0  0  0  0999 V2000
   37.2490   29.7410   50.2350 C   0  0  0  0  0  0  0  0  0  0  0  0
   38.1740   30.4180   49.4150 C   0  0  0  0  0  0  0  0  0  0  0  0
   37.7640   30.6350   48.1250 C   0  0  0  0  0  0  0  0  0  0  0  0
   36.5700   30.2010   47.7790 N   0  0  0  0  0  0  0  0  0  0  0  0
   35.6790   29.5710   48.4920 C   0  0  0  0  0  0  0  0  0  0  0  0
   36.0810   29.3650   49.7380 N   0  0  0  0  0  0  0  0  0  0  0  0
   34.3460   29.0440   48.2410 C   0  0  0  0  0  0  0  0  0  0  0  0
   33.6650   28.2910   49.1460 N   0  0  0  0  0  0  0  0  0  0  0  0
   32.4410   27.8240   48.9060 C   0  0  0  0  0  0  0  0  0  0  0  0
   31.7660   28.0440   47.7680 N   0  0  0  0  0  0  0  0  0  0  0  0
   32.3760   28.7770   46.8340 C   0  0  0  0  0  0  0  0  0  0  0  0
   31.6990   29.0150   45.6590 C   0  0  0  0  0  0  0  0  0  0  0  0
   32.2850   29.7720   44.6520 C   0  0  0  0  0  0  0  0  0  0  0  0
   33.5520   30.2560   44.8930 C   0  0  0  0  0  0  0  0  0  0  0  0
   34.1930   29.9960   46.0780 C   0  0  0  0  0  0  0  0  0  0  0  0
   33.6480   29.2610   47.0870 C   0  0  0  0  0  0  0  0  0  0  0  0
   38.5200   33.5590   48.8620 Cl  0  0  0  0  0  0  0  0  0  0  0  0
   39.1000   32.6600   47.4810 C   0  0  0  0  0  0  0  0  0  0  0  0
   38.6740   31.3640   47.2890 C   0  0  0  0  0  0  0  0  0  0  0  0
   39.2500   30.7910   46.1740 C   0  0  0  0  0  0  0  0  0  0  0  0
   40.1410   31.4370   45.3550 C   0  0  0  0  0  0  0  0  0  0  0  0
   40.5310   32.7300   45.5930 C   0  0  0  0  0  0  0  0  0  0  0  0
   39.9910   33.3510   46.6890 C   0  0  0  0  0  0  0  0  0  0  0  0
   37.5270   29.4600   51.6430 N   0  0  0  0  0  0  0  0  0  0  0  0
   39.1559   30.7490   49.7842 H   0  0  0  0  0  0  0  0  0  0  0  0
   31.9546   27.2220   49.6877 H   0  0  0  0  0  0  0  0  0  0  0  0
   30.6888   28.6036   45.5167 H   0  0  0  0  0  0  0  0  0  0  0  0
   31.7615   29.9754   43.7062 H   0  0  0  0  0  0  0  0  0  0  0  0
   34.0571   30.8595   44.1245 H   0  0  0  0  0  0  0  0  0  0  0  0
   35.2043   30.4043   46.2213 H   0  0  0  0  0  0  0  0  0  0  0  0
   38.9786   29.7541   45.9269 H   0  0  0  0  0  0  0  0  0  0  0  0
   40.5531   30.9043   44.4853 H   0  0  0  0  0  0  0  0  0  0  0  0
   41.2451   33.2455   44.9340 H   0  0  0  0  0  0  0  0  0  0  0  0
   40.2654   34.3878   46.9333 H   0  0  0  0  0  0  0  0  0  0  0  0
   36.8303   28.9631   52.2163 H   0  0  0  0  0  0  0  0  0  0  0  0
   38.4194   29.7590   52.0614 H   0  0  0  0  0  0  0  0  0  0  0  0
  1 24  1  0
  2  1  2  0
  3  2  1  0
  4  3  2  0
  4  5  1  0
  5  6  2  0
  6  1  1  0
  7  5  1  0
  7  8  2  0
  9  8  1  0
 10  9  2  0
 11 16  2  0
 11 10  1  0
 12 11  1  0
 13 14  1  0
 13 12  2  0
 14 15  2  0
 15 16  1  0
 16  7  1  0
 18 17  1  0
 19 18  2  0
 19  3  1  0
 20 19  1  0
 21 22  1  0
 21 20  2  0
 22 23  2  0
 23 18  1  0
  2 25  1  0
  9 26  1  0
 12 27  1  0
 13 28  1  0
 14 29  1  0
 15 30  1  0
 20 31  1  0
 21 32  1  0
 22 33  1  0
 23 34  1  0
 24 35  1  0
 24 36  1  0
M  ISO  8  25  14  26  14  27  14  28  14  29  14  30  14  31  14  32  14
M  ISO  2  33  14  34  14
M  END
>  <minimizedAffinity>  (1) 
-7.18290377

>  <minimizedRMSD>  (1) 
1.56818771

$$$$
