
     RDKit          3D

 39 42  0  0  0  0  0  0  0  0999 V2000
   36.4550   29.5170   49.0530 C   0  0  0  0  0  0  0  0  0  0  0  0
   37.1730   30.2210   48.0700 C   0  0  0  0  0  0  0  0  0  0  0  0
   36.5170   30.4150   46.8830 C   0  0  0  0  0  0  0  0  0  0  0  0
   35.3020   29.9250   46.7990 N   0  0  0  0  0  0  0  0  0  0  0  0
   34.5880   29.2760   47.6530 C   0  0  0  0  0  0  0  0  0  0  0  0
   35.2300   29.0970   48.7890 N   0  0  0  0  0  0  0  0  0  0  0  0
   33.2480   28.6870   47.6740 C   0  0  0  0  0  0  0  0  0  0  0  0
   32.9240   27.6220   48.4650 N   0  0  0  0  0  0  0  0  0  0  0  0
   31.7100   27.0910   48.4660 C   0  0  0  0  0  0  0  0  0  0  0  0
   30.6900   27.5340   47.7040 N   0  0  0  0  0  0  0  0  0  0  0  0
   30.9420   28.5830   46.9000 C   0  0  0  0  0  0  0  0  0  0  0  0
   29.9210   29.0560   46.1220 C   0  0  0  0  0  0  0  0  0  0  0  0
   30.1290   30.1410   45.2830 C   0  0  0  0  0  0  0  0  0  0  0  0
   31.3940   30.7020   45.2800 C   0  0  0  0  0  0  0  0  0  0  0  0
   32.3900   30.1850   46.0850 C   0  0  0  0  0  0  0  0  0  0  0  0
   32.2170   29.1290   46.9110 C   0  0  0  0  0  0  0  0  0  0  0  0
   39.0260   32.0230   47.7200 Cl  0  0  0  0  0  0  0  0  0  0  0  0
   38.3530   31.9180   46.1010 C   0  0  0  0  0  0  0  0  0  0  0  0
   37.2150   31.1540   45.8720 C   0  0  0  0  0  0  0  0  0  0  0  0
   36.8220   31.1770   44.5680 C   0  0  0  0  0  0  0  0  0  0  0  0
   37.4840   31.8830   43.5890 C   0  0  0  0  0  0  0  0  0  0  0  0
   38.5970   32.6200   43.8550 C   0  0  0  0  0  0  0  0  0  0  0  0
   39.0410   32.6370   45.1420 C   0  0  0  0  0  0  0  0  0  0  0  0
   40.2530   33.4350   45.4580 C   0  0  0  0  0  0  0  0  0  0  0  0
   40.4840   34.3910   44.5240 F   0  0  0  0  0  0  0  0  0  0  0  0
   41.3630   32.5920   45.4680 F   0  0  0  0  0  0  0  0  0  0  0  0
   40.1660   33.9850   46.7390 F   0  0  0  0  0  0  0  0  0  0  0  0
   37.0360   29.2290   50.3680 N   0  0  0  0  0  0  0  0  0  0  0  0
   38.1942   30.5916   48.2427 H   0  0  0  0  0  0  0  0  0  0  0  0
   31.5227   26.2347   49.1305 H   0  0  0  0  0  0  0  0  0  0  0  0
   28.9326   28.5748   46.1618 H   0  0  0  0  0  0  0  0  0  0  0  0
   29.3235   30.5381   44.6478 H   0  0  0  0  0  0  0  0  0  0  0  0
   31.6076   31.5651   44.6324 H   0  0  0  0  0  0  0  0  0  0  0  0
   33.3816   30.6601   46.0521 H   0  0  0  0  0  0  0  0  0  0  0  0
   35.9292   30.6015   44.2823 H   0  0  0  0  0  0  0  0  0  0  0  0
   37.1011   31.8505   42.5583 H   0  0  0  0  0  0  0  0  0  0  0  0
   39.1164   33.1789   43.0627 H   0  0  0  0  0  0  0  0  0  0  0  0
   36.4889   28.7114   51.0706 H   0  0  0  0  0  0  0  0  0  0  0  0
   37.9913   29.5443   50.5892 H   0  0  0  0  0  0  0  0  0  0  0  0
  1 28  1  0
  2  1  2  0
  3  2  1  0
  4  3  2  0
  4  5  1  0
  5  7  1  0
  5  6  2  0
  6  1  1  0
  7  8  2  0
  8  9  1  0
 10  9  2  0
 11 16  2  0
 11 10  1  0
 12 11  1  0
 13 12  2  0
 14 13  1  0
 14 15  2  0
 15 16  1  0
 16  7  1  0
 18 17  1  0
 19 18  2  0
 19  3  1  0
 20 19  1  0
 21 22  1  0
 21 20  2  0
 22 23  2  0
 23 24  1  0
 23 18  1  0
 24 26  1  0
 24 27  1  0
 25 24  1  0
  2 29  1  0
  9 30  1  0
 12 31  1  0
 13 32  1  0
 14 33  1  0
 15 34  1  0
 20 35  1  0
 21 36  1  0
 22 37  1  0
 28 38  1  0
 28 39  1  0
M  ISO  8  29  14  30  14  31  14  32  14  33  14  34  14  35  14  36  14
M  ISO  1  37  14
M  END
>  <minimizedAffinity>  (1) 
-6.97153139

>  <minimizedRMSD>  (1) 
1.9260571

$$$$
