
     RDKit          3D

 47 51  0  0  1  0  0  0  0  0999 V2000
   34.7410   29.1720   49.7250 C   0  0  0  0  0  0  0  0  0  0  0  0
   35.6740   29.6930   48.8040 C   0  0  0  0  0  0  0  0  0  0  0  0
   35.2930   29.6380   47.4830 C   0  0  0  0  0  0  0  0  0  0  0  0
   34.1230   29.1150   47.2370 N   0  0  0  0  0  0  0  0  0  0  0  0
   33.2260   28.6230   48.0220 C   0  0  0  0  0  0  0  0  0  0  0  0
   33.5980   28.6790   49.2830 N   0  0  0  0  0  0  0  0  0  0  0  0
   31.9120   28.0150   47.8550 C   0  0  0  0  0  0  0  0  0  0  0  0
   31.5120   26.9190   48.5740 N   0  0  0  0  0  0  0  0  0  0  0  0
   30.3200   26.3560   48.4010 C   0  0  0  0  0  0  0  0  0  0  0  0
   29.4020   26.8010   47.5120 N   0  0  0  0  0  0  0  0  0  0  0  0
   29.7330   27.8680   46.7800 C   0  0  0  0  0  0  0  0  0  0  0  0
   28.8080   28.3360   45.8890 C   0  0  0  0  0  0  0  0  0  0  0  0
   29.0930   29.4550   45.1130 C   0  0  0  0  0  0  0  0  0  0  0  0
   30.3260   30.0410   45.2940 C   0  0  0  0  0  0  0  0  0  0  0  0
   31.2250   29.5320   46.2030 C   0  0  0  0  0  0  0  0  0  0  0  0
   30.9760   28.4470   46.9700 C   0  0  0  0  0  0  0  0  0  0  0  0
   38.0770   30.5410   48.4940 Cl  0  0  0  0  0  0  0  0  0  0  0  0
   37.4930   30.6250   46.8370 C   0  0  0  0  0  0  0  0  0  0  0  0
   36.2120   30.1830   46.5300 C   0  0  0  0  0  0  0  0  0  0  0  0
   35.9150   30.3220   45.2070 C   0  0  0  0  0  0  0  0  0  0  0  0
   36.7850   30.8400   44.2780 C   0  0  0  0  0  0  0  0  0  0  0  0
   38.0430   31.2660   44.6230 C   0  0  0  0  0  0  0  0  0  0  0  0
   38.4010   31.1540   45.9320 C   0  0  0  0  0  0  0  0  0  0  0  0
   39.5140   33.5170   48.0150 O   0  0  0  0  0  0  0  0  0  0  0  0
   39.6870   32.9790   46.8990 C   0  0  0  0  0  0  0  0  0  0  0  0
   39.7600   31.6090   46.3330 C   0  0  2  0  0  0  0  0  0  0  0  0
   40.5590   31.8250   45.0650 C   0  0  0  0  0  0  0  0  0  0  0  0
   40.1930   33.2270   44.5940 C   0  0  0  0  0  0  0  0  0  0  0  0
   39.8720   33.9290   45.8290 N   0  0  0  0  0  0  0  0  0  0  0  0
   35.0190   29.1650   51.1650 N   0  0  0  0  0  0  0  0  0  0  0  0
   36.6397   30.1143   49.1202 H   0  0  0  0  0  0  0  0  0  0  0  0
   30.0658   25.4794   49.0149 H   0  0  0  0  0  0  0  0  0  0  0  0
   27.8380   27.8277   45.7855 H   0  0  0  0  0  0  0  0  0  0  0  0
   28.3672   29.8531   44.3886 H   0  0  0  0  0  0  0  0  0  0  0  0
   30.5962   30.9288   44.7034 H   0  0  0  0  0  0  0  0  0  0  0  0
   32.1975   30.0345   46.3112 H   0  0  0  0  0  0  0  0  0  0  0  0
   34.9208   30.0008   44.8629 H   0  0  0  0  0  0  0  0  0  0  0  0
   36.4641   30.9153   43.2286 H   0  0  0  0  0  0  0  0  0  0  0  0
   38.7333   31.6806   43.8736 H   0  0  0  0  0  0  0  0  0  0  0  0
   40.1805   30.8738   47.0348 H   0  0  0  0  0  0  0  0  0  0  0  0
   41.6371   31.7573   45.2726 H   0  0  0  0  0  0  0  0  0  0  0  0
   40.3335   31.0642   44.3032 H   0  0  0  0  0  0  0  0  0  0  0  0
   41.0414   33.7030   44.0805 H   0  0  0  0  0  0  0  0  0  0  0  0
   39.3642   33.2327   43.8708 H   0  0  0  0  0  0  0  0  0  0  0  0
   39.7894   34.9512   45.9243 H   0  0  0  0  0  0  0  0  0  0  0  0
   34.3250   28.7802   51.8216 H   0  0  0  0  0  0  0  0  0  0  0  0
   35.9082   29.5449   51.5197 H   0  0  0  0  0  0  0  0  0  0  0  0
  1 30  1  0
  2  1  2  0
  3  2  1  0
  4  3  2  0
  4  5  1  0
  5  6  2  0
  6  1  1  0
  7  5  1  0
  7  8  2  0
  9  8  1  0
 10  9  2  0
 11 16  2  0
 11 10  1  0
 12 11  1  0
 13 14  1  0
 13 12  2  0
 14 15  2  0
 15 16  1  0
 16  7  1  0
 18 17  1  0
 19 18  2  0
 19  3  1  0
 20 19  1  0
 21 22  1  0
 21 20  2  0
 22 23  2  0
 23 18  1  0
 25 24  2  0
 26 23  1  0
 26 25  1  0
 27 26  1  0
 28 27  1  0
 28 29  1  0
 29 25  1  0
  2 31  1  0
  9 32  1  0
 12 33  1  0
 13 34  1  0
 14 35  1  0
 15 36  1  0
 20 37  1  0
 21 38  1  0
 22 39  1  0
 26 40  1  1
 27 41  1  0
 27 42  1  0
 28 43  1  0
 28 44  1  0
 29 45  1  0
 30 46  1  0
 30 47  1  0
M  ISO  8  31  14  32  14  33  14  34  14  35  14  36  14  37  14  38  14
M  ISO  7  39  14  40  13  41  13  42  13  43  13  44  13  45  10
M  END
>  <minimizedAffinity>  (1) 
-6.81181383

>  <minimizedRMSD>  (1) 
3.01898694

$$$$
