
     RDKit          3D

 26 27  0  0  0  0  0  0  0  0999 V2000
   38.2710   31.8150   49.0400 Br  0  0  0  0  0  0  0  0  0  0  0  0
   36.9940   31.0260   47.8570 C   0  0  0  0  0  0  0  0  0  0  0  0
   37.2370   30.9470   46.4960 C   0  0  0  0  0  0  0  0  0  0  0  0
   36.2850   30.3620   45.7060 C   0  0  0  0  0  0  0  0  0  0  0  0
   35.0950   29.8470   46.1870 C   0  0  0  0  0  0  0  0  0  0  0  0
   34.8780   29.9380   47.5500 C   0  0  0  0  0  0  0  0  0  0  0  0
   35.8400   30.5330   48.3740 C   0  0  0  0  0  0  0  0  0  0  0  0
   39.5530   33.1930   44.7920 C   0  0  0  0  0  0  0  0  0  0  0  0
   40.7940   32.5260   44.8400 C   0  0  0  0  0  0  0  0  0  0  0  0
   40.8100   31.2880   45.4740 C   0  0  0  0  0  0  0  0  0  0  0  0
   39.6520   30.7880   46.0090 N   0  0  0  0  0  0  0  0  0  0  0  0
   38.4810   31.4790   45.9320 C   0  0  0  0  0  0  0  0  0  0  0  0
   38.4350   32.6860   45.3200 N   0  0  0  0  0  0  0  0  0  0  0  0
   35.4860   30.5730   49.8330 C   0  0  0  0  0  0  0  0  0  0  0  0
   34.6400   29.3870   50.2430 C   0  0  0  0  0  0  0  0  0  0  0  0
   36.4776   30.2976   44.6249 H   0  0  0  0  0  0  0  0  0  0  0  0
   34.3549   29.3861   45.5163 H   0  0  0  0  0  0  0  0  0  0  0  0
   33.9489   29.5425   47.9864 H   0  0  0  0  0  0  0  0  0  0  0  0
   39.5027   34.1745   44.2979 H   0  0  0  0  0  0  0  0  0  0  0  0
   41.7026   32.9619   44.3990 H   0  0  0  0  0  0  0  0  0  0  0  0
   41.7459   30.7144   45.5453 H   0  0  0  0  0  0  0  0  0  0  0  0
   36.4138   30.5689   50.4239 H   0  0  0  0  0  0  0  0  0  0  0  0
   34.9020   31.4870   50.0164 H   0  0  0  0  0  0  0  0  0  0  0  0
   34.5982   29.3284   51.3406 H   0  0  0  0  0  0  0  0  0  0  0  0
   33.6223   29.5069   49.8432 H   0  0  0  0  0  0  0  0  0  0  0  0
   35.0846   28.4637   49.8432 H   0  0  0  0  0  0  0  0  0  0  0  0
  2  7  2  0
  2  1  1  0
  3  2  1  0
  4  5  1  0
  4  3  2  0
  5  6  2  0
  6  7  1  0
  7 14  1  0
  8  9  2  0
  8 13  1  0
  9 10  1  0
 10 11  2  0
 12 11  1  0
 12  3  1  0
 13 12  2  0
 14 15  1  0
  4 16  1  0
  5 17  1  0
  6 18  1  0
  8 19  1  0
  9 20  1  0
 10 21  1  0
 14 22  1  0
 14 23  1  0
 15 24  1  0
 15 25  1  0
 15 26  1  0
M  ISO  8  16  14  17  14  18  14  19  14  20  14  21  14  22   8  23   8
M  ISO  3  24   8  25   8  26   8
M  END
>  <minimizedAffinity>  (1) 
-5.36696148

>  <minimizedRMSD>  (1) 
3.12443995

$$$$
