
     RDKit          3D

 46 50  0  0  0  0  0  0  0  0999 V2000
   34.2140   28.7170   48.6070 C   0  0  0  0  0  0  0  0  0  0  0  0
   34.0820   29.2610   47.2830 C   0  0  0  0  0  0  0  0  0  0  0  0
   32.8300   29.4080   46.7340 C   0  0  0  0  0  0  0  0  0  0  0  0
   32.6920   29.9450   45.4300 C   0  0  0  0  0  0  0  0  0  0  0  0
   33.8610   30.2880   44.7890 N   0  0  0  0  0  0  0  0  0  0  0  0
   35.0640   30.1190   45.3830 C   0  0  0  0  0  0  0  0  0  0  0  0
   35.1840   29.6090   46.6220 N   0  0  0  0  0  0  0  0  0  0  0  0
   36.2080   31.3870   43.6000 C   0  0  0  0  0  0  0  0  0  0  0  0
   36.2720   30.5020   44.6570 C   0  0  0  0  0  0  0  0  0  0  0  0
   37.5180   30.0350   44.9510 C   0  0  0  0  0  0  0  0  0  0  0  0
   38.6410   30.4150   44.2450 C   0  0  0  0  0  0  0  0  0  0  0  0
   39.9590   30.1560   44.2720 N   0  0  0  0  0  0  0  0  0  0  0  0
   40.6130   30.8330   43.3100 C   0  0  0  0  0  0  0  0  0  0  0  0
   39.7150   31.5630   42.6230 N   0  0  0  0  0  0  0  0  0  0  0  0
   38.5030   31.3140   43.1880 C   0  0  0  0  0  0  0  0  0  0  0  0
   37.2630   31.8310   42.8320 C   0  0  0  0  0  0  0  0  0  0  0  0
   34.3890   29.6490   49.7450 C   0  0  0  0  0  0  0  0  0  0  0  0
   35.7370   30.2400   49.8240 C   0  0  0  0  0  0  0  0  0  0  0  0
   36.6310   29.9010   50.8470 C   0  0  0  0  0  0  0  0  0  0  0  0
   37.7880   30.6120   50.6440 C   0  0  0  0  0  0  0  0  0  0  0  0
   37.5920   31.3450   49.5440 N   0  0  0  0  0  0  0  0  0  0  0  0
   36.3770   31.1080   49.0800 N   0  0  0  0  0  0  0  0  0  0  0  0
   38.4360   32.2660   48.8610 C   0  0  0  0  0  0  0  0  0  0  0  0
   38.8100   33.3890   49.5740 C   0  0  0  0  0  0  0  0  0  0  0  0
   39.6310   34.3860   49.0530 C   0  0  0  0  0  0  0  0  0  0  0  0
   40.0760   34.2050   47.7480 C   0  0  0  0  0  0  0  0  0  0  0  0
   39.7080   33.0890   47.0310 C   0  0  0  0  0  0  0  0  0  0  0  0
   38.8900   32.1040   47.5650 C   0  0  0  0  0  0  0  0  0  0  0  0
   35.0887   28.0501   48.5973 H   0  0  0  0  0  0  0  0  0  0  0  0
   33.2407   28.2415   48.7985 H   0  0  0  0  0  0  0  0  0  0  0  0
   31.9385   29.1097   47.3052 H   0  0  0  0  0  0  0  0  0  0  0  0
   31.7079   30.0800   44.9574 H   0  0  0  0  0  0  0  0  0  0  0  0
   35.2124   31.7784   43.3440 H   0  0  0  0  0  0  0  0  0  0  0  0
   37.6332   29.3266   45.7846 H   0  0  0  0  0  0  0  0  0  0  0  0
   40.4117   29.5199   44.9438 H   0  0  0  0  0  0  0  0  0  0  0  0
   41.6955   30.7960   43.1182 H   0  0  0  0  0  0  0  0  0  0  0  0
   37.1334   32.5401   42.0011 H   0  0  0  0  0  0  0  0  0  0  0  0
   33.6577   30.4642   49.6420 H   0  0  0  0  0  0  0  0  0  0  0  0
   34.2392   29.0651   50.6651 H   0  0  0  0  0  0  0  0  0  0  0  0
   36.4406   29.1922   51.6663 H   0  0  0  0  0  0  0  0  0  0  0  0
   38.6962   30.5838   51.2640 H   0  0  0  0  0  0  0  0  0  0  0  0
   38.4410   33.5010   50.6042 H   0  0  0  0  0  0  0  0  0  0  0  0
   39.9128   35.2706   49.6430 H   0  0  0  0  0  0  0  0  0  0  0  0
   40.7278   34.9602   47.2846 H   0  0  0  0  0  0  0  0  0  0  0  0
   40.0748   32.9744   46.0003 H   0  0  0  0  0  0  0  0  0  0  0  0
   38.6105   31.2192   46.9742 H   0  0  0  0  0  0  0  0  0  0  0  0
  1 17  1  0
  2  1  1  0
  3  2  2  0
  4  3  1  0
  5  6  1  0
  5  4  2  0
  6  7  2  0
  7  2  1  0
  8  9  2  0
  9 10  1  0
  9  6  1  0
 11 12  1  0
 11 10  2  0
 13 12  1  0
 14 15  1  0
 14 13  2  0
 15 11  1  0
 16 15  2  0
 16  8  1  0
 17 18  1  0
 18 19  1  0
 20 19  2  0
 21 20  1  0
 22 21  1  0
 22 18  2  0
 23 21  1  0
 23 24  2  0
 25 24  1  0
 26 25  2  0
 27 28  2  0
 27 26  1  0
 28 23  1  0
  1 29  1  0
  1 30  1  0
  3 31  1  0
  4 32  1  0
  8 33  1  0
 10 34  1  0
 12 35  1  0
 13 36  1  0
 16 37  1  0
 17 38  1  0
 17 39  1  0
 19 40  1  0
 20 41  1  0
 24 42  1  0
 25 43  1  0
 26 44  1  0
 27 45  1  0
 28 46  1  0
M  ISO  8  29   8  30   8  31  14  32  14  33  14  34  14  35   9  36  14
M  ISO  8  37  14  38   8  39   8  40  14  41  14  42  14  43  14  44  14
M  ISO  2  45  14  46  14
M  END
>  <minimizedAffinity>  (1) 
-6.70512295

>  <minimizedRMSD>  (1) 
1.66084385

$$$$
