
     RDKit          3D

 46 50  0  0  0  0  0  0  0  0999 V2000
   34.2710   28.5850   47.5540 C   0  0  0  0  0  0  0  0  0  0  0  0
   34.0030   29.3680   46.3920 C   0  0  0  0  0  0  0  0  0  0  0  0
   32.7110   29.7350   46.0760 C   0  0  0  0  0  0  0  0  0  0  0  0
   32.4240   30.5100   44.9300 C   0  0  0  0  0  0  0  0  0  0  0  0
   33.5220   30.8630   44.1680 N   0  0  0  0  0  0  0  0  0  0  0  0
   34.7680   30.4780   44.5230 C   0  0  0  0  0  0  0  0  0  0  0  0
   35.0170   29.7360   45.6240 N   0  0  0  0  0  0  0  0  0  0  0  0
   35.7910   30.9190   43.6410 N   0  0  0  0  0  0  0  0  0  0  0  0
   35.6630   31.6720   42.5150 C   0  0  0  0  0  0  0  0  0  0  0  0
   36.8560   31.8920   41.9360 N   0  0  0  0  0  0  0  0  0  0  0  0
   37.8030   31.2860   42.6720 C   0  0  0  0  0  0  0  0  0  0  0  0
   39.1910   31.1310   42.6270 C   0  0  0  0  0  0  0  0  0  0  0  0
   39.8330   30.4290   43.5720 N   0  0  0  0  0  0  0  0  0  0  0  0
   39.1200   29.8700   44.5720 C   0  0  0  0  0  0  0  0  0  0  0  0
   37.7830   29.9950   44.6500 N   0  0  0  0  0  0  0  0  0  0  0  0
   37.1070   30.7020   43.7060 C   0  0  0  0  0  0  0  0  0  0  0  0
   39.8490   31.7630   41.5280 N   0  0  0  0  0  0  0  0  0  0  0  0
   34.4090   29.2860   48.8570 C   0  0  0  0  0  0  0  0  0  0  0  0
   35.7490   29.8550   49.0760 C   0  0  0  0  0  0  0  0  0  0  0  0
   36.6560   29.3000   49.9890 C   0  0  0  0  0  0  0  0  0  0  0  0
   37.7890   30.0500   49.9570 C   0  0  0  0  0  0  0  0  0  0  0  0
   37.5890   31.0230   49.0650 N   0  0  0  0  0  0  0  0  0  0  0  0
   36.3830   30.8800   48.5670 N   0  0  0  0  0  0  0  0  0  0  0  0
   38.4230   32.0930   48.6210 C   0  0  0  0  0  0  0  0  0  0  0  0
   38.6650   33.0920   49.5420 C   0  0  0  0  0  0  0  0  0  0  0  0
   39.4510   34.2100   49.2880 C   0  0  0  0  0  0  0  0  0  0  0  0
   40.0070   34.2820   48.0080 C   0  0  0  0  0  0  0  0  0  0  0  0
   39.7700   33.2840   47.0720 C   0  0  0  0  0  0  0  0  0  0  0  0
   38.9840   32.1880   47.3610 C   0  0  0  0  0  0  0  0  0  0  0  0
   35.2119   28.0446   47.3732 H   0  0  0  0  0  0  0  0  0  0  0  0
   33.3736   27.9603   47.6745 H   0  0  0  0  0  0  0  0  0  0  0  0
   31.8862   29.4172   46.7307 H   0  0  0  0  0  0  0  0  0  0  0  0
   31.4001   30.8109   44.6633 H   0  0  0  0  0  0  0  0  0  0  0  0
   34.7060   32.0520   42.1281 H   0  0  0  0  0  0  0  0  0  0  0  0
   39.6481   29.2948   45.3467 H   0  0  0  0  0  0  0  0  0  0  0  0
   40.8718   31.6913   41.4298 H   0  0  0  0  0  0  0  0  0  0  0  0
   39.3007   32.2904   40.8337 H   0  0  0  0  0  0  0  0  0  0  0  0
   33.6732   30.1029   48.8931 H   0  0  0  0  0  0  0  0  0  0  0  0
   34.2404   28.5392   49.6469 H   0  0  0  0  0  0  0  0  0  0  0  0
   36.4819   28.4153   50.6190 H   0  0  0  0  0  0  0  0  0  0  0  0
   38.6987   29.8863   50.5533 H   0  0  0  0  0  0  0  0  0  0  0  0
   38.2079   32.9977   50.5381 H   0  0  0  0  0  0  0  0  0  0  0  0
   39.6242   34.9881   50.0460 H   0  0  0  0  0  0  0  0  0  0  0  0
   40.6404   35.1400   47.7385 H   0  0  0  0  0  0  0  0  0  0  0  0
   40.2215   33.3698   46.0726 H   0  0  0  0  0  0  0  0  0  0  0  0
   38.8076   31.4074   46.6063 H   0  0  0  0  0  0  0  0  0  0  0  0
  1 18  1  0
  2  1  1  0
  3  2  2  0
  4  3  1  0
  5  6  1  0
  5  4  2  0
  6  7  2  0
  7  2  1  0
  8 16  1  0
  8  6  1  0
  9  8  1  0
 10  9  2  0
 10 11  1  0
 11 16  2  0
 12 11  1  0
 12 13  2  0
 13 14  1  0
 14 15  2  0
 16 15  1  0
 17 12  1  0
 18 19  1  0
 19 20  1  0
 21 20  2  0
 22 21  1  0
 23 22  1  0
 23 19  2  0
 24 22  1  0
 24 25  2  0
 26 25  1  0
 27 26  2  0
 28 29  2  0
 28 27  1  0
 29 24  1  0
  1 30  1  0
  1 31  1  0
  3 32  1  0
  4 33  1  0
  9 34  1  0
 14 35  1  0
 17 36  1  0
 17 37  1  0
 18 38  1  0
 18 39  1  0
 20 40  1  0
 21 41  1  0
 25 42  1  0
 26 43  1  0
 27 44  1  0
 28 45  1  0
 29 46  1  0
M  ISO  8  30   8  31   8  32  14  33  14  34  14  35  14  38   8  39   8
M  ISO  7  40  14  41  14  42  14  43  14  44  14  45  14  46  14
M  END
>  <minimizedAffinity>  (1) 
-6.66335487

>  <minimizedRMSD>  (1) 
0.953495741

$$$$
