
     RDKit          3D

 43 46  0  0  0  0  0  0  0  0999 V2000
   34.5330   29.4080   50.3660 C   0  0  0  0  0  0  0  0  0  0  0  0
   35.8700   30.0440   50.2850 C   0  0  0  0  0  0  0  0  0  0  0  0
   36.8530   29.8270   51.2570 C   0  0  0  0  0  0  0  0  0  0  0  0
   37.9580   30.5440   50.9020 C   0  0  0  0  0  0  0  0  0  0  0  0
   37.6610   31.1710   49.7640 N   0  0  0  0  0  0  0  0  0  0  0  0
   36.4250   30.8590   49.4220 N   0  0  0  0  0  0  0  0  0  0  0  0
   38.4160   32.0540   48.9300 C   0  0  0  0  0  0  0  0  0  0  0  0
   38.7970   33.2490   49.5200 C   0  0  0  0  0  0  0  0  0  0  0  0
   39.5350   34.2230   48.8590 C   0  0  0  0  0  0  0  0  0  0  0  0
   39.8830   33.9440   47.5450 C   0  0  0  0  0  0  0  0  0  0  0  0
   39.5080   32.7560   46.9480 C   0  0  0  0  0  0  0  0  0  0  0  0
   38.7750   31.8040   47.6290 C   0  0  0  0  0  0  0  0  0  0  0  0
   34.3770   28.2590   49.4550 C   0  0  0  0  0  0  0  0  0  0  0  0
   33.8290   28.4850   48.1460 C   0  0  0  0  0  0  0  0  0  0  0  0
   32.5820   28.0100   47.8360 C   0  0  0  0  0  0  0  0  0  0  0  0
   32.0240   28.2230   46.5490 C   0  0  0  0  0  0  0  0  0  0  0  0
   32.8330   28.9340   45.6590 N   0  0  0  0  0  0  0  0  0  0  0  0
   34.0450   29.3690   46.0310 C   0  0  0  0  0  0  0  0  0  0  0  0
   34.5530   29.1560   47.2560 N   0  0  0  0  0  0  0  0  0  0  0  0
   34.8340   30.1050   45.0480 C   0  0  0  0  0  0  0  0  0  0  0  0
   34.2440   30.5800   43.8750 C   0  0  0  0  0  0  0  0  0  0  0  0
   35.0450   31.2610   43.0010 C   0  0  0  0  0  0  0  0  0  0  0  0
   36.3860   31.4970   43.2180 C   0  0  0  0  0  0  0  0  0  0  0  0
   36.9990   31.0350   44.3780 C   0  0  0  0  0  0  0  0  0  0  0  0
   36.1710   30.3500   45.2470 C   0  0  0  0  0  0  0  0  0  0  0  0
   34.3740   29.0599   51.3973 H   0  0  0  0  0  0  0  0  0  0  0  0
   33.7937   30.1648   50.0651 H   0  0  0  0  0  0  0  0  0  0  0  0
   36.7526   29.1912   52.1490 H   0  0  0  0  0  0  0  0  0  0  0  0
   38.9107   30.5949   51.4496 H   0  0  0  0  0  0  0  0  0  0  0  0
   38.5005   33.4353   50.5628 H   0  0  0  0  0  0  0  0  0  0  0  0
   39.8272   35.1630   49.3499 H   0  0  0  0  0  0  0  0  0  0  0  0
   40.4657   34.6792   46.9706 H   0  0  0  0  0  0  0  0  0  0  0  0
   39.8003   32.5637   45.9051 H   0  0  0  0  0  0  0  0  0  0  0  0
   38.4845   30.8634   47.1382 H   0  0  0  0  0  0  0  0  0  0  0  0
   35.3752   27.8181   49.3163 H   0  0  0  0  0  0  0  0  0  0  0  0
   33.6283   27.6244   49.9517 H   0  0  0  0  0  0  0  0  0  0  0  0
   32.0068   27.4572   48.5934 H   0  0  0  0  0  0  0  0  0  0  0  0
   31.0254   27.8545   46.2716 H   0  0  0  0  0  0  0  0  0  0  0  0
   33.1777   30.4130   43.6627 H   0  0  0  0  0  0  0  0  0  0  0  0
   34.5944   31.6420   42.0727 H   0  0  0  0  0  0  0  0  0  0  0  0
   36.9729   32.0523   42.4715 H   0  0  0  0  0  0  0  0  0  0  0  0
   38.0656   31.2027   44.5884 H   0  0  0  0  0  0  0  0  0  0  0  0
   36.6202   29.9690   46.1760 H   0  0  0  0  0  0  0  0  0  0  0  0
  2  1  1  0
  2  3  1  0
  4  3  2  0
  5  4  1  0
  6  5  1  0
  6  2  2  0
  7  8  2  0
  7  5  1  0
  9  8  1  0
 10  9  2  0
 11 10  1  0
 11 12  2  0
 12  7  1  0
 13  1  1  0
 14 13  1  0
 15 14  2  0
 16 15  1  0
 17 18  1  0
 17 16  2  0
 18 19  2  0
 19 14  1  0
 20 25  1  0
 20 18  1  0
 21 20  2  0
 22 23  2  0
 22 21  1  0
 23 24  1  0
 24 25  2  0
  1 26  1  0
  1 27  1  0
  3 28  1  0
  4 29  1  0
  8 30  1  0
  9 31  1  0
 10 32  1  0
 11 33  1  0
 12 34  1  0
 13 35  1  0
 13 36  1  0
 15 37  1  0
 16 38  1  0
 21 39  1  0
 22 40  1  0
 23 41  1  0
 24 42  1  0
 25 43  1  0
M  ISO  8  26   8  27   8  28  14  29  14  30  14  31  14  32  14  33  14
M  ISO  8  34  14  35   8  36   8  37  14  38  14  39  14  40  14  41  14
M  ISO  2  42  14  43  14
M  END
>  <minimizedAffinity>  (1) 
-6.25096273

>  <minimizedRMSD>  (1) 
1.713431

$$$$
