
     RDKit          3D

 49 52  0  0  0  0  0  0  0  0999 V2000
   34.5240   29.4320   50.3190 C   0  0  0  0  0  0  0  0  0  0  0  0
   35.8580   30.0620   50.2500 C   0  0  0  0  0  0  0  0  0  0  0  0
   36.8330   29.8370   51.2260 C   0  0  0  0  0  0  0  0  0  0  0  0
   37.9430   30.5540   50.8810 C   0  0  0  0  0  0  0  0  0  0  0  0
   37.6480   31.1870   49.7400 N   0  0  0  0  0  0  0  0  0  0  0  0
   36.4160   30.8810   49.3920 N   0  0  0  0  0  0  0  0  0  0  0  0
   38.4120   32.0670   48.9230 C   0  0  0  0  0  0  0  0  0  0  0  0
   38.7970   33.2610   49.5070 C   0  0  0  0  0  0  0  0  0  0  0  0
   39.5440   34.2380   48.8600 C   0  0  0  0  0  0  0  0  0  0  0  0
   39.9060   33.9600   47.5500 C   0  0  0  0  0  0  0  0  0  0  0  0
   39.5290   32.7740   46.9550 C   0  0  0  0  0  0  0  0  0  0  0  0
   38.7890   31.8240   47.6210 C   0  0  0  0  0  0  0  0  0  0  0  0
   34.3730   28.2570   49.4300 C   0  0  0  0  0  0  0  0  0  0  0  0
   33.8170   28.4610   48.1280 C   0  0  0  0  0  0  0  0  0  0  0  0
   32.5250   28.0630   47.8520 C   0  0  0  0  0  0  0  0  0  0  0  0
   31.9550   28.2560   46.5710 C   0  0  0  0  0  0  0  0  0  0  0  0
   32.7730   28.8580   45.6420 N   0  0  0  0  0  0  0  0  0  0  0  0
   34.0430   29.2330   45.9630 C   0  0  0  0  0  0  0  0  0  0  0  0
   34.5510   29.0350   47.1860 N   0  0  0  0  0  0  0  0  0  0  0  0
   34.8800   29.8800   44.9140 C   0  0  0  0  0  0  0  0  0  0  0  0
   35.2080   28.7720   43.9060 C   0  0  0  0  0  0  0  0  0  0  0  0
   35.7260   29.5160   42.6800 C   0  0  0  0  0  0  0  0  0  0  0  0
   37.0110   30.1840   43.0480 C   0  0  0  0  0  0  0  0  0  0  0  0
   36.8660   31.0760   44.2450 C   0  0  0  0  0  0  0  0  0  0  0  0
   36.1940   30.3830   45.4170 C   0  0  0  0  0  0  0  0  0  0  0  0
   34.3461   29.1085   51.3552 H   0  0  0  0  0  0  0  0  0  0  0  0
   33.7956   30.1847   49.9830 H   0  0  0  0  0  0  0  0  0  0  0  0
   36.7254   29.1965   52.1138 H   0  0  0  0  0  0  0  0  0  0  0  0
   38.8932   30.6017   51.4331 H   0  0  0  0  0  0  0  0  0  0  0  0
   38.4930   33.4483   50.5474 H   0  0  0  0  0  0  0  0  0  0  0  0
   39.8312   35.1762   49.3572 H   0  0  0  0  0  0  0  0  0  0  0  0
   40.4986   34.6914   46.9810 H   0  0  0  0  0  0  0  0  0  0  0  0
   39.8296   32.5814   45.9145 H   0  0  0  0  0  0  0  0  0  0  0  0
   38.5034   30.8863   47.1218 H   0  0  0  0  0  0  0  0  0  0  0  0
   35.3737   27.8213   49.2926 H   0  0  0  0  0  0  0  0  0  0  0  0
   33.6378   27.6198   49.9433 H   0  0  0  0  0  0  0  0  0  0  0  0
   31.9266   27.5867   48.6426 H   0  0  0  0  0  0  0  0  0  0  0  0
   30.9268   27.9456   46.3336 H   0  0  0  0  0  0  0  0  0  0  0  0
   34.3231   30.7394   44.5123 H   0  0  0  0  0  0  0  0  0  0  0  0
   35.9790   28.0973   44.3064 H   0  0  0  0  0  0  0  0  0  0  0  0
   34.3359   28.1421   43.6767 H   0  0  0  0  0  0  0  0  0  0  0  0
   34.9909   30.2709   42.3644 H   0  0  0  0  0  0  0  0  0  0  0  0
   35.8872   28.8135   41.8491 H   0  0  0  0  0  0  0  0  0  0  0  0
   37.7604   29.4105   43.2719 H   0  0  0  0  0  0  0  0  0  0  0  0
   37.3209   30.8093   42.1977 H   0  0  0  0  0  0  0  0  0  0  0  0
   37.8666   31.4077   44.5595 H   0  0  0  0  0  0  0  0  0  0  0  0
   36.2289   31.9233   43.9515 H   0  0  0  0  0  0  0  0  0  0  0  0
   36.0385   31.0946   46.2412 H   0  0  0  0  0  0  0  0  0  0  0  0
   36.8143   29.5604   45.8024 H   0  0  0  0  0  0  0  0  0  0  0  0
  2  1  1  0
  2  3  1  0
  4  3  2  0
  5  4  1  0
  6  5  1  0
  6  2  2  0
  7  8  2  0
  7  5  1  0
  9  8  1  0
 10  9  2  0
 11 10  1  0
 11 12  2  0
 12  7  1  0
 13  1  1  0
 14 13  1  0
 15 14  2  0
 16 15  1  0
 17 18  1  0
 17 16  2  0
 18 19  2  0
 19 14  1  0
 20 25  1  0
 20 18  1  0
 21 20  1  0
 22 23  1  0
 22 21  1  0
 23 24  1  0
 24 25  1  0
  1 26  1  0
  1 27  1  0
  3 28  1  0
  4 29  1  0
  8 30  1  0
  9 31  1  0
 10 32  1  0
 11 33  1  0
 12 34  1  0
 13 35  1  0
 13 36  1  0
 15 37  1  0
 16 38  1  0
 20 39  1  0
 21 40  1  0
 21 41  1  0
 22 42  1  0
 22 43  1  0
 23 44  1  0
 23 45  1  0
 24 46  1  0
 24 47  1  0
 25 48  1  0
 25 49  1  0
M  ISO  8  26   8  27   8  28  14  29  14  30  14  31  14  32  14  33  14
M  ISO  8  34  14  35   8  36   8  37  14  38  14  39  13  40  13  41  13
M  ISO  8  42  13  43  13  44  13  45  13  46  13  47  13  48  13  49  13
M  END
>  <minimizedAffinity>  (1) 
-6.20711136

>  <minimizedRMSD>  (1) 
1.78118598

$$$$
