
     RDKit          3D

 40 43  0  0  0  0  0  0  0  0999 V2000
   34.4860   29.3800   50.2450 C   0  0  0  0  0  0  0  0  0  0  0  0
   35.8150   30.0250   50.2250 C   0  0  0  0  0  0  0  0  0  0  0  0
   36.7670   29.8070   51.2220 C   0  0  0  0  0  0  0  0  0  0  0  0
   37.8770   30.5410   50.9140 C   0  0  0  0  0  0  0  0  0  0  0  0
   37.6110   31.1850   49.7690 N   0  0  0  0  0  0  0  0  0  0  0  0
   36.3890   30.8580   49.3910 N   0  0  0  0  0  0  0  0  0  0  0  0
   38.3810   32.0780   48.9840 C   0  0  0  0  0  0  0  0  0  0  0  0
   38.7730   33.2440   49.5980 C   0  0  0  0  0  0  0  0  0  0  0  0
   39.5300   34.2350   48.9860 C   0  0  0  0  0  0  0  0  0  0  0  0
   39.8950   33.9960   47.6680 C   0  0  0  0  0  0  0  0  0  0  0  0
   39.5110   32.8280   47.0320 C   0  0  0  0  0  0  0  0  0  0  0  0
   38.7590   31.8720   47.6780 C   0  0  0  0  0  0  0  0  0  0  0  0
   34.3460   28.2800   49.2670 C   0  0  0  0  0  0  0  0  0  0  0  0
   33.8880   28.5860   47.9470 C   0  0  0  0  0  0  0  0  0  0  0  0
   32.6090   28.2380   47.5710 C   0  0  0  0  0  0  0  0  0  0  0  0
   32.1190   28.5230   46.2780 C   0  0  0  0  0  0  0  0  0  0  0  0
   33.0090   29.1630   45.4410 N   0  0  0  0  0  0  0  0  0  0  0  0
   34.2520   29.4830   45.8540 C   0  0  0  0  0  0  0  0  0  0  0  0
   34.6800   29.1940   47.0940 N   0  0  0  0  0  0  0  0  0  0  0  0
   35.1700   30.1710   44.9140 C   0  0  0  0  0  0  0  0  0  0  0  0
   36.4770   30.4500   45.0680 C   0  0  0  0  0  0  0  0  0  0  0  0
   37.1230   31.1040   44.0470 C   0  0  0  0  0  0  0  0  0  0  0  0
   36.3960   31.4360   42.9270 C   0  0  0  0  0  0  0  0  0  0  0  0
   34.6920   30.7690   43.3720 S   0  0  0  0  0  0  0  0  0  0  0  0
   34.3120   28.9737   51.2523 H   0  0  0  0  0  0  0  0  0  0  0  0
   33.7500   30.1502   49.9710 H   0  0  0  0  0  0  0  0  0  0  0  0
   36.6448   29.1579   52.1016 H   0  0  0  0  0  0  0  0  0  0  0  0
   38.8100   30.5935   51.4942 H   0  0  0  0  0  0  0  0  0  0  0  0
   38.4671   33.4026   50.6426 H   0  0  0  0  0  0  0  0  0  0  0  0
   39.8228   35.1544   49.5142 H   0  0  0  0  0  0  0  0  0  0  0  0
   40.4945   34.7411   47.1245 H   0  0  0  0  0  0  0  0  0  0  0  0
   39.8131   32.6597   45.9878 H   0  0  0  0  0  0  0  0  0  0  0  0
   38.4632   30.9514   47.1536 H   0  0  0  0  0  0  0  0  0  0  0  0
   35.3353   27.8100   49.1651 H   0  0  0  0  0  0  0  0  0  0  0  0
   33.5472   27.6509   49.6867 H   0  0  0  0  0  0  0  0  0  0  0  0
   31.9557   27.7272   48.2937 H   0  0  0  0  0  0  0  0  0  0  0  0
   31.1006   28.2540   45.9609 H   0  0  0  0  0  0  0  0  0  0  0  0
   37.0129   30.1628   45.9847 H   0  0  0  0  0  0  0  0  0  0  0  0
   38.1913   31.3551   44.1228 H   0  0  0  0  0  0  0  0  0  0  0  0
   36.7234   31.9539   42.0135 H   0  0  0  0  0  0  0  0  0  0  0  0
  2  1  1  0
  2  3  1  0
  4  3  2  0
  5  4  1  0
  6  5  1  0
  6  2  2  0
  7  8  2  0
  7  5  1  0
  9  8  1  0
 10  9  2  0
 11 10  1  0
 11 12  2  0
 12  7  1  0
 13  1  1  0
 14 13  1  0
 15 14  2  0
 16 15  1  0
 17 18  1  0
 17 16  2  0
 18 19  2  0
 19 14  1  0
 20 21  2  0
 20 18  1  0
 22 21  1  0
 23 24  1  0
 23 22  2  0
 24 20  1  0
  1 25  1  0
  1 26  1  0
  3 27  1  0
  4 28  1  0
  8 29  1  0
  9 30  1  0
 10 31  1  0
 11 32  1  0
 12 33  1  0
 13 34  1  0
 13 35  1  0
 15 36  1  0
 16 37  1  0
 21 38  1  0
 22 39  1  0
 23 40  1  0
M  ISO  8  25   8  26   8  27  14  28  14  29  14  30  14  31  14  32  14
M  ISO  8  33  14  34   8  35   8  36  14  37  14  38  14  39  14  40  14
M  END
>  <minimizedAffinity>  (1) 
-6.06432247

>  <minimizedRMSD>  (1) 
1.51081061

$$$$
