
     RDKit          3D

 37 39  0  0  0  0  0  0  0  0999 V2000
   34.6290   28.9840   49.9520 C   0  0  0  0  0  0  0  0  0  0  0  0
   35.8760   29.7680   50.0380 C   0  0  0  0  0  0  0  0  0  0  0  0
   36.7140   29.7090   51.1570 C   0  0  0  0  0  0  0  0  0  0  0  0
   37.7670   30.5370   50.9300 C   0  0  0  0  0  0  0  0  0  0  0  0
   37.5840   31.0850   49.7160 N   0  0  0  0  0  0  0  0  0  0  0  0
   36.4600   30.6090   49.2200 N   0  0  0  0  0  0  0  0  0  0  0  0
   38.3550   32.0130   48.9670 C   0  0  0  0  0  0  0  0  0  0  0  0
   38.7130   33.1720   49.6170 C   0  0  0  0  0  0  0  0  0  0  0  0
   39.4670   34.1880   49.0290 C   0  0  0  0  0  0  0  0  0  0  0  0
   39.8600   33.9780   47.7160 C   0  0  0  0  0  0  0  0  0  0  0  0
   39.5080   32.8250   47.0600 C   0  0  0  0  0  0  0  0  0  0  0  0
   38.7610   31.8360   47.6630 C   0  0  0  0  0  0  0  0  0  0  0  0
   34.5440   28.1230   48.7490 C   0  0  0  0  0  0  0  0  0  0  0  0
   33.7930   28.6030   47.6230 C   0  0  0  0  0  0  0  0  0  0  0  0
   32.4490   28.3680   47.5300 C   0  0  0  0  0  0  0  0  0  0  0  0
   31.6980   28.8300   46.4350 C   0  0  0  0  0  0  0  0  0  0  0  0
   32.4150   29.5350   45.4660 N   0  0  0  0  0  0  0  0  0  0  0  0
   33.7330   29.7370   45.6060 C   0  0  0  0  0  0  0  0  0  0  0  0
   34.4020   29.2730   46.6730 N   0  0  0  0  0  0  0  0  0  0  0  0
   35.8190   30.7030   44.6940 C   0  0  0  0  0  0  0  0  0  0  0  0
   36.4090   30.2610   45.6930 O   0  0  0  0  0  0  0  0  0  0  0  0
   34.4290   30.4620   44.5950 N   0  0  0  0  0  0  0  0  0  0  0  0
   34.5609   28.3424   50.8429 H   0  0  0  0  0  0  0  0  0  0  0  0
   33.8014   29.7057   49.8878 H   0  0  0  0  0  0  0  0  0  0  0  0
   36.5497   29.1011   52.0589 H   0  0  0  0  0  0  0  0  0  0  0  0
   38.6103   30.7238   51.6111 H   0  0  0  0  0  0  0  0  0  0  0  0
   38.3862   33.3048   50.6589 H   0  0  0  0  0  0  0  0  0  0  0  0
   39.7346   35.1040   49.5762 H   0  0  0  0  0  0  0  0  0  0  0  0
   40.4582   34.7410   47.1964 H   0  0  0  0  0  0  0  0  0  0  0  0
   39.8328   32.6856   46.0184 H   0  0  0  0  0  0  0  0  0  0  0  0
   38.4939   30.9218   47.1126 H   0  0  0  0  0  0  0  0  0  0  0  0
   35.5726   27.9439   48.4027 H   0  0  0  0  0  0  0  0  0  0  0  0
   33.9900   27.2351   49.0877 H   0  0  0  0  0  0  0  0  0  0  0  0
   31.9446   27.8053   48.3293 H   0  0  0  0  0  0  0  0  0  0  0  0
   30.6167   28.6481   46.3473 H   0  0  0  0  0  0  0  0  0  0  0  0
   36.3577   31.2616   43.9144 H   0  0  0  0  0  0  0  0  0  0  0  0
   33.9107   30.8164   43.7785 H   0  0  0  0  0  0  0  0  0  0  0  0
  1  2  1  0
  2  3  1  0
  4  3  2  0
  5  4  1  0
  6  5  1  0
  6  2  2  0
  7  8  2  0
  7  5  1  0
  9  8  1  0
 10  9  2  0
 11 12  2  0
 11 10  1  0
 12  7  1  0
 13  1  1  0
 14 13  1  0
 15 14  2  0
 16 15  1  0
 17 18  1  0
 17 16  2  0
 18 19  2  0
 19 14  1  0
 20 21  2  0
 22 20  1  0
 22 18  1  0
  1 23  1  0
  1 24  1  0
  3 25  1  0
  4 26  1  0
  8 27  1  0
  9 28  1  0
 10 29  1  0
 11 30  1  0
 12 31  1  0
 13 32  1  0
 13 33  1  0
 15 34  1  0
 16 35  1  0
 20 36  1  0
 22 37  1  0
M  ISO  8  23   8  24   8  25  14  26  14  27  14  28  14  29  14  30  14
M  ISO  6  31  14  32   8  33   8  34  14  35  14  36   6
M  END
>  <minimizedAffinity>  (1) 
-5.93775225

>  <minimizedRMSD>  (1) 
1.34405828

$$$$
