
     RDKit          3D

 39 41  0  0  0  0  0  0  0  0999 V2000
   34.4020   29.2930   48.7800 C   0  0  0  0  0  0  0  0  0  0  0  0
   35.7430   29.8640   49.0210 C   0  0  0  0  0  0  0  0  0  0  0  0
   36.6320   29.3090   49.9500 C   0  0  0  0  0  0  0  0  0  0  0  0
   37.7720   30.0540   49.9420 C   0  0  0  0  0  0  0  0  0  0  0  0
   37.5860   31.0310   49.0390 N   0  0  0  0  0  0  0  0  0  0  0  0
   36.3790   30.8910   48.5130 N   0  0  0  0  0  0  0  0  0  0  0  0
   38.4270   32.0980   48.6050 C   0  0  0  0  0  0  0  0  0  0  0  0
   38.6500   33.1020   49.5150 C   0  0  0  0  0  0  0  0  0  0  0  0
   39.4440   34.2160   49.2590 C   0  0  0  0  0  0  0  0  0  0  0  0
   40.0250   34.2790   48.0040 C   0  0  0  0  0  0  0  0  0  0  0  0
   39.8080   33.2790   47.0870 C   0  0  0  0  0  0  0  0  0  0  0  0
   39.0130   32.1780   47.3660 C   0  0  0  0  0  0  0  0  0  0  0  0
   34.2580   28.6450   47.4570 C   0  0  0  0  0  0  0  0  0  0  0  0
   34.0300   29.4650   46.3060 C   0  0  0  0  0  0  0  0  0  0  0  0
   32.7900   30.0010   46.0830 C   0  0  0  0  0  0  0  0  0  0  0  0
   32.5330   30.8160   44.9560 C   0  0  0  0  0  0  0  0  0  0  0  0
   33.6130   31.0230   44.1140 N   0  0  0  0  0  0  0  0  0  0  0  0
   34.8150   30.4670   44.3870 C   0  0  0  0  0  0  0  0  0  0  0  0
   35.0320   29.6990   45.4620 N   0  0  0  0  0  0  0  0  0  0  0  0
   35.8930   30.6980   43.5120 O   0  0  0  0  0  0  0  0  0  0  0  0
   36.9200   32.3690   41.7150 O   0  0  0  0  0  0  0  0  0  0  0  0
   36.4330   32.2750   43.1580 P   0  0  0  0  0  0  0  0  0  0  0  0
   37.6830   32.7570   44.1840 O   0  0  0  0  0  0  0  0  0  0  0  0
   35.1450   33.3470   43.3260 O   0  0  0  0  0  0  0  0  0  0  0  0
   34.1998   28.5420   49.5579 H   0  0  0  0  0  0  0  0  0  0  0  0
   33.6880   30.1293   48.8067 H   0  0  0  0  0  0  0  0  0  0  0  0
   36.4425   28.4252   50.5769 H   0  0  0  0  0  0  0  0  0  0  0  0
   38.6699   29.8881   50.5553 H   0  0  0  0  0  0  0  0  0  0  0  0
   38.1736   33.0211   50.5032 H   0  0  0  0  0  0  0  0  0  0  0  0
   39.6011   35.0025   50.0118 H   0  0  0  0  0  0  0  0  0  0  0  0
   40.6640   35.1344   47.7394 H   0  0  0  0  0  0  0  0  0  0  0  0
   40.2815   33.3546   46.0970 H   0  0  0  0  0  0  0  0  0  0  0  0
   38.8560   31.3898   46.6149 H   0  0  0  0  0  0  0  0  0  0  0  0
   35.1832   28.0794   47.2722 H   0  0  0  0  0  0  0  0  0  0  0  0
   33.3336   28.0560   47.5498 H   0  0  0  0  0  0  0  0  0  0  0  0
   31.9773   29.7936   46.7947 H   0  0  0  0  0  0  0  0  0  0  0  0
   31.5434   31.2552   44.7616 H   0  0  0  0  0  0  0  0  0  0  0  0
   37.3979   32.6471   45.1257 H   0  0  0  0  0  0  0  0  0  0  0  0
   34.9642   33.4975   44.2876 H   0  0  0  0  0  0  0  0  0  0  0  0
  1  2  1  0
  2  3  1  0
  4  3  2  0
  5  4  1  0
  6  2  2  0
  6  5  1  0
  7  5  1  0
  7  8  2  0
  9  8  1  0
 10  9  2  0
 11 12  2  0
 11 10  1  0
 12  7  1  0
 13  1  1  0
 14 13  1  0
 15 14  2  0
 16 15  1  0
 17 18  1  0
 17 16  2  0
 18 19  2  0
 19 14  1  0
 20 18  1  0
 21 22  2  0
 22 24  1  0
 22 20  1  0
 22 23  1  0
  1 25  1  0
  1 26  1  0
  3 27  1  0
  4 28  1  0
  8 29  1  0
  9 30  1  0
 10 31  1  0
 11 32  1  0
 12 33  1  0
 13 34  1  0
 13 35  1  0
 15 36  1  0
 16 37  1  0
 23 38  1  0
 24 39  1  0
M  ISO  8  25   8  26   8  27  14  28  14  29  14  30  14  31  14  32  14
M  ISO  7  33  14  34   8  35   8  36  14  37  14  38   3  39   3
M  END
>  <minimizedAffinity>  (1) 
-5.92647648

>  <minimizedRMSD>  (1) 
0.705854595

$$$$
