
     RDKit          3D

 36 38  0  0  0  0  0  0  0  0999 V2000
   35.6860   29.9460   49.5550 C   0  0  0  0  0  0  0  0  0  0  0  0
   36.6800   29.3460   50.3390 C   0  0  0  0  0  0  0  0  0  0  0  0
   37.8400   30.0220   50.1340 C   0  0  0  0  0  0  0  0  0  0  0  0
   37.5790   31.0000   49.2610 N   0  0  0  0  0  0  0  0  0  0  0  0
   36.2980   30.9330   48.9330 N   0  0  0  0  0  0  0  0  0  0  0  0
   38.3950   32.0070   48.6830 C   0  0  0  0  0  0  0  0  0  0  0  0
   38.6690   33.0970   49.4820 C   0  0  0  0  0  0  0  0  0  0  0  0
   39.4530   34.1730   49.0700 C   0  0  0  0  0  0  0  0  0  0  0  0
   39.9690   34.1110   47.7840 C   0  0  0  0  0  0  0  0  0  0  0  0
   39.7040   33.0300   46.9760 C   0  0  0  0  0  0  0  0  0  0  0  0
   38.9250   31.9840   47.4140 C   0  0  0  0  0  0  0  0  0  0  0  0
   34.2930   29.4610   49.5360 C   0  0  0  0  0  0  0  0  0  0  0  0
   33.9660   28.6280   48.3620 C   0  0  0  0  0  0  0  0  0  0  0  0
   33.8260   29.2710   47.0780 C   0  0  0  0  0  0  0  0  0  0  0  0
   32.6000   29.7250   46.6720 C   0  0  0  0  0  0  0  0  0  0  0  0
   32.4440   30.3620   45.4100 C   0  0  0  0  0  0  0  0  0  0  0  0
   33.5940   30.4770   44.6550 N   0  0  0  0  0  0  0  0  0  0  0  0
   34.7810   30.0080   45.1090 C   0  0  0  0  0  0  0  0  0  0  0  0
   34.8870   29.4080   46.3160 N   0  0  0  0  0  0  0  0  0  0  0  0
   35.9640   30.1800   44.2200 C   0  0  0  0  0  0  0  0  0  0  0  0
   35.7970   31.3070   43.4420 F   0  0  0  0  0  0  0  0  0  0  0  0
   37.1190   30.3350   44.9710 F   0  0  0  0  0  0  0  0  0  0  0  0
   36.0990   29.0540   43.4160 F   0  0  0  0  0  0  0  0  0  0  0  0
   36.5448   28.4799   51.0036 H   0  0  0  0  0  0  0  0  0  0  0  0
   38.8128   29.8051   50.5995 H   0  0  0  0  0  0  0  0  0  0  0  0
   38.2467   33.1183   50.4975 H   0  0  0  0  0  0  0  0  0  0  0  0
   39.6526   35.0288   49.7317 H   0  0  0  0  0  0  0  0  0  0  0  0
   40.5953   34.9331   47.4073 H   0  0  0  0  0  0  0  0  0  0  0  0
   40.1232   33.0012   45.9594 H   0  0  0  0  0  0  0  0  0  0  0  0
   38.7262   31.1300   46.7498 H   0  0  0  0  0  0  0  0  0  0  0  0
   34.1219   28.8632   50.4434 H   0  0  0  0  0  0  0  0  0  0  0  0
   33.6461   30.3493   49.4876 H   0  0  0  0  0  0  0  0  0  0  0  0
   34.7644   27.8777   48.2639 H   0  0  0  0  0  0  0  0  0  0  0  0
   32.9599   28.2400   48.5795 H   0  0  0  0  0  0  0  0  0  0  0  0
   31.7268   29.5958   47.3284 H   0  0  0  0  0  0  0  0  0  0  0  0
   31.4717   30.7380   45.0589 H   0  0  0  0  0  0  0  0  0  0  0  0
  1  2  1  0
  3  2  2  0
  4  3  1  0
  5  4  1  0
  5  1  2  0
  6  4  1  0
  6  7  2  0
  8  7  1  0
  9  8  2  0
 10 11  2  0
 10  9  1  0
 11  6  1  0
 12  1  1  0
 13 12  1  0
 14 13  1  0
 15 14  2  0
 16 15  1  0
 17 18  1  0
 17 16  2  0
 18 19  2  0
 19 14  1  0
 20 22  1  0
 20 18  1  0
 21 20  1  0
 23 20  1  0
  2 24  1  0
  3 25  1  0
  7 26  1  0
  8 27  1  0
  9 28  1  0
 10 29  1  0
 11 30  1  0
 12 31  1  0
 12 32  1  0
 13 33  1  0
 13 34  1  0
 15 35  1  0
 16 36  1  0
M  ISO  8  24  14  25  14  26  14  27  14  28  14  29  14  30  14  31   8
M  ISO  5  32   8  33   8  34   8  35  14  36  14
M  END
>  <minimizedAffinity>  (1) 
-5.52850962

>  <minimizedRMSD>  (1) 
0.714971662

$$$$
