
     RDKit          3D

 34 36  0  0  0  0  0  0  0  0999 V2000
   35.7770   29.8110   49.0670 C   0  0  0  0  0  0  0  0  0  0  0  0
   36.6750   29.3100   50.0170 C   0  0  0  0  0  0  0  0  0  0  0  0
   37.8100   30.0590   49.9580 C   0  0  0  0  0  0  0  0  0  0  0  0
   37.6130   30.9870   49.0060 N   0  0  0  0  0  0  0  0  0  0  0  0
   36.4120   30.8090   48.5070 N   0  0  0  0  0  0  0  0  0  0  0  0
   38.4460   32.0360   48.5090 C   0  0  0  0  0  0  0  0  0  0  0  0
   38.6790   33.0740   49.3750 C   0  0  0  0  0  0  0  0  0  0  0  0
   39.4570   34.1810   49.0790 C   0  0  0  0  0  0  0  0  0  0  0  0
   40.0220   34.1960   47.8040 C   0  0  0  0  0  0  0  0  0  0  0  0
   39.7950   33.1510   46.9150 C   0  0  0  0  0  0  0  0  0  0  0  0
   39.0140   32.0760   47.2600 C   0  0  0  0  0  0  0  0  0  0  0  0
   34.4360   29.2230   48.8660 C   0  0  0  0  0  0  0  0  0  0  0  0
   34.2780   28.5490   47.5440 C   0  0  0  0  0  0  0  0  0  0  0  0
   33.9350   29.3680   46.4240 C   0  0  0  0  0  0  0  0  0  0  0  0
   32.7370   30.0210   46.3600 C   0  0  0  0  0  0  0  0  0  0  0  0
   32.3930   30.8360   45.2480 C   0  0  0  0  0  0  0  0  0  0  0  0
   33.3590   30.9100   44.2510 N   0  0  0  0  0  0  0  0  0  0  0  0
   34.5200   30.2480   44.3650 C   0  0  0  0  0  0  0  0  0  0  0  0
   34.8150   29.4800   45.4380 N   0  0  0  0  0  0  0  0  0  0  0  0
   35.3900   30.4130   43.2930 O   0  0  0  0  0  0  0  0  0  0  0  0
   36.4950   28.4605   50.6923 H   0  0  0  0  0  0  0  0  0  0  0  0
   38.7140   29.9297   50.5712 H   0  0  0  0  0  0  0  0  0  0  0  0
   38.2167   33.0238   50.3719 H   0  0  0  0  0  0  0  0  0  0  0  0
   39.6186   34.9944   49.8016 H   0  0  0  0  0  0  0  0  0  0  0  0
   40.6537   35.0431   47.4984 H   0  0  0  0  0  0  0  0  0  0  0  0
   40.2507   33.1865   45.9145 H   0  0  0  0  0  0  0  0  0  0  0  0
   38.8456   31.2573   46.5449 H   0  0  0  0  0  0  0  0  0  0  0  0
   34.2575   28.4819   49.6591 H   0  0  0  0  0  0  0  0  0  0  0  0
   33.7103   30.0490   48.8989 H   0  0  0  0  0  0  0  0  0  0  0  0
   35.2319   28.0535   47.3104 H   0  0  0  0  0  0  0  0  0  0  0  0
   33.4180   27.8754   47.6732 H   0  0  0  0  0  0  0  0  0  0  0  0
   32.0217   29.9134   47.1887 H   0  0  0  0  0  0  0  0  0  0  0  0
   31.4331   31.3691   45.1810 H   0  0  0  0  0  0  0  0  0  0  0  0
   36.2699   29.9593   43.2953 H   0  0  0  0  0  0  0  0  0  0  0  0
  1  2  1  0
  3  2  2  0
  4  3  1  0
  5  4  1  0
  5  1  2  0
  6  4  1  0
  6  7  2  0
  8  7  1  0
  9  8  2  0
 10 11  2  0
 10  9  1  0
 11  6  1  0
 12  1  1  0
 13 12  1  0
 14 13  1  0
 15 14  2  0
 16 15  1  0
 17 18  1  0
 17 16  2  0
 18 19  2  0
 19 14  1  0
 20 18  1  0
  2 21  1  0
  3 22  1  0
  7 23  1  0
  8 24  1  0
  9 25  1  0
 10 26  1  0
 11 27  1  0
 12 28  1  0
 12 29  1  0
 13 30  1  0
 13 31  1  0
 15 32  1  0
 16 33  1  0
 20 34  1  0
M  ISO  8  21  14  22  14  23  14  24  14  25  14  26  14  27  14  28   8
M  ISO  6  29   8  30   8  31   8  32  14  33  14  34   3
M  END
>  <minimizedAffinity>  (1) 
-5.33214569

>  <minimizedRMSD>  (1) 
0.0157005712

$$$$
