
     RDKit          3D

 20 21  0  0  0  0  0  0  0  0999 V2000
   38.2640   33.4650   49.5620 Cl  0  0  0  0  0  0  0  0  0  0  0  0
   38.6620   32.5450   48.1250 C   0  0  0  0  0  0  0  0  0  0  0  0
   38.0780   31.2960   48.0750 C   0  0  0  0  0  0  0  0  0  0  0  0
   38.3350   30.4820   46.9680 C   0  0  0  0  0  0  0  0  0  0  0  0
   39.1370   30.8880   45.9490 C   0  0  0  0  0  0  0  0  0  0  0  0
   39.7110   32.1300   46.0100 C   0  0  0  0  0  0  0  0  0  0  0  0
   40.7470   32.6870   44.7190 Cl  0  0  0  0  0  0  0  0  0  0  0  0
   39.4730   32.9390   47.0840 C   0  0  0  0  0  0  0  0  0  0  0  0
   37.7710   29.9730   50.1400 C   0  0  0  0  0  0  0  0  0  0  0  0
   37.1880   30.6540   49.0470 C   0  0  0  0  0  0  0  0  0  0  0  0
   35.7920   30.6690   48.9660 C   0  0  0  0  0  0  0  0  0  0  0  0
   35.0800   30.0320   49.9360 N   0  0  0  0  0  0  0  0  0  0  0  0
   35.6820   29.3910   50.9690 C   0  0  0  0  0  0  0  0  0  0  0  0
   37.0280   29.3640   51.0670 N   0  0  0  0  0  0  0  0  0  0  0  0
   37.8747   29.4841   46.9204 H   0  0  0  0  0  0  0  0  0  0  0  0
   39.3224   30.2290   45.0880 H   0  0  0  0  0  0  0  0  0  0  0  0
   39.9422   33.9333   47.1187 H   0  0  0  0  0  0  0  0  0  0  0  0
   38.8670   29.9441   50.2292 H   0  0  0  0  0  0  0  0  0  0  0  0
   35.2814   31.1832   48.1384 H   0  0  0  0  0  0  0  0  0  0  0  0
   35.0688   28.8896   51.7323 H   0  0  0  0  0  0  0  0  0  0  0  0
  2  1  1  0
  3  2  2  0
  3 10  1  0
  4  3  1  0
  5  6  1  0
  5  4  2  0
  6  8  2  0
  7  6  1  0
  8  2  1  0
  9 14  2  0
 10  9  1  0
 11 10  2  0
 11 12  1  0
 12 13  2  0
 13 14  1  0
  4 15  1  0
  5 16  1  0
  8 17  1  0
  9 18  1  0
 11 19  1  0
 13 20  1  0
M  ISO  6  15  14  16  14  17  14  18  14  19  14  20  14
M  END
>  <minimizedAffinity>  (1) 
-5.49292612

>  <minimizedRMSD>  (1) 
3.88007808

$$$$
