
     RDKit          3D

 26 27  0  0  0  0  0  0  0  0999 V2000
   36.6540   31.7210   50.1730 Cl  0  0  0  0  0  0  0  0  0  0  0  0
   37.3660   31.7250   48.5850 C   0  0  0  0  0  0  0  0  0  0  0  0
   36.7390   30.8870   47.6950 C   0  0  0  0  0  0  0  0  0  0  0  0
   37.2320   30.8110   46.3810 C   0  0  0  0  0  0  0  0  0  0  0  0
   38.3030   31.5430   45.9810 C   0  0  0  0  0  0  0  0  0  0  0  0
   38.9190   32.3800   46.8870 C   0  0  0  0  0  0  0  0  0  0  0  0
   40.2950   33.3340   46.4110 Cl  0  0  0  0  0  0  0  0  0  0  0  0
   38.4480   32.4580   48.1560 C   0  0  0  0  0  0  0  0  0  0  0  0
   35.6600   29.0120   48.8930 C   0  0  0  0  0  0  0  0  0  0  0  0
   35.5750   30.0070   47.9040 C   0  0  0  0  0  0  0  0  0  0  0  0
   34.3780   30.1070   47.1680 C   0  0  0  0  0  0  0  0  0  0  0  0
   33.3750   29.2450   47.4450 N   0  0  0  0  0  0  0  0  0  0  0  0
   33.4940   28.2950   48.4100 C   0  0  0  0  0  0  0  0  0  0  0  0
   34.6320   28.1870   49.1240 N   0  0  0  0  0  0  0  0  0  0  0  0
   32.3290   27.4140   48.6200 C   0  0  0  0  0  0  0  0  0  0  0  0
   31.2430   27.8650   47.6690 C   0  0  0  0  0  0  0  0  0  0  0  0
   36.7385   30.1428   45.6599 H   0  0  0  0  0  0  0  0  0  0  0  0
   38.6743   31.4694   44.9482 H   0  0  0  0  0  0  0  0  0  0  0  0
   38.9487   33.1311   48.8675 H   0  0  0  0  0  0  0  0  0  0  0  0
   36.5822   28.9102   49.4840 H   0  0  0  0  0  0  0  0  0  0  0  0
   34.2623   30.8705   46.3846 H   0  0  0  0  0  0  0  0  0  0  0  0
   32.6041   26.3702   48.4085 H   0  0  0  0  0  0  0  0  0  0  0  0
   31.9812   27.4721   49.6620 H   0  0  0  0  0  0  0  0  0  0  0  0
   30.3774   28.2245   48.2448 H   0  0  0  0  0  0  0  0  0  0  0  0
   31.6253   28.6787   47.0352 H   0  0  0  0  0  0  0  0  0  0  0  0
   30.9364   27.0198   47.0352 H   0  0  0  0  0  0  0  0  0  0  0  0
  2  1  1  0
  3 10  1  0
  3  2  2  0
  4  3  1  0
  5  4  2  0
  5  6  1  0
  6  8  2  0
  7  6  1  0
  8  2  1  0
  9 14  2  0
 10  9  1  0
 11 12  1  0
 11 10  2  0
 12 13  2  0
 13 15  1  0
 13 14  1  0
 16 15  1  0
  4 17  1  0
  5 18  1  0
  8 19  1  0
  9 20  1  0
 11 21  1  0
 15 22  1  0
 15 23  1  0
 16 24  1  0
 16 25  1  0
 16 26  1  0
M  ISO  8  17  14  18  14  19  14  20  14  21  14  22   8  23   8  24   8
M  ISO  2  25   8  26   8
M  END
>  <minimizedAffinity>  (1) 
-5.27858782

>  <minimizedRMSD>  (1) 
2.86718678

$$$$
