
     RDKit          3D

 38 41  0  0  0  0  0  0  0  0999 V2000
   38.0600   30.6740   50.1650 C   0  0  0  0  0  0  0  0  0  0  0  0
   37.5350   30.7690   48.8910 C   0  0  0  0  0  0  0  0  0  0  0  0
   36.2390   30.2770   48.6190 C   0  0  0  0  0  0  0  0  0  0  0  0
   35.5530   29.7210   49.6470 N   0  0  0  0  0  0  0  0  0  0  0  0
   36.0990   29.6400   50.8990 C   0  0  0  0  0  0  0  0  0  0  0  0
   37.3450   30.1160   51.1470 N   0  0  0  0  0  0  0  0  0  0  0  0
   35.3160   29.0390   51.9310 N   0  0  0  0  0  0  0  0  0  0  0  0
   38.4990   33.6410   49.1650 Cl  0  0  0  0  0  0  0  0  0  0  0  0
   38.8850   32.6660   47.7820 C   0  0  0  0  0  0  0  0  0  0  0  0
   38.3640   31.3950   47.8420 C   0  0  0  0  0  0  0  0  0  0  0  0
   38.6320   30.5350   46.7660 C   0  0  0  0  0  0  0  0  0  0  0  0
   39.3650   30.8990   45.6940 C   0  0  0  0  0  0  0  0  0  0  0  0
   39.8810   32.1940   45.6590 C   0  0  0  0  0  0  0  0  0  0  0  0
   40.8390   32.7380   44.3150 Cl  0  0  0  0  0  0  0  0  0  0  0  0
   39.6320   33.0520   46.7010 C   0  0  0  0  0  0  0  0  0  0  0  0
   35.6960   30.3810   47.2740 C   0  0  0  0  0  0  0  0  0  0  0  0
   33.5950   30.0480   46.0180 C   0  0  0  0  0  0  0  0  0  0  0  0
   34.3290   29.7840   47.1760 C   0  0  0  0  0  0  0  0  0  0  0  0
   33.7390   28.9950   48.1430 C   0  0  0  0  0  0  0  0  0  0  0  0
   32.4590   28.5130   47.9080 C   0  0  0  0  0  0  0  0  0  0  0  0
   31.6690   27.7360   48.6730 N   0  0  0  0  0  0  0  0  0  0  0  0
   30.5230   27.5470   48.0040 C   0  0  0  0  0  0  0  0  0  0  0  0
   30.5520   28.1870   46.8180 N   0  0  0  0  0  0  0  0  0  0  0  0
   31.7660   28.7970   46.7500 C   0  0  0  0  0  0  0  0  0  0  0  0
   32.3230   29.5800   45.7670 C   0  0  0  0  0  0  0  0  0  0  0  0
   39.0695   31.0587   50.3722 H   0  0  0  0  0  0  0  0  0  0  0  0
   35.6948   28.9610   52.8856 H   0  0  0  0  0  0  0  0  0  0  0  0
   34.3724   28.6835   51.7207 H   0  0  0  0  0  0  0  0  0  0  0  0
   38.2242   29.5139   46.7985 H   0  0  0  0  0  0  0  0  0  0  0  0
   39.5506   30.1940   44.8703 H   0  0  0  0  0  0  0  0  0  0  0  0
   40.0416   34.0724   46.6671 H   0  0  0  0  0  0  0  0  0  0  0  0
   35.6408   31.4434   46.9941 H   0  0  0  0  0  0  0  0  0  0  0  0
   36.3596   29.8255   46.5950 H   0  0  0  0  0  0  0  0  0  0  0  0
   34.0671   30.6764   45.2485 H   0  0  0  0  0  0  0  0  0  0  0  0
   34.2699   28.7545   49.0759 H   0  0  0  0  0  0  0  0  0  0  0  0
   31.9024   27.3566   49.6017 H   0  0  0  0  0  0  0  0  0  0  0  0
   29.6749   26.9512   48.3724 H   0  0  0  0  0  0  0  0  0  0  0  0
   31.7864   29.8185   44.8369 H   0  0  0  0  0  0  0  0  0  0  0  0
  1  6  2  0
  2  1  1  0
  3  2  2  0
  3  4  1  0
  4  5  2  0
  5  6  1  0
  5  7  1  0
  9 10  2  0
  9  8  1  0
 10  2  1  0
 11 10  1  0
 12 11  2  0
 13 12  1  0
 13 15  2  0
 14 13  1  0
 15  9  1  0
 16  3  1  0
 17 18  2  0
 18 16  1  0
 18 19  1  0
 20 19  2  0
 20 21  1  0
 22 21  1  0
 23 22  2  0
 24 23  1  0
 24 20  1  0
 25 17  1  0
 25 24  2  0
  1 26  1  0
  7 27  1  0
  7 28  1  0
 11 29  1  0
 12 30  1  0
 15 31  1  0
 16 32  1  0
 16 33  1  0
 17 34  1  0
 19 35  1  0
 21 36  1  0
 22 37  1  0
 25 38  1  0
M  ISO  8  26  14  29  14  30  14  31  14  32   8  33   8  34  14  35  14
M  ISO  3  36   9  37  14  38  14
M  END
>  <minimizedAffinity>  (1) 
-6.60551262

>  <minimizedRMSD>  (1) 
0.704102397

$$$$
