
     RDKit          3D

 39 42  0  0  0  0  0  0  0  0999 V2000
   37.9940   30.6040   50.1660 C   0  0  0  0  0  0  0  0  0  0  0  0
   37.4640   30.7500   48.9050 C   0  0  0  0  0  0  0  0  0  0  0  0
   36.1430   30.3240   48.6400 C   0  0  0  0  0  0  0  0  0  0  0  0
   35.4430   29.7790   49.6620 N   0  0  0  0  0  0  0  0  0  0  0  0
   36.0060   29.6490   50.9140 C   0  0  0  0  0  0  0  0  0  0  0  0
   37.2810   30.0640   51.1550 N   0  0  0  0  0  0  0  0  0  0  0  0
   35.1980   29.0610   51.9400 N   0  0  0  0  0  0  0  0  0  0  0  0
   38.4660   33.6120   49.1570 Cl  0  0  0  0  0  0  0  0  0  0  0  0
   38.8450   32.6140   47.7740 C   0  0  0  0  0  0  0  0  0  0  0  0
   38.3130   31.3630   47.8480 C   0  0  0  0  0  0  0  0  0  0  0  0
   38.5700   30.4790   46.7860 C   0  0  0  0  0  0  0  0  0  0  0  0
   39.3120   30.8250   45.7150 C   0  0  0  0  0  0  0  0  0  0  0  0
   39.8400   32.1160   45.6720 C   0  0  0  0  0  0  0  0  0  0  0  0
   40.8080   32.6100   44.3190 Cl  0  0  0  0  0  0  0  0  0  0  0  0
   39.5990   32.9890   46.7010 C   0  0  0  0  0  0  0  0  0  0  0  0
   35.5920   30.4720   47.2990 C   0  0  0  0  0  0  0  0  0  0  0  0
   33.3070   30.3910   46.4240 C   0  0  0  0  0  0  0  0  0  0  0  0
   34.3170   29.7310   47.0940 C   0  0  0  0  0  0  0  0  0  0  0  0
   34.0690   28.4230   47.5370 C   0  0  0  0  0  0  0  0  0  0  0  0
   32.8460   27.8380   47.2990 C   0  0  0  0  0  0  0  0  0  0  0  0
   32.3490   26.6270   47.6090 N   0  0  0  0  0  0  0  0  0  0  0  0
   31.0660   26.4940   47.1630 C   0  0  0  0  0  0  0  0  0  0  0  0
   30.7820   27.7210   46.5410 C   0  0  0  0  0  0  0  0  0  0  0  0
   31.8690   28.5660   46.6130 C   0  0  0  0  0  0  0  0  0  0  0  0
   32.0650   29.8520   46.1600 C   0  0  0  0  0  0  0  0  0  0  0  0
   39.0235   30.9384   50.3618 H   0  0  0  0  0  0  0  0  0  0  0  0
   35.5772   28.9440   52.8905 H   0  0  0  0  0  0  0  0  0  0  0  0
   34.2377   28.7551   51.7274 H   0  0  0  0  0  0  0  0  0  0  0  0
   38.1487   29.4639   46.8305 H   0  0  0  0  0  0  0  0  0  0  0  0
   39.4958   30.1107   44.8990 H   0  0  0  0  0  0  0  0  0  0  0  0
   40.0190   34.0049   46.6609 H   0  0  0  0  0  0  0  0  0  0  0  0
   35.4068   31.5406   47.1150 H   0  0  0  0  0  0  0  0  0  0  0  0
   36.3276   30.0486   46.5992 H   0  0  0  0  0  0  0  0  0  0  0  0
   33.5058   31.4158   46.0772 H   0  0  0  0  0  0  0  0  0  0  0  0
   34.8509   27.8658   48.0738 H   0  0  0  0  0  0  0  0  0  0  0  0
   32.8684   25.8963   48.1162 H   0  0  0  0  0  0  0  0  0  0  0  0
   30.4034   25.6221   47.2672 H   0  0  0  0  0  0  0  0  0  0  0  0
   29.8242   27.9730   46.0624 H   0  0  0  0  0  0  0  0  0  0  0  0
   31.2840   30.4113   45.6240 H   0  0  0  0  0  0  0  0  0  0  0  0
  1  6  2  0
  2  1  1  0
  3  2  2  0
  3  4  1  0
  4  5  2  0
  5  6  1  0
  5  7  1  0
  9 10  2  0
  9  8  1  0
 10  2  1  0
 11 10  1  0
 12 11  2  0
 13 12  1  0
 13 15  2  0
 14 13  1  0
 15  9  1  0
 16  3  1  0
 17 18  2  0
 18 16  1  0
 18 19  1  0
 20 19  2  0
 20 21  1  0
 22 21  1  0
 23 24  1  0
 23 22  2  0
 24 20  1  0
 25 17  1  0
 25 24  2  0
  1 26  1  0
  7 27  1  0
  7 28  1  0
 11 29  1  0
 12 30  1  0
 15 31  1  0
 16 32  1  0
 16 33  1  0
 17 34  1  0
 19 35  1  0
 21 36  1  0
 22 37  1  0
 23 38  1  0
 25 39  1  0
M  ISO  8  26  14  29  14  30  14  31  14  32   8  33   8  34  14  35  14
M  ISO  4  36   9  37  14  38  14  39  14
M  END
>  <minimizedAffinity>  (1) 
-6.5670476

>  <minimizedRMSD>  (1) 
1.18898666

$$$$
