
     RDKit          3D

 35 37  0  0  0  0  0  0  0  0999 V2000
   37.8180   30.4070   50.1270 C   0  0  0  0  0  0  0  0  0  0  0  0
   37.2810   30.6390   48.8530 C   0  0  0  0  0  0  0  0  0  0  0  0
   35.9320   30.3020   48.5910 C   0  0  0  0  0  0  0  0  0  0  0  0
   35.2190   29.7620   49.6100 N   0  0  0  0  0  0  0  0  0  0  0  0
   35.7830   29.5520   50.8420 C   0  0  0  0  0  0  0  0  0  0  0  0
   37.0780   29.8750   51.0950 N   0  0  0  0  0  0  0  0  0  0  0  0
   34.9560   28.9770   51.8640 N   0  0  0  0  0  0  0  0  0  0  0  0
   38.2360   33.5210   49.0880 Cl  0  0  0  0  0  0  0  0  0  0  0  0
   38.6920   32.5020   47.7550 C   0  0  0  0  0  0  0  0  0  0  0  0
   38.1760   31.2440   47.8290 C   0  0  0  0  0  0  0  0  0  0  0  0
   38.4860   30.3360   46.8050 C   0  0  0  0  0  0  0  0  0  0  0  0
   39.2790   30.6690   45.7480 C   0  0  0  0  0  0  0  0  0  0  0  0
   39.7930   31.9680   45.7050 C   0  0  0  0  0  0  0  0  0  0  0  0
   40.8210   32.4560   44.3900 Cl  0  0  0  0  0  0  0  0  0  0  0  0
   39.4910   32.8570   46.7040 C   0  0  0  0  0  0  0  0  0  0  0  0
   35.4020   30.5500   47.2660 C   0  0  0  0  0  0  0  0  0  0  0  0
   35.7950   30.7270   44.2420 Br  0  0  0  0  0  0  0  0  0  0  0  0
   34.8560   29.3420   45.1990 C   0  0  0  0  0  0  0  0  0  0  0  0
   34.7790   29.4130   46.5820 C   0  0  0  0  0  0  0  0  0  0  0  0
   34.1120   28.4200   47.2910 C   0  0  0  0  0  0  0  0  0  0  0  0
   33.5160   27.3520   46.6320 C   0  0  0  0  0  0  0  0  0  0  0  0
   33.5990   27.2930   45.2580 C   0  0  0  0  0  0  0  0  0  0  0  0
   34.2640   28.2790   44.5280 C   0  0  0  0  0  0  0  0  0  0  0  0
   38.8671   30.6690   50.3288 H   0  0  0  0  0  0  0  0  0  0  0  0
   35.3429   28.8037   52.8027 H   0  0  0  0  0  0  0  0  0  0  0  0
   33.9755   28.7375   51.6589 H   0  0  0  0  0  0  0  0  0  0  0  0
   38.0736   29.3176   46.8575 H   0  0  0  0  0  0  0  0  0  0  0  0
   39.5067   29.9405   44.9559 H   0  0  0  0  0  0  0  0  0  0  0  0
   39.9001   33.8771   46.6590 H   0  0  0  0  0  0  0  0  0  0  0  0
   34.6440   31.3424   47.3533 H   0  0  0  0  0  0  0  0  0  0  0  0
   36.2747   30.8142   46.6507 H   0  0  0  0  0  0  0  0  0  0  0  0
   34.0555   28.4809   48.3879 H   0  0  0  0  0  0  0  0  0  0  0  0
   32.9882   26.5689   47.1961 H   0  0  0  0  0  0  0  0  0  0  0  0
   33.1316   26.4515   44.7256 H   0  0  0  0  0  0  0  0  0  0  0  0
   34.3190   28.2153   43.4312 H   0  0  0  0  0  0  0  0  0  0  0  0
  1  6  2  0
  2  1  1  0
  3  2  2  0
  3  4  1  0
  4  5  2  0
  5  6  1  0
  5  7  1  0
  9 10  2  0
  9  8  1  0
 10  2  1  0
 11 10  1  0
 12 11  2  0
 13 12  1  0
 13 15  2  0
 14 13  1  0
 15  9  1  0
 16  3  1  0
 17 18  1  0
 18 19  2  0
 19 16  1  0
 19 20  1  0
 21 20  2  0
 22 21  1  0
 23 18  1  0
 23 22  2  0
  1 24  1  0
  7 25  1  0
  7 26  1  0
 11 27  1  0
 12 28  1  0
 15 29  1  0
 16 30  1  0
 16 31  1  0
 20 32  1  0
 21 33  1  0
 22 34  1  0
 23 35  1  0
M  ISO  8  24  14  27  14  28  14  29  14  30   8  31   8  32  14  33  14
M  ISO  2  34  14  35  14
M  END
>  <minimizedAffinity>  (1) 
-5.83431005

>  <minimizedRMSD>  (1) 
1.74840236

$$$$
