
     RDKit          3D

 38 40  0  0  0  0  0  0  0  0999 V2000
   37.8520   30.3150   50.0680 C   0  0  0  0  0  0  0  0  0  0  0  0
   37.2880   30.6060   48.8400 C   0  0  0  0  0  0  0  0  0  0  0  0
   35.9110   30.3380   48.6120 C   0  0  0  0  0  0  0  0  0  0  0  0
   35.2200   29.8030   49.6350 N   0  0  0  0  0  0  0  0  0  0  0  0
   35.8020   29.5260   50.8420 C   0  0  0  0  0  0  0  0  0  0  0  0
   37.1040   29.7840   51.0410 N   0  0  0  0  0  0  0  0  0  0  0  0
   34.9790   28.9630   51.8650 N   0  0  0  0  0  0  0  0  0  0  0  0
   38.2960   33.4690   49.0810 Cl  0  0  0  0  0  0  0  0  0  0  0  0
   38.6980   32.4540   47.7270 C   0  0  0  0  0  0  0  0  0  0  0  0
   38.1590   31.1980   47.8020 C   0  0  0  0  0  0  0  0  0  0  0  0
   38.4400   30.3080   46.7570 C   0  0  0  0  0  0  0  0  0  0  0  0
   39.2090   30.6420   45.6980 C   0  0  0  0  0  0  0  0  0  0  0  0
   39.7450   31.9240   45.6430 C   0  0  0  0  0  0  0  0  0  0  0  0
   40.7450   32.4140   44.3020 Cl  0  0  0  0  0  0  0  0  0  0  0  0
   39.4850   32.7970   46.6420 C   0  0  0  0  0  0  0  0  0  0  0  0
   35.3380   30.6730   47.3120 C   0  0  0  0  0  0  0  0  0  0  0  0
   34.8950   29.3230   45.1840 C   0  0  0  0  0  0  0  0  0  0  0  0
   34.8110   29.5140   46.5490 C   0  0  0  0  0  0  0  0  0  0  0  0
   34.1890   28.4910   47.2580 C   0  0  0  0  0  0  0  0  0  0  0  0
   33.6680   27.3370   46.7230 C   0  0  0  0  0  0  0  0  0  0  0  0
   33.7640   27.1650   45.3500 C   0  0  0  0  0  0  0  0  0  0  0  0
   34.3800   28.1750   44.6310 C   0  0  0  0  0  0  0  0  0  0  0  0
   35.6310   30.5640   44.2220 S   0  0  0  0  0  0  0  0  0  0  0  0
   36.6110   29.9190   43.2430 O   0  0  0  0  0  0  0  0  0  0  0  0
   34.6450   31.2900   43.3510 O   0  0  0  0  0  0  0  0  0  0  0  0
   38.9180   30.5206   50.2451 H   0  0  0  0  0  0  0  0  0  0  0  0
   35.3822   28.7413   52.7865 H   0  0  0  0  0  0  0  0  0  0  0  0
   33.9824   28.7788   51.6811 H   0  0  0  0  0  0  0  0  0  0  0  0
   38.0162   29.2939   46.8009 H   0  0  0  0  0  0  0  0  0  0  0  0
   39.4071   29.9154   44.8962 H   0  0  0  0  0  0  0  0  0  0  0  0
   39.9116   33.8096   46.5907 H   0  0  0  0  0  0  0  0  0  0  0  0
   34.5117   31.3809   47.4739 H   0  0  0  0  0  0  0  0  0  0  0  0
   36.1572   31.0941   46.7107 H   0  0  0  0  0  0  0  0  0  0  0  0
   34.1066   28.6175   48.3476 H   0  0  0  0  0  0  0  0  0  0  0  0
   33.1922   26.5774   47.3606 H   0  0  0  0  0  0  0  0  0  0  0  0
   33.3683   26.2661   44.8545 H   0  0  0  0  0  0  0  0  0  0  0  0
   34.4631   28.0500   43.5413 H   0  0  0  0  0  0  0  0  0  0  0  0
   36.2143   31.4332   45.1058 H   0  0  0  0  0  0  0  0  0  0  0  0
  1  6  2  0
  2  1  1  0
  3  2  2  0
  3  4  1  0
  4  5  2  0
  5  6  1  0
  5  7  1  0
  9 10  2  0
  9  8  1  0
 10  2  1  0
 11 10  1  0
 12 11  2  0
 13 12  1  0
 13 15  2  0
 14 13  1  0
 15  9  1  0
 16  3  1  0
 17 18  2  0
 18 19  1  0
 18 16  1  0
 20 19  2  0
 21 20  1  0
 22 17  1  0
 22 21  2  0
 23 17  1  0
 24 23  2  0
 25 23  2  0
  1 26  1  0
  7 27  1  0
  7 28  1  0
 11 29  1  0
 12 30  1  0
 15 31  1  0
 16 32  1  0
 16 33  1  0
 19 34  1  0
 20 35  1  0
 21 36  1  0
 22 37  1  0
 23 38  1  0
M  ISO  8  26  14  29  14  30  14  31  14  32   8  33   8  34  14  35  14
M  ISO  3  36  14  37  14  38  11
M  END
>  <minimizedAffinity>  (1) 
-5.69805574

>  <minimizedRMSD>  (1) 
1.81112528

$$$$
