
     RDKit          3D

 23 24  0  0  0  0  0  0  0  0999 V2000
   36.3820   29.7560   49.7890 C   0  0  0  0  0  0  0  0  0  0  0  0
   37.2650   30.5000   49.0040 C   0  0  0  0  0  0  0  0  0  0  0  0
   36.9340   30.8020   47.6880 C   0  0  0  0  0  0  0  0  0  0  0  0
   35.7320   30.3380   47.2410 N   0  0  0  0  0  0  0  0  0  0  0  0
   34.9020   29.6250   48.0130 C   0  0  0  0  0  0  0  0  0  0  0  0
   35.2280   29.3380   49.2810 N   0  0  0  0  0  0  0  0  0  0  0  0
   36.3030   30.5410   44.8330 Cl  0  0  0  0  0  0  0  0  0  0  0  0
   37.6130   31.5260   45.4720 C   0  0  0  0  0  0  0  0  0  0  0  0
   37.8080   31.5670   46.8360 C   0  0  0  0  0  0  0  0  0  0  0  0
   38.8510   32.3560   47.2660 C   0  0  0  0  0  0  0  0  0  0  0  0
   39.6290   33.0510   46.3370 C   0  0  0  0  0  0  0  0  0  0  0  0
   39.4060   32.9880   44.9760 C   0  0  0  0  0  0  0  0  0  0  0  0
   40.4030   33.8710   43.8480 Cl  0  0  0  0  0  0  0  0  0  0  0  0
   38.3600   32.1970   44.5290 C   0  0  0  0  0  0  0  0  0  0  0  0
   36.7710   29.4500   51.2020 C   0  0  0  0  0  0  0  0  0  0  0  0
   35.6290   29.1110   51.9230 F   0  0  0  0  0  0  0  0  0  0  0  0
   37.7190   28.4780   51.1800 F   0  0  0  0  0  0  0  0  0  0  0  0
   37.2540   30.6330   51.7660 F   0  0  0  0  0  0  0  0  0  0  0  0
   38.2201   30.8463   49.4258 H   0  0  0  0  0  0  0  0  0  0  0  0
   33.9443   29.2718   47.6029 H   0  0  0  0  0  0  0  0  0  0  0  0
   39.0716   32.4391   48.3404 H   0  0  0  0  0  0  0  0  0  0  0  0
   40.4556   33.6759   46.7061 H   0  0  0  0  0  0  0  0  0  0  0  0
   38.1335   32.1078   43.4563 H   0  0  0  0  0  0  0  0  0  0  0  0
  1 15  1  0
  2  1  2  0
  3  2  1  0
  4  3  2  0
  4  5  1  0
  5  6  2  0
  6  1  1  0
  7  8  1  0
  8  9  2  0
  9 10  1  0
  9  3  1  0
 11 10  2  0
 12 11  1  0
 13 12  1  0
 14 12  2  0
 14  8  1  0
 15 18  1  0
 15 16  1  0
 17 15  1  0
  2 19  1  0
  5 20  1  0
 10 21  1  0
 11 22  1  0
 14 23  1  0
M  ISO  5  19  14  20  14  21  14  22  14  23  14
M  END
>  <minimizedAffinity>  (1) 
-5.84859705

>  <minimizedRMSD>  (1) 
3.10424304

$$$$
