
     RDKit          3D

 27 28  0  0  0  0  0  0  0  0999 V2000
   36.8080   29.9810   49.3750 C   0  0  0  0  0  0  0  0  0  0  0  0
   37.9570   30.4860   48.7710 C   0  0  0  0  0  0  0  0  0  0  0  0
   37.8750   30.8810   47.4230 C   0  0  0  0  0  0  0  0  0  0  0  0
   36.6790   30.7470   46.7930 N   0  0  0  0  0  0  0  0  0  0  0  0
   35.5850   30.2490   47.4250 C   0  0  0  0  0  0  0  0  0  0  0  0
   35.6610   29.8710   48.7090 N   0  0  0  0  0  0  0  0  0  0  0  0
   39.0120   31.4040   46.7480 N   0  0  0  0  0  0  0  0  0  0  0  0
   39.5100   32.7270   46.9650 C   0  0  0  0  0  0  0  0  0  0  0  0
   39.8280   33.4650   45.6980 C   0  0  0  0  0  0  0  0  0  0  0  0
   40.3380   32.6220   44.6500 N   0  0  0  0  0  0  0  0  0  0  0  0
   40.8110   31.3440   45.1120 C   0  0  0  0  0  0  0  0  0  0  0  0
   39.7080   30.5950   45.8020 C   0  0  0  0  0  0  0  0  0  0  0  0
   36.9060   29.5630   50.8100 C   0  0  0  0  0  0  0  0  0  0  0  0
   35.6490   29.2040   51.2850 F   0  0  0  0  0  0  0  0  0  0  0  0
   37.8130   28.5340   50.8870 F   0  0  0  0  0  0  0  0  0  0  0  0
   37.3290   30.6570   51.5470 F   0  0  0  0  0  0  0  0  0  0  0  0
   38.8999   30.5734   49.3308 H   0  0  0  0  0  0  0  0  0  0  0  0
   34.6332   30.1555   46.8815 H   0  0  0  0  0  0  0  0  0  0  0  0
   38.7501   33.2981   47.5186 H   0  0  0  0  0  0  0  0  0  0  0  0
   40.4512   32.6292   47.5259 H   0  0  0  0  0  0  0  0  0  0  0  0
   38.9081   33.9488   45.3378 H   0  0  0  0  0  0  0  0  0  0  0  0
   40.6179   34.1917   45.9390 H   0  0  0  0  0  0  0  0  0  0  0  0
   41.1197   33.1111   44.1910 H   0  0  0  0  0  0  0  0  0  0  0  0
   41.1652   30.7564   44.2522 H   0  0  0  0  0  0  0  0  0  0  0  0
   41.6331   31.5047   45.8250 H   0  0  0  0  0  0  0  0  0  0  0  0
   38.9926   30.2422   45.0445 H   0  0  0  0  0  0  0  0  0  0  0  0
   40.1626   29.7554   46.3482 H   0  0  0  0  0  0  0  0  0  0  0  0
  1 13  1  0
  2  1  2  0
  3  2  1  0
  4  3  2  0
  4  5  1  0
  5  6  2  0
  6  1  1  0
  7  8  1  0
  7  3  1  0
  9  8  1  0
 10 11  1  0
 10  9  1  0
 11 12  1  0
 12  7  1  0
 13 15  1  0
 13 14  1  0
 13 16  1  0
  2 17  1  0
  5 18  1  0
  8 19  1  0
  8 20  1  0
  9 21  1  0
  9 22  1  0
 10 23  1  0
 11 24  1  0
 11 25  1  0
 12 26  1  0
 12 27  1  0
M  ISO  8  17  14  18  14  19  13  20  13  21  13  22  13  23   5  24  13
M  ISO  3  25  13  26  13  27  13
M  END
>  <minimizedAffinity>  (1) 
-5.80288744

>  <minimizedRMSD>  (1) 
2.43567634

$$$$
