
     RDKit          3D

 50 54  0  0  1  0  0  0  0  0999 V2000
   40.2750   31.0600   43.8590 C   0  0  0  0  0  0  0  0  0  0  0  0
   39.4520   28.7730   43.3830 C   0  0  0  0  0  0  0  0  0  0  0  0
   40.2120   29.8550   42.9700 C   0  0  0  0  0  0  0  0  0  0  0  0
   40.8960   29.8040   41.7500 C   0  0  0  0  0  0  0  0  0  0  0  0
   40.8220   28.6850   40.9520 C   0  0  0  0  0  0  0  0  0  0  0  0
   41.3720   28.3950   39.7650 N   0  0  0  0  0  0  0  0  0  0  0  0
   40.9650   27.1490   39.4340 C   0  0  0  0  0  0  0  0  0  0  0  0
   40.1480   26.6040   40.3910 C   0  0  0  0  0  0  0  0  0  0  0  0
   40.0580   27.5980   41.3670 C   0  0  0  0  0  0  0  0  0  0  0  0
   39.3890   27.6550   42.5660 C   0  0  0  0  0  0  0  0  0  0  0  0
   38.6250   26.5130   42.9380 N   0  0  0  0  0  0  0  0  0  0  0  0
   39.0030   25.3800   43.5180 C   0  0  0  0  0  0  0  0  0  0  0  0
   38.0730   24.4030   43.7840 C   0  0  0  0  0  0  0  0  0  0  0  0
   36.7370   24.5490   43.4700 C   0  0  0  0  0  0  0  0  0  0  0  0
   35.8920   23.6540   43.7140 O   0  0  0  0  0  0  0  0  0  0  0  0
   36.4020   25.7230   42.8780 N   0  0  0  0  0  0  0  0  0  0  0  0
   37.3100   26.6840   42.6150 C   0  0  0  0  0  0  0  0  0  0  0  0
   36.8090   27.7050   42.0630 O   0  0  0  0  0  0  0  0  0  0  0  0
   39.5880   30.7050   45.1630 C   0  0  0  0  0  0  0  0  0  0  0  0
   38.8320   32.3980   46.8770 C   0  0  1  0  0  0  0  0  0  0  0  0
   39.9740   33.0810   46.1610 C   0  0  0  0  0  0  0  0  0  0  0  0
   39.9270   31.6100   46.2880 C   0  0  2  0  0  0  0  0  0  0  0  0
   38.7450   32.6580   48.3480 C   0  0  0  0  0  0  0  0  0  0  0  0
   37.4720   30.2410   50.9090 C   0  0  0  0  0  0  0  0  0  0  0  0
   38.2940   31.1940   50.2330 C   0  0  0  0  0  0  0  0  0  0  0  0
   37.8790   31.6750   49.0240 C   0  0  0  0  0  0  0  0  0  0  0  0
   36.7160   31.2260   48.5330 N   0  0  0  0  0  0  0  0  0  0  0  0
   35.9450   30.3350   49.1640 C   0  0  0  0  0  0  0  0  0  0  0  0
   36.3370   29.8530   50.3490 N   0  0  0  0  0  0  0  0  0  0  0  0
   39.7587   31.9058   43.3813 H   0  0  0  0  0  0  0  0  0  0  0  0
   41.3200   31.3518   44.0402 H   0  0  0  0  0  0  0  0  0  0  0  0
   38.9097   28.8004   44.3396 H   0  0  0  0  0  0  0  0  0  0  0  0
   41.4980   30.6658   41.4261 H   0  0  0  0  0  0  0  0  0  0  0  0
   41.9882   29.0058   39.2099 H   0  0  0  0  0  0  0  0  0  0  0  0
   41.2549   26.6333   38.5066 H   0  0  0  0  0  0  0  0  0  0  0  0
   39.6729   25.6119   40.3899 H   0  0  0  0  0  0  0  0  0  0  0  0
   40.0585   25.2233   43.7852 H   0  0  0  0  0  0  0  0  0  0  0  0
   38.4058   23.4711   44.2645 H   0  0  0  0  0  0  0  0  0  0  0  0
   35.4182   25.8858   42.6202 H   0  0  0  0  0  0  0  0  0  0  0  0
   38.5004   30.7441   45.0030 H   0  0  0  0  0  0  0  0  0  0  0  0
   39.9383   29.7011   45.4448 H   0  0  0  0  0  0  0  0  0  0  0  0
   37.7373   32.3293   46.7941 H   0  0  0  0  0  0  0  0  0  0  0  0
   40.7150   33.6615   46.7301 H   0  0  0  0  0  0  0  0  0  0  0  0
   40.0622   33.7931   45.3273 H   0  0  0  0  0  0  0  0  0  0  0  0
   40.6717   30.8809   46.6398 H   0  0  0  0  0  0  0  0  0  0  0  0
   39.7547   32.6009   48.7807 H   0  0  0  0  0  0  0  0  0  0  0  0
   38.3098   33.6575   48.4949 H   0  0  0  0  0  0  0  0  0  0  0  0
   37.7788   29.8342   51.8839 H   0  0  0  0  0  0  0  0  0  0  0  0
   39.2415   31.5333   50.6770 H   0  0  0  0  0  0  0  0  0  0  0  0
   34.9983   30.0015   48.7139 H   0  0  0  0  0  0  0  0  0  0  0  0
  1 19  1  0
  3  2  2  0
  3  1  1  0
  4  3  1  0
  5  9  1  0
  5  4  2  0
  6  5  1  0
  7  6  1  0
  7  8  2  0
  8  9  1  0
  9 10  2  0
 10 11  1  0
 10  2  1  0
 11 12  1  0
 12 13  2  0
 14 15  2  0
 14 13  1  0
 16 14  1  0
 17 16  1  0
 17 11  1  0
 18 17  2  0
 19 22  1  0
 20 23  1  0
 21 22  1  0
 21 20  1  0
 22 20  1  0
 23 26  1  0
 25 24  2  0
 26 25  1  0
 27 26  2  0
 27 28  1  0
 28 29  2  0
 29 24  1  0
  1 30  1  0
  1 31  1  0
  2 32  1  0
  4 33  1  0
  6 34  1  0
  7 35  1  0
  8 36  1  0
 12 37  1  0
 13 38  1  0
 16 39  1  0
 19 40  1  0
 19 41  1  0
 20 42  1  6
 21 43  1  0
 21 44  1  0
 22 45  1  1
 23 46  1  0
 23 47  1  0
 24 48  1  0
 25 49  1  0
 28 50  1  0
M  ISO  8  30   8  31   8  32  14  33  14  34   9  35  14  36  14  37  14
M  ISO  8  38  14  39   9  40   8  41   8  42  13  43  13  44  13  45  13
M  ISO  5  46   8  47   8  48  14  49  14  50  14
M  END
>  <minimizedAffinity>  (1) 
-6.12637424

>  <minimizedRMSD>  (1) 
0.859418869

$$$$
