
     RDKit          3D

 20 21  0  0  0  0  0  0  0  0999 V2000
   36.6800   29.8620   49.6150 C   0  0  0  0  0  0  0  0  0  0  0  0
   37.7530   30.4660   48.9570 C   0  0  0  0  0  0  0  0  0  0  0  0
   37.5810   30.8230   47.6100 C   0  0  0  0  0  0  0  0  0  0  0  0
   36.3800   30.5580   47.0290 N   0  0  0  0  0  0  0  0  0  0  0  0
   35.3660   29.9700   47.7060 C   0  0  0  0  0  0  0  0  0  0  0  0
   35.5330   29.6300   48.9900 N   0  0  0  0  0  0  0  0  0  0  0  0
   38.6610   31.4510   46.8860 C   0  0  0  0  0  0  0  0  0  0  0  0
   39.4530   30.8060   45.9600 C   0  0  0  0  0  0  0  0  0  0  0  0
   40.3470   31.7890   45.5260 C   0  0  0  0  0  0  0  0  0  0  0  0
   40.0370   32.9630   46.2160 C   0  0  0  0  0  0  0  0  0  0  0  0
   39.0240   32.6890   47.0080 O   0  0  0  0  0  0  0  0  0  0  0  0
   36.8560   29.4800   51.0450 C   0  0  0  0  0  0  0  0  0  0  0  0
   35.6290   29.1300   51.5960 F   0  0  0  0  0  0  0  0  0  0  0  0
   37.7950   28.4990   51.1280 F   0  0  0  0  0  0  0  0  0  0  0  0
   37.2890   30.6240   51.7280 F   0  0  0  0  0  0  0  0  0  0  0  0
   38.7032   30.6562   49.4774 H   0  0  0  0  0  0  0  0  0  0  0  0
   34.4080   29.7722   47.2028 H   0  0  0  0  0  0  0  0  0  0  0  0
   39.3946   29.7563   45.6363 H   0  0  0  0  0  0  0  0  0  0  0  0
   41.1456   31.6617   44.7803 H   0  0  0  0  0  0  0  0  0  0  0  0
   40.5446   33.9337   46.1157 H   0  0  0  0  0  0  0  0  0  0  0  0
  1 12  1  0
  2  1  2  0
  3  2  1  0
  4  3  2  0
  4  5  1  0
  5  6  2  0
  6  1  1  0
  7 11  1  0
  7  3  1  0
  8  7  2  0
  9  8  1  0
  9 10  2  0
 10 11  1  0
 12 14  1  0
 12 13  1  0
 12 15  1  0
  2 16  1  0
  5 17  1  0
  8 18  1  0
  9 19  1  0
 10 20  1  0
M  ISO  5  16  14  17  14  18  14  19  14  20  14
M  END
>  <minimizedAffinity>  (1) 
-5.56319046

>  <minimizedRMSD>  (1) 
2.26078796

$$$$
