
     RDKit          3D

 16 16  0  0  0  0  0  0  0  0999 V2000
   37.4080   30.2460   49.9600 C   0  0  0  0  0  0  0  0  0  0  0  0
   38.0410   31.4820   50.1020 C   0  0  0  0  0  0  0  0  0  0  0  0
   38.2940   32.2400   48.9450 C   0  0  0  0  0  0  0  0  0  0  0  0
   37.9070   31.7260   47.7500 N   0  0  0  0  0  0  0  0  0  0  0  0
   37.2920   30.5200   47.6490 C   0  0  0  0  0  0  0  0  0  0  0  0
   37.0550   29.8050   48.7510 N   0  0  0  0  0  0  0  0  0  0  0  0
   37.1420   29.4460   51.1870 C   0  0  0  0  0  0  0  0  0  0  0  0
   35.7820   29.1940   51.3000 F   0  0  0  0  0  0  0  0  0  0  0  0
   37.9090   28.3030   51.1180 F   0  0  0  0  0  0  0  0  0  0  0  0
   37.5080   30.2280   52.2810 F   0  0  0  0  0  0  0  0  0  0  0  0
   38.9710   33.5670   49.0580 C   0  0  0  0  0  0  0  0  0  0  0  0
   39.7840   33.7960   47.9430 F   0  0  0  0  0  0  0  0  0  0  0  0
   39.6910   33.6790   50.2290 F   0  0  0  0  0  0  0  0  0  0  0  0
   37.9930   34.5410   49.0330 F   0  0  0  0  0  0  0  0  0  0  0  0
   38.3347   31.8539   51.0947 H   0  0  0  0  0  0  0  0  0  0  0  0
   36.9905   30.1340   46.6641 H   0  0  0  0  0  0  0  0  0  0  0  0
  1  2  2  0
  1  7  1  0
  3 11  1  0
  3  2  1  0
  4  3  2  0
  5  4  1  0
  5  6  2  0
  6  1  1  0
  7  8  1  0
  7 10  1  0
  9  7  1  0
 11 13  1  0
 12 11  1  0
 14 11  1  0
  2 15  1  0
  5 16  1  0
M  ISO  2  15  14  16  14
M  END
>  <minimizedAffinity>  (1) 
-5.55173016

>  <minimizedRMSD>  (1) 
0.652091205

$$$$
