
     RDKit          3D

 15 15  0  0  0  0  0  0  0  0999 V2000
   37.3470   30.3050   49.9650 C   0  0  0  0  0  0  0  0  0  0  0  0
   38.0830   31.4920   50.1000 C   0  0  0  0  0  0  0  0  0  0  0  0
   38.3010   32.2690   48.9530 C   0  0  0  0  0  0  0  0  0  0  0  0
   37.7780   31.8170   47.7750 N   0  0  0  0  0  0  0  0  0  0  0  0
   37.0820   30.6740   47.6990 C   0  0  0  0  0  0  0  0  0  0  0  0
   36.8590   29.9130   48.7740 N   0  0  0  0  0  0  0  0  0  0  0  0
   39.0460   33.4710   49.0950 N   0  0  0  0  0  0  0  0  0  0  0  0
   37.1190   29.4710   51.1960 C   0  0  0  0  0  0  0  0  0  0  0  0
   35.7790   29.2120   51.3350 F   0  0  0  0  0  0  0  0  0  0  0  0
   37.8980   28.3410   51.0620 F   0  0  0  0  0  0  0  0  0  0  0  0
   37.5170   30.2270   52.2800 F   0  0  0  0  0  0  0  0  0  0  0  0
   38.4779   31.8043   51.0780 H   0  0  0  0  0  0  0  0  0  0  0  0
   36.6836   30.3539   46.7249 H   0  0  0  0  0  0  0  0  0  0  0  0
   39.2250   34.0660   48.2735 H   0  0  0  0  0  0  0  0  0  0  0  0
   39.4069   33.7471   50.0194 H   0  0  0  0  0  0  0  0  0  0  0  0
  1  2  2  0
  1  8  1  0
  3  7  1  0
  3  2  1  0
  4  3  2  0
  5  4  1  0
  5  6  2  0
  6  1  1  0
  8  9  1  0
  8 11  1  0
 10  8  1  0
  2 12  1  0
  5 13  1  0
  7 14  1  0
  7 15  1  0
M  ISO  2  12  14  13  14
M  END
>  <minimizedAffinity>  (1) 
-4.75285101

>  <minimizedRMSD>  (1) 
0.238771364

$$$$
