
     RDKit          3D

 27 28  0  0  0  0  0  0  0  0999 V2000
   38.3740   32.5120   47.8670 Cl  0  0  0  0  0  0  0  0  0  0  0  0
   37.7020   31.7420   46.4180 C   0  0  0  0  0  0  0  0  0  0  0  0
   36.6910   30.7920   46.4800 C   0  0  0  0  0  0  0  0  0  0  0  0
   36.2750   30.2900   45.2950 C   0  0  0  0  0  0  0  0  0  0  0  0
   36.8020   30.6760   44.0930 C   0  0  0  0  0  0  0  0  0  0  0  0
   37.8120   31.6240   44.0100 C   0  0  0  0  0  0  0  0  0  0  0  0
   38.2430   32.1420   45.2160 C   0  0  0  0  0  0  0  0  0  0  0  0
   36.5160   29.8900   50.1150 C   0  0  0  0  0  0  0  0  0  0  0  0
   37.0270   30.2400   48.8680 C   0  0  0  0  0  0  0  0  0  0  0  0
   36.1810   30.4310   47.7800 C   0  0  0  0  0  0  0  0  0  0  0  0
   34.8470   30.2530   48.0220 N   0  0  0  0  0  0  0  0  0  0  0  0
   34.3650   29.9170   49.2260 C   0  0  0  0  0  0  0  0  0  0  0  0
   35.2090   29.7400   50.2590 N   0  0  0  0  0  0  0  0  0  0  0  0
   37.4640   29.6930   51.2650 C   0  0  0  0  0  0  0  0  0  0  0  0
   36.8060   29.9330   52.4530 F   0  0  0  0  0  0  0  0  0  0  0  0
   37.9960   28.4340   51.1450 F   0  0  0  0  0  0  0  0  0  0  0  0
   38.4660   30.6560   51.1420 F   0  0  0  0  0  0  0  0  0  0  0  0
   40.7070   33.0560   45.2050 C   0  0  0  0  0  0  0  0  0  0  0  0
   41.1880   31.9000   45.3240 O   0  0  0  0  0  0  0  0  0  0  0  0
   39.2880   33.1260   45.1570 N   0  0  0  0  0  0  0  0  0  0  0  0
   35.4747   29.5353   45.2979 H   0  0  0  0  0  0  0  0  0  0  0  0
   36.4151   30.2231   43.1682 H   0  0  0  0  0  0  0  0  0  0  0  0
   38.2408   31.9418   43.0482 H   0  0  0  0  0  0  0  0  0  0  0  0
   38.1123   30.3670   48.7415 H   0  0  0  0  0  0  0  0  0  0  0  0
   33.2823   29.7862   49.3697 H   0  0  0  0  0  0  0  0  0  0  0  0
   41.3415   33.9524   45.1423 H   0  0  0  0  0  0  0  0  0  0  0  0
   38.9332   34.0880   45.0589 H   0  0  0  0  0  0  0  0  0  0  0  0
  2  3  2  0
  2  1  1  0
  3 10  1  0
  4  3  1  0
  5  4  2  0
  6  5  1  0
  6  7  2  0
  7  2  1  0
  8 13  2  0
  8 14  1  0
  9  8  1  0
 10 11  1  0
 10  9  2  0
 11 12  2  0
 12 13  1  0
 14 15  1  0
 16 14  1  0
 17 14  1  0
 18 19  2  0
 20 18  1  0
 20  7  1  0
  4 21  1  0
  5 22  1  0
  6 23  1  0
  9 24  1  0
 12 25  1  0
 18 26  1  0
 20 27  1  0
M  ISO  6  21  14  22  14  23  14  24  14  25  14  26   6
M  END
>  <minimizedAffinity>  (1) 
-6.18586063

>  <minimizedRMSD>  (1) 
2.06782866

$$$$
