
     RDKit          3D

 27 28  0  0  1  0  0  0  0  0999 V2000
   36.9330   30.7880   48.7530 C   0  0  0  0  0  0  0  0  0  0  0  0
   35.9720   30.1160   49.5230 C   0  0  0  0  0  0  0  0  0  0  0  0
   36.2940   29.8470   50.8460 C   0  0  0  0  0  0  0  0  0  0  0  0
   37.5040   30.2350   51.3360 N   0  0  0  0  0  0  0  0  0  0  0  0
   38.4050   30.8810   50.5600 C   0  0  0  0  0  0  0  0  0  0  0  0
   38.1290   31.1670   49.2560 N   0  0  0  0  0  0  0  0  0  0  0  0
   34.7060   29.7430   48.9190 C   0  0  2  0  0  0  0  0  0  0  0  0
   33.6890   29.1750   49.8890 C   0  0  0  0  0  0  0  0  0  0  0  0
   32.9690   28.1610   48.9990 C   0  0  0  0  0  0  0  0  0  0  0  0
   33.5450   28.2690   47.7280 O   0  0  0  0  0  0  0  0  0  0  0  0
   34.9060   28.4890   48.0520 C   0  0  0  0  0  0  0  0  0  0  0  0
   36.7580   31.1270   47.4160 O   0  0  0  0  0  0  0  0  0  0  0  0
   39.0990   30.6650   46.1550 O   0  0  0  0  0  0  0  0  0  0  0  0
   38.0530   31.7180   46.4460 P   0  0  0  0  0  0  0  0  0  0  0  0
   37.3380   32.2600   45.0030 O   0  0  0  0  0  0  0  0  0  0  0  0
   38.8350   32.9880   47.2390 O   0  0  0  0  0  0  0  0  0  0  0  0
   35.5763   29.3236   51.4948 H   0  0  0  0  0  0  0  0  0  0  0  0
   39.3736   31.1795   50.9874 H   0  0  0  0  0  0  0  0  0  0  0  0
   34.3764   30.6713   48.4295 H   0  0  0  0  0  0  0  0  0  0  0  0
   34.1769   28.6860   50.7451 H   0  0  0  0  0  0  0  0  0  0  0  0
   33.0283   29.9273   50.3444 H   0  0  0  0  0  0  0  0  0  0  0  0
   33.1069   27.1435   49.3936 H   0  0  0  0  0  0  0  0  0  0  0  0
   31.8876   28.3593   48.9640 H   0  0  0  0  0  0  0  0  0  0  0  0
   35.3418   27.6532   48.6189 H   0  0  0  0  0  0  0  0  0  0  0  0
   35.5991   28.5884   47.2036 H   0  0  0  0  0  0  0  0  0  0  0  0
   36.5675   32.8441   45.2156 H   0  0  0  0  0  0  0  0  0  0  0  0
   38.7580   32.8630   48.2181 H   0  0  0  0  0  0  0  0  0  0  0  0
  1  6  2  0
  1  2  1  0
  2  3  2  0
  3  4  1  0
  5  4  2  0
  6  5  1  0
  7  2  1  0
  7  8  1  0
  9  8  1  0
 10 11  1  0
 10  9  1  0
 11  7  1  0
 12  1  1  0
 13 14  2  0
 14 16  1  0
 14 12  1  0
 15 14  1  0
  3 17  1  0
  5 18  1  0
  7 19  1  6
  8 20  1  0
  8 21  1  0
  9 22  1  0
  9 23  1  0
 11 24  1  0
 11 25  1  0
 15 26  1  0
 16 27  1  0
M  ISO  8  17  14  18  14  19  13  20  13  21  13  22  13  23  13  24  13
M  ISO  3  25  13  26   3  27   3
M  END
>  <minimizedAffinity>  (1) 
-4.80487204

>  <minimizedRMSD>  (1) 
3.23396039

$$$$
