
     RDKit          3D

 18 18  0  0  0  0  0  0  0  0999 V2000
   35.9910   30.8790   49.4810 C   0  0  0  0  0  0  0  0  0  0  0  0
   36.3610   30.0430   50.5300 C   0  0  0  0  0  0  0  0  0  0  0  0
   37.6480   30.0910   51.0280 C   0  0  0  0  0  0  0  0  0  0  0  0
   38.5330   30.9780   50.4610 N   0  0  0  0  0  0  0  0  0  0  0  0
   38.1350   31.7900   49.4270 C   0  0  0  0  0  0  0  0  0  0  0  0
   36.8790   31.7300   48.9540 N   0  0  0  0  0  0  0  0  0  0  0  0
   35.3690   29.1520   51.0550 C   0  0  0  0  0  0  0  0  0  0  0  0
   34.1220   29.3190   50.9670 O   0  0  0  0  0  0  0  0  0  0  0  0
   34.7420   30.9300   48.8930 O   0  0  0  0  0  0  0  0  0  0  0  0
   35.5620   30.0810   46.4660 O   0  0  0  0  0  0  0  0  0  0  0  0
   34.3890   30.0860   47.4340 P   0  0  0  0  0  0  0  0  0  0  0  0
   33.9970   28.4950   47.9090 O   0  0  0  0  0  0  0  0  0  0  0  0
   33.1130   30.8250   46.6240 O   0  0  0  0  0  0  0  0  0  0  0  0
   37.9573   29.4369   51.8565 H   0  0  0  0  0  0  0  0  0  0  0  0
   38.8515   32.4961   48.9820 H   0  0  0  0  0  0  0  0  0  0  0  0
   35.7234   28.2505   51.5763 H   0  0  0  0  0  0  0  0  0  0  0  0
   33.9833   28.4396   48.8974 H   0  0  0  0  0  0  0  0  0  0  0  0
   32.4738   31.1952   47.2832 H   0  0  0  0  0  0  0  0  0  0  0  0
  1  2  2  0
  2  3  1  0
  2  7  1  0
  4  3  2  0
  5  4  1  0
  6  5  2  0
  6  1  1  0
  8  7  2  0
  9  1  1  0
 10 11  2  0
 11 12  1  0
 11  9  1  0
 13 11  1  0
  3 14  1  0
  5 15  1  0
  7 16  1  0
 12 17  1  0
 13 18  1  0
M  ISO  5  14  14  15  14  16   6  17   3  18   3
M  END
>  <minimizedAffinity>  (1) 
-3.81336832

>  <minimizedRMSD>  (1) 
0.614752352

$$$$
