
     RDKit          3D

 17 17  0  0  0  0  0  0  0  0999 V2000
   36.0350   30.9070   49.4140 C   0  0  0  0  0  0  0  0  0  0  0  0
   36.3910   30.1160   50.5230 C   0  0  0  0  0  0  0  0  0  0  0  0
   37.6950   30.2020   50.9870 C   0  0  0  0  0  0  0  0  0  0  0  0
   38.5540   31.0370   50.3550 N   0  0  0  0  0  0  0  0  0  0  0  0
   38.1840   31.7910   49.2840 C   0  0  0  0  0  0  0  0  0  0  0  0
   36.9090   31.7220   48.8130 N   0  0  0  0  0  0  0  0  0  0  0  0
   35.1470   29.0810   51.2300 S   0  0  0  0  0  0  0  0  0  0  0  0
   34.7620   30.9260   48.8360 O   0  0  0  0  0  0  0  0  0  0  0  0
   35.5850   30.1270   46.3950 O   0  0  0  0  0  0  0  0  0  0  0  0
   34.4180   30.0890   47.3810 P   0  0  0  0  0  0  0  0  0  0  0  0
   34.0740   28.4810   47.8400 O   0  0  0  0  0  0  0  0  0  0  0  0
   33.0990   30.7800   46.6070 O   0  0  0  0  0  0  0  0  0  0  0  0
   38.0247   29.6048   51.8499 H   0  0  0  0  0  0  0  0  0  0  0  0
   38.9147   32.4554   48.7996 H   0  0  0  0  0  0  0  0  0  0  0  0
   35.2228   29.1441   52.5964 H   0  0  0  0  0  0  0  0  0  0  0  0
   34.0600   28.4156   48.8277 H   0  0  0  0  0  0  0  0  0  0  0  0
   32.4583   31.1156   47.2830 H   0  0  0  0  0  0  0  0  0  0  0  0
  1  2  2  0
  2  3  1  0
  2  7  1  0
  4  3  2  0
  5  4  1  0
  6  5  2  0
  6  1  1  0
  8  1  1  0
  9 10  2  0
 10 11  1  0
 10  8  1  0
 12 10  1  0
  3 13  1  0
  5 14  1  0
  7 15  1  0
 11 16  1  0
 12 17  1  0
M  ISO  5  13  14  14  14  15  11  16   3  17   3
M  END
>  <minimizedAffinity>  (1) 
-3.36316323

>  <minimizedRMSD>  (1) 
0.679814935

$$$$
