
     RDKit          3D

 29 30  0  0  0  0  0  0  0  0999 V2000
   34.1220   27.9920   46.4260 O   0  0  0  0  0  0  0  0  0  0  0  0
   33.3090   28.7450   47.4580 P   0  0  1  0  0  0  0  0  0  0  0  0
   32.3310   29.9140   46.7140 O   0  0  0  0  0  0  0  0  0  0  0  0
   32.2450   27.7130   48.3200 O   0  0  0  0  0  0  0  0  0  0  0  0
   31.1360   27.1210   47.7200 C   0  0  0  0  0  0  0  0  0  0  0  0
   29.8370   27.6220   47.7460 C   0  0  0  0  0  0  0  0  0  0  0  0
   28.8470   26.8930   47.0880 C   0  0  0  0  0  0  0  0  0  0  0  0
   29.1820   25.7380   46.4560 N   0  0  0  0  0  0  0  0  0  0  0  0
   30.4570   25.2870   46.4540 C   0  0  0  0  0  0  0  0  0  0  0  0
   31.4420   25.9790   47.0890 N   0  0  0  0  0  0  0  0  0  0  0  0
   29.6730   28.8350   48.4500 N   0  0  0  0  0  0  0  0  0  0  0  0
   34.4090   29.4590   48.5180 O   0  0  0  0  0  0  0  0  0  0  0  0
   36.6030   30.0700   49.0410 C   0  0  0  0  0  0  0  0  0  0  0  0
   35.6180   29.9610   48.0540 C   0  0  0  0  0  0  0  0  0  0  0  0
   35.9340   30.3480   46.7600 C   0  0  0  0  0  0  0  0  0  0  0  0
   37.1910   30.8260   46.4760 C   0  0  0  0  0  0  0  0  0  0  0  0
   38.1240   30.9170   47.4700 C   0  0  0  0  0  0  0  0  0  0  0  0
   37.8740   30.5490   48.7740 C   0  0  0  0  0  0  0  0  0  0  0  0
   36.1720   29.3710   51.5120 N   0  0  0  0  0  0  0  0  0  0  0  0
   36.3590   29.6890   50.4170 C   0  0  0  0  0  0  0  0  0  0  0  0
   31.8780   30.4555   47.4080 H   0  0  0  0  0  0  0  0  0  0  0  0
   27.8063   27.2492   47.0807 H   0  0  0  0  0  0  0  0  0  0  0  0
   30.7009   24.3495   45.9328 H   0  0  0  0  0  0  0  0  0  0  0  0
   28.7420   29.2707   48.5153 H   0  0  0  0  0  0  0  0  0  0  0  0
   30.4844   29.2841   48.8982 H   0  0  0  0  0  0  0  0  0  0  0  0
   35.1800   30.2725   45.9626 H   0  0  0  0  0  0  0  0  0  0  0  0
   37.4452   31.1345   45.4512 H   0  0  0  0  0  0  0  0  0  0  0  0
   39.1227   31.3026   47.2170 H   0  0  0  0  0  0  0  0  0  0  0  0
   38.6408   30.6312   49.5583 H   0  0  0  0  0  0  0  0  0  0  0  0
  2  1  2  0
  2  4  1  0
  2 12  1  0
  3  2  1  0
  5  6  2  0
  5  4  1  0
  6 11  1  0
  7  6  1  0
  8  7  2  0
  9  8  1  0
  9 10  2  0
 10  5  1  0
 13 20  1  0
 14 12  1  0
 14 13  2  0
 15 14  1  0
 16 15  2  0
 16 17  1  0
 17 18  2  0
 18 13  1  0
 20 19  3  0
  3 21  1  0
  7 22  1  0
  9 23  1  0
 11 24  1  0
 11 25  1  0
 15 26  1  0
 16 27  1  0
 17 28  1  0
 18 29  1  0
M  ISO  7  21   3  22  14  23  14  26  14  27  14  28  14  29  14
M  END
>  <minimizedAffinity>  (1) 
-4.6765871

>  <minimizedRMSD>  (1) 
6.67291832

$$$$
