
     RDKit          3D

 31 32  0  0  1  0  0  0  0  0999 V2000
   35.0980   29.5680   46.3140 O   0  0  0  0  0  0  0  0  0  0  0  0
   34.3030   29.3350   47.5640 P   0  0  1  0  0  0  0  0  0  0  0  0
   34.6610   27.8410   48.2820 O   0  0  0  0  0  0  0  0  0  0  0  0
   34.6200   30.5270   48.7720 O   0  0  0  0  0  0  0  0  0  0  0  0
   35.8560   30.6160   49.3980 C   0  0  0  0  0  0  0  0  0  0  0  0
   36.2320   29.9830   50.5810 C   0  0  0  0  0  0  0  0  0  0  0  0
   37.5080   30.1800   51.0700 C   0  0  0  0  0  0  0  0  0  0  0  0
   38.3670   30.9890   50.3860 N   0  0  0  0  0  0  0  0  0  0  0  0
   37.9660   31.5930   49.2330 C   0  0  0  0  0  0  0  0  0  0  0  0
   36.7110   31.4090   48.7360 N   0  0  0  0  0  0  0  0  0  0  0  0
   35.2200   29.1810   51.1620 N   0  0  0  0  0  0  0  0  0  0  0  0
   32.6670   29.4110   47.1250 O   0  0  0  0  0  0  0  0  0  0  0  0
   30.8430   27.8800   46.6550 C   0  0  1  0  0  0  0  0  0  0  0  0
   32.1520   28.1300   47.3180 C   0  0  2  0  0  0  0  0  0  0  0  0
   31.9710   27.9990   48.6900 O   0  0  0  0  0  0  0  0  0  0  0  0
   30.8660   27.1770   48.8700 C   0  0  0  0  0  0  0  0  0  0  0  0
   29.9030   27.7670   47.8340 C   0  0  2  0  0  0  0  0  0  0  0  0
   30.4540   28.8790   45.7700 O   0  0  0  0  0  0  0  0  0  0  0  0
   28.8620   26.8630   47.5510 O   0  0  0  0  0  0  0  0  0  0  0  0
   34.6386   27.9346   49.2673 H   0  0  0  0  0  0  0  0  0  0  0  0
   37.8284   29.6898   52.0012 H   0  0  0  0  0  0  0  0  0  0  0  0
   38.6698   32.2426   48.6921 H   0  0  0  0  0  0  0  0  0  0  0  0
   35.4051   28.6734   52.0389 H   0  0  0  0  0  0  0  0  0  0  0  0
   34.2987   29.1052   50.7077 H   0  0  0  0  0  0  0  0  0  0  0  0
   30.8672   26.9896   46.0095 H   0  0  0  0  0  0  0  0  0  0  0  0
   32.8550   27.4089   46.8754 H   0  0  0  0  0  0  0  0  0  0  0  0
   31.1028   26.1254   48.6509 H   0  0  0  0  0  0  0  0  0  0  0  0
   30.4747   27.1557   49.8978 H   0  0  0  0  0  0  0  0  0  0  0  0
   29.4030   28.7002   48.1326 H   0  0  0  0  0  0  0  0  0  0  0  0
   30.1461   29.6699   46.2797 H   0  0  0  0  0  0  0  0  0  0  0  0
   28.4762   26.5280   48.3990 H   0  0  0  0  0  0  0  0  0  0  0  0
  2  1  2  0
  2  3  1  0
  2  4  1  0
  4  5  1  0
  5  6  2  0
  6  7  1  0
  6 11  1  0
  8  7  2  0
  9  8  1  0
 10  9  2  0
 10  5  1  0
 12  2  1  0
 13 18  1  0
 13 14  1  0
 13 17  1  0
 14 12  1  0
 14 15  1  0
 15 16  1  0
 17 19  1  0
 17 16  1  0
  3 20  1  0
  7 21  1  0
  9 22  1  0
 11 23  1  0
 11 24  1  0
 13 25  1  6
 14 26  1  6
 16 27  1  0
 16 28  1  0
 17 29  1  1
 18 30  1  0
 19 31  1  0
M  ISO  8  20   3  21  14  22  14  25  13  26  13  27  13  28  13  29  13
M  ISO  2  30   3  31   3
M  END
>  <minimizedAffinity>  (1) 
-4.27442503

>  <minimizedRMSD>  (1) 
2.12193465

$$$$
