
     RDKit          3D

 33 34  0  0  0  0  0  0  0  0999 V2000
   34.6410   30.5140   48.7150 O   0  0  0  0  0  0  0  0  0  0  0  0
   35.8660   30.5940   49.3820 C   0  0  0  0  0  0  0  0  0  0  0  0
   36.2100   29.9450   50.5640 C   0  0  0  0  0  0  0  0  0  0  0  0
   37.4770   30.1410   51.0830 C   0  0  0  0  0  0  0  0  0  0  0  0
   38.3510   30.9660   50.4220 N   0  0  0  0  0  0  0  0  0  0  0  0
   37.9690   31.5850   49.2610 C   0  0  0  0  0  0  0  0  0  0  0  0
   36.7350   31.4010   48.7430 N   0  0  0  0  0  0  0  0  0  0  0  0
   35.1880   29.1380   51.1050 N   0  0  0  0  0  0  0  0  0  0  0  0
   35.1730   29.6230   46.2430 O   0  0  0  0  0  0  0  0  0  0  0  0
   34.3440   29.3500   47.4840 P   0  0  1  0  0  0  0  0  0  0  0  0
   34.7010   27.8430   48.1420 O   0  0  0  0  0  0  0  0  0  0  0  0
   32.7400   29.4610   46.9750 O   0  0  0  0  0  0  0  0  0  0  0  0
   29.5630   28.3500   48.7260 N   0  0  0  0  0  0  0  0  0  0  0  0
   29.4680   28.1200   47.3060 C   0  0  0  0  0  0  0  0  0  0  0  0
   30.7260   28.3280   46.5440 C   0  0  0  0  0  0  0  0  0  0  0  0
   32.0030   28.3070   47.3040 C   0  0  0  0  0  0  0  0  0  0  0  0
   31.9130   28.2360   48.7850 C   0  0  0  0  0  0  0  0  0  0  0  0
   30.6450   27.5630   49.2730 C   0  0  0  0  0  0  0  0  0  0  0  0
   37.7801   29.6412   52.0148 H   0  0  0  0  0  0  0  0  0  0  0  0
   38.6801   32.2439   48.7411 H   0  0  0  0  0  0  0  0  0  0  0  0
   35.3506   28.6183   51.9793 H   0  0  0  0  0  0  0  0  0  0  0  0
   34.2789   29.0683   50.6259 H   0  0  0  0  0  0  0  0  0  0  0  0
   34.6869   27.9026   49.1301 H   0  0  0  0  0  0  0  0  0  0  0  0
   28.6783   28.0772   49.1775 H   0  0  0  0  0  0  0  0  0  0  0  0
   29.1447   27.0801   47.1510 H   0  0  0  0  0  0  0  0  0  0  0  0
   28.7542   28.8648   46.9242 H   0  0  0  0  0  0  0  0  0  0  0  0
   30.6532   29.3082   46.0501 H   0  0  0  0  0  0  0  0  0  0  0  0
   30.7892   27.4624   45.8682 H   0  0  0  0  0  0  0  0  0  0  0  0
   32.4794   27.3629   47.0012 H   0  0  0  0  0  0  0  0  0  0  0  0
   32.7772   27.6690   49.1613 H   0  0  0  0  0  0  0  0  0  0  0  0
   31.9017   29.2691   49.1625 H   0  0  0  0  0  0  0  0  0  0  0  0
   30.6059   27.5650   50.3723 H   0  0  0  0  0  0  0  0  0  0  0  0
   30.5896   26.5113   48.9553 H   0  0  0  0  0  0  0  0  0  0  0  0
  1  2  1  0
  2  3  2  0
  3  4  1  0
  3  8  1  0
  5  4  2  0
  6  5  1  0
  7  6  2  0
  7  2  1  0
 10  9  2  0
 10 11  1  0
 10  1  1  0
 12 16  1  0
 12 10  1  0
 13 18  1  0
 14 13  1  0
 15 16  1  0
 15 14  1  0
 16 17  1  0
 17 18  1  0
  4 19  1  0
  6 20  1  0
  8 21  1  0
  8 22  1  0
 11 23  1  0
 13 24  1  0
 14 25  1  0
 14 26  1  0
 15 27  1  0
 15 28  1  0
 16 29  1  0
 17 30  1  0
 17 31  1  0
 18 32  1  0
 18 33  1  0
M  ISO  8  19  14  20  14  23   3  24   5  25  13  26  13  27  13  28  13
M  ISO  5  29  13  30  13  31  13  32  13  33  13
M  END
>  <minimizedAffinity>  (1) 
-4.18162012

>  <minimizedRMSD>  (1) 
1.23539317

$$$$
