
     RDKit          3D

 29 30  0  0  1  0  0  0  0  0999 V2000
   34.8990   29.2870   46.3900 O   0  0  0  0  0  0  0  0  0  0  0  0
   34.2050   29.0900   47.7150 P   0  0  1  0  0  0  0  0  0  0  0  0
   34.6820   27.6820   48.4940 O   0  0  0  0  0  0  0  0  0  0  0  0
   34.5490   30.3890   48.8120 O   0  0  0  0  0  0  0  0  0  0  0  0
   35.7990   30.5450   49.3890 C   0  0  0  0  0  0  0  0  0  0  0  0
   36.2250   29.9930   50.5840 C   0  0  0  0  0  0  0  0  0  0  0  0
   37.5060   30.2400   51.0300 C   0  0  0  0  0  0  0  0  0  0  0  0
   38.3300   31.0330   50.2690 N   0  0  0  0  0  0  0  0  0  0  0  0
   37.8880   31.5590   49.1050 C   0  0  0  0  0  0  0  0  0  0  0  0
   36.6210   31.3200   48.6530 N   0  0  0  0  0  0  0  0  0  0  0  0
   35.2550   29.2010   51.2470 N   0  0  0  0  0  0  0  0  0  0  0  0
   32.5360   29.0940   47.3830 O   0  0  0  0  0  0  0  0  0  0  0  0
   30.5950   28.0160   45.4980 O   0  0  0  0  0  0  0  0  0  0  0  0
   30.8490   27.5790   46.6710 C   0  0  0  0  0  0  0  0  0  0  0  0
   31.9760   27.8540   47.6320 C   0  0  2  0  0  0  0  0  0  0  0  0
   31.2740   27.7900   48.9430 C   0  0  0  0  0  0  0  0  0  0  0  0
   30.0040   26.9960   48.7770 C   0  0  0  0  0  0  0  0  0  0  0  0
   29.9990   26.6380   47.3540 N   0  0  0  0  0  0  0  0  0  0  0  0
   34.6368   27.8155   49.4739 H   0  0  0  0  0  0  0  0  0  0  0  0
   37.8617   29.8099   51.9779 H   0  0  0  0  0  0  0  0  0  0  0  0
   38.5620   32.1923   48.5095 H   0  0  0  0  0  0  0  0  0  0  0  0
   35.4842   28.7500   52.1442 H   0  0  0  0  0  0  0  0  0  0  0  0
   34.3207   29.0762   50.8317 H   0  0  0  0  0  0  0  0  0  0  0  0
   32.8237   27.1561   47.5667 H   0  0  0  0  0  0  0  0  0  0  0  0
   31.9215   27.3004   49.6853 H   0  0  0  0  0  0  0  0  0  0  0  0
   31.0360   28.8067   49.2889 H   0  0  0  0  0  0  0  0  0  0  0  0
   30.0198   26.0950   49.4078 H   0  0  0  0  0  0  0  0  0  0  0  0
   29.1079   27.5588   49.0774 H   0  0  0  0  0  0  0  0  0  0  0  0
   29.4829   25.8577   46.9231 H   0  0  0  0  0  0  0  0  0  0  0  0
  2  1  2  0
  2  3  1  0
  2  4  1  0
  4  5  1  0
  5  6  2  0
  6  7  1  0
  6 11  1  0
  8  7  2  0
  9  8  1  0
 10  9  2  0
 10  5  1  0
 12  2  1  0
 13 14  2  0
 14 18  1  0
 14 15  1  0
 15 12  1  0
 15 16  1  0
 17 16  1  0
 18 17  1  0
  3 19  1  0
  7 20  1  0
  9 21  1  0
 11 22  1  0
 11 23  1  0
 15 24  1  1
 16 25  1  0
 16 26  1  0
 17 27  1  0
 17 28  1  0
 18 29  1  0
M  ISO  8  19   3  20  14  21  14  24  13  25  13  26  13  27  13  28  13
M  ISO  1  29  10
M  END
>  <minimizedAffinity>  (1) 
-4.0443058

>  <minimizedRMSD>  (1) 
2.77238536

$$$$
