
     RDKit          3D

 43 46  0  0  1  0  0  0  0  0999 V2000
   39.5540   30.5310   45.0690 C   0  0  0  0  0  0  0  0  0  0  0  0
   38.7290   32.0400   46.9190 C   0  0  1  0  0  0  0  0  0  0  0  0
   39.7890   32.8540   46.2240 C   0  0  0  0  0  0  0  0  0  0  0  0
   39.8610   31.3800   46.2480 C   0  0  2  0  0  0  0  0  0  0  0  0
   38.6960   32.1730   48.4150 C   0  0  0  0  0  0  0  0  0  0  0  0
   37.3230   29.8540   51.0090 C   0  0  0  0  0  0  0  0  0  0  0  0
   38.0810   30.8920   50.3810 C   0  0  0  0  0  0  0  0  0  0  0  0
   37.9030   31.0960   49.0400 C   0  0  0  0  0  0  0  0  0  0  0  0
   37.0280   30.3150   48.3820 N   0  0  0  0  0  0  0  0  0  0  0  0
   36.3250   29.3480   48.9750 C   0  0  0  0  0  0  0  0  0  0  0  0
   36.4810   29.1300   50.2820 N   0  0  0  0  0  0  0  0  0  0  0  0
   40.1810   31.0000   43.7720 C   0  0  0  0  0  0  0  0  0  0  0  0
   39.5160   28.6960   43.1840 C   0  0  0  0  0  0  0  0  0  0  0  0
   40.2140   29.8370   42.8330 C   0  0  0  0  0  0  0  0  0  0  0  0
   40.9180   29.8730   41.6270 C   0  0  0  0  0  0  0  0  0  0  0  0
   40.9320   28.7880   40.7780 C   0  0  0  0  0  0  0  0  0  0  0  0
   41.5260   28.5930   39.5890 N   0  0  0  0  0  0  0  0  0  0  0  0
   41.2040   27.3440   39.2020 C   0  0  0  0  0  0  0  0  0  0  0  0
   40.3980   26.7000   40.1210 C   0  0  0  0  0  0  0  0  0  0  0  0
   40.2310   27.6440   41.1330 C   0  0  0  0  0  0  0  0  0  0  0  0
   39.5410   27.6110   42.3150 C   0  0  0  0  0  0  0  0  0  0  0  0
   38.8030   26.3510   42.6480 C   0  0  0  0  0  0  0  0  0  0  0  0
   37.4610   26.5560   42.5860 F   0  0  0  0  0  0  0  0  0  0  0  0
   39.2170   25.3420   41.7780 F   0  0  0  0  0  0  0  0  0  0  0  0
   39.1850   25.9030   43.9130 F   0  0  0  0  0  0  0  0  0  0  0  0
   39.9155   29.5130   45.2761 H   0  0  0  0  0  0  0  0  0  0  0  0
   38.4647   30.5817   44.9242 H   0  0  0  0  0  0  0  0  0  0  0  0
   37.6390   31.9043   46.8599 H   0  0  0  0  0  0  0  0  0  0  0  0
   40.5010   33.4514   46.8124 H   0  0  0  0  0  0  0  0  0  0  0  0
   39.7949   33.6253   45.4398 H   0  0  0  0  0  0  0  0  0  0  0  0
   40.6698   30.6890   46.5278 H   0  0  0  0  0  0  0  0  0  0  0  0
   39.7254   32.1275   48.8000 H   0  0  0  0  0  0  0  0  0  0  0  0
   38.2250   33.1353   48.6641 H   0  0  0  0  0  0  0  0  0  0  0  0
   37.4370   29.6575   52.0853 H   0  0  0  0  0  0  0  0  0  0  0  0
   38.7859   31.5077   50.9590 H   0  0  0  0  0  0  0  0  0  0  0  0
   35.6225   28.7355   48.3908 H   0  0  0  0  0  0  0  0  0  0  0  0
   39.5805   31.8136   43.3389 H   0  0  0  0  0  0  0  0  0  0  0  0
   41.1985   31.3774   43.9518 H   0  0  0  0  0  0  0  0  0  0  0  0
   38.9542   28.6479   44.1285 H   0  0  0  0  0  0  0  0  0  0  0  0
   41.4706   30.7831   41.3505 H   0  0  0  0  0  0  0  0  0  0  0  0
   42.1121   29.2660   39.0748 H   0  0  0  0  0  0  0  0  0  0  0  0
   41.5442   26.8880   38.2606 H   0  0  0  0  0  0  0  0  0  0  0  0
   39.9852   25.6818   40.0668 H   0  0  0  0  0  0  0  0  0  0  0  0
  1  4  1  0
  2  5  1  0
  3  4  1  0
  3  2  1  0
  4  2  1  0
  5  8  1  0
  7  6  2  0
  8  7  1  0
  9 10  1  0
  9  8  2  0
 10 11  2  0
 11  6  1  0
 12  1  1  0
 14 13  2  0
 14 12  1  0
 15 14  1  0
 16 20  1  0
 16 15  2  0
 17 16  1  0
 18 17  1  0
 18 19  2  0
 19 20  1  0
 20 21  2  0
 21 22  1  0
 21 13  1  0
 22 25  1  0
 23 22  1  0
 24 22  1  0
  1 26  1  0
  1 27  1  0
  2 28  1  6
  3 29  1  0
  3 30  1  0
  4 31  1  1
  5 32  1  0
  5 33  1  0
  6 34  1  0
  7 35  1  0
 10 36  1  0
 12 37  1  0
 12 38  1  0
 13 39  1  0
 15 40  1  0
 17 41  1  0
 18 42  1  0
 19 43  1  0
M  ISO  8  26   8  27   8  28  13  29  13  30  13  31  13  32   8  33   8
M  ISO  8  34  14  35  14  36  14  37   8  38   8  39  14  40  14  41   9
M  ISO  2  42  14  43  14
M  END
>  <minimizedAffinity>  (1) 
-5.92116261

>  <minimizedRMSD>  (1) 
0.352487087

$$$$
