
     RDKit          3D

 34 35  0  0  0  0  0  0  0  0999 V2000
   34.3290   30.6310   47.9290 O   0  0  0  0  0  0  0  0  0  0  0  0
   35.1440   30.3780   49.0200 C   0  0  0  0  0  0  0  0  0  0  0  0
   34.9660   29.4030   49.9820 C   0  0  0  0  0  0  0  0  0  0  0  0
   35.8970   29.3030   51.0070 C   0  0  0  0  0  0  0  0  0  0  0  0
   36.9530   30.1640   51.0340 N   0  0  0  0  0  0  0  0  0  0  0  0
   37.1040   31.1090   50.0780 C   0  0  0  0  0  0  0  0  0  0  0  0
   36.1940   31.2120   49.0710 N   0  0  0  0  0  0  0  0  0  0  0  0
   33.8180   28.5920   49.8080 N   0  0  0  0  0  0  0  0  0  0  0  0
   35.8730   30.0440   45.8320 O   0  0  0  0  0  0  0  0  0  0  0  0
   34.5140   29.7970   46.4260 P   0  0  1  0  0  0  0  0  0  0  0  0
   34.2510   28.1680   46.7450 O   0  0  0  0  0  0  0  0  0  0  0  0
   33.4090   30.4150   45.3020 O   0  0  0  0  0  0  0  0  0  0  0  0
   32.2750   30.9310   45.8980 C   0  0  0  0  0  0  0  0  0  0  0  0
   31.7710   32.0770   45.0490 C   0  0  0  0  0  0  0  0  0  0  0  0
   31.3010   31.6150   43.6890 C   0  0  0  0  0  0  0  0  0  0  0  0
   30.2540   30.5300   43.7780 C   0  0  0  0  0  0  0  0  0  0  0  0
   29.9710   30.2050   45.2190 C   0  0  0  0  0  0  0  0  0  0  0  0
   31.2430   29.8240   45.9660 C   0  0  0  0  0  0  0  0  0  0  0  0
   35.7836   28.5374   51.7886 H   0  0  0  0  0  0  0  0  0  0  0  0
   37.9631   31.7950   50.1144 H   0  0  0  0  0  0  0  0  0  0  0  0
   33.6113   27.8407   50.4816 H   0  0  0  0  0  0  0  0  0  0  0  0
   33.1898   28.7535   49.0079 H   0  0  0  0  0  0  0  0  0  0  0  0
   34.2276   28.0230   47.7241 H   0  0  0  0  0  0  0  0  0  0  0  0
   32.4819   31.3021   46.9126 H   0  0  0  0  0  0  0  0  0  0  0  0
   30.9308   32.5605   45.5689 H   0  0  0  0  0  0  0  0  0  0  0  0
   32.6049   32.7784   44.8983 H   0  0  0  0  0  0  0  0  0  0  0  0
   32.1651   31.2267   43.1300 H   0  0  0  0  0  0  0  0  0  0  0  0
   30.8462   32.4782   43.1809 H   0  0  0  0  0  0  0  0  0  0  0  0
   29.3287   30.8761   43.2942 H   0  0  0  0  0  0  0  0  0  0  0  0
   30.6254   29.6275   43.2706 H   0  0  0  0  0  0  0  0  0  0  0  0
   29.5227   31.0855   45.7026 H   0  0  0  0  0  0  0  0  0  0  0  0
   29.2825   29.3477   45.2505 H   0  0  0  0  0  0  0  0  0  0  0  0
   31.6642   28.9135   45.5148 H   0  0  0  0  0  0  0  0  0  0  0  0
   30.9869   29.6530   47.0220 H   0  0  0  0  0  0  0  0  0  0  0  0
  1  2  1  0
  2  7  1  0
  2  3  2  0
  3  4  1  0
  4  5  2  0
  6  5  1  0
  7  6  2  0
  8  3  1  0
 10  9  2  0
 10 11  1  0
 10  1  1  0
 12 13  1  0
 12 10  1  0
 13 18  1  0
 14 13  1  0
 15 16  1  0
 15 14  1  0
 16 17  1  0
 17 18  1  0
  4 19  1  0
  6 20  1  0
  8 21  1  0
  8 22  1  0
 11 23  1  0
 13 24  1  0
 14 25  1  0
 14 26  1  0
 15 27  1  0
 15 28  1  0
 16 29  1  0
 16 30  1  0
 17 31  1  0
 17 32  1  0
 18 33  1  0
 18 34  1  0
M  ISO  8  19  14  20  14  23   3  24  13  25  13  26  13  27  13  28  13
M  ISO  6  29  13  30  13  31  13  32  13  33  13  34  13
M  END
>  <minimizedAffinity>  (1) 
-3.67024374

>  <minimizedRMSD>  (1) 
1.61996734

$$$$
