
     RDKit          3D

 24 24  0  0  0  0  0  0  0  0999 V2000
   35.9570   30.7430   49.3340 C   0  0  0  0  0  0  0  0  0  0  0  0
   36.2620   30.0160   50.4800 C   0  0  0  0  0  0  0  0  0  0  0  0
   37.5290   30.1500   51.0360 C   0  0  0  0  0  0  0  0  0  0  0  0
   38.4290   30.9820   50.4510 N   0  0  0  0  0  0  0  0  0  0  0  0
   38.0910   31.6820   49.3220 C   0  0  0  0  0  0  0  0  0  0  0  0
   36.8590   31.5600   48.7700 N   0  0  0  0  0  0  0  0  0  0  0  0
   35.2080   29.2050   50.9480 N   0  0  0  0  0  0  0  0  0  0  0  0
   34.7510   30.7340   48.6460 O   0  0  0  0  0  0  0  0  0  0  0  0
   35.4000   29.8600   46.2080 O   0  0  0  0  0  0  0  0  0  0  0  0
   34.4430   29.6390   47.3630 P   0  0  1  0  0  0  0  0  0  0  0  0
   34.5650   28.0900   48.0000 O   0  0  0  0  0  0  0  0  0  0  0  0
   32.9000   29.9270   46.7210 O   0  0  0  0  0  0  0  0  0  0  0  0
   32.9420   30.3880   45.4220 C   0  0  0  0  0  0  0  0  0  0  0  0
   31.9060   31.5050   45.2540 C   0  0  0  0  0  0  0  0  0  0  0  0
   37.8001   29.5873   51.9415 H   0  0  0  0  0  0  0  0  0  0  0  0
   38.8296   32.3519   48.8576 H   0  0  0  0  0  0  0  0  0  0  0  0
   35.3374   28.6284   51.7916 H   0  0  0  0  0  0  0  0  0  0  0  0
   34.3086   29.1891   50.4463 H   0  0  0  0  0  0  0  0  0  0  0  0
   34.5612   28.1386   48.9888 H   0  0  0  0  0  0  0  0  0  0  0  0
   33.9459   30.7803   45.2024 H   0  0  0  0  0  0  0  0  0  0  0  0
   32.7159   29.5647   44.7285 H   0  0  0  0  0  0  0  0  0  0  0  0
   31.5809   31.8556   46.2447 H   0  0  0  0  0  0  0  0  0  0  0  0
   32.3553   32.3413   44.6984 H   0  0  0  0  0  0  0  0  0  0  0  0
   31.0383   31.1198   44.6984 H   0  0  0  0  0  0  0  0  0  0  0  0
  1  2  2  0
  2  7  1  0
  2  3  1  0
  4  3  2  0
  5  4  1  0
  6  5  2  0
  6  1  1  0
  8  1  1  0
 10  9  2  0
 10 11  1  0
 10  8  1  0
 12 10  1  0
 13 12  1  0
 14 13  1  0
  3 15  1  0
  5 16  1  0
  7 17  1  0
  7 18  1  0
 11 19  1  0
 13 20  1  0
 13 21  1  0
 14 22  1  0
 14 23  1  0
 14 24  1  0
M  ISO  8  15  14  16  14  19   3  20   8  21   8  22   8  23   8  24   8
M  END
>  <minimizedAffinity>  (1) 
-3.55875278

>  <minimizedRMSD>  (1) 
0.743102551

$$$$
