
     RDKit          3D

 21 21  0  0  0  0  0  0  0  0999 V2000
   35.8540   30.6240   49.3710 C   0  0  0  0  0  0  0  0  0  0  0  0
   36.1820   29.9460   50.5400 C   0  0  0  0  0  0  0  0  0  0  0  0
   37.4570   30.1230   51.0690 C   0  0  0  0  0  0  0  0  0  0  0  0
   38.3280   30.9500   50.4200 N   0  0  0  0  0  0  0  0  0  0  0  0
   37.9680   31.5950   49.2780 C   0  0  0  0  0  0  0  0  0  0  0  0
   36.7330   31.4280   48.7610 N   0  0  0  0  0  0  0  0  0  0  0  0
   35.1580   29.1410   51.0660 N   0  0  0  0  0  0  0  0  0  0  0  0
   34.6350   30.5680   48.7050 O   0  0  0  0  0  0  0  0  0  0  0  0
   35.2050   29.6470   46.2630 O   0  0  0  0  0  0  0  0  0  0  0  0
   34.3200   29.4130   47.4660 P   0  0  1  0  0  0  0  0  0  0  0  0
   34.5590   27.8880   48.1370 O   0  0  0  0  0  0  0  0  0  0  0  0
   32.7380   29.6160   46.9050 O   0  0  0  0  0  0  0  0  0  0  0  0
   32.6310   30.6460   45.9720 C   0  0  0  0  0  0  0  0  0  0  0  0
   37.7573   29.6064   51.9925 H   0  0  0  0  0  0  0  0  0  0  0  0
   38.6876   32.2564   48.7732 H   0  0  0  0  0  0  0  0  0  0  0  0
   35.3176   28.6042   51.9305 H   0  0  0  0  0  0  0  0  0  0  0  0
   34.2476   29.0875   50.5872 H   0  0  0  0  0  0  0  0  0  0  0  0
   34.5482   27.9566   49.1246 H   0  0  0  0  0  0  0  0  0  0  0  0
   32.5311   31.6074   46.4971 H   0  0  0  0  0  0  0  0  0  0  0  0
   33.5321   30.6645   45.3413 H   0  0  0  0  0  0  0  0  0  0  0  0
   31.7454   30.4789   45.3413 H   0  0  0  0  0  0  0  0  0  0  0  0
  1  2  2  0
  2  7  1  0
  2  3  1  0
  4  3  2  0
  5  4  1  0
  6  5  2  0
  6  1  1  0
  8  1  1  0
 10  9  2  0
 10 11  1  0
 10  8  1  0
 12 10  1  0
 13 12  1  0
  3 14  1  0
  5 15  1  0
  7 16  1  0
  7 17  1  0
 11 18  1  0
 13 19  1  0
 13 20  1  0
 13 21  1  0
M  ISO  6  14  14  15  14  18   3  19   8  20   8  21   8
M  END
>  <minimizedAffinity>  (1) 
-3.55275989

>  <minimizedRMSD>  (1) 
0.771985948

$$$$
