
     RDKit          3D

 29 30  0  0  0  0  0  0  0  0999 V2000
   37.8470   28.8080   50.1900 O   0  0  0  0  0  0  0  0  0  0  0  0
   37.0460   30.0110   50.6400 P   0  0  2  0  0  0  0  0  0  0  0  0
   37.2790   30.1540   52.3310 O   0  0  0  0  0  0  0  0  0  0  0  0
   35.3950   29.7760   50.3260 O   0  0  0  0  0  0  0  0  0  0  0  0
   35.2770   28.7030   49.4770 C   0  0  0  0  0  0  0  0  0  0  0  0
   34.2660   28.9050   48.4140 C   0  0  0  0  0  0  0  0  0  0  0  0
   34.3550   30.0690   47.6460 C   0  0  0  0  0  0  0  0  0  0  0  0
   33.4130   30.2910   46.6320 C   0  0  0  0  0  0  0  0  0  0  0  0
   32.4440   29.3310   46.4570 N   0  0  0  0  0  0  0  0  0  0  0  0
   32.3920   28.2260   47.2170 C   0  0  0  0  0  0  0  0  0  0  0  0
   33.2840   28.0030   48.1870 N   0  0  0  0  0  0  0  0  0  0  0  0
   37.6200   31.3780   49.8490 O   0  0  0  0  0  0  0  0  0  0  0  0
   39.1400   33.8440   49.5940 Cl  0  0  0  0  0  0  0  0  0  0  0  0
   38.8670   32.6000   48.3700 C   0  0  0  0  0  0  0  0  0  0  0  0
   38.1200   31.4330   48.5650 C   0  0  0  0  0  0  0  0  0  0  0  0
   37.9930   30.5520   47.5150 C   0  0  0  0  0  0  0  0  0  0  0  0
   38.5870   30.8160   46.3070 C   0  0  0  0  0  0  0  0  0  0  0  0
   39.3360   31.9730   46.0910 C   0  0  0  0  0  0  0  0  0  0  0  0
   40.0750   32.2680   44.5360 Cl  0  0  0  0  0  0  0  0  0  0  0  0
   39.4670   32.8610   47.1410 C   0  0  0  0  0  0  0  0  0  0  0  0
   36.5386   29.6996   52.8057 H   0  0  0  0  0  0  0  0  0  0  0  0
   36.2528   28.5252   49.0014 H   0  0  0  0  0  0  0  0  0  0  0  0
   34.9475   27.8447   50.0809 H   0  0  0  0  0  0  0  0  0  0  0  0
   35.1537   30.8014   47.8347 H   0  0  0  0  0  0  0  0  0  0  0  0
   33.4473   31.1934   46.0039 H   0  0  0  0  0  0  0  0  0  0  0  0
   31.5972   27.4871   47.0375 H   0  0  0  0  0  0  0  0  0  0  0  0
   37.4102   29.6283   47.6457 H   0  0  0  0  0  0  0  0  0  0  0  0
   38.4694   30.0946   45.4849 H   0  0  0  0  0  0  0  0  0  0  0  0
   40.0510   33.7832   47.0048 H   0  0  0  0  0  0  0  0  0  0  0  0
  2  1  2  0
  2  3  1  0
  4  2  1  0
  5  4  1  0
  6  5  1  0
  7  6  2  0
  8  7  1  0
  9  8  2  0
  9 10  1  0
 10 11  2  0
 11  6  1  0
 12  2  1  0
 14 15  2  0
 14 13  1  0
 15 12  1  0
 16 15  1  0
 17 16  2  0
 18 17  1  0
 18 20  2  0
 19 18  1  0
 20 14  1  0
  3 21  1  0
  5 22  1  0
  5 23  1  0
  7 24  1  0
  8 25  1  0
 10 26  1  0
 16 27  1  0
 17 28  1  0
 20 29  1  0
M  ISO  8  21   3  22   8  23   8  24  14  25  14  26  14  27  14  28  14
M  ISO  1  29  14
M  END
>  <minimizedAffinity>  (1) 
-5.40832949

>  <minimizedRMSD>  (1) 
3.00801659

$$$$
