
     RDKit          3D

 21 21  0  0  0  0  0  0  0  0999 V2000
   35.6950   29.9850   50.0520 C   0  0  0  0  0  0  0  0  0  0  0  0
   34.6730   29.4680   49.0990 C   0  0  0  0  0  0  0  0  0  0  0  0
   34.5070   30.1450   47.8880 C   0  0  0  0  0  0  0  0  0  0  0  0
   33.5500   29.6680   46.9830 C   0  0  0  0  0  0  0  0  0  0  0  0
   32.8460   28.5700   47.3550 N   0  0  0  0  0  0  0  0  0  0  0  0
   33.0180   27.9290   48.5260 C   0  0  0  0  0  0  0  0  0  0  0  0
   33.9320   28.3880   49.3830 N   0  0  0  0  0  0  0  0  0  0  0  0
   36.2030   31.2100   49.6830 O   0  0  0  0  0  0  0  0  0  0  0  0
   38.1120   30.6070   47.9580 O   0  0  0  0  0  0  0  0  0  0  0  0
   37.8610   30.9950   49.3890 P   0  0  2  0  0  0  0  0  0  0  0  0
   38.4410   29.7270   50.3690 O   0  0  0  0  0  0  0  0  0  0  0  0
   38.7140   32.4120   49.7400 O   0  0  0  0  0  0  0  0  0  0  0  0
   38.9040   33.4770   48.8790 C   0  0  0  0  0  0  0  0  0  0  0  0
   39.6010   34.1890   49.6680 O   0  0  0  0  0  0  0  0  0  0  0  0
   35.2312   30.0824   51.0447 H   0  0  0  0  0  0  0  0  0  0  0  0
   36.5310   29.2702   50.0579 H   0  0  0  0  0  0  0  0  0  0  0  0
   35.1135   31.0316   47.6509 H   0  0  0  0  0  0  0  0  0  0  0  0
   33.3774   30.1613   46.0151 H   0  0  0  0  0  0  0  0  0  0  0  0
   32.4156   27.0422   48.7722 H   0  0  0  0  0  0  0  0  0  0  0  0
   38.3301   29.9696   51.3224 H   0  0  0  0  0  0  0  0  0  0  0  0
   38.5632   33.6512   47.8477 H   0  0  0  0  0  0  0  0  0  0  0  0
  2  7  2  0
  2  1  1  0
  3  2  1  0
  4  5  1  0
  4  3  2  0
  5  6  2  0
  6  7  1  0
  8  1  1  0
 10  9  2  0
 10  8  1  0
 10 12  1  0
 10 11  1  0
 13 14  2  0
 13 12  1  0
  1 15  1  0
  1 16  1  0
  3 17  1  0
  4 18  1  0
  6 19  1  0
 11 20  1  0
 13 21  1  0
M  ISO  7  15   8  16   8  17  14  18  14  19  14  20   3  21   6
M  END
>  <minimizedAffinity>  (1) 
-4.21805954

>  <minimizedRMSD>  (1) 
0.938871205

$$$$
