
     RDKit          3D

 43 46  0  0  1  0  0  0  0  0999 V2000
   39.4750   30.6360   45.1330 C   0  0  0  0  0  0  0  0  0  0  0  0
   38.6850   32.2410   46.9180 C   0  0  1  0  0  0  0  0  0  0  0  0
   39.8460   32.9530   46.2690 C   0  0  0  0  0  0  0  0  0  0  0  0
   39.7870   31.4780   46.3150 C   0  0  2  0  0  0  0  0  0  0  0  0
   38.5670   32.4220   48.3950 C   0  0  0  0  0  0  0  0  0  0  0  0
   37.4450   29.9280   50.9600 C   0  0  0  0  0  0  0  0  0  0  0  0
   38.1330   31.0160   50.3360 C   0  0  0  0  0  0  0  0  0  0  0  0
   37.8440   31.2910   49.0240 C   0  0  0  0  0  0  0  0  0  0  0  0
   36.9330   30.5290   48.3920 N   0  0  0  0  0  0  0  0  0  0  0  0
   36.2950   29.5140   48.9860 C   0  0  0  0  0  0  0  0  0  0  0  0
   36.5580   29.2260   50.2610 N   0  0  0  0  0  0  0  0  0  0  0  0
   40.2260   31.0230   43.8730 C   0  0  0  0  0  0  0  0  0  0  0  0
   39.4620   28.7370   43.3170 C   0  0  0  0  0  0  0  0  0  0  0  0
   40.2080   29.8440   42.9510 C   0  0  0  0  0  0  0  0  0  0  0  0
   40.9100   29.8250   41.7460 C   0  0  0  0  0  0  0  0  0  0  0  0
   40.8760   28.7260   40.9160 C   0  0  0  0  0  0  0  0  0  0  0  0
   41.4600   28.4850   39.7310 N   0  0  0  0  0  0  0  0  0  0  0  0
   41.0810   27.2410   39.3650 C   0  0  0  0  0  0  0  0  0  0  0  0
   40.2480   26.6540   40.2990 C   0  0  0  0  0  0  0  0  0  0  0  0
   40.1280   27.6250   41.2890 C   0  0  0  0  0  0  0  0  0  0  0  0
   39.4390   27.6410   42.4700 C   0  0  0  0  0  0  0  0  0  0  0  0
   38.6440   26.4130   42.8190 C   0  0  0  0  0  0  0  0  0  0  0  0
   39.7266   29.5934   45.3771 H   0  0  0  0  0  0  0  0  0  0  0  0
   38.4058   30.7797   44.9182 H   0  0  0  0  0  0  0  0  0  0  0  0
   37.5923   32.1848   46.8049 H   0  0  0  0  0  0  0  0  0  0  0  0
   40.5762   33.4966   46.8865 H   0  0  0  0  0  0  0  0  0  0  0  0
   39.9587   33.7086   45.4776 H   0  0  0  0  0  0  0  0  0  0  0  0
   40.5166   30.7242   46.6458 H   0  0  0  0  0  0  0  0  0  0  0  0
   39.5757   32.4873   48.8290 H   0  0  0  0  0  0  0  0  0  0  0  0
   37.9987   33.3443   48.5858 H   0  0  0  0  0  0  0  0  0  0  0  0
   37.6483   29.6739   52.0108 H   0  0  0  0  0  0  0  0  0  0  0  0
   38.8710   31.6135   50.8914 H   0  0  0  0  0  0  0  0  0  0  0  0
   35.5576   28.9205   48.4256 H   0  0  0  0  0  0  0  0  0  0  0  0
   39.7340   31.8816   43.3926 H   0  0  0  0  0  0  0  0  0  0  0  0
   41.2609   31.3074   44.1139 H   0  0  0  0  0  0  0  0  0  0  0  0
   38.8986   28.7277   44.2617 H   0  0  0  0  0  0  0  0  0  0  0  0
   41.5022   30.7044   41.4527 H   0  0  0  0  0  0  0  0  0  0  0  0
   42.0751   29.1224   39.2053 H   0  0  0  0  0  0  0  0  0  0  0  0
   41.3984   26.7520   38.4322 H   0  0  0  0  0  0  0  0  0  0  0  0
   39.7884   25.6551   40.2673 H   0  0  0  0  0  0  0  0  0  0  0  0
   38.5810   26.3156   43.9129 H   0  0  0  0  0  0  0  0  0  0  0  0
   37.6308   26.5007   42.3997 H   0  0  0  0  0  0  0  0  0  0  0  0
   39.1387   25.5245   42.3997 H   0  0  0  0  0  0  0  0  0  0  0  0
  1  4  1  0
  2  5  1  0
  3  4  1  0
  3  2  1  0
  4  2  1  0
  5  8  1  0
  7  6  2  0
  8  7  1  0
  9 10  1  0
  9  8  2  0
 10 11  2  0
 11  6  1  0
 12  1  1  0
 14 13  2  0
 14 12  1  0
 15 14  1  0
 16 20  1  0
 16 15  2  0
 17 16  1  0
 18 17  1  0
 18 19  2  0
 19 20  1  0
 20 21  2  0
 21 22  1  0
 21 13  1  0
  1 23  1  0
  1 24  1  0
  2 25  1  6
  3 26  1  0
  3 27  1  0
  4 28  1  1
  5 29  1  0
  5 30  1  0
  6 31  1  0
  7 32  1  0
 10 33  1  0
 12 34  1  0
 12 35  1  0
 13 36  1  0
 15 37  1  0
 17 38  1  0
 18 39  1  0
 19 40  1  0
 22 41  1  0
 22 42  1  0
 22 43  1  0
M  ISO  8  23   8  24   8  25  13  26  13  27  13  28  13  29   8  30   8
M  ISO  8  31  14  32  14  33  14  34   8  35   8  36  14  37  14  38   9
M  ISO  5  39  14  40  14  41   8  42   8  43   8
M  END
>  <minimizedAffinity>  (1) 
-5.775527

>  <minimizedRMSD>  (1) 
0.193460837

$$$$
