
     RDKit          3D

 44 47  0  0  1  0  0  0  0  0999 V2000
   38.8960   32.3900   47.8750 C   0  0  2  0  0  0  0  0  0  0  0  0
   38.1830   31.3870   48.7660 C   0  0  1  0  0  0  0  0  0  0  0  0
   38.6380   31.9440   50.1260 C   0  0  0  0  0  0  0  0  0  0  0  0
   38.3180   33.2860   49.9740 O   0  0  0  0  0  0  0  0  0  0  0  0
   38.6720   33.6520   48.6980 C   0  0  0  0  0  0  0  0  0  0  0  0
   36.8330   31.5980   48.6050 O   0  0  0  0  0  0  0  0  0  0  0  0
   35.9510   29.8160   46.9240 O   0  0  0  0  0  0  0  0  0  0  0  0
   35.9800   30.1600   48.3830 P   0  0  1  0  0  0  0  0  0  0  0  0
   36.7600   28.8780   49.2160 O   0  0  0  0  0  0  0  0  0  0  0  0
   34.3980   30.3310   48.9890 O   0  0  0  0  0  0  0  0  0  0  0  0
   34.1320   29.2110   49.7510 C   0  0  0  0  0  0  0  0  0  0  0  0
   33.2710   28.2260   49.0620 C   0  0  0  0  0  0  0  0  0  0  0  0
   33.8980   27.3290   48.2300 C   0  0  0  0  0  0  0  0  0  0  0  0
   33.1410   26.3740   47.5500 C   0  0  0  0  0  0  0  0  0  0  0  0
   31.7940   26.3900   47.7580 N   0  0  0  0  0  0  0  0  0  0  0  0
   31.1990   27.2810   48.5800 C   0  0  0  0  0  0  0  0  0  0  0  0
   31.9360   28.2040   49.2350 N   0  0  0  0  0  0  0  0  0  0  0  0
   38.2670   32.3980   46.6580 O   0  0  0  0  0  0  0  0  0  0  0  0
   38.0700   32.5770   44.3580 C   0  0  0  0  0  0  0  0  0  0  0  0
   38.7310   31.9890   45.4310 C   0  0  0  0  0  0  0  0  0  0  0  0
   39.7480   31.0870   45.1500 C   0  0  0  0  0  0  0  0  0  0  0  0
   40.0810   30.7930   43.8410 C   0  0  0  0  0  0  0  0  0  0  0  0
   41.0280   29.9530   43.3780 N   0  0  0  0  0  0  0  0  0  0  0  0
   40.9400   30.0350   42.0370 C   0  0  0  0  0  0  0  0  0  0  0  0
   39.9670   30.8980   41.6890 N   0  0  0  0  0  0  0  0  0  0  0  0
   39.3940   31.4040   42.8120 C   0  0  0  0  0  0  0  0  0  0  0  0
   38.3800   32.3040   43.0410 C   0  0  0  0  0  0  0  0  0  0  0  0
   39.9568   32.2182   47.6398 H   0  0  0  0  0  0  0  0  0  0  0  0
   38.3797   30.3173   48.6017 H   0  0  0  0  0  0  0  0  0  0  0  0
   38.0824   31.4865   50.9579 H   0  0  0  0  0  0  0  0  0  0  0  0
   39.6933   31.7507   50.3688 H   0  0  0  0  0  0  0  0  0  0  0  0
   39.5978   34.2453   48.7260 H   0  0  0  0  0  0  0  0  0  0  0  0
   37.8736   34.2587   48.2459 H   0  0  0  0  0  0  0  0  0  0  0  0
   36.6745   29.0185   50.1922 H   0  0  0  0  0  0  0  0  0  0  0  0
   35.0863   28.7251   50.0025 H   0  0  0  0  0  0  0  0  0  0  0  0
   33.5896   29.5476   50.6468 H   0  0  0  0  0  0  0  0  0  0  0  0
   34.9899   27.3638   48.1011 H   0  0  0  0  0  0  0  0  0  0  0  0
   33.6101   25.6415   46.8766 H   0  0  0  0  0  0  0  0  0  0  0  0
   30.1079   27.2549   48.7169 H   0  0  0  0  0  0  0  0  0  0  0  0
   37.2622   33.2933   44.5688 H   0  0  0  0  0  0  0  0  0  0  0  0
   40.2924   30.6031   45.9743 H   0  0  0  0  0  0  0  0  0  0  0  0
   41.6774   29.3745   43.9298 H   0  0  0  0  0  0  0  0  0  0  0  0
   41.5711   29.4780   41.3289 H   0  0  0  0  0  0  0  0  0  0  0  0
   37.8401   32.7848   42.2119 H   0  0  0  0  0  0  0  0  0  0  0  0
  1  5  1  0
  1  2  1  0
  2  3  1  0
  4  3  1  0
  5  4  1  0
  6  2  1  0
  8  7  2  0
  8  6  1  0
  8 10  1  0
  8  9  1  0
 10 11  1  0
 12 17  1  0
 12 11  1  0
 13 12  2  0
 14 15  2  0
 14 13  1  0
 15 16  1  0
 16 17  2  0
 18  1  1  0
 19 20  2  0
 20 18  1  0
 21 20  1  0
 22 21  2  0
 23 22  1  0
 24 23  1  0
 25 24  2  0
 25 26  1  0
 26 27  2  0
 26 22  1  0
 27 19  1  0
  1 28  1  6
  2 29  1  6
  3 30  1  0
  3 31  1  0
  5 32  1  0
  5 33  1  0
  9 34  1  0
 11 35  1  0
 11 36  1  0
 13 37  1  0
 14 38  1  0
 16 39  1  0
 19 40  1  0
 21 41  1  0
 23 42  1  0
 24 43  1  0
 27 44  1  0
M  ISO  8  28  13  29  13  30  13  31  13  32  13  33  13  34   3  35   8
M  ISO  8  36   8  37  14  38  14  39  14  40  14  41  14  42   9  43  14
M  ISO  1  44  14
M  END
>  <minimizedAffinity>  (1) 
-5.37254953

>  <minimizedRMSD>  (1) 
0.43212226

$$$$
