
     RDKit          3D

 41 43  0  0  1  0  0  0  0  0999 V2000
   38.9110   32.3380   47.8830 C   0  0  2  0  0  0  0  0  0  0  0  0
   38.1500   31.3760   48.7860 C   0  0  1  0  0  0  0  0  0  0  0  0
   38.6040   31.9360   50.1370 C   0  0  0  0  0  0  0  0  0  0  0  0
   38.3130   33.2770   49.9630 O   0  0  0  0  0  0  0  0  0  0  0  0
   38.6550   33.6320   48.6810 C   0  0  0  0  0  0  0  0  0  0  0  0
   36.8090   31.5990   48.5940 O   0  0  0  0  0  0  0  0  0  0  0  0
   35.7970   29.8250   46.9790 O   0  0  0  0  0  0  0  0  0  0  0  0
   35.9260   30.1750   48.4360 P   0  0  1  0  0  0  0  0  0  0  0  0
   36.7620   28.8830   49.2110 O   0  0  0  0  0  0  0  0  0  0  0  0
   34.4000   30.3470   49.1500 O   0  0  0  0  0  0  0  0  0  0  0  0
   34.1400   29.1900   49.8510 C   0  0  0  0  0  0  0  0  0  0  0  0
   33.2770   28.2370   49.1200 C   0  0  0  0  0  0  0  0  0  0  0  0
   33.9070   27.3430   48.2880 C   0  0  0  0  0  0  0  0  0  0  0  0
   33.1470   26.4160   47.5710 C   0  0  0  0  0  0  0  0  0  0  0  0
   31.7960   26.4580   47.7440 N   0  0  0  0  0  0  0  0  0  0  0  0
   31.1930   27.3470   48.5690 C   0  0  0  0  0  0  0  0  0  0  0  0
   31.9370   28.2430   49.2620 N   0  0  0  0  0  0  0  0  0  0  0  0
   38.2910   32.3510   46.6660 O   0  0  0  0  0  0  0  0  0  0  0  0
   39.8190   33.8270   45.0250 F   0  0  0  0  0  0  0  0  0  0  0  0
   39.5620   32.5120   44.8080 C   0  0  0  0  0  0  0  0  0  0  0  0
   38.7870   31.6450   45.5850 C   0  0  0  0  0  0  0  0  0  0  0  0
   38.6620   30.3420   45.1750 C   0  0  0  0  0  0  0  0  0  0  0  0
   39.2900   29.9150   44.0240 C   0  0  0  0  0  0  0  0  0  0  0  0
   40.0620   30.7510   43.2370 C   0  0  0  0  0  0  0  0  0  0  0  0
   40.1920   32.0600   43.6430 C   0  0  0  0  0  0  0  0  0  0  0  0
   39.9714   32.1322   47.6751 H   0  0  0  0  0  0  0  0  0  0  0  0
   38.3180   30.2978   48.6470 H   0  0  0  0  0  0  0  0  0  0  0  0
   38.0324   31.5009   50.9700 H   0  0  0  0  0  0  0  0  0  0  0  0
   39.6524   31.7233   50.3931 H   0  0  0  0  0  0  0  0  0  0  0  0
   39.5655   34.2491   48.6944 H   0  0  0  0  0  0  0  0  0  0  0  0
   37.8462   34.2150   48.2163 H   0  0  0  0  0  0  0  0  0  0  0  0
   36.6940   28.9880   50.1931 H   0  0  0  0  0  0  0  0  0  0  0  0
   35.0969   28.6943   50.0714 H   0  0  0  0  0  0  0  0  0  0  0  0
   33.5996   29.4802   50.7641 H   0  0  0  0  0  0  0  0  0  0  0  0
   35.0023   27.3573   48.1873 H   0  0  0  0  0  0  0  0  0  0  0  0
   33.6178   25.6851   46.8971 H   0  0  0  0  0  0  0  0  0  0  0  0
   30.0983   27.3417   48.6766 H   0  0  0  0  0  0  0  0  0  0  0  0
   38.0595   29.6362   45.7656 H   0  0  0  0  0  0  0  0  0  0  0  0
   39.1721   28.8649   43.7185 H   0  0  0  0  0  0  0  0  0  0  0  0
   40.5524   30.3843   42.3232 H   0  0  0  0  0  0  0  0  0  0  0  0
   40.7972   32.7577   43.0456 H   0  0  0  0  0  0  0  0  0  0  0  0
  1  5  1  0
  1  2  1  0
  2  3  1  0
  4  3  1  0
  5  4  1  0
  6  2  1  0
  8  7  2  0
  8  6  1  0
  8 10  1  0
  8  9  1  0
 10 11  1  0
 12 17  1  0
 12 11  1  0
 13 12  2  0
 14 15  2  0
 14 13  1  0
 15 16  1  0
 16 17  2  0
 18  1  1  0
 20 19  1  0
 20 21  2  0
 21 18  1  0
 22 21  1  0
 23 22  2  0
 24 25  2  0
 24 23  1  0
 25 20  1  0
  1 26  1  6
  2 27  1  6
  3 28  1  0
  3 29  1  0
  5 30  1  0
  5 31  1  0
  9 32  1  0
 11 33  1  0
 11 34  1  0
 13 35  1  0
 14 36  1  0
 16 37  1  0
 22 38  1  0
 23 39  1  0
 24 40  1  0
 25 41  1  0
M  ISO  8  26  13  27  13  28  13  29  13  30  13  31  13  32   3  33   8
M  ISO  8  34   8  35  14  36  14  37  14  38  14  39  14  40  14  41  14
M  END
>  <minimizedAffinity>  (1) 
-5.11183977

>  <minimizedRMSD>  (1) 
0.889499485

$$$$
