
     RDKit          3D

 43 45  0  0  1  0  0  0  0  0999 V2000
   36.7890   31.5330   48.8410 O   0  0  0  0  0  0  0  0  0  0  0  0
   38.7230   32.3640   47.8530 C   0  0  2  0  0  0  0  0  0  0  0  0
   38.1550   31.3410   48.8170 C   0  0  1  0  0  0  0  0  0  0  0  0
   38.7660   31.9010   50.1110 C   0  0  0  0  0  0  0  0  0  0  0  0
   38.4130   33.2380   50.0210 O   0  0  0  0  0  0  0  0  0  0  0  0
   38.5710   33.6330   48.7010 C   0  0  0  0  0  0  0  0  0  0  0  0
   37.9320   32.3810   46.7260 O   0  0  0  0  0  0  0  0  0  0  0  0
   39.6430   33.3420   45.4190 N   0  0  0  0  0  0  0  0  0  0  0  0
   40.7330   32.6910   44.6820 C   0  0  0  0  0  0  0  0  0  0  0  0
   40.8600   31.3960   45.4590 C   0  0  0  0  0  0  0  0  0  0  0  0
   39.3920   30.9880   45.5520 C   0  0  0  0  0  0  0  0  0  0  0  0
   38.6270   32.2960   45.5340 C   0  0  1  0  0  0  0  0  0  0  0  0
   35.8850   29.8160   47.0990 O   0  0  0  0  0  0  0  0  0  0  0  0
   35.9170   30.1170   48.5710 P   0  0  1  0  0  0  0  0  0  0  0  0
   36.7000   28.8100   49.3610 O   0  0  0  0  0  0  0  0  0  0  0  0
   34.3410   30.2820   49.1840 O   0  0  0  0  0  0  0  0  0  0  0  0
   34.0550   29.1160   49.8690 C   0  0  0  0  0  0  0  0  0  0  0  0
   33.2030   28.1770   49.1060 C   0  0  0  0  0  0  0  0  0  0  0  0
   33.8480   27.3050   48.2600 C   0  0  0  0  0  0  0  0  0  0  0  0
   33.1020   26.3910   47.5120 C   0  0  0  0  0  0  0  0  0  0  0  0
   31.7480   26.4250   47.6710 N   0  0  0  0  0  0  0  0  0  0  0  0
   31.1400   27.2900   48.5060 C   0  0  0  0  0  0  0  0  0  0  0  0
   31.8660   28.1660   49.2250 N   0  0  0  0  0  0  0  0  0  0  0  0
   39.7490   32.2026   47.4906 H   0  0  0  0  0  0  0  0  0  0  0  0
   38.3516   30.2777   48.6152 H   0  0  0  0  0  0  0  0  0  0  0  0
   38.3269   31.4276   51.0015 H   0  0  0  0  0  0  0  0  0  0  0  0
   39.8474   31.7262   50.2112 H   0  0  0  0  0  0  0  0  0  0  0  0
   39.4692   34.2603   48.6020 H   0  0  0  0  0  0  0  0  0  0  0  0
   37.7028   34.2198   48.3665 H   0  0  0  0  0  0  0  0  0  0  0  0
   39.2789   34.1515   44.8965 H   0  0  0  0  0  0  0  0  0  0  0  0
   40.4607   32.5090   43.6319 H   0  0  0  0  0  0  0  0  0  0  0  0
   41.6597   33.2805   44.6206 H   0  0  0  0  0  0  0  0  0  0  0  0
   41.4557   30.6502   44.9123 H   0  0  0  0  0  0  0  0  0  0  0  0
   41.3741   31.4886   46.4270 H   0  0  0  0  0  0  0  0  0  0  0  0
   39.1086   30.3611   44.6937 H   0  0  0  0  0  0  0  0  0  0  0  0
   39.1813   30.3952   46.4543 H   0  0  0  0  0  0  0  0  0  0  0  0
   37.9047   32.3857   44.7092 H   0  0  0  0  0  0  0  0  0  0  0  0
   36.6298   28.9273   50.3415 H   0  0  0  0  0  0  0  0  0  0  0  0
   35.0026   28.6110   50.1076 H   0  0  0  0  0  0  0  0  0  0  0  0
   33.4949   29.4003   50.7720 H   0  0  0  0  0  0  0  0  0  0  0  0
   34.9443   27.3273   48.1730 H   0  0  0  0  0  0  0  0  0  0  0  0
   33.5839   25.6777   46.8272 H   0  0  0  0  0  0  0  0  0  0  0  0
   30.0441   27.2802   48.6006 H   0  0  0  0  0  0  0  0  0  0  0  0
  2  6  1  0
  2  3  1  0
  3  1  1  0
  3  4  1  0
  5  4  1  0
  6  5  1  0
  7  2  1  0
  8 12  1  0
  9  8  1  0
  9 10  1  0
 10 11  1  0
 12 11  1  0
 12  7  1  0
 14 13  2  0
 14  1  1  0
 14 16  1  0
 14 15  1  0
 16 17  1  0
 18 23  1  0
 18 17  1  0
 19 18  2  0
 20 21  2  0
 20 19  1  0
 21 22  1  0
 22 23  2  0
  2 24  1  6
  3 25  1  6
  4 26  1  0
  4 27  1  0
  6 28  1  0
  6 29  1  0
  8 30  1  0
  9 31  1  0
  9 32  1  0
 10 33  1  0
 10 34  1  0
 11 35  1  0
 11 36  1  0
 12 37  1  6
 15 38  1  0
 17 39  1  0
 17 40  1  0
 19 41  1  0
 20 42  1  0
 22 43  1  0
M  ISO  8  24  13  25  13  26  13  27  13  28  13  29  13  30   5  31  13
M  ISO  8  32  13  33  13  34  13  35  13  36  13  37  13  38   3  39   8
M  ISO  4  40   8  41  14  42  14  43  14
M  END
>  <minimizedAffinity>  (1) 
-4.93852329

>  <minimizedRMSD>  (1) 
0.226054445

$$$$
