
     RDKit          3D

 34 35  0  0  1  0  0  0  0  0999 V2000
   35.9340   29.7990   46.9140 O   0  0  0  0  0  0  0  0  0  0  0  0
   35.9940   30.1750   48.3740 P   0  0  2  0  0  0  0  0  0  0  0  0
   36.7840   28.8970   49.2050 O   0  0  0  0  0  0  0  0  0  0  0  0
   34.4250   30.3580   49.0030 O   0  0  0  0  0  0  0  0  0  0  0  0
   34.1570   29.2370   49.7620 C   0  0  0  0  0  0  0  0  0  0  0  0
   33.2910   28.2540   49.0760 C   0  0  0  0  0  0  0  0  0  0  0  0
   33.9140   27.3480   48.2500 C   0  0  0  0  0  0  0  0  0  0  0  0
   33.1500   26.3930   47.5730 C   0  0  0  0  0  0  0  0  0  0  0  0
   31.8040   26.4210   47.7820 N   0  0  0  0  0  0  0  0  0  0  0  0
   31.2170   27.3180   48.5960 C   0  0  0  0  0  0  0  0  0  0  0  0
   31.9560   28.2410   49.2510 N   0  0  0  0  0  0  0  0  0  0  0  0
   36.8600   31.6020   48.5490 O   0  0  0  0  0  0  0  0  0  0  0  0
   38.9060   32.4400   47.8280 C   0  0  2  0  0  0  0  0  0  0  0  0
   38.2280   31.3840   48.6700 C   0  0  1  0  0  0  0  0  0  0  0  0
   38.6860   31.8830   50.0540 C   0  0  0  0  0  0  0  0  0  0  0  0
   38.3610   33.2270   49.9730 O   0  0  0  0  0  0  0  0  0  0  0  0
   38.6640   33.6770   48.7070 C   0  0  0  0  0  0  0  0  0  0  0  0
   38.2400   32.5100   46.6160 O   0  0  0  0  0  0  0  0  0  0  0  0
   39.0990   32.6660   45.5370 C   0  0  0  0  0  0  0  0  0  0  0  0
   38.3360   33.0020   44.4190 F   0  0  0  0  0  0  0  0  0  0  0  0
   40.0810   33.6040   45.7670 F   0  0  0  0  0  0  0  0  0  0  0  0
   39.6640   31.4330   45.2670 F   0  0  0  0  0  0  0  0  0  0  0  0
   36.6983   29.0356   50.1815 H   0  0  0  0  0  0  0  0  0  0  0  0
   35.1107   28.7479   50.0097 H   0  0  0  0  0  0  0  0  0  0  0  0
   33.6164   29.5747   50.6585 H   0  0  0  0  0  0  0  0  0  0  0  0
   35.0063   27.3746   48.1229 H   0  0  0  0  0  0  0  0  0  0  0  0
   33.6136   25.6538   46.9032 H   0  0  0  0  0  0  0  0  0  0  0  0
   30.1253   27.2997   48.7295 H   0  0  0  0  0  0  0  0  0  0  0  0
   39.9668   32.2870   47.5802 H   0  0  0  0  0  0  0  0  0  0  0  0
   38.4408   30.3290   48.4428 H   0  0  0  0  0  0  0  0  0  0  0  0
   38.1368   31.3831   50.8654 H   0  0  0  0  0  0  0  0  0  0  0  0
   39.7446   31.6859   50.2788 H   0  0  0  0  0  0  0  0  0  0  0  0
   39.5693   34.3011   48.7360 H   0  0  0  0  0  0  0  0  0  0  0  0
   37.8422   34.2868   48.3034 H   0  0  0  0  0  0  0  0  0  0  0  0
  2  1  2  0
  2 12  1  0
  2  4  1  0
  2  3  1  0
  4  5  1  0
  6 11  1  0
  6  5  1  0
  7  6  2  0
  8  9  2  0
  8  7  1  0
  9 10  1  0
 10 11  2  0
 12 14  1  0
 13 14  1  0
 13 17  1  0
 14 15  1  0
 16 15  1  0
 17 16  1  0
 18 13  1  0
 19 21  1  0
 19 18  1  0
 20 19  1  0
 22 19  1  0
  3 23  1  0
  5 24  1  0
  5 25  1  0
  7 26  1  0
  8 27  1  0
 10 28  1  0
 13 29  1  6
 14 30  1  6
 15 31  1  0
 15 32  1  0
 17 33  1  0
 17 34  1  0
M  ISO  8  23   3  24   8  25   8  26  14  27  14  28  14  29  13  30  13
M  ISO  4  31  13  32  13  33  13  34  13
M  END
>  <minimizedAffinity>  (1) 
-4.46105433

>  <minimizedRMSD>  (1) 
0.288560688

$$$$
