
     RDKit          3D

 37 38  0  0  1  0  0  0  0  0999 V2000
   35.9340   29.8230   46.9300 O   0  0  0  0  0  0  0  0  0  0  0  0
   35.9830   30.1760   48.3940 P   0  0  2  0  0  0  0  0  0  0  0  0
   36.7720   28.8880   49.2130 O   0  0  0  0  0  0  0  0  0  0  0  0
   34.4120   30.3520   49.0160 O   0  0  0  0  0  0  0  0  0  0  0  0
   34.1460   29.2240   49.7690 C   0  0  0  0  0  0  0  0  0  0  0  0
   33.2800   28.2430   49.0770 C   0  0  0  0  0  0  0  0  0  0  0  0
   33.9070   27.3430   48.2470 C   0  0  0  0  0  0  0  0  0  0  0  0
   33.1480   26.3900   47.5640 C   0  0  0  0  0  0  0  0  0  0  0  0
   31.8000   26.4130   47.7670 N   0  0  0  0  0  0  0  0  0  0  0  0
   31.2010   27.3090   48.5900 C   0  0  0  0  0  0  0  0  0  0  0  0
   31.9470   28.2220   49.2420 N   0  0  0  0  0  0  0  0  0  0  0  0
   36.8410   31.6020   48.5950 O   0  0  0  0  0  0  0  0  0  0  0  0
   38.8820   32.4140   47.8190 C   0  0  2  0  0  0  0  0  0  0  0  0
   38.2150   31.3890   48.7040 C   0  0  1  0  0  0  0  0  0  0  0  0
   38.7060   31.9050   50.0610 C   0  0  0  0  0  0  0  0  0  0  0  0
   38.3880   33.2400   49.9720 O   0  0  0  0  0  0  0  0  0  0  0  0
   38.6670   33.6620   48.6960 C   0  0  0  0  0  0  0  0  0  0  0  0
   38.1920   32.4920   46.6350 O   0  0  0  0  0  0  0  0  0  0  0  0
   39.0090   32.1050   45.5680 C   0  0  0  0  0  0  0  0  0  0  0  0
   40.0440   33.1730   45.2930 C   0  0  0  0  0  0  0  0  0  0  0  0
   36.6911   29.0200   50.1908 H   0  0  0  0  0  0  0  0  0  0  0  0
   35.1007   28.7348   50.0126 H   0  0  0  0  0  0  0  0  0  0  0  0
   33.6056   29.5551   50.6681 H   0  0  0  0  0  0  0  0  0  0  0  0
   34.9994   27.3736   48.1219 H   0  0  0  0  0  0  0  0  0  0  0  0
   33.6163   25.6547   46.8932 H   0  0  0  0  0  0  0  0  0  0  0  0
   30.1095   27.2904   48.7248 H   0  0  0  0  0  0  0  0  0  0  0  0
   39.9293   32.2324   47.5359 H   0  0  0  0  0  0  0  0  0  0  0  0
   38.4177   30.3267   48.5031 H   0  0  0  0  0  0  0  0  0  0  0  0
   38.1750   31.4190   50.8928 H   0  0  0  0  0  0  0  0  0  0  0  0
   39.7695   31.7073   50.2604 H   0  0  0  0  0  0  0  0  0  0  0  0
   39.5778   34.2788   48.6974 H   0  0  0  0  0  0  0  0  0  0  0  0
   37.8366   34.2670   48.3031 H   0  0  0  0  0  0  0  0  0  0  0  0
   39.5168   31.1627   45.8215 H   0  0  0  0  0  0  0  0  0  0  0  0
   38.3880   31.9654   44.6708 H   0  0  0  0  0  0  0  0  0  0  0  0
   40.4261   33.5673   46.2461 H   0  0  0  0  0  0  0  0  0  0  0  0
   40.8743   32.7392   44.7164 H   0  0  0  0  0  0  0  0  0  0  0  0
   39.5843   33.9893   44.7164 H   0  0  0  0  0  0  0  0  0  0  0  0
  2  1  2  0
  2 12  1  0
  2  4  1  0
  2  3  1  0
  4  5  1  0
  6 11  1  0
  6  5  1  0
  7  6  2  0
  8  9  2  0
  8  7  1  0
  9 10  1  0
 10 11  2  0
 12 14  1  0
 13 17  1  0
 13 14  1  0
 14 15  1  0
 16 15  1  0
 17 16  1  0
 18 13  1  0
 19 18  1  0
 20 19  1  0
  3 21  1  0
  5 22  1  0
  5 23  1  0
  7 24  1  0
  8 25  1  0
 10 26  1  0
 13 27  1  6
 14 28  1  6
 15 29  1  0
 15 30  1  0
 17 31  1  0
 17 32  1  0
 19 33  1  0
 19 34  1  0
 20 35  1  0
 20 36  1  0
 20 37  1  0
M  ISO  8  21   3  22   8  23   8  24  14  25  14  26  14  27  13  28  13
M  ISO  8  29  13  30  13  31  13  32  13  33   8  34   8  35   8  36   8
M  ISO  1  37   8
M  END
>  <minimizedAffinity>  (1) 
-4.07012606

>  <minimizedRMSD>  (1) 
0.407577723

$$$$
