
     RDKit          3D

 34 35  0  0  1  0  0  0  0  0999 V2000
   35.8810   29.8300   46.9570 O   0  0  0  0  0  0  0  0  0  0  0  0
   35.9440   30.1680   48.4230 P   0  0  2  0  0  0  0  0  0  0  0  0
   36.7500   28.8730   49.2200 O   0  0  0  0  0  0  0  0  0  0  0  0
   34.3880   30.3350   49.0630 O   0  0  0  0  0  0  0  0  0  0  0  0
   34.1320   29.1920   49.8070 C   0  0  0  0  0  0  0  0  0  0  0  0
   33.2660   28.2270   49.0940 C   0  0  0  0  0  0  0  0  0  0  0  0
   33.8900   27.3300   48.2600 C   0  0  0  0  0  0  0  0  0  0  0  0
   33.1270   26.3940   47.5580 C   0  0  0  0  0  0  0  0  0  0  0  0
   31.7780   26.4320   47.7500 N   0  0  0  0  0  0  0  0  0  0  0  0
   31.1780   27.3190   48.5720 C   0  0  0  0  0  0  0  0  0  0  0  0
   31.9300   28.2260   49.2510 N   0  0  0  0  0  0  0  0  0  0  0  0
   36.8220   31.5840   48.6450 O   0  0  0  0  0  0  0  0  0  0  0  0
   38.8490   32.3800   47.7990 C   0  0  2  0  0  0  0  0  0  0  0  0
   38.1860   31.3690   48.7230 C   0  0  1  0  0  0  0  0  0  0  0  0
   38.7130   31.9180   50.0480 C   0  0  0  0  0  0  0  0  0  0  0  0
   38.3800   33.2590   49.9340 O   0  0  0  0  0  0  0  0  0  0  0  0
   38.6700   33.6370   48.6340 C   0  0  0  0  0  0  0  0  0  0  0  0
   38.1500   32.4110   46.6150 O   0  0  0  0  0  0  0  0  0  0  0  0
   39.1070   32.5430   45.5820 C   0  0  0  0  0  0  0  0  0  0  0  0
   36.6761   28.9917   50.2001 H   0  0  0  0  0  0  0  0  0  0  0  0
   35.0889   28.7014   50.0385 H   0  0  0  0  0  0  0  0  0  0  0  0
   33.6018   29.5021   50.7196 H   0  0  0  0  0  0  0  0  0  0  0  0
   34.9839   27.3492   48.1461 H   0  0  0  0  0  0  0  0  0  0  0  0
   33.5925   25.6612   46.8825 H   0  0  0  0  0  0  0  0  0  0  0  0
   30.0846   27.3081   48.6921 H   0  0  0  0  0  0  0  0  0  0  0  0
   39.8940   32.1976   47.5079 H   0  0  0  0  0  0  0  0  0  0  0  0
   38.3723   30.3007   48.5386 H   0  0  0  0  0  0  0  0  0  0  0  0
   38.2107   31.4493   50.9071 H   0  0  0  0  0  0  0  0  0  0  0  0
   39.7831   31.7312   50.2210 H   0  0  0  0  0  0  0  0  0  0  0  0
   39.5966   34.2296   48.6171 H   0  0  0  0  0  0  0  0  0  0  0  0
   37.8519   34.2489   48.2263 H   0  0  0  0  0  0  0  0  0  0  0  0
   40.1055   32.6807   46.0226 H   0  0  0  0  0  0  0  0  0  0  0  0
   39.1026   31.6358   44.9600 H   0  0  0  0  0  0  0  0  0  0  0  0
   38.8572   33.4152   44.9600 H   0  0  0  0  0  0  0  0  0  0  0  0
  2  1  2  0
  2 12  1  0
  2  4  1  0
  2  3  1  0
  4  5  1  0
  6 11  1  0
  6  5  1  0
  7  6  2  0
  8  9  2  0
  8  7  1  0
  9 10  1  0
 10 11  2  0
 12 14  1  0
 13 17  1  0
 13 14  1  0
 14 15  1  0
 16 15  1  0
 17 16  1  0
 18 13  1  0
 19 18  1  0
  3 20  1  0
  5 21  1  0
  5 22  1  0
  7 23  1  0
  8 24  1  0
 10 25  1  0
 13 26  1  6
 14 27  1  6
 15 28  1  0
 15 29  1  0
 17 30  1  0
 17 31  1  0
 19 32  1  0
 19 33  1  0
 19 34  1  0
M  ISO  8  20   3  21   8  22   8  23  14  24  14  25  14  26  13  27  13
M  ISO  7  28  13  29  13  30  13  31  13  32   8  33   8  34   8
M  END
>  <minimizedAffinity>  (1) 
-3.89303493

>  <minimizedRMSD>  (1) 
0.13244766

$$$$
