
     RDKit          3D

 34 36  0  0  0  0  0  0  0  0999 V2000
   35.6290   30.0580   48.3720 C   0  0  0  0  0  0  0  0  0  0  0  0
   35.6230   28.9140   49.0670 C   0  0  0  0  0  0  0  0  0  0  0  0
   34.6140   28.0340   48.9770 C   0  0  0  0  0  0  0  0  0  0  0  0
   33.5820   28.3420   48.1460 N   0  0  0  0  0  0  0  0  0  0  0  0
   33.5790   29.4560   47.4630 C   0  0  0  0  0  0  0  0  0  0  0  0
   34.5890   30.3380   47.5530 N   0  0  0  0  0  0  0  0  0  0  0  0
   31.3980   28.7200   46.6150 C   0  0  0  0  0  0  0  0  0  0  0  0
   32.4510   29.6580   46.5770 C   0  0  0  0  0  0  0  0  0  0  0  0
   32.4890   30.7390   45.7280 C   0  0  0  0  0  0  0  0  0  0  0  0
   31.4440   30.9390   44.8510 C   0  0  0  0  0  0  0  0  0  0  0  0
   30.3770   30.0850   44.8140 C   0  0  0  0  0  0  0  0  0  0  0  0
   30.4260   29.0470   45.6870 C   0  0  0  0  0  0  0  0  0  0  0  0
   31.2830   27.4370   47.6730 S   0  0  0  0  0  0  0  0  0  0  0  0
   30.0660   26.7460   46.9150 O   0  0  0  0  0  0  0  0  0  0  0  0
   30.7930   27.8910   48.9930 O   0  0  0  0  0  0  0  0  0  0  0  0
   31.7570   25.9250   48.0110 C   0  0  0  0  0  0  0  0  0  0  0  0
   37.9560   32.6330   49.5650 C   0  0  0  0  0  0  0  0  0  0  0  0
   38.7660   32.8640   48.4390 C   0  0  0  0  0  0  0  0  0  0  0  0
   38.4930   32.1240   47.2900 C   0  0  0  0  0  0  0  0  0  0  0  0
   37.4680   31.2300   47.3210 N   0  0  0  0  0  0  0  0  0  0  0  0
   36.7080   31.0350   48.4270 C   0  0  0  0  0  0  0  0  0  0  0  0
   36.9570   31.7390   49.5440 N   0  0  0  0  0  0  0  0  0  0  0  0
   36.4702   28.6886   49.7315 H   0  0  0  0  0  0  0  0  0  0  0  0
   34.6211   27.0976   49.5542 H   0  0  0  0  0  0  0  0  0  0  0  0
   33.3411   31.4344   45.7482 H   0  0  0  0  0  0  0  0  0  0  0  0
   31.4693   31.8014   44.1687 H   0  0  0  0  0  0  0  0  0  0  0  0
   29.5342   30.2297   44.1221 H   0  0  0  0  0  0  0  0  0  0  0  0
   29.5644   28.3641   45.6512 H   0  0  0  0  0  0  0  0  0  0  0  0
   31.7995   25.7893   49.1018 H   0  0  0  0  0  0  0  0  0  0  0  0
   31.0396   25.2109   47.5804 H   0  0  0  0  0  0  0  0  0  0  0  0
   32.7536   25.7483   47.5804 H   0  0  0  0  0  0  0  0  0  0  0  0
   38.1470   33.2008   50.4875 H   0  0  0  0  0  0  0  0  0  0  0  0
   39.5831   33.6000   48.4641 H   0  0  0  0  0  0  0  0  0  0  0  0
   39.0931   32.2598   46.3781 H   0  0  0  0  0  0  0  0  0  0  0  0
  1 21  1  0
  1  2  2  0
  3  2  1  0
  4  3  2  0
  5  6  2  0
  5  4  1  0
  6  1  1  0
  7 13  1  0
  8  7  2  0
  8  5  1  0
  9  8  1  0
 10  9  2  0
 11 10  1  0
 11 12  2  0
 12  7  1  0
 13 16  1  0
 13 15  2  0
 14 13  2  0
 18 17  2  0
 19 20  2  0
 19 18  1  0
 20 21  1  0
 21 22  2  0
 22 17  1  0
  2 23  1  0
  3 24  1  0
  9 25  1  0
 10 26  1  0
 11 27  1  0
 12 28  1  0
 16 29  1  0
 16 30  1  0
 16 31  1  0
 17 32  1  0
 18 33  1  0
 19 34  1  0
M  ISO  8  23  14  24  14  25  14  26  14  27  14  28  14  29   8  30   8
M  ISO  4  31   8  32  14  33  14  34  14
M  END
>  <minimizedAffinity>  (1) 
-5.2523632

>  <minimizedRMSD>  (1) 
0.87806493

$$$$
