
     RDKit          3D

 34 36  0  0  0  0  0  0  0  0999 V2000
   35.6860   29.8050   48.5100 C   0  0  0  0  0  0  0  0  0  0  0  0
   35.4760   28.8690   49.4450 C   0  0  0  0  0  0  0  0  0  0  0  0
   34.6800   27.8170   49.2190 C   0  0  0  0  0  0  0  0  0  0  0  0
   34.0770   27.7130   48.0100 N   0  0  0  0  0  0  0  0  0  0  0  0
   34.2800   28.6320   47.0880 C   0  0  0  0  0  0  0  0  0  0  0  0
   35.0800   29.6900   47.3110 N   0  0  0  0  0  0  0  0  0  0  0  0
   32.2690   28.0530   45.8120 C   0  0  0  0  0  0  0  0  0  0  0  0
   33.6270   28.3990   45.8130 C   0  0  0  0  0  0  0  0  0  0  0  0
   34.4050   28.4860   44.6810 C   0  0  0  0  0  0  0  0  0  0  0  0
   33.8350   28.2170   43.4570 C   0  0  0  0  0  0  0  0  0  0  0  0
   32.5160   27.8700   43.3500 C   0  0  0  0  0  0  0  0  0  0  0  0
   31.8270   27.8110   44.5190 C   0  0  0  0  0  0  0  0  0  0  0  0
   31.2700   28.0310   47.1480 S   0  0  0  0  0  0  0  0  0  0  0  0
   30.4700   26.7420   46.7250 O   0  0  0  0  0  0  0  0  0  0  0  0
   30.3550   29.2090   47.0770 O   0  0  0  0  0  0  0  0  0  0  0  0
   30.9720   27.6210   48.6630 C   0  0  0  0  0  0  0  0  0  0  0  0
   30.5440   26.3500   49.1080 F   0  0  0  0  0  0  0  0  0  0  0  0
   29.6820   28.1950   49.0830 F   0  0  0  0  0  0  0  0  0  0  0  0
   31.5450   28.3450   49.7540 F   0  0  0  0  0  0  0  0  0  0  0  0
   37.3090   32.7560   49.9710 C   0  0  0  0  0  0  0  0  0  0  0  0
   38.2470   33.1150   48.9860 C   0  0  0  0  0  0  0  0  0  0  0  0
   38.3010   32.3260   47.8320 C   0  0  0  0  0  0  0  0  0  0  0  0
   37.4500   31.2710   47.7340 N   0  0  0  0  0  0  0  0  0  0  0  0
   36.5590   30.9560   48.7050 C   0  0  0  0  0  0  0  0  0  0  0  0
   36.4950   31.7040   49.8190 N   0  0  0  0  0  0  0  0  0  0  0  0
   35.9701   28.9674   50.4229 H   0  0  0  0  0  0  0  0  0  0  0  0
   34.5192   27.0552   49.9960 H   0  0  0  0  0  0  0  0  0  0  0  0
   35.4663   28.7662   44.7531 H   0  0  0  0  0  0  0  0  0  0  0  0
   34.4515   28.2823   42.5483 H   0  0  0  0  0  0  0  0  0  0  0  0
   32.0442   27.6529   42.3803 H   0  0  0  0  0  0  0  0  0  0  0  0
   30.7670   27.5314   44.4278 H   0  0  0  0  0  0  0  0  0  0  0  0
   37.2426   33.3557   50.8907 H   0  0  0  0  0  0  0  0  0  0  0  0
   38.9115   33.9816   49.1179 H   0  0  0  0  0  0  0  0  0  0  0  0
   39.0134   32.5535   47.0253 H   0  0  0  0  0  0  0  0  0  0  0  0
  1 24  1  0
  1  2  2  0
  3  2  1  0
  4  3  2  0
  5  6  2  0
  5  4  1  0
  6  1  1  0
  7  8  2  0
  7 13  1  0
  8  5  1  0
  9  8  1  0
 10  9  2  0
 11 10  1  0
 11 12  2  0
 12  7  1  0
 13 16  1  0
 14 13  2  0
 15 13  2  0
 16 18  1  0
 16 17  1  0
 16 19  1  0
 21 20  2  0
 22 21  1  0
 23 22  2  0
 23 24  1  0
 24 25  2  0
 25 20  1  0
  2 26  1  0
  3 27  1  0
  9 28  1  0
 10 29  1  0
 11 30  1  0
 12 31  1  0
 20 32  1  0
 21 33  1  0
 22 34  1  0
M  ISO  8  26  14  27  14  28  14  29  14  30  14  31  14  32  14  33  14
M  ISO  1  34  14
M  END
>  <minimizedAffinity>  (1) 
-5.19471836

>  <minimizedRMSD>  (1) 
1.73775113

$$$$
