
     RDKit          3D

 41 44  0  0  1  0  0  0  0  0999 V2000
   39.6530   30.6130   45.0670 C   0  0  0  0  0  0  0  0  0  0  0  0
   38.7740   32.1540   46.8660 C   0  0  1  0  0  0  0  0  0  0  0  0
   39.8470   32.9650   46.1710 C   0  0  0  0  0  0  0  0  0  0  0  0
   39.9280   31.4950   46.2280 C   0  0  2  0  0  0  0  0  0  0  0  0
   38.6950   32.3370   48.3480 C   0  0  0  0  0  0  0  0  0  0  0  0
   37.4200   30.0290   51.0020 C   0  0  0  0  0  0  0  0  0  0  0  0
   38.1350   31.0760   50.3410 C   0  0  0  0  0  0  0  0  0  0  0  0
   37.9460   31.2520   49.0020 C   0  0  0  0  0  0  0  0  0  0  0  0
   37.0990   30.4320   48.3800 N   0  0  0  0  0  0  0  0  0  0  0  0
   36.4260   29.4510   48.9860 C   0  0  0  0  0  0  0  0  0  0  0  0
   36.6010   29.2650   50.3000 N   0  0  0  0  0  0  0  0  0  0  0  0
   40.4340   30.9740   43.8230 C   0  0  0  0  0  0  0  0  0  0  0  0
   39.4680   28.7930   43.1800 C   0  0  0  0  0  0  0  0  0  0  0  0
   40.3480   29.8190   42.8750 C   0  0  0  0  0  0  0  0  0  0  0  0
   41.1240   29.7430   41.7140 C   0  0  0  0  0  0  0  0  0  0  0  0
   41.0290   28.6650   40.8670 C   0  0  0  0  0  0  0  0  0  0  0  0
   41.6530   28.3670   39.7170 N   0  0  0  0  0  0  0  0  0  0  0  0
   41.1630   27.1720   39.3200 C   0  0  0  0  0  0  0  0  0  0  0  0
   40.2120   26.6630   40.1970 C   0  0  0  0  0  0  0  0  0  0  0  0
   40.1440   27.6390   41.1780 C   0  0  0  0  0  0  0  0  0  0  0  0
   39.3870   27.7150   42.3150 C   0  0  0  0  0  0  0  0  0  0  0  0
   38.2570   26.3490   42.6620 S   0  0  0  0  0  0  0  0  0  0  0  0
   39.9082   29.5807   45.3485 H   0  0  0  0  0  0  0  0  0  0  0  0
   38.5877   30.7332   44.8206 H   0  0  0  0  0  0  0  0  0  0  0  0
   37.6882   31.9947   46.7911 H   0  0  0  0  0  0  0  0  0  0  0  0
   40.5433   33.5799   46.7601 H   0  0  0  0  0  0  0  0  0  0  0  0
   39.8631   33.7196   45.3708 H   0  0  0  0  0  0  0  0  0  0  0  0
   40.7401   30.8201   46.5363 H   0  0  0  0  0  0  0  0  0  0  0  0
   39.7158   32.3598   48.7572 H   0  0  0  0  0  0  0  0  0  0  0  0
   38.1644   33.2803   48.5444 H   0  0  0  0  0  0  0  0  0  0  0  0
   37.5499   29.8614   52.0814 H   0  0  0  0  0  0  0  0  0  0  0  0
   38.8233   31.7261   50.9010 H   0  0  0  0  0  0  0  0  0  0  0  0
   35.7401   28.8072   48.4158 H   0  0  0  0  0  0  0  0  0  0  0  0
   40.0019   31.8723   43.3579 H   0  0  0  0  0  0  0  0  0  0  0  0
   41.4835   31.1843   44.0768 H   0  0  0  0  0  0  0  0  0  0  0  0
   38.8484   28.8340   44.0880 H   0  0  0  0  0  0  0  0  0  0  0  0
   41.8216   30.5592   41.4750 H   0  0  0  0  0  0  0  0  0  0  0  0
   42.3632   28.9353   39.2337 H   0  0  0  0  0  0  0  0  0  0  0  0
   41.4822   26.6573   38.4017 H   0  0  0  0  0  0  0  0  0  0  0  0
   39.6519   25.7187   40.1289 H   0  0  0  0  0  0  0  0  0  0  0  0
   38.1295   26.1949   44.0173 H   0  0  0  0  0  0  0  0  0  0  0  0
  1  4  1  0
  2  5  1  0
  3  4  1  0
  3  2  1  0
  4  2  1  0
  5  8  1  0
  7  6  2  0
  8  7  1  0
  9 10  1  0
  9  8  2  0
 10 11  2  0
 11  6  1  0
 12  1  1  0
 14 13  2  0
 14 12  1  0
 15 14  1  0
 16 20  1  0
 16 15  2  0
 17 16  1  0
 18 17  1  0
 18 19  2  0
 19 20  1  0
 20 21  2  0
 21 22  1  0
 21 13  1  0
  1 23  1  0
  1 24  1  0
  2 25  1  6
  3 26  1  0
  3 27  1  0
  4 28  1  1
  5 29  1  0
  5 30  1  0
  6 31  1  0
  7 32  1  0
 10 33  1  0
 12 34  1  0
 12 35  1  0
 13 36  1  0
 15 37  1  0
 17 38  1  0
 18 39  1  0
 19 40  1  0
 22 41  1  0
M  ISO  8  23   8  24   8  25  13  26  13  27  13  28  13  29   8  30   8
M  ISO  8  31  14  32  14  33  14  34   8  35   8  36  14  37  14  38   9
M  ISO  3  39  14  40  14  41  11
M  END
>  <minimizedAffinity>  (1) 
-5.72174025

>  <minimizedRMSD>  (1) 
0.0661432743

$$$$
