
     RDKit          3D

 37 39  0  0  0  0  0  0  0  0999 V2000
   35.4790   30.0170   48.3970 C   0  0  0  0  0  0  0  0  0  0  0  0
   35.4870   28.8380   49.0580 C   0  0  0  0  0  0  0  0  0  0  0  0
   34.5050   27.9400   48.9090 C   0  0  0  0  0  0  0  0  0  0  0  0
   33.4880   28.2510   48.0610 N   0  0  0  0  0  0  0  0  0  0  0  0
   33.4760   29.3920   47.4170 C   0  0  0  0  0  0  0  0  0  0  0  0
   34.4610   30.2970   47.5680 N   0  0  0  0  0  0  0  0  0  0  0  0
   31.2810   28.7340   46.5900 C   0  0  0  0  0  0  0  0  0  0  0  0
   32.3750   29.5980   46.4960 C   0  0  0  0  0  0  0  0  0  0  0  0
   32.4970   30.5990   45.5590 C   0  0  0  0  0  0  0  0  0  0  0  0
   31.4900   30.7880   44.6380 C   0  0  0  0  0  0  0  0  0  0  0  0
   30.3720   29.9960   44.6480 C   0  0  0  0  0  0  0  0  0  0  0  0
   30.3450   29.0380   45.6090 C   0  0  0  0  0  0  0  0  0  0  0  0
   31.0570   27.5240   47.7130 S   0  0  0  0  0  0  0  0  0  0  0  0
   29.8680   26.8080   46.9920 O   0  0  0  0  0  0  0  0  0  0  0  0
   30.5510   28.1050   48.9980 O   0  0  0  0  0  0  0  0  0  0  0  0
   31.4530   26.0580   48.2520 C   0  0  0  0  0  0  0  0  0  0  0  0
   31.8900   25.1320   47.0550 C   0  0  0  0  0  0  0  0  0  0  0  0
   37.6900   32.6120   49.7520 C   0  0  0  0  0  0  0  0  0  0  0  0
   38.5640   32.8640   48.6590 C   0  0  0  0  0  0  0  0  0  0  0  0
   38.3650   32.1340   47.4860 C   0  0  0  0  0  0  0  0  0  0  0  0
   37.3530   31.2280   47.4590 N   0  0  0  0  0  0  0  0  0  0  0  0
   36.5360   31.0110   48.5210 C   0  0  0  0  0  0  0  0  0  0  0  0
   36.7100   31.7040   49.6580 N   0  0  0  0  0  0  0  0  0  0  0  0
   36.3224   28.6102   49.7364 H   0  0  0  0  0  0  0  0  0  0  0  0
   34.5202   26.9842   49.4533 H   0  0  0  0  0  0  0  0  0  0  0  0
   33.3897   31.2416   45.5457 H   0  0  0  0  0  0  0  0  0  0  0  0
   31.5847   31.5846   43.8853 H   0  0  0  0  0  0  0  0  0  0  0  0
   29.5523   30.1276   43.9264 H   0  0  0  0  0  0  0  0  0  0  0  0
   29.4449   28.4058   45.6117 H   0  0  0  0  0  0  0  0  0  0  0  0
   32.2864   26.1467   48.9645 H   0  0  0  0  0  0  0  0  0  0  0  0
   30.5780   25.6117   48.7472 H   0  0  0  0  0  0  0  0  0  0  0  0
   32.3281   24.2037   47.4505 H   0  0  0  0  0  0  0  0  0  0  0  0
   31.0113   24.8895   46.4393 H   0  0  0  0  0  0  0  0  0  0  0  0
   32.6358   25.6561   46.4393 H   0  0  0  0  0  0  0  0  0  0  0  0
   37.8209   33.1718   50.6898 H   0  0  0  0  0  0  0  0  0  0  0  0
   39.3697   33.6090   48.7353 H   0  0  0  0  0  0  0  0  0  0  0  0
   39.0096   32.2880   46.6080 H   0  0  0  0  0  0  0  0  0  0  0  0
  1 22  1  0
  1  2  2  0
  3  2  1  0
  4  3  2  0
  5  6  2  0
  5  4  1  0
  6  1  1  0
  7 13  1  0
  8  7  2  0
  8  5  1  0
  9  8  1  0
 10 11  1  0
 10  9  2  0
 11 12  2  0
 12  7  1  0
 13 16  1  0
 13 15  2  0
 14 13  2  0
 17 16  1  0
 19 18  2  0
 20 19  1  0
 21 20  2  0
 21 22  1  0
 22 23  2  0
 23 18  1  0
  2 24  1  0
  3 25  1  0
  9 26  1  0
 10 27  1  0
 11 28  1  0
 12 29  1  0
 16 30  1  0
 16 31  1  0
 17 32  1  0
 17 33  1  0
 17 34  1  0
 18 35  1  0
 19 36  1  0
 20 37  1  0
M  ISO  8  24  14  25  14  26  14  27  14  28  14  29  14  30   8  31   8
M  ISO  6  32   8  33   8  34   8  35  14  36  14  37  14
M  END
>  <minimizedAffinity>  (1) 
-4.96331453

>  <minimizedRMSD>  (1) 
1.09564471

$$$$
