
     RDKit          3D

 46 49  0  0  1  0  0  0  0  0999 V2000
   40.4580   30.9500   43.9020 C   0  0  0  0  0  0  0  0  0  0  0  0
   39.1720   29.0270   43.0070 C   0  0  0  0  0  0  0  0  0  0  0  0
   40.2740   29.8550   42.9000 C   0  0  0  0  0  0  0  0  0  0  0  0
   41.1780   29.6440   41.8600 C   0  0  0  0  0  0  0  0  0  0  0  0
   40.9820   28.6280   40.9490 C   0  0  0  0  0  0  0  0  0  0  0  0
   41.7110   28.2480   39.8820 N   0  0  0  0  0  0  0  0  0  0  0  0
   41.0730   27.2010   39.3380 C   0  0  0  0  0  0  0  0  0  0  0  0
   39.9190   26.8770   40.0320 C   0  0  0  0  0  0  0  0  0  0  0  0
   39.8800   27.8080   41.0650 C   0  0  0  0  0  0  0  0  0  0  0  0
   38.9960   28.0190   42.0880 C   0  0  0  0  0  0  0  0  0  0  0  0
   37.8930   27.1450   42.1460 O   0  0  0  0  0  0  0  0  0  0  0  0
   37.8670   24.5420   41.5120 O   0  0  0  0  0  0  0  0  0  0  0  0
   37.9850   25.5310   42.6430 P   0  0  0  0  0  0  0  0  0  0  0  0
   39.3930   25.3010   43.5260 O   0  0  0  0  0  0  0  0  0  0  0  0
   36.6690   25.2520   43.6890 O   0  0  0  0  0  0  0  0  0  0  0  0
   39.6330   30.5860   45.1280 C   0  0  0  0  0  0  0  0  0  0  0  0
   38.7060   32.1390   46.8940 C   0  0  1  0  0  0  0  0  0  0  0  0
   39.8220   32.9300   46.2580 C   0  0  0  0  0  0  0  0  0  0  0  0
   39.8700   31.4540   46.3060 C   0  0  2  0  0  0  0  0  0  0  0  0
   38.5560   32.3170   48.3750 C   0  0  0  0  0  0  0  0  0  0  0  0
   37.3420   29.8250   50.8960 C   0  0  0  0  0  0  0  0  0  0  0  0
   38.0510   30.9050   50.2890 C   0  0  0  0  0  0  0  0  0  0  0  0
   37.8070   31.1920   48.9740 C   0  0  0  0  0  0  0  0  0  0  0  0
   36.9100   30.4370   48.3210 N   0  0  0  0  0  0  0  0  0  0  0  0
   36.2460   29.4240   48.8900 C   0  0  0  0  0  0  0  0  0  0  0  0
   36.4720   29.1320   50.1730 N   0  0  0  0  0  0  0  0  0  0  0  0
   40.1088   31.9055   43.4836 H   0  0  0  0  0  0  0  0  0  0  0  0
   41.5199   31.0610   44.1665 H   0  0  0  0  0  0  0  0  0  0  0  0
   38.4438   29.1728   43.8184 H   0  0  0  0  0  0  0  0  0  0  0  0
   42.0586   30.2963   41.7651 H   0  0  0  0  0  0  0  0  0  0  0  0
   42.5863   28.6770   39.5492 H   0  0  0  0  0  0  0  0  0  0  0  0
   41.4250   26.6629   38.4455 H   0  0  0  0  0  0  0  0  0  0  0  0
   39.2012   26.0718   39.8167 H   0  0  0  0  0  0  0  0  0  0  0  0
   39.1851   25.3350   44.4933 H   0  0  0  0  0  0  0  0  0  0  0  0
   36.9746   25.3168   44.6284 H   0  0  0  0  0  0  0  0  0  0  0  0
   38.5686   30.6544   44.8590 H   0  0  0  0  0  0  0  0  0  0  0  0
   39.9373   29.5702   45.4205 H   0  0  0  0  0  0  0  0  0  0  0  0
   37.6217   32.0040   46.7673 H   0  0  0  0  0  0  0  0  0  0  0  0
   40.5032   33.5255   46.8836 H   0  0  0  0  0  0  0  0  0  0  0  0
   39.8902   33.6903   45.4660 H   0  0  0  0  0  0  0  0  0  0  0  0
   40.6500   30.7567   46.6458 H   0  0  0  0  0  0  0  0  0  0  0  0
   39.5546   32.3681   48.8335 H   0  0  0  0  0  0  0  0  0  0  0  0
   37.9971   33.2462   48.5600 H   0  0  0  0  0  0  0  0  0  0  0  0
   37.5152   29.5701   51.9520 H   0  0  0  0  0  0  0  0  0  0  0  0
   38.7784   31.4942   50.8667 H   0  0  0  0  0  0  0  0  0  0  0  0
   35.5211   28.8376   48.3063 H   0  0  0  0  0  0  0  0  0  0  0  0
  1 16  1  0
  3  2  2  0
  3  1  1  0
  4  3  1  0
  5  9  1  0
  5  4  2  0
  6  5  1  0
  7  6  1  0
  7  8  2  0
  8  9  1  0
  9 10  2  0
 10 11  1  0
 10  2  1  0
 11 13  1  0
 12 13  2  0
 13 14  1  0
 13 15  1  0
 16 19  1  0
 17 20  1  0
 18 19  1  0
 18 17  1  0
 19 17  1  0
 20 23  1  0
 22 21  2  0
 23 22  1  0
 24 25  1  0
 24 23  2  0
 25 26  2  0
 26 21  1  0
  1 27  1  0
  1 28  1  0
  2 29  1  0
  4 30  1  0
  6 31  1  0
  7 32  1  0
  8 33  1  0
 14 34  1  0
 15 35  1  0
 16 36  1  0
 16 37  1  0
 17 38  1  6
 18 39  1  0
 18 40  1  0
 19 41  1  1
 20 42  1  0
 20 43  1  0
 21 44  1  0
 22 45  1  0
 25 46  1  0
M  ISO  8  27   8  28   8  29  14  30  14  31   9  32  14  33  14  34   3
M  ISO  8  35   3  36   8  37   8  38  13  39  13  40  13  41  13  42   8
M  ISO  4  43   8  44  14  45  14  46  14
M  END
>  <minimizedAffinity>  (1) 
-5.5559926

>  <minimizedRMSD>  (1) 
0.68635428

$$$$
