
     RDKit          3D

 37 39  0  0  0  0  0  0  0  0999 V2000
   35.6490   29.7320   48.3870 C   0  0  0  0  0  0  0  0  0  0  0  0
   35.4600   28.7750   49.3200 C   0  0  0  0  0  0  0  0  0  0  0  0
   34.6470   27.7380   49.0980 C   0  0  0  0  0  0  0  0  0  0  0  0
   34.0000   27.6530   47.9060 N   0  0  0  0  0  0  0  0  0  0  0  0
   34.1900   28.5990   46.9930 C   0  0  0  0  0  0  0  0  0  0  0  0
   35.0040   29.6350   47.2180 N   0  0  0  0  0  0  0  0  0  0  0  0
   32.1090   28.1070   45.7830 C   0  0  0  0  0  0  0  0  0  0  0  0
   33.4750   28.3970   45.7550 C   0  0  0  0  0  0  0  0  0  0  0  0
   34.2220   28.4830   44.5980 C   0  0  0  0  0  0  0  0  0  0  0  0
   33.6030   28.2720   43.3840 C   0  0  0  0  0  0  0  0  0  0  0  0
   32.2600   27.9790   43.3150 C   0  0  0  0  0  0  0  0  0  0  0  0
   31.6080   27.9160   44.5030 C   0  0  0  0  0  0  0  0  0  0  0  0
   31.1730   28.0150   47.1580 S   0  0  0  0  0  0  0  0  0  0  0  0
   30.4140   26.7000   46.7790 O   0  0  0  0  0  0  0  0  0  0  0  0
   30.1950   29.1620   47.1090 O   0  0  0  0  0  0  0  0  0  0  0  0
   30.9460   27.6350   48.6930 C   0  0  0  0  0  0  0  0  0  0  0  0
   30.5130   26.3740   49.1600 F   0  0  0  0  0  0  0  0  0  0  0  0
   29.6840   28.2270   49.1680 F   0  0  0  0  0  0  0  0  0  0  0  0
   31.5780   28.3600   49.7440 F   0  0  0  0  0  0  0  0  0  0  0  0
   37.3380   32.6460   49.8480 C   0  0  0  0  0  0  0  0  0  0  0  0
   38.2790   32.9780   48.8550 C   0  0  0  0  0  0  0  0  0  0  0  0
   38.3100   32.1940   47.7100 C   0  0  0  0  0  0  0  0  0  0  0  0
   37.4330   31.1590   47.6180 N   0  0  0  0  0  0  0  0  0  0  0  0
   36.5320   30.8650   48.6000 C   0  0  0  0  0  0  0  0  0  0  0  0
   36.4950   31.6120   49.7030 N   0  0  0  0  0  0  0  0  0  0  0  0
   39.2790   32.4970   46.6320 C   0  0  0  0  0  0  0  0  0  0  0  0
   40.0950   31.3970   46.4300 F   0  0  0  0  0  0  0  0  0  0  0  0
   38.5570   32.7490   45.4600 F   0  0  0  0  0  0  0  0  0  0  0  0
   40.0560   33.6060   46.9380 F   0  0  0  0  0  0  0  0  0  0  0  0
   35.9862   28.8503   50.2831 H   0  0  0  0  0  0  0  0  0  0  0  0
   34.5038   26.9655   49.8679 H   0  0  0  0  0  0  0  0  0  0  0  0
   35.2960   28.7165   44.6434 H   0  0  0  0  0  0  0  0  0  0  0  0
   34.1913   28.3389   42.4570 H   0  0  0  0  0  0  0  0  0  0  0  0
   31.7476   27.8068   42.3570 H   0  0  0  0  0  0  0  0  0  0  0  0
   30.5350   27.6813   44.4435 H   0  0  0  0  0  0  0  0  0  0  0  0
   37.2926   33.2497   50.7664 H   0  0  0  0  0  0  0  0  0  0  0  0
   38.9652   33.8283   48.9819 H   0  0  0  0  0  0  0  0  0  0  0  0
  1 24  1  0
  1  2  2  0
  3  2  1  0
  4  3  2  0
  5  6  2  0
  5  4  1  0
  6  1  1  0
  7 13  1  0
  8  7  2  0
  8  5  1  0
  9  8  1  0
 10  9  2  0
 11 10  1  0
 11 12  2  0
 12  7  1  0
 13 16  1  0
 14 13  2  0
 15 13  2  0
 16 17  1  0
 16 18  1  0
 16 19  1  0
 21 20  2  0
 22 21  1  0
 23 22  2  0
 23 24  1  0
 24 25  2  0
 25 20  1  0
 26 29  1  0
 26 22  1  0
 27 26  1  0
 28 26  1  0
  2 30  1  0
  3 31  1  0
  9 32  1  0
 10 33  1  0
 11 34  1  0
 12 35  1  0
 20 36  1  0
 21 37  1  0
M  ISO  8  30  14  31  14  32  14  33  14  34  14  35  14  36  14  37  14
M  END
>  <minimizedAffinity>  (1) 
-6.23485327

>  <minimizedRMSD>  (1) 
0.245625854

$$$$
