
     RDKit          3D

 41 44  0  0  0  0  0  0  0  0999 V2000
   35.5650   29.6010   48.4040 C   0  0  0  0  0  0  0  0  0  0  0  0
   35.3380   28.7870   49.4570 C   0  0  0  0  0  0  0  0  0  0  0  0
   34.4870   27.7580   49.3700 C   0  0  0  0  0  0  0  0  0  0  0  0
   33.8400   27.5360   48.1960 N   0  0  0  0  0  0  0  0  0  0  0  0
   34.0700   28.3420   47.1650 C   0  0  0  0  0  0  0  0  0  0  0  0
   34.9220   29.3730   47.2470 N   0  0  0  0  0  0  0  0  0  0  0  0
   31.9730   27.7730   46.0190 C   0  0  0  0  0  0  0  0  0  0  0  0
   33.3490   28.0020   45.9610 C   0  0  0  0  0  0  0  0  0  0  0  0
   34.1000   27.9060   44.8060 C   0  0  0  0  0  0  0  0  0  0  0  0
   33.4740   27.5610   43.6280 C   0  0  0  0  0  0  0  0  0  0  0  0
   32.1210   27.3150   43.5890 C   0  0  0  0  0  0  0  0  0  0  0  0
   31.4670   27.4350   44.7710 C   0  0  0  0  0  0  0  0  0  0  0  0
   31.0290   27.9010   47.3850 S   0  0  0  0  0  0  0  0  0  0  0  0
   30.1130   26.6650   47.0940 O   0  0  0  0  0  0  0  0  0  0  0  0
   30.2020   29.1510   47.2420 O   0  0  0  0  0  0  0  0  0  0  0  0
   30.7530   27.6660   48.9400 C   0  0  0  0  0  0  0  0  0  0  0  0
   30.2290   26.4840   49.5030 F   0  0  0  0  0  0  0  0  0  0  0  0
   29.5320   28.3850   49.3400 F   0  0  0  0  0  0  0  0  0  0  0  0
   31.4230   28.4350   49.9410 F   0  0  0  0  0  0  0  0  0  0  0  0
   37.5180   32.4810   49.5780 C   0  0  0  0  0  0  0  0  0  0  0  0
   38.2750   32.8140   48.4370 C   0  0  0  0  0  0  0  0  0  0  0  0
   38.0980   32.0450   47.2950 C   0  0  0  0  0  0  0  0  0  0  0  0
   37.2070   31.0220   47.3500 N   0  0  0  0  0  0  0  0  0  0  0  0
   36.4870   30.7200   48.4670 C   0  0  0  0  0  0  0  0  0  0  0  0
   36.6540   31.4570   49.5650 N   0  0  0  0  0  0  0  0  0  0  0  0
   38.8260   32.2720   46.0100 C   0  0  0  0  0  0  0  0  0  0  0  0
   40.1260   33.0650   46.0730 C   0  0  0  0  0  0  0  0  0  0  0  0
   40.1700   31.5680   45.8630 C   0  0  0  0  0  0  0  0  0  0  0  0
   35.8631   28.9734   50.4054 H   0  0  0  0  0  0  0  0  0  0  0  0
   34.3139   27.1018   50.2357 H   0  0  0  0  0  0  0  0  0  0  0  0
   35.1822   28.1021   44.8262 H   0  0  0  0  0  0  0  0  0  0  0  0
   34.0655   27.4810   42.7040 H   0  0  0  0  0  0  0  0  0  0  0  0
   31.6029   27.0387   42.6588 H   0  0  0  0  0  0  0  0  0  0  0  0
   30.3855   27.2371   44.7361 H   0  0  0  0  0  0  0  0  0  0  0  0
   37.6388   33.0732   50.4971 H   0  0  0  0  0  0  0  0  0  0  0  0
   38.9830   33.6558   48.4509 H   0  0  0  0  0  0  0  0  0  0  0  0
   37.9035   32.3411   45.4148 H   0  0  0  0  0  0  0  0  0  0  0  0
   40.3961   33.7432   45.2502 H   0  0  0  0  0  0  0  0  0  0  0  0
   40.5765   33.7610   46.7960 H   0  0  0  0  0  0  0  0  0  0  0  0
   40.5368   30.9113   46.6656 H   0  0  0  0  0  0  0  0  0  0  0  0
   40.6196   30.9024   45.1115 H   0  0  0  0  0  0  0  0  0  0  0  0
  1 24  1  0
  1  2  2  0
  3  2  1  0
  4  3  2  0
  5  6  2  0
  5  4  1  0
  6  1  1  0
  7 13  1  0
  8  7  2  0
  8  5  1  0
  9  8  1  0
 10  9  2  0
 11 10  1  0
 11 12  2  0
 12  7  1  0
 13 16  1  0
 14 13  2  0
 15 13  2  0
 16 18  1  0
 16 17  1  0
 16 19  1  0
 21 20  2  0
 22 23  2  0
 22 21  1  0
 23 24  1  0
 24 25  2  0
 25 20  1  0
 26 27  1  0
 26 22  1  0
 28 26  1  0
 28 27  1  0
  2 29  1  0
  3 30  1  0
  9 31  1  0
 10 32  1  0
 11 33  1  0
 12 34  1  0
 20 35  1  0
 21 36  1  0
 26 37  1  0
 27 38  1  0
 27 39  1  0
 28 40  1  0
 28 41  1  0
M  ISO  8  29  14  30  14  31  14  32  14  33  14  34  14  35  14  36  14
M  ISO  5  37  13  38  13  39  13  40  13  41  13
M  END
>  <minimizedAffinity>  (1) 
-5.93767405

>  <minimizedRMSD>  (1) 
0.529257238

$$$$
