
     RDKit          3D

 41 43  0  0  0  0  0  0  0  0999 V2000
   35.6630   29.5660   48.4030 C   0  0  0  0  0  0  0  0  0  0  0  0
   35.3680   28.7900   49.4700 C   0  0  0  0  0  0  0  0  0  0  0  0
   34.4630   27.8090   49.3950 C   0  0  0  0  0  0  0  0  0  0  0  0
   33.8300   27.5960   48.2120 N   0  0  0  0  0  0  0  0  0  0  0  0
   34.1230   28.3590   47.1670 C   0  0  0  0  0  0  0  0  0  0  0  0
   35.0290   29.3430   47.2390 N   0  0  0  0  0  0  0  0  0  0  0  0
   32.0310   27.7910   46.0030 C   0  0  0  0  0  0  0  0  0  0  0  0
   33.4100   28.0260   45.9560 C   0  0  0  0  0  0  0  0  0  0  0  0
   34.1700   27.9350   44.8050 C   0  0  0  0  0  0  0  0  0  0  0  0
   33.5520   27.5910   43.6200 C   0  0  0  0  0  0  0  0  0  0  0  0
   32.1980   27.3400   43.5730 C   0  0  0  0  0  0  0  0  0  0  0  0
   31.5310   27.4540   44.7540 C   0  0  0  0  0  0  0  0  0  0  0  0
   31.0830   27.9200   47.3690 S   0  0  0  0  0  0  0  0  0  0  0  0
   30.1360   26.7160   47.0460 O   0  0  0  0  0  0  0  0  0  0  0  0
   30.2920   29.1960   47.2460 O   0  0  0  0  0  0  0  0  0  0  0  0
   30.7860   27.6570   48.9130 C   0  0  0  0  0  0  0  0  0  0  0  0
   30.3050   26.4440   49.4550 F   0  0  0  0  0  0  0  0  0  0  0  0
   29.5280   28.3150   49.2950 F   0  0  0  0  0  0  0  0  0  0  0  0
   31.4020   28.4350   49.9360 F   0  0  0  0  0  0  0  0  0  0  0  0
   37.5460   32.5500   49.3910 C   0  0  0  0  0  0  0  0  0  0  0  0
   38.5800   32.5840   48.4450 C   0  0  0  0  0  0  0  0  0  0  0  0
   38.6110   31.5780   47.4790 C   0  0  0  0  0  0  0  0  0  0  0  0
   37.6250   30.6440   47.5380 N   0  0  0  0  0  0  0  0  0  0  0  0
   36.6460   30.6340   48.4560 C   0  0  0  0  0  0  0  0  0  0  0  0
   36.6230   31.5950   49.3730 N   0  0  0  0  0  0  0  0  0  0  0  0
   39.6060   31.4630   46.4240 C   0  0  0  0  0  0  0  0  0  0  0  0
   40.0490   32.3050   45.5180 C   0  0  0  0  0  0  0  0  0  0  0  0
   40.0340   33.6390   44.8800 C   0  0  0  0  0  0  0  0  0  0  0  0
   35.8856   28.9703   50.4237 H   0  0  0  0  0  0  0  0  0  0  0  0
   34.2355   27.1869   50.2732 H   0  0  0  0  0  0  0  0  0  0  0  0
   35.2515   28.1339   44.8332 H   0  0  0  0  0  0  0  0  0  0  0  0
   34.1492   27.5161   42.6993 H   0  0  0  0  0  0  0  0  0  0  0  0
   31.6875   27.0644   42.6384 H   0  0  0  0  0  0  0  0  0  0  0  0
   30.4506   27.2517   44.7122 H   0  0  0  0  0  0  0  0  0  0  0  0
   37.4980   33.3306   50.1645 H   0  0  0  0  0  0  0  0  0  0  0  0
   39.3416   33.3775   48.4638 H   0  0  0  0  0  0  0  0  0  0  0  0
   40.0829   30.4730   46.3750 H   0  0  0  0  0  0  0  0  0  0  0  0
   40.8048   31.7366   44.9562 H   0  0  0  0  0  0  0  0  0  0  0  0
   40.0252   34.4172   45.6574 H   0  0  0  0  0  0  0  0  0  0  0  0
   40.9309   33.7562   44.2540 H   0  0  0  0  0  0  0  0  0  0  0  0
   39.1347   33.7360   44.2540 H   0  0  0  0  0  0  0  0  0  0  0  0
  1 24  1  0
  1  2  2  0
  3  2  1  0
  4  3  2  0
  5  6  2  0
  5  4  1  0
  6  1  1  0
  7 13  1  0
  8  7  2  0
  8  5  1  0
  9  8  1  0
 10  9  2  0
 11 10  1  0
 11 12  2  0
 12  7  1  0
 13 16  1  0
 14 13  2  0
 15 13  2  0
 16 18  1  0
 16 17  1  0
 16 19  1  0
 21 20  2  0
 22 23  2  0
 22 21  1  0
 23 24  1  0
 24 25  2  0
 25 20  1  0
 26 22  1  0
 27 26  2  0
 28 27  1  0
  2 29  1  0
  3 30  1  0
  9 31  1  0
 10 32  1  0
 11 33  1  0
 12 34  1  0
 20 35  1  0
 21 36  1  0
 26 37  1  0
 27 38  1  0
 28 39  1  0
 28 40  1  0
 28 41  1  0
M  ISO  8  29  14  30  14  31  14  32  14  33  14  34  14  35  14  36  14
M  ISO  3  39   8  40   8  41   8
M  END
>  <minimizedAffinity>  (1) 
-5.93525839

>  <minimizedRMSD>  (1) 
0.695401788

$$$$
