
     RDKit          3D

 36 38  0  0  0  0  0  0  0  0999 V2000
   35.5800   29.6600   48.4310 C   0  0  0  0  0  0  0  0  0  0  0  0
   35.3790   28.7510   49.4090 C   0  0  0  0  0  0  0  0  0  0  0  0
   34.5450   27.7170   49.2340 C   0  0  0  0  0  0  0  0  0  0  0  0
   33.8930   27.5870   48.0470 N   0  0  0  0  0  0  0  0  0  0  0  0
   34.1010   28.4880   47.0940 C   0  0  0  0  0  0  0  0  0  0  0  0
   34.9330   29.5260   47.2610 N   0  0  0  0  0  0  0  0  0  0  0  0
   32.0110   27.9730   45.9110 C   0  0  0  0  0  0  0  0  0  0  0  0
   33.3770   28.2420   45.8650 C   0  0  0  0  0  0  0  0  0  0  0  0
   34.1230   28.2660   44.7020 C   0  0  0  0  0  0  0  0  0  0  0  0
   33.4960   28.0100   43.5030 C   0  0  0  0  0  0  0  0  0  0  0  0
   32.1510   27.7330   43.4500 C   0  0  0  0  0  0  0  0  0  0  0  0
   31.5010   27.7320   44.6410 C   0  0  0  0  0  0  0  0  0  0  0  0
   31.0740   27.9640   47.2870 S   0  0  0  0  0  0  0  0  0  0  0  0
   30.2900   26.6480   46.9720 O   0  0  0  0  0  0  0  0  0  0  0  0
   30.1170   29.1270   47.1850 O   0  0  0  0  0  0  0  0  0  0  0  0
   30.8400   27.6640   48.8390 C   0  0  0  0  0  0  0  0  0  0  0  0
   30.3630   26.4430   49.3630 F   0  0  0  0  0  0  0  0  0  0  0  0
   29.6050   28.3280   49.2940 F   0  0  0  0  0  0  0  0  0  0  0  0
   31.5070   28.4100   49.8530 F   0  0  0  0  0  0  0  0  0  0  0  0
   37.3490   32.5720   49.7920 C   0  0  0  0  0  0  0  0  0  0  0  0
   38.2560   32.8870   48.7600 C   0  0  0  0  0  0  0  0  0  0  0  0
   38.2330   32.0890   47.6220 C   0  0  0  0  0  0  0  0  0  0  0  0
   37.3430   31.0590   47.5760 N   0  0  0  0  0  0  0  0  0  0  0  0
   36.4810   30.7850   48.5920 C   0  0  0  0  0  0  0  0  0  0  0  0
   36.4920   31.5450   49.6920 N   0  0  0  0  0  0  0  0  0  0  0  0
   39.1330   32.3470   46.5210 C   0  0  0  0  0  0  0  0  0  0  0  0
   39.9550   33.2960   46.5710 O   0  0  0  0  0  0  0  0  0  0  0  0
   35.9093   28.8613   50.3664 H   0  0  0  0  0  0  0  0  0  0  0  0
   34.3896   26.9835   50.0388 H   0  0  0  0  0  0  0  0  0  0  0  0
   35.2003   28.4861   44.7335 H   0  0  0  0  0  0  0  0  0  0  0  0
   34.0816   28.0275   42.5720 H   0  0  0  0  0  0  0  0  0  0  0  0
   31.6339   27.5252   42.5016 H   0  0  0  0  0  0  0  0  0  0  0  0
   30.4245   27.5104   44.5950 H   0  0  0  0  0  0  0  0  0  0  0  0
   37.3439   33.1856   50.7049 H   0  0  0  0  0  0  0  0  0  0  0  0
   38.9549   33.7315   48.8516 H   0  0  0  0  0  0  0  0  0  0  0  0
   39.0980   31.7049   45.6286 H   0  0  0  0  0  0  0  0  0  0  0  0
  1 24  1  0
  1  2  2  0
  3  2  1  0
  4  3  2  0
  5  6  2  0
  5  4  1  0
  6  1  1  0
  7 13  1  0
  8  7  2  0
  8  5  1  0
  9  8  1  0
 10  9  2  0
 11 10  1  0
 11 12  2  0
 12  7  1  0
 13 16  1  0
 14 13  2  0
 15 13  2  0
 16 18  1  0
 16 17  1  0
 16 19  1  0
 21 20  2  0
 22 21  1  0
 23 22  2  0
 23 24  1  0
 24 25  2  0
 25 20  1  0
 26 27  2  0
 26 22  1  0
  2 28  1  0
  3 29  1  0
  9 30  1  0
 10 31  1  0
 11 32  1  0
 12 33  1  0
 20 34  1  0
 21 35  1  0
 26 36  1  0
M  ISO  8  28  14  29  14  30  14  31  14  32  14  33  14  34  14  35  14
M  ISO  1  36   6
M  END
>  <minimizedAffinity>  (1) 
-5.53544283

>  <minimizedRMSD>  (1) 
0.289410353

$$$$
