
     RDKit          3D

 40 42  0  0  0  0  0  0  0  0999 V2000
   36.5180   29.5840   48.9300 N   0  0  0  0  0  0  0  0  0  0  0  0
   36.7090   29.0150   50.2560 C   0  0  0  0  0  0  0  0  0  0  0  0
   37.3830   29.9270   51.2260 C   0  0  0  0  0  0  0  0  0  0  0  0
   38.3270   30.8450   50.7000 N   0  0  0  0  0  0  0  0  0  0  0  0
   37.8870   31.4290   49.4340 C   0  0  0  0  0  0  0  0  0  0  0  0
   37.6970   30.2500   48.5030 C   0  0  0  0  0  0  0  0  0  0  0  0
   35.2910   29.4550   48.2120 C   0  0  0  0  0  0  0  0  0  0  0  0
   34.9780   30.2690   47.1130 C   0  0  0  0  0  0  0  0  0  0  0  0
   33.7670   30.0900   46.4600 C   0  0  0  0  0  0  0  0  0  0  0  0
   32.9340   29.1170   46.9300 N   0  0  0  0  0  0  0  0  0  0  0  0
   33.2710   28.3410   48.0040 C   0  0  0  0  0  0  0  0  0  0  0  0
   34.4340   28.5100   48.6340 N   0  0  0  0  0  0  0  0  0  0  0  0
   32.2730   27.3150   48.4160 C   0  0  0  0  0  0  0  0  0  0  0  0
   31.6370   26.7060   47.2100 C   0  0  0  0  0  0  0  0  0  0  0  0
   30.3760   27.4970   46.9030 C   0  0  0  0  0  0  0  0  0  0  0  0
   29.3320   27.0610   47.9250 C   0  0  0  0  0  0  0  0  0  0  0  0
   29.9410   27.1410   49.3060 C   0  0  0  0  0  0  0  0  0  0  0  0
   31.2220   27.9150   49.3280 C   0  0  0  0  0  0  0  0  0  0  0  0
   35.7218   28.7495   50.6621 H   0  0  0  0  0  0  0  0  0  0  0  0
   37.3696   28.1442   50.1322 H   0  0  0  0  0  0  0  0  0  0  0  0
   36.5995   30.5105   51.7317 H   0  0  0  0  0  0  0  0  0  0  0  0
   37.9657   29.2641   51.8825 H   0  0  0  0  0  0  0  0  0  0  0  0
   38.4681   31.6029   51.3831 H   0  0  0  0  0  0  0  0  0  0  0  0
   36.9401   31.9726   49.5675 H   0  0  0  0  0  0  0  0  0  0  0  0
   38.6137   32.1542   49.0390 H   0  0  0  0  0  0  0  0  0  0  0  0
   38.5608   29.5720   48.5675 H   0  0  0  0  0  0  0  0  0  0  0  0
   37.6107   30.5794   47.4570 H   0  0  0  0  0  0  0  0  0  0  0  0
   35.6847   31.0403   46.7729 H   0  0  0  0  0  0  0  0  0  0  0  0
   33.4886   30.7099   45.5950 H   0  0  0  0  0  0  0  0  0  0  0  0
   32.7962   26.5270   48.9776 H   0  0  0  0  0  0  0  0  0  0  0  0
   32.3283   26.7569   46.3559 H   0  0  0  0  0  0  0  0  0  0  0  0
   31.3933   25.6494   47.3952 H   0  0  0  0  0  0  0  0  0  0  0  0
   30.5718   28.5754   46.9961 H   0  0  0  0  0  0  0  0  0  0  0  0
   30.0294   27.3103   45.8759 H   0  0  0  0  0  0  0  0  0  0  0  0
   28.4576   27.7258   47.8672 H   0  0  0  0  0  0  0  0  0  0  0  0
   29.0119   26.0295   47.7163 H   0  0  0  0  0  0  0  0  0  0  0  0
   29.2224   27.6305   49.9798 H   0  0  0  0  0  0  0  0  0  0  0  0
   30.1673   26.1143   49.6295 H   0  0  0  0  0  0  0  0  0  0  0  0
   31.6110   27.9257   50.3568 H   0  0  0  0  0  0  0  0  0  0  0  0
   31.0064   28.9322   48.9690 H   0  0  0  0  0  0  0  0  0  0  0  0
  1  2  1  0
  2  3  1  0
  4  3  1  0
  5  4  1  0
  6  1  1  0
  6  5  1  0
  7 12  1  0
  7  1  1  0
  8  7  2  0
  9 10  2  0
  9  8  1  0
 10 11  1  0
 11 13  1  0
 11 12  2  0
 13 18  1  0
 14 13  1  0
 15 14  1  0
 15 16  1  0
 16 17  1  0
 17 18  1  0
  2 19  1  0
  2 20  1  0
  3 21  1  0
  3 22  1  0
  4 23  1  0
  5 24  1  0
  5 25  1  0
  6 26  1  0
  6 27  1  0
  8 28  1  0
  9 29  1  0
 13 30  1  0
 14 31  1  0
 14 32  1  0
 15 33  1  0
 15 34  1  0
 16 35  1  0
 16 36  1  0
 17 37  1  0
 17 38  1  0
 18 39  1  0
 18 40  1  0
M  ISO  8  19  13  20  13  21  13  22  13  23   5  24  13  25  13  26  13
M  ISO  8  27  13  28  14  29  14  30  13  31  13  32  13  33  13  34  13
M  ISO  6  35  13  36  13  37  13  38  13  39  13  40  13
M  END
>  <minimizedAffinity>  (1) 
-5.03897619

>  <minimizedRMSD>  (1) 
0.932677925

$$$$
