
     RDKit          3D

 27 28  0  0  0  0  0  0  0  0999 V2000
   38.0780   31.7330   48.9900 Br  0  0  0  0  0  0  0  0  0  0  0  0
   36.8590   30.9850   47.7110 C   0  0  0  0  0  0  0  0  0  0  0  0
   37.1940   30.9310   46.3710 C   0  0  0  0  0  0  0  0  0  0  0  0
   36.2870   30.3900   45.5170 C   0  0  0  0  0  0  0  0  0  0  0  0
   35.0480   29.8940   45.9200 C   0  0  0  0  0  0  0  0  0  0  0  0
   34.7500   29.9680   47.2740 C   0  0  0  0  0  0  0  0  0  0  0  0
   35.6670   30.5170   48.1570 C   0  0  0  0  0  0  0  0  0  0  0  0
   39.6700   33.1900   44.9310 C   0  0  0  0  0  0  0  0  0  0  0  0
   40.8750   32.4770   44.9800 C   0  0  0  0  0  0  0  0  0  0  0  0
   40.8150   31.2020   45.5200 C   0  0  0  0  0  0  0  0  0  0  0  0
   39.6170   30.7060   45.9700 N   0  0  0  0  0  0  0  0  0  0  0  0
   38.4840   31.4390   45.8980 C   0  0  0  0  0  0  0  0  0  0  0  0
   38.5150   32.6880   45.3750 N   0  0  0  0  0  0  0  0  0  0  0  0
   35.2330   30.5360   49.5830 C   0  0  0  0  0  0  0  0  0  0  0  0
   34.2670   29.4140   49.9090 C   0  0  0  0  0  0  0  0  0  0  0  0
   35.0390   28.2700   50.1260 O   0  0  0  0  0  0  0  0  0  0  0  0
   36.5442   30.3405   44.4486 H   0  0  0  0  0  0  0  0  0  0  0  0
   34.3386   29.4635   45.1979 H   0  0  0  0  0  0  0  0  0  0  0  0
   33.7860   29.5909   47.6463 H   0  0  0  0  0  0  0  0  0  0  0  0
   39.6756   34.2059   44.5091 H   0  0  0  0  0  0  0  0  0  0  0  0
   41.8179   32.9060   44.6099 H   0  0  0  0  0  0  0  0  0  0  0  0
   41.7257   30.5888   45.5878 H   0  0  0  0  0  0  0  0  0  0  0  0
   36.1213   30.4345   50.2238 H   0  0  0  0  0  0  0  0  0  0  0  0
   34.7129   31.4885   49.7622 H   0  0  0  0  0  0  0  0  0  0  0  0
   33.6914   29.6601   50.8135 H   0  0  0  0  0  0  0  0  0  0  0  0
   33.5504   29.2581   49.0891 H   0  0  0  0  0  0  0  0  0  0  0  0
   35.1403   28.1200   51.0993 H   0  0  0  0  0  0  0  0  0  0  0  0
  2  7  2  0
  2  1  1  0
  3  2  1  0
  4  5  1  0
  4  3  2  0
  5  6  2  0
  6  7  1  0
  7 14  1  0
  8  9  2  0
  8 13  1  0
  9 10  1  0
 10 11  2  0
 12 11  1  0
 12  3  1  0
 13 12  2  0
 14 15  1  0
 15 16  1  0
  4 17  1  0
  5 18  1  0
  6 19  1  0
  8 20  1  0
  9 21  1  0
 10 22  1  0
 14 23  1  0
 14 24  1  0
 15 25  1  0
 15 26  1  0
 16 27  1  0
M  ISO  8  17  14  18  14  19  14  20  14  21  14  22  14  23   8  24   8
M  ISO  3  25   8  26   8  27   3
M  END
>  <minimizedAffinity>  (1) 
-5.10194159

>  <minimizedRMSD>  (1) 
0.262439638

$$$$
