
     RDKit          3D

 25 26  0  0  0  0  0  0  0  0999 V2000
   36.6190   29.6410   48.9460 N   0  0  0  0  0  0  0  0  0  0  0  0
   36.8690   29.1750   50.2920 C   0  0  0  0  0  0  0  0  0  0  0  0
   37.6400   30.1250   51.1320 C   0  0  0  0  0  0  0  0  0  0  0  0
   38.5620   30.9860   50.4890 N   0  0  0  0  0  0  0  0  0  0  0  0
   38.0520   31.4960   49.2070 C   0  0  0  0  0  0  0  0  0  0  0  0
   37.7810   30.2680   48.3840 C   0  0  0  0  0  0  0  0  0  0  0  0
   35.3770   29.4850   48.2850 C   0  0  0  0  0  0  0  0  0  0  0  0
   35.0340   30.1540   47.1120 C   0  0  0  0  0  0  0  0  0  0  0  0
   33.7900   29.9350   46.5350 C   0  0  0  0  0  0  0  0  0  0  0  0
   32.9430   29.0650   47.1460 N   0  0  0  0  0  0  0  0  0  0  0  0
   33.3060   28.4200   48.3000 C   0  0  0  0  0  0  0  0  0  0  0  0
   34.4990   28.6210   48.8660 N   0  0  0  0  0  0  0  0  0  0  0  0
   32.3380   27.5600   48.8110 O   0  0  0  0  0  0  0  0  0  0  0  0
   35.8999   28.9921   50.7792 H   0  0  0  0  0  0  0  0  0  0  0  0
   37.4801   28.2647   50.2027 H   0  0  0  0  0  0  0  0  0  0  0  0
   36.9126   30.7600   51.6588 H   0  0  0  0  0  0  0  0  0  0  0  0
   38.2644   29.4822   51.7700 H   0  0  0  0  0  0  0  0  0  0  0  0
   38.7564   31.7851   51.1092 H   0  0  0  0  0  0  0  0  0  0  0  0
   37.1272   32.0717   49.3596 H   0  0  0  0  0  0  0  0  0  0  0  0
   38.7661   32.1742   48.7170 H   0  0  0  0  0  0  0  0  0  0  0  0
   38.6407   29.5834   48.4307 H   0  0  0  0  0  0  0  0  0  0  0  0
   37.6173   30.5286   47.3279 H   0  0  0  0  0  0  0  0  0  0  0  0
   35.7448   30.8519   46.6454 H   0  0  0  0  0  0  0  0  0  0  0  0
   33.4980   30.4515   45.6087 H   0  0  0  0  0  0  0  0  0  0  0  0
   32.5157   27.0527   49.6424 H   0  0  0  0  0  0  0  0  0  0  0  0
  1  2  1  0
  2  3  1  0
  4  3  1  0
  5  4  1  0
  6  1  1  0
  6  5  1  0
  7 12  1  0
  7  1  1  0
  8  7  2  0
  9  8  1  0
  9 10  2  0
 10 11  1  0
 11 13  1  0
 11 12  2  0
  2 14  1  0
  2 15  1  0
  3 16  1  0
  3 17  1  0
  4 18  1  0
  5 19  1  0
  5 20  1  0
  6 21  1  0
  6 22  1  0
  8 23  1  0
  9 24  1  0
 13 25  1  0
M  ISO  8  14  13  15  13  16  13  17  13  18   5  19  13  20  13  21  13
M  ISO  4  22  13  23  14  24  14  25   3
M  END
>  <minimizedAffinity>  (1) 
-4.31821489

>  <minimizedRMSD>  (1) 
0.431108564

$$$$
