
     RDKit          3D

 27 28  0  0  0  0  0  0  0  0999 V2000
   36.5520   29.6070   48.9270 N   0  0  0  0  0  0  0  0  0  0  0  0
   36.7350   29.0360   50.2540 C   0  0  0  0  0  0  0  0  0  0  0  0
   37.4250   29.9360   51.2130 C   0  0  0  0  0  0  0  0  0  0  0  0
   38.3390   30.8800   50.6900 N   0  0  0  0  0  0  0  0  0  0  0  0
   37.9250   31.4610   49.4210 C   0  0  0  0  0  0  0  0  0  0  0  0
   37.7370   30.2870   48.4860 C   0  0  0  0  0  0  0  0  0  0  0  0
   35.3260   29.4770   48.1970 C   0  0  0  0  0  0  0  0  0  0  0  0
   35.0900   30.1940   47.0070 C   0  0  0  0  0  0  0  0  0  0  0  0
   33.8710   29.9990   46.3760 C   0  0  0  0  0  0  0  0  0  0  0  0
   32.9690   29.1370   46.9230 N   0  0  0  0  0  0  0  0  0  0  0  0
   33.2480   28.4710   48.0700 C   0  0  0  0  0  0  0  0  0  0  0  0
   34.4160   28.6260   48.7210 N   0  0  0  0  0  0  0  0  0  0  0  0
   32.1690   27.5670   48.5430 C   0  0  0  0  0  0  0  0  0  0  0  0
   35.7442   28.7897   50.6634 H   0  0  0  0  0  0  0  0  0  0  0  0
   37.3771   28.1512   50.1321 H   0  0  0  0  0  0  0  0  0  0  0  0
   36.6484   30.4962   51.7543 H   0  0  0  0  0  0  0  0  0  0  0  0
   38.0417   29.2647   51.8286 H   0  0  0  0  0  0  0  0  0  0  0  0
   38.4469   31.6412   51.3754 H   0  0  0  0  0  0  0  0  0  0  0  0
   36.9813   32.0136   49.5400 H   0  0  0  0  0  0  0  0  0  0  0  0
   38.6668   32.1764   49.0364 H   0  0  0  0  0  0  0  0  0  0  0  0
   38.6052   29.6137   48.5405 H   0  0  0  0  0  0  0  0  0  0  0  0
   37.6426   30.6187   47.4415 H   0  0  0  0  0  0  0  0  0  0  0  0
   35.8434   30.8814   46.5949 H   0  0  0  0  0  0  0  0  0  0  0  0
   33.6349   30.5341   45.4444 H   0  0  0  0  0  0  0  0  0  0  0  0
   32.1558   27.5559   49.6429 H   0  0  0  0  0  0  0  0  0  0  0  0
   31.1992   27.9262   48.1683 H   0  0  0  0  0  0  0  0  0  0  0  0
   32.3528   26.5493   48.1683 H   0  0  0  0  0  0  0  0  0  0  0  0
  1  2  1  0
  2  3  1  0
  4  3  1  0
  5  4  1  0
  6  1  1  0
  6  5  1  0
  7 12  1  0
  7  1  1  0
  8  7  2  0
  9 10  2  0
  9  8  1  0
 10 11  1  0
 11 13  1  0
 11 12  2  0
  2 14  1  0
  2 15  1  0
  3 16  1  0
  3 17  1  0
  4 18  1  0
  5 19  1  0
  5 20  1  0
  6 21  1  0
  6 22  1  0
  8 23  1  0
  9 24  1  0
 13 25  1  0
 13 26  1  0
 13 27  1  0
M  ISO  8  14  13  15  13  16  13  17  13  18   5  19  13  20  13  21  13
M  ISO  6  22  13  23  14  24  14  25   8  26   8  27   8
M  END
>  <minimizedAffinity>  (1) 
-4.27295589

>  <minimizedRMSD>  (1) 
0.598783493

$$$$
