
     RDKit          3D

 46 49  0  0  1  0  0  0  0  0999 V2000
   35.0970   29.6390   47.5520 C   0  0  0  0  0  0  0  0  0  0  0  0
   35.2270   30.0840   46.2370 C   0  0  0  0  0  0  0  0  0  0  0  0
   34.1830   29.9130   45.3480 C   0  0  0  0  0  0  0  0  0  0  0  0
   33.0520   29.3070   45.8060 N   0  0  0  0  0  0  0  0  0  0  0  0
   32.9480   28.8860   47.0810 C   0  0  0  0  0  0  0  0  0  0  0  0
   33.9690   29.0490   47.9610 N   0  0  0  0  0  0  0  0  0  0  0  0
   36.1390   29.7880   48.5120 N   0  0  0  0  0  0  0  0  0  0  0  0
   36.2340   28.9230   49.6780 C   0  0  0  0  0  0  0  0  0  0  0  0
   36.5500   29.6210   50.9550 C   0  0  0  0  0  0  0  0  0  0  0  0
   37.2810   30.8270   50.8830 N   0  0  0  0  0  0  0  0  0  0  0  0
   36.9640   31.6340   49.7210 C   0  0  0  0  0  0  0  0  0  0  0  0
   37.2000   30.7260   48.5230 C   0  0  0  0  0  0  0  0  0  0  0  0
   31.7170   28.2450   47.5140 C   0  0  0  0  0  0  0  0  0  0  0  0
   31.7570   27.1700   48.3840 C   0  0  0  0  0  0  0  0  0  0  0  0
   30.6230   26.5120   48.8390 C   0  0  0  0  0  0  0  0  0  0  0  0
   29.4510   26.9940   48.3710 N   0  0  0  0  0  0  0  0  0  0  0  0
   29.4190   28.0400   47.5250 C   0  0  0  0  0  0  0  0  0  0  0  0
   30.5260   28.6790   47.0850 N   0  0  0  0  0  0  0  0  0  0  0  0
   28.0440   28.4380   47.1130 C   0  0  1  0  0  0  0  0  0  0  0  0
   27.0030   27.5020   47.6550 C   0  0  0  0  0  0  0  0  0  0  0  0
   25.9960   28.1050   48.5630 C   0  0  0  0  0  0  0  0  0  0  0  0
   26.5730   29.1500   49.4790 C   0  0  0  0  0  0  0  0  0  0  0  0
   27.1560   30.2480   48.6670 C   0  0  0  0  0  0  0  0  0  0  0  0
   27.7960   29.8880   47.3850 C   0  0  0  0  0  0  0  0  0  0  0  0
   36.1577   30.5696   45.9083 H   0  0  0  0  0  0  0  0  0  0  0  0
   34.2624   30.2547   44.3054 H   0  0  0  0  0  0  0  0  0  0  0  0
   35.2698   28.4078   49.8002 H   0  0  0  0  0  0  0  0  0  0  0  0
   37.0734   28.2386   49.4857 H   0  0  0  0  0  0  0  0  0  0  0  0
   35.5943   29.8458   51.4512 H   0  0  0  0  0  0  0  0  0  0  0  0
   37.2127   28.9273   51.4931 H   0  0  0  0  0  0  0  0  0  0  0  0
   37.0788   31.3804   51.7278 H   0  0  0  0  0  0  0  0  0  0  0  0
   35.9146   31.9620   49.7547 H   0  0  0  0  0  0  0  0  0  0  0  0
   37.5811   32.5434   49.6734 H   0  0  0  0  0  0  0  0  0  0  0  0
   38.1646   30.2070   48.6241 H   0  0  0  0  0  0  0  0  0  0  0  0
   37.2294   31.3032   47.5870 H   0  0  0  0  0  0  0  0  0  0  0  0
   32.7390   26.8185   48.7333 H   0  0  0  0  0  0  0  0  0  0  0  0
   30.6748   25.6588   49.5314 H   0  0  0  0  0  0  0  0  0  0  0  0
   27.9589   28.3333   46.0213 H   0  0  0  0  0  0  0  0  0  0  0  0
   26.4663   27.0642   46.8004 H   0  0  0  0  0  0  0  0  0  0  0  0
   27.5516   26.7693   48.2651 H   0  0  0  0  0  0  0  0  0  0  0  0
   25.2095   28.5718   47.9518 H   0  0  0  0  0  0  0  0  0  0  0  0
   25.6023   27.2967   49.1968 H   0  0  0  0  0  0  0  0  0  0  0  0
   25.7780   29.5524   50.1239 H   0  0  0  0  0  0  0  0  0  0  0  0
   27.3571   28.6986   50.1046 H   0  0  0  0  0  0  0  0  0  0  0  0
   27.1129   31.2929   49.0081 H   0  0  0  0  0  0  0  0  0  0  0  0
   28.0806   30.6601   46.6551 H   0  0  0  0  0  0  0  0  0  0  0  0
  1  6  1  0
  1  7  1  0
  2  1  2  0
  3  4  2  0
  3  2  1  0
  4  5  1  0
  5 13  1  0
  5  6  2  0
  7 12  1  0
  7  8  1  0
  8  9  1  0
 10  9  1  0
 11 10  1  0
 12 11  1  0
 13 14  2  0
 14 15  1  0
 16 15  2  0
 17 16  1  0
 18 13  1  0
 18 17  2  0
 19 24  1  0
 19 17  1  0
 19 20  1  0
 20 21  1  0
 21 22  1  0
 23 22  1  0
 24 23  2  0
  2 25  1  0
  3 26  1  0
  8 27  1  0
  8 28  1  0
  9 29  1  0
  9 30  1  0
 10 31  1  0
 11 32  1  0
 11 33  1  0
 12 34  1  0
 12 35  1  0
 14 36  1  0
 15 37  1  0
 19 38  1  6
 20 39  1  0
 20 40  1  0
 21 41  1  0
 21 42  1  0
 22 43  1  0
 22 44  1  0
 23 45  1  0
 24 46  1  0
M  ISO  8  25  14  26  14  27  13  28  13  29  13  30  13  31   5  32  13
M  ISO  8  33  13  34  13  35  13  36  14  37  14  38  13  39  13  40  13
M  ISO  6  41  13  42  13  43  13  44  13  45  13  46  13
M  END
>  <minimizedAffinity>  (1) 
-6.01257229

>  <minimizedRMSD>  (1) 
1.01985419

$$$$
