
     RDKit          3D

 42 45  0  0  0  0  0  0  0  0999 V2000
   35.0980   29.6070   47.5790 C   0  0  0  0  0  0  0  0  0  0  0  0
   35.2550   30.0590   46.2820 C   0  0  0  0  0  0  0  0  0  0  0  0
   34.2280   29.8990   45.3610 C   0  0  0  0  0  0  0  0  0  0  0  0
   33.0870   29.2890   45.7950 N   0  0  0  0  0  0  0  0  0  0  0  0
   32.9580   28.8570   47.0670 C   0  0  0  0  0  0  0  0  0  0  0  0
   33.9550   29.0120   47.9590 N   0  0  0  0  0  0  0  0  0  0  0  0
   36.1160   29.7420   48.5720 N   0  0  0  0  0  0  0  0  0  0  0  0
   36.1720   28.8810   49.7440 C   0  0  0  0  0  0  0  0  0  0  0  0
   36.4680   29.5940   51.0180 C   0  0  0  0  0  0  0  0  0  0  0  0
   37.1970   30.7940   50.9550 N   0  0  0  0  0  0  0  0  0  0  0  0
   36.9570   31.5910   49.7600 C   0  0  0  0  0  0  0  0  0  0  0  0
   37.1870   30.6840   48.5850 C   0  0  0  0  0  0  0  0  0  0  0  0
   31.7120   28.2060   47.4840 C   0  0  0  0  0  0  0  0  0  0  0  0
   31.5960   27.6450   48.7260 C   0  0  0  0  0  0  0  0  0  0  0  0
   30.4460   27.0210   49.1690 C   0  0  0  0  0  0  0  0  0  0  0  0
   29.4130   26.9970   48.2790 N   0  0  0  0  0  0  0  0  0  0  0  0
   29.5410   27.5490   47.0700 C   0  0  0  0  0  0  0  0  0  0  0  0
   30.6740   28.1570   46.6490 N   0  0  0  0  0  0  0  0  0  0  0  0
   27.3490   29.2750   47.2970 F   0  0  0  0  0  0  0  0  0  0  0  0
   27.3740   28.3850   46.2620 C   0  0  0  0  0  0  0  0  0  0  0  0
   28.4210   27.5210   46.1070 C   0  0  0  0  0  0  0  0  0  0  0  0
   28.3770   26.6530   45.0400 C   0  0  0  0  0  0  0  0  0  0  0  0
   27.3340   26.6230   44.1390 C   0  0  0  0  0  0  0  0  0  0  0  0
   26.3110   27.5290   44.3640 C   0  0  0  0  0  0  0  0  0  0  0  0
   26.2950   28.4230   45.4120 C   0  0  0  0  0  0  0  0  0  0  0  0
   36.1939   30.5457   45.9793 H   0  0  0  0  0  0  0  0  0  0  0  0
   34.3301   30.2498   44.3235 H   0  0  0  0  0  0  0  0  0  0  0  0
   35.1989   28.3789   49.8488 H   0  0  0  0  0  0  0  0  0  0  0  0
   37.0016   28.1781   49.5777 H   0  0  0  0  0  0  0  0  0  0  0  0
   35.5036   29.8232   51.4948 H   0  0  0  0  0  0  0  0  0  0  0  0
   37.1253   28.9051   51.5688 H   0  0  0  0  0  0  0  0  0  0  0  0
   36.9479   31.3640   51.7759 H   0  0  0  0  0  0  0  0  0  0  0  0
   35.9223   31.9642   49.7544 H   0  0  0  0  0  0  0  0  0  0  0  0
   37.6262   32.4633   49.7243 H   0  0  0  0  0  0  0  0  0  0  0  0
   38.1489   30.1615   48.6932 H   0  0  0  0  0  0  0  0  0  0  0  0
   37.2188   31.2566   47.6463 H   0  0  0  0  0  0  0  0  0  0  0  0
   32.4602   27.6930   49.4049 H   0  0  0  0  0  0  0  0  0  0  0  0
   30.3687   26.5740   50.1711 H   0  0  0  0  0  0  0  0  0  0  0  0
   29.2122   25.9511   44.8996 H   0  0  0  0  0  0  0  0  0  0  0  0
   27.3154   25.9214   43.2920 H   0  0  0  0  0  0  0  0  0  0  0  0
   25.4616   27.5351   43.6651 H   0  0  0  0  0  0  0  0  0  0  0  0
   25.4641   29.1285   45.5602 H   0  0  0  0  0  0  0  0  0  0  0  0
  1  6  1  0
  1  7  1  0
  2  1  2  0
  3  4  2  0
  3  2  1  0
  4  5  1  0
  5 13  1  0
  5  6  2  0
  7 12  1  0
  7  8  1  0
  8  9  1  0
 10  9  1  0
 11 10  1  0
 12 11  1  0
 13 14  2  0
 14 15  1  0
 16 15  2  0
 17 16  1  0
 18 17  2  0
 18 13  1  0
 20 19  1  0
 21 20  2  0
 21 17  1  0
 22 21  1  0
 23 24  1  0
 23 22  2  0
 24 25  2  0
 25 20  1  0
  2 26  1  0
  3 27  1  0
  8 28  1  0
  8 29  1  0
  9 30  1  0
  9 31  1  0
 10 32  1  0
 11 33  1  0
 11 34  1  0
 12 35  1  0
 12 36  1  0
 14 37  1  0
 15 38  1  0
 22 39  1  0
 23 40  1  0
 24 41  1  0
 25 42  1  0
M  ISO  8  26  14  27  14  28  13  29  13  30  13  31  13  32   5  33  13
M  ISO  8  34  13  35  13  36  13  37  14  38  14  39  14  40  14  41  14
M  ISO  1  42  14
M  END
>  <minimizedAffinity>  (1) 
-5.57074785

>  <minimizedRMSD>  (1) 
0.871982872

$$$$
