
     RDKit          3D

 40 43  0  0  0  0  0  0  0  0999 V2000
   35.3770   29.6040   47.7230 C   0  0  0  0  0  0  0  0  0  0  0  0
   35.6050   30.0940   46.4340 C   0  0  0  0  0  0  0  0  0  0  0  0
   34.6270   30.0240   45.4650 C   0  0  0  0  0  0  0  0  0  0  0  0
   33.4300   29.4590   45.8190 N   0  0  0  0  0  0  0  0  0  0  0  0
   33.2260   28.9910   47.0700 C   0  0  0  0  0  0  0  0  0  0  0  0
   34.1890   29.0650   48.0060 N   0  0  0  0  0  0  0  0  0  0  0  0
   36.3550   29.6540   48.7510 N   0  0  0  0  0  0  0  0  0  0  0  0
   36.2270   28.8740   49.9570 C   0  0  0  0  0  0  0  0  0  0  0  0
   36.5540   29.6050   51.2220 C   0  0  0  0  0  0  0  0  0  0  0  0
   37.4570   30.6890   51.1330 N   0  0  0  0  0  0  0  0  0  0  0  0
   37.3900   31.4360   49.8860 C   0  0  0  0  0  0  0  0  0  0  0  0
   37.5460   30.4250   48.7750 C   0  0  0  0  0  0  0  0  0  0  0  0
   31.9360   28.3960   47.4050 C   0  0  0  0  0  0  0  0  0  0  0  0
   31.8160   27.5090   48.4390 C   0  0  0  0  0  0  0  0  0  0  0  0
   30.6110   26.9230   48.7880 C   0  0  0  0  0  0  0  0  0  0  0  0
   29.5410   27.2770   48.0440 N   0  0  0  0  0  0  0  0  0  0  0  0
   29.6580   28.1470   47.0310 C   0  0  0  0  0  0  0  0  0  0  0  0
   30.8470   28.7060   46.7090 N   0  0  0  0  0  0  0  0  0  0  0  0
   28.5290   28.5550   46.2040 C   0  0  0  0  0  0  0  0  0  0  0  0
   27.5110   27.6440   46.0220 C   0  0  0  0  0  0  0  0  0  0  0  0
   26.4270   27.9910   45.2480 C   0  0  0  0  0  0  0  0  0  0  0  0
   26.3770   29.1980   44.6880 N   0  0  0  0  0  0  0  0  0  0  0  0
   27.3790   30.1050   44.8640 C   0  0  0  0  0  0  0  0  0  0  0  0
   28.4130   29.7540   45.6110 N   0  0  0  0  0  0  0  0  0  0  0  0
   36.5793   30.5421   46.1891 H   0  0  0  0  0  0  0  0  0  0  0  0
   34.8006   30.4064   44.4483 H   0  0  0  0  0  0  0  0  0  0  0  0
   35.1875   28.5209   50.0261 H   0  0  0  0  0  0  0  0  0  0  0  0
   36.9611   28.0589   49.8749 H   0  0  0  0  0  0  0  0  0  0  0  0
   35.6102   29.9947   51.6311 H   0  0  0  0  0  0  0  0  0  0  0  0
   37.0674   28.8626   51.8508 H   0  0  0  0  0  0  0  0  0  0  0  0
   37.2561   31.3382   51.9070 H   0  0  0  0  0  0  0  0  0  0  0  0
   36.4203   31.9483   49.8009 H   0  0  0  0  0  0  0  0  0  0  0  0
   38.1752   32.2049   49.8389 H   0  0  0  0  0  0  0  0  0  0  0  0
   38.4126   29.7768   48.9720 H   0  0  0  0  0  0  0  0  0  0  0  0
   37.7126   30.9235   47.8087 H   0  0  0  0  0  0  0  0  0  0  0  0
   32.7148   27.2501   49.0179 H   0  0  0  0  0  0  0  0  0  0  0  0
   30.5300   26.2108   49.6224 H   0  0  0  0  0  0  0  0  0  0  0  0
   27.5642   26.6501   46.4903 H   0  0  0  0  0  0  0  0  0  0  0  0
   25.6064   27.2750   45.0929 H   0  0  0  0  0  0  0  0  0  0  0  0
   27.3294   31.1003   44.3983 H   0  0  0  0  0  0  0  0  0  0  0  0
  1  6  1  0
  1  7  1  0
  2  1  2  0
  3  4  2  0
  3  2  1  0
  4  5  1  0
  5 13  1  0
  5  6  2  0
  7 12  1  0
  7  8  1  0
  8  9  1  0
 10  9  1  0
 11 10  1  0
 12 11  1  0
 13 14  2  0
 14 15  1  0
 16 15  2  0
 17 16  1  0
 18 17  2  0
 18 13  1  0
 19 17  1  0
 20 19  2  0
 21 20  1  0
 22 23  1  0
 22 21  2  0
 23 24  2  0
 24 19  1  0
  2 25  1  0
  3 26  1  0
  8 27  1  0
  8 28  1  0
  9 29  1  0
  9 30  1  0
 10 31  1  0
 11 32  1  0
 11 33  1  0
 12 34  1  0
 12 35  1  0
 14 36  1  0
 15 37  1  0
 20 38  1  0
 21 39  1  0
 23 40  1  0
M  ISO  8  25  14  26  14  27  13  28  13  29  13  30  13  31   5  32  13
M  ISO  8  33  13  34  13  35  13  36  14  37  14  38  14  39  14  40  14
M  END
>  <minimizedAffinity>  (1) 
-5.25246668

>  <minimizedRMSD>  (1) 
0.391893744

$$$$
