
     RDKit          3D

 39 42  0  0  0  0  0  0  0  0999 V2000
   34.7040   29.4440   47.5210 C   0  0  0  0  0  0  0  0  0  0  0  0
   34.7910   29.7990   46.1820 C   0  0  0  0  0  0  0  0  0  0  0  0
   33.7020   29.6240   45.3330 C   0  0  0  0  0  0  0  0  0  0  0  0
   32.5640   29.0940   45.8790 N   0  0  0  0  0  0  0  0  0  0  0  0
   32.5130   28.7590   47.1810 C   0  0  0  0  0  0  0  0  0  0  0  0
   33.5620   28.9220   48.0260 N   0  0  0  0  0  0  0  0  0  0  0  0
   35.7880   29.6000   48.4350 N   0  0  0  0  0  0  0  0  0  0  0  0
   35.8860   28.8140   49.6500 C   0  0  0  0  0  0  0  0  0  0  0  0
   36.2790   29.5940   50.8630 C   0  0  0  0  0  0  0  0  0  0  0  0
   37.0860   30.7340   50.6740 N   0  0  0  0  0  0  0  0  0  0  0  0
   36.7580   31.4780   49.4520 C   0  0  0  0  0  0  0  0  0  0  0  0
   36.8850   30.4980   48.3160 C   0  0  0  0  0  0  0  0  0  0  0  0
   31.2740   28.1990   47.7060 C   0  0  0  0  0  0  0  0  0  0  0  0
   31.2340   27.6030   48.9370 C   0  0  0  0  0  0  0  0  0  0  0  0
   30.0920   27.0530   49.4930 C   0  0  0  0  0  0  0  0  0  0  0  0
   28.9800   27.1370   48.7280 N   0  0  0  0  0  0  0  0  0  0  0  0
   29.0070   27.7180   47.5220 C   0  0  0  0  0  0  0  0  0  0  0  0
   30.1390   28.2530   46.9940 N   0  0  0  0  0  0  0  0  0  0  0  0
   27.8510   27.8540   46.6270 C   0  0  0  0  0  0  0  0  0  0  0  0
   26.5700   28.3510   46.6490 C   0  0  0  0  0  0  0  0  0  0  0  0
   26.0460   28.1320   45.4210 N   0  0  0  0  0  0  0  0  0  0  0  0
   26.9650   27.5180   44.6460 C   0  0  0  0  0  0  0  0  0  0  0  0
   28.0960   27.3390   45.3890 N   0  0  0  0  0  0  0  0  0  0  0  0
   35.7274   30.2217   45.7889 H   0  0  0  0  0  0  0  0  0  0  0  0
   33.7536   29.8996   44.2693 H   0  0  0  0  0  0  0  0  0  0  0  0
   34.9057   28.3528   49.8408 H   0  0  0  0  0  0  0  0  0  0  0  0
   36.6834   28.0753   49.4812 H   0  0  0  0  0  0  0  0  0  0  0  0
   35.3528   29.9248   51.3556 H   0  0  0  0  0  0  0  0  0  0  0  0
   36.9045   28.9035   51.4478 H   0  0  0  0  0  0  0  0  0  0  0  0
   36.9620   31.3606   51.4820 H   0  0  0  0  0  0  0  0  0  0  0  0
   35.7306   31.8671   49.5068 H   0  0  0  0  0  0  0  0  0  0  0  0
   37.4286   32.3391   49.3151 H   0  0  0  0  0  0  0  0  0  0  0  0
   37.8355   29.9494   48.3914 H   0  0  0  0  0  0  0  0  0  0  0  0
   36.8757   31.0118   47.3434 H   0  0  0  0  0  0  0  0  0  0  0  0
   32.1657   27.5583   49.5200 H   0  0  0  0  0  0  0  0  0  0  0  0
   30.0891   26.5811   50.4866 H   0  0  0  0  0  0  0  0  0  0  0  0
   26.0677   28.8336   47.5004 H   0  0  0  0  0  0  0  0  0  0  0  0
   25.0949   28.3929   45.1240 H   0  0  0  0  0  0  0  0  0  0  0  0
   26.8265   27.2146   43.5978 H   0  0  0  0  0  0  0  0  0  0  0  0
  1  6  1  0
  1  7  1  0
  2  1  2  0
  3  4  2  0
  3  2  1  0
  4  5  1  0
  5 13  1  0
  5  6  2  0
  7  8  1  0
  8  9  1  0
 10  9  1  0
 11 10  1  0
 12  7  1  0
 12 11  1  0
 13 14  2  0
 14 15  1  0
 16 15  2  0
 17 16  1  0
 18 17  2  0
 18 13  1  0
 19 20  2  0
 19 17  1  0
 21 20  1  0
 22 23  2  0
 22 21  1  0
 23 19  1  0
  2 24  1  0
  3 25  1  0
  8 26  1  0
  8 27  1  0
  9 28  1  0
  9 29  1  0
 10 30  1  0
 11 31  1  0
 11 32  1  0
 12 33  1  0
 12 34  1  0
 14 35  1  0
 15 36  1  0
 20 37  1  0
 21 38  1  0
 22 39  1  0
M  ISO  8  24  14  25  14  26  13  27  13  28  13  29  13  30   5  31  13
M  ISO  8  32  13  33  13  34  13  35  14  36  14  37  14  38   9  39  14
M  END
>  <minimizedAffinity>  (1) 
-5.21737194

>  <minimizedRMSD>  (1) 
0.639519811

$$$$
