
     RDKit          3D

 33 35  0  0  0  0  0  0  0  0999 V2000
   35.0930   29.6200   47.5600 C   0  0  0  0  0  0  0  0  0  0  0  0
   35.2710   30.0460   46.2390 C   0  0  0  0  0  0  0  0  0  0  0  0
   34.2450   29.8990   45.3200 C   0  0  0  0  0  0  0  0  0  0  0  0
   33.0850   29.3300   45.7720 N   0  0  0  0  0  0  0  0  0  0  0  0
   32.9380   28.9270   47.0530 C   0  0  0  0  0  0  0  0  0  0  0  0
   33.9380   29.0730   47.9410 N   0  0  0  0  0  0  0  0  0  0  0  0
   36.1170   29.7490   48.5440 N   0  0  0  0  0  0  0  0  0  0  0  0
   36.1730   28.8890   49.7170 C   0  0  0  0  0  0  0  0  0  0  0  0
   36.4620   29.6020   51.0000 C   0  0  0  0  0  0  0  0  0  0  0  0
   37.2020   30.7960   50.9360 N   0  0  0  0  0  0  0  0  0  0  0  0
   36.9370   31.5930   49.7550 C   0  0  0  0  0  0  0  0  0  0  0  0
   37.1940   30.6660   48.5730 C   0  0  0  0  0  0  0  0  0  0  0  0
   31.6730   28.3290   47.4670 C   0  0  0  0  0  0  0  0  0  0  0  0
   31.6500   27.4000   48.4770 C   0  0  0  0  0  0  0  0  0  0  0  0
   30.4780   26.7930   48.9180 C   0  0  0  0  0  0  0  0  0  0  0  0
   29.3460   27.1830   48.2750 N   0  0  0  0  0  0  0  0  0  0  0  0
   29.3760   28.0920   47.2880 C   0  0  0  0  0  0  0  0  0  0  0  0
   30.5280   28.6850   46.8580 N   0  0  0  0  0  0  0  0  0  0  0  0
   28.2080   28.4500   46.6730 O   0  0  0  0  0  0  0  0  0  0  0  0
   36.2254   30.4975   45.9304 H   0  0  0  0  0  0  0  0  0  0  0  0
   34.3573   30.2245   44.2753 H   0  0  0  0  0  0  0  0  0  0  0  0
   35.2018   28.3824   49.8175 H   0  0  0  0  0  0  0  0  0  0  0  0
   37.0085   28.1926   49.5528 H   0  0  0  0  0  0  0  0  0  0  0  0
   35.4952   29.8402   51.4675 H   0  0  0  0  0  0  0  0  0  0  0  0
   37.1044   28.9087   51.5627 H   0  0  0  0  0  0  0  0  0  0  0  0
   36.9752   31.3621   51.7660 H   0  0  0  0  0  0  0  0  0  0  0  0
   35.8932   31.9402   49.7516 H   0  0  0  0  0  0  0  0  0  0  0  0
   37.5728   32.4898   49.7164 H   0  0  0  0  0  0  0  0  0  0  0  0
   38.1456   30.1312   48.7086 H   0  0  0  0  0  0  0  0  0  0  0  0
   37.2634   31.2300   47.6312 H   0  0  0  0  0  0  0  0  0  0  0  0
   32.5993   27.1232   48.9589 H   0  0  0  0  0  0  0  0  0  0  0  0
   30.4685   26.0503   49.7294 H   0  0  0  0  0  0  0  0  0  0  0  0
   28.2176   29.1194   45.9437 H   0  0  0  0  0  0  0  0  0  0  0  0
  1  6  1  0
  1  7  1  0
  2  1  2  0
  3  4  2  0
  3  2  1  0
  4  5  1  0
  5 13  1  0
  5  6  2  0
  7 12  1  0
  7  8  1  0
  8  9  1  0
 10  9  1  0
 11 10  1  0
 12 11  1  0
 13 14  2  0
 14 15  1  0
 16 15  2  0
 17 16  1  0
 18 17  2  0
 18 13  1  0
 19 17  1  0
  2 20  1  0
  3 21  1  0
  8 22  1  0
  8 23  1  0
  9 24  1  0
  9 25  1  0
 10 26  1  0
 11 27  1  0
 11 28  1  0
 12 29  1  0
 12 30  1  0
 14 31  1  0
 15 32  1  0
 19 33  1  0
M  ISO  8  20  14  21  14  22  13  23  13  24  13  25  13  26   5  27  13
M  ISO  6  28  13  29  13  30  13  31  14  32  14  33   3
M  END
>  <minimizedAffinity>  (1) 
-4.61896276

>  <minimizedRMSD>  (1) 
0.0203189235

$$$$
