
     RDKit          3D

 39 41  0  0  0  0  0  0  0  0999 V2000
   33.7410   28.5330   47.5210 C   0  0  0  0  0  0  0  0  0  0  0  0
   33.8980   28.3370   46.1580 C   0  0  0  0  0  0  0  0  0  0  0  0
   32.7910   28.0290   45.3780 C   0  0  0  0  0  0  0  0  0  0  0  0
   31.5890   27.9340   45.9960 N   0  0  0  0  0  0  0  0  0  0  0  0
   31.4680   28.1320   47.3370 C   0  0  0  0  0  0  0  0  0  0  0  0
   32.5280   28.4290   48.1000 N   0  0  0  0  0  0  0  0  0  0  0  0
   34.8410   28.8490   48.3640 N   0  0  0  0  0  0  0  0  0  0  0  0
   34.9570   28.3130   49.7190 C   0  0  0  0  0  0  0  0  0  0  0  0
   35.3790   29.3120   50.7430 C   0  0  0  0  0  0  0  0  0  0  0  0
   36.1890   30.3740   50.3200 N   0  0  0  0  0  0  0  0  0  0  0  0
   35.8480   30.8820   49.0050 C   0  0  0  0  0  0  0  0  0  0  0  0
   35.9540   29.6820   48.0780 C   0  0  0  0  0  0  0  0  0  0  0  0
   30.1530   28.0190   47.9590 C   0  0  0  0  0  0  0  0  0  0  0  0
   30.0240   27.5120   49.2280 C   0  0  0  0  0  0  0  0  0  0  0  0
   28.8040   27.3830   49.8650 C   0  0  0  0  0  0  0  0  0  0  0  0
   27.7220   27.7920   49.1510 N   0  0  0  0  0  0  0  0  0  0  0  0
   27.8530   28.2890   47.9050 C   0  0  0  0  0  0  0  0  0  0  0  0
   29.0550   28.4140   47.2840 N   0  0  0  0  0  0  0  0  0  0  0  0
   27.4740   27.0530   51.8670 C   0  0  0  0  0  0  0  0  0  0  0  0
   26.4710   27.6510   51.4440 O   0  0  0  0  0  0  0  0  0  0  0  0
   28.6840   26.8580   51.1770 N   0  0  0  0  0  0  0  0  0  0  0  0
   26.6440   28.7190   47.1710 C   0  0  0  0  0  0  0  0  0  0  0  0
   26.7770   30.0100   46.7080 F   0  0  0  0  0  0  0  0  0  0  0  0
   25.5520   28.6750   48.0390 F   0  0  0  0  0  0  0  0  0  0  0  0
   26.3700   27.8220   46.1620 F   0  0  0  0  0  0  0  0  0  0  0  0
   34.8929   28.4248   45.6970 H   0  0  0  0  0  0  0  0  0  0  0  0
   32.8869   27.8675   44.2942 H   0  0  0  0  0  0  0  0  0  0  0  0
   33.9770   27.9103   50.0147 H   0  0  0  0  0  0  0  0  0  0  0  0
   35.7441   27.5453   49.6865 H   0  0  0  0  0  0  0  0  0  0  0  0
   34.4652   29.7469   51.1741 H   0  0  0  0  0  0  0  0  0  0  0  0
   36.0082   28.7438   51.4439 H   0  0  0  0  0  0  0  0  0  0  0  0
   36.0973   31.1430   50.9991 H   0  0  0  0  0  0  0  0  0  0  0  0
   34.8244   31.2848   49.0000 H   0  0  0  0  0  0  0  0  0  0  0  0
   36.5117   31.7026   48.6950 H   0  0  0  0  0  0  0  0  0  0  0  0
   36.8923   29.1393   48.2654 H   0  0  0  0  0  0  0  0  0  0  0  0
   35.9550   29.9944   47.0233 H   0  0  0  0  0  0  0  0  0  0  0  0
   30.9318   27.1942   49.7618 H   0  0  0  0  0  0  0  0  0  0  0  0
   27.4096   26.6343   52.8821 H   0  0  0  0  0  0  0  0  0  0  0  0
   29.4639   26.3464   51.6139 H   0  0  0  0  0  0  0  0  0  0  0  0
  1  6  1  0
  1  7  1  0
  2  1  2  0
  3  4  2  0
  3  2  1  0
  4  5  1  0
  5 13  1  0
  5  6  2  0
  7  8  1  0
  8  9  1  0
 10  9  1  0
 11 10  1  0
 12  7  1  0
 12 11  1  0
 13 14  2  0
 14 15  1  0
 15 21  1  0
 16 15  2  0
 17 16  1  0
 18 17  2  0
 18 13  1  0
 20 19  2  0
 21 19  1  0
 22 17  1  0
 22 24  1  0
 23 22  1  0
 25 22  1  0
  2 26  1  0
  3 27  1  0
  8 28  1  0
  8 29  1  0
  9 30  1  0
  9 31  1  0
 10 32  1  0
 11 33  1  0
 11 34  1  0
 12 35  1  0
 12 36  1  0
 14 37  1  0
 19 38  1  0
 21 39  1  0
M  ISO  8  26  14  27  14  28  13  29  13  30  13  31  13  32   5  33  13
M  ISO  5  34  13  35  13  36  13  37  14  38   6
M  END
>  <minimizedAffinity>  (1) 
-6.10776186

>  <minimizedRMSD>  (1) 
1.81540346

$$$$
