
     RDKit          3D

 38 40  0  0  0  0  0  0  0  0999 V2000
   33.1290   27.4570   48.2830 C   0  0  0  0  0  0  0  0  0  0  0  0
   33.2410   26.2820   47.5480 C   0  0  0  0  0  0  0  0  0  0  0  0
   32.1100   25.5050   47.3290 C   0  0  0  0  0  0  0  0  0  0  0  0
   30.9300   25.9340   47.8510 N   0  0  0  0  0  0  0  0  0  0  0  0
   30.8550   27.0980   48.5720 C   0  0  0  0  0  0  0  0  0  0  0  0
   31.9440   27.8420   48.7790 N   0  0  0  0  0  0  0  0  0  0  0  0
   34.2520   28.2980   48.5420 N   0  0  0  0  0  0  0  0  0  0  0  0
   34.9560   28.2910   49.8090 C   0  0  0  0  0  0  0  0  0  0  0  0
   35.2640   29.6510   50.3540 C   0  0  0  0  0  0  0  0  0  0  0  0
   35.5030   30.6650   49.4210 N   0  0  0  0  0  0  0  0  0  0  0  0
   34.5950   30.6150   48.2820 C   0  0  0  0  0  0  0  0  0  0  0  0
   34.8510   29.2330   47.6740 C   0  0  0  0  0  0  0  0  0  0  0  0
   29.5650   27.5040   49.1040 C   0  0  0  0  0  0  0  0  0  0  0  0
   29.1370   26.9890   50.3130 C   0  0  0  0  0  0  0  0  0  0  0  0
   27.9180   27.3390   50.8690 C   0  0  0  0  0  0  0  0  0  0  0  0
   27.1640   28.2240   50.1520 N   0  0  0  0  0  0  0  0  0  0  0  0
   27.6010   28.7160   48.9740 C   0  0  0  0  0  0  0  0  0  0  0  0
   28.7940   28.3680   48.4370 N   0  0  0  0  0  0  0  0  0  0  0  0
   26.7540   29.6700   48.2330 C   0  0  0  0  0  0  0  0  0  0  0  0
   25.9710   30.4160   49.1090 F   0  0  0  0  0  0  0  0  0  0  0  0
   25.8890   28.9540   47.4070 F   0  0  0  0  0  0  0  0  0  0  0  0
   27.5210   30.4390   47.4070 F   0  0  0  0  0  0  0  0  0  0  0  0
   27.4600   26.7890   52.1580 C   0  0  0  0  0  0  0  0  0  0  0  0
   34.2155   25.9706   47.1438 H   0  0  0  0  0  0  0  0  0  0  0  0
   32.1675   24.5710   46.7508 H   0  0  0  0  0  0  0  0  0  0  0  0
   34.3351   27.7584   50.5444 H   0  0  0  0  0  0  0  0  0  0  0  0
   35.9232   27.7996   49.6275 H   0  0  0  0  0  0  0  0  0  0  0  0
   34.4097   29.9628   50.9728 H   0  0  0  0  0  0  0  0  0  0  0  0
   36.2112   29.5341   50.9010 H   0  0  0  0  0  0  0  0  0  0  0  0
   35.3920   31.5754   49.8898 H   0  0  0  0  0  0  0  0  0  0  0  0
   33.5493   30.7119   48.6094 H   0  0  0  0  0  0  0  0  0  0  0  0
   34.7633   31.4333   47.5664 H   0  0  0  0  0  0  0  0  0  0  0  0
   34.3980   29.1678   46.6737 H   0  0  0  0  0  0  0  0  0  0  0  0
   35.9282   29.0401   47.5629 H   0  0  0  0  0  0  0  0  0  0  0  0
   29.7842   26.2797   50.8498 H   0  0  0  0  0  0  0  0  0  0  0  0
   27.9263   27.3490   52.9820 H   0  0  0  0  0  0  0  0  0  0  0  0
   26.3658   26.8786   52.2268 H   0  0  0  0  0  0  0  0  0  0  0  0
   27.7462   25.7291   52.2268 H   0  0  0  0  0  0  0  0  0  0  0  0
  1  7  1  0
  1  6  1  0
  2  1  2  0
  3  2  1  0
  3  4  2  0
  4  5  1  0
  5  6  2  0
  5 13  1  0
  7  8  1  0
  8  9  1  0
 10  9  1  0
 11 10  1  0
 12 11  1  0
 12  7  1  0
 13 14  2  0
 14 15  1  0
 15 23  1  0
 16 15  2  0
 17 16  1  0
 18 17  2  0
 18 13  1  0
 19 17  1  0
 19 20  1  0
 21 19  1  0
 22 19  1  0
  2 24  1  0
  3 25  1  0
  8 26  1  0
  8 27  1  0
  9 28  1  0
  9 29  1  0
 10 30  1  0
 11 31  1  0
 11 32  1  0
 12 33  1  0
 12 34  1  0
 14 35  1  0
 23 36  1  0
 23 37  1  0
 23 38  1  0
M  ISO  8  24  14  25  14  26  13  27  13  28  13  29  13  30   5  31  13
M  ISO  7  32  13  33  13  34  13  35  14  36   8  37   8  38   8
M  END
>  <minimizedAffinity>  (1) 
-5.94632101

>  <minimizedRMSD>  (1) 
2.96751904

$$$$
