
     RDKit          3D

 36 38  0  0  0  0  0  0  0  0999 V2000
   33.1800   28.1160   47.7380 C   0  0  0  0  0  0  0  0  0  0  0  0
   33.2010   27.6010   46.4500 C   0  0  0  0  0  0  0  0  0  0  0  0
   32.0050   27.1440   45.8830 C   0  0  0  0  0  0  0  0  0  0  0  0
   30.8860   27.2330   46.6390 N   0  0  0  0  0  0  0  0  0  0  0  0
   30.9040   27.7420   47.8920 C   0  0  0  0  0  0  0  0  0  0  0  0
   32.0470   28.1830   48.4430 N   0  0  0  0  0  0  0  0  0  0  0  0
   34.3760   28.6010   48.3690 N   0  0  0  0  0  0  0  0  0  0  0  0
   34.7900   28.1550   49.6890 C   0  0  0  0  0  0  0  0  0  0  0  0
   35.2410   29.2420   50.6040 C   0  0  0  0  0  0  0  0  0  0  0  0
   35.8480   30.3590   50.0090 N   0  0  0  0  0  0  0  0  0  0  0  0
   35.2090   30.7680   48.7610 C   0  0  0  0  0  0  0  0  0  0  0  0
   35.3070   29.5340   47.8600 C   0  0  0  0  0  0  0  0  0  0  0  0
   29.6590   27.8110   48.6570 C   0  0  0  0  0  0  0  0  0  0  0  0
   29.6460   27.4050   49.9770 C   0  0  0  0  0  0  0  0  0  0  0  0
   28.4950   27.4510   50.7480 C   0  0  0  0  0  0  0  0  0  0  0  0
   27.3760   27.9210   50.1180 N   0  0  0  0  0  0  0  0  0  0  0  0
   27.4130   28.3080   48.8340 C   0  0  0  0  0  0  0  0  0  0  0  0
   28.5470   28.2630   48.0800 N   0  0  0  0  0  0  0  0  0  0  0  0
   26.1810   28.8130   48.1800 C   0  0  0  0  0  0  0  0  0  0  0  0
   26.1190   30.1960   48.2250 F   0  0  0  0  0  0  0  0  0  0  0  0
   25.0790   28.3110   48.8840 F   0  0  0  0  0  0  0  0  0  0  0  0
   26.0830   28.3160   46.9080 F   0  0  0  0  0  0  0  0  0  0  0  0
   28.4660   27.0490   52.0680 O   0  0  0  0  0  0  0  0  0  0  0  0
   34.1424   27.5524   45.8831 H   0  0  0  0  0  0  0  0  0  0  0  0
   31.9761   26.7295   44.8645 H   0  0  0  0  0  0  0  0  0  0  0  0
   33.9379   27.6431   50.1599 H   0  0  0  0  0  0  0  0  0  0  0  0
   35.6598   27.4993   49.5353 H   0  0  0  0  0  0  0  0  0  0  0  0
   34.3597   29.5978   51.1579 H   0  0  0  0  0  0  0  0  0  0  0  0
   36.0245   28.7867   51.2275 H   0  0  0  0  0  0  0  0  0  0  0  0
   35.8046   31.1463   50.6717 H   0  0  0  0  0  0  0  0  0  0  0  0
   34.1576   31.0413   48.9335 H   0  0  0  0  0  0  0  0  0  0  0  0
   35.6884   31.6518   48.3148 H   0  0  0  0  0  0  0  0  0  0  0  0
   36.3239   29.1160   47.8947 H   0  0  0  0  0  0  0  0  0  0  0  0
   35.0913   29.7848   46.8109 H   0  0  0  0  0  0  0  0  0  0  0  0
   30.5771   27.0339   50.4302 H   0  0  0  0  0  0  0  0  0  0  0  0
   27.6214   27.0987   52.5822 H   0  0  0  0  0  0  0  0  0  0  0  0
  1  7  1  0
  1  6  1  0
  2  1  2  0
  3  2  1  0
  3  4  2  0
  4  5  1  0
  5  6  2  0
  5 13  1  0
  7  8  1  0
  8  9  1  0
 10  9  1  0
 11 10  1  0
 12  7  1  0
 12 11  1  0
 13 14  2  0
 14 15  1  0
 15 23  1  0
 16 15  2  0
 17 16  1  0
 18 13  1  0
 18 17  2  0
 19 20  1  0
 19 17  1  0
 19 21  1  0
 22 19  1  0
  2 24  1  0
  3 25  1  0
  8 26  1  0
  8 27  1  0
  9 28  1  0
  9 29  1  0
 10 30  1  0
 11 31  1  0
 11 32  1  0
 12 33  1  0
 12 34  1  0
 14 35  1  0
 23 36  1  0
M  ISO  8  24  14  25  14  26  13  27  13  28  13  29  13  30   5  31  13
M  ISO  5  32  13  33  13  34  13  35  14  36   3
M  END
>  <minimizedAffinity>  (1) 
-5.89033794

>  <minimizedRMSD>  (1) 
2.44540691

$$$$
