
     RDKit          3D

 41 43  0  0  0  0  0  0  0  0999 V2000
   33.7270   28.5050   47.5370 C   0  0  0  0  0  0  0  0  0  0  0  0
   33.8780   28.2840   46.1790 C   0  0  0  0  0  0  0  0  0  0  0  0
   32.7620   27.9680   45.4100 C   0  0  0  0  0  0  0  0  0  0  0  0
   31.5600   27.8930   46.0510 N   0  0  0  0  0  0  0  0  0  0  0  0
   31.4510   28.1190   47.3990 C   0  0  0  0  0  0  0  0  0  0  0  0
   32.5250   28.4210   48.1300 N   0  0  0  0  0  0  0  0  0  0  0  0
   34.8420   28.8320   48.3730 N   0  0  0  0  0  0  0  0  0  0  0  0
   34.9630   28.3200   49.7300 C   0  0  0  0  0  0  0  0  0  0  0  0
   35.3990   29.3200   50.7420 C   0  0  0  0  0  0  0  0  0  0  0  0
   36.1820   30.4040   50.3100 N   0  0  0  0  0  0  0  0  0  0  0  0
   35.8390   30.8730   48.9790 C   0  0  0  0  0  0  0  0  0  0  0  0
   35.9500   29.6440   48.0760 C   0  0  0  0  0  0  0  0  0  0  0  0
   30.1410   28.0250   48.0210 C   0  0  0  0  0  0  0  0  0  0  0  0
   30.0170   27.5690   49.3040 C   0  0  0  0  0  0  0  0  0  0  0  0
   28.8000   27.4580   49.9470 C   0  0  0  0  0  0  0  0  0  0  0  0
   27.7120   27.8340   49.2110 N   0  0  0  0  0  0  0  0  0  0  0  0
   27.8350   28.2770   47.9620 C   0  0  0  0  0  0  0  0  0  0  0  0
   29.0440   28.3800   47.3460 N   0  0  0  0  0  0  0  0  0  0  0  0
   26.6230   28.6710   47.2130 C   0  0  0  0  0  0  0  0  0  0  0  0
   26.7160   29.9710   46.7530 F   0  0  0  0  0  0  0  0  0  0  0  0
   25.5270   28.5810   48.0710 F   0  0  0  0  0  0  0  0  0  0  0  0
   26.4020   27.7760   46.1890 F   0  0  0  0  0  0  0  0  0  0  0  0
   28.6010   26.9790   51.3180 C   0  0  0  0  0  0  0  0  0  0  0  0
   27.1700   27.0010   51.7590 C   0  0  0  0  0  0  0  0  0  0  0  0
   34.8712   28.3575   45.7118 H   0  0  0  0  0  0  0  0  0  0  0  0
   32.8457   27.7859   44.3284 H   0  0  0  0  0  0  0  0  0  0  0  0
   33.9812   27.9299   50.0365 H   0  0  0  0  0  0  0  0  0  0  0  0
   35.7482   27.5503   49.6997 H   0  0  0  0  0  0  0  0  0  0  0  0
   34.4904   29.7365   51.2014 H   0  0  0  0  0  0  0  0  0  0  0  0
   36.0619   28.7559   51.4145 H   0  0  0  0  0  0  0  0  0  0  0  0
   36.0550   31.1823   50.9726 H   0  0  0  0  0  0  0  0  0  0  0  0
   34.8137   31.2711   48.9633 H   0  0  0  0  0  0  0  0  0  0  0  0
   36.5017   31.6860   48.6477 H   0  0  0  0  0  0  0  0  0  0  0  0
   36.8849   29.1027   48.2834 H   0  0  0  0  0  0  0  0  0  0  0  0
   35.9619   29.9294   47.0137 H   0  0  0  0  0  0  0  0  0  0  0  0
   30.9274   27.2775   49.8483 H   0  0  0  0  0  0  0  0  0  0  0  0
   28.9686   25.9442   51.3816 H   0  0  0  0  0  0  0  0  0  0  0  0
   29.1535   27.6608   51.9813 H   0  0  0  0  0  0  0  0  0  0  0  0
   27.1250   27.0017   52.8581 H   0  0  0  0  0  0  0  0  0  0  0  0
   26.6808   27.9068   51.3714 H   0  0  0  0  0  0  0  0  0  0  0  0
   26.6531   26.1107   51.3714 H   0  0  0  0  0  0  0  0  0  0  0  0
  1  6  1  0
  1  7  1  0
  2  1  2  0
  3  4  2  0
  3  2  1  0
  4  5  1  0
  5 13  1  0
  5  6  2  0
  7  8  1  0
  8  9  1  0
 10  9  1  0
 11 10  1  0
 12  7  1  0
 12 11  1  0
 13 14  2  0
 14 15  1  0
 15 23  1  0
 16 15  2  0
 17 16  1  0
 18 17  2  0
 18 13  1  0
 19 17  1  0
 19 21  1  0
 20 19  1  0
 22 19  1  0
 23 24  1  0
  2 25  1  0
  3 26  1  0
  8 27  1  0
  8 28  1  0
  9 29  1  0
  9 30  1  0
 10 31  1  0
 11 32  1  0
 11 33  1  0
 12 34  1  0
 12 35  1  0
 14 36  1  0
 23 37  1  0
 23 38  1  0
 24 39  1  0
 24 40  1  0
 24 41  1  0
M  ISO  8  25  14  26  14  27  13  28  13  29  13  30  13  31   5  32  13
M  ISO  8  33  13  34  13  35  13  36  14  37   8  38   8  39   8  40   8
M  ISO  1  41   8
M  END
>  <minimizedAffinity>  (1) 
-5.67980909

>  <minimizedRMSD>  (1) 
1.79354513

$$$$
