
     RDKit          3D

 38 40  0  0  0  0  0  0  0  0999 V2000
   34.9640   29.7480   47.1390 C   0  0  0  0  0  0  0  0  0  0  0  0
   35.3740   29.9900   45.8460 C   0  0  0  0  0  0  0  0  0  0  0  0
   34.4350   29.9770   44.8190 C   0  0  0  0  0  0  0  0  0  0  0  0
   33.1390   29.7200   45.1440 N   0  0  0  0  0  0  0  0  0  0  0  0
   32.7770   29.4840   46.4360 C   0  0  0  0  0  0  0  0  0  0  0  0
   33.6700   29.4960   47.4290 N   0  0  0  0  0  0  0  0  0  0  0  0
   35.8740   29.7470   48.2400 N   0  0  0  0  0  0  0  0  0  0  0  0
   35.7440   28.8360   49.3690 C   0  0  0  0  0  0  0  0  0  0  0  0
   35.9420   29.4690   50.7000 C   0  0  0  0  0  0  0  0  0  0  0  0
   36.8320   30.5560   50.7660 N   0  0  0  0  0  0  0  0  0  0  0  0
   36.7130   31.4570   49.6280 C   0  0  0  0  0  0  0  0  0  0  0  0
   37.0090   30.5810   48.4300 C   0  0  0  0  0  0  0  0  0  0  0  0
   31.3720   29.2140   46.7350 C   0  0  0  0  0  0  0  0  0  0  0  0
   31.0400   28.4020   47.7970 C   0  0  0  0  0  0  0  0  0  0  0  0
   29.7170   28.1160   48.1190 C   0  0  0  0  0  0  0  0  0  0  0  0
   28.7680   28.6830   47.3270 N   0  0  0  0  0  0  0  0  0  0  0  0
   29.1140   29.4750   46.2940 C   0  0  0  0  0  0  0  0  0  0  0  0
   30.4100   29.7500   45.9830 N   0  0  0  0  0  0  0  0  0  0  0  0
   28.0530   30.0790   45.4460 C   0  0  0  0  0  0  0  0  0  0  0  0
   28.0400   31.4500   45.5730 F   0  0  0  0  0  0  0  0  0  0  0  0
   26.8140   29.5850   45.9020 F   0  0  0  0  0  0  0  0  0  0  0  0
   28.1930   29.6430   44.1550 F   0  0  0  0  0  0  0  0  0  0  0  0
   29.3480   27.2470   49.2540 C   0  0  0  0  0  0  0  0  0  0  0  0
   28.1340   26.6340   49.0310 F   0  0  0  0  0  0  0  0  0  0  0  0
   30.3590   26.3350   49.4640 F   0  0  0  0  0  0  0  0  0  0  0  0
   29.2490   27.9950   50.4140 F   0  0  0  0  0  0  0  0  0  0  0  0
   36.4331   30.1915   45.6277 H   0  0  0  0  0  0  0  0  0  0  0  0
   34.7313   30.1685   43.7771 H   0  0  0  0  0  0  0  0  0  0  0  0
   34.7347   28.3993   49.3433 H   0  0  0  0  0  0  0  0  0  0  0  0
   36.5410   28.0860   49.2583 H   0  0  0  0  0  0  0  0  0  0  0  0
   34.9603   29.8228   51.0481 H   0  0  0  0  0  0  0  0  0  0  0  0
   36.4014   28.6866   51.3219 H   0  0  0  0  0  0  0  0  0  0  0  0
   36.6386   31.0871   51.6271 H   0  0  0  0  0  0  0  0  0  0  0  0
   35.6971   31.8742   49.5650 H   0  0  0  0  0  0  0  0  0  0  0  0
   37.3933   32.3184   49.6991 H   0  0  0  0  0  0  0  0  0  0  0  0
   37.9019   29.9675   48.6210 H   0  0  0  0  0  0  0  0  0  0  0  0
   37.2054   31.1898   47.5351 H   0  0  0  0  0  0  0  0  0  0  0  0
   31.8444   27.9670   48.4084 H   0  0  0  0  0  0  0  0  0  0  0  0
  1  6  1  0
  1  7  1  0
  2  1  2  0
  3  4  2  0
  3  2  1  0
  4  5  1  0
  5 13  1  0
  5  6  2  0
  7 12  1  0
  7  8  1  0
  8  9  1  0
  9 10  1  0
 11 10  1  0
 12 11  1  0
 13 14  2  0
 14 15  1  0
 15 23  1  0
 16 15  2  0
 17 16  1  0
 18 17  2  0
 18 13  1  0
 19 20  1  0
 19 21  1  0
 19 17  1  0
 22 19  1  0
 23 25  1  0
 23 26  1  0
 24 23  1  0
  2 27  1  0
  3 28  1  0
  8 29  1  0
  8 30  1  0
  9 31  1  0
  9 32  1  0
 10 33  1  0
 11 34  1  0
 11 35  1  0
 12 36  1  0
 12 37  1  0
 14 38  1  0
M  ISO  8  27  14  28  14  29  13  30  13  31  13  32  13  33   5  34  13
M  ISO  4  35  13  36  13  37  13  38  14
M  END
>  <minimizedAffinity>  (1) 
-5.10868788

>  <minimizedRMSD>  (1) 
1.41527891

$$$$
