
     RDKit          3D

 22 23  0  0  0  0  0  0  0  0999 V2000
   38.0520   33.0840   49.7440 C   0  0  0  0  0  0  0  0  0  0  0  0
   38.8350   33.3020   48.5930 C   0  0  0  0  0  0  0  0  0  0  0  0
   38.6020   32.4820   47.4870 C   0  0  0  0  0  0  0  0  0  0  0  0
   37.6440   31.5290   47.5750 N   0  0  0  0  0  0  0  0  0  0  0  0
   36.9120   31.3450   48.6910 C   0  0  0  0  0  0  0  0  0  0  0  0
   37.1220   32.1170   49.7540 N   0  0  0  0  0  0  0  0  0  0  0  0
   39.4050   32.7220   46.3360 N   0  0  0  0  0  0  0  0  0  0  0  0
   37.1680   29.2590   50.8140 Cl  0  0  0  0  0  0  0  0  0  0  0  0
   35.9320   29.2650   49.5830 C   0  0  0  0  0  0  0  0  0  0  0  0
   35.9130   30.2830   48.6520 C   0  0  0  0  0  0  0  0  0  0  0  0
   34.9490   30.3030   47.6780 C   0  0  0  0  0  0  0  0  0  0  0  0
   34.0080   29.2880   47.6540 C   0  0  0  0  0  0  0  0  0  0  0  0
   34.0410   28.2780   48.5910 C   0  0  0  0  0  0  0  0  0  0  0  0
   35.0150   28.2360   49.5950 C   0  0  0  0  0  0  0  0  0  0  0  0
   38.2036   33.7084   50.6368 H   0  0  0  0  0  0  0  0  0  0  0  0
   39.6022   34.0898   48.5666 H   0  0  0  0  0  0  0  0  0  0  0  0
   40.1145   33.4686   46.3496 H   0  0  0  0  0  0  0  0  0  0  0  0
   39.2765   32.1490   45.4898 H   0  0  0  0  0  0  0  0  0  0  0  0
   34.9235   31.1094   46.9303 H   0  0  0  0  0  0  0  0  0  0  0  0
   33.2266   29.2876   46.8798 H   0  0  0  0  0  0  0  0  0  0  0  0
   33.2814   27.4835   48.5486 H   0  0  0  0  0  0  0  0  0  0  0  0
   35.0468   27.4329   50.3460 H   0  0  0  0  0  0  0  0  0  0  0  0
  1  6  2  0
  2  1  1  0
  3  4  1  0
  3  2  2  0
  4  5  2  0
  5  6  1  0
  7  3  1  0
  9 14  2  0
  9  8  1  0
 10  5  1  0
 10  9  1  0
 11 10  2  0
 12 11  1  0
 12 13  2  0
 13 14  1  0
  1 15  1  0
  2 16  1  0
  7 17  1  0
  7 18  1  0
 11 19  1  0
 12 20  1  0
 13 21  1  0
 14 22  1  0
M  ISO  6  15  14  16  14  19  14  20  14  21  14  22  14
M  END
>  <minimizedAffinity>  (1) 
-5.58279085

>  <minimizedRMSD>  (1) 
2.97785568

$$$$
