
     RDKit          3D

 30 31  0  0  0  0  0  0  0  0999 V2000
   38.2780   31.2040   48.9720 Cl  0  0  0  0  0  0  0  0  0  0  0  0
   37.0010   30.6990   47.8890 C   0  0  0  0  0  0  0  0  0  0  0  0
   37.1900   30.8140   46.5460 C   0  0  0  0  0  0  0  0  0  0  0  0
   36.1960   30.4190   45.6780 C   0  0  0  0  0  0  0  0  0  0  0  0
   35.0220   29.9110   46.1990 C   0  0  0  0  0  0  0  0  0  0  0  0
   34.8650   29.8090   47.5690 C   0  0  0  0  0  0  0  0  0  0  0  0
   35.8490   30.1990   48.4570 C   0  0  0  0  0  0  0  0  0  0  0  0
   40.0440   33.0220   45.8010 C   0  0  0  0  0  0  0  0  0  0  0  0
   40.7840   32.2320   44.8990 C   0  0  0  0  0  0  0  0  0  0  0  0
   40.2720   30.9830   44.5880 C   0  0  0  0  0  0  0  0  0  0  0  0
   39.1070   30.5610   45.1420 N   0  0  0  0  0  0  0  0  0  0  0  0
   38.4270   31.3500   46.0040 C   0  0  0  0  0  0  0  0  0  0  0  0
   38.9030   32.5500   46.3140 N   0  0  0  0  0  0  0  0  0  0  0  0
   41.0360   30.2110   43.6610 N   0  0  0  0  0  0  0  0  0  0  0  0
   35.7000   30.0980   49.9100 C   0  0  0  0  0  0  0  0  0  0  0  0
   34.6500   29.2370   50.4350 C   0  0  0  0  0  0  0  0  0  0  0  0
   33.3520   29.7920   50.6290 N   0  0  0  0  0  0  0  0  0  0  0  0
   36.3346   30.5065   44.5903 H   0  0  0  0  0  0  0  0  0  0  0  0
   34.2141   29.5884   45.5258 H   0  0  0  0  0  0  0  0  0  0  0  0
   33.9230   29.4028   47.9661 H   0  0  0  0  0  0  0  0  0  0  0  0
   40.4035   34.0229   46.0820 H   0  0  0  0  0  0  0  0  0  0  0  0
   41.7269   32.5913   44.4610 H   0  0  0  0  0  0  0  0  0  0  0  0
   40.7144   29.2724   43.3843 H   0  0  0  0  0  0  0  0  0  0  0  0
   41.9087   30.5927   43.2690 H   0  0  0  0  0  0  0  0  0  0  0  0
   36.6555   29.7291   50.3111 H   0  0  0  0  0  0  0  0  0  0  0  0
   35.4060   31.1101   50.2252 H   0  0  0  0  0  0  0  0  0  0  0  0
   34.5420   28.3935   49.7373 H   0  0  0  0  0  0  0  0  0  0  0  0
   34.9902   28.9840   51.4500 H   0  0  0  0  0  0  0  0  0  0  0  0
   33.1608   29.8737   51.6378 H   0  0  0  0  0  0  0  0  0  0  0  0
   33.3091   30.7250   50.1947 H   0  0  0  0  0  0  0  0  0  0  0  0
  2  7  2  0
  2  1  1  0
  3  2  1  0
  4  5  1  0
  4  3  2  0
  5  6  2  0
  6  7  1  0
  7 15  1  0
  8 13  2  0
  9  8  1  0
 10  9  2  0
 10 11  1  0
 11 12  2  0
 12 13  1  0
 12  3  1  0
 14 10  1  0
 15 16  1  0
 16 17  1  0
  4 18  1  0
  5 19  1  0
  6 20  1  0
  8 21  1  0
  9 22  1  0
 14 23  1  0
 14 24  1  0
 15 25  1  0
 15 26  1  0
 16 27  1  0
 16 28  1  0
 17 29  1  0
 17 30  1  0
M  ISO  8  18  14  19  14  20  14  21  14  22  14  25   8  26   8  27   8
M  ISO  3  28   8  29   5  30   5
M  END
>  <minimizedAffinity>  (1) 
-5.62173176

>  <minimizedRMSD>  (1) 
0.332177192

$$$$
