
     RDKit          3D

 29 30  0  0  0  0  0  0  0  0999 V2000
   38.2780   31.5240   48.1400 Cl  0  0  0  0  0  0  0  0  0  0  0  0
   36.9030   30.8030   47.3200 C   0  0  0  0  0  0  0  0  0  0  0  0
   36.9040   30.7310   45.9530 C   0  0  0  0  0  0  0  0  0  0  0  0
   35.8450   30.1740   45.3120 C   0  0  0  0  0  0  0  0  0  0  0  0
   34.7900   29.6930   46.0360 C   0  0  0  0  0  0  0  0  0  0  0  0
   34.7990   29.7720   47.4120 C   0  0  0  0  0  0  0  0  0  0  0  0
   35.8690   30.3350   48.0970 C   0  0  0  0  0  0  0  0  0  0  0  0
   39.2950   32.9890   44.2800 C   0  0  0  0  0  0  0  0  0  0  0  0
   40.2020   32.0560   43.7110 C   0  0  0  0  0  0  0  0  0  0  0  0
   39.9590   30.6970   43.9220 C   0  0  0  0  0  0  0  0  0  0  0  0
   38.8780   30.3350   44.6550 N   0  0  0  0  0  0  0  0  0  0  0  0
   38.0330   31.2440   45.1840 C   0  0  0  0  0  0  0  0  0  0  0  0
   38.2480   32.5540   44.9920 N   0  0  0  0  0  0  0  0  0  0  0  0
   40.8750   29.7980   43.3470 N   0  0  0  0  0  0  0  0  0  0  0  0
   35.9380   30.4510   49.5770 C   0  0  0  0  0  0  0  0  0  0  0  0
   36.4850   29.2950   50.2890 C   0  0  0  0  0  0  0  0  0  0  0  0
   37.3920   29.8590   51.7560 S   0  0  0  0  0  0  0  0  0  0  0  0
   35.8358   30.1099   44.2139 H   0  0  0  0  0  0  0  0  0  0  0  0
   33.9308   29.2413   45.5186 H   0  0  0  0  0  0  0  0  0  0  0  0
   33.9416   29.3814   47.9796 H   0  0  0  0  0  0  0  0  0  0  0  0
   39.4526   34.0681   44.1359 H   0  0  0  0  0  0  0  0  0  0  0  0
   41.0683   32.3930   43.1228 H   0  0  0  0  0  0  0  0  0  0  0  0
   40.7467   28.7834   43.4693 H   0  0  0  0  0  0  0  0  0  0  0  0
   41.6742   30.1542   42.8036 H   0  0  0  0  0  0  0  0  0  0  0  0
   36.5662   31.3215   49.8169 H   0  0  0  0  0  0  0  0  0  0  0  0
   34.8951   30.5398   49.9152 H   0  0  0  0  0  0  0  0  0  0  0  0
   35.6630   28.6329   50.5987 H   0  0  0  0  0  0  0  0  0  0  0  0
   37.1687   28.7461   49.6247 H   0  0  0  0  0  0  0  0  0  0  0  0
   36.7335   29.4495   52.8854 H   0  0  0  0  0  0  0  0  0  0  0  0
  2  7  2  0
  2  1  1  0
  3  2  1  0
  4  3  2  0
  4  5  1  0
  5  6  2  0
  6  7  1  0
  7 15  1  0
  8 13  2  0
  9 10  2  0
  9  8  1  0
 10 11  1  0
 11 12  2  0
 12  3  1  0
 13 12  1  0
 14 10  1  0
 15 16  1  0
 16 17  1  0
  4 18  1  0
  5 19  1  0
  6 20  1  0
  8 21  1  0
  9 22  1  0
 14 23  1  0
 14 24  1  0
 15 25  1  0
 15 26  1  0
 16 27  1  0
 16 28  1  0
 17 29  1  0
M  ISO  8  18  14  19  14  20  14  21  14  22  14  25   8  26   8  27   8
M  ISO  2  28   8  29  11
M  END
>  <minimizedAffinity>  (1) 
-5.25297546

>  <minimizedRMSD>  (1) 
1.2090714

$$$$
