
     RDKit          3D

 33 35  0  0  0  0  0  0  0  0999 V2000
   38.1830   30.7830   48.8820 Br  0  0  0  0  0  0  0  0  0  0  0  0
   36.9290   30.4920   47.4680 C   0  0  0  0  0  0  0  0  0  0  0  0
   37.2520   30.8250   46.1720 C   0  0  0  0  0  0  0  0  0  0  0  0
   36.3070   30.5900   45.2040 C   0  0  0  0  0  0  0  0  0  0  0  0
   35.0560   30.0410   45.4570 C   0  0  0  0  0  0  0  0  0  0  0  0
   34.7810   29.7240   46.7660 C   0  0  0  0  0  0  0  0  0  0  0  0
   35.7150   29.9490   47.7700 C   0  0  0  0  0  0  0  0  0  0  0  0
   39.7940   33.2910   45.3200 C   0  0  0  0  0  0  0  0  0  0  0  0
   40.9920   32.5390   45.2080 C   0  0  0  0  0  0  0  0  0  0  0  0
   40.8950   31.1750   45.4340 C   0  0  0  0  0  0  0  0  0  0  0  0
   39.6780   30.6290   45.7460 N   0  0  0  0  0  0  0  0  0  0  0  0
   38.5530   31.4060   45.8390 C   0  0  0  0  0  0  0  0  0  0  0  0
   38.6170   32.7350   45.6260 N   0  0  0  0  0  0  0  0  0  0  0  0
   35.2980   29.5640   49.1470 C   0  0  0  0  0  0  0  0  0  0  0  0
   33.8110   29.3820   49.2680 C   0  0  0  0  0  0  0  0  0  0  0  0
   33.3820   28.0860   48.6870 C   0  0  0  0  0  0  0  0  0  0  0  0
   32.0890   27.6730   48.3650 C   0  0  0  0  0  0  0  0  0  0  0  0
   32.1660   26.4050   47.8550 C   0  0  0  0  0  0  0  0  0  0  0  0
   33.4960   26.1000   47.8860 C   0  0  0  0  0  0  0  0  0  0  0  0
   34.1730   27.1010   48.3760 O   0  0  0  0  0  0  0  0  0  0  0  0
   36.5555   30.8523   44.1650 H   0  0  0  0  0  0  0  0  0  0  0  0
   34.3250   29.8693   44.6531 H   0  0  0  0  0  0  0  0  0  0  0  0
   33.8056   29.2850   47.0229 H   0  0  0  0  0  0  0  0  0  0  0  0
   39.8352   34.3767   45.1479 H   0  0  0  0  0  0  0  0  0  0  0  0
   41.9506   33.0151   44.9543 H   0  0  0  0  0  0  0  0  0  0  0  0
   41.7878   30.5363   45.3634 H   0  0  0  0  0  0  0  0  0  0  0  0
   35.7921   28.6181   49.4138 H   0  0  0  0  0  0  0  0  0  0  0  0
   35.5914   30.3787   49.8253 H   0  0  0  0  0  0  0  0  0  0  0  0
   33.5312   29.4090   50.3315 H   0  0  0  0  0  0  0  0  0  0  0  0
   33.3139   30.1936   48.7164 H   0  0  0  0  0  0  0  0  0  0  0  0
   31.1697   28.2623   48.4975 H   0  0  0  0  0  0  0  0  0  0  0  0
   31.3395   25.7723   47.4992 H   0  0  0  0  0  0  0  0  0  0  0  0
   33.9329   25.1490   47.5472 H   0  0  0  0  0  0  0  0  0  0  0  0
  2  7  2  0
  2  1  1  0
  3  2  1  0
  4  5  1  0
  4  3  2  0
  5  6  2  0
  6  7  1  0
  7 14  1  0
  8 13  2  0
  9  8  1  0
  9 10  2  0
 10 11  1  0
 11 12  2  0
 12  3  1  0
 13 12  1  0
 14 15  1  0
 16 15  1  0
 17 16  2  0
 18 19  2  0
 18 17  1  0
 19 20  1  0
 20 16  1  0
  4 21  1  0
  5 22  1  0
  6 23  1  0
  8 24  1  0
  9 25  1  0
 10 26  1  0
 14 27  1  0
 14 28  1  0
 15 29  1  0
 15 30  1  0
 17 31  1  0
 18 32  1  0
 19 33  1  0
M  ISO  8  21  14  22  14  23  14  24  14  25  14  26  14  27   8  28   8
M  ISO  5  29   8  30   8  31  14  32  14  33  14
M  END
>  <minimizedAffinity>  (1) 
-5.05857706

>  <minimizedRMSD>  (1) 
1.84487271

$$$$
