
     RDKit          3D

 36 37  0  0  0  0  0  0  0  0999 V2000
   37.6500   30.4410   48.5150 Cl  0  0  0  0  0  0  0  0  0  0  0  0
   36.4790   30.2920   47.2050 C   0  0  0  0  0  0  0  0  0  0  0  0
   36.8310   30.6920   45.9520 C   0  0  0  0  0  0  0  0  0  0  0  0
   35.9320   30.5820   44.9270 C   0  0  0  0  0  0  0  0  0  0  0  0
   34.6770   30.0640   45.1890 C   0  0  0  0  0  0  0  0  0  0  0  0
   34.3680   29.6700   46.4920 C   0  0  0  0  0  0  0  0  0  0  0  0
   35.2490   29.7720   47.5260 C   0  0  0  0  0  0  0  0  0  0  0  0
   39.8290   32.8470   45.9560 C   0  0  0  0  0  0  0  0  0  0  0  0
   40.6870   32.1250   45.0870 C   0  0  0  0  0  0  0  0  0  0  0  0
   40.2040   30.9260   44.5330 C   0  0  0  0  0  0  0  0  0  0  0  0
   38.9480   30.5140   44.8510 N   0  0  0  0  0  0  0  0  0  0  0  0
   38.1580   31.2370   45.6890 C   0  0  0  0  0  0  0  0  0  0  0  0
   38.6020   32.3780   46.2220 N   0  0  0  0  0  0  0  0  0  0  0  0
   41.0770   30.2300   43.6740 N   0  0  0  0  0  0  0  0  0  0  0  0
   34.9110   29.3620   48.8720 C   0  0  0  0  0  0  0  0  0  0  0  0
   34.1630   28.1270   49.0770 C   0  0  0  0  0  0  0  0  0  0  0  0
   32.8560   28.3760   49.4330 O   0  0  0  0  0  0  0  0  0  0  0  0
   32.5170   26.5460   47.5670 O   0  0  0  0  0  0  0  0  0  0  0  0
   31.8040   27.5880   48.3930 P   0  0  2  0  0  0  0  0  0  0  0  0
   31.1200   28.8030   47.3910 O   0  0  0  0  0  0  0  0  0  0  0  0
   30.5460   26.8460   49.1990 O   0  0  0  0  0  0  0  0  0  0  0  0
   29.6450   27.5110   49.9980 C   0  0  0  0  0  0  0  0  0  0  0  0
   28.9970   26.8870   50.8730 O   0  0  0  0  0  0  0  0  0  0  0  0
   36.2033   30.9008   43.9097 H   0  0  0  0  0  0  0  0  0  0  0  0
   33.9343   29.9640   44.3838 H   0  0  0  0  0  0  0  0  0  0  0  0
   33.3678   29.2585   46.6929 H   0  0  0  0  0  0  0  0  0  0  0  0
   40.1698   33.7891   46.4102 H   0  0  0  0  0  0  0  0  0  0  0  0
   41.6977   32.4913   44.8540 H   0  0  0  0  0  0  0  0  0  0  0  0
   42.0163   30.6054   43.4799 H   0  0  0  0  0  0  0  0  0  0  0  0
   40.7760   29.3457   43.2400 H   0  0  0  0  0  0  0  0  0  0  0  0
   35.8575   29.2587   49.4228 H   0  0  0  0  0  0  0  0  0  0  0  0
   34.2190   30.1449   49.2159 H   0  0  0  0  0  0  0  0  0  0  0  0
   34.1735   27.5448   48.1438 H   0  0  0  0  0  0  0  0  0  0  0  0
   34.6408   27.5686   49.8955 H   0  0  0  0  0  0  0  0  0  0  0  0
   30.7213   29.5112   47.9564 H   0  0  0  0  0  0  0  0  0  0  0  0
   29.4921   28.5927   49.8696 H   0  0  0  0  0  0  0  0  0  0  0  0
  2  7  2  0
  2  1  1  0
  3  2  1  0
  4  5  1  0
  4  3  2  0
  5  6  2  0
  6  7  1  0
  7 15  1  0
  8 13  2  0
  9  8  1  0
 10 11  1  0
 10  9  2  0
 11 12  2  0
 12  3  1  0
 12 13  1  0
 14 10  1  0
 15 16  1  0
 16 17  1  0
 19 18  2  0
 19 21  1  0
 19 17  1  0
 20 19  1  0
 21 22  1  0
 22 23  2  0
  4 24  1  0
  5 25  1  0
  6 26  1  0
  8 27  1  0
  9 28  1  0
 14 29  1  0
 14 30  1  0
 15 31  1  0
 15 32  1  0
 16 33  1  0
 16 34  1  0
 20 35  1  0
 22 36  1  0
M  ISO  8  24  14  25  14  26  14  27  14  28  14  31   8  32   8  33   8
M  ISO  3  34   8  35   3  36   6
M  END
>  <minimizedAffinity>  (1) 
-5.46765804

>  <minimizedRMSD>  (1) 
0.578940153

$$$$
