
     RDKit          3D

 47 49  0  0  0  0  0  0  0  0999 V2000
   34.2580   29.1220   48.7740 C   0  0  0  0  0  0  0  0  0  0  0  0
   37.0150   30.2470   48.7600 Cl  0  0  0  0  0  0  0  0  0  0  0  0
   36.0010   30.1010   47.3220 C   0  0  0  0  0  0  0  0  0  0  0  0
   36.4830   30.5200   46.1340 C   0  0  0  0  0  0  0  0  0  0  0  0
   35.7040   30.4110   45.0000 C   0  0  0  0  0  0  0  0  0  0  0  0
   34.4340   29.8670   45.1130 C   0  0  0  0  0  0  0  0  0  0  0  0
   33.9990   29.4530   46.3840 C   0  0  0  0  0  0  0  0  0  0  0  0
   34.7480   29.5540   47.4980 C   0  0  0  0  0  0  0  0  0  0  0  0
   39.4480   32.6610   46.6020 C   0  0  0  0  0  0  0  0  0  0  0  0
   40.3660   32.0540   45.6960 C   0  0  0  0  0  0  0  0  0  0  0  0
   39.9250   30.9470   44.9740 C   0  0  0  0  0  0  0  0  0  0  0  0
   38.6600   30.4860   45.1500 N   0  0  0  0  0  0  0  0  0  0  0  0
   37.8140   31.0920   46.0230 C   0  0  0  0  0  0  0  0  0  0  0  0
   38.2160   32.1500   46.7220 N   0  0  0  0  0  0  0  0  0  0  0  0
   40.8540   30.3700   44.0820 N   0  0  0  0  0  0  0  0  0  0  0  0
   33.4990   27.8830   48.8920 C   0  0  0  0  0  0  0  0  0  0  0  0
   32.1990   28.1060   49.2540 O   0  0  0  0  0  0  0  0  0  0  0  0
   31.8590   26.4400   47.2490 O   0  0  0  0  0  0  0  0  0  0  0  0
   31.1510   27.4030   48.1700 P   0  0  2  0  0  0  0  0  0  0  0  0
   30.4900   28.7050   47.2350 O   0  0  0  0  0  0  0  0  0  0  0  0
   29.1810   28.5330   46.7460 C   0  0  0  0  0  0  0  0  0  0  0  0
   28.2030   29.4540   47.0770 C   0  0  0  0  0  0  0  0  0  0  0  0
   26.8910   29.3860   46.6550 C   0  0  0  0  0  0  0  0  0  0  0  0
   26.5380   28.3350   45.8550 C   0  0  0  0  0  0  0  0  0  0  0  0
   27.4850   27.3930   45.5010 C   0  0  0  0  0  0  0  0  0  0  0  0
   28.7840   27.4870   45.9360 C   0  0  0  0  0  0  0  0  0  0  0  0
   29.8640   26.6550   48.8910 O   0  0  0  0  0  0  0  0  0  0  0  0
   29.4330   27.3630   49.9880 C   0  0  0  0  0  0  0  0  0  0  0  0
   29.4070   26.5750   51.1380 F   0  0  0  0  0  0  0  0  0  0  0  0
   30.2750   28.4260   50.2760 F   0  0  0  0  0  0  0  0  0  0  0  0
   28.1490   27.8410   49.7670 F   0  0  0  0  0  0  0  0  0  0  0  0
   33.6098   29.9264   49.1520 H   0  0  0  0  0  0  0  0  0  0  0  0
   35.1798   28.9028   49.3328 H   0  0  0  0  0  0  0  0  0  0  0  0
   36.0838   30.7495   44.0247 H   0  0  0  0  0  0  0  0  0  0  0  0
   33.7841   29.7621   44.2318 H   0  0  0  0  0  0  0  0  0  0  0  0
   32.9906   29.0226   46.4732 H   0  0  0  0  0  0  0  0  0  0  0  0
   39.7477   33.5378   47.1949 H   0  0  0  0  0  0  0  0  0  0  0  0
   41.3863   32.4457   45.5713 H   0  0  0  0  0  0  0  0  0  0  0  0
   41.7999   30.7681   43.9949 H   0  0  0  0  0  0  0  0  0  0  0  0
   40.5861   29.5508   43.5181 H   0  0  0  0  0  0  0  0  0  0  0  0
   33.5127   27.3654   47.9215 H   0  0  0  0  0  0  0  0  0  0  0  0
   33.9685   27.2729   49.6777 H   0  0  0  0  0  0  0  0  0  0  0  0
   28.4911   30.2982   47.7206 H   0  0  0  0  0  0  0  0  0  0  0  0
   26.1563   30.1492   46.9513 H   0  0  0  0  0  0  0  0  0  0  0  0
   25.5032   28.2396   45.4942 H   0  0  0  0  0  0  0  0  0  0  0  0
   27.1922   26.5504   44.8574 H   0  0  0  0  0  0  0  0  0  0  0  0
   29.5155   26.7220   45.6365 H   0  0  0  0  0  0  0  0  0  0  0  0
  1 16  1  0
  3  8  2  0
  3  2  1  0
  4  3  1  0
  5  6  1  0
  5  4  2  0
  6  7  2  0
  7  8  1  0
  8  1  1  0
  9 14  2  0
 10  9  1  0
 11 12  1  0
 11 10  2  0
 12 13  2  0
 13  4  1  0
 13 14  1  0
 15 11  1  0
 16 17  1  0
 19 18  2  0
 19 27  1  0
 19 17  1  0
 20 19  1  0
 21 22  2  0
 21 20  1  0
 23 22  1  0
 24 23  2  0
 25 24  1  0
 25 26  2  0
 26 21  1  0
 27 28  1  0
 28 30  1  0
 28 29  1  0
 31 28  1  0
  1 32  1  0
  1 33  1  0
  5 34  1  0
  6 35  1  0
  7 36  1  0
  9 37  1  0
 10 38  1  0
 15 39  1  0
 15 40  1  0
 16 41  1  0
 16 42  1  0
 22 43  1  0
 23 44  1  0
 24 45  1  0
 25 46  1  0
 26 47  1  0
M  ISO  8  32   8  33   8  34  14  35  14  36  14  37  14  38  14  41   8
M  ISO  6  42   8  43  14  44  14  45  14  46  14  47  14
M  END
>  <minimizedAffinity>  (1) 
-6.07018042

>  <minimizedRMSD>  (1) 
1.40552127

$$$$
