
     RDKit          3D

 45 47  0  0  0  0  0  0  0  0999 V2000
   34.6280   29.3130   48.8660 C   0  0  0  0  0  0  0  0  0  0  0  0
   37.3900   30.4050   48.6840 Cl  0  0  0  0  0  0  0  0  0  0  0  0
   36.3000   30.2490   47.3080 C   0  0  0  0  0  0  0  0  0  0  0  0
   36.7210   30.6440   46.0860 C   0  0  0  0  0  0  0  0  0  0  0  0
   35.8810   30.5280   44.9990 C   0  0  0  0  0  0  0  0  0  0  0  0
   34.6060   30.0040   45.1890 C   0  0  0  0  0  0  0  0  0  0  0  0
   34.2420   29.6150   46.4930 C   0  0  0  0  0  0  0  0  0  0  0  0
   35.0510   29.7230   47.5600 C   0  0  0  0  0  0  0  0  0  0  0  0
   39.7050   32.7950   46.3270 C   0  0  0  0  0  0  0  0  0  0  0  0
   40.5920   32.1150   45.4190 C   0  0  0  0  0  0  0  0  0  0  0  0
   40.1270   30.9660   44.7770 C   0  0  0  0  0  0  0  0  0  0  0  0
   38.8630   30.5360   45.0330 N   0  0  0  0  0  0  0  0  0  0  0  0
   38.0530   31.1940   45.8910 C   0  0  0  0  0  0  0  0  0  0  0  0
   38.4750   32.3030   46.5210 N   0  0  0  0  0  0  0  0  0  0  0  0
   41.0210   30.3360   43.9030 N   0  0  0  0  0  0  0  0  0  0  0  0
   33.9420   28.0300   49.0480 C   0  0  0  0  0  0  0  0  0  0  0  0
   32.6100   28.2070   49.3210 O   0  0  0  0  0  0  0  0  0  0  0  0
   32.4860   26.3830   47.4370 O   0  0  0  0  0  0  0  0  0  0  0  0
   31.6710   27.3750   48.2280 P   0  0  2  0  0  0  0  0  0  0  0  0
   31.0140   28.5590   47.1470 O   0  0  0  0  0  0  0  0  0  0  0  0
   29.8940   28.3050   46.3760 C   0  0  0  0  0  0  0  0  0  0  0  0
   28.7120   29.0280   46.3150 C   0  0  0  0  0  0  0  0  0  0  0  0
   27.6900   28.6300   45.4840 C   0  0  0  0  0  0  0  0  0  0  0  0
   27.8620   27.5150   44.7260 N   0  0  0  0  0  0  0  0  0  0  0  0
   29.0120   26.8180   44.7890 C   0  0  0  0  0  0  0  0  0  0  0  0
   30.0380   27.1930   45.6050 N   0  0  0  0  0  0  0  0  0  0  0  0
   30.3700   26.6170   48.9120 O   0  0  0  0  0  0  0  0  0  0  0  0
   29.7760   27.4150   49.8610 C   0  0  0  0  0  0  0  0  0  0  0  0
   29.3750   26.6940   50.9840 F   0  0  0  0  0  0  0  0  0  0  0  0
   30.6480   28.3870   50.3290 F   0  0  0  0  0  0  0  0  0  0  0  0
   28.6560   28.0400   49.3240 F   0  0  0  0  0  0  0  0  0  0  0  0
   33.9465   30.0924   49.2377 H   0  0  0  0  0  0  0  0  0  0  0  0
   35.5765   29.1697   49.4043 H   0  0  0  0  0  0  0  0  0  0  0  0
   36.2128   30.8441   43.9990 H   0  0  0  0  0  0  0  0  0  0  0  0
   33.9050   29.8970   44.3481 H   0  0  0  0  0  0  0  0  0  0  0  0
   33.2357   29.1981   46.6467 H   0  0  0  0  0  0  0  0  0  0  0  0
   40.0327   33.7040   46.8527 H   0  0  0  0  0  0  0  0  0  0  0  0
   41.6094   32.4911   45.2361 H   0  0  0  0  0  0  0  0  0  0  0  0
   41.9643   30.7250   43.7625 H   0  0  0  0  0  0  0  0  0  0  0  0
   40.7354   29.4835   43.4005 H   0  0  0  0  0  0  0  0  0  0  0  0
   34.0424   27.4371   48.1269 H   0  0  0  0  0  0  0  0  0  0  0  0
   34.4030   27.5098   49.9006 H   0  0  0  0  0  0  0  0  0  0  0  0
   28.5905   29.9275   46.9364 H   0  0  0  0  0  0  0  0  0  0  0  0
   26.7523   29.2029   45.4341 H   0  0  0  0  0  0  0  0  0  0  0  0
   29.1273   25.9201   44.1642 H   0  0  0  0  0  0  0  0  0  0  0  0
  1 16  1  0
  3  8  2  0
  3  2  1  0
  4  3  1  0
  5  6  1  0
  5  4  2  0
  6  7  2  0
  7  8  1  0
  8  1  1  0
  9 14  2  0
 10  9  1  0
 11 12  1  0
 11 10  2  0
 12 13  2  0
 13  4  1  0
 13 14  1  0
 15 11  1  0
 16 17  1  0
 19 18  2  0
 19 27  1  0
 19 17  1  0
 20 19  1  0
 21 20  1  0
 22 21  2  0
 23 22  1  0
 24 25  1  0
 24 23  2  0
 25 26  2  0
 26 21  1  0
 27 28  1  0
 28 30  1  0
 28 29  1  0
 31 28  1  0
  1 32  1  0
  1 33  1  0
  5 34  1  0
  6 35  1  0
  7 36  1  0
  9 37  1  0
 10 38  1  0
 15 39  1  0
 15 40  1  0
 16 41  1  0
 16 42  1  0
 22 43  1  0
 23 44  1  0
 25 45  1  0
M  ISO  8  32   8  33   8  34  14  35  14  36  14  37  14  38  14  41   8
M  ISO  4  42   8  43  14  44  14  45  14
M  END
>  <minimizedAffinity>  (1) 
-5.85693645

>  <minimizedRMSD>  (1) 
0.556932449

$$$$
