
     RDKit          3D

 43 45  0  0  0  0  0  0  0  0999 V2000
   34.6650   29.3530   48.8480 C   0  0  0  0  0  0  0  0  0  0  0  0
   37.4430   30.4060   48.6430 Cl  0  0  0  0  0  0  0  0  0  0  0  0
   36.3340   30.2640   47.2670 C   0  0  0  0  0  0  0  0  0  0  0  0
   36.7520   30.6490   46.0440 C   0  0  0  0  0  0  0  0  0  0  0  0
   35.9020   30.5440   44.9670 C   0  0  0  0  0  0  0  0  0  0  0  0
   34.6240   30.0370   45.1750 C   0  0  0  0  0  0  0  0  0  0  0  0
   34.2590   29.6570   46.4760 C   0  0  0  0  0  0  0  0  0  0  0  0
   35.0850   29.7560   47.5370 C   0  0  0  0  0  0  0  0  0  0  0  0
   39.7390   32.8030   46.2440 C   0  0  0  0  0  0  0  0  0  0  0  0
   40.6190   32.1280   45.3500 C   0  0  0  0  0  0  0  0  0  0  0  0
   40.1520   30.9590   44.7160 C   0  0  0  0  0  0  0  0  0  0  0  0
   38.8910   30.5210   44.9760 N   0  0  0  0  0  0  0  0  0  0  0  0
   38.0840   31.1910   45.8320 C   0  0  0  0  0  0  0  0  0  0  0  0
   38.5140   32.3070   46.4450 N   0  0  0  0  0  0  0  0  0  0  0  0
   41.0290   30.3000   43.8320 N   0  0  0  0  0  0  0  0  0  0  0  0
   33.9940   28.0610   49.0380 C   0  0  0  0  0  0  0  0  0  0  0  0
   32.6630   28.2200   49.3240 O   0  0  0  0  0  0  0  0  0  0  0  0
   32.5310   26.4320   47.4030 O   0  0  0  0  0  0  0  0  0  0  0  0
   31.7230   27.3980   48.2220 P   0  0  2  0  0  0  0  0  0  0  0  0
   31.0190   28.5850   47.1820 O   0  0  0  0  0  0  0  0  0  0  0  0
   30.0330   28.1290   46.3130 C   0  0  0  0  0  0  0  0  0  0  0  0
   30.0780   27.0540   45.4960 N   0  0  0  0  0  0  0  0  0  0  0  0
   28.9330   26.9460   44.8150 C   0  0  0  0  0  0  0  0  0  0  0  0
   28.1380   27.9710   45.2030 N   0  0  0  0  0  0  0  0  0  0  0  0
   28.8060   28.6770   46.1030 N   0  0  0  0  0  0  0  0  0  0  0  0
   30.4510   26.5900   48.9210 O   0  0  0  0  0  0  0  0  0  0  0  0
   29.7980   27.4000   49.8320 C   0  0  0  0  0  0  0  0  0  0  0  0
   29.3390   26.6930   50.9440 F   0  0  0  0  0  0  0  0  0  0  0  0
   30.6380   28.3780   50.3310 F   0  0  0  0  0  0  0  0  0  0  0  0
   28.7000   27.9970   49.2280 F   0  0  0  0  0  0  0  0  0  0  0  0
   33.9732   30.1269   49.2119 H   0  0  0  0  0  0  0  0  0  0  0  0
   35.6136   29.2280   49.3907 H   0  0  0  0  0  0  0  0  0  0  0  0
   36.2266   30.8545   43.9629 H   0  0  0  0  0  0  0  0  0  0  0  0
   33.9156   29.9361   44.3395 H   0  0  0  0  0  0  0  0  0  0  0  0
   33.2469   29.2579   46.6383 H   0  0  0  0  0  0  0  0  0  0  0  0
   40.0625   33.7184   46.7611 H   0  0  0  0  0  0  0  0  0  0  0  0
   41.6336   32.5081   45.1600 H   0  0  0  0  0  0  0  0  0  0  0  0
   41.9748   30.6744   43.6705 H   0  0  0  0  0  0  0  0  0  0  0  0
   40.7243   29.4438   43.3473 H   0  0  0  0  0  0  0  0  0  0  0  0
   34.0926   27.4688   48.1163 H   0  0  0  0  0  0  0  0  0  0  0  0
   34.4692   27.5486   49.8875 H   0  0  0  0  0  0  0  0  0  0  0  0
   28.6832   26.1694   44.0771 H   0  0  0  0  0  0  0  0  0  0  0  0
   27.1865   28.1663   44.8605 H   0  0  0  0  0  0  0  0  0  0  0  0
  1 16  1  0
  3  8  2  0
  3  2  1  0
  4  3  1  0
  5  6  1  0
  5  4  2  0
  6  7  2  0
  7  8  1  0
  8  1  1  0
  9 14  2  0
 10  9  1  0
 11 12  1  0
 11 10  2  0
 12 13  2  0
 13  4  1  0
 13 14  1  0
 15 11  1  0
 16 17  1  0
 19 18  2  0
 19 26  1  0
 19 17  1  0
 20 19  1  0
 21 20  1  0
 22 21  1  0
 23 24  1  0
 23 22  2  0
 24 25  1  0
 25 21  2  0
 26 27  1  0
 27 29  1  0
 27 28  1  0
 30 27  1  0
  1 31  1  0
  1 32  1  0
  5 33  1  0
  6 34  1  0
  7 35  1  0
  9 36  1  0
 10 37  1  0
 15 38  1  0
 15 39  1  0
 16 40  1  0
 16 41  1  0
 23 42  1  0
 24 43  1  0
M  ISO  8  31   8  32   8  33  14  34  14  35  14  36  14  37  14  40   8
M  ISO  3  41   8  42  14  43   9
M  END
>  <minimizedAffinity>  (1) 
-5.74023581

>  <minimizedRMSD>  (1) 
0.437597156

$$$$
