
     RDKit          3D

 44 46  0  0  0  0  0  0  0  0999 V2000
   34.7210   29.4230   48.8170 C   0  0  0  0  0  0  0  0  0  0  0  0
   37.4950   30.4660   48.5350 Cl  0  0  0  0  0  0  0  0  0  0  0  0
   36.3590   30.2970   47.1850 C   0  0  0  0  0  0  0  0  0  0  0  0
   36.7560   30.6560   45.9470 C   0  0  0  0  0  0  0  0  0  0  0  0
   35.8860   30.5290   44.8890 C   0  0  0  0  0  0  0  0  0  0  0  0
   34.6150   30.0330   45.1350 C   0  0  0  0  0  0  0  0  0  0  0  0
   34.2700   29.6800   46.4450 C   0  0  0  0  0  0  0  0  0  0  0  0
   35.1150   29.7990   47.4890 C   0  0  0  0  0  0  0  0  0  0  0  0
   39.7420   32.8210   46.0380 C   0  0  0  0  0  0  0  0  0  0  0  0
   40.6170   32.0980   45.1560 C   0  0  0  0  0  0  0  0  0  0  0  0
   40.1420   30.9160   44.5810 C   0  0  0  0  0  0  0  0  0  0  0  0
   38.8850   30.4890   44.8690 N   0  0  0  0  0  0  0  0  0  0  0  0
   38.0850   31.1920   45.7040 C   0  0  0  0  0  0  0  0  0  0  0  0
   38.5190   32.3330   46.2680 N   0  0  0  0  0  0  0  0  0  0  0  0
   41.0210   30.2330   43.7190 N   0  0  0  0  0  0  0  0  0  0  0  0
   34.0830   28.1210   49.0490 C   0  0  0  0  0  0  0  0  0  0  0  0
   32.7450   28.2490   49.3140 O   0  0  0  0  0  0  0  0  0  0  0  0
   32.6680   26.4580   47.3960 O   0  0  0  0  0  0  0  0  0  0  0  0
   31.8300   27.3950   48.2110 P   0  0  2  0  0  0  0  0  0  0  0  0
   31.0830   28.5600   47.1800 O   0  0  0  0  0  0  0  0  0  0  0  0
   30.1760   28.1830   46.2170 C   0  0  0  0  0  0  0  0  0  0  0  0
   30.2900   27.2160   45.2360 C   0  0  0  0  0  0  0  0  0  0  0  0
   29.0990   27.2380   44.5340 C   0  0  0  0  0  0  0  0  0  0  0  0
   28.3260   28.2070   45.1180 C   0  0  0  0  0  0  0  0  0  0  0  0
   29.0000   28.7410   46.1090 O   0  0  0  0  0  0  0  0  0  0  0  0
   30.5850   26.5470   48.9150 O   0  0  0  0  0  0  0  0  0  0  0  0
   29.8540   27.3620   49.7620 C   0  0  0  0  0  0  0  0  0  0  0  0
   29.3620   26.6780   50.8750 F   0  0  0  0  0  0  0  0  0  0  0  0
   30.6280   28.3830   50.2700 F   0  0  0  0  0  0  0  0  0  0  0  0
   28.7690   27.8980   49.0770 F   0  0  0  0  0  0  0  0  0  0  0  0
   34.0157   30.1902   49.1690 H   0  0  0  0  0  0  0  0  0  0  0  0
   35.6785   29.3361   49.3515 H   0  0  0  0  0  0  0  0  0  0  0  0
   36.1917   30.8143   43.8716 H   0  0  0  0  0  0  0  0  0  0  0  0
   33.8904   29.9188   44.3153 H   0  0  0  0  0  0  0  0  0  0  0  0
   33.2600   29.2862   46.6318 H   0  0  0  0  0  0  0  0  0  0  0  0
   40.0720   33.7563   46.5137 H   0  0  0  0  0  0  0  0  0  0  0  0
   41.6314   32.4645   44.9398 H   0  0  0  0  0  0  0  0  0  0  0  0
   41.9632   30.6090   43.5407 H   0  0  0  0  0  0  0  0  0  0  0  0
   40.7219   29.3573   43.2666 H   0  0  0  0  0  0  0  0  0  0  0  0
   34.2100   27.4976   48.1517 H   0  0  0  0  0  0  0  0  0  0  0  0
   34.5616   27.6574   49.9242 H   0  0  0  0  0  0  0  0  0  0  0  0
   31.1541   26.5609   45.0510 H   0  0  0  0  0  0  0  0  0  0  0  0
   28.8264   26.6040   43.6774 H   0  0  0  0  0  0  0  0  0  0  0  0
   27.3094   28.4901   44.8076 H   0  0  0  0  0  0  0  0  0  0  0  0
  1 16  1  0
  3  8  2  0
  3  2  1  0
  4  3  1  0
  5  6  1  0
  5  4  2  0
  6  7  2  0
  7  8  1  0
  8  1  1  0
  9 14  2  0
 10  9  1  0
 11 12  1  0
 11 10  2  0
 12 13  2  0
 13  4  1  0
 13 14  1  0
 15 11  1  0
 16 17  1  0
 19 18  2  0
 19 26  1  0
 19 17  1  0
 20 19  1  0
 21 20  1  0
 22 21  2  0
 23 24  2  0
 23 22  1  0
 24 25  1  0
 25 21  1  0
 26 27  1  0
 27 29  1  0
 27 28  1  0
 30 27  1  0
  1 31  1  0
  1 32  1  0
  5 33  1  0
  6 34  1  0
  7 35  1  0
  9 36  1  0
 10 37  1  0
 15 38  1  0
 15 39  1  0
 16 40  1  0
 16 41  1  0
 22 42  1  0
 23 43  1  0
 24 44  1  0
M  ISO  8  31   8  32   8  33  14  34  14  35  14  36  14  37  14  40   8
M  ISO  4  41   8  42  14  43  14  44  14
M  END
>  <minimizedAffinity>  (1) 
-5.73350048

>  <minimizedRMSD>  (1) 
0.439650118

$$$$
