
     RDKit          3D

 50 52  0  0  1  0  0  0  0  0999 V2000
   34.7800   29.4030   48.8140 C   0  0  0  0  0  0  0  0  0  0  0  0
   37.5360   30.4680   48.5190 Cl  0  0  0  0  0  0  0  0  0  0  0  0
   36.4000   30.2970   47.1930 C   0  0  0  0  0  0  0  0  0  0  0  0
   36.7820   30.6740   45.9410 C   0  0  0  0  0  0  0  0  0  0  0  0
   35.9060   30.5490   44.8820 C   0  0  0  0  0  0  0  0  0  0  0  0
   34.6390   30.0350   45.1210 C   0  0  0  0  0  0  0  0  0  0  0  0
   34.3180   29.6680   46.4430 C   0  0  0  0  0  0  0  0  0  0  0  0
   35.1590   29.7840   47.4830 C   0  0  0  0  0  0  0  0  0  0  0  0
   39.7730   32.8350   45.9980 C   0  0  0  0  0  0  0  0  0  0  0  0
   40.6390   32.1130   45.1230 C   0  0  0  0  0  0  0  0  0  0  0  0
   40.1590   30.9130   44.5500 C   0  0  0  0  0  0  0  0  0  0  0  0
   38.9020   30.4980   44.8530 N   0  0  0  0  0  0  0  0  0  0  0  0
   38.1070   31.2130   45.6900 C   0  0  0  0  0  0  0  0  0  0  0  0
   38.5450   32.3560   46.2450 N   0  0  0  0  0  0  0  0  0  0  0  0
   41.0350   30.2240   43.6930 N   0  0  0  0  0  0  0  0  0  0  0  0
   34.1300   28.1200   49.0530 C   0  0  0  0  0  0  0  0  0  0  0  0
   32.7930   28.2750   49.3360 O   0  0  0  0  0  0  0  0  0  0  0  0
   32.6960   26.5130   47.3940 O   0  0  0  0  0  0  0  0  0  0  0  0
   31.8560   27.4080   48.2560 P   0  0  2  0  0  0  0  0  0  0  0  0
   31.0560   28.5750   47.2610 O   0  0  0  0  0  0  0  0  0  0  0  0
   31.3510   27.9390   45.0240 N   0  0  0  0  0  0  0  0  0  0  0  0
   30.4760   27.9740   46.1480 C   0  0  2  0  0  0  0  0  0  0  0  0
   29.1860   28.6110   45.6930 C   0  0  0  0  0  0  0  0  0  0  0  0
   28.6850   27.8450   44.6410 O   0  0  0  0  0  0  0  0  0  0  0  0
   29.4770   27.8140   43.5220 C   0  0  0  0  0  0  0  0  0  0  0  0
   30.8090   27.1940   43.9270 C   0  0  0  0  0  0  0  0  0  0  0  0
   30.6560   26.5400   48.9880 O   0  0  0  0  0  0  0  0  0  0  0  0
   29.8460   27.3470   49.7520 C   0  0  0  0  0  0  0  0  0  0  0  0
   29.3160   26.6580   50.8500 F   0  0  0  0  0  0  0  0  0  0  0  0
   30.5490   28.4200   50.2830 F   0  0  0  0  0  0  0  0  0  0  0  0
   28.7990   27.8480   49.0250 F   0  0  0  0  0  0  0  0  0  0  0  0
   34.0929   30.1793   49.1819 H   0  0  0  0  0  0  0  0  0  0  0  0
   35.7464   29.2938   49.3280 H   0  0  0  0  0  0  0  0  0  0  0  0
   36.2061   30.8510   43.8677 H   0  0  0  0  0  0  0  0  0  0  0  0
   33.9099   29.9181   44.3057 H   0  0  0  0  0  0  0  0  0  0  0  0
   33.3145   29.2605   46.6351 H   0  0  0  0  0  0  0  0  0  0  0  0
   40.1087   33.7731   46.4642 H   0  0  0  0  0  0  0  0  0  0  0  0
   41.6518   32.4800   44.9006 H   0  0  0  0  0  0  0  0  0  0  0  0
   41.9763   30.5993   43.5087 H   0  0  0  0  0  0  0  0  0  0  0  0
   40.7355   29.3440   43.2495 H   0  0  0  0  0  0  0  0  0  0  0  0
   34.2345   27.4940   48.1546 H   0  0  0  0  0  0  0  0  0  0  0  0
   34.6127   27.6459   49.9203 H   0  0  0  0  0  0  0  0  0  0  0  0
   31.5263   28.9049   44.7122 H   0  0  0  0  0  0  0  0  0  0  0  0
   30.2600   26.9561   46.5046 H   0  0  0  0  0  0  0  0  0  0  0  0
   28.4632   28.6278   46.5221 H   0  0  0  0  0  0  0  0  0  0  0  0
   29.3609   29.6470   45.3671 H   0  0  0  0  0  0  0  0  0  0  0  0
   29.6361   28.8350   43.1450 H   0  0  0  0  0  0  0  0  0  0  0  0
   29.0004   27.2263   42.7236 H   0  0  0  0  0  0  0  0  0  0  0  0
   30.6527   26.1486   44.2315 H   0  0  0  0  0  0  0  0  0  0  0  0
   31.5068   27.2197   43.0770 H   0  0  0  0  0  0  0  0  0  0  0  0
  1 16  1  0
  3  8  2  0
  3  2  1  0
  4  3  1  0
  5  6  1  0
  5  4  2  0
  6  7  2  0
  7  8  1  0
  8  1  1  0
  9 14  2  0
 10  9  1  0
 11 12  1  0
 11 10  2  0
 12 13  2  0
 13  4  1  0
 13 14  1  0
 15 11  1  0
 16 17  1  0
 19 18  2  0
 19 27  1  0
 19 17  1  0
 20 19  1  0
 21 22  1  0
 22 20  1  0
 23 22  1  0
 24 23  1  0
 25 26  1  0
 25 24  1  0
 26 21  1  0
 27 28  1  0
 28 30  1  0
 28 29  1  0
 31 28  1  0
  1 32  1  0
  1 33  1  0
  5 34  1  0
  6 35  1  0
  7 36  1  0
  9 37  1  0
 10 38  1  0
 15 39  1  0
 15 40  1  0
 16 41  1  0
 16 42  1  0
 21 43  1  0
 22 44  1  1
 23 45  1  0
 23 46  1  0
 25 47  1  0
 25 48  1  0
 26 49  1  0
 26 50  1  0
M  ISO  8  32   8  33   8  34  14  35  14  36  14  37  14  38  14  41   8
M  ISO  8  42   8  43   5  44  13  45  13  46  13  47  13  48  13  49  13
M  ISO  1  50  13
M  END
>  <minimizedAffinity>  (1) 
-5.68859053

>  <minimizedRMSD>  (1) 
0.422715068

$$$$
