
     RDKit          3D

 39 40  0  0  0  0  0  0  0  0999 V2000
   37.6250   30.4810   48.5280 Cl  0  0  0  0  0  0  0  0  0  0  0  0
   36.4680   30.3200   47.2060 C   0  0  0  0  0  0  0  0  0  0  0  0
   36.8360   30.6920   45.9620 C   0  0  0  0  0  0  0  0  0  0  0  0
   35.9420   30.5720   44.9190 C   0  0  0  0  0  0  0  0  0  0  0  0
   34.6720   30.0670   45.1750 C   0  0  0  0  0  0  0  0  0  0  0  0
   34.3630   29.7010   46.4990 C   0  0  0  0  0  0  0  0  0  0  0  0
   35.2270   29.8130   47.5250 C   0  0  0  0  0  0  0  0  0  0  0  0
   39.8270   32.8460   45.9860 C   0  0  0  0  0  0  0  0  0  0  0  0
   40.6900   32.1100   45.0990 C   0  0  0  0  0  0  0  0  0  0  0  0
   40.2030   30.9200   44.5430 C   0  0  0  0  0  0  0  0  0  0  0  0
   38.9490   30.5090   44.8580 N   0  0  0  0  0  0  0  0  0  0  0  0
   38.1620   31.2230   45.6950 C   0  0  0  0  0  0  0  0  0  0  0  0
   38.6030   32.3690   46.2420 N   0  0  0  0  0  0  0  0  0  0  0  0
   41.0750   30.2350   43.6860 N   0  0  0  0  0  0  0  0  0  0  0  0
   34.8590   29.4260   48.8540 C   0  0  0  0  0  0  0  0  0  0  0  0
   34.2240   28.1260   49.0920 C   0  0  0  0  0  0  0  0  0  0  0  0
   32.8860   28.2660   49.3500 O   0  0  0  0  0  0  0  0  0  0  0  0
   32.8500   26.5460   47.3730 O   0  0  0  0  0  0  0  0  0  0  0  0
   31.9810   27.4220   48.2390 P   0  0  2  0  0  0  0  0  0  0  0  0
   31.1930   28.6090   47.2520 O   0  0  0  0  0  0  0  0  0  0  0  0
   30.6850   28.2140   46.0120 C   0  0  0  0  0  0  0  0  0  0  0  0
   29.5980   27.6940   45.6790 O   0  0  0  0  0  0  0  0  0  0  0  0
   30.7780   26.5140   48.9190 O   0  0  0  0  0  0  0  0  0  0  0  0
   29.9250   27.3080   49.6600 C   0  0  0  0  0  0  0  0  0  0  0  0
   29.3490   26.6140   50.7220 F   0  0  0  0  0  0  0  0  0  0  0  0
   30.5950   28.3720   50.2350 F   0  0  0  0  0  0  0  0  0  0  0  0
   28.9040   27.7830   48.8480 F   0  0  0  0  0  0  0  0  0  0  0  0
   36.2291   30.8712   43.9001 H   0  0  0  0  0  0  0  0  0  0  0  0
   33.9321   29.9569   44.3686 H   0  0  0  0  0  0  0  0  0  0  0  0
   33.3595   29.3012   46.7065 H   0  0  0  0  0  0  0  0  0  0  0  0
   40.1682   33.7852   46.4458 H   0  0  0  0  0  0  0  0  0  0  0  0
   41.7021   32.4716   44.8648 H   0  0  0  0  0  0  0  0  0  0  0  0
   42.0140   30.6136   43.4967 H   0  0  0  0  0  0  0  0  0  0  0  0
   40.7769   29.3530   43.2455 H   0  0  0  0  0  0  0  0  0  0  0  0
   35.7795   29.4442   49.4559 H   0  0  0  0  0  0  0  0  0  0  0  0
   34.0680   30.1442   49.1155 H   0  0  0  0  0  0  0  0  0  0  0  0
   34.3530   27.4954   48.1999 H   0  0  0  0  0  0  0  0  0  0  0  0
   34.7001   27.6620   49.9684 H   0  0  0  0  0  0  0  0  0  0  0  0
   31.3702   28.3944   45.1706 H   0  0  0  0  0  0  0  0  0  0  0  0
  2  7  2  0
  2  1  1  0
  3  2  1  0
  4  5  1  0
  4  3  2  0
  5  6  2  0
  6  7  1  0
  7 15  1  0
  8 13  2  0
  9  8  1  0
 10 11  1  0
 10  9  2  0
 11 12  2  0
 12  3  1  0
 12 13  1  0
 14 10  1  0
 15 16  1  0
 16 17  1  0
 19 18  2  0
 19 23  1  0
 19 17  1  0
 20 19  1  0
 21 20  1  0
 22 21  2  0
 23 24  1  0
 24 26  1  0
 24 25  1  0
 27 24  1  0
  4 28  1  0
  5 29  1  0
  6 30  1  0
  8 31  1  0
  9 32  1  0
 14 33  1  0
 14 34  1  0
 15 35  1  0
 15 36  1  0
 16 37  1  0
 16 38  1  0
 21 39  1  0
M  ISO  8  28  14  29  14  30  14  31  14  32  14  35   8  36   8  37   8
M  ISO  2  38   8  39   6
M  END
>  <minimizedAffinity>  (1) 
-5.49459362

>  <minimizedRMSD>  (1) 
0.175761104

$$$$
