
     RDKit          3D

 23 24  0  0  1  0  0  0  0  0999 V2000
   37.7610   30.5450   50.7650 C   0  0  2  0  0  0  0  0  0  0  0  0
   37.4870   29.1030   50.7530 C   0  0  0  0  0  0  0  0  0  0  0  0
   36.3630   30.1140   50.8860 C   0  0  2  0  0  0  0  0  0  0  0  0
   38.9400   33.2050   48.4540 C   0  0  0  0  0  0  0  0  0  0  0  0
   38.9610   32.5240   47.2340 C   0  0  0  0  0  0  0  0  0  0  0  0
   38.5750   31.1750   47.1930 C   0  0  0  0  0  0  0  0  0  0  0  0
   38.1980   30.5810   48.3400 N   0  0  0  0  0  0  0  0  0  0  0  0
   38.1830   31.2640   49.5230 C   0  0  0  0  0  0  0  0  0  0  0  0
   38.5560   32.5690   49.5670 N   0  0  0  0  0  0  0  0  0  0  0  0
   35.3680   30.0280   49.7900 C   0  0  0  0  0  0  0  0  0  0  0  0
   34.0160   29.5640   50.2900 C   0  0  0  0  0  0  0  0  0  0  0  0
   38.4380   31.1734   51.3623 H   0  0  0  0  0  0  0  0  0  0  0  0
   37.6044   28.5254   49.8242 H   0  0  0  0  0  0  0  0  0  0  0  0
   37.8329   28.2340   51.3320 H   0  0  0  0  0  0  0  0  0  0  0  0
   35.5791   30.4443   51.5834 H   0  0  0  0  0  0  0  0  0  0  0  0
   39.2388   34.2627   48.4994 H   0  0  0  0  0  0  0  0  0  0  0  0
   39.2768   33.0397   46.3151 H   0  0  0  0  0  0  0  0  0  0  0  0
   38.5806   30.6165   46.2453 H   0  0  0  0  0  0  0  0  0  0  0  0
   35.7315   29.3156   49.0347 H   0  0  0  0  0  0  0  0  0  0  0  0
   35.2460   31.0333   49.3606 H   0  0  0  0  0  0  0  0  0  0  0  0
   34.0125   29.5628   51.3900 H   0  0  0  0  0  0  0  0  0  0  0  0
   33.2351   30.2456   49.9216 H   0  0  0  0  0  0  0  0  0  0  0  0
   33.8182   28.5466   49.9216 H   0  0  0  0  0  0  0  0  0  0  0  0
  1  3  1  0
  2  1  1  0
  2  3  1  0
  4  9  2  0
  5  4  1  0
  6  5  2  0
  6  7  1  0
  7  8  2  0
  8  9  1  0
  8  1  1  0
 10 11  1  0
 10  3  1  0
  1 12  1  1
  2 13  1  0
  2 14  1  0
  3 15  1  1
  4 16  1  0
  5 17  1  0
  6 18  1  0
 10 19  1  0
 10 20  1  0
 11 21  1  0
 11 22  1  0
 11 23  1  0
M  ISO  8  12  13  13  13  14  13  15  13  16  14  17  14  18  14  19   8
M  ISO  4  20   8  21   8  22   8  23   8
M  END
>  <minimizedAffinity>  (1) 
-4.54233551

>  <minimizedRMSD>  (1) 
1.47898996

$$$$
