
     RDKit          3D

 23 24  0  0  0  0  0  0  0  0999 V2000
   37.5160   33.1080   49.6010 Cl  0  0  0  0  0  0  0  0  0  0  0  0
   38.1060   32.2110   48.2280 C   0  0  0  0  0  0  0  0  0  0  0  0
   37.5520   30.9840   47.8820 C   0  0  0  0  0  0  0  0  0  0  0  0
   38.0690   30.3380   46.7890 C   0  0  0  0  0  0  0  0  0  0  0  0
   39.0990   30.8530   46.0340 C   0  0  0  0  0  0  0  0  0  0  0  0
   39.6340   32.0950   46.4140 C   0  0  0  0  0  0  0  0  0  0  0  0
   40.9410   32.7140   45.4300 Cl  0  0  0  0  0  0  0  0  0  0  0  0
   39.1430   32.7790   47.5080 C   0  0  0  0  0  0  0  0  0  0  0  0
   35.6270   29.3940   50.7170 C   0  0  0  0  0  0  0  0  0  0  0  0
   36.6840   29.8590   49.9300 C   0  0  0  0  0  0  0  0  0  0  0  0
   36.4610   30.4900   48.7210 C   0  0  0  0  0  0  0  0  0  0  0  0
   35.1680   30.6240   48.3640 N   0  0  0  0  0  0  0  0  0  0  0  0
   34.1450   30.1840   49.1080 C   0  0  0  0  0  0  0  0  0  0  0  0
   34.3840   29.5730   50.2790 N   0  0  0  0  0  0  0  0  0  0  0  0
   38.0620   29.6570   50.4230 C   0  0  0  0  0  0  0  0  0  0  0  0
   37.6423   29.3655   46.5025 H   0  0  0  0  0  0  0  0  0  0  0  0
   39.4902   30.3093   45.1614 H   0  0  0  0  0  0  0  0  0  0  0  0
   39.5655   33.7516   47.8005 H   0  0  0  0  0  0  0  0  0  0  0  0
   35.8186   28.8915   51.6766 H   0  0  0  0  0  0  0  0  0  0  0  0
   33.1108   30.3231   48.7601 H   0  0  0  0  0  0  0  0  0  0  0  0
   38.0616   29.6571   51.5230 H   0  0  0  0  0  0  0  0  0  0  0  0
   38.4449   28.6931   50.0565 H   0  0  0  0  0  0  0  0  0  0  0  0
   38.7055   30.4704   50.0565 H   0  0  0  0  0  0  0  0  0  0  0  0
  2  1  1  0
  3  2  2  0
  3 11  1  0
  4  3  1  0
  5  6  1  0
  5  4  2  0
  6  8  2  0
  7  6  1  0
  8  2  1  0
 10 15  1  0
 10  9  2  0
 11 10  1  0
 12 11  2  0
 12 13  1  0
 13 14  2  0
 14  9  1  0
  4 16  1  0
  5 17  1  0
  8 18  1  0
  9 19  1  0
 13 20  1  0
 15 21  1  0
 15 22  1  0
 15 23  1  0
M  ISO  8  16  14  17  14  18  14  19  14  20  14  21   8  22   8  23   8
M  END
>  <minimizedAffinity>  (1) 
-5.33797741

>  <minimizedRMSD>  (1) 
0.862298131

$$$$
