
     RDKit          3D

 22 23  0  0  0  0  0  0  0  0999 V2000
   36.2000   32.4360   50.4240 Cl  0  0  0  0  0  0  0  0  0  0  0  0
   37.3230   32.2150   49.1190 C   0  0  0  0  0  0  0  0  0  0  0  0
   37.2110   31.1280   48.2810 C   0  0  0  0  0  0  0  0  0  0  0  0
   38.1400   31.0120   47.2610 C   0  0  0  0  0  0  0  0  0  0  0  0
   39.1470   31.9270   47.0650 C   0  0  0  0  0  0  0  0  0  0  0  0
   39.2160   33.0190   47.9480 C   0  0  0  0  0  0  0  0  0  0  0  0
   40.5110   34.1720   47.6740 Cl  0  0  0  0  0  0  0  0  0  0  0  0
   38.3050   33.1740   48.9850 C   0  0  0  0  0  0  0  0  0  0  0  0
   35.1550   28.3260   49.7740 C   0  0  0  0  0  0  0  0  0  0  0  0
   36.1830   29.2310   49.5250 C   0  0  0  0  0  0  0  0  0  0  0  0
   36.1320   30.1890   48.5300 C   0  0  0  0  0  0  0  0  0  0  0  0
   34.9940   30.1800   47.8050 N   0  0  0  0  0  0  0  0  0  0  0  0
   33.9910   29.3170   48.0270 C   0  0  0  0  0  0  0  0  0  0  0  0
   34.0730   28.3960   49.0050 N   0  0  0  0  0  0  0  0  0  0  0  0
   37.3640   29.1370   50.3800 C   0  0  0  0  0  0  0  0  0  0  0  0
   37.4620   29.4340   51.5910 O   0  0  0  0  0  0  0  0  0  0  0  0
   38.0693   30.1518   46.5790 H   0  0  0  0  0  0  0  0  0  0  0  0
   39.8727   31.8091   46.2468 H   0  0  0  0  0  0  0  0  0  0  0  0
   38.3646   34.0297   49.6736 H   0  0  0  0  0  0  0  0  0  0  0  0
   35.2352   27.5798   50.5782 H   0  0  0  0  0  0  0  0  0  0  0  0
   33.0881   29.3629   47.4003 H   0  0  0  0  0  0  0  0  0  0  0  0
   38.2787   28.7588   49.9001 H   0  0  0  0  0  0  0  0  0  0  0  0
  2  1  1  0
  3 11  1  0
  3  2  2  0
  4  3  1  0
  5  4  2  0
  5  6  1  0
  6  8  2  0
  7  6  1  0
  8  2  1  0
 10  9  2  0
 10 15  1  0
 11 10  1  0
 12 13  1  0
 12 11  2  0
 13 14  2  0
 14  9  1  0
 15 16  2  0
  4 17  1  0
  5 18  1  0
  8 19  1  0
  9 20  1  0
 13 21  1  0
 15 22  1  0
M  ISO  6  17  14  18  14  19  14  20  14  21  14  22   6
M  END
>  <minimizedAffinity>  (1) 
-5.13574791

>  <minimizedRMSD>  (1) 
2.08282709

$$$$
