
     RDKit          3D

 34 36  0  0  0  0  0  0  0  0999 V2000
   36.4030   29.2780   50.6200 C   0  0  0  0  0  0  0  0  0  0  0  0
   37.3110   29.9190   49.7800 C   0  0  0  0  0  0  0  0  0  0  0  0
   37.0550   30.2330   48.4530 C   0  0  0  0  0  0  0  0  0  0  0  0
   35.8300   29.8680   48.0080 N   0  0  0  0  0  0  0  0  0  0  0  0
   34.9440   29.2460   48.8140 C   0  0  0  0  0  0  0  0  0  0  0  0
   35.2080   28.9560   50.0750 N   0  0  0  0  0  0  0  0  0  0  0  0
   33.6620   28.8730   48.3160 N   0  0  0  0  0  0  0  0  0  0  0  0
   32.6870   27.9780   48.8600 C   0  0  0  0  0  0  0  0  0  0  0  0
   31.9810   27.2880   47.7170 C   0  0  0  0  0  0  0  0  0  0  0  0
   32.2070   28.2200   46.5670 C   0  0  0  0  0  0  0  0  0  0  0  0
   33.0450   29.3550   47.0790 C   0  0  0  0  0  0  0  0  0  0  0  0
   37.5760   33.0270   49.2570 Cl  0  0  0  0  0  0  0  0  0  0  0  0
   38.3210   32.2200   47.9000 C   0  0  0  0  0  0  0  0  0  0  0  0
   38.0100   30.8990   47.6000 C   0  0  0  0  0  0  0  0  0  0  0  0
   38.6500   30.3490   46.5100 C   0  0  0  0  0  0  0  0  0  0  0  0
   39.5580   31.0450   45.7320 C   0  0  0  0  0  0  0  0  0  0  0  0
   39.8330   32.3740   46.0800 C   0  0  0  0  0  0  0  0  0  0  0  0
   40.9830   33.1940   45.0640 Cl  0  0  0  0  0  0  0  0  0  0  0  0
   39.2300   32.9660   47.1470 C   0  0  0  0  0  0  0  0  0  0  0  0
   38.5730   30.2610   50.3470 N   0  0  0  0  0  0  0  0  0  0  0  0
   36.6446   29.0468   51.6679 H   0  0  0  0  0  0  0  0  0  0  0  0
   33.1834   27.2299   49.4955 H   0  0  0  0  0  0  0  0  0  0  0  0
   31.9614   28.5360   49.4700 H   0  0  0  0  0  0  0  0  0  0  0  0
   32.4231   26.3006   47.5180 H   0  0  0  0  0  0  0  0  0  0  0  0
   30.9162   27.0984   47.9175 H   0  0  0  0  0  0  0  0  0  0  0  0
   31.2444   28.5997   46.1939 H   0  0  0  0  0  0  0  0  0  0  0  0
   32.7112   27.7036   45.7369 H   0  0  0  0  0  0  0  0  0  0  0  0
   33.8189   29.6210   46.3439 H   0  0  0  0  0  0  0  0  0  0  0  0
   32.4395   30.2564   47.2546 H   0  0  0  0  0  0  0  0  0  0  0  0
   38.4277   29.3047   46.2456 H   0  0  0  0  0  0  0  0  0  0  0  0
   40.0478   30.5707   44.8688 H   0  0  0  0  0  0  0  0  0  0  0  0
   39.4540   34.0102   47.4106 H   0  0  0  0  0  0  0  0  0  0  0  0
   39.2837   30.7364   49.7728 H   0  0  0  0  0  0  0  0  0  0  0  0
   38.7743   30.0328   51.3310 H   0  0  0  0  0  0  0  0  0  0  0  0
  2 20  1  0
  2  1  2  0
  3  2  1  0
  4  3  2  0
  4  5  1  0
  5  6  2  0
  6  1  1  0
  7  5  1  0
  7  8  1  0
  9  8  1  0
 10 11  1  0
 10  9  1  0
 11  7  1  0
 13 12  1  0
 14 13  2  0
 14  3  1  0
 15 14  1  0
 16 17  1  0
 16 15  2  0
 17 19  2  0
 18 17  1  0
 19 13  1  0
  1 21  1  0
  8 22  1  0
  8 23  1  0
  9 24  1  0
  9 25  1  0
 10 26  1  0
 10 27  1  0
 11 28  1  0
 11 29  1  0
 15 30  1  0
 16 31  1  0
 19 32  1  0
 20 33  1  0
 20 34  1  0
M  ISO  8  21  14  22  13  23  13  24  13  25  13  26  13  27  13  28  13
M  ISO  4  29  13  30  14  31  14  32  14
M  END
>  <minimizedAffinity>  (1) 
-6.43697309

>  <minimizedRMSD>  (1) 
1.18643177

$$$$
