
     RDKit          3D

 29 31  0  0  0  0  0  0  0  0999 V2000
   36.5480   29.5760   51.0700 C   0  0  0  0  0  0  0  0  0  0  0  0
   37.4030   30.1850   50.1450 C   0  0  0  0  0  0  0  0  0  0  0  0
   37.1000   30.3630   48.8130 C   0  0  0  0  0  0  0  0  0  0  0  0
   35.8910   29.8950   48.4530 N   0  0  0  0  0  0  0  0  0  0  0  0
   35.0540   29.3040   49.3280 C   0  0  0  0  0  0  0  0  0  0  0  0
   35.3660   29.1470   50.5970 N   0  0  0  0  0  0  0  0  0  0  0  0
   37.5910   33.2140   49.4000 Cl  0  0  0  0  0  0  0  0  0  0  0  0
   38.2890   32.3300   48.0610 C   0  0  0  0  0  0  0  0  0  0  0  0
   38.0020   31.0010   47.8660 C   0  0  0  0  0  0  0  0  0  0  0  0
   38.5870   30.3790   46.7950 C   0  0  0  0  0  0  0  0  0  0  0  0
   39.4420   31.0300   45.9200 C   0  0  0  0  0  0  0  0  0  0  0  0
   39.6990   32.3920   46.1710 C   0  0  0  0  0  0  0  0  0  0  0  0
   40.7780   33.1640   45.0410 Cl  0  0  0  0  0  0  0  0  0  0  0  0
   39.1330   33.0540   47.2320 C   0  0  0  0  0  0  0  0  0  0  0  0
   38.6650   30.6470   50.6400 N   0  0  0  0  0  0  0  0  0  0  0  0
   33.7410   28.8290   48.7950 C   0  0  0  0  0  0  0  0  0  0  0  0
   33.8240   27.4000   48.2430 C   0  0  0  0  0  0  0  0  0  0  0  0
   33.5130   28.5980   47.3670 C   0  0  0  0  0  0  0  0  0  0  0  0
   36.8283   29.4551   52.1268 H   0  0  0  0  0  0  0  0  0  0  0  0
   38.3683   29.3150   46.6217 H   0  0  0  0  0  0  0  0  0  0  0  0
   39.8995   30.5065   45.0676 H   0  0  0  0  0  0  0  0  0  0  0  0
   39.3409   34.1181   47.4177 H   0  0  0  0  0  0  0  0  0  0  0  0
   39.3328   31.1028   50.0020 H   0  0  0  0  0  0  0  0  0  0  0  0
   38.9048   30.5234   51.6340 H   0  0  0  0  0  0  0  0  0  0  0  0
   33.1589   29.4069   49.5279 H   0  0  0  0  0  0  0  0  0  0  0  0
   34.7948   26.8889   48.1637 H   0  0  0  0  0  0  0  0  0  0  0  0
   33.3454   26.4349   48.4656 H   0  0  0  0  0  0  0  0  0  0  0  0
   34.2564   28.9442   46.6338 H   0  0  0  0  0  0  0  0  0  0  0  0
   32.6987   28.8475   46.6708 H   0  0  0  0  0  0  0  0  0  0  0  0
  2 15  1  0
  2  1  2  0
  3  2  1  0
  4  3  2  0
  4  5  1  0
  5  6  2  0
  6  1  1  0
  8  7  1  0
  9  8  2  0
  9  3  1  0
 10  9  1  0
 11 12  1  0
 11 10  2  0
 12 14  2  0
 13 12  1  0
 14  8  1  0
 16  5  1  0
 17 16  1  0
 18 17  1  0
 18 16  1  0
  1 19  1  0
 10 20  1  0
 11 21  1  0
 14 22  1  0
 15 23  1  0
 15 24  1  0
 16 25  1  0
 17 26  1  0
 17 27  1  0
 18 28  1  0
 18 29  1  0
M  ISO  8  19  14  20  14  21  14  22  14  25  13  26  13  27  13  28  13
M  ISO  1  29  13
M  END
>  <minimizedAffinity>  (1) 
-6.26956606

>  <minimizedRMSD>  (1) 
0.954088688

$$$$
