
     RDKit          3D

 24 25  0  0  0  0  0  0  0  0999 V2000
   36.4330   29.4630   50.8900 C   0  0  0  0  0  0  0  0  0  0  0  0
   37.3220   30.0740   50.0070 C   0  0  0  0  0  0  0  0  0  0  0  0
   37.0380   30.3310   48.6820 C   0  0  0  0  0  0  0  0  0  0  0  0
   35.7980   29.9400   48.2720 N   0  0  0  0  0  0  0  0  0  0  0  0
   34.9420   29.3500   49.1280 C   0  0  0  0  0  0  0  0  0  0  0  0
   35.2320   29.1130   50.3920 N   0  0  0  0  0  0  0  0  0  0  0  0
   37.5820   33.1490   49.3600 Cl  0  0  0  0  0  0  0  0  0  0  0  0
   38.2830   32.2890   48.0150 C   0  0  0  0  0  0  0  0  0  0  0  0
   37.9720   30.9680   47.7720 C   0  0  0  0  0  0  0  0  0  0  0  0
   38.5690   30.3690   46.6890 C   0  0  0  0  0  0  0  0  0  0  0  0
   39.4510   31.0370   45.8600 C   0  0  0  0  0  0  0  0  0  0  0  0
   39.7360   32.3840   46.1510 C   0  0  0  0  0  0  0  0  0  0  0  0
   40.8590   33.1690   45.0640 Cl  0  0  0  0  0  0  0  0  0  0  0  0
   39.1580   33.0160   47.2240 C   0  0  0  0  0  0  0  0  0  0  0  0
   38.6000   30.4500   50.5250 N   0  0  0  0  0  0  0  0  0  0  0  0
   33.6490   28.9830   48.5560 C   0  0  0  0  0  0  0  0  0  0  0  0
   32.9350   28.1100   49.1220 O   0  0  0  0  0  0  0  0  0  0  0  0
   36.6993   29.2762   51.9408 H   0  0  0  0  0  0  0  0  0  0  0  0
   38.3358   29.3159   46.4730 H   0  0  0  0  0  0  0  0  0  0  0  0
   39.9152   30.5316   45.0003 H   0  0  0  0  0  0  0  0  0  0  0  0
   39.3830   34.0689   47.4492 H   0  0  0  0  0  0  0  0  0  0  0  0
   39.2910   30.9045   49.9112 H   0  0  0  0  0  0  0  0  0  0  0  0
   38.8299   30.2664   51.5121 H   0  0  0  0  0  0  0  0  0  0  0  0
   33.2981   29.4672   47.6327 H   0  0  0  0  0  0  0  0  0  0  0  0
  2 15  1  0
  2  1  2  0
  3  2  1  0
  4  3  2  0
  4  5  1  0
  5  6  2  0
  6  1  1  0
  8  7  1  0
  9  8  2  0
  9  3  1  0
 10  9  1  0
 11 12  1  0
 11 10  2  0
 12 14  2  0
 13 12  1  0
 14  8  1  0
 16 17  2  0
 16  5  1  0
  1 18  1  0
 10 19  1  0
 11 20  1  0
 14 21  1  0
 15 22  1  0
 15 23  1  0
 16 24  1  0
M  ISO  5  18  14  19  14  20  14  21  14  24   6
M  END
>  <minimizedAffinity>  (1) 
-5.71433973

>  <minimizedRMSD>  (1) 
0.76713419

$$$$
