
     RDKit          3D

 18 19  0  0  1  0  0  0  0  0999 V2000
   37.6560   32.7260   49.4650 C   0  0  0  0  0  0  0  0  0  0  0  0
   38.4100   32.5420   48.2990 C   0  0  0  0  0  0  0  0  0  0  0  0
   38.3830   31.2640   47.6700 C   0  0  0  0  0  0  0  0  0  0  0  0
   37.6180   30.2830   48.2430 N   0  0  0  0  0  0  0  0  0  0  0  0
   36.9080   30.5070   49.3670 C   0  0  0  0  0  0  0  0  0  0  0  0
   36.9150   31.7100   49.9850 N   0  0  0  0  0  0  0  0  0  0  0  0
   36.1290   29.3670   49.9300 C   0  0  2  0  0  0  0  0  0  0  0  0
   35.1760   28.5950   49.1230 C   0  0  0  0  0  0  0  0  0  0  0  0
   34.6900   29.5590   50.1840 C   0  0  2  0  0  0  0  0  0  0  0  0
   34.0650   30.6900   49.6490 O   0  0  0  0  0  0  0  0  0  0  0  0
   37.6629   33.7048   49.9670 H   0  0  0  0  0  0  0  0  0  0  0  0
   39.0083   33.3641   47.8793 H   0  0  0  0  0  0  0  0  0  0  0  0
   38.9586   31.0711   46.7527 H   0  0  0  0  0  0  0  0  0  0  0  0
   37.0040   29.0743   50.5288 H   0  0  0  0  0  0  0  0  0  0  0  0
   35.0368   28.8305   48.0576 H   0  0  0  0  0  0  0  0  0  0  0  0
   35.0199   27.5283   48.9045 H   0  0  0  0  0  0  0  0  0  0  0  0
   34.0734   29.5289   51.0944 H   0  0  0  0  0  0  0  0  0  0  0  0
   33.7448   31.2694   50.3852 H   0  0  0  0  0  0  0  0  0  0  0  0
  1  6  2  0
  2  1  1  0
  3  4  1  0
  3  2  2  0
  4  5  2  0
  5  7  1  0
  5  6  1  0
  7  9  1  0
  8  7  1  0
  8  9  1  0
 10  9  1  0
  1 11  1  0
  2 12  1  0
  3 13  1  0
  7 14  1  1
  8 15  1  0
  8 16  1  0
  9 17  1  1
 10 18  1  0
M  ISO  8  11  14  12  14  13  14  14  13  15  13  16  13  17  13  18   3
M  END
>  <minimizedAffinity>  (1) 
-4.29645586

>  <minimizedRMSD>  (1) 
1.29946172

$$$$
