
     RDKit          3D

 42 45  0  0  0  0  0  0  0  0999 V2000
   35.1090   28.3580   49.1710 C   0  0  0  0  0  0  0  0  0  0  0  0
   36.1220   29.3060   49.1070 C   0  0  0  0  0  0  0  0  0  0  0  0
   36.1020   30.3620   48.2310 C   0  0  0  0  0  0  0  0  0  0  0  0
   35.0160   30.4350   47.4290 N   0  0  0  0  0  0  0  0  0  0  0  0
   34.0430   29.5290   47.4960 C   0  0  0  0  0  0  0  0  0  0  0  0
   34.1000   28.5370   48.3280 N   0  0  0  0  0  0  0  0  0  0  0  0
   36.1730   32.3330   50.3680 Cl  0  0  0  0  0  0  0  0  0  0  0  0
   37.3170   32.2700   49.0820 C   0  0  0  0  0  0  0  0  0  0  0  0
   37.2090   31.3100   48.1190 C   0  0  0  0  0  0  0  0  0  0  0  0
   38.1630   31.3060   47.1120 C   0  0  0  0  0  0  0  0  0  0  0  0
   39.1960   32.1970   47.0250 C   0  0  0  0  0  0  0  0  0  0  0  0
   39.2590   33.1760   48.0530 C   0  0  0  0  0  0  0  0  0  0  0  0
   40.5670   34.3230   47.9580 Cl  0  0  0  0  0  0  0  0  0  0  0  0
   38.3250   33.2180   49.0810 C   0  0  0  0  0  0  0  0  0  0  0  0
   32.0860   28.7130   46.1660 C   0  0  0  0  0  0  0  0  0  0  0  0
   32.9080   29.7340   46.5950 C   0  0  0  0  0  0  0  0  0  0  0  0
   32.6660   30.9810   46.0840 C   0  0  0  0  0  0  0  0  0  0  0  0
   31.6620   31.2700   45.1740 C   0  0  0  0  0  0  0  0  0  0  0  0
   30.8600   30.2570   44.7530 C   0  0  0  0  0  0  0  0  0  0  0  0
   31.0880   29.0030   45.2560 C   0  0  0  0  0  0  0  0  0  0  0  0
   32.3060   27.1200   46.7910 S   0  0  0  0  0  0  0  0  0  0  0  0
   31.4480   26.2600   45.9900 O   0  0  0  0  0  0  0  0  0  0  0  0
   33.6090   26.5300   46.3330 O   0  0  0  0  0  0  0  0  0  0  0  0
   31.5250   26.5180   48.2310 C   0  0  0  0  0  0  0  0  0  0  0  0
   30.0960   26.7510   48.4360 C   0  0  0  0  0  0  0  0  0  0  0  0
   30.8990   27.6320   49.1930 C   0  0  0  0  0  0  0  0  0  0  0  0
   37.2070   29.1550   50.0310 N   0  0  0  0  0  0  0  0  0  0  0  0
   35.1411   27.5134   49.8750 H   0  0  0  0  0  0  0  0  0  0  0  0
   38.0829   30.5347   46.3318 H   0  0  0  0  0  0  0  0  0  0  0  0
   39.9331   32.1585   46.2094 H   0  0  0  0  0  0  0  0  0  0  0  0
   38.3851   33.9819   49.8702 H   0  0  0  0  0  0  0  0  0  0  0  0
   33.3108   31.8074   46.4177 H   0  0  0  0  0  0  0  0  0  0  0  0
   31.5176   32.2948   44.8013 H   0  0  0  0  0  0  0  0  0  0  0  0
   30.0514   30.4384   44.0296 H   0  0  0  0  0  0  0  0  0  0  0  0
   30.4402   28.1815   44.9162 H   0  0  0  0  0  0  0  0  0  0  0  0
   32.1935   25.6465   48.2916 H   0  0  0  0  0  0  0  0  0  0  0  0
   29.5033   27.1599   47.6044 H   0  0  0  0  0  0  0  0  0  0  0  0
   29.2800   26.0734   48.7278 H   0  0  0  0  0  0  0  0  0  0  0  0
   30.9653   27.5243   50.2857 H   0  0  0  0  0  0  0  0  0  0  0  0
   30.9890   28.7227   49.3039 H   0  0  0  0  0  0  0  0  0  0  0  0
   37.9848   29.8302   50.0267 H   0  0  0  0  0  0  0  0  0  0  0  0
   37.2090   28.3713   50.6994 H   0  0  0  0  0  0  0  0  0  0  0  0
  2  1  2  0
  2 27  1  0
  3  2  1  0
  4  5  1  0
  4  3  2  0
  5  6  2  0
  6  1  1  0
  8  7  1  0
  9  3  1  0
  9  8  2  0
 10  9  1  0
 11 10  2  0
 11 12  1  0
 12 14  2  0
 13 12  1  0
 14  8  1  0
 15 16  1  0
 15 21  1  0
 16  5  1  0
 17 16  2  0
 18 17  1  0
 19 18  2  0
 19 20  1  0
 20 15  2  0
 21 24  1  0
 22 21  2  0
 23 21  2  0
 24 25  1  0
 24 26  1  0
 25 26  1  0
  1 28  1  0
 10 29  1  0
 11 30  1  0
 14 31  1  0
 17 32  1  0
 18 33  1  0
 19 34  1  0
 20 35  1  0
 24 36  1  0
 25 37  1  0
 25 38  1  0
 26 39  1  0
 26 40  1  0
 27 41  1  0
 27 42  1  0
M  ISO  8  28  14  29  14  30  14  31  14  32  14  33  14  34  14  35  14
M  ISO  5  36  13  37  13  38  13  39  13  40  13
M  END
>  <minimizedAffinity>  (1) 
-5.86750174

>  <minimizedRMSD>  (1) 
1.35548866

$$$$
