
     RDKit          3D

 34 37  0  0  0  0  0  0  0  0999 V2000
   32.6990   27.8150   48.7500 C   0  0  0  0  0  0  0  0  0  0  0  0
   33.8750   28.2370   48.1320 C   0  0  0  0  0  0  0  0  0  0  0  0
   34.0450   27.9120   46.7940 C   0  0  0  0  0  0  0  0  0  0  0  0
   33.0440   27.2040   46.1850 N   0  0  0  0  0  0  0  0  0  0  0  0
   31.9290   26.8130   46.8030 C   0  0  0  0  0  0  0  0  0  0  0  0
   31.7610   27.1220   48.0880 N   0  0  0  0  0  0  0  0  0  0  0  0
   34.9430   28.9910   48.7750 C   0  0  0  0  0  0  0  0  0  0  0  0
   35.1520   28.8380   50.1500 C   0  0  0  0  0  0  0  0  0  0  0  0
   36.1700   29.5680   50.7150 C   0  0  0  0  0  0  0  0  0  0  0  0
   36.9600   30.4170   49.9680 C   0  0  0  0  0  0  0  0  0  0  0  0
   37.9690   31.1490   50.4870 N   0  0  0  0  0  0  0  0  0  0  0  0
   38.7170   31.9680   49.7260 C   0  0  0  0  0  0  0  0  0  0  0  0
   38.5180   32.1240   48.3650 C   0  0  0  0  0  0  0  0  0  0  0  0
   37.4810   31.3810   47.7930 C   0  0  0  0  0  0  0  0  0  0  0  0
   36.7420   30.5560   48.6180 C   0  0  0  0  0  0  0  0  0  0  0  0
   35.7260   29.8370   48.0170 C   0  0  0  0  0  0  0  0  0  0  0  0
   30.9090   26.0620   46.0850 C   0  0  0  0  0  0  0  0  0  0  0  0
   30.8260   24.7020   46.2260 C   0  0  0  0  0  0  0  0  0  0  0  0
   29.8660   23.9680   45.5560 C   0  0  0  0  0  0  0  0  0  0  0  0
   29.0090   24.6720   44.7490 C   0  0  0  0  0  0  0  0  0  0  0  0
   29.0650   26.0500   44.5840 C   0  0  0  0  0  0  0  0  0  0  0  0
   30.0430   26.7030   45.2820 N   0  0  0  0  0  0  0  0  0  0  0  0
   32.5358   28.0572   49.8105 H   0  0  0  0  0  0  0  0  0  0  0  0
   34.9491   28.2116   46.2438 H   0  0  0  0  0  0  0  0  0  0  0  0
   34.5280   28.1621   50.7531 H   0  0  0  0  0  0  0  0  0  0  0  0
   36.3604   29.4726   51.7942 H   0  0  0  0  0  0  0  0  0  0  0  0
   39.5239   32.5401   50.2073 H   0  0  0  0  0  0  0  0  0  0  0  0
   39.1446   32.7990   47.7635 H   0  0  0  0  0  0  0  0  0  0  0  0
   37.2602   31.4514   46.7177 H   0  0  0  0  0  0  0  0  0  0  0  0
   35.5422   29.9390   46.9373 H   0  0  0  0  0  0  0  0  0  0  0  0
   31.5377   24.1840   46.8857 H   0  0  0  0  0  0  0  0  0  0  0  0
   29.7928   22.8758   45.6642 H   0  0  0  0  0  0  0  0  0  0  0  0
   28.2344   24.1144   44.2022 H   0  0  0  0  0  0  0  0  0  0  0  0
   28.3623   26.5858   43.9289 H   0  0  0  0  0  0  0  0  0  0  0  0
  2  1  2  0
  2  7  1  0
  3  2  1  0
  4  3  2  0
  4  5  1  0
  5  6  2  0
  6  1  1  0
  7  8  2  0
  8  9  1  0
 10 11  1  0
 10  9  2  0
 12 11  2  0
 13 12  1  0
 14 13  2  0
 14 15  1  0
 15 10  1  0
 16 15  2  0
 16  7  1  0
 17 18  2  0
 17  5  1  0
 19 18  1  0
 20 19  2  0
 21 20  1  0
 21 22  2  0
 22 17  1  0
  1 23  1  0
  3 24  1  0
  8 25  1  0
  9 26  1  0
 12 27  1  0
 13 28  1  0
 14 29  1  0
 16 30  1  0
 18 31  1  0
 19 32  1  0
 20 33  1  0
 21 34  1  0
M  ISO  8  23  14  24  14  25  14  26  14  27  14  28  14  29  14  30  14
M  ISO  4  31  14  32  14  33  14  34  14
M  END
>  <minimizedAffinity>  (1) 
-5.73539257

>  <minimizedRMSD>  (1) 
7.32804346

$$$$
