
     RDKit          3D

 22 23  0  0  0  0  0  0  0  0999 V2000
   37.5840   32.7670   49.8920 C   0  0  0  0  0  0  0  0  0  0  0  0
   38.5180   33.1080   48.8960 C   0  0  0  0  0  0  0  0  0  0  0  0
   38.4830   32.3700   47.7230 C   0  0  0  0  0  0  0  0  0  0  0  0
   37.5580   31.3750   47.6100 N   0  0  0  0  0  0  0  0  0  0  0  0
   36.6870   31.0750   48.5700 C   0  0  0  0  0  0  0  0  0  0  0  0
   36.6940   31.7740   49.7260 N   0  0  0  0  0  0  0  0  0  0  0  0
   35.7210   30.0000   48.3910 C   0  0  0  0  0  0  0  0  0  0  0  0
   35.4790   29.1030   49.3980 C   0  0  0  0  0  0  0  0  0  0  0  0
   34.5830   28.0670   49.2930 C   0  0  0  0  0  0  0  0  0  0  0  0
   33.9340   27.9890   48.0870 C   0  0  0  0  0  0  0  0  0  0  0  0
   34.1450   28.8820   47.0200 C   0  0  0  0  0  0  0  0  0  0  0  0
   35.0590   29.8810   47.2250 N   0  0  0  0  0  0  0  0  0  0  0  0
   39.5040   34.2020   49.0690 C   0  0  0  0  0  0  0  0  0  0  0  0
   40.1140   34.1140   50.2910 F   0  0  0  0  0  0  0  0  0  0  0  0
   38.8010   35.3870   49.0210 F   0  0  0  0  0  0  0  0  0  0  0  0
   40.4030   34.2010   48.0260 F   0  0  0  0  0  0  0  0  0  0  0  0
   37.5825   33.3312   50.8363 H   0  0  0  0  0  0  0  0  0  0  0  0
   39.1848   32.5822   46.9030 H   0  0  0  0  0  0  0  0  0  0  0  0
   36.0322   29.2187   50.3417 H   0  0  0  0  0  0  0  0  0  0  0  0
   34.4003   27.3557   50.1119 H   0  0  0  0  0  0  0  0  0  0  0  0
   33.2038   27.1786   47.9452 H   0  0  0  0  0  0  0  0  0  0  0  0
   33.6025   28.7825   46.0683 H   0  0  0  0  0  0  0  0  0  0  0  0
  2 13  1  0
  2  1  2  0
  3  2  1  0
  4  3  2  0
  4  5  1  0
  5  6  2  0
  6  1  1  0
  7  5  1  0
  7  8  2  0
  9  8  1  0
 10  9  2  0
 11 12  2  0
 11 10  1  0
 12  7  1  0
 13 14  1  0
 15 13  1  0
 16 13  1  0
  1 17  1  0
  3 18  1  0
  8 19  1  0
  9 20  1  0
 10 21  1  0
 11 22  1  0
M  ISO  6  17  14  18  14  19  14  20  14  21  14  22  14
M  END
>  <minimizedAffinity>  (1) 
-5.48119211

>  <minimizedRMSD>  (1) 
0.846207201

$$$$
