
     RDKit          3D

 26 28  0  0  0  0  0  0  0  0999 V2000
   36.2210   29.6680   49.3710 C   0  0  0  0  0  0  0  0  0  0  0  0
   36.4410   30.5870   48.3210 C   0  0  0  0  0  0  0  0  0  0  0  0
   35.6600   30.4540   47.1790 C   0  0  0  0  0  0  0  0  0  0  0  0
   34.7290   29.4470   47.1370 N   0  0  0  0  0  0  0  0  0  0  0  0
   34.5500   28.5960   48.1530 C   0  0  0  0  0  0  0  0  0  0  0  0
   35.2950   28.7070   49.2690 N   0  0  0  0  0  0  0  0  0  0  0  0
   33.5480   27.5420   48.0620 C   0  0  0  0  0  0  0  0  0  0  0  0
   33.8480   26.3320   47.4990 C   0  0  0  0  0  0  0  0  0  0  0  0
   32.9140   25.3200   47.4020 C   0  0  0  0  0  0  0  0  0  0  0  0
   31.6650   25.5970   47.9020 C   0  0  0  0  0  0  0  0  0  0  0  0
   31.3180   26.8220   48.4850 C   0  0  0  0  0  0  0  0  0  0  0  0
   32.3020   27.7680   48.5400 N   0  0  0  0  0  0  0  0  0  0  0  0
   37.4470   31.6420   48.4190 C   0  0  0  0  0  0  0  0  0  0  0  0
   37.7260   32.3180   49.5880 C   0  0  0  0  0  0  0  0  0  0  0  0
   38.7280   33.2390   49.2980 C   0  0  0  0  0  0  0  0  0  0  0  0
   39.0260   33.1000   47.9870 N   0  0  0  0  0  0  0  0  0  0  0  0
   38.2590   32.1500   47.4770 N   0  0  0  0  0  0  0  0  0  0  0  0
   36.8218   29.7436   50.2893 H   0  0  0  0  0  0  0  0  0  0  0  0
   35.7854   31.1402   46.3285 H   0  0  0  0  0  0  0  0  0  0  0  0
   34.8633   26.1603   47.1122 H   0  0  0  0  0  0  0  0  0  0  0  0
   33.1563   24.3469   46.9499 H   0  0  0  0  0  0  0  0  0  0  0  0
   30.8952   24.8136   47.8411 H   0  0  0  0  0  0  0  0  0  0  0  0
   30.3081   27.0122   48.8773 H   0  0  0  0  0  0  0  0  0  0  0  0
   37.2469   32.1592   50.5654 H   0  0  0  0  0  0  0  0  0  0  0  0
   39.1901   33.9463   50.0024 H   0  0  0  0  0  0  0  0  0  0  0  0
   39.7326   33.6432   47.4708 H   0  0  0  0  0  0  0  0  0  0  0  0
  2 13  1  0
  2  1  2  0
  3  2  1  0
  4  3  2  0
  4  5  1  0
  5  6  2  0
  6  1  1  0
  7  5  1  0
  7 12  1  0
  8  7  2  0
  9  8  1  0
  9 10  2  0
 10 11  1  0
 11 12  2  0
 13 14  1  0
 15 14  2  0
 16 15  1  0
 17 16  1  0
 17 13  2  0
  1 18  1  0
  3 19  1  0
  8 20  1  0
  9 21  1  0
 10 22  1  0
 11 23  1  0
 14 24  1  0
 15 25  1  0
 16 26  1  0
M  ISO  8  18  14  19  14  20  14  21  14  22  14  23  14  24  14  25  14
M  ISO  1  26   9
M  END
>  <minimizedAffinity>  (1) 
-5.27326727

>  <minimizedRMSD>  (1) 
3.75854373

$$$$
