
     RDKit          3D

 21 22  0  0  0  0  0  0  0  0999 V2000
   38.0200   33.1430   49.4850 C   0  0  0  0  0  0  0  0  0  0  0  0
   38.8670   33.2850   48.3790 C   0  0  0  0  0  0  0  0  0  0  0  0
   38.7140   32.3760   47.3320 C   0  0  0  0  0  0  0  0  0  0  0  0
   37.7530   31.4100   47.4480 N   0  0  0  0  0  0  0  0  0  0  0  0
   36.9600   31.3080   48.5270 C   0  0  0  0  0  0  0  0  0  0  0  0
   37.1060   32.1740   49.5260 N   0  0  0  0  0  0  0  0  0  0  0  0
   35.9590   30.2600   48.5910 C   0  0  0  0  0  0  0  0  0  0  0  0
   35.9480   29.3780   49.6480 C   0  0  0  0  0  0  0  0  0  0  0  0
   35.0160   28.3660   49.7540 C   0  0  0  0  0  0  0  0  0  0  0  0
   34.0940   28.2870   48.7380 C   0  0  0  0  0  0  0  0  0  0  0  0
   34.0780   29.1590   47.6590 C   0  0  0  0  0  0  0  0  0  0  0  0
   35.0310   30.1370   47.6230 N   0  0  0  0  0  0  0  0  0  0  0  0
   39.8340   34.3310   48.3650 N   0  0  0  0  0  0  0  0  0  0  0  0
   38.1102   33.8403   50.3309 H   0  0  0  0  0  0  0  0  0  0  0  0
   39.3499   32.4347   46.4363 H   0  0  0  0  0  0  0  0  0  0  0  0
   36.7087   29.4837   50.4355 H   0  0  0  0  0  0  0  0  0  0  0  0
   35.0113   27.6644   50.6012 H   0  0  0  0  0  0  0  0  0  0  0  0
   33.3323   27.4946   48.7824 H   0  0  0  0  0  0  0  0  0  0  0  0
   33.3256   29.0662   46.8619 H   0  0  0  0  0  0  0  0  0  0  0  0
   40.4607   34.4422   47.5552 H   0  0  0  0  0  0  0  0  0  0  0  0
   39.9064   34.9761   49.1647 H   0  0  0  0  0  0  0  0  0  0  0  0
  1  6  2  0
  2  1  1  0
  3  4  1  0
  3  2  2  0
  4  5  2  0
  5  7  1  0
  5  6  1  0
  7  8  2  0
  8  9  1  0
 10  9  2  0
 11 10  1  0
 12 11  2  0
 12  7  1  0
 13  2  1  0
  1 14  1  0
  3 15  1  0
  8 16  1  0
  9 17  1  0
 10 18  1  0
 11 19  1  0
 13 20  1  0
 13 21  1  0
M  ISO  6  14  14  15  14  16  14  17  14  18  14  19  14
M  END
>  <minimizedAffinity>  (1) 
-5.03368759

>  <minimizedRMSD>  (1) 
0.142649978

$$$$
