
     RDKit          3D

 31 33  0  0  0  0  0  0  0  0999 V2000
   35.6900   29.8700   49.6390 C   0  0  0  0  0  0  0  0  0  0  0  0
   36.1520   30.5910   48.5160 C   0  0  0  0  0  0  0  0  0  0  0  0
   35.6160   30.2690   47.2760 C   0  0  0  0  0  0  0  0  0  0  0  0
   34.6800   29.2790   47.2380 N   0  0  0  0  0  0  0  0  0  0  0  0
   34.2570   28.6090   48.3110 C   0  0  0  0  0  0  0  0  0  0  0  0
   34.7680   28.9110   49.5160 N   0  0  0  0  0  0  0  0  0  0  0  0
   33.2520   27.5650   48.1800 C   0  0  0  0  0  0  0  0  0  0  0  0
   33.5760   26.3660   47.5630 C   0  0  0  0  0  0  0  0  0  0  0  0
   32.6650   25.3460   47.4120 C   0  0  0  0  0  0  0  0  0  0  0  0
   31.4040   25.6020   47.9180 C   0  0  0  0  0  0  0  0  0  0  0  0
   31.0450   26.7950   48.5440 C   0  0  0  0  0  0  0  0  0  0  0  0
   32.0150   27.7560   48.6500 N   0  0  0  0  0  0  0  0  0  0  0  0
   37.1330   31.6140   48.6270 N   0  0  0  0  0  0  0  0  0  0  0  0
   38.1460   31.9240   47.6360 C   0  0  0  0  0  0  0  0  0  0  0  0
   38.9560   33.0360   48.2680 C   0  0  0  0  0  0  0  0  0  0  0  0
   38.7900   32.7150   49.7400 C   0  0  0  0  0  0  0  0  0  0  0  0
   37.2690   32.5090   49.7570 C   0  0  0  0  0  0  0  0  0  0  0  0
   36.0971   30.1025   50.6341 H   0  0  0  0  0  0  0  0  0  0  0  0
   35.9339   30.7916   46.3618 H   0  0  0  0  0  0  0  0  0  0  0  0
   34.5978   26.2254   47.1807 H   0  0  0  0  0  0  0  0  0  0  0  0
   32.9217   24.3945   46.9234 H   0  0  0  0  0  0  0  0  0  0  0  0
   30.6386   24.8179   47.8209 H   0  0  0  0  0  0  0  0  0  0  0  0
   30.0295   26.9569   48.9347 H   0  0  0  0  0  0  0  0  0  0  0  0
   37.6829   32.2635   46.6978 H   0  0  0  0  0  0  0  0  0  0  0  0
   38.7614   31.0504   47.3751 H   0  0  0  0  0  0  0  0  0  0  0  0
   40.0115   32.9913   47.9614 H   0  0  0  0  0  0  0  0  0  0  0  0
   38.6328   34.0489   47.9858 H   0  0  0  0  0  0  0  0  0  0  0  0
   39.3350   31.8045   50.0298 H   0  0  0  0  0  0  0  0  0  0  0  0
   39.1780   33.4692   50.4404 H   0  0  0  0  0  0  0  0  0  0  0  0
   36.7259   33.4526   49.6000 H   0  0  0  0  0  0  0  0  0  0  0  0
   36.8598   32.1296   50.7050 H   0  0  0  0  0  0  0  0  0  0  0  0
  2 13  1  0
  2  1  2  0
  3  2  1  0
  4  3  2  0
  4  5  1  0
  5  6  2  0
  6  1  1  0
  7  5  1  0
  7 12  1  0
  8  7  2  0
  9  8  1  0
  9 10  2  0
 10 11  1  0
 11 12  2  0
 13 17  1  0
 14 15  1  0
 14 13  1  0
 15 16  1  0
 16 17  1  0
  1 18  1  0
  3 19  1  0
  8 20  1  0
  9 21  1  0
 10 22  1  0
 11 23  1  0
 14 24  1  0
 14 25  1  0
 15 26  1  0
 15 27  1  0
 16 28  1  0
 16 29  1  0
 17 30  1  0
 17 31  1  0
M  ISO  8  18  14  19  14  20  14  21  14  22  14  23  14  24  13  25  13
M  ISO  6  26  13  27  13  28  13  29  13  30  13  31  13
M  END
>  <minimizedAffinity>  (1) 
-4.79482174

>  <minimizedRMSD>  (1) 
3.95824313

$$$$
