
     RDKit          3D

 34 36  0  0  0  0  0  0  0  0999 V2000
   35.1480   29.7910   49.1980 C   0  0  0  0  0  0  0  0  0  0  0  0
   35.8540   30.3310   48.1170 C   0  0  0  0  0  0  0  0  0  0  0  0
   35.3530   30.0970   46.8380 C   0  0  0  0  0  0  0  0  0  0  0  0
   34.2090   29.3590   46.7190 N   0  0  0  0  0  0  0  0  0  0  0  0
   33.5560   28.8560   47.7740 C   0  0  0  0  0  0  0  0  0  0  0  0
   34.0320   29.0740   49.0140 N   0  0  0  0  0  0  0  0  0  0  0  0
   32.3460   28.0790   47.5920 C   0  0  0  0  0  0  0  0  0  0  0  0
   32.2320   26.8230   48.1300 C   0  0  0  0  0  0  0  0  0  0  0  0
   31.1100   26.0400   47.9920 C   0  0  0  0  0  0  0  0  0  0  0  0
   30.0940   26.6100   47.2670 C   0  0  0  0  0  0  0  0  0  0  0  0
   30.1530   27.8930   46.6910 C   0  0  0  0  0  0  0  0  0  0  0  0
   31.3170   28.5920   46.8880 N   0  0  0  0  0  0  0  0  0  0  0  0
   37.0400   31.0880   48.3440 N   0  0  0  0  0  0  0  0  0  0  0  0
   37.3910   31.3410   49.7250 C   0  0  0  0  0  0  0  0  0  0  0  0
   38.6050   32.1960   49.8850 C   0  0  0  0  0  0  0  0  0  0  0  0
   38.6840   33.2440   48.7850 C   0  0  0  0  0  0  0  0  0  0  0  0
   38.8970   32.4650   47.5070 C   0  0  0  0  0  0  0  0  0  0  0  0
   37.7780   31.5300   47.1940 C   0  0  0  0  0  0  0  0  0  0  0  0
   35.5176   29.9590   50.2203 H   0  0  0  0  0  0  0  0  0  0  0  0
   35.8640   30.4952   45.9490 H   0  0  0  0  0  0  0  0  0  0  0  0
   33.0817   26.4210   48.7014 H   0  0  0  0  0  0  0  0  0  0  0  0
   31.0329   25.0336   48.4294 H   0  0  0  0  0  0  0  0  0  0  0  0
   29.1726   26.0258   47.1267 H   0  0  0  0  0  0  0  0  0  0  0  0
   29.3138   28.3113   46.1158 H   0  0  0  0  0  0  0  0  0  0  0  0
   36.5436   31.8450   50.2127 H   0  0  0  0  0  0  0  0  0  0  0  0
   37.6185   30.3676   50.1842 H   0  0  0  0  0  0  0  0  0  0  0  0
   38.5625   32.7017   50.8609 H   0  0  0  0  0  0  0  0  0  0  0  0
   39.4960   31.5541   49.8214 H   0  0  0  0  0  0  0  0  0  0  0  0
   37.7484   33.8202   48.7337 H   0  0  0  0  0  0  0  0  0  0  0  0
   39.4933   33.9670   48.9645 H   0  0  0  0  0  0  0  0  0  0  0  0
   38.9991   33.1784   46.6759 H   0  0  0  0  0  0  0  0  0  0  0  0
   39.8028   31.8559   47.6432 H   0  0  0  0  0  0  0  0  0  0  0  0
   37.0817   32.0413   46.5131 H   0  0  0  0  0  0  0  0  0  0  0  0
   38.2316   30.6335   46.7462 H   0  0  0  0  0  0  0  0  0  0  0  0
  2 13  1  0
  2  1  2  0
  3  2  1  0
  4  3  2  0
  4  5  1  0
  5  6  2  0
  6  1  1  0
  7  5  1  0
  7  8  2  0
  9  8  1  0
 10  9  2  0
 11 12  2  0
 11 10  1  0
 12  7  1  0
 13 14  1  0
 14 15  1  0
 16 15  1  0
 17 16  1  0
 18 17  1  0
 18 13  1  0
  1 19  1  0
  3 20  1  0
  8 21  1  0
  9 22  1  0
 10 23  1  0
 11 24  1  0
 14 25  1  0
 14 26  1  0
 15 27  1  0
 15 28  1  0
 16 29  1  0
 16 30  1  0
 17 31  1  0
 17 32  1  0
 18 33  1  0
 18 34  1  0
M  ISO  8  19  14  20  14  21  14  22  14  23  14  24  14  25  13  26  13
M  ISO  8  27  13  28  13  29  13  30  13  31  13  32  13  33  13  34  13
M  END
>  <minimizedAffinity>  (1) 
-4.92714882

>  <minimizedRMSD>  (1) 
4.40304089

$$$$
