
     RDKit          3D

 47 50  0  0  1  0  0  0  0  0999 V2000
   37.3460   31.0720   48.6230 N   0  0  0  0  0  0  0  0  0  0  0  0
   37.9660   31.1390   49.9420 C   0  0  0  0  0  0  0  0  0  0  0  0
   39.0330   32.1720   50.0460 C   0  0  0  0  0  0  0  0  0  0  0  0
   38.7150   33.3860   49.2110 C   0  0  0  0  0  0  0  0  0  0  0  0
   38.7190   32.9230   47.7820 C   0  0  0  0  0  0  0  0  0  0  0  0
   37.7670   31.8040   47.4760 C   0  0  1  0  0  0  0  0  0  0  0  0
   36.1100   29.0780   49.3400 C   0  0  0  0  0  0  0  0  0  0  0  0
   36.2350   30.1910   48.5170 C   0  0  0  0  0  0  0  0  0  0  0  0
   35.2300   30.4000   47.5910 C   0  0  0  0  0  0  0  0  0  0  0  0
   34.1890   29.5190   47.5380 N   0  0  0  0  0  0  0  0  0  0  0  0
   34.0950   28.4630   48.3370 C   0  0  0  0  0  0  0  0  0  0  0  0
   35.0640   28.2440   49.2440 N   0  0  0  0  0  0  0  0  0  0  0  0
   32.9780   27.5530   48.2490 C   0  0  0  0  0  0  0  0  0  0  0  0
   33.1100   26.3520   47.5800 C   0  0  0  0  0  0  0  0  0  0  0  0
   32.0950   25.4340   47.4520 C   0  0  0  0  0  0  0  0  0  0  0  0
   30.9230   25.7980   48.0420 C   0  0  0  0  0  0  0  0  0  0  0  0
   30.7250   27.0170   48.7420 C   0  0  0  0  0  0  0  0  0  0  0  0
   31.7970   27.8740   48.8190 N   0  0  0  0  0  0  0  0  0  0  0  0
   38.1020   30.8120   45.1790 C   0  0  2  0  0  0  0  0  0  0  0  0
   38.5560   30.8400   46.5900 C   0  0  1  0  0  0  0  0  0  0  0  0
   39.8750   31.2410   46.6590 O   0  0  0  0  0  0  0  0  0  0  0  0
   40.3870   31.4060   45.4000 C   0  0  0  0  0  0  0  0  0  0  0  0
   39.3350   31.1420   44.3820 C   0  0  2  0  0  0  0  0  0  0  0  0
   37.0330   31.6140   44.8660 O   0  0  0  0  0  0  0  0  0  0  0  0
   39.0610   32.2270   43.5420 O   0  0  0  0  0  0  0  0  0  0  0  0
   37.1855   31.3692   50.6821 H   0  0  0  0  0  0  0  0  0  0  0  0
   38.4412   30.1641   50.1255 H   0  0  0  0  0  0  0  0  0  0  0  0
   39.1316   32.4784   51.0979 H   0  0  0  0  0  0  0  0  0  0  0  0
   39.9714   31.7352   49.6737 H   0  0  0  0  0  0  0  0  0  0  0  0
   37.7260   33.7856   49.4798 H   0  0  0  0  0  0  0  0  0  0  0  0
   39.4486   34.1891   49.3747 H   0  0  0  0  0  0  0  0  0  0  0  0
   38.4548   33.7798   47.1448 H   0  0  0  0  0  0  0  0  0  0  0  0
   39.7281   32.5301   47.5886 H   0  0  0  0  0  0  0  0  0  0  0  0
   36.8598   32.2273   47.0201 H   0  0  0  0  0  0  0  0  0  0  0  0
   36.8892   28.8759   50.0896 H   0  0  0  0  0  0  0  0  0  0  0  0
   35.2687   31.2618   46.9085 H   0  0  0  0  0  0  0  0  0  0  0  0
   34.0828   26.1167   47.1236 H   0  0  0  0  0  0  0  0  0  0  0  0
   32.2195   24.4816   46.9159 H   0  0  0  0  0  0  0  0  0  0  0  0
   30.0741   25.1019   47.9716 H   0  0  0  0  0  0  0  0  0  0  0  0
   29.7571   27.2647   49.2022 H   0  0  0  0  0  0  0  0  0  0  0  0
   37.6844   29.8216   44.9453 H   0  0  0  0  0  0  0  0  0  0  0  0
   38.4045   29.8139   46.9564 H   0  0  0  0  0  0  0  0  0  0  0  0
   40.7513   32.4378   45.2877 H   0  0  0  0  0  0  0  0  0  0  0  0
   41.2162   30.6984   45.2528 H   0  0  0  0  0  0  0  0  0  0  0  0
   39.6722   30.3389   43.7102 H   0  0  0  0  0  0  0  0  0  0  0  0
   36.6057   31.9346   45.6995 H   0  0  0  0  0  0  0  0  0  0  0  0
   38.8592   33.0262   44.0904 H   0  0  0  0  0  0  0  0  0  0  0  0
  1  2  1  0
  2  3  1  0
  4  3  1  0
  5  4  1  0
  6  5  1  0
  6  1  1  0
  8  1  1  0
  8  7  2  0
  9  8  1  0
 10  9  2  0
 10 11  1  0
 11 12  2  0
 12  7  1  0
 13 11  1  0
 13 18  1  0
 14 13  2  0
 15 14  1  0
 15 16  2  0
 16 17  1  0
 17 18  2  0
 19 24  1  0
 19 20  1  0
 20 21  1  0
 20  6  1  0
 22 21  1  0
 23 25  1  0
 23 19  1  0
 23 22  1  0
  2 26  1  0
  2 27  1  0
  3 28  1  0
  3 29  1  0
  4 30  1  0
  4 31  1  0
  5 32  1  0
  5 33  1  0
  6 34  1  6
  7 35  1  0
  9 36  1  0
 14 37  1  0
 15 38  1  0
 16 39  1  0
 17 40  1  0
 19 41  1  6
 20 42  1  1
 22 43  1  0
 22 44  1  0
 23 45  1  6
 24 46  1  0
 25 47  1  0
M  ISO  8  26  13  27  13  28  13  29  13  30  13  31  13  32  13  33  13
M  ISO  8  34  13  35  14  36  14  37  14  38  14  39  14  40  14  41  13
M  ISO  6  42  13  43  13  44  13  45  13  46   3  47   3
M  END
>  <minimizedAffinity>  (1) 
-6.32765865

>  <minimizedRMSD>  (1) 
1.9728992

$$$$
