
     RDKit          3D

 44 47  0  0  1  0  0  0  0  0999 V2000
   36.9100   30.8480   48.6970 N   0  0  0  0  0  0  0  0  0  0  0  0
   37.5440   30.5960   49.9860 C   0  0  0  0  0  0  0  0  0  0  0  0
   38.6920   31.4990   50.2810 C   0  0  0  0  0  0  0  0  0  0  0  0
   38.4520   32.8860   49.7240 C   0  0  0  0  0  0  0  0  0  0  0  0
   38.4240   32.7370   48.2220 C   0  0  0  0  0  0  0  0  0  0  0  0
   37.3510   31.8120   47.7440 C   0  0  1  0  0  0  0  0  0  0  0  0
   37.8910   31.1600   46.4980 C   0  0  0  0  0  0  0  0  0  0  0  0
   39.2700   31.1480   46.4970 C   0  0  0  0  0  0  0  0  0  0  0  0
   39.9530   30.5880   45.4310 C   0  0  0  0  0  0  0  0  0  0  0  0
   39.2660   30.0410   44.3660 C   0  0  0  0  0  0  0  0  0  0  0  0
   37.8740   30.0670   44.3960 C   0  0  0  0  0  0  0  0  0  0  0  0
   37.1900   30.6240   45.4560 C   0  0  0  0  0  0  0  0  0  0  0  0
   35.6270   28.7850   48.9420 C   0  0  0  0  0  0  0  0  0  0  0  0
   35.7720   30.0640   48.3910 C   0  0  0  0  0  0  0  0  0  0  0  0
   34.7660   30.5110   47.5530 C   0  0  0  0  0  0  0  0  0  0  0  0
   33.6980   29.6900   47.3090 N   0  0  0  0  0  0  0  0  0  0  0  0
   33.5840   28.4760   47.8450 C   0  0  0  0  0  0  0  0  0  0  0  0
   34.5600   28.0260   48.6670 N   0  0  0  0  0  0  0  0  0  0  0  0
   32.4360   27.6400   47.5590 C   0  0  0  0  0  0  0  0  0  0  0  0
   32.5550   26.2660   47.5750 C   0  0  0  0  0  0  0  0  0  0  0  0
   31.5020   25.4270   47.3120 C   0  0  0  0  0  0  0  0  0  0  0  0
   30.3160   26.0500   47.0310 C   0  0  0  0  0  0  0  0  0  0  0  0
   30.1450   27.4390   47.0020 C   0  0  0  0  0  0  0  0  0  0  0  0
   31.2450   28.2230   47.2760 N   0  0  0  0  0  0  0  0  0  0  0  0
   36.7887   30.7269   50.7749 H   0  0  0  0  0  0  0  0  0  0  0  0
   37.9442   29.5720   49.9502 H   0  0  0  0  0  0  0  0  0  0  0  0
   38.8242   31.5675   51.3709 H   0  0  0  0  0  0  0  0  0  0  0  0
   39.5937   31.0836   49.8073 H   0  0  0  0  0  0  0  0  0  0  0  0
   37.4915   33.2815   50.0860 H   0  0  0  0  0  0  0  0  0  0  0  0
   39.2369   33.5876   50.0429 H   0  0  0  0  0  0  0  0  0  0  0  0
   38.2565   33.7280   47.7750 H   0  0  0  0  0  0  0  0  0  0  0  0
   39.3888   32.3053   47.9173 H   0  0  0  0  0  0  0  0  0  0  0  0
   36.4385   32.3956   47.5523 H   0  0  0  0  0  0  0  0  0  0  0  0
   39.8258   31.5823   47.3411 H   0  0  0  0  0  0  0  0  0  0  0  0
   41.0530   30.5788   45.4327 H   0  0  0  0  0  0  0  0  0  0  0  0
   39.8040   29.5962   43.5159 H   0  0  0  0  0  0  0  0  0  0  0  0
   37.3087   29.6345   43.5573 H   0  0  0  0  0  0  0  0  0  0  0  0
   36.0901   30.6364   45.4620 H   0  0  0  0  0  0  0  0  0  0  0  0
   36.4059   28.3964   49.6145 H   0  0  0  0  0  0  0  0  0  0  0  0
   34.8232   31.5078   47.0913 H   0  0  0  0  0  0  0  0  0  0  0  0
   33.5351   25.8245   47.8084 H   0  0  0  0  0  0  0  0  0  0  0  0
   31.6035   24.3318   47.3259 H   0  0  0  0  0  0  0  0  0  0  0  0
   29.4415   25.4189   46.8141 H   0  0  0  0  0  0  0  0  0  0  0  0
   29.1684   27.8884   46.7690 H   0  0  0  0  0  0  0  0  0  0  0  0
  1  2  1  0
  2  3  1  0
  4  3  1  0
  5  4  1  0
  6  5  1  0
  6  1  1  0
  7  6  1  0
  8  7  2  0
  9  8  1  0
 10 11  1  0
 10  9  2  0
 11 12  2  0
 12  7  1  0
 14  1  1  0
 14 13  2  0
 15 14  1  0
 16 15  2  0
 16 17  1  0
 17 18  2  0
 18 13  1  0
 19 20  2  0
 19 17  1  0
 21 20  1  0
 22 21  2  0
 23 22  1  0
 23 24  2  0
 24 19  1  0
  2 25  1  0
  2 26  1  0
  3 27  1  0
  3 28  1  0
  4 29  1  0
  4 30  1  0
  5 31  1  0
  5 32  1  0
  6 33  1  6
  8 34  1  0
  9 35  1  0
 10 36  1  0
 11 37  1  0
 12 38  1  0
 13 39  1  0
 15 40  1  0
 20 41  1  0
 21 42  1  0
 22 43  1  0
 23 44  1  0
M  ISO  8  25  13  26  13  27  13  28  13  29  13  30  13  31  13  32  13
M  ISO  8  33  13  34  14  35  14  36  14  37  14  38  14  39  14  40  14
M  ISO  4  41  14  42  14  43  14  44  14
M  END
>  <minimizedAffinity>  (1) 
-5.90378141

>  <minimizedRMSD>  (1) 
1.09079731

$$$$
