
     RDKit          3D

 36 38  0  0  1  0  0  0  0  0999 V2000
   35.3360   29.6930   49.2150 C   0  0  0  0  0  0  0  0  0  0  0  0
   35.9330   30.4090   48.1610 C   0  0  0  0  0  0  0  0  0  0  0  0
   35.3240   30.3440   46.9140 C   0  0  0  0  0  0  0  0  0  0  0  0
   34.1940   29.5980   46.7810 N   0  0  0  0  0  0  0  0  0  0  0  0
   33.6400   28.9230   47.7980 C   0  0  0  0  0  0  0  0  0  0  0  0
   34.2240   28.9780   49.0160 N   0  0  0  0  0  0  0  0  0  0  0  0
   37.1190   31.1660   48.3890 N   0  0  0  0  0  0  0  0  0  0  0  0
   37.4910   31.3620   49.7840 C   0  0  0  0  0  0  0  0  0  0  0  0
   38.6910   32.2310   49.9690 C   0  0  0  0  0  0  0  0  0  0  0  0
   38.7550   33.3030   48.9060 C   0  0  0  0  0  0  0  0  0  0  0  0
   38.9590   32.5810   47.6060 C   0  0  0  0  0  0  0  0  0  0  0  0
   37.8320   31.6630   47.2570 C   0  0  1  0  0  0  0  0  0  0  0  0
   38.4500   30.4920   46.6150 N   0  0  0  0  0  0  0  0  0  0  0  0
   32.4370   28.1390   47.6200 C   0  0  0  0  0  0  0  0  0  0  0  0
   32.2790   26.9340   48.2370 C   0  0  0  0  0  0  0  0  0  0  0  0
   31.1450   26.1660   48.0850 C   0  0  0  0  0  0  0  0  0  0  0  0
   30.1810   26.6850   47.2740 C   0  0  0  0  0  0  0  0  0  0  0  0
   30.2890   27.9280   46.6090 C   0  0  0  0  0  0  0  0  0  0  0  0
   31.4530   28.6230   46.8180 N   0  0  0  0  0  0  0  0  0  0  0  0
   35.7904   29.7220   50.2163 H   0  0  0  0  0  0  0  0  0  0  0  0
   35.7460   30.8836   46.0534 H   0  0  0  0  0  0  0  0  0  0  0  0
   36.6422   31.8259   50.3078 H   0  0  0  0  0  0  0  0  0  0  0  0
   37.7452   30.3722   50.1909 H   0  0  0  0  0  0  0  0  0  0  0  0
   38.6396   32.7088   50.9585 H   0  0  0  0  0  0  0  0  0  0  0  0
   39.5918   31.6048   49.8886 H   0  0  0  0  0  0  0  0  0  0  0  0
   37.8159   33.8753   48.8826 H   0  0  0  0  0  0  0  0  0  0  0  0
   39.5669   34.0188   49.1024 H   0  0  0  0  0  0  0  0  0  0  0  0
   39.0626   33.3273   46.8045 H   0  0  0  0  0  0  0  0  0  0  0  0
   39.8619   31.9622   47.7149 H   0  0  0  0  0  0  0  0  0  0  0  0
   37.1196   32.2229   46.6333 H   0  0  0  0  0  0  0  0  0  0  0  0
   38.7919   29.8441   47.3390 H   0  0  0  0  0  0  0  0  0  0  0  0
   37.7516   30.0136   46.0283 H   0  0  0  0  0  0  0  0  0  0  0  0
   33.0882   26.5600   48.8814 H   0  0  0  0  0  0  0  0  0  0  0  0
   31.0255   25.1946   48.5871 H   0  0  0  0  0  0  0  0  0  0  0  0
   29.2609   26.1002   47.1274 H   0  0  0  0  0  0  0  0  0  0  0  0
   29.4874   28.3147   45.9626 H   0  0  0  0  0  0  0  0  0  0  0  0
  2  7  1  0
  2  1  2  0
  3  2  1  0
  4  3  2  0
  4  5  1  0
  5  6  2  0
  6  1  1  0
  7  8  1  0
  8  9  1  0
 10  9  1  0
 11 10  1  0
 12 11  1  0
 12  7  1  0
 13 12  1  0
 14  5  1  0
 14 15  2  0
 16 15  1  0
 17 16  2  0
 18 19  2  0
 18 17  1  0
 19 14  1  0
  1 20  1  0
  3 21  1  0
  8 22  1  0
  8 23  1  0
  9 24  1  0
  9 25  1  0
 10 26  1  0
 10 27  1  0
 11 28  1  0
 11 29  1  0
 12 30  1  6
 13 31  1  0
 13 32  1  0
 15 33  1  0
 16 34  1  0
 17 35  1  0
 18 36  1  0
M  ISO  8  20  14  21  14  22  13  23  13  24  13  25  13  26  13  27  13
M  ISO  8  28  13  29  13  30  13  31   5  32   5  33  14  34  14  35  14
M  ISO  1  36  14
M  END
>  <minimizedAffinity>  (1) 
-5.11344004

>  <minimizedRMSD>  (1) 
0.171857074

$$$$
