
     RDKit          3D

 27 29  0  0  0  0  0  0  0  0999 V2000
   36.9420   31.3170   49.3040 C   0  0  0  0  0  0  0  0  0  0  0  0
   37.1840   32.5160   49.9990 C   0  0  0  0  0  0  0  0  0  0  0  0
   38.1000   33.3900   49.4180 C   0  0  0  0  0  0  0  0  0  0  0  0
   38.7010   33.0480   48.2360 N   0  0  0  0  0  0  0  0  0  0  0  0
   38.4370   31.8770   47.5980 C   0  0  0  0  0  0  0  0  0  0  0  0
   37.5460   31.0020   48.1420 N   0  0  0  0  0  0  0  0  0  0  0  0
   40.3560   33.6470   46.4890 F   0  0  0  0  0  0  0  0  0  0  0  0
   40.0450   32.4910   45.8520 C   0  0  0  0  0  0  0  0  0  0  0  0
   39.1210   31.5920   46.3420 C   0  0  0  0  0  0  0  0  0  0  0  0
   38.7940   30.4120   45.7090 C   0  0  0  0  0  0  0  0  0  0  0  0
   39.4290   30.1170   44.5150 C   0  0  0  0  0  0  0  0  0  0  0  0
   40.3550   31.0130   44.0190 C   0  0  0  0  0  0  0  0  0  0  0  0
   40.6940   32.2090   44.6510 C   0  0  0  0  0  0  0  0  0  0  0  0
   35.9330   30.3770   49.9050 C   0  0  0  0  0  0  0  0  0  0  0  0
   35.9930   28.9390   49.6570 C   0  0  0  0  0  0  0  0  0  0  0  0
   36.5200   29.4650   50.9670 C   0  0  0  0  0  0  0  0  0  0  0  0
   36.6785   32.7501   50.9475 H   0  0  0  0  0  0  0  0  0  0  0  0
   38.3386   34.3471   49.9047 H   0  0  0  0  0  0  0  0  0  0  0  0
   38.0506   29.7252   46.1399 H   0  0  0  0  0  0  0  0  0  0  0  0
   39.2006   29.1878   43.9724 H   0  0  0  0  0  0  0  0  0  0  0  0
   40.8546   30.7692   43.0698 H   0  0  0  0  0  0  0  0  0  0  0  0
   41.4378   32.8968   44.2224 H   0  0  0  0  0  0  0  0  0  0  0  0
   35.1082   31.0982   49.8072 H   0  0  0  0  0  0  0  0  0  0  0  0
   35.0648   28.3490   49.6396 H   0  0  0  0  0  0  0  0  0  0  0  0
   36.4125   28.3140   48.8549 H   0  0  0  0  0  0  0  0  0  0  0  0
   37.6012   29.4709   51.1694 H   0  0  0  0  0  0  0  0  0  0  0  0
   36.3304   29.2672   52.0323 H   0  0  0  0  0  0  0  0  0  0  0  0
  1 14  1  0
  1  2  2  0
  3  2  1  0
  4  3  2  0
  5  6  2  0
  5  4  1  0
  6  1  1  0
  8  9  2  0
  8  7  1  0
  9  5  1  0
 10  9  1  0
 11 10  2  0
 12 11  1  0
 12 13  2  0
 13  8  1  0
 14 16  1  0
 15 14  1  0
 15 16  1  0
  2 17  1  0
  3 18  1  0
 10 19  1  0
 11 20  1  0
 12 21  1  0
 13 22  1  0
 14 23  1  0
 15 24  1  0
 15 25  1  0
 16 26  1  0
 16 27  1  0
M  ISO  8  17  14  18  14  19  14  20  14  21  14  22  14  23  13  24  13
M  ISO  3  25  13  26  13  27  13
M  END
>  <minimizedAffinity>  (1) 
-6.27351332

>  <minimizedRMSD>  (1) 
0.936370015

$$$$
