
     RDKit          3D

 33 35  0  0  0  0  0  0  0  0999 V2000
   37.0280   31.3380   49.3080 C   0  0  0  0  0  0  0  0  0  0  0  0
   37.1550   32.5800   49.9530 C   0  0  0  0  0  0  0  0  0  0  0  0
   38.1070   33.4330   49.4170 C   0  0  0  0  0  0  0  0  0  0  0  0
   38.8450   33.0640   48.3460 N   0  0  0  0  0  0  0  0  0  0  0  0
   38.6960   31.8560   47.7460 C   0  0  0  0  0  0  0  0  0  0  0  0
   37.7740   30.9880   48.2410 N   0  0  0  0  0  0  0  0  0  0  0  0
   35.9850   30.3840   49.8440 C   0  0  0  0  0  0  0  0  0  0  0  0
   36.0950   28.9490   49.6210 C   0  0  0  0  0  0  0  0  0  0  0  0
   36.5210   29.4960   50.9580 C   0  0  0  0  0  0  0  0  0  0  0  0
   39.4840   31.4120   46.5700 C   0  0  0  0  0  0  0  0  0  0  0  0
   39.8700   32.6470   45.7810 C   0  0  0  0  0  0  0  0  0  0  0  0
   40.7760   32.2590   44.6410 C   0  0  0  0  0  0  0  0  0  0  0  0
   40.3270   31.0030   43.9480 C   0  0  0  0  0  0  0  0  0  0  0  0
   38.8380   30.8280   44.2520 C   0  0  0  0  0  0  0  0  0  0  0  0
   38.7700   30.4050   45.7140 C   0  0  0  0  0  0  0  0  0  0  0  0
   36.5413   32.8562   50.8231 H   0  0  0  0  0  0  0  0  0  0  0  0
   38.2642   34.4234   49.8691 H   0  0  0  0  0  0  0  0  0  0  0  0
   35.1521   31.0828   49.6769 H   0  0  0  0  0  0  0  0  0  0  0  0
   35.1836   28.3375   49.5478 H   0  0  0  0  0  0  0  0  0  0  0  0
   36.5827   28.3268   48.8561 H   0  0  0  0  0  0  0  0  0  0  0  0
   37.5857   29.5287   51.2326 H   0  0  0  0  0  0  0  0  0  0  0  0
   36.2653   29.3040   52.0105 H   0  0  0  0  0  0  0  0  0  0  0  0
   40.3805   30.8827   46.9251 H   0  0  0  0  0  0  0  0  0  0  0  0
   38.9629   33.1237   45.3811 H   0  0  0  0  0  0  0  0  0  0  0  0
   40.3970   33.3512   46.4416 H   0  0  0  0  0  0  0  0  0  0  0  0
   40.7916   33.0794   43.9084 H   0  0  0  0  0  0  0  0  0  0  0  0
   41.7756   32.0698   45.0592 H   0  0  0  0  0  0  0  0  0  0  0  0
   40.8934   30.1398   44.3275 H   0  0  0  0  0  0  0  0  0  0  0  0
   40.4994   31.0716   42.8638 H   0  0  0  0  0  0  0  0  0  0  0  0
   38.3003   31.7756   44.1002 H   0  0  0  0  0  0  0  0  0  0  0  0
   38.3699   30.0852   43.5893 H   0  0  0  0  0  0  0  0  0  0  0  0
   37.7174   30.3410   46.0268 H   0  0  0  0  0  0  0  0  0  0  0  0
   39.2522   29.4232   45.8303 H   0  0  0  0  0  0  0  0  0  0  0  0
  1  7  1  0
  1  2  2  0
  3  2  1  0
  4  3  2  0
  5  6  2  0
  5  4  1  0
  6  1  1  0
  7  9  1  0
  8  7  1  0
  8  9  1  0
 10  5  1  0
 11 10  1  0
 12 11  1  0
 13 14  1  0
 13 12  1  0
 14 15  1  0
 15 10  1  0
  2 16  1  0
  3 17  1  0
  7 18  1  0
  8 19  1  0
  8 20  1  0
  9 21  1  0
  9 22  1  0
 10 23  1  0
 11 24  1  0
 11 25  1  0
 12 26  1  0
 12 27  1  0
 13 28  1  0
 13 29  1  0
 14 30  1  0
 14 31  1  0
 15 32  1  0
 15 33  1  0
M  ISO  8  16  14  17  14  18  13  19  13  20  13  21  13  22  13  23  13
M  ISO  8  24  13  25  13  26  13  27  13  28  13  29  13  30  13  31  13
M  ISO  2  32  13  33  13
M  END
>  <minimizedAffinity>  (1) 
-5.81995153

>  <minimizedRMSD>  (1) 
0.749719203

$$$$
