
     RDKit          3D

 24 26  0  0  0  0  0  0  0  0999 V2000
   37.3540   31.3560   49.2000 C   0  0  0  0  0  0  0  0  0  0  0  0
   37.7070   32.6210   49.7000 C   0  0  0  0  0  0  0  0  0  0  0  0
   38.6120   33.3430   48.9410 C   0  0  0  0  0  0  0  0  0  0  0  0
   39.1030   32.8210   47.7880 N   0  0  0  0  0  0  0  0  0  0  0  0
   38.7460   31.6000   47.3320 C   0  0  0  0  0  0  0  0  0  0  0  0
   37.8610   30.8640   48.0510 N   0  0  0  0  0  0  0  0  0  0  0  0
   36.3530   30.5550   49.9920 C   0  0  0  0  0  0  0  0  0  0  0  0
   36.3190   29.0980   49.9080 C   0  0  0  0  0  0  0  0  0  0  0  0
   36.9930   29.7280   51.0980 C   0  0  0  0  0  0  0  0  0  0  0  0
   39.3020   31.0830   46.0860 C   0  0  0  0  0  0  0  0  0  0  0  0
   40.6080   31.2870   45.6620 C   0  0  0  0  0  0  0  0  0  0  0  0
   40.6940   30.6470   44.4840 N   0  0  0  0  0  0  0  0  0  0  0  0
   39.5090   30.0610   44.1610 C   0  0  0  0  0  0  0  0  0  0  0  0
   38.6390   30.3390   45.1740 N   0  0  0  0  0  0  0  0  0  0  0  0
   37.2891   33.0141   50.6385 H   0  0  0  0  0  0  0  0  0  0  0  0
   38.9338   34.3412   49.2727 H   0  0  0  0  0  0  0  0  0  0  0  0
   35.5599   31.3096   49.8848 H   0  0  0  0  0  0  0  0  0  0  0  0
   35.3650   28.5665   50.0400 H   0  0  0  0  0  0  0  0  0  0  0  0
   36.6300   28.3656   49.1485 H   0  0  0  0  0  0  0  0  0  0  0  0
   38.0874   29.6902   51.2022 H   0  0  0  0  0  0  0  0  0  0  0  0
   36.8955   29.6584   52.1915 H   0  0  0  0  0  0  0  0  0  0  0  0
   41.3997   31.8499   46.1780 H   0  0  0  0  0  0  0  0  0  0  0  0
   41.5434   30.6054   43.9029 H   0  0  0  0  0  0  0  0  0  0  0  0
   39.2938   29.4748   43.2554 H   0  0  0  0  0  0  0  0  0  0  0  0
  1  2  2  0
  1  7  1  0
  3  2  1  0
  4  3  2  0
  5  4  1  0
  5  6  2  0
  6  1  1  0
  7  9  1  0
  8  7  1  0
  8  9  1  0
 10  5  1  0
 11 10  2  0
 12 11  1  0
 13 12  1  0
 13 14  2  0
 14 10  1  0
  2 15  1  0
  3 16  1  0
  7 17  1  0
  8 18  1  0
  8 19  1  0
  9 20  1  0
  9 21  1  0
 11 22  1  0
 12 23  1  0
 13 24  1  0
M  ISO  8  15  14  16  14  17  13  18  13  19  13  20  13  21  13  22  14
M  ISO  2  23   9  24  14
M  END
>  <minimizedAffinity>  (1) 
-5.45526218

>  <minimizedRMSD>  (1) 
0.586091101

$$$$
