
     RDKit          3D

 23 24  0  0  0  0  0  0  0  0999 V2000
   37.4680   31.4650   49.3950 C   0  0  0  0  0  0  0  0  0  0  0  0
   37.8240   32.7660   49.7890 C   0  0  0  0  0  0  0  0  0  0  0  0
   38.6720   33.4470   48.8990 C   0  0  0  0  0  0  0  0  0  0  0  0
   39.0880   32.8350   47.7460 N   0  0  0  0  0  0  0  0  0  0  0  0
   38.7060   31.5670   47.4230 C   0  0  0  0  0  0  0  0  0  0  0  0
   37.8830   30.8860   48.2730 N   0  0  0  0  0  0  0  0  0  0  0  0
   36.5340   30.7240   50.3190 C   0  0  0  0  0  0  0  0  0  0  0  0
   36.5400   29.2680   50.3970 C   0  0  0  0  0  0  0  0  0  0  0  0
   37.2600   30.0390   51.4670 C   0  0  0  0  0  0  0  0  0  0  0  0
   39.0950   30.9170   46.2870 O   0  0  0  0  0  0  0  0  0  0  0  0
   40.2190   30.6180   43.9880 O   0  0  0  0  0  0  0  0  0  0  0  0
   40.4370   31.3100   45.3360 P   0  0  0  0  0  0  0  0  0  0  0  0
   40.5990   32.9550   45.0420 O   0  0  0  0  0  0  0  0  0  0  0  0
   41.8900   30.6880   45.9400 O   0  0  0  0  0  0  0  0  0  0  0  0
   37.4652   33.2182   50.7254 H   0  0  0  0  0  0  0  0  0  0  0  0
   39.0017   34.4711   49.1280 H   0  0  0  0  0  0  0  0  0  0  0  0
   35.7115   31.4396   50.1729 H   0  0  0  0  0  0  0  0  0  0  0  0
   35.6116   28.7317   50.6430 H   0  0  0  0  0  0  0  0  0  0  0  0
   36.8296   28.4640   49.7044 H   0  0  0  0  0  0  0  0  0  0  0  0
   38.3592   30.0386   51.5089 H   0  0  0  0  0  0  0  0  0  0  0  0
   37.2270   30.0876   52.5654 H   0  0  0  0  0  0  0  0  0  0  0  0
   40.6469   33.4410   45.9032 H   0  0  0  0  0  0  0  0  0  0  0  0
   41.8671   30.6978   46.9297 H   0  0  0  0  0  0  0  0  0  0  0  0
  1  2  2  0
  1  7  1  0
  3  2  1  0
  4  3  2  0
  5  4  1  0
  5  6  2  0
  6  1  1  0
  7  8  1  0
  7  9  1  0
  8  9  1  0
 10  5  1  0
 11 12  2  0
 12 14  1  0
 12 10  1  0
 13 12  1  0
  2 15  1  0
  3 16  1  0
  7 17  1  0
  8 18  1  0
  8 19  1  0
  9 20  1  0
  9 21  1  0
 13 22  1  0
 14 23  1  0
M  ISO  8  15  14  16  14  17  13  18  13  19  13  20  13  21  13  22   3
M  ISO  1  23   3
M  END
>  <minimizedAffinity>  (1) 
-5.40354156

>  <minimizedRMSD>  (1) 
0.996412992

$$$$
