
     RDKit          3D

 18 19  0  0  0  0  0  0  0  0999 V2000
   37.1880   31.3170   49.3260 C   0  0  0  0  0  0  0  0  0  0  0  0
   37.3180   32.6480   49.7860 C   0  0  0  0  0  0  0  0  0  0  0  0
   38.2850   33.3880   49.1300 C   0  0  0  0  0  0  0  0  0  0  0  0
   39.0280   32.8550   48.1330 N   0  0  0  0  0  0  0  0  0  0  0  0
   38.8730   31.5740   47.7200 C   0  0  0  0  0  0  0  0  0  0  0  0
   37.9360   30.7980   48.3310 N   0  0  0  0  0  0  0  0  0  0  0  0
   36.1420   30.4530   49.9870 C   0  0  0  0  0  0  0  0  0  0  0  0
   36.1620   29.0030   49.8450 C   0  0  0  0  0  0  0  0  0  0  0  0
   36.7050   29.6040   51.1100 C   0  0  0  0  0  0  0  0  0  0  0  0
   39.6750   31.1120   46.6940 O   0  0  0  0  0  0  0  0  0  0  0  0
   36.7013   33.0605   50.5981 H   0  0  0  0  0  0  0  0  0  0  0  0
   38.4538   34.4340   49.4258 H   0  0  0  0  0  0  0  0  0  0  0  0
   35.3369   31.1867   49.8338 H   0  0  0  0  0  0  0  0  0  0  0  0
   35.2177   28.4394   49.8704 H   0  0  0  0  0  0  0  0  0  0  0  0
   36.5625   28.3106   49.0899 H   0  0  0  0  0  0  0  0  0  0  0  0
   37.7864   29.5938   51.3111 H   0  0  0  0  0  0  0  0  0  0  0  0
   36.5125   29.4882   52.1868 H   0  0  0  0  0  0  0  0  0  0  0  0
   39.5814   30.1799   46.3739 H   0  0  0  0  0  0  0  0  0  0  0  0
  1  2  2  0
  1  7  1  0
  3  2  1  0
  4  3  2  0
  5  4  1  0
  5  6  2  0
  6  1  1  0
  7  9  1  0
  8  7  1  0
  8  9  1  0
 10  5  1  0
  2 11  1  0
  3 12  1  0
  7 13  1  0
  8 14  1  0
  8 15  1  0
  9 16  1  0
  9 17  1  0
 10 18  1  0
M  ISO  8  11  14  12  14  13  13  14  13  15  13  16  13  17  13  18   3
M  END
>  <minimizedAffinity>  (1) 
-4.54651594

>  <minimizedRMSD>  (1) 
0.366942257

$$$$
