
     RDKit          3D

 19 20  0  0  0  0  0  0  0  0999 V2000
   37.3490   31.3590   49.2030 C   0  0  0  0  0  0  0  0  0  0  0  0
   37.6900   32.6730   49.6040 C   0  0  0  0  0  0  0  0  0  0  0  0
   38.5800   33.3430   48.7830 C   0  0  0  0  0  0  0  0  0  0  0  0
   39.0650   32.7300   47.6710 N   0  0  0  0  0  0  0  0  0  0  0  0
   38.7180   31.4710   47.3150 C   0  0  0  0  0  0  0  0  0  0  0  0
   37.8490   30.7820   48.0930 N   0  0  0  0  0  0  0  0  0  0  0  0
   36.3680   30.6200   50.0770 C   0  0  0  0  0  0  0  0  0  0  0  0
   36.3100   29.1620   50.0340 C   0  0  0  0  0  0  0  0  0  0  0  0
   37.0430   29.8090   51.1630 C   0  0  0  0  0  0  0  0  0  0  0  0
   39.2860   30.8930   46.1070 C   0  0  0  0  0  0  0  0  0  0  0  0
   40.4980   31.0330   45.8760 O   0  0  0  0  0  0  0  0  0  0  0  0
   37.2733   33.1331   50.5121 H   0  0  0  0  0  0  0  0  0  0  0  0
   38.8938   34.3681   49.0295 H   0  0  0  0  0  0  0  0  0  0  0  0
   35.5876   31.3911   49.9973 H   0  0  0  0  0  0  0  0  0  0  0  0
   35.3565   28.6483   50.2261 H   0  0  0  0  0  0  0  0  0  0  0  0
   36.5738   28.4050   49.2808 H   0  0  0  0  0  0  0  0  0  0  0  0
   38.1405   29.7559   51.2154 H   0  0  0  0  0  0  0  0  0  0  0  0
   36.9959   29.7673   52.2612 H   0  0  0  0  0  0  0  0  0  0  0  0
   38.6477   30.3370   45.4046 H   0  0  0  0  0  0  0  0  0  0  0  0
  1  2  2  0
  1  7  1  0
  3  2  1  0
  4  3  2  0
  5  4  1  0
  5  6  2  0
  6  1  1  0
  7  9  1  0
  8  7  1  0
  8  9  1  0
 10  5  1  0
 11 10  2  0
  2 12  1  0
  3 13  1  0
  7 14  1  0
  8 15  1  0
  8 16  1  0
  9 17  1  0
  9 18  1  0
 10 19  1  0
M  ISO  8  12  14  13  14  14  13  15  13  16  13  17  13  18  13  19   6
M  END
>  <minimizedAffinity>  (1) 
-4.51691771

>  <minimizedRMSD>  (1) 
0.524816453

$$$$
