
     RDKit          3D

 21 22  0  0  1  0  0  0  0  0999 V2000
   36.8780   31.2280   49.0450 C   0  0  0  0  0  0  0  0  0  0  0  0
   37.0430   32.4400   49.7270 C   0  0  0  0  0  0  0  0  0  0  0  0
   38.1340   33.2060   49.3220 C   0  0  0  0  0  0  0  0  0  0  0  0
   38.9390   32.7550   48.3300 N   0  0  0  0  0  0  0  0  0  0  0  0
   38.7440   31.5870   47.7010 C   0  0  0  0  0  0  0  0  0  0  0  0
   37.6860   30.7970   48.0650 N   0  0  0  0  0  0  0  0  0  0  0  0
   39.5710   31.1220   46.6560 N   0  0  0  0  0  0  0  0  0  0  0  0
   35.6870   30.3910   49.4380 C   0  0  1  0  0  0  0  0  0  0  0  0
   35.6650   28.9650   49.2340 C   0  0  0  0  0  0  0  0  0  0  0  0
   35.9740   29.4710   50.6250 C   0  0  1  0  0  0  0  0  0  0  0  0
   37.3650   29.3980   51.1430 C   0  0  0  0  0  0  0  0  0  0  0  0
   37.4660   29.9210   52.2630 O   0  0  0  0  0  0  0  0  0  0  0  0
   36.3597   32.7642   50.5258 H   0  0  0  0  0  0  0  0  0  0  0  0
   38.3408   34.1723   49.8053 H   0  0  0  0  0  0  0  0  0  0  0  0
   40.3782   31.6835   46.3493 H   0  0  0  0  0  0  0  0  0  0  0  0
   39.3673   30.2211   46.2001 H   0  0  0  0  0  0  0  0  0  0  0  0
   34.9634   31.1703   49.1567 H   0  0  0  0  0  0  0  0  0  0  0  0
   34.7080   28.4584   49.0401 H   0  0  0  0  0  0  0  0  0  0  0  0
   36.1769   28.2850   48.5372 H   0  0  0  0  0  0  0  0  0  0  0  0
   35.5669   29.3079   51.6338 H   0  0  0  0  0  0  0  0  0  0  0  0
   38.2026   28.9365   50.5995 H   0  0  0  0  0  0  0  0  0  0  0  0
  1  8  1  0
  1  2  2  0
  3  2  1  0
  4  3  2  0
  5  6  2  0
  5  4  1  0
  6  1  1  0
  7  5  1  0
  8 10  1  0
  9  8  1  0
  9 10  1  0
 10 11  1  0
 11 12  2  0
  2 13  1  0
  3 14  1  0
  7 15  1  0
  7 16  1  0
  8 17  1  1
  9 18  1  0
  9 19  1  0
 10 20  1  1
 11 21  1  0
M  ISO  7  13  14  14  14  17  13  18  13  19  13  20  13  21   6
M  END
>  <minimizedAffinity>  (1) 
-5.03638792

>  <minimizedRMSD>  (1) 
0.715425491

$$$$
