
     RDKit          3D

 20 21  0  0  1  0  0  0  0  0999 V2000
   37.1730   31.3110   49.2730 C   0  0  0  0  0  0  0  0  0  0  0  0
   37.2950   32.6060   49.7890 C   0  0  0  0  0  0  0  0  0  0  0  0
   38.2520   33.3780   49.1780 C   0  0  0  0  0  0  0  0  0  0  0  0
   39.0030   32.9060   48.1600 N   0  0  0  0  0  0  0  0  0  0  0  0
   38.8630   31.6530   47.6820 C   0  0  0  0  0  0  0  0  0  0  0  0
   37.9300   30.8390   48.2500 N   0  0  0  0  0  0  0  0  0  0  0  0
   39.6260   31.1290   46.6150 N   0  0  0  0  0  0  0  0  0  0  0  0
   36.1150   30.4110   49.8880 C   0  0  1  0  0  0  0  0  0  0  0  0
   36.0390   29.0160   49.5320 C   0  0  0  0  0  0  0  0  0  0  0  0
   36.7580   29.3560   50.8020 C   0  0  1  0  0  0  0  0  0  0  0  0
   38.1210   29.2890   50.8950 O   0  0  0  0  0  0  0  0  0  0  0  0
   36.6738   32.9760   50.6180 H   0  0  0  0  0  0  0  0  0  0  0  0
   38.4112   34.4089   49.5273 H   0  0  0  0  0  0  0  0  0  0  0  0
   39.4700   30.1619   46.2966 H   0  0  0  0  0  0  0  0  0  0  0  0
   40.3383   31.7140   46.1553 H   0  0  0  0  0  0  0  0  0  0  0  0
   35.3375   31.1881   49.9298 H   0  0  0  0  0  0  0  0  0  0  0  0
   35.0705   28.4968   49.5804 H   0  0  0  0  0  0  0  0  0  0  0  0
   36.3139   28.4453   48.6327 H   0  0  0  0  0  0  0  0  0  0  0  0
   36.6828   29.0418   51.8535 H   0  0  0  0  0  0  0  0  0  0  0  0
   38.3864   29.2760   51.8487 H   0  0  0  0  0  0  0  0  0  0  0  0
  1  2  2  0
  1  8  1  0
  3  2  1  0
  4  3  2  0
  5  4  1  0
  5  6  2  0
  6  1  1  0
  7  5  1  0
  8 10  1  0
  9  8  1  0
  9 10  1  0
 10 11  1  0
  2 12  1  0
  3 13  1  0
  7 14  1  0
  7 15  1  0
  8 16  1  1
  9 17  1  0
  9 18  1  0
 10 19  1  1
 11 20  1  0
M  ISO  7  12  14  13  14  16  13  17  13  18  13  19  13  20   3
M  END
>  <minimizedAffinity>  (1) 
-4.91169643

>  <minimizedRMSD>  (1) 
0.17403695

$$$$
