
     RDKit          3D

 20 21  0  0  1  0  0  0  0  0999 V2000
   36.8070   31.2250   49.0130 C   0  0  0  0  0  0  0  0  0  0  0  0
   36.9850   32.4180   49.7200 C   0  0  0  0  0  0  0  0  0  0  0  0
   38.0860   33.1560   49.3660 C   0  0  0  0  0  0  0  0  0  0  0  0
   38.9150   32.7070   48.3820 N   0  0  0  0  0  0  0  0  0  0  0  0
   38.7160   31.5580   47.7210 C   0  0  0  0  0  0  0  0  0  0  0  0
   37.6360   30.7870   48.0370 N   0  0  0  0  0  0  0  0  0  0  0  0
   39.5720   31.1030   46.6890 N   0  0  0  0  0  0  0  0  0  0  0  0
   35.5820   30.3930   49.3580 C   0  0  1  0  0  0  0  0  0  0  0  0
   35.6030   28.9570   49.2400 C   0  0  0  0  0  0  0  0  0  0  0  0
   35.8140   29.5470   50.6170 C   0  0  1  0  0  0  0  0  0  0  0  0
   37.4480   29.5280   51.3500 S   0  0  0  0  0  0  0  0  0  0  0  0
   36.2889   32.7431   50.5073 H   0  0  0  0  0  0  0  0  0  0  0  0
   38.2990   34.1076   49.8751 H   0  0  0  0  0  0  0  0  0  0  0  0
   40.3976   31.6582   46.4224 H   0  0  0  0  0  0  0  0  0  0  0  0
   39.3691   30.2168   46.2049 H   0  0  0  0  0  0  0  0  0  0  0  0
   34.8627   31.1340   48.9791 H   0  0  0  0  0  0  0  0  0  0  0  0
   34.6708   28.4169   49.0179 H   0  0  0  0  0  0  0  0  0  0  0  0
   36.1724   28.2513   48.6173 H   0  0  0  0  0  0  0  0  0  0  0  0
   35.3482   29.4341   51.6071 H   0  0  0  0  0  0  0  0  0  0  0  0
   37.3360   29.5293   52.7154 H   0  0  0  0  0  0  0  0  0  0  0  0
  1  8  1  0
  1  2  2  0
  3  2  1  0
  4  3  2  0
  5  6  2  0
  5  4  1  0
  6  1  1  0
  7  5  1  0
  8 10  1  0
  9  8  1  0
  9 10  1  0
 10 11  1  0
  2 12  1  0
  3 13  1  0
  7 14  1  0
  7 15  1  0
  8 16  1  1
  9 17  1  0
  9 18  1  0
 10 19  1  1
 11 20  1  0
M  ISO  7  12  14  13  14  16  13  17  13  18  13  19  13  20  11
M  END
>  <minimizedAffinity>  (1) 
-4.5515027

>  <minimizedRMSD>  (1) 
0.553744197

$$$$
