
     RDKit          3D

 38 41  0  0  1  0  0  0  0  0999 V2000
   35.1170   28.0990   49.6600 O   0  0  0  0  0  0  0  0  0  0  0  0
   37.1080   29.4670   49.7980 C   0  0  1  0  0  0  0  0  0  0  0  0
   36.3900   29.6710   51.0340 C   0  0  0  0  0  0  0  0  0  0  0  0
   35.6440   29.3920   49.7690 C   0  0  2  0  0  0  0  0  0  0  0  0
   37.7410   30.6200   49.0730 C   0  0  0  0  0  0  0  0  0  0  0  0
   37.9430   31.7900   49.8310 C   0  0  0  0  0  0  0  0  0  0  0  0
   38.5340   32.8290   49.1510 C   0  0  0  0  0  0  0  0  0  0  0  0
   38.8790   32.6760   47.8350 N   0  0  0  0  0  0  0  0  0  0  0  0
   38.6670   31.5400   47.1500 C   0  0  0  0  0  0  0  0  0  0  0  0
   38.0800   30.4800   47.7920 N   0  0  0  0  0  0  0  0  0  0  0  0
   39.0370   31.3600   45.8130 N   0  0  0  0  0  0  0  0  0  0  0  0
   33.8060   26.6740   47.9560 O   0  0  0  0  0  0  0  0  0  0  0  0
   33.9000   28.0510   48.5280 P   0  0  1  0  0  0  0  0  0  0  0  0
   32.3790   28.3300   49.3030 O   0  0  0  0  0  0  0  0  0  0  0  0
   34.1760   29.2440   47.3740 O   0  0  0  0  0  0  0  0  0  0  0  0
   33.1520   31.1300   46.0700 N   0  0  0  0  0  0  0  0  0  0  0  0
   33.2180   29.9170   46.6660 C   0  0  0  0  0  0  0  0  0  0  0  0
   32.0270   29.3160   46.4590 N   0  0  0  0  0  0  0  0  0  0  0  0
   31.2650   30.1730   45.7450 C   0  0  0  0  0  0  0  0  0  0  0  0
   29.9590   30.0190   45.2810 C   0  0  0  0  0  0  0  0  0  0  0  0
   29.4050   31.0360   44.5780 N   0  0  0  0  0  0  0  0  0  0  0  0
   30.1560   32.1540   44.3620 C   0  0  0  0  0  0  0  0  0  0  0  0
   31.4180   32.3280   44.7990 N   0  0  0  0  0  0  0  0  0  0  0  0
   31.9670   31.3350   45.4890 C   0  0  0  0  0  0  0  0  0  0  0  0
   29.2730   28.7940   45.5730 N   0  0  0  0  0  0  0  0  0  0  0  0
   37.9405   28.8022   49.5240 H   0  0  0  0  0  0  0  0  0  0  0  0
   36.4324   28.9102   51.8273 H   0  0  0  0  0  0  0  0  0  0  0  0
   36.3614   30.4634   51.7964 H   0  0  0  0  0  0  0  0  0  0  0  0
   34.8391   29.8840   49.2032 H   0  0  0  0  0  0  0  0  0  0  0  0
   37.6498   31.8669   50.8884 H   0  0  0  0  0  0  0  0  0  0  0  0
   38.7294   33.7822   49.6640 H   0  0  0  0  0  0  0  0  0  0  0  0
   39.4809   32.1305   45.2933 H   0  0  0  0  0  0  0  0  0  0  0  0
   38.8655   30.4569   45.3483 H   0  0  0  0  0  0  0  0  0  0  0  0
   32.5002   28.3078   50.2853 H   0  0  0  0  0  0  0  0  0  0  0  0
   33.9229   31.8131   46.0650 H   0  0  0  0  0  0  0  0  0  0  0  0
   29.6974   32.9734   43.7890 H   0  0  0  0  0  0  0  0  0  0  0  0
   28.3076   28.6530   45.2427 H   0  0  0  0  0  0  0  0  0  0  0  0
   29.7457   28.0551   46.1130 H   0  0  0  0  0  0  0  0  0  0  0  0
  1  4  1  0
  2  3  1  0
  4  2  1  0
  4  3  1  0
  5  2  1  0
  5  6  2  0
  7  6  1  0
  8  7  2  0
  9 10  2  0
  9  8  1  0
 10  5  1  0
 11  9  1  0
 13 12  2  0
 13 14  1  0
 13  1  1  0
 15 13  1  0
 16 17  1  0
 17 15  1  0
 18 17  2  0
 19 18  1  0
 20 25  1  0
 20 19  2  0
 21 20  1  0
 22 21  2  0
 22 23  1  0
 23 24  2  0
 24 19  1  0
 24 16  1  0
  2 26  1  1
  3 27  1  0
  3 28  1  0
  4 29  1  6
  6 30  1  0
  7 31  1  0
 11 32  1  0
 11 33  1  0
 14 34  1  0
 16 35  1  0
 22 36  1  0
 25 37  1  0
 25 38  1  0
M  ISO  8  26  13  27  13  28  13  29  13  30  14  31  14  34   3  35   9
M  ISO  1  36  14
M  END
>  <minimizedAffinity>  (1) 
-6.14610386

>  <minimizedRMSD>  (1) 
4.58127832

$$$$
