
     RDKit          3D

 41 44  0  0  1  0  0  0  0  0999 V2000
   36.7700   29.4330   49.9940 C   0  0  1  0  0  0  0  0  0  0  0  0
   36.1510   29.5200   51.2960 C   0  0  0  0  0  0  0  0  0  0  0  0
   35.3060   29.4370   50.0680 C   0  0  2  0  0  0  0  0  0  0  0  0
   37.4130   30.6380   49.3660 C   0  0  0  0  0  0  0  0  0  0  0  0
   37.1260   31.8750   49.9730 C   0  0  0  0  0  0  0  0  0  0  0  0
   37.7250   32.9670   49.3910 C   0  0  0  0  0  0  0  0  0  0  0  0
   38.5260   32.8080   48.3120 N   0  0  0  0  0  0  0  0  0  0  0  0
   38.7830   31.5950   47.7510 C   0  0  0  0  0  0  0  0  0  0  0  0
   38.2040   30.4780   48.3020 N   0  0  0  0  0  0  0  0  0  0  0  0
   39.6270   31.3980   46.6510 N   0  0  0  0  0  0  0  0  0  0  0  0
   34.6910   28.2040   49.8440 O   0  0  0  0  0  0  0  0  0  0  0  0
   33.8320   27.1060   47.6770 O   0  0  0  0  0  0  0  0  0  0  0  0
   33.6330   28.2920   48.5620 P   0  0  1  0  0  0  0  0  0  0  0  0
   32.0090   28.1440   49.1500 O   0  0  0  0  0  0  0  0  0  0  0  0
   33.8050   29.7690   47.7900 O   0  0  0  0  0  0  0  0  0  0  0  0
   34.2760   30.0140   46.5420 C   0  0  0  0  0  0  0  0  0  0  0  0
   35.5960   29.9890   46.1580 C   0  0  0  0  0  0  0  0  0  0  0  0
   35.9230   30.2620   44.8430 C   0  0  0  0  0  0  0  0  0  0  0  0
   34.9540   30.5590   43.9020 C   0  0  0  0  0  0  0  0  0  0  0  0
   33.6320   30.5860   44.2760 C   0  0  0  0  0  0  0  0  0  0  0  0
   32.6580   30.8820   43.3450 C   0  0  0  0  0  0  0  0  0  0  0  0
   31.3230   30.9180   43.6850 C   0  0  0  0  0  0  0  0  0  0  0  0
   30.9680   30.6500   44.9910 C   0  0  0  0  0  0  0  0  0  0  0  0
   31.9370   30.3540   45.9250 C   0  0  0  0  0  0  0  0  0  0  0  0
   33.2950   30.3130   45.5970 C   0  0  0  0  0  0  0  0  0  0  0  0
   37.5413   28.7659   49.5818 H   0  0  0  0  0  0  0  0  0  0  0  0
   36.2019   28.6663   51.9878 H   0  0  0  0  0  0  0  0  0  0  0  0
   36.2218   30.2132   52.1471 H   0  0  0  0  0  0  0  0  0  0  0  0
   34.4954   30.0358   49.6270 H   0  0  0  0  0  0  0  0  0  0  0  0
   36.4689   31.9619   50.8509 H   0  0  0  0  0  0  0  0  0  0  0  0
   37.5528   33.9722   49.8033 H   0  0  0  0  0  0  0  0  0  0  0  0
   40.0851   32.2041   46.2025 H   0  0  0  0  0  0  0  0  0  0  0  0
   39.7897   30.4470   46.2905 H   0  0  0  0  0  0  0  0  0  0  0  0
   32.0151   28.1446   50.1400 H   0  0  0  0  0  0  0  0  0  0  0  0
   36.3834   29.7543   46.8894 H   0  0  0  0  0  0  0  0  0  0  0  0
   36.9796   30.2426   44.5376 H   0  0  0  0  0  0  0  0  0  0  0  0
   35.2396   30.7721   42.8613 H   0  0  0  0  0  0  0  0  0  0  0  0
   32.9539   31.0942   42.3070 H   0  0  0  0  0  0  0  0  0  0  0  0
   30.5573   31.1552   42.9317 H   0  0  0  0  0  0  0  0  0  0  0  0
   29.9089   30.6727   45.2874 H   0  0  0  0  0  0  0  0  0  0  0  0
   31.6323   30.1435   46.9608 H   0  0  0  0  0  0  0  0  0  0  0  0
  1  3  1  0
  1  2  1  0
  3  2  1  0
  4  5  2  0
  4  1  1  0
  6  5  1  0
  7  6  2  0
  8  9  2  0
  8  7  1  0
  9  4  1  0
 10  8  1  0
 11  3  1  0
 13 12  2  0
 13 14  1  0
 13 11  1  0
 15 13  1  0
 16 15  1  0
 17 16  2  0
 18 17  1  0
 19 20  1  0
 19 18  2  0
 20 25  2  0
 21 22  2  0
 21 20  1  0
 22 23  1  0
 23 24  2  0
 25 24  1  0
 25 16  1  0
  1 26  1  1
  2 27  1  0
  2 28  1  0
  3 29  1  6
  5 30  1  0
  6 31  1  0
 10 32  1  0
 10 33  1  0
 14 34  1  0
 17 35  1  0
 18 36  1  0
 19 37  1  0
 21 38  1  0
 22 39  1  0
 23 40  1  0
 24 41  1  0
M  ISO  8  26  13  27  13  28  13  29  13  30  14  31  14  34   3  35  14
M  ISO  6  36  14  37  14  38  14  39  14  40  14  41  14
M  END
>  <minimizedAffinity>  (1) 
-6.09968996

>  <minimizedRMSD>  (1) 
3.65434837

$$$$
