
     RDKit          3D

 37 39  0  0  1  0  0  0  0  0999 V2000
   36.1610   30.2360   49.7280 C   0  0  1  0  0  0  0  0  0  0  0  0
   34.7740   30.6250   49.8180 C   0  0  0  0  0  0  0  0  0  0  0  0
   35.2130   29.6360   48.7810 C   0  0  2  0  0  0  0  0  0  0  0  0
   37.1900   31.1670   49.1490 C   0  0  0  0  0  0  0  0  0  0  0  0
   37.2660   32.4410   49.7400 C   0  0  0  0  0  0  0  0  0  0  0  0
   38.2130   33.2760   49.1930 C   0  0  0  0  0  0  0  0  0  0  0  0
   38.9880   32.8570   48.1670 N   0  0  0  0  0  0  0  0  0  0  0  0
   38.8830   31.6200   47.6260 C   0  0  0  0  0  0  0  0  0  0  0  0
   37.9500   30.7580   48.1430 N   0  0  0  0  0  0  0  0  0  0  0  0
   39.6930   31.1590   46.5840 N   0  0  0  0  0  0  0  0  0  0  0  0
   34.8710   28.3050   49.0580 O   0  0  0  0  0  0  0  0  0  0  0  0
   33.7240   26.3110   47.8980 O   0  0  0  0  0  0  0  0  0  0  0  0
   33.6270   27.7920   48.0770 P   0  0  1  0  0  0  0  0  0  0  0  0
   32.1170   28.0630   48.8630 O   0  0  0  0  0  0  0  0  0  0  0  0
   33.6970   28.6530   46.6280 O   0  0  0  0  0  0  0  0  0  0  0  0
   32.0850   30.3160   45.8250 C   0  0  0  0  0  0  0  0  0  0  0  0
   32.5440   29.0070   45.9010 C   0  0  0  0  0  0  0  0  0  0  0  0
   31.8190   28.0390   45.2260 C   0  0  0  0  0  0  0  0  0  0  0  0
   30.6800   28.2880   44.4880 C   0  0  0  0  0  0  0  0  0  0  0  0
   30.2400   29.6060   44.4290 C   0  0  0  0  0  0  0  0  0  0  0  0
   30.9420   30.6030   45.0940 C   0  0  0  0  0  0  0  0  0  0  0  0
   32.7770   31.3220   46.4860 O   0  0  0  0  0  0  0  0  0  0  0  0
   30.4690   31.8960   45.0060 O   0  0  0  0  0  0  0  0  0  0  0  0
   36.8753   29.8643   50.4774 H   0  0  0  0  0  0  0  0  0  0  0  0
   34.1636   30.2938   50.6711 H   0  0  0  0  0  0  0  0  0  0  0  0
   34.2307   31.5813   49.8015 H   0  0  0  0  0  0  0  0  0  0  0  0
   35.1354   29.5511   47.6870 H   0  0  0  0  0  0  0  0  0  0  0  0
   36.6184   32.7463   50.5751 H   0  0  0  0  0  0  0  0  0  0  0  0
   38.3407   34.2925   49.5935 H   0  0  0  0  0  0  0  0  0  0  0  0
   40.4044   31.7793   46.1716 H   0  0  0  0  0  0  0  0  0  0  0  0
   39.5784   30.1991   46.2286 H   0  0  0  0  0  0  0  0  0  0  0  0
   32.2468   28.0397   49.8442 H   0  0  0  0  0  0  0  0  0  0  0  0
   32.1758   27.0000   45.2821 H   0  0  0  0  0  0  0  0  0  0  0  0
   30.1437   27.4797   43.9692 H   0  0  0  0  0  0  0  0  0  0  0  0
   29.3360   29.8589   43.8556 H   0  0  0  0  0  0  0  0  0  0  0  0
   32.4569   32.2575   46.4371 H   0  0  0  0  0  0  0  0  0  0  0  0
   30.9460   32.6301   45.4682 H   0  0  0  0  0  0  0  0  0  0  0  0
  1  2  1  0
  3 11  1  0
  3  1  1  0
  3  2  1  0
  4  1  1  0
  4  5  2  0
  6  5  1  0
  7  6  2  0
  8  9  2  0
  8  7  1  0
  9  4  1  0
 10  8  1  0
 13 12  2  0
 13 14  1  0
 13 11  1  0
 15 13  1  0
 16 17  2  0
 16 22  1  0
 17 15  1  0
 18 17  1  0
 19 18  2  0
 20 19  1  0
 20 21  2  0
 21 16  1  0
 23 21  1  0
  1 24  1  1
  2 25  1  0
  2 26  1  0
  3 27  1  6
  5 28  1  0
  6 29  1  0
 10 30  1  0
 10 31  1  0
 14 32  1  0
 18 33  1  0
 19 34  1  0
 20 35  1  0
 22 36  1  0
 23 37  1  0
M  ISO  8  24  13  25  13  26  13  27  13  28  14  29  14  32   3  33  14
M  ISO  4  34  14  35  14  36   3  37   3
M  END
>  <minimizedAffinity>  (1) 
-5.71920013

>  <minimizedRMSD>  (1) 
2.08038163

$$$$
