
     RDKit          3D

 34 36  0  0  0  0  0  0  0  0999 V2000
   38.1440   30.4260   46.8860 Cl  0  0  0  0  0  0  0  0  0  0  0  0
   38.6740   31.8850   47.6820 C   0  0  0  0  0  0  0  0  0  0  0  0
   38.2880   32.1000   48.9780 C   0  0  0  0  0  0  0  0  0  0  0  0
   38.7400   33.2760   49.5530 C   0  0  0  0  0  0  0  0  0  0  0  0
   39.5330   34.1640   48.8470 C   0  0  0  0  0  0  0  0  0  0  0  0
   39.9030   33.9120   47.5390 C   0  0  0  0  0  0  0  0  0  0  0  0
   39.4550   32.7370   46.9520 C   0  0  0  0  0  0  0  0  0  0  0  0
   37.9550   30.4980   50.8580 C   0  0  0  0  0  0  0  0  0  0  0  0
   37.4510   31.1880   49.7560 C   0  0  0  0  0  0  0  0  0  0  0  0
   36.1060   30.9830   49.4040 C   0  0  0  0  0  0  0  0  0  0  0  0
   35.3630   30.1270   50.1530 N   0  0  0  0  0  0  0  0  0  0  0  0
   35.8870   29.4760   51.2170 C   0  0  0  0  0  0  0  0  0  0  0  0
   37.1930   29.6640   51.5710 N   0  0  0  0  0  0  0  0  0  0  0  0
   39.8410   32.4860   45.6060 N   0  0  0  0  0  0  0  0  0  0  0  0
   40.9460   31.6270   45.2840 C   0  0  0  0  0  0  0  0  0  0  0  0
   40.7740   30.8570   44.0060 C   0  0  0  0  0  0  0  0  0  0  0  0
   39.5410   31.1720   43.3190 N   0  0  0  0  0  0  0  0  0  0  0  0
   39.4940   32.6350   43.1880 C   0  0  0  0  0  0  0  0  0  0  0  0
   39.0730   33.1350   44.5470 C   0  0  0  0  0  0  0  0  0  0  0  0
   38.4632   33.5091   50.5918 H   0  0  0  0  0  0  0  0  0  0  0  0
   39.8754   35.0879   49.3360 H   0  0  0  0  0  0  0  0  0  0  0  0
   40.5327   34.6206   46.9811 H   0  0  0  0  0  0  0  0  0  0  0  0
   39.0062   30.6441   51.1474 H   0  0  0  0  0  0  0  0  0  0  0  0
   35.6647   31.5039   48.5415 H   0  0  0  0  0  0  0  0  0  0  0  0
   35.2565   28.7899   51.8016 H   0  0  0  0  0  0  0  0  0  0  0  0
   41.8503   32.2468   45.1945 H   0  0  0  0  0  0  0  0  0  0  0  0
   41.0166   30.8853   46.0933 H   0  0  0  0  0  0  0  0  0  0  0  0
   41.6168   31.0915   43.3391 H   0  0  0  0  0  0  0  0  0  0  0  0
   40.7422   29.7888   44.2668 H   0  0  0  0  0  0  0  0  0  0  0  0
   39.5306   30.7315   42.3880 H   0  0  0  0  0  0  0  0  0  0  0  0
   40.4846   33.0312   42.9200 H   0  0  0  0  0  0  0  0  0  0  0  0
   38.8014   32.9570   42.3964 H   0  0  0  0  0  0  0  0  0  0  0  0
   39.2382   34.2214   44.5973 H   0  0  0  0  0  0  0  0  0  0  0  0
   38.0084   32.8992   44.6921 H   0  0  0  0  0  0  0  0  0  0  0  0
  1  2  1  0
  2  3  2  0
  3  4  1  0
  3  9  1  0
  5  4  2  0
  6  5  1  0
  7  6  2  0
  7  2  1  0
  8 13  2  0
  9  8  1  0
 10  9  2  0
 10 11  1  0
 11 12  2  0
 12 13  1  0
 14  7  1  0
 15 14  1  0
 16 15  1  0
 17 16  1  0
 18 17  1  0
 18 19  1  0
 19 14  1  0
  4 20  1  0
  5 21  1  0
  6 22  1  0
  8 23  1  0
 10 24  1  0
 12 25  1  0
 15 26  1  0
 15 27  1  0
 16 28  1  0
 16 29  1  0
 17 30  1  0
 18 31  1  0
 18 32  1  0
 19 33  1  0
 19 34  1  0
M  ISO  8  20  14  21  14  22  14  23  14  24  14  25  14  26  13  27  13
M  ISO  7  28  13  29  13  30   5  31  13  32  13  33  13  34  13
M  END
>  <minimizedAffinity>  (1) 
-6.47295237

>  <minimizedRMSD>  (1) 
0.351953238

$$$$
