
     RDKit          3D

 31 34  0  0  1  0  0  0  0  0999 V2000
   34.8910   28.2400   49.5280 C   0  0  2  0  0  0  0  0  0  0  0  0
   34.8280   29.5270   50.2180 C   0  0  0  0  0  0  0  0  0  0  0  0
   35.6570   29.3950   48.9720 C   0  0  2  0  0  0  0  0  0  0  0  0
   31.4590   27.6150   48.1940 C   0  0  0  0  0  0  0  0  0  0  0  0
   31.7360   26.7170   47.1450 C   0  0  0  0  0  0  0  0  0  0  0  0
   33.0900   26.3410   46.9050 C   0  0  0  0  0  0  0  0  0  0  0  0
   34.0490   26.8690   47.7070 N   0  0  0  0  0  0  0  0  0  0  0  0
   33.7570   27.7220   48.6990 C   0  0  0  0  0  0  0  0  0  0  0  0
   32.4770   28.1030   48.9550 N   0  0  0  0  0  0  0  0  0  0  0  0
   35.0410   30.1110   47.4200 S   0  0  0  0  0  0  0  0  0  0  0  0
   36.2380   30.4330   45.0080 C   0  0  0  0  0  0  0  0  0  0  0  0
   36.4570   30.4740   46.3800 C   0  0  0  0  0  0  0  0  0  0  0  0
   37.6880   30.7740   46.9300 C   0  0  0  0  0  0  0  0  0  0  0  0
   38.7290   31.0420   46.0720 C   0  0  0  0  0  0  0  0  0  0  0  0
   38.5140   31.0020   44.7100 C   0  0  0  0  0  0  0  0  0  0  0  0
   37.2860   30.7010   44.1560 C   0  0  0  0  0  0  0  0  0  0  0  0
   39.7110   31.3050   44.1080 O   0  0  0  0  0  0  0  0  0  0  0  0
   40.7440   31.4220   45.0520 C   0  0  0  0  0  0  0  0  0  0  0  0
   40.0590   31.3700   46.2800 O   0  0  0  0  0  0  0  0  0  0  0  0
   35.1147   27.2225   49.8811 H   0  0  0  0  0  0  0  0  0  0  0  0
   33.8985   30.1149   50.1988 H   0  0  0  0  0  0  0  0  0  0  0  0
   35.0230   29.8653   51.2463 H   0  0  0  0  0  0  0  0  0  0  0  0
   36.7037   29.6124   48.7129 H   0  0  0  0  0  0  0  0  0  0  0  0
   30.4224   27.9214   48.3980 H   0  0  0  0  0  0  0  0  0  0  0  0
   30.9234   26.3136   46.5230 H   0  0  0  0  0  0  0  0  0  0  0  0
   33.3495   25.6441   46.0944 H   0  0  0  0  0  0  0  0  0  0  0  0
   35.2422   30.1901   44.6088 H   0  0  0  0  0  0  0  0  0  0  0  0
   37.8313   30.7978   48.0204 H   0  0  0  0  0  0  0  0  0  0  0  0
   37.1486   30.6759   43.0649 H   0  0  0  0  0  0  0  0  0  0  0  0
   41.4577   30.5898   44.9620 H   0  0  0  0  0  0  0  0  0  0  0  0
   41.3424   32.3367   44.9282 H   0  0  0  0  0  0  0  0  0  0  0  0
  1  2  1  0
  3  1  1  0
  3  2  1  0
  4  9  2  0
  5  4  1  0
  6  5  2  0
  6  7  1  0
  7  8  2  0
  8  9  1  0
  8  1  1  0
 10  3  1  0
 11 12  2  0
 12 13  1  0
 12 10  1  0
 14 19  1  0
 14 13  2  0
 15 14  1  0
 16 15  2  0
 16 11  1  0
 17 15  1  0
 17 18  1  0
 18 19  1  0
  1 20  1  1
  2 21  1  0
  2 22  1  0
  3 23  1  1
  4 24  1  0
  5 25  1  0
  6 26  1  0
 11 27  1  0
 13 28  1  0
 16 29  1  0
 18 30  1  0
 18 31  1  0
M  ISO  8  20  13  21  13  22  13  23  13  24  14  25  14  26  14  27  14
M  ISO  4  28  14  29  14  30  13  31  13
M  END
>  <minimizedAffinity>  (1) 
-4.76458168

>  <minimizedRMSD>  (1) 
8.07283688

$$$$
