
     RDKit          3D

 27 29  0  0  0  0  0  0  0  0999 V2000
   37.8670   30.4430   46.9380 Cl  0  0  0  0  0  0  0  0  0  0  0  0
   38.4360   31.8470   47.8110 C   0  0  0  0  0  0  0  0  0  0  0  0
   38.0420   32.0100   49.1160 C   0  0  0  0  0  0  0  0  0  0  0  0
   38.5240   33.1450   49.7630 C   0  0  0  0  0  0  0  0  0  0  0  0
   39.3570   34.0380   49.0840 C   0  0  0  0  0  0  0  0  0  0  0  0
   39.7240   33.8340   47.7820 C   0  0  0  0  0  0  0  0  0  0  0  0
   39.2470   32.7130   47.1440 C   0  0  0  0  0  0  0  0  0  0  0  0
   37.6270   30.3740   50.9530 C   0  0  0  0  0  0  0  0  0  0  0  0
   37.1770   31.0930   49.8370 C   0  0  0  0  0  0  0  0  0  0  0  0
   35.8510   30.8950   49.4350 C   0  0  0  0  0  0  0  0  0  0  0  0
   35.0760   30.0270   50.1380 N   0  0  0  0  0  0  0  0  0  0  0  0
   35.5340   29.3570   51.1970 C   0  0  0  0  0  0  0  0  0  0  0  0
   36.8090   29.5280   51.6080 N   0  0  0  0  0  0  0  0  0  0  0  0
   39.6230   32.4740   45.7550 C   0  0  0  0  0  0  0  0  0  0  0  0
   40.6640   31.6920   45.2990 C   0  0  0  0  0  0  0  0  0  0  0  0
   40.6740   31.7320   43.9560 N   0  0  0  0  0  0  0  0  0  0  0  0
   39.6520   32.5320   43.5430 C   0  0  0  0  0  0  0  0  0  0  0  0
   39.0220   32.9750   44.6500 N   0  0  0  0  0  0  0  0  0  0  0  0
   38.2486   33.3388   50.8102 H   0  0  0  0  0  0  0  0  0  0  0  0
   39.7279   34.9296   49.6109 H   0  0  0  0  0  0  0  0  0  0  0  0
   40.3812   34.5456   47.2608 H   0  0  0  0  0  0  0  0  0  0  0  0
   38.6633   30.5026   51.2988 H   0  0  0  0  0  0  0  0  0  0  0  0
   35.4433   31.4320   48.5659 H   0  0  0  0  0  0  0  0  0  0  0  0
   34.8717   28.6639   51.7364 H   0  0  0  0  0  0  0  0  0  0  0  0
   41.3683   31.1296   45.9296 H   0  0  0  0  0  0  0  0  0  0  0  0
   41.3409   31.2413   43.3433 H   0  0  0  0  0  0  0  0  0  0  0  0
   39.3897   32.7717   42.5020 H   0  0  0  0  0  0  0  0  0  0  0  0
  1  2  1  0
  2  3  2  0
  3  4  1  0
  3  9  1  0
  5  4  2  0
  6  5  1  0
  7  6  2  0
  7  2  1  0
  8 13  2  0
  9  8  1  0
 10  9  2  0
 10 11  1  0
 11 12  2  0
 12 13  1  0
 14  7  1  0
 15 14  2  0
 16 15  1  0
 17 16  1  0
 17 18  2  0
 18 14  1  0
  4 19  1  0
  5 20  1  0
  6 21  1  0
  8 22  1  0
 10 23  1  0
 12 24  1  0
 15 25  1  0
 16 26  1  0
 17 27  1  0
M  ISO  8  19  14  20  14  21  14  22  14  23  14  24  14  25  14  26   9
M  ISO  1  27  14
M  END
>  <minimizedAffinity>  (1) 
-6.39620304

>  <minimizedRMSD>  (1) 
0.49254173

$$$$
