
     RDKit          3D

 32 34  0  0  0  0  0  0  0  0999 V2000
   37.8100   30.3000   46.9980 Cl  0  0  0  0  0  0  0  0  0  0  0  0
   38.3530   31.7140   47.8540 C   0  0  0  0  0  0  0  0  0  0  0  0
   37.9110   31.9090   49.1340 C   0  0  0  0  0  0  0  0  0  0  0  0
   38.3830   33.0580   49.7610 C   0  0  0  0  0  0  0  0  0  0  0  0
   39.2470   33.9250   49.0960 C   0  0  0  0  0  0  0  0  0  0  0  0
   39.6580   33.6780   47.8120 C   0  0  0  0  0  0  0  0  0  0  0  0
   39.1920   32.5290   47.1700 C   0  0  0  0  0  0  0  0  0  0  0  0
   37.4180   30.3050   50.9730 C   0  0  0  0  0  0  0  0  0  0  0  0
   37.0090   31.0180   49.8490 C   0  0  0  0  0  0  0  0  0  0  0  0
   35.6810   30.8490   49.4170 C   0  0  0  0  0  0  0  0  0  0  0  0
   34.8710   30.0080   50.1100 N   0  0  0  0  0  0  0  0  0  0  0  0
   35.3040   29.3390   51.1890 C   0  0  0  0  0  0  0  0  0  0  0  0
   36.5790   29.4840   51.6280 N   0  0  0  0  0  0  0  0  0  0  0  0
   39.6360   32.3000   45.8370 N   0  0  0  0  0  0  0  0  0  0  0  0
   40.1160   31.0440   45.2640 C   0  0  0  0  0  0  0  0  0  0  0  0
   40.6910   31.4760   43.9250 C   0  0  0  0  0  0  0  0  0  0  0  0
   39.6720   32.5540   43.5520 C   0  0  0  0  0  0  0  0  0  0  0  0
   39.6670   33.3450   44.8290 C   0  0  0  0  0  0  0  0  0  0  0  0
   38.0710   33.2838   50.7914 H   0  0  0  0  0  0  0  0  0  0  0  0
   39.6071   34.8271   49.6123 H   0  0  0  0  0  0  0  0  0  0  0  0
   40.3408   34.3706   47.2980 H   0  0  0  0  0  0  0  0  0  0  0  0
   38.4514   30.4161   51.3332 H   0  0  0  0  0  0  0  0  0  0  0  0
   35.3059   31.3879   48.5345 H   0  0  0  0  0  0  0  0  0  0  0  0
   34.6177   28.6657   51.7234 H   0  0  0  0  0  0  0  0  0  0  0  0
   40.8911   30.5905   45.8992 H   0  0  0  0  0  0  0  0  0  0  0  0
   39.3289   30.2812   45.1716 H   0  0  0  0  0  0  0  0  0  0  0  0
   41.7059   31.8878   44.0273 H   0  0  0  0  0  0  0  0  0  0  0  0
   40.8145   30.6710   43.1856 H   0  0  0  0  0  0  0  0  0  0  0  0
   40.0087   33.1582   42.6967 H   0  0  0  0  0  0  0  0  0  0  0  0
   38.6894   32.1777   43.2311 H   0  0  0  0  0  0  0  0  0  0  0  0
   40.5741   33.9606   44.9204 H   0  0  0  0  0  0  0  0  0  0  0  0
   38.8313   34.0563   44.9045 H   0  0  0  0  0  0  0  0  0  0  0  0
  1  2  1  0
  2  3  2  0
  3  4  1  0
  3  9  1  0
  5  4  2  0
  6  5  1  0
  7  6  2  0
  7  2  1  0
  8 13  2  0
  9  8  1  0
 10  9  2  0
 10 11  1  0
 11 12  2  0
 12 13  1  0
 14  7  1  0
 15 14  1  0
 16 15  1  0
 17 16  1  0
 17 18  1  0
 18 14  1  0
  4 19  1  0
  5 20  1  0
  6 21  1  0
  8 22  1  0
 10 23  1  0
 12 24  1  0
 15 25  1  0
 15 26  1  0
 16 27  1  0
 16 28  1  0
 17 29  1  0
 17 30  1  0
 18 31  1  0
 18 32  1  0
M  ISO  8  19  14  20  14  21  14  22  14  23  14  24  14  25  13  26  13
M  ISO  6  27  13  28  13  29  13  30  13  31  13  32  13
M  END
>  <minimizedAffinity>  (1) 
-6.2172904

>  <minimizedRMSD>  (1) 
0.62285924

$$$$
