
     RDKit          3D

 30 32  0  0  0  0  0  0  0  0999 V2000
   37.5310   30.4600   46.6030 Cl  0  0  0  0  0  0  0  0  0  0  0  0
   38.3540   31.8350   47.3280 C   0  0  0  0  0  0  0  0  0  0  0  0
   38.2350   32.0260   48.6820 C   0  0  0  0  0  0  0  0  0  0  0  0
   38.9090   33.1290   49.1800 C   0  0  0  0  0  0  0  0  0  0  0  0
   39.6450   33.9630   48.3470 C   0  0  0  0  0  0  0  0  0  0  0  0
   39.7300   33.7250   47.0040 C   0  0  0  0  0  0  0  0  0  0  0  0
   39.0640   32.6290   46.4810 C   0  0  0  0  0  0  0  0  0  0  0  0
   38.0870   30.5420   50.6780 C   0  0  0  0  0  0  0  0  0  0  0  0
   37.4650   31.1610   49.5780 C   0  0  0  0  0  0  0  0  0  0  0  0
   36.1120   30.9370   49.3570 C   0  0  0  0  0  0  0  0  0  0  0  0
   35.4640   30.1150   50.2400 N   0  0  0  0  0  0  0  0  0  0  0  0
   36.0720   29.5380   51.2780 C   0  0  0  0  0  0  0  0  0  0  0  0
   37.3900   29.7440   51.5110 N   0  0  0  0  0  0  0  0  0  0  0  0
   41.4870   31.0410   45.8650 Cl  0  0  0  0  0  0  0  0  0  0  0  0
   40.2890   31.6270   44.7190 C   0  0  0  0  0  0  0  0  0  0  0  0
   39.1550   32.3760   45.0490 C   0  0  0  0  0  0  0  0  0  0  0  0
   38.2990   32.7680   44.0380 C   0  0  0  0  0  0  0  0  0  0  0  0
   38.5780   32.4170   42.7370 C   0  0  0  0  0  0  0  0  0  0  0  0
   39.6930   31.6800   42.4000 C   0  0  0  0  0  0  0  0  0  0  0  0
   40.5520   31.2840   43.4080 C   0  0  0  0  0  0  0  0  0  0  0  0
   38.8606   33.3492   50.2567 H   0  0  0  0  0  0  0  0  0  0  0  0
   40.1684   34.8301   48.7762 H   0  0  0  0  0  0  0  0  0  0  0  0
   40.3152   34.3901   46.3519 H   0  0  0  0  0  0  0  0  0  0  0  0
   39.1583   30.7120   50.8608 H   0  0  0  0  0  0  0  0  0  0  0  0
   35.5843   31.3996   48.5099 H   0  0  0  0  0  0  0  0  0  0  0  0
   35.4960   28.8874   51.9524 H   0  0  0  0  0  0  0  0  0  0  0  0
   37.3999   33.3571   44.2715 H   0  0  0  0  0  0  0  0  0  0  0  0
   37.8891   32.7348   41.9404 H   0  0  0  0  0  0  0  0  0  0  0  0
   39.8948   31.4129   41.3522 H   0  0  0  0  0  0  0  0  0  0  0  0
   41.4478   30.6938   43.1647 H   0  0  0  0  0  0  0  0  0  0  0  0
  1  2  1  0
  2  3  2  0
  3  4  1  0
  3  9  1  0
  5  4  2  0
  6  5  1  0
  7  6  2  0
  7  2  1  0
  8 13  2  0
  9  8  1  0
 10  9  2  0
 10 11  1  0
 11 12  2  0
 12 13  1  0
 15 16  2  0
 15 14  1  0
 16  7  1  0
 17 16  1  0
 18 17  2  0
 19 18  1  0
 19 20  2  0
 20 15  1  0
  4 21  1  0
  5 22  1  0
  6 23  1  0
  8 24  1  0
 10 25  1  0
 12 26  1  0
 17 27  1  0
 18 28  1  0
 19 29  1  0
 20 30  1  0
M  ISO  8  21  14  22  14  23  14  24  14  25  14  26  14  27  14  28  14
M  ISO  2  29  14  30  14
M  END
>  <minimizedAffinity>  (1) 
-6.1184411

>  <minimizedRMSD>  (1) 
1.03845036

$$$$
