
     RDKit          3D

 33 35  0  0  0  0  0  0  0  0999 V2000
   37.9800   29.6120   44.4050 Cl  0  0  0  0  0  0  0  0  0  0  0  0
   38.8410   30.9660   45.1000 C   0  0  0  0  0  0  0  0  0  0  0  0
   38.5180   31.3710   46.3600 C   0  0  0  0  0  0  0  0  0  0  0  0
   39.2420   32.4560   46.8600 C   0  0  0  0  0  0  0  0  0  0  0  0
   40.2260   33.0610   46.0830 C   0  0  0  0  0  0  0  0  0  0  0  0
   40.5170   32.6200   44.8220 C   0  0  0  0  0  0  0  0  0  0  0  0
   39.8020   31.5480   44.3270 C   0  0  0  0  0  0  0  0  0  0  0  0
   37.7750   30.2860   48.4840 C   0  0  0  0  0  0  0  0  0  0  0  0
   37.4920   30.7510   47.1870 C   0  0  0  0  0  0  0  0  0  0  0  0
   36.1880   30.5910   46.7300 C   0  0  0  0  0  0  0  0  0  0  0  0
   35.2680   30.0100   47.5320 N   0  0  0  0  0  0  0  0  0  0  0  0
   35.5720   29.5760   48.7720 C   0  0  0  0  0  0  0  0  0  0  0  0
   36.8330   29.7150   49.2500 N   0  0  0  0  0  0  0  0  0  0  0  0
   39.6650   31.7280   41.8280 C   0  0  0  0  0  0  0  0  0  0  0  0
   40.1530   31.1190   42.9760 C   0  0  0  0  0  0  0  0  0  0  0  0
   41.0300   30.0310   42.9130 C   0  0  0  0  0  0  0  0  0  0  0  0
   41.4210   29.5510   41.6770 C   0  0  0  0  0  0  0  0  0  0  0  0
   40.9490   30.1390   40.5020 C   0  0  0  0  0  0  0  0  0  0  0  0
   40.0770   31.2210   40.5920 C   0  0  0  0  0  0  0  0  0  0  0  0
   38.5820   33.0690   41.9810 S   0  0  0  0  0  0  0  0  0  0  0  0
   37.1660   32.5830   42.1930 O   0  0  0  0  0  0  0  0  0  0  0  0
   38.6560   33.9100   40.7390 O   0  0  0  0  0  0  0  0  0  0  0  0
   39.0337   32.8339   47.8718 H   0  0  0  0  0  0  0  0  0  0  0  0
   40.7835   33.9155   46.4940 H   0  0  0  0  0  0  0  0  0  0  0  0
   41.2985   33.1056   44.2192 H   0  0  0  0  0  0  0  0  0  0  0  0
   38.7954   30.3933   48.8807 H   0  0  0  0  0  0  0  0  0  0  0  0
   35.9075   30.9347   45.7234 H   0  0  0  0  0  0  0  0  0  0  0  0
   34.7961   29.1088   49.3962 H   0  0  0  0  0  0  0  0  0  0  0  0
   41.4039   29.5631   43.8357 H   0  0  0  0  0  0  0  0  0  0  0  0
   42.1114   28.6966   41.6186 H   0  0  0  0  0  0  0  0  0  0  0  0
   41.2611   29.7535   39.5202 H   0  0  0  0  0  0  0  0  0  0  0  0
   39.7035   31.6879   39.6687 H   0  0  0  0  0  0  0  0  0  0  0  0
   38.9481   33.8201   43.0667 H   0  0  0  0  0  0  0  0  0  0  0  0
  1  2  1  0
  2  3  2  0
  3  4  1  0
  3  9  1  0
  5  4  2  0
  6  5  1  0
  7  6  2  0
  7  2  1  0
  8 13  2  0
  9  8  1  0
 10  9  2  0
 10 11  1  0
 11 12  2  0
 12 13  1  0
 14 20  1  0
 14 15  2  0
 15  7  1  0
 16 15  1  0
 17 16  2  0
 18 19  2  0
 18 17  1  0
 19 14  1  0
 20 21  2  0
 22 20  2  0
  4 23  1  0
  5 24  1  0
  6 25  1  0
  8 26  1  0
 10 27  1  0
 12 28  1  0
 16 29  1  0
 17 30  1  0
 18 31  1  0
 19 32  1  0
 20 33  1  0
M  ISO  8  23  14  24  14  25  14  26  14  27  14  28  14  29  14  30  14
M  ISO  3  31  14  32  14  33  11
M  END
>  <minimizedAffinity>  (1) 
-5.6361146

>  <minimizedRMSD>  (1) 
3.02432632

$$$$
