
     RDKit          3D

 25 27  0  0  1  0  0  0  0  0999 V2000
   36.1450   30.2280   50.0900 C   0  0  2  0  0  0  0  0  0  0  0  0
   36.0410   28.8150   49.7430 C   0  0  0  0  0  0  0  0  0  0  0  0
   34.9820   29.7950   49.2620 C   0  0  2  0  0  0  0  0  0  0  0  0
   38.8460   31.5470   47.8990 C   0  0  0  0  0  0  0  0  0  0  0  0
   38.8750   32.8980   48.2570 C   0  0  0  0  0  0  0  0  0  0  0  0
   37.9700   33.3570   49.2440 C   0  0  0  0  0  0  0  0  0  0  0  0
   37.1110   32.4620   49.8010 N   0  0  0  0  0  0  0  0  0  0  0  0
   37.1020   31.1740   49.4420 C   0  0  0  0  0  0  0  0  0  0  0  0
   37.9510   30.7290   48.5120 N   0  0  0  0  0  0  0  0  0  0  0  0
   34.9960   30.2310   47.5150 S   0  0  0  0  0  0  0  0  0  0  0  0
   33.3630   30.1860   46.7680 C   0  0  0  0  0  0  0  0  0  0  0  0
   32.7000   29.0130   47.1580 C   0  0  0  0  0  0  0  0  0  0  0  0
   31.4940   29.0270   46.5670 N   0  0  0  0  0  0  0  0  0  0  0  0
   31.3980   30.1510   45.8410 C   0  0  0  0  0  0  0  0  0  0  0  0
   32.5210   30.8580   45.9560 N   0  0  0  0  0  0  0  0  0  0  0  0
   36.3109   30.7220   51.0587 H   0  0  0  0  0  0  0  0  0  0  0  0
   36.7467   28.3717   49.0250 H   0  0  0  0  0  0  0  0  0  0  0  0
   36.0281   27.8736   50.3118 H   0  0  0  0  0  0  0  0  0  0  0  0
   33.8875   29.8776   49.3350 H   0  0  0  0  0  0  0  0  0  0  0  0
   39.5342   31.1540   47.1361 H   0  0  0  0  0  0  0  0  0  0  0  0
   39.5860   33.5898   47.7818 H   0  0  0  0  0  0  0  0  0  0  0  0
   37.9618   34.4127   49.5531 H   0  0  0  0  0  0  0  0  0  0  0  0
   33.0935   28.2296   47.8224 H   0  0  0  0  0  0  0  0  0  0  0  0
   30.7689   28.3009   46.6558 H   0  0  0  0  0  0  0  0  0  0  0  0
   30.5238   30.4445   45.2413 H   0  0  0  0  0  0  0  0  0  0  0  0
  2  1  1  0
  3  2  1  0
  3  1  1  0
  4  5  2  0
  4  9  1  0
  5  6  1  0
  6  7  2  0
  8  7  1  0
  8  1  1  0
  9  8  2  0
 10  3  1  0
 11 12  2  0
 11 10  1  0
 13 12  1  0
 14 15  2  0
 14 13  1  0
 15 11  1  0
  1 16  1  1
  2 17  1  0
  2 18  1  0
  3 19  1  1
  4 20  1  0
  5 21  1  0
  6 22  1  0
 12 23  1  0
 13 24  1  0
 14 25  1  0
M  ISO  8  16  13  17  13  18  13  19  13  20  14  21  14  22  14  23  14
M  ISO  2  24   9  25  14
M  END
>  <minimizedAffinity>  (1) 
-4.45829964

>  <minimizedRMSD>  (1) 
4.97295237

$$$$
