
     RDKit          3D

 24 25  0  0  0  0  0  0  0  0999 V2000
   38.4650   30.5730   46.8050 Cl  0  0  0  0  0  0  0  0  0  0  0  0
   38.8660   32.0300   47.6810 C   0  0  0  0  0  0  0  0  0  0  0  0
   38.3510   32.2070   48.9290 C   0  0  0  0  0  0  0  0  0  0  0  0
   38.7020   33.3810   49.5760 C   0  0  0  0  0  0  0  0  0  0  0  0
   39.5380   34.2890   48.9360 C   0  0  0  0  0  0  0  0  0  0  0  0
   40.0290   34.0790   47.6920 C   0  0  0  0  0  0  0  0  0  0  0  0
   39.6850   32.9210   47.0520 C   0  0  0  0  0  0  0  0  0  0  0  0
   37.9280   30.4350   50.6490 C   0  0  0  0  0  0  0  0  0  0  0  0
   37.4710   31.2460   49.6000 C   0  0  0  0  0  0  0  0  0  0  0  0
   36.1370   31.1080   49.2110 C   0  0  0  0  0  0  0  0  0  0  0  0
   35.3660   30.2080   49.8600 N   0  0  0  0  0  0  0  0  0  0  0  0
   35.8360   29.4490   50.8590 C   0  0  0  0  0  0  0  0  0  0  0  0
   37.1100   29.5550   51.2580 N   0  0  0  0  0  0  0  0  0  0  0  0
   40.1940   32.7020   45.7660 O   0  0  0  0  0  0  0  0  0  0  0  0
   39.9640   33.5580   44.6900 C   0  0  0  0  0  0  0  0  0  0  0  0
   38.3227   33.5926   50.5866 H   0  0  0  0  0  0  0  0  0  0  0  0
   39.8116   35.2157   49.4618 H   0  0  0  0  0  0  0  0  0  0  0  0
   40.6855   34.8185   47.2103 H   0  0  0  0  0  0  0  0  0  0  0  0
   38.9735   30.5191   50.9805 H   0  0  0  0  0  0  0  0  0  0  0  0
   35.7232   31.7182   48.3947 H   0  0  0  0  0  0  0  0  0  0  0  0
   35.1680   28.7308   51.3570 H   0  0  0  0  0  0  0  0  0  0  0  0
   39.6958   34.5562   45.0664 H   0  0  0  0  0  0  0  0  0  0  0  0
   40.8747   33.6297   44.0773 H   0  0  0  0  0  0  0  0  0  0  0  0
   39.1400   33.1636   44.0773 H   0  0  0  0  0  0  0  0  0  0  0  0
  1  2  1  0
  2  3  2  0
  3  4  1  0
  3  9  1  0
  5  4  2  0
  6  5  1  0
  7  2  1  0
  7  6  2  0
  8 13  2  0
  9  8  1  0
 10  9  2  0
 10 11  1  0
 11 12  2  0
 12 13  1  0
 14  7  1  0
 15 14  1  0
  4 16  1  0
  5 17  1  0
  6 18  1  0
  8 19  1  0
 10 20  1  0
 12 21  1  0
 15 22  1  0
 15 23  1  0
 15 24  1  0
M  ISO  8  16  14  17  14  18  14  19  14  20  14  21  14  22   8  23   8
M  ISO  1  24   8
M  END
>  <minimizedAffinity>  (1) 
-5.54668427

>  <minimizedRMSD>  (1) 
0.282070905

$$$$
