
     RDKit          3D

 40 42  0  0  1  0  0  0  0  0999 V2000
   37.6900   30.2330   47.0870 Cl  0  0  0  0  0  0  0  0  0  0  0  0
   38.2670   31.6650   47.9110 C   0  0  0  0  0  0  0  0  0  0  0  0
   37.8650   31.8740   49.2000 C   0  0  0  0  0  0  0  0  0  0  0  0
   38.3460   33.0190   49.8090 C   0  0  0  0  0  0  0  0  0  0  0  0
   39.1820   33.8730   49.1100 C   0  0  0  0  0  0  0  0  0  0  0  0
   39.5600   33.6270   47.8220 C   0  0  0  0  0  0  0  0  0  0  0  0
   39.0940   32.5020   47.2120 C   0  0  0  0  0  0  0  0  0  0  0  0
   37.4210   30.2810   51.0730 C   0  0  0  0  0  0  0  0  0  0  0  0
   36.9750   30.9710   49.9470 C   0  0  0  0  0  0  0  0  0  0  0  0
   35.6550   30.7750   49.5510 C   0  0  0  0  0  0  0  0  0  0  0  0
   34.8830   29.9330   50.2740 N   0  0  0  0  0  0  0  0  0  0  0  0
   35.3430   29.2890   51.3480 C   0  0  0  0  0  0  0  0  0  0  0  0
   36.6150   29.4540   51.7630 N   0  0  0  0  0  0  0  0  0  0  0  0
   39.4510   32.2170   45.9050 O   0  0  0  0  0  0  0  0  0  0  0  0
   38.8850   32.6780   44.7480 C   0  0  2  0  0  0  0  0  0  0  0  0
   38.2320   31.3910   44.1260 C   0  0  0  0  0  0  0  0  0  0  0  0
   39.3580   30.4810   43.6840 C   0  0  0  0  0  0  0  0  0  0  0  0
   39.8850   31.0180   42.3910 C   0  0  0  0  0  0  0  0  0  0  0  0
   39.7210   32.5080   42.3860 C   0  0  0  0  0  0  0  0  0  0  0  0
   39.9690   33.0620   43.7800 C   0  0  1  0  0  0  0  0  0  0  0  0
   40.1260   34.5640   43.6680 C   0  0  0  0  0  0  0  0  0  0  0  0
   38.0648   33.2507   50.8469 H   0  0  0  0  0  0  0  0  0  0  0  0
   39.5538   34.7798   49.6094 H   0  0  0  0  0  0  0  0  0  0  0  0
   40.2258   34.3214   47.2887 H   0  0  0  0  0  0  0  0  0  0  0  0
   38.4604   30.4164   51.4065 H   0  0  0  0  0  0  0  0  0  0  0  0
   35.2492   31.2935   48.6698 H   0  0  0  0  0  0  0  0  0  0  0  0
   34.6749   28.6138   51.9028 H   0  0  0  0  0  0  0  0  0  0  0  0
   38.2080   33.5255   44.9306 H   0  0  0  0  0  0  0  0  0  0  0  0
   37.6114   30.8829   44.8788 H   0  0  0  0  0  0  0  0  0  0  0  0
   37.5885   31.6549   43.2738 H   0  0  0  0  0  0  0  0  0  0  0  0
   40.1556   30.4744   44.4415 H   0  0  0  0  0  0  0  0  0  0  0  0
   38.9974   29.4494   43.5583 H   0  0  0  0  0  0  0  0  0  0  0  0
   40.9503   30.7627   42.2911 H   0  0  0  0  0  0  0  0  0  0  0  0
   39.3310   30.5775   41.5490 H   0  0  0  0  0  0  0  0  0  0  0  0
   40.4422   32.9517   41.6838 H   0  0  0  0  0  0  0  0  0  0  0  0
   38.6960   32.7579   42.0747 H   0  0  0  0  0  0  0  0  0  0  0  0
   40.8906   32.6228   44.1895 H   0  0  0  0  0  0  0  0  0  0  0  0
   40.1720   35.0040   44.6751 H   0  0  0  0  0  0  0  0  0  0  0  0
   41.0533   34.7962   43.1238 H   0  0  0  0  0  0  0  0  0  0  0  0
   39.2667   34.9829   43.1238 H   0  0  0  0  0  0  0  0  0  0  0  0
  1  2  1  0
  2  3  2  0
  3  4  1  0
  3  9  1  0
  5  4  2  0
  6  5  1  0
  7  6  2  0
  7  2  1  0
  8 13  2  0
  9  8  1  0
 10  9  2  0
 10 11  1  0
 11 12  2  0
 12 13  1  0
 14  7  1  0
 15 14  1  0
 16 15  1  0
 17 16  1  0
 18 17  1  0
 19 18  1  0
 19 20  1  0
 20 15  1  0
 21 20  1  0
  4 22  1  0
  5 23  1  0
  6 24  1  0
  8 25  1  0
 10 26  1  0
 12 27  1  0
 15 28  1  1
 16 29  1  0
 16 30  1  0
 17 31  1  0
 17 32  1  0
 18 33  1  0
 18 34  1  0
 19 35  1  0
 19 36  1  0
 20 37  1  1
 21 38  1  0
 21 39  1  0
 21 40  1  0
M  ISO  8  22  14  23  14  24  14  25  14  26  14  27  14  28  13  29  13
M  ISO  8  30  13  31  13  32  13  33  13  34  13  35  13  36  13  37  13
M  ISO  3  38   8  39   8  40   8
M  END
>  <minimizedAffinity>  (1) 
-5.58863926

>  <minimizedRMSD>  (1) 
0.654662549

$$$$
