
     RDKit          3D

 25 26  0  0  0  0  0  0  0  0999 V2000
   37.0790   29.8080   51.6370 C   0  0  0  0  0  0  0  0  0  0  0  0
   37.7400   30.5930   50.6830 C   0  0  0  0  0  0  0  0  0  0  0  0
   37.0830   30.8310   49.4780 C   0  0  0  0  0  0  0  0  0  0  0  0
   35.8470   30.2970   49.2920 N   0  0  0  0  0  0  0  0  0  0  0  0
   35.2490   29.5470   50.2410 C   0  0  0  0  0  0  0  0  0  0  0  0
   35.8590   29.2980   51.4180 N   0  0  0  0  0  0  0  0  0  0  0  0
   37.5770   31.5970   48.3850 N   0  0  0  0  0  0  0  0  0  0  0  0
   38.2130   32.8660   48.4890 C   0  0  0  0  0  0  0  0  0  0  0  0
   39.4630   33.0590   47.7080 C   0  0  0  0  0  0  0  0  0  0  0  0
   39.4920   32.4380   46.3490 C   0  0  0  0  0  0  0  0  0  0  0  0
   38.9310   31.0340   46.4350 C   0  0  0  0  0  0  0  0  0  0  0  0
   37.5140   31.2150   46.9980 C   0  0  0  0  0  0  0  0  0  0  0  0
   37.5772   29.6038   52.5962 H   0  0  0  0  0  0  0  0  0  0  0  0
   38.7406   31.0060   50.8784 H   0  0  0  0  0  0  0  0  0  0  0  0
   34.2480   29.1320   50.0518 H   0  0  0  0  0  0  0  0  0  0  0  0
   37.4922   33.6271   48.1555 H   0  0  0  0  0  0  0  0  0  0  0  0
   38.5183   32.9477   49.5426 H   0  0  0  0  0  0  0  0  0  0  0  0
   39.6196   34.1410   47.5864 H   0  0  0  0  0  0  0  0  0  0  0  0
   40.2514   32.5502   48.2821 H   0  0  0  0  0  0  0  0  0  0  0  0
   40.5288   32.3989   45.9837 H   0  0  0  0  0  0  0  0  0  0  0  0
   38.8861   33.0378   45.6539 H   0  0  0  0  0  0  0  0  0  0  0  0
   38.8963   30.5683   45.4390 H   0  0  0  0  0  0  0  0  0  0  0  0
   39.5485   30.3766   47.0647 H   0  0  0  0  0  0  0  0  0  0  0  0
   36.9936   31.9989   46.4281 H   0  0  0  0  0  0  0  0  0  0  0  0
   36.9682   30.2639   46.9112 H   0  0  0  0  0  0  0  0  0  0  0  0
  2  1  2  0
  3  2  1  0
  4  3  2  0
  4  5  1  0
  5  6  2  0
  6  1  1  0
  7  8  1  0
  7  3  1  0
  9  8  1  0
 10 11  1  0
 10  9  1  0
 11 12  1  0
 12  7  1  0
  1 13  1  0
  2 14  1  0
  5 15  1  0
  8 16  1  0
  8 17  1  0
  9 18  1  0
  9 19  1  0
 10 20  1  0
 10 21  1  0
 11 22  1  0
 11 23  1  0
 12 24  1  0
 12 25  1  0
M  ISO  8  13  14  14  14  15  14  16  13  17  13  18  13  19  13  20  13
M  ISO  5  21  13  22  13  23  13  24  13  25  13
M  END
>  <minimizedAffinity>  (1) 
-4.74977636

>  <minimizedRMSD>  (1) 
1.20825267

$$$$
