
     RDKit          3D

 40 43  0  0  1  0  0  0  0  0999 V2000
   37.1630   29.3080   50.3640 C   0  0  0  0  0  0  0  0  0  0  0  0
   37.8220   30.5150   50.1160 C   0  0  0  0  0  0  0  0  0  0  0  0
   37.5290   31.1660   48.9380 C   0  0  0  0  0  0  0  0  0  0  0  0
   36.6340   30.5860   48.1260 N   0  0  0  0  0  0  0  0  0  0  0  0
   36.0050   29.4300   48.3680 C   0  0  0  0  0  0  0  0  0  0  0  0
   36.2810   28.7890   49.5080 N   0  0  0  0  0  0  0  0  0  0  0  0
   38.0670   32.3970   48.4470 N   0  0  0  0  0  0  0  0  0  0  0  0
   38.2270   33.5720   49.2640 C   0  0  0  0  0  0  0  0  0  0  0  0
   39.5480   34.2570   49.1790 C   0  0  0  0  0  0  0  0  0  0  0  0
   40.1710   34.3230   47.8300 C   0  0  0  0  0  0  0  0  0  0  0  0
   40.0650   32.9480   47.1770 C   0  0  0  0  0  0  0  0  0  0  0  0
   38.5390   32.6810   47.1410 C   0  0  1  0  0  0  0  0  0  0  0  0
   38.3040   31.6610   46.0980 C   0  0  0  0  0  0  0  0  0  0  0  0
   39.1620   30.6390   45.7520 C   0  0  0  0  0  0  0  0  0  0  0  0
   38.9260   29.7100   44.7620 C   0  0  0  0  0  0  0  0  0  0  0  0
   37.7520   29.7820   44.0470 C   0  0  0  0  0  0  0  0  0  0  0  0
   37.5450   28.8660   43.0860 N   0  0  0  0  0  0  0  0  0  0  0  0
   36.3940   28.9000   42.3520 C   0  0  0  0  0  0  0  0  0  0  0  0
   35.4560   29.8750   42.6020 C   0  0  0  0  0  0  0  0  0  0  0  0
   35.6800   30.8240   43.6030 C   0  0  0  0  0  0  0  0  0  0  0  0
   36.8480   30.7800   44.3400 C   0  0  0  0  0  0  0  0  0  0  0  0
   37.1470   31.6770   45.3440 C   0  0  0  0  0  0  0  0  0  0  0  0
   37.3789   28.7671   51.2972 H   0  0  0  0  0  0  0  0  0  0  0  0
   38.5461   30.9289   50.8332 H   0  0  0  0  0  0  0  0  0  0  0  0
   35.2812   29.0188   47.6490 H   0  0  0  0  0  0  0  0  0  0  0  0
   37.4538   34.2956   48.9664 H   0  0  0  0  0  0  0  0  0  0  0  0
   38.1430   33.2218   50.3034 H   0  0  0  0  0  0  0  0  0  0  0  0
   39.4142   35.2884   49.5371 H   0  0  0  0  0  0  0  0  0  0  0  0
   40.2329   33.6495   49.7888 H   0  0  0  0  0  0  0  0  0  0  0  0
   39.6442   35.0671   47.2145 H   0  0  0  0  0  0  0  0  0  0  0  0
   41.2274   34.6168   47.9179 H   0  0  0  0  0  0  0  0  0  0  0  0
   40.4858   32.9619   46.1607 H   0  0  0  0  0  0  0  0  0  0  0  0
   40.6230   32.1714   47.7207 H   0  0  0  0  0  0  0  0  0  0  0  0
   37.9389   33.5558   46.8502 H   0  0  0  0  0  0  0  0  0  0  0  0
   40.1073   30.5590   46.3088 H   0  0  0  0  0  0  0  0  0  0  0  0
   39.6641   28.9234   44.5465 H   0  0  0  0  0  0  0  0  0  0  0  0
   36.2177   28.1519   41.5651 H   0  0  0  0  0  0  0  0  0  0  0  0
   34.5278   29.9076   42.0127 H   0  0  0  0  0  0  0  0  0  0  0  0
   34.9296   31.6029   43.8034 H   0  0  0  0  0  0  0  0  0  0  0  0
   36.4092   32.4636   45.5603 H   0  0  0  0  0  0  0  0  0  0  0  0
  2  1  2  0
  3  2  1  0
  4  5  1  0
  4  3  2  0
  5  6  2  0
  6  1  1  0
  7  3  1  0
  7  8  1  0
  9  8  1  0
 10  9  1  0
 11 10  1  0
 12 11  1  0
 12  7  1  0
 13 12  1  0
 14 13  2  0
 15 14  1  0
 16 21  1  0
 16 15  2  0
 17 16  1  0
 18 19  1  0
 18 17  2  0
 19 20  2  0
 20 21  1  0
 21 22  2  0
 22 13  1  0
  1 23  1  0
  2 24  1  0
  5 25  1  0
  8 26  1  0
  8 27  1  0
  9 28  1  0
  9 29  1  0
 10 30  1  0
 10 31  1  0
 11 32  1  0
 11 33  1  0
 12 34  1  6
 14 35  1  0
 15 36  1  0
 18 37  1  0
 19 38  1  0
 20 39  1  0
 22 40  1  0
M  ISO  8  23  14  24  14  25  14  26  13  27  13  28  13  29  13  30  13
M  ISO  8  31  13  32  13  33  13  34  13  35  14  36  14  37  14  38  14
M  ISO  2  39  14  40  14
M  END
>  <minimizedAffinity>  (1) 
-5.70306778

>  <minimizedRMSD>  (1) 
3.08002663

$$$$
