
     RDKit          3D

 39 41  0  0  1  0  0  0  0  0999 V2000
   37.7340   30.7100   50.6920 C   0  0  0  0  0  0  0  0  0  0  0  0
   38.3830   31.3550   49.6350 C   0  0  0  0  0  0  0  0  0  0  0  0
   38.0520   30.9680   48.3460 C   0  0  0  0  0  0  0  0  0  0  0  0
   37.1260   29.9950   48.1930 N   0  0  0  0  0  0  0  0  0  0  0  0
   36.5200   29.3950   49.2270 C   0  0  0  0  0  0  0  0  0  0  0  0
   36.8170   29.7450   50.4860 N   0  0  0  0  0  0  0  0  0  0  0  0
   38.5990   31.5010   47.1350 N   0  0  0  0  0  0  0  0  0  0  0  0
   38.7750   32.8740   46.8470 C   0  0  0  0  0  0  0  0  0  0  0  0
   40.0910   33.2750   46.2740 C   0  0  0  0  0  0  0  0  0  0  0  0
   40.6690   32.3230   45.2640 C   0  0  0  0  0  0  0  0  0  0  0  0
   40.5450   30.9120   45.7950 C   0  0  0  0  0  0  0  0  0  0  0  0
   39.0530   30.7140   46.0270 C   0  0  2  0  0  0  0  0  0  0  0  0
   38.3680   30.9460   44.7970 N   0  0  0  0  0  0  0  0  0  0  0  0
   38.8380   29.9690   43.8320 C   0  0  0  0  0  0  0  0  0  0  0  0
   37.7000   29.4280   42.9910 C   0  0  0  0  0  0  0  0  0  0  0  0
   36.8120   30.4800   42.5340 N   0  0  0  0  0  0  0  0  0  0  0  0
   36.3730   31.3650   43.5740 C   0  0  0  0  0  0  0  0  0  0  0  0
   36.9470   30.8410   44.8930 C   0  0  0  0  0  0  0  0  0  0  0  0
   37.9799   30.9996   51.7243 H   0  0  0  0  0  0  0  0  0  0  0  0
   39.1296   32.1414   49.8198 H   0  0  0  0  0  0  0  0  0  0  0  0
   35.7731   28.6092   49.0407 H   0  0  0  0  0  0  0  0  0  0  0  0
   37.9956   33.1662   46.1279 H   0  0  0  0  0  0  0  0  0  0  0  0
   38.7167   33.3830   47.8204 H   0  0  0  0  0  0  0  0  0  0  0  0
   39.9655   34.2529   45.7863 H   0  0  0  0  0  0  0  0  0  0  0  0
   40.7977   33.2903   47.1168 H   0  0  0  0  0  0  0  0  0  0  0  0
   41.7293   32.5624   45.0953 H   0  0  0  0  0  0  0  0  0  0  0  0
   40.1245   32.4127   44.3124 H   0  0  0  0  0  0  0  0  0  0  0  0
   40.9225   30.1865   45.0594 H   0  0  0  0  0  0  0  0  0  0  0  0
   41.1319   30.7605   46.7129 H   0  0  0  0  0  0  0  0  0  0  0  0
   38.8282   29.6788   46.3235 H   0  0  0  0  0  0  0  0  0  0  0  0
   39.5759   30.4463   43.1704 H   0  0  0  0  0  0  0  0  0  0  0  0
   39.2900   29.1303   44.3819 H   0  0  0  0  0  0  0  0  0  0  0  0
   38.1202   28.9128   42.1147 H   0  0  0  0  0  0  0  0  0  0  0  0
   37.1145   28.7381   43.6164 H   0  0  0  0  0  0  0  0  0  0  0  0
   37.3078   31.0364   41.8230 H   0  0  0  0  0  0  0  0  0  0  0  0
   36.7416   32.3834   43.3817 H   0  0  0  0  0  0  0  0  0  0  0  0
   35.2744   31.4012   43.6154 H   0  0  0  0  0  0  0  0  0  0  0  0
   36.6544   29.7912   45.0425 H   0  0  0  0  0  0  0  0  0  0  0  0
   36.5658   31.4208   45.7466 H   0  0  0  0  0  0  0  0  0  0  0  0
  2  1  2  0
  3  2  1  0
  4  3  2  0
  4  5  1  0
  5  6  2  0
  6  1  1  0
  7  3  1  0
  8  7  1  0
  9  8  1  0
 10 11  1  0
 10  9  1  0
 11 12  1  0
 12  7  1  0
 13 18  1  0
 13 12  1  0
 14 13  1  0
 15 14  1  0
 16 15  1  0
 16 17  1  0
 17 18  1  0
  1 19  1  0
  2 20  1  0
  5 21  1  0
  8 22  1  0
  8 23  1  0
  9 24  1  0
  9 25  1  0
 10 26  1  0
 10 27  1  0
 11 28  1  0
 11 29  1  0
 12 30  1  1
 14 31  1  0
 14 32  1  0
 15 33  1  0
 15 34  1  0
 16 35  1  0
 17 36  1  0
 17 37  1  0
 18 38  1  0
 18 39  1  0
M  ISO  8  19  14  20  14  21  14  22  13  23  13  24  13  25  13  26  13
M  ISO  8  27  13  28  13  29  13  30  13  31  13  32  13  33  13  34  13
M  ISO  5  35   5  36  13  37  13  38  13  39  13
M  END
>  <minimizedAffinity>  (1) 
-5.30829525

>  <minimizedRMSD>  (1) 
2.29653406

$$$$
