
     RDKit          3D

 38 41  0  0  1  0  0  0  0  0999 V2000
   36.7640   29.2300   50.5400 C   0  0  0  0  0  0  0  0  0  0  0  0
   37.2420   29.6240   49.2910 C   0  0  0  0  0  0  0  0  0  0  0  0
   36.3210   30.2870   48.4650 C   0  0  0  0  0  0  0  0  0  0  0  0
   35.0690   30.4950   48.9210 N   0  0  0  0  0  0  0  0  0  0  0  0
   34.6650   30.0930   50.1320 C   0  0  0  0  0  0  0  0  0  0  0  0
   35.5150   29.4560   50.9500 N   0  0  0  0  0  0  0  0  0  0  0  0
   36.5750   30.7720   47.1420 N   0  0  0  0  0  0  0  0  0  0  0  0
   37.7360   31.5170   46.7620 C   0  0  0  0  0  0  0  0  0  0  0  0
   38.4040   31.1330   45.5020 C   0  0  0  0  0  0  0  0  0  0  0  0
   37.5170   30.6870   44.3890 C   0  0  0  0  0  0  0  0  0  0  0  0
   36.4740   29.7550   44.9440 C   0  0  0  0  0  0  0  0  0  0  0  0
   35.7180   30.5910   46.0040 C   0  0  1  0  0  0  0  0  0  0  0  0
   34.5800   28.4480   46.7750 C   0  0  0  0  0  0  0  0  0  0  0  0
   34.5100   29.7420   46.3010 C   0  0  0  0  0  0  0  0  0  0  0  0
   33.2200   30.2450   46.1010 C   0  0  0  0  0  0  0  0  0  0  0  0
   32.0780   29.5350   46.3470 C   0  0  0  0  0  0  0  0  0  0  0  0
   32.1890   28.2440   46.8210 C   0  0  0  0  0  0  0  0  0  0  0  0
   33.4430   27.7090   47.0320 C   0  0  0  0  0  0  0  0  0  0  0  0
   30.8840   27.7440   46.9890 O   0  0  0  0  0  0  0  0  0  0  0  0
   30.0750   28.5020   46.0830 C   0  0  0  0  0  0  0  0  0  0  0  0
   30.7140   29.7770   46.2430 O   0  0  0  0  0  0  0  0  0  0  0  0
   37.4511   28.7067   51.2212 H   0  0  0  0  0  0  0  0  0  0  0  0
   38.2765   29.4275   48.9727 H   0  0  0  0  0  0  0  0  0  0  0  0
   33.6320   30.2859   50.4572 H   0  0  0  0  0  0  0  0  0  0  0  0
   37.4365   32.5714   46.6693 H   0  0  0  0  0  0  0  0  0  0  0  0
   38.4757   31.3086   47.5490 H   0  0  0  0  0  0  0  0  0  0  0  0
   38.9741   32.0041   45.1468 H   0  0  0  0  0  0  0  0  0  0  0  0
   39.0195   30.2567   45.7535 H   0  0  0  0  0  0  0  0  0  0  0  0
   38.1138   30.1629   43.6280 H   0  0  0  0  0  0  0  0  0  0  0  0
   37.0311   31.5586   43.9260 H   0  0  0  0  0  0  0  0  0  0  0  0
   35.7880   29.4248   44.1500 H   0  0  0  0  0  0  0  0  0  0  0  0
   36.9179   28.8448   45.3735 H   0  0  0  0  0  0  0  0  0  0  0  0
   35.4248   31.6032   45.6888 H   0  0  0  0  0  0  0  0  0  0  0  0
   35.5662   27.9943   46.9524 H   0  0  0  0  0  0  0  0  0  0  0  0
   33.1186   31.2731   45.7233 H   0  0  0  0  0  0  0  0  0  0  0  0
   33.5379   26.6803   47.4099 H   0  0  0  0  0  0  0  0  0  0  0  0
   29.0192   28.5260   46.3908 H   0  0  0  0  0  0  0  0  0  0  0  0
   30.0242   28.1190   45.0531 H   0  0  0  0  0  0  0  0  0  0  0  0
  1  6  2  0
  2  1  1  0
  3  4  1  0
  3  2  2  0
  4  5  2  0
  5  6  1  0
  7  3  1  0
  8  7  1  0
  9  8  1  0
 10 11  1  0
 10  9  1  0
 11 12  1  0
 12 14  1  0
 12  7  1  0
 13 18  2  0
 14 13  1  0
 15 14  2  0
 15 16  1  0
 16 17  2  0
 17 19  1  0
 17 18  1  0
 20 21  1  0
 20 19  1  0
 21 16  1  0
  1 22  1  0
  2 23  1  0
  5 24  1  0
  8 25  1  0
  8 26  1  0
  9 27  1  0
  9 28  1  0
 10 29  1  0
 10 30  1  0
 11 31  1  0
 11 32  1  0
 12 33  1  6
 13 34  1  0
 15 35  1  0
 18 36  1  0
 20 37  1  0
 20 38  1  0
M  ISO  8  22  14  23  14  24  14  25  13  26  13  27  13  28  13  29  13
M  ISO  8  30  13  31  13  32  13  33  13  34  14  35  14  36  14  37  13
M  ISO  1  38  13
M  END
>  <minimizedAffinity>  (1) 
-4.47409868

>  <minimizedRMSD>  (1) 
3.15237451

$$$$
