
     RDKit          3D

 35 37  0  0  1  0  0  0  0  0999 V2000
   36.7900   29.3020   49.3210 C   0  0  0  0  0  0  0  0  0  0  0  0
   37.6250   30.3250   48.8820 C   0  0  0  0  0  0  0  0  0  0  0  0
   37.2970   31.0540   47.7480 C   0  0  0  0  0  0  0  0  0  0  0  0
   36.1540   30.7240   47.1170 N   0  0  0  0  0  0  0  0  0  0  0  0
   35.3530   29.7390   47.5420 C   0  0  0  0  0  0  0  0  0  0  0  0
   35.6570   29.0130   48.6520 N   0  0  0  0  0  0  0  0  0  0  0  0
   38.0390   32.1090   47.1760 N   0  0  0  0  0  0  0  0  0  0  0  0
   38.6180   33.1960   47.9260 C   0  0  0  0  0  0  0  0  0  0  0  0
   40.0070   33.5730   47.5930 C   0  0  0  0  0  0  0  0  0  0  0  0
   40.4220   33.4540   46.1740 C   0  0  0  0  0  0  0  0  0  0  0  0
   39.8500   32.2040   45.5740 C   0  0  0  0  0  0  0  0  0  0  0  0
   38.3360   32.2690   45.7910 C   0  0  1  0  0  0  0  0  0  0  0  0
   39.1830   29.6430   45.2050 F   0  0  0  0  0  0  0  0  0  0  0  0
   38.0420   30.0740   44.5720 C   0  0  0  0  0  0  0  0  0  0  0  0
   37.6340   31.3830   44.8560 C   0  0  0  0  0  0  0  0  0  0  0  0
   36.4740   31.7080   44.1620 C   0  0  0  0  0  0  0  0  0  0  0  0
   35.7940   30.8730   43.3020 C   0  0  0  0  0  0  0  0  0  0  0  0
   36.2820   29.6150   43.0960 C   0  0  0  0  0  0  0  0  0  0  0  0
   37.4260   29.1870   43.7340 C   0  0  0  0  0  0  0  0  0  0  0  0
   37.0566   28.7260   50.2194 H   0  0  0  0  0  0  0  0  0  0  0  0
   38.5472   30.5562   49.4353 H   0  0  0  0  0  0  0  0  0  0  0  0
   34.4326   29.5125   46.9838 H   0  0  0  0  0  0  0  0  0  0  0  0
   37.9861   34.0824   47.7678 H   0  0  0  0  0  0  0  0  0  0  0  0
   38.6597   32.8371   48.9650 H   0  0  0  0  0  0  0  0  0  0  0  0
   40.1450   34.6229   47.8908 H   0  0  0  0  0  0  0  0  0  0  0  0
   40.6338   32.8478   48.1326 H   0  0  0  0  0  0  0  0  0  0  0  0
   40.0566   34.3271   45.6134 H   0  0  0  0  0  0  0  0  0  0  0  0
   41.5199   33.4092   46.1220 H   0  0  0  0  0  0  0  0  0  0  0  0
   40.2675   31.3175   46.0737 H   0  0  0  0  0  0  0  0  0  0  0  0
   40.0950   32.1289   44.5043 H   0  0  0  0  0  0  0  0  0  0  0  0
   37.9399   33.2637   45.5386 H   0  0  0  0  0  0  0  0  0  0  0  0
   36.0640   32.7176   44.3121 H   0  0  0  0  0  0  0  0  0  0  0  0
   34.8795   31.2123   42.7935 H   0  0  0  0  0  0  0  0  0  0  0  0
   35.7551   28.9338   42.4116 H   0  0  0  0  0  0  0  0  0  0  0  0
   37.8264   28.1748   43.5757 H   0  0  0  0  0  0  0  0  0  0  0  0
  2  1  2  0
  3  2  1  0
  4  5  1  0
  4  3  2  0
  5  6  2  0
  6  1  1  0
  7  3  1  0
  7  8  1  0
  9  8  1  0
 10  9  1  0
 11 12  1  0
 11 10  1  0
 12  7  1  0
 14 15  2  0
 14 13  1  0
 15 12  1  0
 16 15  1  0
 17 16  2  0
 18 17  1  0
 18 19  2  0
 19 14  1  0
  1 20  1  0
  2 21  1  0
  5 22  1  0
  8 23  1  0
  8 24  1  0
  9 25  1  0
  9 26  1  0
 10 27  1  0
 10 28  1  0
 11 29  1  0
 11 30  1  0
 12 31  1  6
 16 32  1  0
 17 33  1  0
 18 34  1  0
 19 35  1  0
M  ISO  8  20  14  21  14  22  14  23  13  24  13  25  13  26  13  27  13
M  ISO  8  28  13  29  13  30  13  31  13  32  14  33  14  34  14  35  14
M  END
>  <minimizedAffinity>  (1) 
-4.45735931

>  <minimizedRMSD>  (1) 
2.35161257

$$$$
