
     RDKit          3D

 32 34  0  0  0  0  0  0  0  0999 V2000
   36.3920   30.9160   45.7010 Cl  0  0  0  0  0  0  0  0  0  0  0  0
   36.6850   30.7540   47.4080 C   0  0  0  0  0  0  0  0  0  0  0  0
   37.9410   31.0700   47.8700 C   0  0  0  0  0  0  0  0  0  0  0  0
   38.1780   30.9410   49.2310 C   0  0  0  0  0  0  0  0  0  0  0  0
   37.1900   30.5160   50.0580 C   0  0  0  0  0  0  0  0  0  0  0  0
   35.9380   30.2100   49.5330 C   0  0  0  0  0  0  0  0  0  0  0  0
   35.6290   30.3130   48.1980 C   0  0  0  0  0  0  0  0  0  0  0  0
   40.1970   33.3090   46.0950 C   0  0  0  0  0  0  0  0  0  0  0  0
   40.9090   32.4610   45.2170 C   0  0  0  0  0  0  0  0  0  0  0  0
   40.5940   31.1000   45.2530 C   0  0  0  0  0  0  0  0  0  0  0  0
   39.6330   30.6780   46.1160 N   0  0  0  0  0  0  0  0  0  0  0  0
   38.9880   31.5290   46.9280 C   0  0  0  0  0  0  0  0  0  0  0  0
   39.2660   32.8200   46.9150 N   0  0  0  0  0  0  0  0  0  0  0  0
   34.0490   29.9320   47.5030 S   0  0  0  0  0  0  0  0  0  0  0  0
   33.7300   29.1820   44.4640 Cl  0  0  0  0  0  0  0  0  0  0  0  0
   33.7630   27.9510   45.7180 C   0  0  0  0  0  0  0  0  0  0  0  0
   33.9000   28.1920   47.0840 C   0  0  0  0  0  0  0  0  0  0  0  0
   33.9140   27.1600   47.9770 C   0  0  0  0  0  0  0  0  0  0  0  0
   33.7910   25.8700   47.5280 C   0  0  0  0  0  0  0  0  0  0  0  0
   33.6510   25.5590   46.1710 C   0  0  0  0  0  0  0  0  0  0  0  0
   33.6410   26.6260   45.3080 C   0  0  0  0  0  0  0  0  0  0  0  0
   33.5020   26.3300   43.9580 O   0  0  0  0  0  0  0  0  0  0  0  0
   39.1696   31.1840   49.6406 H   0  0  0  0  0  0  0  0  0  0  0  0
   37.3774   30.4139   51.1371 H   0  0  0  0  0  0  0  0  0  0  0  0
   35.1536   29.8673   50.2238 H   0  0  0  0  0  0  0  0  0  0  0  0
   40.4137   34.3874   46.1021 H   0  0  0  0  0  0  0  0  0  0  0  0
   41.6773   32.8548   44.5353 H   0  0  0  0  0  0  0  0  0  0  0  0
   41.1128   30.3857   44.5968 H   0  0  0  0  0  0  0  0  0  0  0  0
   34.0235   27.3621   49.0527 H   0  0  0  0  0  0  0  0  0  0  0  0
   33.8028   25.0501   48.2612 H   0  0  0  0  0  0  0  0  0  0  0  0
   33.5548   24.5219   45.8173 H   0  0  0  0  0  0  0  0  0  0  0  0
   33.4151   25.3887   43.6640 H   0  0  0  0  0  0  0  0  0  0  0  0
  1  2  1  0
  2  3  2  0
  2  7  1  0
  3  4  1  0
  4  5  2  0
  6  5  1  0
  7  6  2  0
  8 13  2  0
  9 10  2  0
  9  8  1  0
 10 11  1  0
 11 12  2  0
 12  3  1  0
 13 12  1  0
 14  7  1  0
 15 16  1  0
 16 17  2  0
 17 14  1  0
 17 18  1  0
 19 18  2  0
 20 19  1  0
 21 16  1  0
 21 20  2  0
 22 21  1  0
  4 23  1  0
  5 24  1  0
  6 25  1  0
  8 26  1  0
  9 27  1  0
 10 28  1  0
 18 29  1  0
 19 30  1  0
 20 31  1  0
 22 32  1  0
M  ISO  8  23  14  24  14  25  14  26  14  27  14  28  14  29  14  30  14
M  ISO  2  31  14  32   3
M  END
>  <minimizedAffinity>  (1) 
-5.7584157

>  <minimizedRMSD>  (1) 
0.0180081129

$$$$
