
     RDKit          3D

 45 48  0  0  0  0  0  0  0  0999 V2000
   34.0650   29.9600   47.5340 S   0  0  0  0  0  0  0  0  0  0  0  0
   36.4190   30.9080   45.7080 Cl  0  0  0  0  0  0  0  0  0  0  0  0
   36.6990   30.7900   47.4270 C   0  0  0  0  0  0  0  0  0  0  0  0
   37.9550   31.1250   47.8920 C   0  0  0  0  0  0  0  0  0  0  0  0
   38.1870   31.0330   49.2580 C   0  0  0  0  0  0  0  0  0  0  0  0
   37.1930   30.6250   50.0890 C   0  0  0  0  0  0  0  0  0  0  0  0
   35.9450   30.3010   49.5590 C   0  0  0  0  0  0  0  0  0  0  0  0
   35.6410   30.3660   48.2260 C   0  0  0  0  0  0  0  0  0  0  0  0
   40.2260   33.3300   46.0830 C   0  0  0  0  0  0  0  0  0  0  0  0
   40.9380   32.4700   45.2160 C   0  0  0  0  0  0  0  0  0  0  0  0
   40.6140   31.1090   45.2720 C   0  0  0  0  0  0  0  0  0  0  0  0
   39.6490   30.6940   46.1430 N   0  0  0  0  0  0  0  0  0  0  0  0
   39.0020   31.5620   46.9470 C   0  0  0  0  0  0  0  0  0  0  0  0
   39.2930   32.8620   46.9110 N   0  0  0  0  0  0  0  0  0  0  0  0
   33.8620   29.1850   44.4940 Cl  0  0  0  0  0  0  0  0  0  0  0  0
   33.8580   27.9640   45.7520 C   0  0  0  0  0  0  0  0  0  0  0  0
   33.9440   28.2200   47.1180 C   0  0  0  0  0  0  0  0  0  0  0  0
   33.9310   27.1900   48.0130 C   0  0  0  0  0  0  0  0  0  0  0  0
   33.8350   25.8980   47.5950 C   0  0  0  0  0  0  0  0  0  0  0  0
   33.7450   25.5810   46.2350 C   0  0  0  0  0  0  0  0  0  0  0  0
   33.7610   26.6430   45.3470 C   0  0  0  0  0  0  0  0  0  0  0  0
   33.6670   26.2310   43.9890 N   0  0  0  0  0  0  0  0  0  0  0  0
   32.4450   26.0540   43.2630 C   0  0  0  0  0  0  0  0  0  0  0  0
   32.7150   25.3340   41.9640 C   0  0  0  0  0  0  0  0  0  0  0  0
   33.6050   24.2240   42.2180 N   0  0  0  0  0  0  0  0  0  0  0  0
   34.9270   24.6480   42.6030 C   0  0  0  0  0  0  0  0  0  0  0  0
   34.9260   25.9770   43.3150 C   0  0  0  0  0  0  0  0  0  0  0  0
   39.1752   31.2904   49.6669 H   0  0  0  0  0  0  0  0  0  0  0  0
   37.3714   30.5508   51.1719 H   0  0  0  0  0  0  0  0  0  0  0  0
   35.1574   29.9735   50.2536 H   0  0  0  0  0  0  0  0  0  0  0  0
   40.4468   34.4076   46.0739 H   0  0  0  0  0  0  0  0  0  0  0  0
   41.7092   32.8515   44.5306 H   0  0  0  0  0  0  0  0  0  0  0  0
   41.1296   30.3852   44.6237 H   0  0  0  0  0  0  0  0  0  0  0  0
   33.9992   27.4071   49.0892 H   0  0  0  0  0  0  0  0  0  0  0  0
   33.8280   25.0885   48.3398 H   0  0  0  0  0  0  0  0  0  0  0  0
   33.6655   24.5399   45.8888 H   0  0  0  0  0  0  0  0  0  0  0  0
   31.7440   25.4612   43.8690 H   0  0  0  0  0  0  0  0  0  0  0  0
   32.0088   27.0400   43.0450 H   0  0  0  0  0  0  0  0  0  0  0  0
   33.1835   26.0263   41.2490 H   0  0  0  0  0  0  0  0  0  0  0  0
   31.7697   24.9634   41.5408 H   0  0  0  0  0  0  0  0  0  0  0  0
   33.2088   23.6509   42.9766 H   0  0  0  0  0  0  0  0  0  0  0  0
   35.3588   23.8899   43.2729 H   0  0  0  0  0  0  0  0  0  0  0  0
   35.5205   24.7632   41.6840 H   0  0  0  0  0  0  0  0  0  0  0  0
   35.7351   25.9813   44.0603 H   0  0  0  0  0  0  0  0  0  0  0  0
   35.0740   26.7658   42.5627 H   0  0  0  0  0  0  0  0  0  0  0  0
  1  8  1  0
  2  3  1  0
  3  4  2  0
  3  8  1  0
  4  5  1  0
  5  6  2  0
  7  6  1  0
  8  7  2  0
  9 14  2  0
 10 11  2  0
 10  9  1  0
 11 12  1  0
 12 13  2  0
 13  4  1  0
 14 13  1  0
 15 16  1  0
 16 17  2  0
 17  1  1  0
 17 18  1  0
 19 18  2  0
 20 19  1  0
 21 16  1  0
 21 20  2  0
 22 21  1  0
 23 22  1  0
 24 25  1  0
 24 23  1  0
 25 26  1  0
 26 27  1  0
 27 22  1  0
  5 28  1  0
  6 29  1  0
  7 30  1  0
  9 31  1  0
 10 32  1  0
 11 33  1  0
 18 34  1  0
 19 35  1  0
 20 36  1  0
 23 37  1  0
 23 38  1  0
 24 39  1  0
 24 40  1  0
 25 41  1  0
 26 42  1  0
 26 43  1  0
 27 44  1  0
 27 45  1  0
M  ISO  8  28  14  29  14  30  14  31  14  32  14  33  14  34  14  35  14
M  ISO  8  36  14  37  13  38  13  39  13  40  13  41   5  42  13  43  13
M  ISO  2  44  13  45  13
M  END
>  <minimizedAffinity>  (1) 
-5.61963606

>  <minimizedRMSD>  (1) 
0.206940547

$$$$
