
     RDKit          3D

 20 21  0  0  0  0  0  0  0  0999 V2000
   37.0480   29.5460   50.8450 C   0  0  0  0  0  0  0  0  0  0  0  0
   37.9230   30.0750   49.8880 C   0  0  0  0  0  0  0  0  0  0  0  0
   37.4520   30.7340   48.7550 C   0  0  0  0  0  0  0  0  0  0  0  0
   36.1030   30.8270   48.6430 N   0  0  0  0  0  0  0  0  0  0  0  0
   35.2680   30.3180   49.5630 C   0  0  0  0  0  0  0  0  0  0  0  0
   35.7280   29.6840   50.6530 N   0  0  0  0  0  0  0  0  0  0  0  0
   38.4310   33.4610   49.3520 Cl  0  0  0  0  0  0  0  0  0  0  0  0
   38.8360   32.5440   47.9290 C   0  0  0  0  0  0  0  0  0  0  0  0
   38.3350   31.2950   47.7430 C   0  0  0  0  0  0  0  0  0  0  0  0
   38.7130   30.6500   46.5870 C   0  0  0  0  0  0  0  0  0  0  0  0
   39.5400   31.1770   45.6410 C   0  0  0  0  0  0  0  0  0  0  0  0
   40.0330   32.4430   45.8560 C   0  0  0  0  0  0  0  0  0  0  0  0
   39.6860   33.1480   47.0080 C   0  0  0  0  0  0  0  0  0  0  0  0
   37.4352   29.0284   51.7351 H   0  0  0  0  0  0  0  0  0  0  0  0
   39.0079   29.9675   50.0346 H   0  0  0  0  0  0  0  0  0  0  0  0
   34.1824   30.4229   49.4202 H   0  0  0  0  0  0  0  0  0  0  0  0
   38.3195   29.6373   46.4148 H   0  0  0  0  0  0  0  0  0  0  0  0
   39.8043   30.6096   44.7365 H   0  0  0  0  0  0  0  0  0  0  0  0
   40.7045   32.9017   45.1153 H   0  0  0  0  0  0  0  0  0  0  0  0
   40.0764   34.1611   47.1849 H   0  0  0  0  0  0  0  0  0  0  0  0
  2  1  2  0
  3  2  1  0
  4  3  2  0
  4  5  1  0
  5  6  2  0
  6  1  1  0
  8  7  1  0
  9  8  2  0
  9  3  1  0
 10  9  1  0
 11 12  1  0
 11 10  2  0
 12 13  2  0
 13  8  1  0
  1 14  1  0
  2 15  1  0
  5 16  1  0
 10 17  1  0
 11 18  1  0
 12 19  1  0
 13 20  1  0
M  ISO  7  14  14  15  14  16  14  17  14  18  14  19  14  20  14
M  END
>  <minimizedAffinity>  (1) 
-5.25680161

>  <minimizedRMSD>  (1) 
0.804974854

$$$$
