
     RDKit          3D

 28 29  0  0  0  0  0  0  0  0999 V2000
   38.0630   31.7520   48.9980 Br  0  0  0  0  0  0  0  0  0  0  0  0
   36.8580   31.0050   47.7060 C   0  0  0  0  0  0  0  0  0  0  0  0
   37.2090   30.9570   46.3740 C   0  0  0  0  0  0  0  0  0  0  0  0
   36.3050   30.4090   45.4900 C   0  0  0  0  0  0  0  0  0  0  0  0
   35.0770   29.9150   45.8830 C   0  0  0  0  0  0  0  0  0  0  0  0
   34.7610   29.9830   47.2340 C   0  0  0  0  0  0  0  0  0  0  0  0
   35.6650   30.5320   48.1350 C   0  0  0  0  0  0  0  0  0  0  0  0
   39.7280   33.2010   44.9810 C   0  0  0  0  0  0  0  0  0  0  0  0
   40.9230   32.4440   45.0170 C   0  0  0  0  0  0  0  0  0  0  0  0
   40.8370   31.1610   45.5250 C   0  0  0  0  0  0  0  0  0  0  0  0
   39.6280   30.6890   45.9630 N   0  0  0  0  0  0  0  0  0  0  0  0
   38.4980   31.4660   45.9060 C   0  0  0  0  0  0  0  0  0  0  0  0
   38.5630   32.7150   45.4150 N   0  0  0  0  0  0  0  0  0  0  0  0
   35.2110   30.5480   49.5560 C   0  0  0  0  0  0  0  0  0  0  0  0
   34.2760   29.4150   49.8810 C   0  0  0  0  0  0  0  0  0  0  0  0
   35.0730   28.2100   50.0350 N   0  0  0  0  0  0  0  0  0  0  0  0
   36.5735   30.3631   44.4243 H   0  0  0  0  0  0  0  0  0  0  0  0
   34.3754   29.4838   45.1538 H   0  0  0  0  0  0  0  0  0  0  0  0
   33.7931   29.6014   47.5912 H   0  0  0  0  0  0  0  0  0  0  0  0
   39.7602   34.2254   44.5815 H   0  0  0  0  0  0  0  0  0  0  0  0
   41.8768   32.8574   44.6573 H   0  0  0  0  0  0  0  0  0  0  0  0
   41.7325   30.5243   45.5770 H   0  0  0  0  0  0  0  0  0  0  0  0
   36.0938   30.4735   50.2081 H   0  0  0  0  0  0  0  0  0  0  0  0
   34.6625   31.4876   49.7184 H   0  0  0  0  0  0  0  0  0  0  0  0
   33.7388   29.6301   50.8165 H   0  0  0  0  0  0  0  0  0  0  0  0
   33.5361   29.2856   49.0773 H   0  0  0  0  0  0  0  0  0  0  0  0
   35.2046   28.0111   51.0370 H   0  0  0  0  0  0  0  0  0  0  0  0
   34.5883   27.4184   49.5886 H   0  0  0  0  0  0  0  0  0  0  0  0
  2  7  2  0
  2  1  1  0
  3  2  1  0
  4  5  1  0
  4  3  2  0
  5  6  2  0
  6  7  1  0
  7 14  1  0
  8  9  2  0
  8 13  1  0
  9 10  1  0
 10 11  2  0
 12 11  1  0
 12  3  1  0
 13 12  2  0
 14 15  1  0
 15 16  1  0
  4 17  1  0
  5 18  1  0
  6 19  1  0
  8 20  1  0
  9 21  1  0
 10 22  1  0
 14 23  1  0
 14 24  1  0
 15 25  1  0
 15 26  1  0
 16 27  1  0
 16 28  1  0
M  ISO  8  17  14  18  14  19  14  20  14  21  14  22  14  23   8  24   8
M  ISO  4  25   8  26   8  27   5  28   5
M  END
>  <minimizedAffinity>  (1) 
-5.0009408

>  <minimizedRMSD>  (1) 
0.272706389

$$$$
