
     RDKit          3D

 22 23  0  0  0  0  0  0  0  0999 V2000
   38.2350   33.3310   49.4710 Cl  0  0  0  0  0  0  0  0  0  0  0  0
   38.6720   32.4180   48.0470 C   0  0  0  0  0  0  0  0  0  0  0  0
   38.1710   31.1730   47.8540 C   0  0  0  0  0  0  0  0  0  0  0  0
   38.5740   30.5330   46.7030 C   0  0  0  0  0  0  0  0  0  0  0  0
   39.4210   31.0660   45.7800 C   0  0  0  0  0  0  0  0  0  0  0  0
   39.9090   32.3220   46.0030 C   0  0  0  0  0  0  0  0  0  0  0  0
   39.5380   33.0270   47.1540 C   0  0  0  0  0  0  0  0  0  0  0  0
   36.8400   29.4040   50.9230 C   0  0  0  0  0  0  0  0  0  0  0  0
   37.7300   29.9390   49.9790 C   0  0  0  0  0  0  0  0  0  0  0  0
   37.2720   30.6140   48.8390 C   0  0  0  0  0  0  0  0  0  0  0  0
   35.9340   30.7070   48.7260 N   0  0  0  0  0  0  0  0  0  0  0  0
   35.0870   30.1960   49.6270 C   0  0  0  0  0  0  0  0  0  0  0  0
   35.5310   29.5460   50.7250 N   0  0  0  0  0  0  0  0  0  0  0  0
   40.0720   34.3320   47.3450 N   0  0  0  0  0  0  0  0  0  0  0  0
   38.1846   29.5213   46.5166 H   0  0  0  0  0  0  0  0  0  0  0  0
   39.7044   30.5009   44.8798 H   0  0  0  0  0  0  0  0  0  0  0  0
   40.5954   32.7808   45.2762 H   0  0  0  0  0  0  0  0  0  0  0  0
   37.2174   28.8763   51.8113 H   0  0  0  0  0  0  0  0  0  0  0  0
   38.8127   29.8260   50.1374 H   0  0  0  0  0  0  0  0  0  0  0  0
   34.0040   30.3077   49.4701 H   0  0  0  0  0  0  0  0  0  0  0  0
   39.8173   34.8752   48.1823 H   0  0  0  0  0  0  0  0  0  0  0  0
   40.7132   34.7335   46.6460 H   0  0  0  0  0  0  0  0  0  0  0  0
  2  1  1  0
  3  2  2  0
  3 10  1  0
  4  3  1  0
  5  6  1  0
  5  4  2  0
  6  7  2  0
  7 14  1  0
  7  2  1  0
  9  8  2  0
 10  9  1  0
 11 10  2  0
 11 12  1  0
 12 13  2  0
 13  8  1  0
  4 15  1  0
  5 16  1  0
  6 17  1  0
  8 18  1  0
  9 19  1  0
 12 20  1  0
 14 21  1  0
 14 22  1  0
M  ISO  6  15  14  16  14  17  14  18  14  19  14  20  14
M  END
>  <minimizedAffinity>  (1) 
-5.59178591

>  <minimizedRMSD>  (1) 
0.238253921

$$$$
