
     RDKit          3D

 24 25  0  0  0  0  0  0  0  0999 V2000
   38.5760   32.3040   48.3790 Cl  0  0  0  0  0  0  0  0  0  0  0  0
   37.7970   31.6890   46.9510 C   0  0  0  0  0  0  0  0  0  0  0  0
   36.7930   30.7630   47.0490 C   0  0  0  0  0  0  0  0  0  0  0  0
   36.2400   30.3410   45.8690 C   0  0  0  0  0  0  0  0  0  0  0  0
   36.6080   30.7660   44.6320 C   0  0  0  0  0  0  0  0  0  0  0  0
   37.6210   31.6990   44.5610 C   0  0  0  0  0  0  0  0  0  0  0  0
   38.2260   32.1710   45.7170 C   0  0  0  0  0  0  0  0  0  0  0  0
   36.8880   29.2440   50.5150 C   0  0  0  0  0  0  0  0  0  0  0  0
   37.2840   29.6800   49.2480 C   0  0  0  0  0  0  0  0  0  0  0  0
   36.3970   30.3070   48.3610 C   0  0  0  0  0  0  0  0  0  0  0  0
   35.1430   30.4550   48.8220 N   0  0  0  0  0  0  0  0  0  0  0  0
   34.7480   30.0420   50.0340 C   0  0  0  0  0  0  0  0  0  0  0  0
   35.6090   29.4420   50.8750 N   0  0  0  0  0  0  0  0  0  0  0  0
   40.6660   32.9090   45.4060 C   0  0  0  0  0  0  0  0  0  0  0  0
   41.0780   31.7410   45.3220 O   0  0  0  0  0  0  0  0  0  0  0  0
   39.2690   33.1340   45.6000 N   0  0  0  0  0  0  0  0  0  0  0  0
   35.4318   29.5971   45.9276 H   0  0  0  0  0  0  0  0  0  0  0  0
   36.1183   30.3819   43.7250 H   0  0  0  0  0  0  0  0  0  0  0  0
   37.9519   32.0719   43.5804 H   0  0  0  0  0  0  0  0  0  0  0  0
   37.6003   28.7546   51.1955 H   0  0  0  0  0  0  0  0  0  0  0  0
   38.3274   29.5262   48.9355 H   0  0  0  0  0  0  0  0  0  0  0  0
   33.7043   30.1960   50.3456 H   0  0  0  0  0  0  0  0  0  0  0  0
   41.3644   33.7556   45.3323 H   0  0  0  0  0  0  0  0  0  0  0  0
   38.9782   34.1200   45.6635 H   0  0  0  0  0  0  0  0  0  0  0  0
  2  3  2  0
  2  1  1  0
  3 10  1  0
  4  3  1  0
  5  4  2  0
  6  5  1  0
  6  7  2  0
  7  2  1  0
  8 13  2  0
  9  8  1  0
 10 11  1  0
 10  9  2  0
 11 12  2  0
 12 13  1  0
 14 16  1  0
 15 14  2  0
 16  7  1  0
  4 17  1  0
  5 18  1  0
  6 19  1  0
  8 20  1  0
  9 21  1  0
 12 22  1  0
 14 23  1  0
 16 24  1  0
M  ISO  7  17  14  18  14  19  14  20  14  21  14  22  14  23   6
M  END
>  <minimizedAffinity>  (1) 
-5.28712416

>  <minimizedRMSD>  (1) 
1.96676385

$$$$
