
     RDKit          3D

 35 37  0  0  0  0  0  0  0  0999 V2000
   38.3320   30.9070   47.7870 Cl  0  0  0  0  0  0  0  0  0  0  0  0
   37.0130   30.5710   46.6980 C   0  0  0  0  0  0  0  0  0  0  0  0
   35.8350   30.0760   47.1700 C   0  0  0  0  0  0  0  0  0  0  0  0
   34.8480   29.8400   46.2360 C   0  0  0  0  0  0  0  0  0  0  0  0
   34.9770   30.0680   44.9000 C   0  0  0  0  0  0  0  0  0  0  0  0
   36.1780   30.5670   44.4500 C   0  0  0  0  0  0  0  0  0  0  0  0
   37.2060   30.8240   45.3430 C   0  0  0  0  0  0  0  0  0  0  0  0
   36.6290   29.3000   50.7920 C   0  0  0  0  0  0  0  0  0  0  0  0
   36.7700   29.5290   49.4240 C   0  0  0  0  0  0  0  0  0  0  0  0
   35.7020   29.8360   48.5910 C   0  0  0  0  0  0  0  0  0  0  0  0
   34.4930   29.8980   49.2110 N   0  0  0  0  0  0  0  0  0  0  0  0
   34.3420   29.6790   50.5300 C   0  0  0  0  0  0  0  0  0  0  0  0
   35.4050   29.3830   51.3110 N   0  0  0  0  0  0  0  0  0  0  0  0
   38.3830   31.3300   44.7830 N   0  0  0  0  0  0  0  0  0  0  0  0
   39.5200   30.5000   44.4620 C   0  0  0  0  0  0  0  0  0  0  0  0
   40.4450   31.0720   43.4480 C   0  0  0  0  0  0  0  0  0  0  0  0
   39.8250   31.9820   42.4360 C   0  0  0  0  0  0  0  0  0  0  0  0
   38.7570   32.8780   42.9960 C   0  0  0  0  0  0  0  0  0  0  0  0
   38.5670   32.7220   44.4770 C   0  0  0  0  0  0  0  0  0  0  0  0
   33.8889   29.4393   46.5959 H   0  0  0  0  0  0  0  0  0  0  0  0
   34.1503   29.8606   44.2046 H   0  0  0  0  0  0  0  0  0  0  0  0
   36.3225   30.7626   43.3772 H   0  0  0  0  0  0  0  0  0  0  0  0
   37.4986   29.0591   51.4211 H   0  0  0  0  0  0  0  0  0  0  0  0
   37.7757   29.4634   48.9832 H   0  0  0  0  0  0  0  0  0  0  0  0
   33.3398   29.7417   50.9790 H   0  0  0  0  0  0  0  0  0  0  0  0
   40.0902   30.3287   45.3869 H   0  0  0  0  0  0  0  0  0  0  0  0
   39.1143   29.5762   44.0239 H   0  0  0  0  0  0  0  0  0  0  0  0
   41.2202   31.6408   43.9822 H   0  0  0  0  0  0  0  0  0  0  0  0
   40.8298   30.2130   42.8788 H   0  0  0  0  0  0  0  0  0  0  0  0
   39.3782   31.3646   41.6428 H   0  0  0  0  0  0  0  0  0  0  0  0
   40.6263   32.6360   42.0615 H   0  0  0  0  0  0  0  0  0  0  0  0
   39.0327   33.9223   42.7875 H   0  0  0  0  0  0  0  0  0  0  0  0
   37.8092   32.5953   42.5145 H   0  0  0  0  0  0  0  0  0  0  0  0
   39.4549   33.1009   45.0043 H   0  0  0  0  0  0  0  0  0  0  0  0
   37.6835   33.2925   44.7996 H   0  0  0  0  0  0  0  0  0  0  0  0
  2  3  2  0
  2  1  1  0
  3 10  1  0
  4  3  1  0
  5  4  2  0
  6  5  1  0
  6  7  2  0
  7  2  1  0
  8 13  2  0
  9  8  1  0
 10 11  1  0
 10  9  2  0
 11 12  2  0
 12 13  1  0
 14  7  1  0
 15 14  1  0
 16 15  1  0
 17 18  1  0
 17 16  1  0
 18 19  1  0
 19 14  1  0
  4 20  1  0
  5 21  1  0
  6 22  1  0
  8 23  1  0
  9 24  1  0
 12 25  1  0
 15 26  1  0
 15 27  1  0
 16 28  1  0
 16 29  1  0
 17 30  1  0
 17 31  1  0
 18 32  1  0
 18 33  1  0
 19 34  1  0
 19 35  1  0
M  ISO  8  20  14  21  14  22  14  23  14  24  14  25  14  26  13  27  13
M  ISO  8  28  13  29  13  30  13  31  13  32  13  33  13  34  13  35  13
M  END
>  <minimizedAffinity>  (1) 
-5.27424192

>  <minimizedRMSD>  (1) 
4.2646513

$$$$
