
     RDKit          3D

 23 24  0  0  0  0  0  0  0  0999 V2000
   38.2910   33.2580   49.6140 Cl  0  0  0  0  0  0  0  0  0  0  0  0
   38.6970   32.4050   48.1440 C   0  0  0  0  0  0  0  0  0  0  0  0
   38.1590   31.1890   47.8900 C   0  0  0  0  0  0  0  0  0  0  0  0
   38.5370   30.5860   46.7010 C   0  0  0  0  0  0  0  0  0  0  0  0
   39.3980   31.1410   45.8050 C   0  0  0  0  0  0  0  0  0  0  0  0
   39.9240   32.3690   46.0900 C   0  0  0  0  0  0  0  0  0  0  0  0
   39.5800   33.0170   47.2650 C   0  0  0  0  0  0  0  0  0  0  0  0
   36.7360   29.3330   50.8630 C   0  0  0  0  0  0  0  0  0  0  0  0
   37.6660   29.8790   49.9610 C   0  0  0  0  0  0  0  0  0  0  0  0
   37.2340   30.6000   48.8600 C   0  0  0  0  0  0  0  0  0  0  0  0
   35.8920   30.7410   48.7160 N   0  0  0  0  0  0  0  0  0  0  0  0
   35.0180   30.2140   49.5860 C   0  0  0  0  0  0  0  0  0  0  0  0
   35.4330   29.5190   50.6460 N   0  0  0  0  0  0  0  0  0  0  0  0
   40.1430   34.3690   47.6080 C   0  0  0  0  0  0  0  0  0  0  0  0
   38.1150   29.5975   46.4669 H   0  0  0  0  0  0  0  0  0  0  0  0
   39.6632   30.6148   44.8762 H   0  0  0  0  0  0  0  0  0  0  0  0
   40.6221   32.8442   45.3851 H   0  0  0  0  0  0  0  0  0  0  0  0
   37.0786   28.7595   51.7369 H   0  0  0  0  0  0  0  0  0  0  0  0
   38.7430   29.7328   50.1306 H   0  0  0  0  0  0  0  0  0  0  0  0
   33.9397   30.3575   49.4225 H   0  0  0  0  0  0  0  0  0  0  0  0
   40.1893   34.4803   48.7014 H   0  0  0  0  0  0  0  0  0  0  0  0
   41.1548   34.4625   47.1867 H   0  0  0  0  0  0  0  0  0  0  0  0
   39.4966   35.1530   47.1867 H   0  0  0  0  0  0  0  0  0  0  0  0
  2  1  1  0
  3  2  2  0
  3 10  1  0
  4  3  1  0
  5  6  1  0
  5  4  2  0
  6  7  2  0
  7 14  1  0
  7  2  1  0
  9  8  2  0
 10  9  1  0
 11 10  2  0
 11 12  1  0
 12 13  2  0
 13  8  1  0
  4 15  1  0
  5 16  1  0
  6 17  1  0
  8 18  1  0
  9 19  1  0
 12 20  1  0
 14 21  1  0
 14 22  1  0
 14 23  1  0
M  ISO  8  15  14  16  14  17  14  18  14  19  14  20  14  21   8  22   8
M  ISO  1  23   8
M  END
>  <minimizedAffinity>  (1) 
-5.20840454

>  <minimizedRMSD>  (1) 
0.300733179

$$$$
