
     RDKit          3D

 32 34  0  0  0  0  0  0  0  0999 V2000
   38.9200   31.2640   47.0670 Cl  0  0  0  0  0  0  0  0  0  0  0  0
   37.3570   30.7790   46.4660 C   0  0  0  0  0  0  0  0  0  0  0  0
   36.3810   30.3560   47.3200 C   0  0  0  0  0  0  0  0  0  0  0  0
   35.1900   29.9980   46.7380 C   0  0  0  0  0  0  0  0  0  0  0  0
   34.9230   30.0340   45.4060 C   0  0  0  0  0  0  0  0  0  0  0  0
   35.9190   30.4610   44.5720 C   0  0  0  0  0  0  0  0  0  0  0  0
   37.1470   30.8400   45.0870 C   0  0  0  0  0  0  0  0  0  0  0  0
   37.1050   31.4200   50.8770 C   0  0  0  0  0  0  0  0  0  0  0  0
   36.8290   31.4790   49.5080 C   0  0  0  0  0  0  0  0  0  0  0  0
   36.6680   30.3190   48.7410 C   0  0  0  0  0  0  0  0  0  0  0  0
   36.7940   29.1470   49.4020 N   0  0  0  0  0  0  0  0  0  0  0  0
   37.0600   29.0960   50.7210 C   0  0  0  0  0  0  0  0  0  0  0  0
   37.2130   30.2040   51.4500 N   0  0  0  0  0  0  0  0  0  0  0  0
   38.2070   31.2910   44.2370 N   0  0  0  0  0  0  0  0  0  0  0  0
   38.6390   32.6010   43.8120 C   0  0  0  0  0  0  0  0  0  0  0  0
   39.5760   32.2860   42.6650 C   0  0  0  0  0  0  0  0  0  0  0  0
   40.2850   31.0570   43.2040 C   0  0  0  0  0  0  0  0  0  0  0  0
   39.0610   30.2500   43.6480 C   0  0  0  0  0  0  0  0  0  0  0  0
   34.3858   29.6537   47.4048 H   0  0  0  0  0  0  0  0  0  0  0  0
   33.9414   29.7307   45.0130 H   0  0  0  0  0  0  0  0  0  0  0  0
   35.7437   30.5036   43.4869 H   0  0  0  0  0  0  0  0  0  0  0  0
   37.2304   32.3383   51.4695 H   0  0  0  0  0  0  0  0  0  0  0  0
   36.7360   32.4611   49.0213 H   0  0  0  0  0  0  0  0  0  0  0  0
   37.1537   28.1156   51.2108 H   0  0  0  0  0  0  0  0  0  0  0  0
   37.7873   33.2090   43.4730 H   0  0  0  0  0  0  0  0  0  0  0  0
   39.1120   33.1865   44.6142 H   0  0  0  0  0  0  0  0  0  0  0  0
   40.2801   33.1105   42.4797 H   0  0  0  0  0  0  0  0  0  0  0  0
   39.0754   32.1344   41.6973 H   0  0  0  0  0  0  0  0  0  0  0  0
   40.8607   30.5375   42.4238 H   0  0  0  0  0  0  0  0  0  0  0  0
   41.0348   31.2481   43.9859 H   0  0  0  0  0  0  0  0  0  0  0  0
   38.5687   29.7664   42.7914 H   0  0  0  0  0  0  0  0  0  0  0  0
   39.2984   29.4274   44.3386 H   0  0  0  0  0  0  0  0  0  0  0  0
  2  1  1  0
  2  3  2  0
  3 10  1  0
  4  3  1  0
  5  4  2  0
  6  7  2  0
  6  5  1  0
  7  2  1  0
  8 13  2  0
  9  8  1  0
 10 11  1  0
 10  9  2  0
 11 12  2  0
 12 13  1  0
 14  7  1  0
 15 14  1  0
 16 17  1  0
 16 15  1  0
 17 18  1  0
 18 14  1  0
  4 19  1  0
  5 20  1  0
  6 21  1  0
  8 22  1  0
  9 23  1  0
 12 24  1  0
 15 25  1  0
 15 26  1  0
 16 27  1  0
 16 28  1  0
 17 29  1  0
 17 30  1  0
 18 31  1  0
 18 32  1  0
M  ISO  8  19  14  20  14  21  14  22  14  23  14  24  14  25  13  26  13
M  ISO  6  27  13  28  13  29  13  30  13  31  13  32  13
M  END
>  <minimizedAffinity>  (1) 
-4.97602034

>  <minimizedRMSD>  (1) 
4.03088856

$$$$
