
     RDKit          3D

 22 23  0  0  0  0  0  0  0  0999 V2000
   38.7550   32.3320   48.6420 Cl  0  0  0  0  0  0  0  0  0  0  0  0
   38.1280   31.7730   47.1250 C   0  0  0  0  0  0  0  0  0  0  0  0
   37.1030   30.8810   47.0720 C   0  0  0  0  0  0  0  0  0  0  0  0
   36.6790   30.5000   45.8220 C   0  0  0  0  0  0  0  0  0  0  0  0
   37.2110   30.9510   44.6550 C   0  0  0  0  0  0  0  0  0  0  0  0
   38.2540   31.8610   44.7290 C   0  0  0  0  0  0  0  0  0  0  0  0
   38.7180   32.2760   45.9650 C   0  0  0  0  0  0  0  0  0  0  0  0
   36.6870   29.2570   50.4670 C   0  0  0  0  0  0  0  0  0  0  0  0
   37.2650   29.7050   49.2720 C   0  0  0  0  0  0  0  0  0  0  0  0
   36.5400   30.4020   48.3200 C   0  0  0  0  0  0  0  0  0  0  0  0
   35.2280   30.6210   48.6280 N   0  0  0  0  0  0  0  0  0  0  0  0
   34.6800   30.1880   49.7770 C   0  0  0  0  0  0  0  0  0  0  0  0
   35.3960   29.5150   50.6880 N   0  0  0  0  0  0  0  0  0  0  0  0
   39.8180   33.2340   46.0340 C   0  0  0  0  0  0  0  0  0  0  0  0
   40.1490   33.8960   45.0360 O   0  0  0  0  0  0  0  0  0  0  0  0
   35.8505   29.7790   45.7611 H   0  0  0  0  0  0  0  0  0  0  0  0
   36.8265   30.6052   43.6841 H   0  0  0  0  0  0  0  0  0  0  0  0
   38.7114   32.2520   43.8082 H   0  0  0  0  0  0  0  0  0  0  0  0
   37.2842   28.7045   51.2073 H   0  0  0  0  0  0  0  0  0  0  0  0
   38.3286   29.4965   49.0840 H   0  0  0  0  0  0  0  0  0  0  0  0
   33.6171   30.3914   49.9741 H   0  0  0  0  0  0  0  0  0  0  0  0
   40.3602   33.3712   46.9812 H   0  0  0  0  0  0  0  0  0  0  0  0
  2  1  1  0
  3  2  2  0
  3 10  1  0
  4  3  1  0
  5  6  1  0
  5  4  2  0
  6  7  2  0
  7 14  1  0
  7  2  1  0
  8 13  2  0
  9  8  1  0
 10 11  1  0
 10  9  2  0
 11 12  2  0
 12 13  1  0
 15 14  2  0
  4 16  1  0
  5 17  1  0
  6 18  1  0
  8 19  1  0
  9 20  1  0
 12 21  1  0
 14 22  1  0
M  ISO  7  16  14  17  14  18  14  19  14  20  14  21  14  22   6
M  END
>  <minimizedAffinity>  (1) 
-4.81112766

>  <minimizedRMSD>  (1) 
1.55837131

$$$$
