
     RDKit          3D

 41 44  0  0  1  0  0  0  0  0999 V2000
   38.2940   30.9700   47.5540 Cl  0  0  0  0  0  0  0  0  0  0  0  0
   36.9350   30.6190   46.5230 C   0  0  0  0  0  0  0  0  0  0  0  0
   35.8060   30.1110   47.0620 C   0  0  0  0  0  0  0  0  0  0  0  0
   34.7590   29.8900   46.1690 C   0  0  0  0  0  0  0  0  0  0  0  0
   34.8030   30.1440   44.8330 C   0  0  0  0  0  0  0  0  0  0  0  0
   35.9780   30.6620   44.3280 C   0  0  0  0  0  0  0  0  0  0  0  0
   37.0680   30.9060   45.1790 C   0  0  0  0  0  0  0  0  0  0  0  0
   38.2790   31.4170   44.6340 N   0  0  0  0  0  0  0  0  0  0  0  0
   38.7130   32.8040   44.7170 C   0  0  0  0  0  0  0  0  0  0  0  0
   39.9680   32.9010   43.8530 C   0  0  0  0  0  0  0  0  0  0  0  0
   39.5610   32.4490   42.5610 N   0  0  0  0  0  0  0  0  0  0  0  0
   39.3440   31.0500   42.5380 C   0  0  0  0  0  0  0  0  0  0  0  0
   39.1440   30.4930   43.9350 C   0  0  2  0  0  0  0  0  0  0  0  0
   38.5130   29.1350   43.7160 C   0  0  0  0  0  0  0  0  0  0  0  0
   39.2230   27.9510   43.2640 C   0  0  0  0  0  0  0  0  0  0  0  0
   38.0980   28.6280   42.4120 C   0  0  0  0  0  0  0  0  0  0  0  0
   36.7660   29.2640   50.5950 C   0  0  0  0  0  0  0  0  0  0  0  0
   36.8590   29.5220   49.2250 C   0  0  0  0  0  0  0  0  0  0  0  0
   35.7340   29.8270   48.4750 C   0  0  0  0  0  0  0  0  0  0  0  0
   34.5450   29.8570   49.1430 N   0  0  0  0  0  0  0  0  0  0  0  0
   34.4440   29.6080   50.4620 C   0  0  0  0  0  0  0  0  0  0  0  0
   35.5520   29.3110   51.1940 N   0  0  0  0  0  0  0  0  0  0  0  0
   33.8239   29.4780   46.5762 H   0  0  0  0  0  0  0  0  0  0  0  0
   33.9383   29.9448   44.1829 H   0  0  0  0  0  0  0  0  0  0  0  0
   36.0612   30.8848   43.2540 H   0  0  0  0  0  0  0  0  0  0  0  0
   37.9302   33.4738   44.3315 H   0  0  0  0  0  0  0  0  0  0  0  0
   38.9135   33.1034   45.7563 H   0  0  0  0  0  0  0  0  0  0  0  0
   40.3251   33.9403   43.8046 H   0  0  0  0  0  0  0  0  0  0  0  0
   40.7971   32.3026   44.2587 H   0  0  0  0  0  0  0  0  0  0  0  0
   38.6862   32.9265   42.3010 H   0  0  0  0  0  0  0  0  0  0  0  0
   38.4474   30.8376   41.9372 H   0  0  0  0  0  0  0  0  0  0  0  0
   40.2324   30.5711   42.1005 H   0  0  0  0  0  0  0  0  0  0  0  0
   40.0577   30.3804   44.5370 H   0  0  0  0  0  0  0  0  0  0  0  0
   37.9693   29.3670   44.6436 H   0  0  0  0  0  0  0  0  0  0  0  0
   40.2752   28.0191   42.9507 H   0  0  0  0  0  0  0  0  0  0  0  0
   39.4160   26.9440   43.6624 H   0  0  0  0  0  0  0  0  0  0  0  0
   38.3495   29.1792   41.4939 H   0  0  0  0  0  0  0  0  0  0  0  0
   37.1526   28.3088   41.9490 H   0  0  0  0  0  0  0  0  0  0  0  0
   37.6669   29.0258   51.1795 H   0  0  0  0  0  0  0  0  0  0  0  0
   37.8421   29.4824   48.7331 H   0  0  0  0  0  0  0  0  0  0  0  0
   33.4595   29.6448   50.9513 H   0  0  0  0  0  0  0  0  0  0  0  0
  2  3  2  0
  2  1  1  0
  3 19  1  0
  4  3  1  0
  5  4  2  0
  6  5  1  0
  6  7  2  0
  7  2  1  0
  8  9  1  0
  8  7  1  0
 10  9  1  0
 11 10  1  0
 12 11  1  0
 12 13  1  0
 13  8  1  0
 14 13  1  0
 15 14  1  0
 16 15  1  0
 16 14  1  0
 17 22  2  0
 18 17  1  0
 19 20  1  0
 19 18  2  0
 20 21  2  0
 21 22  1  0
  4 23  1  0
  5 24  1  0
  6 25  1  0
  9 26  1  0
  9 27  1  0
 10 28  1  0
 10 29  1  0
 11 30  1  0
 12 31  1  0
 12 32  1  0
 13 33  1  1
 14 34  1  0
 15 35  1  0
 15 36  1  0
 16 37  1  0
 16 38  1  0
 17 39  1  0
 18 40  1  0
 21 41  1  0
M  ISO  8  23  14  24  14  25  14  26  13  27  13  28  13  29  13  30   5
M  ISO  8  31  13  32  13  33  13  34  13  35  13  36  13  37  13  38  13
M  ISO  3  39  14  40  14  41  14
M  END
>  <minimizedAffinity>  (1) 
-5.46523094

>  <minimizedRMSD>  (1) 
0.639150441

$$$$
