
     RDKit          3D

 40 42  0  0  1  0  0  0  0  0999 V2000
   38.8550   31.4070   47.1630 Cl  0  0  0  0  0  0  0  0  0  0  0  0
   37.3480   30.8130   46.5720 C   0  0  0  0  0  0  0  0  0  0  0  0
   36.4340   30.3230   47.4390 C   0  0  0  0  0  0  0  0  0  0  0  0
   35.2210   29.9190   46.8820 C   0  0  0  0  0  0  0  0  0  0  0  0
   34.9160   29.9900   45.5560 C   0  0  0  0  0  0  0  0  0  0  0  0
   35.8770   30.4940   44.7110 C   0  0  0  0  0  0  0  0  0  0  0  0
   37.1220   30.9160   45.2160 C   0  0  0  0  0  0  0  0  0  0  0  0
   38.1440   31.3880   44.3160 N   0  0  0  0  0  0  0  0  0  0  0  0
   38.5550   32.8070   44.2730 C   0  0  0  0  0  0  0  0  0  0  0  0
   39.3830   32.9720   43.0390 C   0  0  0  0  0  0  0  0  0  0  0  0
   38.6580   32.4480   41.9430 N   0  0  0  0  0  0  0  0  0  0  0  0
   38.4620   31.0510   42.0040 C   0  0  0  0  0  0  0  0  0  0  0  0
   38.7330   30.4990   43.4100 C   0  0  1  0  0  0  0  0  0  0  0  0
   40.0020   29.8040   43.4920 C   0  0  0  0  0  0  0  0  0  0  0  0
   40.8570   29.6270   42.2790 C   0  0  0  0  0  0  0  0  0  0  0  0
   38.1020   30.8070   50.7760 C   0  0  0  0  0  0  0  0  0  0  0  0
   37.8300   30.8950   49.4110 C   0  0  0  0  0  0  0  0  0  0  0  0
   36.7410   30.2300   48.8410 C   0  0  0  0  0  0  0  0  0  0  0  0
   35.9650   29.4900   49.6920 N   0  0  0  0  0  0  0  0  0  0  0  0
   36.2310   29.4020   51.0120 C   0  0  0  0  0  0  0  0  0  0  0  0
   37.2920   30.0560   51.5560 N   0  0  0  0  0  0  0  0  0  0  0  0
   34.4563   29.5144   47.5613 H   0  0  0  0  0  0  0  0  0  0  0  0
   33.9389   29.6571   45.1760 H   0  0  0  0  0  0  0  0  0  0  0  0
   35.6716   30.5680   43.6329 H   0  0  0  0  0  0  0  0  0  0  0  0
   37.6695   33.4579   44.2263 H   0  0  0  0  0  0  0  0  0  0  0  0
   39.1232   33.0840   45.1732 H   0  0  0  0  0  0  0  0  0  0  0  0
   39.5913   34.0390   42.8710 H   0  0  0  0  0  0  0  0  0  0  0  0
   40.3387   32.4388   43.1503 H   0  0  0  0  0  0  0  0  0  0  0  0
   39.1739   32.6660   41.0786 H   0  0  0  0  0  0  0  0  0  0  0  0
   37.4218   30.8249   41.7270 H   0  0  0  0  0  0  0  0  0  0  0  0
   39.1685   30.5756   41.3077 H   0  0  0  0  0  0  0  0  0  0  0  0
   38.2418   29.5888   43.7846 H   0  0  0  0  0  0  0  0  0  0  0  0
   40.6111   30.3487   44.2284 H   0  0  0  0  0  0  0  0  0  0  0  0
   39.7010   28.7734   43.7312 H   0  0  0  0  0  0  0  0  0  0  0  0
   41.8910   29.4129   42.5873 H   0  0  0  0  0  0  0  0  0  0  0  0
   40.4726   28.7894   41.6785 H   0  0  0  0  0  0  0  0  0  0  0  0
   40.8367   30.5484   41.6785 H   0  0  0  0  0  0  0  0  0  0  0  0
   38.9608   31.3394   51.2107 H   0  0  0  0  0  0  0  0  0  0  0  0
   38.4867   31.5008   48.7693 H   0  0  0  0  0  0  0  0  0  0  0  0
   35.5806   28.7928   51.6569 H   0  0  0  0  0  0  0  0  0  0  0  0
  2  1  1  0
  2  3  2  0
  3 18  1  0
  4  3  1  0
  5  4  2  0
  6  7  2  0
  6  5  1  0
  7  2  1  0
  8  7  1  0
  9  8  1  0
 10  9  1  0
 11 12  1  0
 11 10  1  0
 12 13  1  0
 13 14  1  0
 13  8  1  0
 15 14  1  0
 16 21  2  0
 17 16  1  0
 18 17  2  0
 18 19  1  0
 19 20  2  0
 20 21  1  0
  4 22  1  0
  5 23  1  0
  6 24  1  0
  9 25  1  0
  9 26  1  0
 10 27  1  0
 10 28  1  0
 11 29  1  0
 12 30  1  0
 12 31  1  0
 13 32  1  6
 14 33  1  0
 14 34  1  0
 15 35  1  0
 15 36  1  0
 15 37  1  0
 16 38  1  0
 17 39  1  0
 20 40  1  0
M  ISO  8  22  14  23  14  24  14  25  13  26  13  27  13  28  13  29   5
M  ISO  8  30  13  31  13  32  13  33   8  34   8  35   8  36   8  37   8
M  ISO  3  38  14  39  14  40  14
M  END
>  <minimizedAffinity>  (1) 
-5.45421696

>  <minimizedRMSD>  (1) 
1.59120882

$$$$
