
     RDKit          3D

 37 39  0  0  1  0  0  0  0  0999 V2000
   38.2430   31.1670   47.8310 Cl  0  0  0  0  0  0  0  0  0  0  0  0
   37.0040   30.6490   46.7130 C   0  0  0  0  0  0  0  0  0  0  0  0
   35.8870   30.0520   47.1860 C   0  0  0  0  0  0  0  0  0  0  0  0
   34.9380   29.6940   46.2290 C   0  0  0  0  0  0  0  0  0  0  0  0
   35.0710   29.9040   44.8910 C   0  0  0  0  0  0  0  0  0  0  0  0
   36.2290   30.5160   44.4560 C   0  0  0  0  0  0  0  0  0  0  0  0
   37.2100   30.8950   45.3670 C   0  0  0  0  0  0  0  0  0  0  0  0
   38.4120   31.5160   44.9060 N   0  0  0  0  0  0  0  0  0  0  0  0
   38.5760   32.9140   44.6000 C   0  0  0  0  0  0  0  0  0  0  0  0
   39.8810   33.0830   43.8820 C   0  0  0  0  0  0  0  0  0  0  0  0
   39.9360   32.1260   42.8200 N   0  0  0  0  0  0  0  0  0  0  0  0
   39.9920   30.7880   43.2640 C   0  0  0  0  0  0  0  0  0  0  0  0
   39.5850   30.6850   44.7210 C   0  0  1  0  0  0  0  0  0  0  0  0
   40.7130   30.9180   45.6570 C   0  0  0  0  0  0  0  0  0  0  0  0
   36.6260   29.2910   50.7920 C   0  0  0  0  0  0  0  0  0  0  0  0
   36.8050   29.5000   49.4230 C   0  0  0  0  0  0  0  0  0  0  0  0
   35.7270   29.8170   48.5980 C   0  0  0  0  0  0  0  0  0  0  0  0
   34.5120   29.9050   49.2020 N   0  0  0  0  0  0  0  0  0  0  0  0
   34.3280   29.7040   50.5210 C   0  0  0  0  0  0  0  0  0  0  0  0
   35.3850   29.3980   51.3150 N   0  0  0  0  0  0  0  0  0  0  0  0
   34.0164   29.2072   46.5806 H   0  0  0  0  0  0  0  0  0  0  0  0
   34.2861   29.5979   44.1837 H   0  0  0  0  0  0  0  0  0  0  0  0
   36.3773   30.7053   43.3826 H   0  0  0  0  0  0  0  0  0  0  0  0
   37.7503   33.2546   43.9580 H   0  0  0  0  0  0  0  0  0  0  0  0
   38.5694   33.5100   45.5245 H   0  0  0  0  0  0  0  0  0  0  0  0
   39.9498   34.1005   43.4698 H   0  0  0  0  0  0  0  0  0  0  0  0
   40.7192   32.9268   44.5770 H   0  0  0  0  0  0  0  0  0  0  0  0
   40.7754   32.3162   42.2542 H   0  0  0  0  0  0  0  0  0  0  0  0
   39.3091   30.1774   42.6551 H   0  0  0  0  0  0  0  0  0  0  0  0
   41.0256   30.4260   43.1609 H   0  0  0  0  0  0  0  0  0  0  0  0
   39.3022   29.6547   44.9825 H   0  0  0  0  0  0  0  0  0  0  0  0
   40.3511   30.8433   46.6931 H   0  0  0  0  0  0  0  0  0  0  0  0
   41.4936   30.1621   45.4858 H   0  0  0  0  0  0  0  0  0  0  0  0
   41.1303   31.9213   45.4858 H   0  0  0  0  0  0  0  0  0  0  0  0
   37.4831   29.0428   51.4353 H   0  0  0  0  0  0  0  0  0  0  0  0
   37.8120   29.4132   48.9890 H   0  0  0  0  0  0  0  0  0  0  0  0
   33.3206   29.7879   50.9547 H   0  0  0  0  0  0  0  0  0  0  0  0
  2  3  2  0
  2  1  1  0
  3 17  1  0
  4  3  1  0
  5  4  2  0
  6  5  1  0
  6  7  2  0
  7  2  1  0
  8  7  1  0
  9  8  1  0
 10  9  1  0
 11 12  1  0
 11 10  1  0
 12 13  1  0
 13  8  1  0
 13 14  1  0
 15 20  2  0
 16 15  1  0
 17 18  1  0
 17 16  2  0
 18 19  2  0
 19 20  1  0
  4 21  1  0
  5 22  1  0
  6 23  1  0
  9 24  1  0
  9 25  1  0
 10 26  1  0
 10 27  1  0
 11 28  1  0
 12 29  1  0
 12 30  1  0
 13 31  1  6
 14 32  1  0
 14 33  1  0
 14 34  1  0
 15 35  1  0
 16 36  1  0
 19 37  1  0
M  ISO  8  21  14  22  14  23  14  24  13  25  13  26  13  27  13  28   5
M  ISO  8  29  13  30  13  31  13  32   8  33   8  34   8  35  14  36  14
M  ISO  1  37  14
M  END
>  <minimizedAffinity>  (1) 
-5.42395067

>  <minimizedRMSD>  (1) 
0.20655331

$$$$
