
     RDKit          3D

 32 33  0  0  0  0  0  0  0  0999 V2000
   38.9230   32.3630   47.4830 C   0  0  0  0  0  0  0  0  0  0  0  0
   38.5260   31.0730   47.2730 C   0  0  0  0  0  0  0  0  0  0  0  0
   39.0100   30.4430   46.1410 C   0  0  0  0  0  0  0  0  0  0  0  0
   39.8330   31.0510   45.2740 C   0  0  0  0  0  0  0  0  0  0  0  0
   40.2550   32.3590   45.4570 C   0  0  0  0  0  0  0  0  0  0  0  0
   39.7800   32.9930   46.5780 C   0  0  0  0  0  0  0  0  0  0  0  0
   37.3650   29.5230   50.4530 C   0  0  0  0  0  0  0  0  0  0  0  0
   38.1580   30.1340   49.4640 C   0  0  0  0  0  0  0  0  0  0  0  0
   37.6400   30.4470   48.2220 C   0  0  0  0  0  0  0  0  0  0  0  0
   36.3490   30.1070   48.0930 N   0  0  0  0  0  0  0  0  0  0  0  0
   35.5670   29.5290   48.9980 C   0  0  0  0  0  0  0  0  0  0  0  0
   36.0930   29.2340   50.2000 N   0  0  0  0  0  0  0  0  0  0  0  0
   34.1730   29.2230   48.6970 C   0  0  0  0  0  0  0  0  0  0  0  0
   33.6880   28.0050   48.8500 C   0  0  0  0  0  0  0  0  0  0  0  0
   32.2490   27.7120   48.5350 C   0  0  0  0  0  0  0  0  0  0  0  0
   39.3260   34.2480   48.9020 N   0  0  0  0  0  0  0  0  0  0  0  0
   38.5720   33.2240   48.5690 C   0  0  0  0  0  0  0  0  0  0  0  0
   37.6070   33.4440   49.5640 N   0  0  0  0  0  0  0  0  0  0  0  0
   39.0620   34.8620   49.7060 H   0  0  0  0  0  0  0  0  0  0  0  0
   38.7085   29.4036   45.9442 H   0  0  0  0  0  0  0  0  0  0  0  0
   40.1836   30.4956   44.3916 H   0  0  0  0  0  0  0  0  0  0  0  0
   40.9299   32.8587   44.7465 H   0  0  0  0  0  0  0  0  0  0  0  0
   40.0847   34.0324   46.7700 H   0  0  0  0  0  0  0  0  0  0  0  0
   37.7982   29.2846   51.4356 H   0  0  0  0  0  0  0  0  0  0  0  0
   39.2103   30.3668   49.6840 H   0  0  0  0  0  0  0  0  0  0  0  0
   33.5120   30.0242   48.3349 H   0  0  0  0  0  0  0  0  0  0  0  0
   34.3428   27.1982   49.2110 H   0  0  0  0  0  0  0  0  0  0  0  0
   31.6846   27.5971   49.4721 H   0  0  0  0  0  0  0  0  0  0  0  0
   31.8251   28.5423   47.9511 H   0  0  0  0  0  0  0  0  0  0  0  0
   32.1835   26.7821   47.9511 H   0  0  0  0  0  0  0  0  0  0  0  0
   37.7093   34.2360   50.2145 H   0  0  0  0  0  0  0  0  0  0  0  0
   36.7965   32.8134   49.6438 H   0  0  0  0  0  0  0  0  0  0  0  0
  1 17  1  0
  2  1  2  0
  2  9  1  0
  3  2  1  0
  4  5  1  0
  4  3  2  0
  5  6  2  0
  6  1  1  0
  8  7  2  0
  9  8  1  0
 10  9  2  0
 10 11  1  0
 11 12  2  0
 12  7  1  0
 13 14  2  0
 13 11  1  0
 15 14  1  0
 16 19  1  0
 17 16  2  0
 17 18  1  0
  3 20  1  0
  4 21  1  0
  5 22  1  0
  6 23  1  0
  7 24  1  0
  8 25  1  0
 13 26  1  0
 14 27  1  0
 15 28  1  0
 15 29  1  0
 15 30  1  0
 18 31  1  0
 18 32  1  0
M  ISO  8  20  14  21  14  22  14  23  14  24  14  25  14  28   8  29   8
M  ISO  1  30   8
M  END
>  <minimizedAffinity>  (1) 
-6.26255035

>  <minimizedRMSD>  (1) 
1.3164202

$$$$
