
     RDKit          3D

 26 27  0  0  0  0  0  0  0  0999 V2000
   38.8100   32.3530   47.6060 C   0  0  0  0  0  0  0  0  0  0  0  0
   38.3020   31.0970   47.5130 C   0  0  0  0  0  0  0  0  0  0  0  0
   38.6700   30.3440   46.4190 C   0  0  0  0  0  0  0  0  0  0  0  0
   39.5020   30.8190   45.4690 C   0  0  0  0  0  0  0  0  0  0  0  0
   40.0370   32.0980   45.5360 C   0  0  0  0  0  0  0  0  0  0  0  0
   39.6700   32.8480   46.6240 C   0  0  0  0  0  0  0  0  0  0  0  0
   37.1630   29.3750   50.6160 C   0  0  0  0  0  0  0  0  0  0  0  0
   37.9580   29.8810   49.5700 C   0  0  0  0  0  0  0  0  0  0  0  0
   37.4100   30.6200   48.5420 C   0  0  0  0  0  0  0  0  0  0  0  0
   36.0710   30.7950   48.6570 N   0  0  0  0  0  0  0  0  0  0  0  0
   35.3000   30.3270   49.6370 C   0  0  0  0  0  0  0  0  0  0  0  0
   35.8520   29.6080   50.6280 N   0  0  0  0  0  0  0  0  0  0  0  0
   33.9570   30.6780   49.4690 O   0  0  0  0  0  0  0  0  0  0  0  0
   39.4160   34.3350   48.8240 N   0  0  0  0  0  0  0  0  0  0  0  0
   38.5910   33.3170   48.6430 C   0  0  0  0  0  0  0  0  0  0  0  0
   37.7220   33.6610   49.6960 N   0  0  0  0  0  0  0  0  0  0  0  0
   39.2570   35.0010   49.6130 H   0  0  0  0  0  0  0  0  0  0  0  0
   38.2728   29.3233   46.3171 H   0  0  0  0  0  0  0  0  0  0  0  0
   39.7638   30.1743   44.6171 H   0  0  0  0  0  0  0  0  0  0  0  0
   40.7152   32.4870   44.7623 H   0  0  0  0  0  0  0  0  0  0  0  0
   40.0649   33.8696   46.7259 H   0  0  0  0  0  0  0  0  0  0  0  0
   37.6247   28.7873   51.4231 H   0  0  0  0  0  0  0  0  0  0  0  0
   39.0400   29.6827   49.5725 H   0  0  0  0  0  0  0  0  0  0  0  0
   33.2828   30.3884   50.1336 H   0  0  0  0  0  0  0  0  0  0  0  0
   37.9111   34.4967   50.2677 H   0  0  0  0  0  0  0  0  0  0  0  0
   36.8971   33.0770   49.8947 H   0  0  0  0  0  0  0  0  0  0  0  0
  1 15  1  0
  2  1  2  0
  2  9  1  0
  3  2  1  0
  4  5  1  0
  4  3  2  0
  5  6  2  0
  6  1  1  0
  7 12  2  0
  8  7  1  0
  9 10  1  0
  9  8  2  0
 10 11  2  0
 11 12  1  0
 13 11  1  0
 14 17  1  0
 15 14  2  0
 15 16  1  0
  3 18  1  0
  4 19  1  0
  5 20  1  0
  6 21  1  0
  7 22  1  0
  8 23  1  0
 13 24  1  0
 16 25  1  0
 16 26  1  0
M  ISO  7  18  14  19  14  20  14  21  14  22  14  23  14  24   3
M  END
>  <minimizedAffinity>  (1) 
-5.89531136

>  <minimizedRMSD>  (1) 
0.358805984

$$$$
