
     RDKit          3D

 27 28  0  0  0  0  0  0  0  0999 V2000
   38.8370   32.3690   47.5960 C   0  0  0  0  0  0  0  0  0  0  0  0
   38.3500   31.0960   47.5140 C   0  0  0  0  0  0  0  0  0  0  0  0
   38.7280   30.3530   46.4250 C   0  0  0  0  0  0  0  0  0  0  0  0
   39.5440   30.8420   45.4680 C   0  0  0  0  0  0  0  0  0  0  0  0
   40.0530   32.1240   45.5170 C   0  0  0  0  0  0  0  0  0  0  0  0
   39.6780   32.8740   46.6070 C   0  0  0  0  0  0  0  0  0  0  0  0
   37.3000   29.3940   50.6610 C   0  0  0  0  0  0  0  0  0  0  0  0
   38.0490   29.9120   49.5930 C   0  0  0  0  0  0  0  0  0  0  0  0
   37.4780   30.6140   48.5520 C   0  0  0  0  0  0  0  0  0  0  0  0
   36.1340   30.7460   48.6690 N   0  0  0  0  0  0  0  0  0  0  0  0
   35.3840   30.2690   49.6670 C   0  0  0  0  0  0  0  0  0  0  0  0
   35.9690   29.5880   50.6680 N   0  0  0  0  0  0  0  0  0  0  0  0
   34.0080   30.5820   49.4840 N   0  0  0  0  0  0  0  0  0  0  0  0
   39.4230   34.3490   48.8220 N   0  0  0  0  0  0  0  0  0  0  0  0
   38.6060   33.3370   48.6390 C   0  0  0  0  0  0  0  0  0  0  0  0
   37.7380   33.6730   49.6850 N   0  0  0  0  0  0  0  0  0  0  0  0
   39.2370   35.0390   49.5820 H   0  0  0  0  0  0  0  0  0  0  0  0
   38.3532   29.3233   46.3284 H   0  0  0  0  0  0  0  0  0  0  0  0
   39.8130   30.1963   44.6191 H   0  0  0  0  0  0  0  0  0  0  0  0
   40.7163   32.5205   44.7342 H   0  0  0  0  0  0  0  0  0  0  0  0
   40.0535   33.9037   46.7007 H   0  0  0  0  0  0  0  0  0  0  0  0
   37.7912   28.8410   51.4752 H   0  0  0  0  0  0  0  0  0  0  0  0
   39.1372   29.7514   49.5859 H   0  0  0  0  0  0  0  0  0  0  0  0
   33.3131   30.2752   50.1796 H   0  0  0  0  0  0  0  0  0  0  0  0
   33.7069   31.1154   48.6559 H   0  0  0  0  0  0  0  0  0  0  0  0
   37.9198   34.5106   50.2562 H   0  0  0  0  0  0  0  0  0  0  0  0
   36.9177   33.0825   49.8833 H   0  0  0  0  0  0  0  0  0  0  0  0
  1 15  1  0
  2  1  2  0
  2  9  1  0
  3  2  1  0
  4  5  1  0
  4  3  2  0
  5  6  2  0
  6  1  1  0
  7 12  2  0
  8  7  1  0
  9 10  1  0
  9  8  2  0
 10 11  2  0
 11 12  1  0
 13 11  1  0
 14 17  1  0
 15 14  2  0
 15 16  1  0
  3 18  1  0
  4 19  1  0
  5 20  1  0
  6 21  1  0
  7 22  1  0
  8 23  1  0
 13 24  1  0
 13 25  1  0
 16 26  1  0
 16 27  1  0
M  ISO  6  18  14  19  14  20  14  21  14  22  14  23  14
M  END
>  <minimizedAffinity>  (1) 
-5.86274529

>  <minimizedRMSD>  (1) 
0.401043713

$$$$
