
     RDKit          3D

 54 57  0  0  1  0  0  0  0  0999 V2000
   36.8530   30.3730   50.0610 C   0  0  0  0  0  0  0  0  0  0  0  0
   37.8230   30.8730   49.1670 C   0  0  0  0  0  0  0  0  0  0  0  0
   37.6850   30.6880   47.7870 C   0  0  0  0  0  0  0  0  0  0  0  0
   36.5620   30.0060   47.4510 N   0  0  0  0  0  0  0  0  0  0  0  0
   35.6370   29.5290   48.2920 C   0  0  0  0  0  0  0  0  0  0  0  0
   35.7870   29.7160   49.6080 N   0  0  0  0  0  0  0  0  0  0  0  0
   34.5110   28.8300   47.7630 N   0  0  0  0  0  0  0  0  0  0  0  0
   33.8500   27.7950   48.5390 C   0  0  0  0  0  0  0  0  0  0  0  0
   34.0080   26.5180   47.6970 C   0  0  0  0  0  0  0  0  0  0  0  0
   33.2760   26.7340   46.4160 C   0  0  0  0  0  0  0  0  0  0  0  0
   33.8650   27.8930   45.6370 C   0  0  0  0  0  0  0  0  0  0  0  0
   34.0060   29.1340   46.4530 C   0  0  1  0  0  0  0  0  0  0  0  0
   39.1920   32.4820   47.2080 C   0  0  0  0  0  0  0  0  0  0  0  0
   38.7210   31.2330   46.9610 C   0  0  0  0  0  0  0  0  0  0  0  0
   39.2830   30.5420   45.8990 C   0  0  0  0  0  0  0  0  0  0  0  0
   40.2510   31.0550   45.1320 C   0  0  0  0  0  0  0  0  0  0  0  0
   40.7540   32.3330   45.3600 C   0  0  0  0  0  0  0  0  0  0  0  0
   40.2010   33.0270   46.4130 C   0  0  0  0  0  0  0  0  0  0  0  0
   39.5880   34.2990   48.7080 N   0  0  0  0  0  0  0  0  0  0  0  0
   38.7630   33.3740   48.2450 C   0  0  0  0  0  0  0  0  0  0  0  0
   37.6930   33.7170   49.0790 N   0  0  0  0  0  0  0  0  0  0  0  0
   39.2670   34.9480   49.4630 H   0  0  0  0  0  0  0  0  0  0  0  0
   32.8100   29.9510   46.4690 N   0  0  0  0  0  0  0  0  0  0  0  0
   32.8840   30.9050   45.3750 C   0  0  0  0  0  0  0  0  0  0  0  0
   31.6170   31.7220   45.3040 C   0  0  0  0  0  0  0  0  0  0  0  0
   30.4380   30.8980   45.1790 N   0  0  0  0  0  0  0  0  0  0  0  0
   30.8050   29.5190   45.0950 C   0  0  0  0  0  0  0  0  0  0  0  0
   31.6670   29.0770   46.2830 C   0  0  0  0  0  0  0  0  0  0  0  0
   36.9785   30.5274   51.1429 H   0  0  0  0  0  0  0  0  0  0  0  0
   38.6969   31.4139   49.5589 H   0  0  0  0  0  0  0  0  0  0  0  0
   34.3342   27.6760   49.5195 H   0  0  0  0  0  0  0  0  0  0  0  0
   32.7953   28.0341   48.7402 H   0  0  0  0  0  0  0  0  0  0  0  0
   35.0729   26.3308   47.4944 H   0  0  0  0  0  0  0  0  0  0  0  0
   33.6030   25.6471   48.2332 H   0  0  0  0  0  0  0  0  0  0  0  0
   33.3428   25.8209   45.8062 H   0  0  0  0  0  0  0  0  0  0  0  0
   32.2270   26.9685   46.6495 H   0  0  0  0  0  0  0  0  0  0  0  0
   34.8600   27.5995   45.2711 H   0  0  0  0  0  0  0  0  0  0  0  0
   33.1735   28.1193   44.8120 H   0  0  0  0  0  0  0  0  0  0  0  0
   34.7565   29.7668   45.9567 H   0  0  0  0  0  0  0  0  0  0  0  0
   38.9172   29.5285   45.6776 H   0  0  0  0  0  0  0  0  0  0  0  0
   40.6579   30.4553   44.3045 H   0  0  0  0  0  0  0  0  0  0  0  0
   41.5489   32.7644   44.7339 H   0  0  0  0  0  0  0  0  0  0  0  0
   40.5655   34.0411   46.6340 H   0  0  0  0  0  0  0  0  0  0  0  0
   37.7919   34.4906   49.7518 H   0  0  0  0  0  0  0  0  0  0  0  0
   36.8065   33.1959   49.0200 H   0  0  0  0  0  0  0  0  0  0  0  0
   33.7400   31.5766   45.5368 H   0  0  0  0  0  0  0  0  0  0  0  0
   33.0084   30.3559   44.4300 H   0  0  0  0  0  0  0  0  0  0  0  0
   31.5323   32.3233   46.2212 H   0  0  0  0  0  0  0  0  0  0  0  0
   31.6779   32.3589   44.4092 H   0  0  0  0  0  0  0  0  0  0  0  0
   29.8351   31.0399   46.0020 H   0  0  0  0  0  0  0  0  0  0  0  0
   29.8897   28.9092   45.0749 H   0  0  0  0  0  0  0  0  0  0  0  0
   31.3970   29.3818   44.1781 H   0  0  0  0  0  0  0  0  0  0  0  0
   32.0264   28.0533   46.1018 H   0  0  0  0  0  0  0  0  0  0  0  0
   31.0487   29.1217   47.1917 H   0  0  0  0  0  0  0  0  0  0  0  0
  2  1  2  0
  3  2  1  0
  4  3  2  0
  4  5  1  0
  5  6  2  0
  6  1  1  0
  7  5  1  0
  7  8  1  0
  9  8  1  0
 10  9  1  0
 11 10  1  0
 11 12  1  0
 12 23  1  0
 12  7  1  0
 13 20  1  0
 14 13  2  0
 14  3  1  0
 15 14  1  0
 16 17  1  0
 16 15  2  0
 17 18  2  0
 18 13  1  0
 19 22  1  0
 20 19  2  0
 20 21  1  0
 23 28  1  0
 24 23  1  0
 25 24  1  0
 26 25  1  0
 27 26  1  0
 27 28  1  0
  1 29  1  0
  2 30  1  0
  8 31  1  0
  8 32  1  0
  9 33  1  0
  9 34  1  0
 10 35  1  0
 10 36  1  0
 11 37  1  0
 11 38  1  0
 12 39  1  6
 15 40  1  0
 16 41  1  0
 17 42  1  0
 18 43  1  0
 21 44  1  0
 21 45  1  0
 24 46  1  0
 24 47  1  0
 25 48  1  0
 25 49  1  0
 26 50  1  0
 27 51  1  0
 27 52  1  0
 28 53  1  0
 28 54  1  0
M  ISO  8  29  14  30  14  31  13  32  13  33  13  34  13  35  13  36  13
M  ISO  8  37  13  38  13  39  13  40  14  41  14  42  14  43  14  46  13
M  ISO  8  47  13  48  13  49  13  50   5  51  13  52  13  53  13  54  13
M  END
>  <minimizedAffinity>  (1) 
-6.7798543

>  <minimizedRMSD>  (1) 
1.85075557

$$$$
