
     RDKit          3D

 53 56  0  0  1  0  0  0  0  0999 V2000
   37.0010   30.1320   50.1190 C   0  0  0  0  0  0  0  0  0  0  0  0
   37.9280   30.6920   49.2090 C   0  0  0  0  0  0  0  0  0  0  0  0
   37.7190   30.6080   47.8400 C   0  0  0  0  0  0  0  0  0  0  0  0
   36.5720   29.9540   47.5220 N   0  0  0  0  0  0  0  0  0  0  0  0
   35.6920   29.4230   48.3620 C   0  0  0  0  0  0  0  0  0  0  0  0
   35.9130   29.5140   49.6790 N   0  0  0  0  0  0  0  0  0  0  0  0
   34.5310   28.7660   47.8460 N   0  0  0  0  0  0  0  0  0  0  0  0
   33.9070   27.6830   48.5850 C   0  0  0  0  0  0  0  0  0  0  0  0
   34.0120   26.4690   47.6500 C   0  0  0  0  0  0  0  0  0  0  0  0
   33.2080   26.7750   46.4270 C   0  0  0  0  0  0  0  0  0  0  0  0
   33.7680   27.9750   45.7020 C   0  0  0  0  0  0  0  0  0  0  0  0
   33.9640   29.1720   46.5790 C   0  0  1  0  0  0  0  0  0  0  0  0
   39.1350   32.4650   47.2450 C   0  0  0  0  0  0  0  0  0  0  0  0
   38.7120   31.2050   46.9870 C   0  0  0  0  0  0  0  0  0  0  0  0
   39.2670   30.5600   45.9010 C   0  0  0  0  0  0  0  0  0  0  0  0
   40.1870   31.1190   45.1120 C   0  0  0  0  0  0  0  0  0  0  0  0
   40.6460   32.4110   45.3480 C   0  0  0  0  0  0  0  0  0  0  0  0
   40.0990   33.0590   46.4230 C   0  0  0  0  0  0  0  0  0  0  0  0
   39.5220   34.2490   48.7870 N   0  0  0  0  0  0  0  0  0  0  0  0
   38.7060   33.3230   48.3100 C   0  0  0  0  0  0  0  0  0  0  0  0
   37.6440   33.6260   49.1620 N   0  0  0  0  0  0  0  0  0  0  0  0
   39.2030   34.8710   49.5640 H   0  0  0  0  0  0  0  0  0  0  0  0
   32.7620   30.0500   46.6940 C   0  0  0  0  0  0  0  0  0  0  0  0
   32.8100   31.0800   45.5860 C   0  0  0  0  0  0  0  0  0  0  0  0
   31.3950   31.2190   45.0790 C   0  0  0  0  0  0  0  0  0  0  0  0
   30.6180   30.0430   45.5790 C   0  0  0  0  0  0  0  0  0  0  0  0
   31.5420   29.2160   46.4230 C   0  0  0  0  0  0  0  0  0  0  0  0
   37.1840   30.2097   51.2009 H   0  0  0  0  0  0  0  0  0  0  0  0
   38.8255   31.2002   49.5914 H   0  0  0  0  0  0  0  0  0  0  0  0
   34.4430   27.4957   49.5271 H   0  0  0  0  0  0  0  0  0  0  0  0
   32.8666   27.9098   48.8608 H   0  0  0  0  0  0  0  0  0  0  0  0
   35.0630   26.2959   47.3753 H   0  0  0  0  0  0  0  0  0  0  0  0
   33.6341   25.5630   48.1463 H   0  0  0  0  0  0  0  0  0  0  0  0
   33.2299   25.9050   45.7543 H   0  0  0  0  0  0  0  0  0  0  0  0
   32.1749   26.9983   46.7317 H   0  0  0  0  0  0  0  0  0  0  0  0
   34.7413   27.6972   45.2714 H   0  0  0  0  0  0  0  0  0  0  0  0
   33.0334   28.2572   44.9334 H   0  0  0  0  0  0  0  0  0  0  0  0
   34.6934   29.8321   46.0867 H   0  0  0  0  0  0  0  0  0  0  0  0
   38.9354   29.5359   45.6745 H   0  0  0  0  0  0  0  0  0  0  0  0
   40.5888   30.5490   44.2614 H   0  0  0  0  0  0  0  0  0  0  0  0
   41.4047   32.8847   44.7078 H   0  0  0  0  0  0  0  0  0  0  0  0
   40.4294   34.0837   46.6486 H   0  0  0  0  0  0  0  0  0  0  0  0
   37.7388   34.3829   49.8541 H   0  0  0  0  0  0  0  0  0  0  0  0
   36.7650   33.0929   49.0990 H   0  0  0  0  0  0  0  0  0  0  0  0
   32.7370   30.5158   47.6902 H   0  0  0  0  0  0  0  0  0  0  0  0
   33.1717   32.0429   45.9758 H   0  0  0  0  0  0  0  0  0  0  0  0
   33.4955   30.7728   44.7824 H   0  0  0  0  0  0  0  0  0  0  0  0
   31.3902   31.2316   43.9791 H   0  0  0  0  0  0  0  0  0  0  0  0
   30.9471   32.1581   45.4361 H   0  0  0  0  0  0  0  0  0  0  0  0
   29.7647   30.3861   46.1824 H   0  0  0  0  0  0  0  0  0  0  0  0
   30.2285   29.4508   44.7378 H   0  0  0  0  0  0  0  0  0  0  0  0
   31.0500   28.9491   47.3699 H   0  0  0  0  0  0  0  0  0  0  0  0
   31.8133   28.2835   45.9064 H   0  0  0  0  0  0  0  0  0  0  0  0
  2  1  2  0
  3  2  1  0
  4  3  2  0
  4  5  1  0
  5  6  2  0
  6  1  1  0
  7  5  1  0
  7  8  1  0
  9  8  1  0
 10  9  1  0
 11 10  1  0
 11 12  1  0
 12 23  1  0
 12  7  1  0
 13 20  1  0
 14 13  2  0
 14  3  1  0
 15 14  1  0
 16 17  1  0
 16 15  2  0
 17 18  2  0
 18 13  1  0
 19 22  1  0
 20 19  2  0
 20 21  1  0
 24 23  1  0
 25 26  1  0
 25 24  1  0
 26 27  1  0
 27 23  1  0
  1 28  1  0
  2 29  1  0
  8 30  1  0
  8 31  1  0
  9 32  1  0
  9 33  1  0
 10 34  1  0
 10 35  1  0
 11 36  1  0
 11 37  1  0
 12 38  1  6
 15 39  1  0
 16 40  1  0
 17 41  1  0
 18 42  1  0
 21 43  1  0
 21 44  1  0
 23 45  1  0
 24 46  1  0
 24 47  1  0
 25 48  1  0
 25 49  1  0
 26 50  1  0
 26 51  1  0
 27 52  1  0
 27 53  1  0
M  ISO  8  28  14  29  14  30  13  31  13  32  13  33  13  34  13  35  13
M  ISO  8  36  13  37  13  38  13  39  14  40  14  41  14  42  14  45  13
M  ISO  8  46  13  47  13  48  13  49  13  50  13  51  13  52  13  53  13
M  END
>  <minimizedAffinity>  (1) 
-6.75350618

>  <minimizedRMSD>  (1) 
1.73990035

$$$$
