
     RDKit          3D

 47 49  0  0  1  0  0  0  0  0999 V2000
   37.3850   30.3150   50.2200 C   0  0  0  0  0  0  0  0  0  0  0  0
   38.2690   30.8050   49.2260 C   0  0  0  0  0  0  0  0  0  0  0  0
   37.9490   30.6890   47.8720 C   0  0  0  0  0  0  0  0  0  0  0  0
   36.7540   30.0810   47.6720 N   0  0  0  0  0  0  0  0  0  0  0  0
   35.9180   29.6180   48.5890 C   0  0  0  0  0  0  0  0  0  0  0  0
   36.2430   29.7390   49.8890 N   0  0  0  0  0  0  0  0  0  0  0  0
   34.6930   29.0010   48.1880 N   0  0  0  0  0  0  0  0  0  0  0  0
   34.0870   27.9560   49.0070 C   0  0  0  0  0  0  0  0  0  0  0  0
   34.0570   26.7200   48.1110 C   0  0  0  0  0  0  0  0  0  0  0  0
   33.1540   27.0470   46.9610 C   0  0  0  0  0  0  0  0  0  0  0  0
   33.7180   28.1880   46.1400 C   0  0  0  0  0  0  0  0  0  0  0  0
   34.0380   29.3990   46.9710 C   0  0  2  0  0  0  0  0  0  0  0  0
   39.3310   32.4830   47.0610 C   0  0  0  0  0  0  0  0  0  0  0  0
   38.8940   31.2090   46.9330 C   0  0  0  0  0  0  0  0  0  0  0  0
   39.4030   30.4790   45.8730 C   0  0  0  0  0  0  0  0  0  0  0  0
   40.2840   30.9750   45.0020 C   0  0  0  0  0  0  0  0  0  0  0  0
   40.7510   32.2840   45.1120 C   0  0  0  0  0  0  0  0  0  0  0  0
   40.2540   33.0190   46.1590 C   0  0  0  0  0  0  0  0  0  0  0  0
   39.7650   34.4260   48.4000 N   0  0  0  0  0  0  0  0  0  0  0  0
   38.9490   33.4340   48.0760 C   0  0  0  0  0  0  0  0  0  0  0  0
   37.9380   33.7810   48.9750 N   0  0  0  0  0  0  0  0  0  0  0  0
   39.4750   35.1170   49.1260 H   0  0  0  0  0  0  0  0  0  0  0  0
   34.9280   30.2680   46.1500 C   0  0  0  0  0  0  0  0  0  0  0  0
   35.3410   30.2840   44.8870 C   0  0  0  0  0  0  0  0  0  0  0  0
   36.2650   31.2730   44.2360 C   0  0  0  0  0  0  0  0  0  0  0  0
   37.6537   30.4158   51.2819 H   0  0  0  0  0  0  0  0  0  0  0  0
   39.2150   31.2806   49.5240 H   0  0  0  0  0  0  0  0  0  0  0  0
   34.6937   27.7680   49.9051 H   0  0  0  0  0  0  0  0  0  0  0  0
   33.0830   28.2363   49.3584 H   0  0  0  0  0  0  0  0  0  0  0  0
   35.0691   26.4913   47.7458 H   0  0  0  0  0  0  0  0  0  0  0  0
   33.6950   25.8394   48.6618 H   0  0  0  0  0  0  0  0  0  0  0  0
   33.0504   26.1589   46.3203 H   0  0  0  0  0  0  0  0  0  0  0  0
   32.1740   27.3500   47.3581 H   0  0  0  0  0  0  0  0  0  0  0  0
   34.6403   27.8452   45.6482 H   0  0  0  0  0  0  0  0  0  0  0  0
   32.9509   28.4810   45.4081 H   0  0  0  0  0  0  0  0  0  0  0  0
   33.1238   29.9426   47.2514 H   0  0  0  0  0  0  0  0  0  0  0  0
   39.0652   29.4403   45.7423 H   0  0  0  0  0  0  0  0  0  0  0  0
   40.6486   30.3391   44.1818 H   0  0  0  0  0  0  0  0  0  0  0  0
   41.4767   32.7039   44.3999 H   0  0  0  0  0  0  0  0  0  0  0  0
   40.5911   34.0576   46.2917 H   0  0  0  0  0  0  0  0  0  0  0  0
   38.0507   34.6038   49.5843 H   0  0  0  0  0  0  0  0  0  0  0  0
   37.0797   33.2141   49.0287 H   0  0  0  0  0  0  0  0  0  0  0  0
   35.3461   31.1016   46.7333 H   0  0  0  0  0  0  0  0  0  0  0  0
   34.9613   29.4777   44.2422 H   0  0  0  0  0  0  0  0  0  0  0  0
   36.7975   31.8429   45.0117 H   0  0  0  0  0  0  0  0  0  0  0  0
   36.9934   30.7371   43.6098 H   0  0  0  0  0  0  0  0  0  0  0  0
   35.6809   31.9634   43.6098 H   0  0  0  0  0  0  0  0  0  0  0  0
  2  1  2  0
  3  2  1  0
  4  3  2  0
  4  5  1  0
  5  6  2  0
  6  1  1  0
  7  5  1  0
  7  8  1  0
  9  8  1  0
 10  9  1  0
 11 10  1  0
 11 12  1  0
 12  7  1  0
 13 20  1  0
 14 13  2  0
 14  3  1  0
 15 14  1  0
 16 17  1  0
 16 15  2  0
 17 18  2  0
 18 13  1  0
 19 22  1  0
 20 19  2  0
 20 21  1  0
 23 12  1  0
 24 23  2  0
 25 24  1  0
  1 26  1  0
  2 27  1  0
  8 28  1  0
  8 29  1  0
  9 30  1  0
  9 31  1  0
 10 32  1  0
 10 33  1  0
 11 34  1  0
 11 35  1  0
 12 36  1  1
 15 37  1  0
 16 38  1  0
 17 39  1  0
 18 40  1  0
 21 41  1  0
 21 42  1  0
 23 43  1  0
 24 44  1  0
 25 45  1  0
 25 46  1  0
 25 47  1  0
M  ISO  8  26  14  27  14  28  13  29  13  30  13  31  13  32  13  33  13
M  ISO  8  34  13  35  13  36  13  37  14  38  14  39  14  40  14  45   8
M  ISO  2  46   8  47   8
M  END
>  <minimizedAffinity>  (1) 
-6.63972282

>  <minimizedRMSD>  (1) 
0.863410532

$$$$
