
     RDKit          3D

 21 22  0  0  0  0  0  0  0  0999 V2000
   38.2840   33.3880   49.3500 Br  0  0  0  0  0  0  0  0  0  0  0  0
   38.7610   32.3900   47.7790 C   0  0  0  0  0  0  0  0  0  0  0  0
   38.2560   31.1220   47.5890 C   0  0  0  0  0  0  0  0  0  0  0  0
   38.6280   30.4580   46.4530 C   0  0  0  0  0  0  0  0  0  0  0  0
   39.4830   31.0480   45.5350 C   0  0  0  0  0  0  0  0  0  0  0  0
   39.9930   32.3240   45.7250 C   0  0  0  0  0  0  0  0  0  0  0  0
   39.6150   32.9950   46.8760 C   0  0  0  0  0  0  0  0  0  0  0  0
   36.9710   29.4490   50.7380 C   0  0  0  0  0  0  0  0  0  0  0  0
   37.8320   29.9520   49.7550 C   0  0  0  0  0  0  0  0  0  0  0  0
   37.3700   30.5990   48.6120 C   0  0  0  0  0  0  0  0  0  0  0  0
   36.0190   30.7030   48.5260 N   0  0  0  0  0  0  0  0  0  0  0  0
   35.1850   30.2230   49.4670 C   0  0  0  0  0  0  0  0  0  0  0  0
   35.6630   29.6020   50.5630 N   0  0  0  0  0  0  0  0  0  0  0  0
   40.1380   34.2750   47.0440 O   0  0  0  0  0  0  0  0  0  0  0  0
   38.2445   29.4442   46.2654 H   0  0  0  0  0  0  0  0  0  0  0  0
   39.7649   30.4887   44.6307 H   0  0  0  0  0  0  0  0  0  0  0  0
   40.6705   32.7844   44.9908 H   0  0  0  0  0  0  0  0  0  0  0  0
   37.3665   28.9414   51.6301 H   0  0  0  0  0  0  0  0  0  0  0  0
   38.9168   29.8311   49.8913 H   0  0  0  0  0  0  0  0  0  0  0  0
   34.0986   30.3392   49.3396 H   0  0  0  0  0  0  0  0  0  0  0  0
   39.9038   34.8039   47.8474 H   0  0  0  0  0  0  0  0  0  0  0  0
  2  1  1  0
  3  2  2  0
  3 10  1  0
  4  3  1  0
  5  6  1  0
  5  4  2  0
  6  7  2  0
  7 14  1  0
  7  2  1  0
  9  8  2  0
 10  9  1  0
 11 10  2  0
 11 12  1  0
 12 13  2  0
 13  8  1  0
  4 15  1  0
  5 16  1  0
  6 17  1  0
  8 18  1  0
  9 19  1  0
 12 20  1  0
 14 21  1  0
M  ISO  7  15  14  16  14  17  14  18  14  19  14  20  14  21   3
M  END
>  <minimizedAffinity>  (1) 
-5.62369442

>  <minimizedRMSD>  (1) 
0.107483447

$$$$
