
     RDKit          3D

 27 29  0  0  0  0  0  0  0  0999 V2000
   38.5820   32.1820   48.5830 Br  0  0  0  0  0  0  0  0  0  0  0  0
   37.8300   31.5960   46.9230 C   0  0  0  0  0  0  0  0  0  0  0  0
   36.7540   30.7150   46.9170 C   0  0  0  0  0  0  0  0  0  0  0  0
   36.2490   30.3210   45.7070 C   0  0  0  0  0  0  0  0  0  0  0  0
   36.8090   30.7980   44.5330 C   0  0  0  0  0  0  0  0  0  0  0  0
   37.8830   31.6770   44.5310 C   0  0  0  0  0  0  0  0  0  0  0  0
   38.3850   32.0690   45.7560 C   0  0  0  0  0  0  0  0  0  0  0  0
   36.5060   29.1440   50.3540 C   0  0  0  0  0  0  0  0  0  0  0  0
   37.0020   29.5550   49.1140 C   0  0  0  0  0  0  0  0  0  0  0  0
   36.2460   30.2810   48.2120 C   0  0  0  0  0  0  0  0  0  0  0  0
   34.9740   30.5670   48.6210 N   0  0  0  0  0  0  0  0  0  0  0  0
   34.4980   30.1690   49.8180 C   0  0  0  0  0  0  0  0  0  0  0  0
   35.2510   29.4670   50.6750 N   0  0  0  0  0  0  0  0  0  0  0  0
   39.5260   33.0020   45.8150 C   0  0  0  0  0  0  0  0  0  0  0  0
   40.8860   32.4970   45.3020 C   0  0  0  0  0  0  0  0  0  0  0  0
   40.1180   33.5390   44.5140 C   0  0  0  0  0  0  0  0  0  0  0  0
   35.3980   29.6252   45.6669 H   0  0  0  0  0  0  0  0  0  0  0  0
   36.3887   30.4693   43.5711 H   0  0  0  0  0  0  0  0  0  0  0  0
   38.3172   32.0468   43.5904 H   0  0  0  0  0  0  0  0  0  0  0  0
   37.1346   28.5681   51.0491 H   0  0  0  0  0  0  0  0  0  0  0  0
   38.0352   29.2905   48.8446 H   0  0  0  0  0  0  0  0  0  0  0  0
   33.4659   30.4271   50.0977 H   0  0  0  0  0  0  0  0  0  0  0  0
   39.1498   33.4620   46.7407 H   0  0  0  0  0  0  0  0  0  0  0  0
   41.8106   32.7765   45.8282 H   0  0  0  0  0  0  0  0  0  0  0  0
   41.3138   31.5093   45.0750 H   0  0  0  0  0  0  0  0  0  0  0  0
   40.4889   34.5735   44.4668 H   0  0  0  0  0  0  0  0  0  0  0  0
   39.7617   33.6162   43.4762 H   0  0  0  0  0  0  0  0  0  0  0  0
  2  1  1  0
  3  2  2  0
  3 10  1  0
  4  3  1  0
  5  4  2  0
  6  5  1  0
  6  7  2  0
  7 14  1  0
  7  2  1  0
  8 13  2  0
  9  8  1  0
 10 11  1  0
 10  9  2  0
 11 12  2  0
 12 13  1  0
 15 14  1  0
 16 15  1  0
 16 14  1  0
  4 17  1  0
  5 18  1  0
  6 19  1  0
  8 20  1  0
  9 21  1  0
 12 22  1  0
 14 23  1  0
 15 24  1  0
 15 25  1  0
 16 26  1  0
 16 27  1  0
M  ISO  8  17  14  18  14  19  14  20  14  21  14  22  14  23  13  24  13
M  ISO  3  25  13  26  13  27  13
M  END
>  <minimizedAffinity>  (1) 
-5.36575413

>  <minimizedRMSD>  (1) 
1.85530472

$$$$
