
     RDKit          3D

 28 30  0  0  0  0  0  0  0  0999 V2000
   38.2000   31.0450   48.3870 Br  0  0  0  0  0  0  0  0  0  0  0  0
   36.9560   30.5950   47.0020 C   0  0  0  0  0  0  0  0  0  0  0  0
   35.7380   30.0030   47.3210 C   0  0  0  0  0  0  0  0  0  0  0  0
   34.8710   29.6900   46.3060 C   0  0  0  0  0  0  0  0  0  0  0  0
   35.2190   29.9680   44.9970 C   0  0  0  0  0  0  0  0  0  0  0  0
   36.4370   30.5620   44.6650 C   0  0  0  0  0  0  0  0  0  0  0  0
   37.2940   30.8680   45.7000 C   0  0  0  0  0  0  0  0  0  0  0  0
   36.1220   28.9560   50.9460 C   0  0  0  0  0  0  0  0  0  0  0  0
   36.3910   29.1800   49.5970 C   0  0  0  0  0  0  0  0  0  0  0  0
   35.4770   29.7590   48.7370 C   0  0  0  0  0  0  0  0  0  0  0  0
   34.2900   30.0930   49.3200 N   0  0  0  0  0  0  0  0  0  0  0  0
   34.0260   29.8790   50.6200 C   0  0  0  0  0  0  0  0  0  0  0  0
   34.9250   29.3200   51.4240 N   0  0  0  0  0  0  0  0  0  0  0  0
   38.5880   31.4900   45.4400 C   0  0  0  0  0  0  0  0  0  0  0  0
   39.8000   30.8420   45.4800 C   0  0  0  0  0  0  0  0  0  0  0  0
   41.0090   31.4480   45.2320 C   0  0  0  0  0  0  0  0  0  0  0  0
   41.0070   32.7730   44.9260 N   0  0  0  0  0  0  0  0  0  0  0  0
   39.8400   33.4380   44.8780 C   0  0  0  0  0  0  0  0  0  0  0  0
   38.6940   32.8030   45.1280 N   0  0  0  0  0  0  0  0  0  0  0  0
   33.9026   29.2197   46.5321 H   0  0  0  0  0  0  0  0  0  0  0  0
   34.5136   29.7129   44.1924 H   0  0  0  0  0  0  0  0  0  0  0  0
   36.7025   30.7774   43.6195 H   0  0  0  0  0  0  0  0  0  0  0  0
   36.8737   28.4920   51.6015 H   0  0  0  0  0  0  0  0  0  0  0  0
   37.3729   28.8833   49.1997 H   0  0  0  0  0  0  0  0  0  0  0  0
   33.0469   30.1721   51.0268 H   0  0  0  0  0  0  0  0  0  0  0  0
   39.8026   29.7699   45.7262 H   0  0  0  0  0  0  0  0  0  0  0  0
   41.9489   30.8786   45.2796 H   0  0  0  0  0  0  0  0  0  0  0  0
   39.8300   34.5100   44.6316 H   0  0  0  0  0  0  0  0  0  0  0  0
  2  3  2  0
  2  1  1  0
  3 10  1  0
  4  3  1  0
  5  4  2  0
  6  5  1  0
  6  7  2  0
  7  2  1  0
  8 13  2  0
  9  8  1  0
 10 11  1  0
 10  9  2  0
 11 12  2  0
 12 13  1  0
 14 15  2  0
 14  7  1  0
 16 15  1  0
 17 16  2  0
 18 17  1  0
 18 19  2  0
 19 14  1  0
  4 20  1  0
  5 21  1  0
  6 22  1  0
  8 23  1  0
  9 24  1  0
 12 25  1  0
 15 26  1  0
 16 27  1  0
 18 28  1  0
M  ISO  8  20  14  21  14  22  14  23  14  24  14  25  14  26  14  27  14
M  ISO  1  28  14
M  END
>  <minimizedAffinity>  (1) 
-5.23504543

>  <minimizedRMSD>  (1) 
3.39713621

$$$$
