
     RDKit          3D

 34 36  0  0  0  0  0  0  0  0999 V2000
   38.1470   30.9700   47.8000 Br  0  0  0  0  0  0  0  0  0  0  0  0
   36.7250   30.4570   46.6180 C   0  0  0  0  0  0  0  0  0  0  0  0
   35.5740   29.9000   47.1210 C   0  0  0  0  0  0  0  0  0  0  0  0
   34.5830   29.5480   46.2320 C   0  0  0  0  0  0  0  0  0  0  0  0
   34.7540   29.7540   44.8790 C   0  0  0  0  0  0  0  0  0  0  0  0
   35.9140   30.3150   44.3630 C   0  0  0  0  0  0  0  0  0  0  0  0
   36.9010   30.6640   45.2610 C   0  0  0  0  0  0  0  0  0  0  0  0
   36.4810   29.1330   50.7270 C   0  0  0  0  0  0  0  0  0  0  0  0
   36.5650   29.3000   49.3360 C   0  0  0  0  0  0  0  0  0  0  0  0
   35.4930   29.7250   48.5620 C   0  0  0  0  0  0  0  0  0  0  0  0
   34.3470   29.9690   49.2580 N   0  0  0  0  0  0  0  0  0  0  0  0
   34.2630   29.8090   50.5930 C   0  0  0  0  0  0  0  0  0  0  0  0
   35.3050   29.4000   51.3190 N   0  0  0  0  0  0  0  0  0  0  0  0
   38.0690   31.2360   44.6880 N   0  0  0  0  0  0  0  0  0  0  0  0
   39.2520   30.4440   44.4550 C   0  0  0  0  0  0  0  0  0  0  0  0
   40.0210   30.8100   43.2320 C   0  0  0  0  0  0  0  0  0  0  0  0
   40.0490   32.1880   42.8890 N   0  0  0  0  0  0  0  0  0  0  0  0
   38.7900   32.8700   42.9960 C   0  0  0  0  0  0  0  0  0  0  0  0
   38.1030   32.6320   44.3190 C   0  0  0  0  0  0  0  0  0  0  0  0
   33.6495   29.0999   46.6031 H   0  0  0  0  0  0  0  0  0  0  0  0
   33.9476   29.4653   44.1888 H   0  0  0  0  0  0  0  0  0  0  0  0
   36.0410   30.4747   43.2821 H   0  0  0  0  0  0  0  0  0  0  0  0
   37.3486   28.7950   51.3126 H   0  0  0  0  0  0  0  0  0  0  0  0
   37.5215   29.0849   48.8371 H   0  0  0  0  0  0  0  0  0  0  0  0
   33.3093   30.0214   51.0983 H   0  0  0  0  0  0  0  0  0  0  0  0
   39.9168   30.5589   45.3238 H   0  0  0  0  0  0  0  0  0  0  0  0
   38.9068   29.4104   44.3047 H   0  0  0  0  0  0  0  0  0  0  0  0
   41.0603   30.4814   43.3801 H   0  0  0  0  0  0  0  0  0  0  0  0
   39.4986   30.3140   42.4007 H   0  0  0  0  0  0  0  0  0  0  0  0
   40.3726   32.2673   41.9144 H   0  0  0  0  0  0  0  0  0  0  0  0
   38.9650   33.9499   42.8807 H   0  0  0  0  0  0  0  0  0  0  0  0
   38.1328   32.4750   42.2073 H   0  0  0  0  0  0  0  0  0  0  0  0
   38.6413   33.1891   45.0999 H   0  0  0  0  0  0  0  0  0  0  0  0
   37.0623   32.9738   44.2184 H   0  0  0  0  0  0  0  0  0  0  0  0
  2  3  2  0
  2  1  1  0
  3 10  1  0
  4  3  1  0
  5  4  2  0
  6  5  1  0
  6  7  2  0
  7  2  1  0
  8 13  2  0
  9  8  1  0
 10 11  1  0
 10  9  2  0
 11 12  2  0
 12 13  1  0
 14  7  1  0
 15 14  1  0
 16 15  1  0
 17 18  1  0
 17 16  1  0
 18 19  1  0
 19 14  1  0
  4 20  1  0
  5 21  1  0
  6 22  1  0
  8 23  1  0
  9 24  1  0
 12 25  1  0
 15 26  1  0
 15 27  1  0
 16 28  1  0
 16 29  1  0
 17 30  1  0
 18 31  1  0
 18 32  1  0
 19 33  1  0
 19 34  1  0
M  ISO  8  20  14  21  14  22  14  23  14  24  14  25  14  26  13  27  13
M  ISO  7  28  13  29  13  30   5  31  13  32  13  33  13  34  13
M  END
>  <minimizedAffinity>  (1) 
-4.8444705

>  <minimizedRMSD>  (1) 
4.28171206

$$$$
