
     RDKit          3D

 27 29  0  0  0  0  0  0  0  0999 V2000
   38.4260   31.2880   48.2630 Br  0  0  0  0  0  0  0  0  0  0  0  0
   37.2280   30.7970   46.8640 C   0  0  0  0  0  0  0  0  0  0  0  0
   36.0310   30.1660   47.1530 C   0  0  0  0  0  0  0  0  0  0  0  0
   35.1930   29.8270   46.1010 C   0  0  0  0  0  0  0  0  0  0  0  0
   35.5630   30.1240   44.8070 C   0  0  0  0  0  0  0  0  0  0  0  0
   36.7630   30.7570   44.5060 C   0  0  0  0  0  0  0  0  0  0  0  0
   37.5910   31.0890   45.5610 C   0  0  0  0  0  0  0  0  0  0  0  0
   36.3690   29.1050   50.7720 C   0  0  0  0  0  0  0  0  0  0  0  0
   36.6750   29.3490   49.4250 C   0  0  0  0  0  0  0  0  0  0  0  0
   35.7410   29.8990   48.5640 C   0  0  0  0  0  0  0  0  0  0  0  0
   34.5210   30.1860   49.1040 N   0  0  0  0  0  0  0  0  0  0  0  0
   34.2360   29.9470   50.3990 C   0  0  0  0  0  0  0  0  0  0  0  0
   35.1390   29.4170   51.2240 N   0  0  0  0  0  0  0  0  0  0  0  0
   38.8640   31.7570   45.3050 C   0  0  0  0  0  0  0  0  0  0  0  0
   39.0270   33.0570   44.8820 C   0  0  0  0  0  0  0  0  0  0  0  0
   40.3170   33.3540   44.7440 N   0  0  0  0  0  0  0  0  0  0  0  0
   40.9990   32.2440   45.0780 C   0  0  0  0  0  0  0  0  0  0  0  0
   40.1290   31.2590   45.4240 N   0  0  0  0  0  0  0  0  0  0  0  0
   34.2358   29.3225   46.2989 H   0  0  0  0  0  0  0  0  0  0  0  0
   34.8855   29.8507   43.9846 H   0  0  0  0  0  0  0  0  0  0  0  0
   37.0430   30.9851   43.4670 H   0  0  0  0  0  0  0  0  0  0  0  0
   37.1194   28.6671   51.4466 H   0  0  0  0  0  0  0  0  0  0  0  0
   37.6766   29.0984   49.0455 H   0  0  0  0  0  0  0  0  0  0  0  0
   33.2358   30.1948   50.7841 H   0  0  0  0  0  0  0  0  0  0  0  0
   38.2015   33.7566   44.6845 H   0  0  0  0  0  0  0  0  0  0  0  0
   40.7141   34.2549   44.4415 H   0  0  0  0  0  0  0  0  0  0  0  0
   42.0948   32.1480   45.0720 H   0  0  0  0  0  0  0  0  0  0  0  0
  2  3  2  0
  2  1  1  0
  3 10  1  0
  4  3  1  0
  5  4  2  0
  6  5  1  0
  6  7  2  0
  7  2  1  0
  8 13  2  0
  9  8  1  0
 10 11  1  0
 10  9  2  0
 11 12  2  0
 12 13  1  0
 14 18  1  0
 14  7  1  0
 15 14  2  0
 16 15  1  0
 16 17  1  0
 17 18  2  0
  4 19  1  0
  5 20  1  0
  6 21  1  0
  8 22  1  0
  9 23  1  0
 12 24  1  0
 15 25  1  0
 16 26  1  0
 17 27  1  0
M  ISO  8  19  14  20  14  21  14  22  14  23  14  24  14  25  14  26   9
M  ISO  1  27  14
M  END
>  <minimizedAffinity>  (1) 
-5.04908276

>  <minimizedRMSD>  (1) 
3.02750158

$$$$
