
     RDKit          3D

 29 31  0  0  0  0  0  0  0  0999 V2000
   37.9680   30.8810   47.2780 Br  0  0  0  0  0  0  0  0  0  0  0  0
   36.3370   30.4090   46.3930 C   0  0  0  0  0  0  0  0  0  0  0  0
   35.2910   29.8890   47.1230 C   0  0  0  0  0  0  0  0  0  0  0  0
   34.1160   29.5670   46.4370 C   0  0  0  0  0  0  0  0  0  0  0  0
   34.0280   29.7720   45.0790 C   0  0  0  0  0  0  0  0  0  0  0  0
   35.0920   30.2980   44.3500 C   0  0  0  0  0  0  0  0  0  0  0  0
   36.2490   30.6130   45.0360 C   0  0  0  0  0  0  0  0  0  0  0  0
   36.8580   29.2200   50.4900 C   0  0  0  0  0  0  0  0  0  0  0  0
   36.6920   29.3790   49.1110 C   0  0  0  0  0  0  0  0  0  0  0  0
   35.4810   29.7120   48.5550 C   0  0  0  0  0  0  0  0  0  0  0  0
   34.4390   29.8790   49.4340 N   0  0  0  0  0  0  0  0  0  0  0  0
   34.5930   29.7260   50.7670 C   0  0  0  0  0  0  0  0  0  0  0  0
   35.7860   29.4010   51.2930 N   0  0  0  0  0  0  0  0  0  0  0  0
   37.3850   31.1610   44.3120 C   0  0  0  0  0  0  0  0  0  0  0  0
   37.6710   32.4810   44.1110 C   0  0  0  0  0  0  0  0  0  0  0  0
   38.7990   32.6150   43.3980 N   0  0  0  0  0  0  0  0  0  0  0  0
   39.2440   31.3780   43.1370 C   0  0  0  0  0  0  0  0  0  0  0  0
   38.4000   30.4790   43.6840 N   0  0  0  0  0  0  0  0  0  0  0  0
   40.4160   30.9650   42.4060 C   0  0  0  0  0  0  0  0  0  0  0  0
   41.0950   29.9260   42.6420 O   0  0  0  0  0  0  0  0  0  0  0  0
   33.2588   29.1483   46.9847 H   0  0  0  0  0  0  0  0  0  0  0  0
   33.0949   29.5142   44.5566 H   0  0  0  0  0  0  0  0  0  0  0  0
   35.0136   30.4572   43.2644 H   0  0  0  0  0  0  0  0  0  0  0  0
   37.8384   28.9537   50.9118 H   0  0  0  0  0  0  0  0  0  0  0  0
   37.5590   29.2327   48.4501 H   0  0  0  0  0  0  0  0  0  0  0  0
   33.7287   29.8696   51.4322 H   0  0  0  0  0  0  0  0  0  0  0  0
   37.0612   33.3179   44.4822 H   0  0  0  0  0  0  0  0  0  0  0  0
   39.2392   33.4995   43.1067 H   0  0  0  0  0  0  0  0  0  0  0  0
   40.7458   31.6065   41.5755 H   0  0  0  0  0  0  0  0  0  0  0  0
  2  3  2  0
  2  1  1  0
  3 10  1  0
  4  3  1  0
  5  4  2  0
  6  7  2  0
  6  5  1  0
  7  2  1  0
  8 13  2  0
  9  8  1  0
 10  9  2  0
 10 11  1  0
 11 12  2  0
 12 13  1  0
 14  7  1  0
 15 14  2  0
 16 15  1  0
 17 16  1  0
 17 18  2  0
 18 14  1  0
 19 20  2  0
 19 17  1  0
  4 21  1  0
  5 22  1  0
  6 23  1  0
  8 24  1  0
  9 25  1  0
 12 26  1  0
 15 27  1  0
 16 28  1  0
 19 29  1  0
M  ISO  8  21  14  22  14  23  14  24  14  25  14  26  14  27  14  28   9
M  ISO  1  29   6
M  END
>  <minimizedAffinity>  (1) 
-4.75361252

>  <minimizedRMSD>  (1) 
1.8392545

$$$$
