
     RDKit          3D

 41 44  0  0  0  0  0  0  0  0999 V2000
   36.5670   30.8980   47.0470 Br  0  0  0  0  0  0  0  0  0  0  0  0
   35.2150   29.5440   46.9950 C   0  0  0  0  0  0  0  0  0  0  0  0
   34.9320   28.8230   48.1320 C   0  0  0  0  0  0  0  0  0  0  0  0
   33.9330   27.8490   48.0540 C   0  0  0  0  0  0  0  0  0  0  0  0
   33.2670   27.6370   46.8670 C   0  0  0  0  0  0  0  0  0  0  0  0
   33.5580   28.3710   45.7160 C   0  0  0  0  0  0  0  0  0  0  0  0
   34.5420   29.3230   45.8080 C   0  0  0  0  0  0  0  0  0  0  0  0
   34.8950   30.1240   44.6350 C   0  0  0  0  0  0  0  0  0  0  0  0
   34.0410   30.8830   43.8880 C   0  0  0  0  0  0  0  0  0  0  0  0
   34.6940   31.4870   42.8890 N   0  0  0  0  0  0  0  0  0  0  0  0
   35.9710   31.1160   42.9910 C   0  0  0  0  0  0  0  0  0  0  0  0
   36.1250   30.2890   44.0440 N   0  0  0  0  0  0  0  0  0  0  0  0
   37.0390   31.5150   42.1380 N   0  0  0  0  0  0  0  0  0  0  0  0
   36.8360   32.4080   41.0140 C   0  0  0  0  0  0  0  0  0  0  0  0
   37.7100   33.6400   41.1160 C   0  0  0  0  0  0  0  0  0  0  0  0
   38.9880   33.3570   41.7330 N   0  0  0  0  0  0  0  0  0  0  0  0
   39.2800   31.9580   41.4860 C   0  0  0  0  0  0  0  0  0  0  0  0
   38.3900   31.0580   42.3340 C   0  0  0  0  0  0  0  0  0  0  0  0
   37.7570   29.6580   50.4900 C   0  0  0  0  0  0  0  0  0  0  0  0
   37.0520   29.3680   49.3070 C   0  0  0  0  0  0  0  0  0  0  0  0
   35.6930   29.1220   49.3510 C   0  0  0  0  0  0  0  0  0  0  0  0
   35.0720   29.1710   50.5770 N   0  0  0  0  0  0  0  0  0  0  0  0
   35.7700   29.4530   51.7010 C   0  0  0  0  0  0  0  0  0  0  0  0
   37.0870   29.6920   51.6640 N   0  0  0  0  0  0  0  0  0  0  0  0
   33.6782   27.2510   48.9414 H   0  0  0  0  0  0  0  0  0  0  0  0
   32.4829   26.8667   46.8250 H   0  0  0  0  0  0  0  0  0  0  0  0
   33.0201   28.1934   44.7730 H   0  0  0  0  0  0  0  0  0  0  0  0
   32.9628   30.9841   44.0812 H   0  0  0  0  0  0  0  0  0  0  0  0
   34.2899   32.1154   42.1800 H   0  0  0  0  0  0  0  0  0  0  0  0
   35.7813   32.7195   40.9915 H   0  0  0  0  0  0  0  0  0  0  0  0
   37.1064   31.8696   40.0937 H   0  0  0  0  0  0  0  0  0  0  0  0
   37.8852   34.0342   40.1041 H   0  0  0  0  0  0  0  0  0  0  0  0
   37.1863   34.3728   41.7474 H   0  0  0  0  0  0  0  0  0  0  0  0
   39.7203   33.9497   41.3167 H   0  0  0  0  0  0  0  0  0  0  0  0
   39.1070   31.7365   40.4225 H   0  0  0  0  0  0  0  0  0  0  0  0
   40.3297   31.7660   41.7531 H   0  0  0  0  0  0  0  0  0  0  0  0
   38.6683   31.1397   43.3951 H   0  0  0  0  0  0  0  0  0  0  0  0
   38.4987   30.0030   42.0421 H   0  0  0  0  0  0  0  0  0  0  0  0
   38.8389   29.8544   50.4600 H   0  0  0  0  0  0  0  0  0  0  0  0
   37.5842   29.3371   48.3448 H   0  0  0  0  0  0  0  0  0  0  0  0
   35.2441   29.4867   52.6666 H   0  0  0  0  0  0  0  0  0  0  0  0
  2  1  1  0
  2  3  2  0
  3 21  1  0
  4  3  1  0
  5  4  2  0
  6  7  2  0
  6  5  1  0
  7  2  1  0
  8  7  1  0
  9  8  2  0
 10 11  1  0
 10  9  1  0
 11 12  2  0
 12  8  1  0
 13 18  1  0
 13 11  1  0
 14 15  1  0
 14 13  1  0
 15 16  1  0
 17 16  1  0
 17 18  1  0
 19 24  2  0
 20 21  2  0
 20 19  1  0
 21 22  1  0
 22 23  2  0
 24 23  1  0
  4 25  1  0
  5 26  1  0
  6 27  1  0
  9 28  1  0
 10 29  1  0
 14 30  1  0
 14 31  1  0
 15 32  1  0
 15 33  1  0
 16 34  1  0
 17 35  1  0
 17 36  1  0
 18 37  1  0
 18 38  1  0
 19 39  1  0
 20 40  1  0
 23 41  1  0
M  ISO  8  25  14  26  14  27  14  28  14  29   9  30  13  31  13  32  13
M  ISO  8  33  13  34   5  35  13  36  13  37  13  38  13  39  14  40  14
M  ISO  1  41  14
M  END
>  <minimizedAffinity>  (1) 
-4.71401691

>  <minimizedRMSD>  (1) 
4.64645767

$$$$
