
     RDKit          3D

 20 21  0  0  0  0  0  0  0  0999 V2000
   37.4650   30.2640   51.3320 C   0  0  0  0  0  0  0  0  0  0  0  0
   38.1420   30.9900   50.3150 C   0  0  0  0  0  0  0  0  0  0  0  0
   37.8270   30.7240   48.9860 C   0  0  0  0  0  0  0  0  0  0  0  0
   36.8850   29.7820   48.7310 N   0  0  0  0  0  0  0  0  0  0  0  0
   36.2450   29.0940   49.7130 C   0  0  0  0  0  0  0  0  0  0  0  0
   36.5410   29.3420   51.0030 N   0  0  0  0  0  0  0  0  0  0  0  0
   38.4520   31.4010   47.9040 N   0  0  0  0  0  0  0  0  0  0  0  0
   38.6670   30.8280   46.7210 C   0  0  0  0  0  0  0  0  0  0  0  0
   39.2850   31.5310   45.6850 C   0  0  0  0  0  0  0  0  0  0  0  0
   39.6780   32.8490   45.9080 C   0  0  0  0  0  0  0  0  0  0  0  0
   40.2330   33.5130   45.0110 O   0  0  0  0  0  0  0  0  0  0  0  0
   39.4510   33.4100   47.1140 N   0  0  0  0  0  0  0  0  0  0  0  0
   38.8490   32.6660   48.0630 C   0  0  0  0  0  0  0  0  0  0  0  0
   38.6580   33.2410   49.1810 O   0  0  0  0  0  0  0  0  0  0  0  0
   37.6965   30.4559   52.3901 H   0  0  0  0  0  0  0  0  0  0  0  0
   38.8985   31.7458   50.5728 H   0  0  0  0  0  0  0  0  0  0  0  0
   35.4887   28.3380   49.4551 H   0  0  0  0  0  0  0  0  0  0  0  0
   38.3533   29.7864   46.5579 H   0  0  0  0  0  0  0  0  0  0  0  0
   39.4586   31.0527   44.7098 H   0  0  0  0  0  0  0  0  0  0  0  0
   39.7309   34.3827   47.3046 H   0  0  0  0  0  0  0  0  0  0  0  0
  2  1  2  0
  3  2  1  0
  4  3  2  0
  4  5  1  0
  5  6  2  0
  6  1  1  0
  7 13  1  0
  7  3  1  0
  8  7  1  0
  9 10  1  0
  9  8  2  0
 10 12  1  0
 11 10  2  0
 12 13  1  0
 13 14  2  0
  1 15  1  0
  2 16  1  0
  5 17  1  0
  8 18  1  0
  9 19  1  0
 12 20  1  0
M  ISO  6  15  14  16  14  17  14  18  14  19  14  20   9
M  END
>  <minimizedAffinity>  (1) 
-5.98533487

>  <minimizedRMSD>  (1) 
0.728984118

$$$$
