
     RDKit          3D

 32 34  0  0  1  0  0  0  0  0999 V2000
   36.6120   29.2070   50.5570 C   0  0  0  0  0  0  0  0  0  0  0  0
   36.8880   29.4400   49.1780 C   0  0  0  0  0  0  0  0  0  0  0  0
   35.8520   29.9170   48.3820 C   0  0  0  0  0  0  0  0  0  0  0  0
   34.6210   30.1410   48.9390 N   0  0  0  0  0  0  0  0  0  0  0  0
   34.3870   29.9080   50.2610 C   0  0  0  0  0  0  0  0  0  0  0  0
   35.3730   29.4460   51.0580 N   0  0  0  0  0  0  0  0  0  0  0  0
   36.0380   30.1900   47.0100 N   0  0  0  0  0  0  0  0  0  0  0  0
   35.0610   30.0180   46.1010 C   0  0  0  0  0  0  0  0  0  0  0  0
   35.2700   30.3180   44.7460 C   0  0  0  0  0  0  0  0  0  0  0  0
   36.5080   30.7970   44.3540 C   0  0  0  0  0  0  0  0  0  0  0  0
   36.7190   31.0690   43.1650 O   0  0  0  0  0  0  0  0  0  0  0  0
   37.4540   30.9530   45.2860 N   0  0  0  0  0  0  0  0  0  0  0  0
   37.1970   30.6510   46.5630 C   0  0  0  0  0  0  0  0  0  0  0  0
   38.1350   30.8210   47.3860 O   0  0  0  0  0  0  0  0  0  0  0  0
   39.5530   32.1120   45.9100 C   0  0  1  0  0  0  0  0  0  0  0  0
   38.7070   31.4450   44.8510 C   0  0  1  0  0  0  0  0  0  0  0  0
   39.6810   30.5270   44.2250 C   0  0  0  0  0  0  0  0  0  0  0  0
   40.7190   31.4720   43.9810 O   0  0  0  0  0  0  0  0  0  0  0  0
   40.9490   31.8270   45.3320 C   0  0  0  0  0  0  0  0  0  0  0  0
   39.3270   33.4860   45.9690 O   0  0  0  0  0  0  0  0  0  0  0  0
   37.4068   28.8317   51.2184 H   0  0  0  0  0  0  0  0  0  0  0  0
   37.8864   29.2490   48.7577 H   0  0  0  0  0  0  0  0  0  0  0  0
   33.3882   30.0977   50.6811 H   0  0  0  0  0  0  0  0  0  0  0  0
   34.0819   29.6358   46.4254 H   0  0  0  0  0  0  0  0  0  0  0  0
   34.4654   30.1752   44.0097 H   0  0  0  0  0  0  0  0  0  0  0  0
   39.3691   31.7565   46.9346 H   0  0  0  0  0  0  0  0  0  0  0  0
   38.2781   32.1235   44.0988 H   0  0  0  0  0  0  0  0  0  0  0  0
   39.9988   29.7271   44.9100 H   0  0  0  0  0  0  0  0  0  0  0  0
   39.3219   29.9684   43.3480 H   0  0  0  0  0  0  0  0  0  0  0  0
   41.4301   30.9989   45.8731 H   0  0  0  0  0  0  0  0  0  0  0  0
   41.6198   32.6940   45.4236 H   0  0  0  0  0  0  0  0  0  0  0  0
   39.2799   33.7723   46.9155 H   0  0  0  0  0  0  0  0  0  0  0  0
  1  6  2  0
  2  1  1  0
  3  4  1  0
  3  2  2  0
  4  5  2  0
  5  6  1  0
  7  3  1  0
  8  7  1  0
  9  8  2  0
 10  9  1  0
 10 12  1  0
 11 10  2  0
 12 13  1  0
 13  7  1  0
 13 14  2  0
 15 20  1  0
 16 12  1  0
 16 15  1  0
 17 16  1  0
 18 17  1  0
 18 19  1  0
 19 15  1  0
  1 21  1  0
  2 22  1  0
  5 23  1  0
  8 24  1  0
  9 25  1  0
 15 26  1  1
 16 27  1  6
 17 28  1  0
 17 29  1  0
 19 30  1  0
 19 31  1  0
 20 32  1  0
M  ISO  8  21  14  22  14  23  14  24  14  25  14  26  13  27  13  28  13
M  ISO  4  29  13  30  13  31  13  32   3
M  END
>  <minimizedAffinity>  (1) 
-5.53514814

>  <minimizedRMSD>  (1) 
3.79067731

$$$$
