
     RDKit          3D

 23 24  0  0  0  0  0  0  0  0999 V2000
   37.1240   30.0000   51.6220 C   0  0  0  0  0  0  0  0  0  0  0  0
   37.8610   30.6790   50.6320 C   0  0  0  0  0  0  0  0  0  0  0  0
   37.5190   30.5550   49.3000 C   0  0  0  0  0  0  0  0  0  0  0  0
   36.4660   29.7650   49.0140 N   0  0  0  0  0  0  0  0  0  0  0  0
   35.7440   29.1020   49.9410 C   0  0  0  0  0  0  0  0  0  0  0  0
   36.0810   29.2270   51.2490 N   0  0  0  0  0  0  0  0  0  0  0  0
   38.2140   31.2180   48.2710 N   0  0  0  0  0  0  0  0  0  0  0  0
   38.3350   30.6920   47.0360 C   0  0  0  0  0  0  0  0  0  0  0  0
   39.0270   31.3650   46.0290 C   0  0  0  0  0  0  0  0  0  0  0  0
   39.5990   32.6120   46.3420 C   0  0  0  0  0  0  0  0  0  0  0  0
   40.2310   33.2550   45.4760 O   0  0  0  0  0  0  0  0  0  0  0  0
   39.4650   33.1250   47.5980 N   0  0  0  0  0  0  0  0  0  0  0  0
   38.7810   32.4010   48.4920 C   0  0  0  0  0  0  0  0  0  0  0  0
   38.6810   32.9170   49.6370 O   0  0  0  0  0  0  0  0  0  0  0  0
   40.0730   34.4120   47.8670 C   0  0  0  0  0  0  0  0  0  0  0  0
   37.3941   30.0979   52.6838 H   0  0  0  0  0  0  0  0  0  0  0  0
   38.7133   31.3112   50.9215 H   0  0  0  0  0  0  0  0  0  0  0  0
   34.8953   28.4699   49.6408 H   0  0  0  0  0  0  0  0  0  0  0  0
   37.8799   29.7145   46.8182 H   0  0  0  0  0  0  0  0  0  0  0  0
   39.1226   30.9342   45.0214 H   0  0  0  0  0  0  0  0  0  0  0  0
   40.1446   34.5636   48.9541 H   0  0  0  0  0  0  0  0  0  0  0  0
   41.0801   34.4412   47.4256 H   0  0  0  0  0  0  0  0  0  0  0  0
   39.4559   35.2085   47.4256 H   0  0  0  0  0  0  0  0  0  0  0  0
  2  1  2  0
  3  2  1  0
  4  3  2  0
  4  5  1  0
  5  6  2  0
  6  1  1  0
  7 13  1  0
  7  3  1  0
  8  7  1  0
  9 10  1  0
  9  8  2  0
 10 12  1  0
 11 10  2  0
 12 15  1  0
 12 13  1  0
 13 14  2  0
  1 16  1  0
  2 17  1  0
  5 18  1  0
  8 19  1  0
  9 20  1  0
 15 21  1  0
 15 22  1  0
 15 23  1  0
M  ISO  8  16  14  17  14  18  14  19  14  20  14  21   8  22   8  23   8
M  END
>  <minimizedAffinity>  (1) 
-5.52889776

>  <minimizedRMSD>  (1) 
0.527395666

$$$$
