
     RDKit          3D

 38 41  0  0  0  0  0  0  0  0999 V2000
   37.4010   31.1470   47.0750 N   0  0  0  0  0  0  0  0  0  0  0  0
   36.7680   30.8700   45.9030 C   0  0  0  0  0  0  0  0  0  0  0  0
   37.2030   31.3680   44.6860 C   0  0  0  0  0  0  0  0  0  0  0  0
   38.3470   32.1890   44.7050 C   0  0  0  0  0  0  0  0  0  0  0  0
   38.7760   32.6600   43.6280 O   0  0  0  0  0  0  0  0  0  0  0  0
   38.9840   32.4680   45.8760 N   0  0  0  0  0  0  0  0  0  0  0  0
   38.4650   31.9270   46.9840 C   0  0  0  0  0  0  0  0  0  0  0  0
   39.0750   32.2090   48.0410 O   0  0  0  0  0  0  0  0  0  0  0  0
   36.5210   31.0690   43.4300 C   0  0  0  0  0  0  0  0  0  0  0  0
   36.9020   29.8740   42.8130 C   0  0  0  0  0  0  0  0  0  0  0  0
   36.3360   29.4610   41.6120 C   0  0  0  0  0  0  0  0  0  0  0  0
   35.3760   30.2600   41.0250 C   0  0  0  0  0  0  0  0  0  0  0  0
   34.7870   29.9050   39.8460 N   0  0  0  0  0  0  0  0  0  0  0  0
   33.8510   30.6860   39.2750 C   0  0  0  0  0  0  0  0  0  0  0  0
   33.4610   31.8730   39.8690 C   0  0  0  0  0  0  0  0  0  0  0  0
   34.0430   32.2550   41.0640 C   0  0  0  0  0  0  0  0  0  0  0  0
   35.0010   31.4530   41.6460 C   0  0  0  0  0  0  0  0  0  0  0  0
   35.5580   31.8690   42.8390 C   0  0  0  0  0  0  0  0  0  0  0  0
   37.3350   29.5560   50.4260 C   0  0  0  0  0  0  0  0  0  0  0  0
   37.7980   30.0580   49.2030 C   0  0  0  0  0  0  0  0  0  0  0  0
   36.9480   30.6380   48.2950 C   0  0  0  0  0  0  0  0  0  0  0  0
   35.6340   30.7090   48.6210 N   0  0  0  0  0  0  0  0  0  0  0  0
   35.1510   30.2300   49.8010 C   0  0  0  0  0  0  0  0  0  0  0  0
   35.9990   29.6530   50.7040 N   0  0  0  0  0  0  0  0  0  0  0  0
   40.1590   33.3090   45.8870 C   0  0  0  0  0  0  0  0  0  0  0  0
   40.0450   34.2770   44.9310 F   0  0  0  0  0  0  0  0  0  0  0  0
   41.3290   32.6130   45.6200 F   0  0  0  0  0  0  0  0  0  0  0  0
   40.2470   33.9380   47.1230 F   0  0  0  0  0  0  0  0  0  0  0  0
   35.8766   30.2258   45.9227 H   0  0  0  0  0  0  0  0  0  0  0  0
   37.6684   29.2449   43.2893 H   0  0  0  0  0  0  0  0  0  0  0  0
   36.6468   28.5174   41.1398 H   0  0  0  0  0  0  0  0  0  0  0  0
   33.3908   30.3768   38.3249 H   0  0  0  0  0  0  0  0  0  0  0  0
   32.6961   32.5063   39.3958 H   0  0  0  0  0  0  0  0  0  0  0  0
   33.7423   33.1957   41.5484 H   0  0  0  0  0  0  0  0  0  0  0  0
   35.2442   32.8130   43.3084 H   0  0  0  0  0  0  0  0  0  0  0  0
   38.0284   29.0953   51.1450 H   0  0  0  0  0  0  0  0  0  0  0  0
   38.8694   29.9855   48.9645 H   0  0  0  0  0  0  0  0  0  0  0  0
   34.0773   30.3077   50.0273 H   0  0  0  0  0  0  0  0  0  0  0  0
  1 21  1  0
  2  1  1  0
  3  4  1  0
  3  2  2  0
  4  6  1  0
  5  4  2  0
  6 25  1  0
  6  7  1  0
  7  1  1  0
  7  8  2  0
  9  3  1  0
 10  9  2  0
 11 10  1  0
 12 11  2  0
 12 17  1  0
 13 12  1  0
 14 13  2  0
 14 15  1  0
 15 16  2  0
 16 17  1  0
 17 18  2  0
 18  9  1  0
 19 24  2  0
 20 19  1  0
 21 22  1  0
 21 20  2  0
 22 23  2  0
 23 24  1  0
 25 28  1  0
 26 25  1  0
 27 25  1  0
  2 29  1  0
 10 30  1  0
 11 31  1  0
 14 32  1  0
 15 33  1  0
 16 34  1  0
 18 35  1  0
 19 36  1  0
 20 37  1  0
 23 38  1  0
M  ISO  8  29  14  30  14  31  14  32  14  33  14  34  14  35  14  36  14
M  ISO  2  37  14  38  14
M  END
>  <minimizedAffinity>  (1) 
-6.25883055

>  <minimizedRMSD>  (1) 
0.226228595

$$$$
