
     RDKit          3D

 33 35  0  0  0  0  0  0  0  0999 V2000
   37.3900   31.0700   47.1520 N   0  0  0  0  0  0  0  0  0  0  0  0
   36.8080   30.7270   45.9710 C   0  0  0  0  0  0  0  0  0  0  0  0
   37.2720   31.2020   44.7540 C   0  0  0  0  0  0  0  0  0  0  0  0
   38.3840   32.0670   44.7870 C   0  0  0  0  0  0  0  0  0  0  0  0
   38.8370   32.5210   43.7110 O   0  0  0  0  0  0  0  0  0  0  0  0
   38.9610   32.4060   45.9720 N   0  0  0  0  0  0  0  0  0  0  0  0
   38.4220   31.8830   47.0790 C   0  0  0  0  0  0  0  0  0  0  0  0
   38.9790   32.2190   48.1480 O   0  0  0  0  0  0  0  0  0  0  0  0
   37.2360   29.4630   50.4950 C   0  0  0  0  0  0  0  0  0  0  0  0
   37.7140   29.9560   49.2760 C   0  0  0  0  0  0  0  0  0  0  0  0
   36.8980   30.5750   48.3630 C   0  0  0  0  0  0  0  0  0  0  0  0
   35.5950   30.6930   48.6920 N   0  0  0  0  0  0  0  0  0  0  0  0
   35.0850   30.2290   49.8650 C   0  0  0  0  0  0  0  0  0  0  0  0
   35.9040   29.6150   50.7690 N   0  0  0  0  0  0  0  0  0  0  0  0
   38.1480   28.9690   43.4170 F   0  0  0  0  0  0  0  0  0  0  0  0
   37.1540   29.7000   42.8800 C   0  0  0  0  0  0  0  0  0  0  0  0
   36.6500   30.8370   43.4820 C   0  0  0  0  0  0  0  0  0  0  0  0
   35.6230   31.5420   42.8710 C   0  0  0  0  0  0  0  0  0  0  0  0
   35.1430   31.0630   41.6660 C   0  0  0  0  0  0  0  0  0  0  0  0
   35.6320   29.9380   41.0580 C   0  0  0  0  0  0  0  0  0  0  0  0
   36.6440   29.2640   41.6820 C   0  0  0  0  0  0  0  0  0  0  0  0
   40.1100   33.2920   46.0060 C   0  0  0  0  0  0  0  0  0  0  0  0
   39.9770   34.2620   45.0670 F   0  0  0  0  0  0  0  0  0  0  0  0
   41.2960   32.6320   45.7230 F   0  0  0  0  0  0  0  0  0  0  0  0
   40.1780   33.8960   47.2540 F   0  0  0  0  0  0  0  0  0  0  0  0
   35.9407   30.0505   45.9822 H   0  0  0  0  0  0  0  0  0  0  0  0
   37.9097   28.9688   51.2105 H   0  0  0  0  0  0  0  0  0  0  0  0
   38.7827   29.8433   49.0411 H   0  0  0  0  0  0  0  0  0  0  0  0
   34.0138   30.3484   50.0850 H   0  0  0  0  0  0  0  0  0  0  0  0
   35.2051   32.4505   43.3293 H   0  0  0  0  0  0  0  0  0  0  0  0
   34.3284   31.6127   41.1717 H   0  0  0  0  0  0  0  0  0  0  0  0
   35.2236   29.5880   40.0985 H   0  0  0  0  0  0  0  0  0  0  0  0
   37.0570   28.3569   41.2166 H   0  0  0  0  0  0  0  0  0  0  0  0
  1 11  1  0
  2  1  1  0
  3  4  1  0
  3  2  2  0
  4  6  1  0
  5  4  2  0
  6 22  1  0
  6  7  1  0
  7  1  1  0
  7  8  2  0
  9 14  2  0
 10  9  1  0
 11 12  1  0
 11 10  2  0
 12 13  2  0
 13 14  1  0
 16 15  1  0
 16 17  2  0
 17  3  1  0
 18 17  1  0
 19 18  2  0
 20 19  1  0
 20 21  2  0
 21 16  1  0
 22 25  1  0
 23 22  1  0
 24 22  1  0
  2 26  1  0
  9 27  1  0
 10 28  1  0
 13 29  1  0
 18 30  1  0
 19 31  1  0
 20 32  1  0
 21 33  1  0
M  ISO  8  26  14  27  14  28  14  29  14  30  14  31  14  32  14  33  14
M  END
>  <minimizedAffinity>  (1) 
-6.24613667

>  <minimizedRMSD>  (1) 
0.437354237

$$$$
