
     RDKit          3D

 38 40  0  0  0  0  0  0  0  0999 V2000
   37.4050   31.1410   47.0490 N   0  0  0  0  0  0  0  0  0  0  0  0
   36.7930   30.8390   45.8720 C   0  0  0  0  0  0  0  0  0  0  0  0
   37.2450   31.3300   44.6570 C   0  0  0  0  0  0  0  0  0  0  0  0
   38.3740   32.1630   44.6810 C   0  0  0  0  0  0  0  0  0  0  0  0
   38.8150   32.6270   43.6040 O   0  0  0  0  0  0  0  0  0  0  0  0
   38.9900   32.4650   45.8720 N   0  0  0  0  0  0  0  0  0  0  0  0
   38.4620   31.9340   46.9680 C   0  0  0  0  0  0  0  0  0  0  0  0
   39.0470   32.2330   48.0290 O   0  0  0  0  0  0  0  0  0  0  0  0
   37.2960   29.5590   50.4040 C   0  0  0  0  0  0  0  0  0  0  0  0
   37.7690   30.0550   49.1830 C   0  0  0  0  0  0  0  0  0  0  0  0
   36.9330   30.6370   48.2650 C   0  0  0  0  0  0  0  0  0  0  0  0
   35.6130   30.7190   48.5790 N   0  0  0  0  0  0  0  0  0  0  0  0
   35.1230   30.2470   49.7560 C   0  0  0  0  0  0  0  0  0  0  0  0
   35.9590   29.6690   50.6680 N   0  0  0  0  0  0  0  0  0  0  0  0
   36.5980   31.0100   43.4290 N   0  0  0  0  0  0  0  0  0  0  0  0
   35.5620   31.7850   42.7680 C   0  0  0  0  0  0  0  0  0  0  0  0
   35.9190   32.0210   41.3230 C   0  0  0  0  0  0  0  0  0  0  0  0
   35.9360   30.6500   40.6600 C   0  0  0  0  0  0  0  0  0  0  0  0
   37.0420   29.8680   41.2810 C   0  0  0  0  0  0  0  0  0  0  0  0
   37.0100   29.8000   42.7800 C   0  0  0  0  0  0  0  0  0  0  0  0
   40.1600   33.3210   45.8870 C   0  0  0  0  0  0  0  0  0  0  0  0
   40.0470   34.2840   44.9380 F   0  0  0  0  0  0  0  0  0  0  0  0
   41.3320   32.6340   45.6130 F   0  0  0  0  0  0  0  0  0  0  0  0
   40.2410   33.9350   47.1300 F   0  0  0  0  0  0  0  0  0  0  0  0
   35.9099   30.1832   45.8850 H   0  0  0  0  0  0  0  0  0  0  0  0
   37.9800   29.0945   51.1295 H   0  0  0  0  0  0  0  0  0  0  0  0
   38.8419   29.9755   48.9536 H   0  0  0  0  0  0  0  0  0  0  0  0
   34.0482   30.3311   49.9747 H   0  0  0  0  0  0  0  0  0  0  0  0
   34.6103   31.2359   42.8205 H   0  0  0  0  0  0  0  0  0  0  0  0
   35.4679   32.7571   43.2741 H   0  0  0  0  0  0  0  0  0  0  0  0
   35.1673   32.6664   40.8450 H   0  0  0  0  0  0  0  0  0  0  0  0
   36.8924   32.5244   41.2277 H   0  0  0  0  0  0  0  0  0  0  0  0
   36.1120   30.7571   39.5795 H   0  0  0  0  0  0  0  0  0  0  0  0
   34.9723   30.1387   40.8008 H   0  0  0  0  0  0  0  0  0  0  0  0
   36.9928   28.8402   40.8921 H   0  0  0  0  0  0  0  0  0  0  0  0
   37.9728   30.3918   41.0179 H   0  0  0  0  0  0  0  0  0  0  0  0
   36.3123   29.0010   43.0713 H   0  0  0  0  0  0  0  0  0  0  0  0
   38.0446   29.6127   43.1032 H   0  0  0  0  0  0  0  0  0  0  0  0
  1 11  1  0
  2  1  1  0
  3  4  1  0
  3  2  2  0
  4  6  1  0
  5  4  2  0
  6 21  1  0
  6  7  1  0
  7  1  1  0
  7  8  2  0
  9 14  2  0
 10  9  1  0
 11 12  1  0
 11 10  2  0
 12 13  2  0
 13 14  1  0
 15  3  1  0
 16 15  1  0
 17 16  1  0
 18 19  1  0
 18 17  1  0
 19 20  1  0
 20 15  1  0
 21 24  1  0
 22 21  1  0
 23 21  1  0
  2 25  1  0
  9 26  1  0
 10 27  1  0
 13 28  1  0
 16 29  1  0
 16 30  1  0
 17 31  1  0
 17 32  1  0
 18 33  1  0
 18 34  1  0
 19 35  1  0
 19 36  1  0
 20 37  1  0
 20 38  1  0
M  ISO  8  25  14  26  14  27  14  28  14  29  13  30  13  31  13  32  13
M  ISO  6  33  13  34  13  35  13  36  13  37  13  38  13
M  END
>  <minimizedAffinity>  (1) 
-6.1147418

>  <minimizedRMSD>  (1) 
0.181081578

$$$$
