
     RDKit          3D

 30 32  0  0  0  0  0  0  0  0999 V2000
   37.4180   31.0840   47.1010 N   0  0  0  0  0  0  0  0  0  0  0  0
   36.8090   30.7350   45.9330 C   0  0  0  0  0  0  0  0  0  0  0  0
   37.2670   31.2090   44.7120 C   0  0  0  0  0  0  0  0  0  0  0  0
   38.3740   32.0600   44.7140 C   0  0  0  0  0  0  0  0  0  0  0  0
   38.8220   32.5130   43.6250 O   0  0  0  0  0  0  0  0  0  0  0  0
   38.9740   32.4020   45.8800 N   0  0  0  0  0  0  0  0  0  0  0  0
   38.4570   31.8910   47.0120 C   0  0  0  0  0  0  0  0  0  0  0  0
   39.0340   32.2290   48.0640 O   0  0  0  0  0  0  0  0  0  0  0  0
   37.3140   29.5740   50.4950 C   0  0  0  0  0  0  0  0  0  0  0  0
   37.7950   30.0440   49.2610 C   0  0  0  0  0  0  0  0  0  0  0  0
   36.9550   30.6090   48.3320 C   0  0  0  0  0  0  0  0  0  0  0  0
   35.6300   30.6950   48.6550 N   0  0  0  0  0  0  0  0  0  0  0  0
   35.1390   30.2490   49.8420 C   0  0  0  0  0  0  0  0  0  0  0  0
   35.9760   29.6950   50.7500 N   0  0  0  0  0  0  0  0  0  0  0  0
   36.6910   30.8920   43.4750 C   0  0  0  0  0  0  0  0  0  0  0  0
   35.5940   31.5900   42.9140 C   0  0  0  0  0  0  0  0  0  0  0  0
   35.1110   31.1970   41.7020 C   0  0  0  0  0  0  0  0  0  0  0  0
   35.8240   30.0200   41.0680 C   0  0  0  0  0  0  0  0  0  0  0  0
   37.1420   29.6400   42.3750 S   0  0  0  0  0  0  0  0  0  0  0  0
   40.1240   33.2820   45.8860 C   0  0  0  0  0  0  0  0  0  0  0  0
   39.9890   34.2440   44.9390 F   0  0  0  0  0  0  0  0  0  0  0  0
   41.3130   32.6220   45.6200 F   0  0  0  0  0  0  0  0  0  0  0  0
   40.2090   33.9180   47.1330 F   0  0  0  0  0  0  0  0  0  0  0  0
   35.9374   30.0645   45.9586 H   0  0  0  0  0  0  0  0  0  0  0  0
   37.9931   29.1226   51.2332 H   0  0  0  0  0  0  0  0  0  0  0  0
   38.8678   29.9576   49.0338 H   0  0  0  0  0  0  0  0  0  0  0  0
   34.0652   30.3381   50.0635 H   0  0  0  0  0  0  0  0  0  0  0  0
   35.1387   32.4367   43.4486 H   0  0  0  0  0  0  0  0  0  0  0  0
   34.2614   31.6999   41.2170 H   0  0  0  0  0  0  0  0  0  0  0  0
   35.6290   29.5206   40.1075 H   0  0  0  0  0  0  0  0  0  0  0  0
  1 11  1  0
  2  1  1  0
  3  4  1  0
  3  2  2  0
  4  6  1  0
  5  4  2  0
  6 20  1  0
  6  7  1  0
  7  1  1  0
  7  8  2  0
  9 14  2  0
 10  9  1  0
 11 12  1  0
 11 10  2  0
 12 13  2  0
 13 14  1  0
 15  3  1  0
 16 15  2  0
 17 16  1  0
 18 17  2  0
 18 19  1  0
 19 15  1  0
 20 23  1  0
 21 20  1  0
 22 20  1  0
  2 24  1  0
  9 25  1  0
 10 26  1  0
 13 27  1  0
 16 28  1  0
 17 29  1  0
 18 30  1  0
M  ISO  7  24  14  25  14  26  14  27  14  28  14  29  14  30  14
M  END
>  <minimizedAffinity>  (1) 
-6.02178717

>  <minimizedRMSD>  (1) 
0.312161177

$$$$
