
     RDKit          3D

 26 27  0  0  0  0  0  0  0  0999 V2000
   37.4210   31.0980   47.0650 N   0  0  0  0  0  0  0  0  0  0  0  0
   36.8050   30.7510   45.9010 C   0  0  0  0  0  0  0  0  0  0  0  0
   37.2500   31.2200   44.6730 C   0  0  0  0  0  0  0  0  0  0  0  0
   38.3670   32.0700   44.6700 C   0  0  0  0  0  0  0  0  0  0  0  0
   38.8040   32.5160   43.5840 O   0  0  0  0  0  0  0  0  0  0  0  0
   38.9850   32.4170   45.8470 N   0  0  0  0  0  0  0  0  0  0  0  0
   38.4600   31.9010   46.9610 C   0  0  0  0  0  0  0  0  0  0  0  0
   39.0440   32.2380   48.0130 O   0  0  0  0  0  0  0  0  0  0  0  0
   37.3270   29.6040   50.4640 C   0  0  0  0  0  0  0  0  0  0  0  0
   37.8020   30.0650   49.2290 C   0  0  0  0  0  0  0  0  0  0  0  0
   36.9610   30.6220   48.3000 C   0  0  0  0  0  0  0  0  0  0  0  0
   35.6360   30.7130   48.6180 N   0  0  0  0  0  0  0  0  0  0  0  0
   35.1530   30.2680   49.8160 C   0  0  0  0  0  0  0  0  0  0  0  0
   36.0120   29.7170   50.7270 N   0  0  0  0  0  0  0  0  0  0  0  0
   40.1370   33.2930   45.8470 C   0  0  0  0  0  0  0  0  0  0  0  0
   40.0010   34.2430   44.8840 F   0  0  0  0  0  0  0  0  0  0  0  0
   41.3180   32.6200   45.5710 F   0  0  0  0  0  0  0  0  0  0  0  0
   40.2260   33.9250   47.0800 F   0  0  0  0  0  0  0  0  0  0  0  0
   36.5680   30.8290   43.4370 C   0  0  0  0  0  0  0  0  0  0  0  0
   35.9325   30.0820   45.9351 H   0  0  0  0  0  0  0  0  0  0  0  0
   38.0126   29.1603   51.2010 H   0  0  0  0  0  0  0  0  0  0  0  0
   38.8742   29.9781   48.9994 H   0  0  0  0  0  0  0  0  0  0  0  0
   34.0807   30.3522   50.0465 H   0  0  0  0  0  0  0  0  0  0  0  0
   35.6381   30.2959   43.6842 H   0  0  0  0  0  0  0  0  0  0  0  0
   36.3302   31.7279   42.8493 H   0  0  0  0  0  0  0  0  0  0  0  0
   37.2236   30.1696   42.8493 H   0  0  0  0  0  0  0  0  0  0  0  0
  1 11  1  0
  2  1  1  0
  3  2  2  0
  4  3  1  0
  4  6  1  0
  5  4  2  0
  6 15  1  0
  6  7  1  0
  7  1  1  0
  7  8  2  0
  9 14  2  0
 10  9  1  0
 11 12  1  0
 11 10  2  0
 12 13  2  0
 13 14  1  0
 15 18  1  0
 16 15  1  0
 17 15  1  0
 19  3  1  0
  2 20  1  0
  9 21  1  0
 10 22  1  0
 13 23  1  0
 19 24  1  0
 19 25  1  0
 19 26  1  0
M  ISO  7  20  14  21  14  22  14  23  14  24   8  25   8  26   8
M  END
>  <minimizedAffinity>  (1) 
-5.98550606

>  <minimizedRMSD>  (1) 
0.160707936

$$$$
