
     RDKit          3D

 24 25  0  0  0  0  0  0  0  0999 V2000
   37.4190   31.0970   47.0710 N   0  0  0  0  0  0  0  0  0  0  0  0
   36.8090   30.7460   45.9050 C   0  0  0  0  0  0  0  0  0  0  0  0
   37.2540   31.2100   44.6750 C   0  0  0  0  0  0  0  0  0  0  0  0
   38.3710   32.0650   44.6730 C   0  0  0  0  0  0  0  0  0  0  0  0
   38.8120   32.5100   43.5860 O   0  0  0  0  0  0  0  0  0  0  0  0
   38.9810   32.4150   45.8500 N   0  0  0  0  0  0  0  0  0  0  0  0
   38.4560   31.9020   46.9670 C   0  0  0  0  0  0  0  0  0  0  0  0
   39.0360   32.2420   48.0180 O   0  0  0  0  0  0  0  0  0  0  0  0
   37.3190   29.6010   50.4700 C   0  0  0  0  0  0  0  0  0  0  0  0
   37.8050   30.0630   49.2370 C   0  0  0  0  0  0  0  0  0  0  0  0
   36.9590   30.6220   48.3070 C   0  0  0  0  0  0  0  0  0  0  0  0
   35.6380   30.7110   48.6230 N   0  0  0  0  0  0  0  0  0  0  0  0
   35.1460   30.2690   49.8160 C   0  0  0  0  0  0  0  0  0  0  0  0
   36.0030   29.7160   50.7290 N   0  0  0  0  0  0  0  0  0  0  0  0
   40.1330   33.2910   45.8520 C   0  0  0  0  0  0  0  0  0  0  0  0
   39.9990   34.2380   44.8910 F   0  0  0  0  0  0  0  0  0  0  0  0
   41.3170   32.6230   45.5710 F   0  0  0  0  0  0  0  0  0  0  0  0
   40.2210   33.9240   47.0860 F   0  0  0  0  0  0  0  0  0  0  0  0
   36.6390   30.8600   43.4780 O   0  0  0  0  0  0  0  0  0  0  0  0
   35.9380   30.0750   45.9391 H   0  0  0  0  0  0  0  0  0  0  0  0
   37.9996   29.1541   51.2096 H   0  0  0  0  0  0  0  0  0  0  0  0
   38.8781   29.9769   49.0108 H   0  0  0  0  0  0  0  0  0  0  0  0
   34.0729   30.3559   50.0418 H   0  0  0  0  0  0  0  0  0  0  0  0
   36.9873   31.2125   42.6210 H   0  0  0  0  0  0  0  0  0  0  0  0
  1 11  1  0
  2  1  1  0
  3  2  2  0
  4  3  1  0
  4  6  1  0
  5  4  2  0
  6 15  1  0
  6  7  1  0
  7  1  1  0
  7  8  2  0
  9 14  2  0
 10  9  1  0
 11 12  1  0
 11 10  2  0
 12 13  2  0
 13 14  1  0
 15 18  1  0
 16 15  1  0
 17 15  1  0
 19  3  1  0
  2 20  1  0
  9 21  1  0
 10 22  1  0
 13 23  1  0
 19 24  1  0
M  ISO  5  20  14  21  14  22  14  23  14  24   3
M  END
>  <minimizedAffinity>  (1) 
-5.94323206

>  <minimizedRMSD>  (1) 
0.160082772

$$$$
