
     RDKit          3D

 25 26  0  0  0  0  0  0  0  0999 V2000
   37.4080   31.0830   47.1000 N   0  0  0  0  0  0  0  0  0  0  0  0
   36.7960   30.7360   45.9340 C   0  0  0  0  0  0  0  0  0  0  0  0
   37.2480   31.2090   44.7080 C   0  0  0  0  0  0  0  0  0  0  0  0
   38.3660   32.0660   44.7100 C   0  0  0  0  0  0  0  0  0  0  0  0
   38.8030   32.5140   43.6250 O   0  0  0  0  0  0  0  0  0  0  0  0
   38.9710   32.4070   45.8970 N   0  0  0  0  0  0  0  0  0  0  0  0
   38.4440   31.8880   47.0050 C   0  0  0  0  0  0  0  0  0  0  0  0
   39.0260   32.2260   48.0550 O   0  0  0  0  0  0  0  0  0  0  0  0
   37.3250   29.5800   50.4960 C   0  0  0  0  0  0  0  0  0  0  0  0
   37.7960   30.0450   49.2620 C   0  0  0  0  0  0  0  0  0  0  0  0
   36.9450   30.5990   48.3410 C   0  0  0  0  0  0  0  0  0  0  0  0
   35.6150   30.6910   48.6460 N   0  0  0  0  0  0  0  0  0  0  0  0
   35.1430   30.2380   49.8510 C   0  0  0  0  0  0  0  0  0  0  0  0
   36.0020   29.6890   50.7610 N   0  0  0  0  0  0  0  0  0  0  0  0
   40.1240   33.2850   45.8920 C   0  0  0  0  0  0  0  0  0  0  0  0
   39.9930   34.2400   44.9370 F   0  0  0  0  0  0  0  0  0  0  0  0
   41.3030   32.6120   45.6110 F   0  0  0  0  0  0  0  0  0  0  0  0
   40.2150   33.9090   47.1300 F   0  0  0  0  0  0  0  0  0  0  0  0
   36.6210   30.8600   43.4550 C   0  0  0  0  0  0  0  0  0  0  0  0
   35.5780   31.4890   43.1420 O   0  0  0  0  0  0  0  0  0  0  0  0
   35.9240   30.0661   45.9633 H   0  0  0  0  0  0  0  0  0  0  0  0
   38.0128   29.1373   51.2315 H   0  0  0  0  0  0  0  0  0  0  0  0
   38.8677   29.9643   49.0275 H   0  0  0  0  0  0  0  0  0  0  0  0
   34.0712   30.3166   50.0856 H   0  0  0  0  0  0  0  0  0  0  0  0
   37.0374   30.0782   42.8028 H   0  0  0  0  0  0  0  0  0  0  0  0
  1 11  1  0
  2  1  1  0
  3  4  1  0
  3  2  2  0
  4  6  1  0
  5  4  2  0
  6  7  1  0
  7  1  1  0
  7  8  2  0
  9 14  2  0
 10  9  1  0
 11 12  1  0
 11 10  2  0
 12 13  2  0
 13 14  1  0
 15  6  1  0
 15 18  1  0
 16 15  1  0
 17 15  1  0
 19  3  1  0
 20 19  2  0
  2 21  1  0
  9 22  1  0
 10 23  1  0
 13 24  1  0
 19 25  1  0
M  ISO  5  21  14  22  14  23  14  24  14  25   6
M  END
>  <minimizedAffinity>  (1) 
-5.79613352

>  <minimizedRMSD>  (1) 
0.306034744

$$$$
