
     RDKit          3D

 42 45  0  0  0  0  0  0  0  0999 V2000
   37.3630   31.2250   47.0220 N   0  0  0  0  0  0  0  0  0  0  0  0
   36.6870   31.0430   45.8600 C   0  0  0  0  0  0  0  0  0  0  0  0
   37.1190   31.5900   44.6540 C   0  0  0  0  0  0  0  0  0  0  0  0
   38.3020   32.3510   44.6850 C   0  0  0  0  0  0  0  0  0  0  0  0
   38.7330   32.8660   43.6260 O   0  0  0  0  0  0  0  0  0  0  0  0
   38.9800   32.5300   45.8630 N   0  0  0  0  0  0  0  0  0  0  0  0
   38.4570   31.9530   46.9390 C   0  0  0  0  0  0  0  0  0  0  0  0
   39.1100   32.1440   47.9930 O   0  0  0  0  0  0  0  0  0  0  0  0
   37.3280   29.4830   50.3050 C   0  0  0  0  0  0  0  0  0  0  0  0
   37.7860   30.0420   49.1010 C   0  0  0  0  0  0  0  0  0  0  0  0
   36.9130   30.6670   48.2180 C   0  0  0  0  0  0  0  0  0  0  0  0
   35.6160   30.7140   48.5650 N   0  0  0  0  0  0  0  0  0  0  0  0
   35.1380   30.1830   49.7240 C   0  0  0  0  0  0  0  0  0  0  0  0
   36.0110   29.5700   50.5840 N   0  0  0  0  0  0  0  0  0  0  0  0
   36.4360   31.4270   43.3870 C   0  0  0  0  0  0  0  0  0  0  0  0
   36.5830   30.3300   42.5850 C   0  0  0  0  0  0  0  0  0  0  0  0
   35.9500   30.1470   41.3770 C   0  0  0  0  0  0  0  0  0  0  0  0
   35.0870   31.1600   40.9310 C   0  0  0  0  0  0  0  0  0  0  0  0
   34.9640   32.2530   41.7690 C   0  0  0  0  0  0  0  0  0  0  0  0
   35.6150   32.3530   42.9270 N   0  0  0  0  0  0  0  0  0  0  0  0
   35.9520   34.5830   40.6550 F   0  0  0  0  0  0  0  0  0  0  0  0
   34.5910   34.5140   40.8230 C   0  0  0  0  0  0  0  0  0  0  0  0
   34.0860   33.3530   41.3800 C   0  0  0  0  0  0  0  0  0  0  0  0
   32.7140   33.3640   41.5140 C   0  0  0  0  0  0  0  0  0  0  0  0
   31.9320   34.4330   41.1280 C   0  0  0  0  0  0  0  0  0  0  0  0
   32.5050   35.5580   40.5810 C   0  0  0  0  0  0  0  0  0  0  0  0
   33.8740   35.6200   40.4160 C   0  0  0  0  0  0  0  0  0  0  0  0
   40.1900   33.3130   45.8790 C   0  0  0  0  0  0  0  0  0  0  0  0
   40.1560   34.2750   44.9330 F   0  0  0  0  0  0  0  0  0  0  0  0
   41.3360   32.5540   45.6350 F   0  0  0  0  0  0  0  0  0  0  0  0
   40.3040   33.9260   47.1220 F   0  0  0  0  0  0  0  0  0  0  0  0
   35.7655   30.4424   45.8705 H   0  0  0  0  0  0  0  0  0  0  0  0
   38.0226   28.9887   51.0001 H   0  0  0  0  0  0  0  0  0  0  0  0
   38.8559   29.9842   48.8518 H   0  0  0  0  0  0  0  0  0  0  0  0
   34.0668   30.2452   49.9664 H   0  0  0  0  0  0  0  0  0  0  0  0
   37.2581   29.5336   42.9313 H   0  0  0  0  0  0  0  0  0  0  0  0
   36.1148   29.2373   40.7809 H   0  0  0  0  0  0  0  0  0  0  0  0
   34.5439   31.0891   39.9771 H   0  0  0  0  0  0  0  0  0  0  0  0
   32.2210   32.4815   41.9478 H   0  0  0  0  0  0  0  0  0  0  0  0
   30.8408   34.3855   41.2587 H   0  0  0  0  0  0  0  0  0  0  0  0
   31.8738   36.4057   40.2760 H   0  0  0  0  0  0  0  0  0  0  0  0
   34.3665   36.5034   39.9835 H   0  0  0  0  0  0  0  0  0  0  0  0
  1 11  1  0
  2  1  1  0
  3  4  1  0
  3  2  2  0
  4  6  1  0
  5  4  2  0
  6 28  1  0
  6  7  1  0
  7  1  1  0
  7  8  2  0
  9 14  2  0
 10  9  1  0
 11 12  1  0
 11 10  2  0
 12 13  2  0
 13 14  1  0
 15  3  1  0
 16 15  2  0
 17 16  1  0
 18 17  2  0
 18 19  1  0
 19 20  2  0
 20 15  1  0
 21 22  1  0
 22 23  2  0
 23 24  1  0
 23 19  1  0
 25 24  2  0
 26 25  1  0
 27 26  2  0
 27 22  1  0
 28 31  1  0
 29 28  1  0
 30 28  1  0
  2 32  1  0
  9 33  1  0
 10 34  1  0
 13 35  1  0
 16 36  1  0
 17 37  1  0
 18 38  1  0
 24 39  1  0
 25 40  1  0
 26 41  1  0
 27 42  1  0
M  ISO  8  32  14  33  14  34  14  35  14  36  14  37  14  38  14  39  14
M  ISO  3  40  14  41  14  42  14
M  END
>  <minimizedAffinity>  (1) 
-6.6001749

>  <minimizedRMSD>  (1) 
1.06375694

$$$$
