
     RDKit          3D

 42 45  0  0  0  0  0  0  0  0999 V2000
   37.3880   31.1880   47.0840 N   0  0  0  0  0  0  0  0  0  0  0  0
   36.7150   30.9470   45.9250 C   0  0  0  0  0  0  0  0  0  0  0  0
   37.1420   31.4690   44.7100 C   0  0  0  0  0  0  0  0  0  0  0  0
   38.2930   32.2520   44.7230 C   0  0  0  0  0  0  0  0  0  0  0  0
   38.7170   32.7450   43.6450 O   0  0  0  0  0  0  0  0  0  0  0  0
   38.9710   32.4940   45.8910 N   0  0  0  0  0  0  0  0  0  0  0  0
   38.4620   31.9390   46.9840 C   0  0  0  0  0  0  0  0  0  0  0  0
   39.1030   32.1770   48.0340 O   0  0  0  0  0  0  0  0  0  0  0  0
   37.3900   29.5240   50.4130 C   0  0  0  0  0  0  0  0  0  0  0  0
   37.8180   30.0610   49.1920 C   0  0  0  0  0  0  0  0  0  0  0  0
   36.9460   30.6550   48.2990 C   0  0  0  0  0  0  0  0  0  0  0  0
   35.6570   30.6950   48.6600 N   0  0  0  0  0  0  0  0  0  0  0  0
   35.1960   30.1880   49.8330 C   0  0  0  0  0  0  0  0  0  0  0  0
   36.0810   29.6030   50.7020 N   0  0  0  0  0  0  0  0  0  0  0  0
   36.4580   31.2420   43.4440 C   0  0  0  0  0  0  0  0  0  0  0  0
   36.7120   30.1700   42.6390 C   0  0  0  0  0  0  0  0  0  0  0  0
   36.0750   29.9350   41.4330 C   0  0  0  0  0  0  0  0  0  0  0  0
   35.1110   30.8510   41.0120 C   0  0  0  0  0  0  0  0  0  0  0  0
   34.8870   31.9200   41.8580 C   0  0  0  0  0  0  0  0  0  0  0  0
   35.5290   32.0980   43.0080 N   0  0  0  0  0  0  0  0  0  0  0  0
   33.8980   32.9330   41.5080 C   0  0  0  0  0  0  0  0  0  0  0  0
   33.3160   33.7120   42.4960 C   0  0  0  0  0  0  0  0  0  0  0  0
   32.3650   34.7050   42.2800 C   0  0  0  0  0  0  0  0  0  0  0  0
   31.9710   34.9370   41.0000 C   0  0  0  0  0  0  0  0  0  0  0  0
   32.5140   34.1990   39.9880 C   0  0  0  0  0  0  0  0  0  0  0  0
   33.4500   33.2260   40.2360 C   0  0  0  0  0  0  0  0  0  0  0  0
   40.1570   33.3040   45.8840 C   0  0  0  0  0  0  0  0  0  0  0  0
   40.0920   34.2510   44.9320 F   0  0  0  0  0  0  0  0  0  0  0  0
   41.3180   32.5750   45.6200 F   0  0  0  0  0  0  0  0  0  0  0  0
   40.2810   33.9210   47.1260 F   0  0  0  0  0  0  0  0  0  0  0  0
   35.8097   30.3228   45.9512 H   0  0  0  0  0  0  0  0  0  0  0  0
   38.1003   29.0547   51.1096 H   0  0  0  0  0  0  0  0  0  0  0  0
   38.8862   30.0081   48.9347 H   0  0  0  0  0  0  0  0  0  0  0  0
   34.1263   30.2460   50.0826 H   0  0  0  0  0  0  0  0  0  0  0  0
   37.4716   29.4463   42.9697 H   0  0  0  0  0  0  0  0  0  0  0  0
   36.3216   29.0523   40.8247 H   0  0  0  0  0  0  0  0  0  0  0  0
   34.5634   30.7298   40.0657 H   0  0  0  0  0  0  0  0  0  0  0  0
   33.6311   33.5308   43.5342 H   0  0  0  0  0  0  0  0  0  0  0  0
   31.9462   35.2827   43.1172 H   0  0  0  0  0  0  0  0  0  0  0  0
   31.2217   35.7121   40.7816 H   0  0  0  0  0  0  0  0  0  0  0  0
   32.1949   34.3879   38.9524 H   0  0  0  0  0  0  0  0  0  0  0  0
   33.8590   32.6576   39.3877 H   0  0  0  0  0  0  0  0  0  0  0  0
  1 11  1  0
  2  1  1  0
  3  4  1  0
  3  2  2  0
  4  6  1  0
  5  4  2  0
  6  7  1  0
  7  1  1  0
  7  8  2  0
  9 14  2  0
 10  9  1  0
 11 12  1  0
 11 10  2  0
 12 13  2  0
 13 14  1  0
 15  3  1  0
 16 15  2  0
 17 16  1  0
 18 17  2  0
 18 19  1  0
 19 20  2  0
 20 15  1  0
 21 19  1  0
 21 22  2  0
 23 22  1  0
 24 23  2  0
 25 26  2  0
 25 24  1  0
 26 21  1  0
 27  6  1  0
 27 30  1  0
 28 27  1  0
 29 27  1  0
  2 31  1  0
  9 32  1  0
 10 33  1  0
 13 34  1  0
 16 35  1  0
 17 36  1  0
 18 37  1  0
 22 38  1  0
 23 39  1  0
 24 40  1  0
 25 41  1  0
 26 42  1  0
M  ISO  8  31  14  32  14  33  14  34  14  35  14  36  14  37  14  38  14
M  ISO  4  39  14  40  14  41  14  42  14
M  END
>  <minimizedAffinity>  (1) 
-6.54987669

>  <minimizedRMSD>  (1) 
0.474091262

$$$$
