
     RDKit          3D

 33 35  0  0  0  0  0  0  0  0999 V2000
   37.3760   31.0730   47.1360 N   0  0  0  0  0  0  0  0  0  0  0  0
   36.7700   30.7450   45.9620 C   0  0  0  0  0  0  0  0  0  0  0  0
   37.2290   31.2240   44.7530 C   0  0  0  0  0  0  0  0  0  0  0  0
   38.3460   32.0640   44.7700 C   0  0  0  0  0  0  0  0  0  0  0  0
   38.7980   32.5240   43.6860 O   0  0  0  0  0  0  0  0  0  0  0  0
   38.9520   32.3890   45.9590 N   0  0  0  0  0  0  0  0  0  0  0  0
   38.4210   31.8690   47.0500 C   0  0  0  0  0  0  0  0  0  0  0  0
   39.0010   32.1900   48.1120 O   0  0  0  0  0  0  0  0  0  0  0  0
   37.2590   29.4790   50.4980 C   0  0  0  0  0  0  0  0  0  0  0  0
   37.7470   29.9700   49.2670 C   0  0  0  0  0  0  0  0  0  0  0  0
   36.9000   30.5790   48.3640 C   0  0  0  0  0  0  0  0  0  0  0  0
   35.5880   30.6910   48.6930 N   0  0  0  0  0  0  0  0  0  0  0  0
   35.1070   30.2170   49.8860 C   0  0  0  0  0  0  0  0  0  0  0  0
   35.9600   29.6180   50.7660 N   0  0  0  0  0  0  0  0  0  0  0  0
   36.6240   30.9080   43.4750 C   0  0  0  0  0  0  0  0  0  0  0  0
   36.9470   29.8020   42.7260 C   0  0  0  0  0  0  0  0  0  0  0  0
   36.4030   29.4620   41.5130 C   0  0  0  0  0  0  0  0  0  0  0  0
   35.4310   30.3020   40.9760 C   0  0  0  0  0  0  0  0  0  0  0  0
   35.1130   31.4250   41.7530 C   0  0  0  0  0  0  0  0  0  0  0  0
   35.6890   31.6850   42.9240 N   0  0  0  0  0  0  0  0  0  0  0  0
   34.1380   32.2380   41.1810 O   0  0  0  0  0  0  0  0  0  0  0  0
   40.1010   33.2550   45.9630 C   0  0  0  0  0  0  0  0  0  0  0  0
   39.9680   34.2380   45.0290 F   0  0  0  0  0  0  0  0  0  0  0  0
   41.2900   32.6000   45.6890 F   0  0  0  0  0  0  0  0  0  0  0  0
   40.1830   33.8720   47.2050 F   0  0  0  0  0  0  0  0  0  0  0  0
   35.8927   30.0816   45.9781 H   0  0  0  0  0  0  0  0  0  0  0  0
   37.9340   28.9937   51.2183 H   0  0  0  0  0  0  0  0  0  0  0  0
   38.8150   29.8657   49.0253 H   0  0  0  0  0  0  0  0  0  0  0  0
   34.0398   30.3191   50.1321 H   0  0  0  0  0  0  0  0  0  0  0  0
   37.7123   29.1270   43.1368 H   0  0  0  0  0  0  0  0  0  0  0  0
   36.7247   28.5543   40.9815 H   0  0  0  0  0  0  0  0  0  0  0  0
   34.9464   30.0988   40.0096 H   0  0  0  0  0  0  0  0  0  0  0  0
   33.8404   33.0581   41.6489 H   0  0  0  0  0  0  0  0  0  0  0  0
  1 11  1  0
  2  1  1  0
  3  4  1  0
  3  2  2  0
  4  6  1  0
  5  4  2  0
  6 22  1  0
  6  7  1  0
  7  1  1  0
  7  8  2  0
  9 14  2  0
 10  9  1  0
 11 12  1  0
 11 10  2  0
 12 13  2  0
 13 14  1  0
 15  3  1  0
 16 15  2  0
 17 16  1  0
 18 17  2  0
 18 19  1  0
 19 20  2  0
 20 15  1  0
 21 19  1  0
 22 25  1  0
 23 22  1  0
 24 22  1  0
  2 26  1  0
  9 27  1  0
 10 28  1  0
 13 29  1  0
 16 30  1  0
 17 31  1  0
 18 32  1  0
 21 33  1  0
M  ISO  8  26  14  27  14  28  14  29  14  30  14  31  14  32  14  33   3
M  END
>  <minimizedAffinity>  (1) 
-6.1545577

>  <minimizedRMSD>  (1) 
0.0410920344

$$$$
