
     RDKit          3D

 35 37  0  0  0  0  0  0  0  0999 V2000
   37.3660   31.0600   47.1400 N   0  0  0  0  0  0  0  0  0  0  0  0
   36.7740   30.7260   45.9650 C   0  0  0  0  0  0  0  0  0  0  0  0
   37.2430   31.2040   44.7550 C   0  0  0  0  0  0  0  0  0  0  0  0
   38.3500   32.0480   44.7650 C   0  0  0  0  0  0  0  0  0  0  0  0
   38.8100   32.5050   43.6960 O   0  0  0  0  0  0  0  0  0  0  0  0
   38.9480   32.3860   45.9550 N   0  0  0  0  0  0  0  0  0  0  0  0
   38.4070   31.8640   47.0520 C   0  0  0  0  0  0  0  0  0  0  0  0
   38.9830   32.1970   48.1160 O   0  0  0  0  0  0  0  0  0  0  0  0
   37.2450   29.4680   50.5040 C   0  0  0  0  0  0  0  0  0  0  0  0
   37.7270   29.9580   49.2670 C   0  0  0  0  0  0  0  0  0  0  0  0
   36.8930   30.5780   48.3560 C   0  0  0  0  0  0  0  0  0  0  0  0
   35.6060   30.6890   48.7100 N   0  0  0  0  0  0  0  0  0  0  0  0
   35.0910   30.2360   49.8850 C   0  0  0  0  0  0  0  0  0  0  0  0
   35.9460   29.6250   50.7660 N   0  0  0  0  0  0  0  0  0  0  0  0
   36.6470   30.8780   43.4730 C   0  0  0  0  0  0  0  0  0  0  0  0
   36.9950   29.7700   42.7300 C   0  0  0  0  0  0  0  0  0  0  0  0
   36.4570   29.4200   41.5100 C   0  0  0  0  0  0  0  0  0  0  0  0
   35.4710   30.2610   40.9720 C   0  0  0  0  0  0  0  0  0  0  0  0
   35.1470   31.3630   41.7440 C   0  0  0  0  0  0  0  0  0  0  0  0
   35.7100   31.6410   42.9200 N   0  0  0  0  0  0  0  0  0  0  0  0
   34.0960   32.2860   41.2020 C   0  0  0  0  0  0  0  0  0  0  0  0
   40.0940   33.2590   45.9650 C   0  0  0  0  0  0  0  0  0  0  0  0
   39.9670   34.2280   45.0300 F   0  0  0  0  0  0  0  0  0  0  0  0
   41.2890   32.6060   45.6830 F   0  0  0  0  0  0  0  0  0  0  0  0
   40.1700   33.8760   47.2170 F   0  0  0  0  0  0  0  0  0  0  0  0
   35.8996   30.0587   45.9755 H   0  0  0  0  0  0  0  0  0  0  0  0
   37.9164   28.9758   51.2231 H   0  0  0  0  0  0  0  0  0  0  0  0
   38.7936   29.8423   49.0242 H   0  0  0  0  0  0  0  0  0  0  0  0
   34.0233   30.3560   50.1207 H   0  0  0  0  0  0  0  0  0  0  0  0
   37.7686   29.1082   43.1466 H   0  0  0  0  0  0  0  0  0  0  0  0
   36.7881   28.5157   40.9784 H   0  0  0  0  0  0  0  0  0  0  0  0
   34.9891   30.0585   40.0041 H   0  0  0  0  0  0  0  0  0  0  0  0
   33.5576   32.7589   42.0366 H   0  0  0  0  0  0  0  0  0  0  0  0
   34.5725   33.0628   40.5860 H   0  0  0  0  0  0  0  0  0  0  0  0
   33.3872   31.7131   40.5860 H   0  0  0  0  0  0  0  0  0  0  0  0
  1 11  1  0
  2  1  1  0
  3  4  1  0
  3  2  2  0
  4  6  1  0
  5  4  2  0
  6 22  1  0
  6  7  1  0
  7  1  1  0
  7  8  2  0
  9 14  2  0
 10  9  1  0
 11 12  1  0
 11 10  2  0
 12 13  2  0
 13 14  1  0
 15  3  1  0
 16 15  2  0
 17 16  1  0
 18 17  2  0
 18 19  1  0
 19 20  2  0
 20 15  1  0
 21 19  1  0
 22 25  1  0
 23 22  1  0
 24 22  1  0
  2 26  1  0
  9 27  1  0
 10 28  1  0
 13 29  1  0
 16 30  1  0
 17 31  1  0
 18 32  1  0
 21 33  1  0
 21 34  1  0
 21 35  1  0
M  ISO  8  26  14  27  14  28  14  29  14  30  14  31  14  32  14  33   8
M  ISO  2  34   8  35   8
M  END
>  <minimizedAffinity>  (1) 
-6.15290594

>  <minimizedRMSD>  (1) 
0.00804640539

$$$$
