
     RDKit          3D

 34 36  0  0  0  0  0  0  0  0999 V2000
   37.3660   31.0640   47.1430 N   0  0  0  0  0  0  0  0  0  0  0  0
   36.7700   30.7280   45.9740 C   0  0  0  0  0  0  0  0  0  0  0  0
   37.2390   31.2090   44.7510 C   0  0  0  0  0  0  0  0  0  0  0  0
   38.3510   32.0550   44.7700 C   0  0  0  0  0  0  0  0  0  0  0  0
   38.8030   32.5070   43.6940 O   0  0  0  0  0  0  0  0  0  0  0  0
   38.9540   32.3920   45.9590 N   0  0  0  0  0  0  0  0  0  0  0  0
   38.4120   31.8680   47.0570 C   0  0  0  0  0  0  0  0  0  0  0  0
   38.9870   32.1980   48.1220 O   0  0  0  0  0  0  0  0  0  0  0  0
   36.6430   30.8840   43.4760 C   0  0  0  0  0  0  0  0  0  0  0  0
   36.9750   29.7830   42.7360 C   0  0  0  0  0  0  0  0  0  0  0  0
   36.4350   29.4340   41.5210 C   0  0  0  0  0  0  0  0  0  0  0  0
   35.4590   30.2630   40.9730 C   0  0  0  0  0  0  0  0  0  0  0  0
   35.1380   31.3770   41.7440 C   0  0  0  0  0  0  0  0  0  0  0  0
   35.7020   31.6570   42.9190 N   0  0  0  0  0  0  0  0  0  0  0  0
   34.1390   32.2540   41.2180 N   0  0  0  0  0  0  0  0  0  0  0  0
   37.2420   29.4750   50.4980 C   0  0  0  0  0  0  0  0  0  0  0  0
   37.7400   29.9600   49.2700 C   0  0  0  0  0  0  0  0  0  0  0  0
   36.8930   30.5800   48.3580 C   0  0  0  0  0  0  0  0  0  0  0  0
   35.6000   30.6890   48.7050 N   0  0  0  0  0  0  0  0  0  0  0  0
   35.0950   30.2300   49.8830 C   0  0  0  0  0  0  0  0  0  0  0  0
   35.9440   29.6210   50.7700 N   0  0  0  0  0  0  0  0  0  0  0  0
   40.0930   33.2580   45.9700 C   0  0  0  0  0  0  0  0  0  0  0  0
   39.9710   34.2310   45.0310 F   0  0  0  0  0  0  0  0  0  0  0  0
   41.2830   32.6030   45.6840 F   0  0  0  0  0  0  0  0  0  0  0  0
   40.1760   33.8780   47.2140 F   0  0  0  0  0  0  0  0  0  0  0  0
   35.8959   30.0604   45.9891 H   0  0  0  0  0  0  0  0  0  0  0  0
   37.7446   29.1155   43.1510 H   0  0  0  0  0  0  0  0  0  0  0  0
   36.7645   28.5252   40.9961 H   0  0  0  0  0  0  0  0  0  0  0  0
   34.9789   30.0537   40.0057 H   0  0  0  0  0  0  0  0  0  0  0  0
   33.8616   33.0940   41.7456 H   0  0  0  0  0  0  0  0  0  0  0  0
   33.6967   32.0459   40.3114 H   0  0  0  0  0  0  0  0  0  0  0  0
   37.9127   28.9848   51.2190 H   0  0  0  0  0  0  0  0  0  0  0  0
   38.8079   29.8466   49.0320 H   0  0  0  0  0  0  0  0  0  0  0  0
   34.0267   30.3456   50.1183 H   0  0  0  0  0  0  0  0  0  0  0  0
  1 18  1  0
  2  1  1  0
  3  4  1  0
  3  2  2  0
  4  6  1  0
  5  4  2  0
  6 22  1  0
  6  7  1  0
  7  1  1  0
  7  8  2  0
  9  3  1  0
 10  9  2  0
 11 10  1  0
 12 11  2  0
 12 13  1  0
 13 14  2  0
 14  9  1  0
 15 13  1  0
 16 21  2  0
 17 16  1  0
 18 19  1  0
 18 17  2  0
 19 20  2  0
 20 21  1  0
 22 25  1  0
 23 22  1  0
 24 22  1  0
  2 26  1  0
 10 27  1  0
 11 28  1  0
 12 29  1  0
 15 30  1  0
 15 31  1  0
 16 32  1  0
 17 33  1  0
 20 34  1  0
M  ISO  7  26  14  27  14  28  14  29  14  32  14  33  14  34  14
M  END
>  <minimizedAffinity>  (1) 
-6.15051126

>  <minimizedRMSD>  (1) 
0.0184464417

$$$$
