
     RDKit          3D

 38 40  0  0  0  0  0  0  0  0999 V2000
   37.3650   31.0620   47.1450 N   0  0  0  0  0  0  0  0  0  0  0  0
   36.7740   30.7360   45.9660 C   0  0  0  0  0  0  0  0  0  0  0  0
   37.2350   31.2140   44.7470 C   0  0  0  0  0  0  0  0  0  0  0  0
   38.3470   32.0550   44.7790 C   0  0  0  0  0  0  0  0  0  0  0  0
   38.8050   32.5160   43.6940 O   0  0  0  0  0  0  0  0  0  0  0  0
   38.9480   32.3880   45.9610 N   0  0  0  0  0  0  0  0  0  0  0  0
   38.4160   31.8690   47.0560 C   0  0  0  0  0  0  0  0  0  0  0  0
   38.9870   32.1930   48.1240 O   0  0  0  0  0  0  0  0  0  0  0  0
   37.2550   29.4760   50.4980 C   0  0  0  0  0  0  0  0  0  0  0  0
   37.7390   29.9610   49.2750 C   0  0  0  0  0  0  0  0  0  0  0  0
   36.8930   30.5760   48.3660 C   0  0  0  0  0  0  0  0  0  0  0  0
   35.5920   30.6870   48.7050 N   0  0  0  0  0  0  0  0  0  0  0  0
   35.0930   30.2240   49.8860 C   0  0  0  0  0  0  0  0  0  0  0  0
   35.9570   29.6160   50.7740 N   0  0  0  0  0  0  0  0  0  0  0  0
   36.6380   30.8930   43.4740 C   0  0  0  0  0  0  0  0  0  0  0  0
   36.9830   29.7900   42.7300 C   0  0  0  0  0  0  0  0  0  0  0  0
   36.4320   29.4540   41.5130 C   0  0  0  0  0  0  0  0  0  0  0  0
   35.4520   30.2780   40.9770 C   0  0  0  0  0  0  0  0  0  0  0  0
   35.1220   31.3930   41.7590 C   0  0  0  0  0  0  0  0  0  0  0  0
   35.6930   31.6630   42.9310 N   0  0  0  0  0  0  0  0  0  0  0  0
   34.0670   32.2630   41.1610 C   0  0  0  0  0  0  0  0  0  0  0  0
   33.6230   33.3600   42.0650 C   0  0  0  0  0  0  0  0  0  0  0  0
   40.0970   33.2610   45.9640 C   0  0  0  0  0  0  0  0  0  0  0  0
   39.9700   34.2340   45.0290 F   0  0  0  0  0  0  0  0  0  0  0  0
   41.2890   32.6050   45.6960 F   0  0  0  0  0  0  0  0  0  0  0  0
   40.1790   33.8740   47.2260 F   0  0  0  0  0  0  0  0  0  0  0  0
   35.8990   30.0695   45.9777 H   0  0  0  0  0  0  0  0  0  0  0  0
   37.9318   28.9897   51.2159 H   0  0  0  0  0  0  0  0  0  0  0  0
   38.8065   29.8517   49.0333 H   0  0  0  0  0  0  0  0  0  0  0  0
   34.0250   30.3326   50.1260 H   0  0  0  0  0  0  0  0  0  0  0  0
   37.7584   29.1247   43.1376 H   0  0  0  0  0  0  0  0  0  0  0  0
   36.7617   28.5517   40.9772 H   0  0  0  0  0  0  0  0  0  0  0  0
   34.9701   30.0711   40.0101 H   0  0  0  0  0  0  0  0  0  0  0  0
   34.4657   32.7109   40.2388 H   0  0  0  0  0  0  0  0  0  0  0  0
   33.1911   31.6260   40.9687 H   0  0  0  0  0  0  0  0  0  0  0  0
   33.7499   33.0465   43.1117 H   0  0  0  0  0  0  0  0  0  0  0  0
   34.2281   34.2588   41.8755 H   0  0  0  0  0  0  0  0  0  0  0  0
   32.5630   33.5849   41.8755 H   0  0  0  0  0  0  0  0  0  0  0  0
  1 11  1  0
  2  1  1  0
  3  4  1  0
  3  2  2  0
  4  6  1  0
  5  4  2  0
  6 23  1  0
  6  7  1  0
  7  1  1  0
  7  8  2  0
  9 14  2  0
 10  9  1  0
 11 12  1  0
 11 10  2  0
 12 13  2  0
 13 14  1  0
 15  3  1  0
 16 15  2  0
 17 16  1  0
 18 17  2  0
 18 19  1  0
 19 20  2  0
 20 15  1  0
 21 19  1  0
 21 22  1  0
 23 26  1  0
 24 23  1  0
 25 23  1  0
  2 27  1  0
  9 28  1  0
 10 29  1  0
 13 30  1  0
 16 31  1  0
 17 32  1  0
 18 33  1  0
 21 34  1  0
 21 35  1  0
 22 36  1  0
 22 37  1  0
 22 38  1  0
M  ISO  8  27  14  28  14  29  14  30  14  31  14  32  14  33  14  34   8
M  ISO  4  35   8  36   8  37   8  38   8
M  END
>  <minimizedAffinity>  (1) 
-5.98738813

>  <minimizedRMSD>  (1) 
0.0931940153

$$$$
