
     RDKit          3D

 40 43  0  0  1  0  0  0  0  0999 V2000
   37.4900   30.4140   49.5430 C   0  0  0  0  0  0  0  0  0  0  0  0
   37.6250   31.6690   50.1390 C   0  0  0  0  0  0  0  0  0  0  0  0
   38.0670   32.7410   49.3510 C   0  0  0  0  0  0  0  0  0  0  0  0
   38.3420   32.4830   48.0340 N   0  0  0  0  0  0  0  0  0  0  0  0
   38.1970   31.2550   47.5030 C   0  0  0  0  0  0  0  0  0  0  0  0
   37.7780   30.2330   48.2450 N   0  0  0  0  0  0  0  0  0  0  0  0
   38.5140   31.1110   46.1250 N   0  0  0  0  0  0  0  0  0  0  0  0
   39.8750   30.7590   45.7330 C   0  0  0  0  0  0  0  0  0  0  0  0
   40.3400   31.5680   44.5460 C   0  0  0  0  0  0  0  0  0  0  0  0
   39.3540   31.6340   43.5030 N   0  0  0  0  0  0  0  0  0  0  0  0
   38.1580   30.8820   43.7640 C   0  0  0  0  0  0  0  0  0  0  0  0
   37.5210   31.3040   45.0830 C   0  0  1  0  0  0  0  0  0  0  0  0
   35.9910   29.5110   44.2770 C   0  0  0  0  0  0  0  0  0  0  0  0
   36.3240   30.4380   45.2540 C   0  0  0  0  0  0  0  0  0  0  0  0
   35.5460   30.5550   46.3860 C   0  0  0  0  0  0  0  0  0  0  0  0
   34.4330   29.7550   46.5520 C   0  0  0  0  0  0  0  0  0  0  0  0
   33.4610   29.5720   47.4700 N   0  0  0  0  0  0  0  0  0  0  0  0
   32.6150   28.6280   47.0950 N   0  0  0  0  0  0  0  0  0  0  0  0
   32.9670   28.1150   45.8960 C   0  0  0  0  0  0  0  0  0  0  0  0
   34.1040   28.8300   45.5730 C   0  0  0  0  0  0  0  0  0  0  0  0
   34.8820   28.7000   44.4250 C   0  0  0  0  0  0  0  0  0  0  0  0
   37.0200   29.2710   50.3780 C   0  0  0  0  0  0  0  0  0  0  0  0
   36.0420   28.5570   49.6840 F   0  0  0  0  0  0  0  0  0  0  0  0
   38.0910   28.5370   50.7410 F   0  0  0  0  0  0  0  0  0  0  0  0
   36.3590   29.8330   51.4830 F   0  0  0  0  0  0  0  0  0  0  0  0
   37.3897   31.8137   51.2038 H   0  0  0  0  0  0  0  0  0  0  0  0
   38.1882   33.7494   49.7735 H   0  0  0  0  0  0  0  0  0  0  0  0
   40.5505   30.9483   46.5803 H   0  0  0  0  0  0  0  0  0  0  0  0
   39.8868   29.6961   45.4500 H   0  0  0  0  0  0  0  0  0  0  0  0
   40.5656   32.5905   44.8830 H   0  0  0  0  0  0  0  0  0  0  0  0
   41.2304   31.0719   44.1324 H   0  0  0  0  0  0  0  0  0  0  0  0
   39.7780   31.2732   42.6364 H   0  0  0  0  0  0  0  0  0  0  0  0
   37.4408   31.0531   42.9477 H   0  0  0  0  0  0  0  0  0  0  0  0
   38.4227   29.8163   43.8292 H   0  0  0  0  0  0  0  0  0  0  0  0
   37.2058   32.3573   45.1178 H   0  0  0  0  0  0  0  0  0  0  0  0
   36.6156   29.4207   43.3761 H   0  0  0  0  0  0  0  0  0  0  0  0
   35.8131   31.2890   47.1605 H   0  0  0  0  0  0  0  0  0  0  0  0
   33.3876   30.1007   48.3509 H   0  0  0  0  0  0  0  0  0  0  0  0
   32.4699   27.3219   45.3182 H   0  0  0  0  0  0  0  0  0  0  0  0
   34.6184   27.9650   43.6502 H   0  0  0  0  0  0  0  0  0  0  0  0
  1  2  2  0
  1 22  1  0
  3  2  1  0
  4  3  2  0
  5  4  1  0
  5  6  2  0
  6  1  1  0
  7  5  1  0
  8  7  1  0
  9  8  1  0
 10 11  1  0
 10  9  1  0
 11 12  1  0
 12 14  1  0
 12  7  1  0
 13 21  2  0
 13 14  1  0
 14 15  2  0
 15 16  1  0
 16 17  1  0
 18 17  1  0
 19 18  2  0
 20 19  1  0
 20 16  2  0
 21 20  1  0
 22 24  1  0
 22 25  1  0
 23 22  1  0
  2 26  1  0
  3 27  1  0
  8 28  1  0
  8 29  1  0
  9 30  1  0
  9 31  1  0
 10 32  1  0
 11 33  1  0
 11 34  1  0
 12 35  1  6
 13 36  1  0
 15 37  1  0
 17 38  1  0
 19 39  1  0
 21 40  1  0
M  ISO  8  26  14  27  14  28  13  29  13  30  13  31  13  32   5  33  13
M  ISO  7  34  13  35  13  36  14  37  14  38   9  39  14  40  14
M  END
>  <minimizedAffinity>  (1) 
-6.73997736

>  <minimizedRMSD>  (1) 
1.9093312

$$$$
