
     RDKit          3D

 37 39  0  0  1  0  0  0  0  0999 V2000
   37.3670   30.4880   49.5170 C   0  0  0  0  0  0  0  0  0  0  0  0
   37.3380   31.7330   50.1280 C   0  0  0  0  0  0  0  0  0  0  0  0
   37.7950   32.8390   49.3920 C   0  0  0  0  0  0  0  0  0  0  0  0
   38.2410   32.6160   48.1170 N   0  0  0  0  0  0  0  0  0  0  0  0
   38.2520   31.3930   47.5630 C   0  0  0  0  0  0  0  0  0  0  0  0
   37.8180   30.3640   48.2680 N   0  0  0  0  0  0  0  0  0  0  0  0
   38.7320   31.2770   46.2390 N   0  0  0  0  0  0  0  0  0  0  0  0
   40.1540   31.0160   46.0200 C   0  0  0  0  0  0  0  0  0  0  0  0
   40.6970   31.8960   44.9040 C   0  0  0  0  0  0  0  0  0  0  0  0
   39.8640   31.8550   43.7370 N   0  0  0  0  0  0  0  0  0  0  0  0
   38.6900   31.0730   43.8620 C   0  0  0  0  0  0  0  0  0  0  0  0
   37.8660   31.4110   45.0820 C   0  0  1  0  0  0  0  0  0  0  0  0
   36.8690   30.4880   42.4460 Cl  0  0  0  0  0  0  0  0  0  0  0  0
   36.0400   30.1390   43.9720 C   0  0  0  0  0  0  0  0  0  0  0  0
   36.6270   30.6450   45.1400 C   0  0  0  0  0  0  0  0  0  0  0  0
   35.9090   30.3200   46.2650 C   0  0  0  0  0  0  0  0  0  0  0  0
   34.7430   29.5840   46.2790 C   0  0  0  0  0  0  0  0  0  0  0  0
   34.2250   29.1180   45.0790 C   0  0  0  0  0  0  0  0  0  0  0  0
   32.7680   28.1860   44.9810 Cl  0  0  0  0  0  0  0  0  0  0  0  0
   34.8850   29.4010   43.9070 C   0  0  0  0  0  0  0  0  0  0  0  0
   36.8820   29.3010   50.2880 C   0  0  0  0  0  0  0  0  0  0  0  0
   36.2620   29.7340   51.4690 F   0  0  0  0  0  0  0  0  0  0  0  0
   36.0810   28.5690   49.4890 F   0  0  0  0  0  0  0  0  0  0  0  0
   38.0120   28.5860   50.6850 F   0  0  0  0  0  0  0  0  0  0  0  0
   36.9685   31.8507   51.1574 H   0  0  0  0  0  0  0  0  0  0  0  0
   37.7945   33.8500   49.8255 H   0  0  0  0  0  0  0  0  0  0  0  0
   40.7068   31.2268   46.9474 H   0  0  0  0  0  0  0  0  0  0  0  0
   40.2796   29.9619   45.7318 H   0  0  0  0  0  0  0  0  0  0  0  0
   40.7529   32.9337   45.2647 H   0  0  0  0  0  0  0  0  0  0  0  0
   41.6921   31.5186   44.6259 H   0  0  0  0  0  0  0  0  0  0  0  0
   40.4216   31.4711   42.9607 H   0  0  0  0  0  0  0  0  0  0  0  0
   38.0692   31.2321   42.9680 H   0  0  0  0  0  0  0  0  0  0  0  0
   39.0095   30.0258   43.9682 H   0  0  0  0  0  0  0  0  0  0  0  0
   37.5053   32.4495   45.0459 H   0  0  0  0  0  0  0  0  0  0  0  0
   36.2949   30.6752   47.2319 H   0  0  0  0  0  0  0  0  0  0  0  0
   34.2306   29.3692   47.2284 H   0  0  0  0  0  0  0  0  0  0  0  0
   34.4971   29.0448   42.9413 H   0  0  0  0  0  0  0  0  0  0  0  0
  1  2  2  0
  1 21  1  0
  3  2  1  0
  4  3  2  0
  5  4  1  0
  5  6  2  0
  6  1  1  0
  7  5  1  0
  8  7  1  0
  9  8  1  0
 10 11  1  0
 10  9  1  0
 11 12  1  0
 12 15  1  0
 12  7  1  0
 13 14  1  0
 14 15  2  0
 15 16  1  0
 16 17  2  0
 18 17  1  0
 19 18  1  0
 20 14  1  0
 20 18  2  0
 21 24  1  0
 21 22  1  0
 23 21  1  0
  2 25  1  0
  3 26  1  0
  8 27  1  0
  8 28  1  0
  9 29  1  0
  9 30  1  0
 10 31  1  0
 11 32  1  0
 11 33  1  0
 12 34  1  6
 16 35  1  0
 17 36  1  0
 20 37  1  0
M  ISO  8  25  14  26  14  27  13  28  13  29  13  30  13  31   5  32  13
M  ISO  5  33  13  34  13  35  14  36  14  37  14
M  END
>  <minimizedAffinity>  (1) 
-6.65651608

>  <minimizedRMSD>  (1) 
1.8281132

$$$$
