
     RDKit          3D

 40 43  0  0  1  0  0  0  0  0999 V2000
   37.3740   30.3740   49.4870 C   0  0  0  0  0  0  0  0  0  0  0  0
   37.5660   31.6100   50.1240 C   0  0  0  0  0  0  0  0  0  0  0  0
   38.0520   32.6740   49.3500 C   0  0  0  0  0  0  0  0  0  0  0  0
   38.3100   32.4410   48.0200 N   0  0  0  0  0  0  0  0  0  0  0  0
   38.1090   31.2390   47.4680 C   0  0  0  0  0  0  0  0  0  0  0  0
   37.6450   30.2080   48.1880 N   0  0  0  0  0  0  0  0  0  0  0  0
   38.4090   31.0980   46.0750 N   0  0  0  0  0  0  0  0  0  0  0  0
   39.7290   30.6980   45.6640 C   0  0  0  0  0  0  0  0  0  0  0  0
   40.2190   31.5380   44.4980 C   0  0  0  0  0  0  0  0  0  0  0  0
   39.2350   31.6450   43.4600 N   0  0  0  0  0  0  0  0  0  0  0  0
   37.9950   30.9980   43.7160 C   0  0  0  0  0  0  0  0  0  0  0  0
   37.3840   31.3570   45.0540 C   0  0  1  0  0  0  0  0  0  0  0  0
   35.9450   29.4580   44.3110 C   0  0  0  0  0  0  0  0  0  0  0  0
   36.2360   30.4280   45.2480 C   0  0  0  0  0  0  0  0  0  0  0  0
   35.4330   30.5230   46.3810 C   0  0  0  0  0  0  0  0  0  0  0  0
   34.3790   29.6430   46.5220 C   0  0  0  0  0  0  0  0  0  0  0  0
   33.4380   29.4950   47.5020 N   0  0  0  0  0  0  0  0  0  0  0  0
   32.6020   28.4740   47.1820 C   0  0  0  0  0  0  0  0  0  0  0  0
   33.0070   27.9640   45.9900 N   0  0  0  0  0  0  0  0  0  0  0  0
   34.0980   28.6670   45.5650 C   0  0  0  0  0  0  0  0  0  0  0  0
   34.8960   28.5700   44.4350 C   0  0  0  0  0  0  0  0  0  0  0  0
   36.8540   29.2330   50.3100 C   0  0  0  0  0  0  0  0  0  0  0  0
   36.2650   29.7400   51.4770 F   0  0  0  0  0  0  0  0  0  0  0  0
   36.0110   28.5080   49.5300 F   0  0  0  0  0  0  0  0  0  0  0  0
   37.9570   28.4920   50.7190 F   0  0  0  0  0  0  0  0  0  0  0  0
   37.3430   31.7397   51.1933 H   0  0  0  0  0  0  0  0  0  0  0  0
   38.2217   33.6659   49.7943 H   0  0  0  0  0  0  0  0  0  0  0  0
   40.4209   30.8206   46.5103 H   0  0  0  0  0  0  0  0  0  0  0  0
   39.6905   29.6463   45.3438 H   0  0  0  0  0  0  0  0  0  0  0  0
   40.4598   32.5470   44.8640 H   0  0  0  0  0  0  0  0  0  0  0  0
   41.1065   31.0452   44.0744 H   0  0  0  0  0  0  0  0  0  0  0  0
   39.6339   31.2366   42.6027 H   0  0  0  0  0  0  0  0  0  0  0  0
   37.2861   31.2807   42.9238 H   0  0  0  0  0  0  0  0  0  0  0  0
   38.1954   29.9166   43.7348 H   0  0  0  0  0  0  0  0  0  0  0  0
   37.0507   32.4036   45.1133 H   0  0  0  0  0  0  0  0  0  0  0  0
   36.5831   29.3888   43.4176 H   0  0  0  0  0  0  0  0  0  0  0  0
   35.6344   31.2844   47.1489 H   0  0  0  0  0  0  0  0  0  0  0  0
   33.3729   30.0704   48.3538 H   0  0  0  0  0  0  0  0  0  0  0  0
   31.7490   28.1226   47.7811 H   0  0  0  0  0  0  0  0  0  0  0  0
   34.6994   27.8109   43.6636 H   0  0  0  0  0  0  0  0  0  0  0  0
  1  2  2  0
  1 22  1  0
  3  2  1  0
  4  3  2  0
  5  4  1  0
  5  6  2  0
  6  1  1  0
  7  5  1  0
  8  7  1  0
  9  8  1  0
 10 11  1  0
 10  9  1  0
 11 12  1  0
 12 14  1  0
 12  7  1  0
 13 21  2  0
 13 14  1  0
 14 15  2  0
 15 16  1  0
 16 17  1  0
 18 17  1  0
 19 18  2  0
 20 19  1  0
 20 16  2  0
 21 20  1  0
 22 25  1  0
 22 23  1  0
 24 22  1  0
  2 26  1  0
  3 27  1  0
  8 28  1  0
  8 29  1  0
  9 30  1  0
  9 31  1  0
 10 32  1  0
 11 33  1  0
 11 34  1  0
 12 35  1  6
 13 36  1  0
 15 37  1  0
 17 38  1  0
 18 39  1  0
 21 40  1  0
M  ISO  8  26  14  27  14  28  13  29  13  30  13  31  13  32   5  33  13
M  ISO  7  34  13  35  13  36  14  37  14  38   9  39  14  40  14
M  END
>  <minimizedAffinity>  (1) 
-6.656003

>  <minimizedRMSD>  (1) 
1.79301524

$$$$
