
     RDKit          3D

 51 54  0  0  1  0  0  0  0  0999 V2000
   35.4460   28.7620   49.6340 C   0  0  0  0  0  0  0  0  0  0  0  0
   35.9420   29.8610   48.8590 N   0  0  0  0  0  0  0  0  0  0  0  0
   35.5400   31.1420   49.3420 C   0  0  0  0  0  0  0  0  0  0  0  0
   36.4350   31.7860   50.3310 C   0  0  0  0  0  0  0  0  0  0  0  0
   37.8520   31.6460   49.9950 N   0  0  0  0  0  0  0  0  0  0  0  0
   38.0920   30.2330   49.7730 C   0  0  0  0  0  0  0  0  0  0  0  0
   37.3110   29.8940   48.5230 C   0  0  2  0  0  0  0  0  0  0  0  0
   37.1980   30.7790   46.2680 C   0  0  2  0  0  0  0  0  0  0  0  0
   37.6450   31.0370   47.6130 C   0  0  2  0  0  0  0  0  0  0  0  0
   38.9280   31.4580   47.4320 O   0  0  0  0  0  0  0  0  0  0  0  0
   38.7640   32.4490   46.4470 C   0  0  0  0  0  0  0  0  0  0  0  0
   37.9430   31.7180   45.3680 C   0  0  2  0  0  0  0  0  0  0  0  0
   35.8560   30.6840   46.0110 O   0  0  0  0  0  0  0  0  0  0  0  0
   37.1570   32.5710   44.6360 O   0  0  0  0  0  0  0  0  0  0  0  0
   34.6720   27.8360   48.7140 C   0  0  0  0  0  0  0  0  0  0  0  0
   32.9160   28.3520   48.6370 S   0  0  0  0  0  0  0  0  0  0  0  0
   31.7080   26.5690   46.8090 C   0  0  2  0  0  0  0  0  0  0  0  0
   30.6000   26.9570   47.6740 C   0  0  0  0  0  0  0  0  0  0  0  0
   31.9530   26.8750   48.2630 C   0  0  2  0  0  0  0  0  0  0  0  0
   32.2070   29.4940   44.5350 C   0  0  0  0  0  0  0  0  0  0  0  0
   33.4610   29.1730   43.9760 C   0  0  0  0  0  0  0  0  0  0  0  0
   34.0920   27.9810   44.4010 C   0  0  0  0  0  0  0  0  0  0  0  0
   33.4890   27.1930   45.3210 N   0  0  0  0  0  0  0  0  0  0  0  0
   32.2800   27.5510   45.8260 C   0  0  0  0  0  0  0  0  0  0  0  0
   31.6080   28.6860   45.4620 N   0  0  0  0  0  0  0  0  0  0  0  0
   36.2876   28.2172   50.0867 H   0  0  0  0  0  0  0  0  0  0  0  0
   34.7903   29.1315   50.4362 H   0  0  0  0  0  0  0  0  0  0  0  0
   35.4593   31.8154   48.4760 H   0  0  0  0  0  0  0  0  0  0  0  0
   34.5938   30.9682   49.8754 H   0  0  0  0  0  0  0  0  0  0  0  0
   36.1904   32.8573   50.3799 H   0  0  0  0  0  0  0  0  0  0  0  0
   36.2743   31.2840   51.2965 H   0  0  0  0  0  0  0  0  0  0  0  0
   38.0687   32.1809   49.1419 H   0  0  0  0  0  0  0  0  0  0  0  0
   39.1648   30.0423   49.6220 H   0  0  0  0  0  0  0  0  0  0  0  0
   37.7809   29.6214   50.6327 H   0  0  0  0  0  0  0  0  0  0  0  0
   37.5445   28.9230   48.0618 H   0  0  0  0  0  0  0  0  0  0  0  0
   37.4444   29.7273   46.0601 H   0  0  0  0  0  0  0  0  0  0  0  0
   37.1355   31.8260   48.1857 H   0  0  0  0  0  0  0  0  0  0  0  0
   38.2156   33.3161   46.8436 H   0  0  0  0  0  0  0  0  0  0  0  0
   39.7152   32.8552   46.0725 H   0  0  0  0  0  0  0  0  0  0  0  0
   38.5068   31.2246   44.5626 H   0  0  0  0  0  0  0  0  0  0  0  0
   35.3580   30.6487   46.8659 H   0  0  0  0  0  0  0  0  0  0  0  0
   36.6303   33.1426   45.2492 H   0  0  0  0  0  0  0  0  0  0  0  0
   35.1082   27.8771   47.7050 H   0  0  0  0  0  0  0  0  0  0  0  0
   34.7295   26.8091   49.1041 H   0  0  0  0  0  0  0  0  0  0  0  0
   31.8713   25.7219   46.1266 H   0  0  0  0  0  0  0  0  0  0  0  0
   30.1220   27.9387   47.5405 H   0  0  0  0  0  0  0  0  0  0  0  0
   29.6264   26.5090   47.9219 H   0  0  0  0  0  0  0  0  0  0  0  0
   32.3674   26.3632   49.1441 H   0  0  0  0  0  0  0  0  0  0  0  0
   31.6982   30.4163   44.2180 H   0  0  0  0  0  0  0  0  0  0  0  0
   33.9343   29.8301   43.2316 H   0  0  0  0  0  0  0  0  0  0  0  0
   35.0695   27.6954   43.9852 H   0  0  0  0  0  0  0  0  0  0  0  0
  2  3  1  0
  2  1  1  0
  3  4  1  0
  5  4  1  0
  6  5  1  0
  7  2  1  0
  7  6  1  0
  8 13  1  0
  8  9  1  0
  9 10  1  0
  9  7  1  0
 11 10  1  0
 12 14  1  0
 12  8  1  0
 12 11  1  0
 15  1  1  0
 16 15  1  0
 17 18  1  0
 17 19  1  0
 18 19  1  0
 19 16  1  0
 20 25  2  0
 21 22  2  0
 21 20  1  0
 22 23  1  0
 23 24  2  0
 24 17  1  0
 25 24  1  0
  1 26  1  0
  1 27  1  0
  3 28  1  0
  3 29  1  0
  4 30  1  0
  4 31  1  0
  5 32  1  0
  6 33  1  0
  6 34  1  0
  7 35  1  6
  8 36  1  6
  9 37  1  1
 11 38  1  0
 11 39  1  0
 12 40  1  6
 13 41  1  0
 14 42  1  0
 15 43  1  0
 15 44  1  0
 17 45  1  6
 18 46  1  0
 18 47  1  0
 19 48  1  1
 20 49  1  0
 21 50  1  0
 22 51  1  0
M  ISO  8  26   8  27   8  28  13  29  13  30  13  31  13  32   5  33  13
M  ISO  8  34  13  35  13  36  13  37  13  38  13  39  13  40  13  41   3
M  ISO  8  42   3  43   8  44   8  45  13  46  13  47  13  48  13  49  14
M  ISO  2  50  14  51  14
M  END
>  <minimizedAffinity>  (1) 
-4.47179127

>  <minimizedRMSD>  (1) 
5.36253881

$$$$
