
     RDKit          3D

 52 55  0  0  1  0  0  0  0  0999 V2000
   34.8070   30.7590   49.4070 C   0  0  0  0  0  0  0  0  0  0  0  0
   36.1650   31.1760   49.1800 N   0  0  0  0  0  0  0  0  0  0  0  0
   36.7800   31.6240   50.3940 C   0  0  0  0  0  0  0  0  0  0  0  0
   37.5240   30.5850   51.1620 C   0  0  0  0  0  0  0  0  0  0  0  0
   38.3100   29.6940   50.3020 N   0  0  0  0  0  0  0  0  0  0  0  0
   37.3650   29.1530   49.3290 C   0  0  0  0  0  0  0  0  0  0  0  0
   37.0020   30.3470   48.4550 C   0  0  2  0  0  0  0  0  0  0  0  0
   38.2430   30.7310   47.9300 N   0  0  0  0  0  0  0  0  0  0  0  0
   38.5920   32.0080   48.5350 C   0  0  0  0  0  0  0  0  0  0  0  0
   38.6710   33.1790   47.6450 C   0  0  0  0  0  0  0  0  0  0  0  0
   38.9730   32.8650   46.2580 N   0  0  0  0  0  0  0  0  0  0  0  0
   39.7080   31.6200   46.2620 C   0  0  0  0  0  0  0  0  0  0  0  0
   38.7960   30.4650   46.7250 C   0  0  0  0  0  0  0  0  0  0  0  0
   34.4540   29.6580   48.4430 C   0  0  0  0  0  0  0  0  0  0  0  0
   33.6130   30.3200   46.9740 S   0  0  0  0  0  0  0  0  0  0  0  0
   32.5360   29.0020   44.7030 C   0  0  2  0  0  0  0  0  0  0  0  0
   31.3820   29.1620   45.5790 C   0  0  0  0  0  0  0  0  0  0  0  0
   32.7080   28.9620   46.2020 C   0  0  2  0  0  0  0  0  0  0  0  0
   33.0450   32.3800   43.1730 C   0  0  0  0  0  0  0  0  0  0  0  0
   34.3720   32.2530   42.7170 C   0  0  0  0  0  0  0  0  0  0  0  0
   35.0550   31.0320   42.9500 C   0  0  0  0  0  0  0  0  0  0  0  0
   34.4200   30.0410   43.5940 N   0  0  0  0  0  0  0  0  0  0  0  0
   33.1390   30.1990   44.0190 C   0  0  0  0  0  0  0  0  0  0  0  0
   32.4280   31.3490   43.8250 N   0  0  0  0  0  0  0  0  0  0  0  0
   34.7037   30.3908   50.4384 H   0  0  0  0  0  0  0  0  0  0  0  0
   34.1302   31.6125   49.2537 H   0  0  0  0  0  0  0  0  0  0  0  0
   37.4872   32.4269   50.1386 H   0  0  0  0  0  0  0  0  0  0  0  0
   35.9558   31.9474   51.0468 H   0  0  0  0  0  0  0  0  0  0  0  0
   38.2062   31.0880   51.8632 H   0  0  0  0  0  0  0  0  0  0  0  0
   36.7809   29.9667   51.6868 H   0  0  0  0  0  0  0  0  0  0  0  0
   39.0556   30.2205   49.8247 H   0  0  0  0  0  0  0  0  0  0  0  0
   37.8343   28.3592   48.7293 H   0  0  0  0  0  0  0  0  0  0  0  0
   36.4846   28.6973   49.8058 H   0  0  0  0  0  0  0  0  0  0  0  0
   36.3639   30.2367   47.5658 H   0  0  0  0  0  0  0  0  0  0  0  0
   37.8356   32.2273   49.3030 H   0  0  0  0  0  0  0  0  0  0  0  0
   39.6162   31.8708   48.9121 H   0  0  0  0  0  0  0  0  0  0  0  0
   37.7025   33.6996   47.6760 H   0  0  0  0  0  0  0  0  0  0  0  0
   39.5039   33.7956   48.0138 H   0  0  0  0  0  0  0  0  0  0  0  0
   39.5453   33.6133   45.8416 H   0  0  0  0  0  0  0  0  0  0  0  0
   40.0728   31.4100   45.2457 H   0  0  0  0  0  0  0  0  0  0  0  0
   40.5576   31.7067   46.9552 H   0  0  0  0  0  0  0  0  0  0  0  0
   39.3932   29.5443   46.7998 H   0  0  0  0  0  0  0  0  0  0  0  0
   37.9869   30.3441   45.9897 H   0  0  0  0  0  0  0  0  0  0  0  0
   35.3756   29.1459   48.1292 H   0  0  0  0  0  0  0  0  0  0  0  0
   33.7745   28.9557   48.9480 H   0  0  0  0  0  0  0  0  0  0  0  0
   32.7439   28.3424   43.8476 H   0  0  0  0  0  0  0  0  0  0  0  0
   30.8868   30.1414   45.6543 H   0  0  0  0  0  0  0  0  0  0  0  0
   30.4096   28.6553   45.6663 H   0  0  0  0  0  0  0  0  0  0  0  0
   33.0976   28.2630   46.9567 H   0  0  0  0  0  0  0  0  0  0  0  0
   32.4991   33.3196   43.0024 H   0  0  0  0  0  0  0  0  0  0  0  0
   34.8676   33.0828   42.1917 H   0  0  0  0  0  0  0  0  0  0  0  0
   36.0918   30.8993   42.6072 H   0  0  0  0  0  0  0  0  0  0  0  0
  2  1  1  0
  2  3  1  0
  3  4  1  0
  5  4  1  0
  6  5  1  0
  7  2  1  0
  7  6  1  0
  8 13  1  0
  8  7  1  0
  8  9  1  0
 10  9  1  0
 11 12  1  0
 11 10  1  0
 12 13  1  0
 14  1  1  0
 15 14  1  0
 16 17  1  0
 16 18  1  0
 17 18  1  0
 18 15  1  0
 19 24  2  0
 20 21  2  0
 20 19  1  0
 21 22  1  0
 22 23  2  0
 23 16  1  0
 24 23  1  0
  1 25  1  0
  1 26  1  0
  3 27  1  0
  3 28  1  0
  4 29  1  0
  4 30  1  0
  5 31  1  0
  6 32  1  0
  6 33  1  0
  7 34  1  6
  9 35  1  0
  9 36  1  0
 10 37  1  0
 10 38  1  0
 11 39  1  0
 12 40  1  0
 12 41  1  0
 13 42  1  0
 13 43  1  0
 14 44  1  0
 14 45  1  0
 16 46  1  6
 17 47  1  0
 17 48  1  0
 18 49  1  6
 19 50  1  0
 20 51  1  0
 21 52  1  0
M  ISO  8  25   8  26   8  27  13  28  13  29  13  30  13  31   5  32  13
M  ISO  8  33  13  34  13  35  13  36  13  37  13  38  13  39   5  40  13
M  ISO  8  41  13  42  13  43  13  44   8  45   8  46  13  47  13  48  13
M  ISO  4  49  13  50  14  51  14  52  14
M  END
>  <minimizedAffinity>  (1) 
-4.01556206

>  <minimizedRMSD>  (1) 
3.88605809

$$$$
