
     RDKit          3D

 33 35  0  0  0  0  0  0  0  0999 V2000
   36.4440   30.6240   46.3190 C   0  0  0  0  0  0  0  0  0  0  0  0
   35.1530   30.1290   46.2560 C   0  0  0  0  0  0  0  0  0  0  0  0
   34.5440   29.8610   45.0510 C   0  0  0  0  0  0  0  0  0  0  0  0
   35.1820   30.0680   43.8460 C   0  0  0  0  0  0  0  0  0  0  0  0
   36.4650   30.5590   43.8860 C   0  0  0  0  0  0  0  0  0  0  0  0
   37.0520   30.8190   45.1060 C   0  0  0  0  0  0  0  0  0  0  0  0
   39.4040   29.2880   45.6190 F   0  0  0  0  0  0  0  0  0  0  0  0
   39.5810   30.6230   45.3880 C   0  0  0  0  0  0  0  0  0  0  0  0
   38.4240   31.3370   45.1420 C   0  0  0  0  0  0  0  0  0  0  0  0
   38.4810   32.7090   44.8920 C   0  0  0  0  0  0  0  0  0  0  0  0
   39.6920   33.3790   44.8850 C   0  0  0  0  0  0  0  0  0  0  0  0
   40.8430   32.6500   45.1330 C   0  0  0  0  0  0  0  0  0  0  0  0
   40.7850   31.2840   45.3830 C   0  0  0  0  0  0  0  0  0  0  0  0
   37.4640   30.3890   49.8170 C   0  0  0  0  0  0  0  0  0  0  0  0
   38.2840   31.5150   49.9800 C   0  0  0  0  0  0  0  0  0  0  0  0
   38.4740   32.3480   48.8660 C   0  0  0  0  0  0  0  0  0  0  0  0
   37.8510   32.0060   47.7080 N   0  0  0  0  0  0  0  0  0  0  0  0
   37.0640   30.9040   47.5940 C   0  0  0  0  0  0  0  0  0  0  0  0
   36.8840   30.1140   48.6510 N   0  0  0  0  0  0  0  0  0  0  0  0
   37.2740   29.5160   51.0180 C   0  0  0  0  0  0  0  0  0  0  0  0
   35.9060   29.2800   51.1930 F   0  0  0  0  0  0  0  0  0  0  0  0
   37.9840   28.3640   50.8060 F   0  0  0  0  0  0  0  0  0  0  0  0
   37.7140   30.2000   52.1310 F   0  0  0  0  0  0  0  0  0  0  0  0
   34.6013   29.9457   47.1898 H   0  0  0  0  0  0  0  0  0  0  0  0
   33.5161   29.4694   45.0491 H   0  0  0  0  0  0  0  0  0  0  0  0
   34.6835   29.8487   42.8903 H   0  0  0  0  0  0  0  0  0  0  0  0
   37.0184   30.7428   42.9533 H   0  0  0  0  0  0  0  0  0  0  0  0
   37.5517   33.2648   44.6981 H   0  0  0  0  0  0  0  0  0  0  0  0
   39.7389   34.4602   44.6880 H   0  0  0  0  0  0  0  0  0  0  0  0
   41.8178   33.1597   45.1321 H   0  0  0  0  0  0  0  0  0  0  0  0
   41.7129   30.7266   45.5789 H   0  0  0  0  0  0  0  0  0  0  0  0
   38.7611   31.7375   50.9459 H   0  0  0  0  0  0  0  0  0  0  0  0
   39.1054   33.2465   48.9285 H   0  0  0  0  0  0  0  0  0  0  0  0
  1 18  1  0
  2  1  2  0
  3  2  1  0
  4  5  1  0
  4  3  2  0
  5  6  2  0
  6  9  1  0
  6  1  1  0
  8  7  1  0
  9  8  2  0
 10  9  1  0
 11 10  2  0
 11 12  1  0
 12 13  2  0
 13  8  1  0
 14 15  2  0
 14 20  1  0
 16 15  1  0
 17 16  2  0
 18 17  1  0
 18 19  2  0
 19 14  1  0
 20 21  1  0
 20 23  1  0
 22 20  1  0
  2 24  1  0
  3 25  1  0
  4 26  1  0
  5 27  1  0
 10 28  1  0
 11 29  1  0
 12 30  1  0
 13 31  1  0
 15 32  1  0
 16 33  1  0
M  ISO  8  24  14  25  14  26  14  27  14  28  14  29  14  30  14  31  14
M  ISO  2  32  14  33  14
M  END
>  <minimizedAffinity>  (1) 
-6.90477705

>  <minimizedRMSD>  (1) 
0.315828413

$$$$
