
     RDKit          3D

 36 39  0  0  0  0  0  0  0  0999 V2000
   35.4380   30.2280   46.7330 C   0  0  0  0  0  0  0  0  0  0  0  0
   34.1600   29.7950   47.0420 C   0  0  0  0  0  0  0  0  0  0  0  0
   33.2390   29.5430   46.0400 C   0  0  0  0  0  0  0  0  0  0  0  0
   33.5340   29.7020   44.7020 C   0  0  0  0  0  0  0  0  0  0  0  0
   34.8120   30.1340   44.3730 C   0  0  0  0  0  0  0  0  0  0  0  0
   35.6950   30.3750   45.4000 C   0  0  0  0  0  0  0  0  0  0  0  0
   37.4800   32.0980   44.7220 C   0  0  0  0  0  0  0  0  0  0  0  0
   36.9680   30.8400   44.8440 C   0  0  0  0  0  0  0  0  0  0  0  0
   37.7160   29.7540   44.3690 C   0  0  0  0  0  0  0  0  0  0  0  0
   38.9450   29.9530   43.7890 C   0  0  0  0  0  0  0  0  0  0  0  0
   39.8840   29.1540   43.2480 N   0  0  0  0  0  0  0  0  0  0  0  0
   40.9620   29.8350   42.7900 C   0  0  0  0  0  0  0  0  0  0  0  0
   40.6610   31.1390   43.0700 N   0  0  0  0  0  0  0  0  0  0  0  0
   39.4570   31.2080   43.6670 C   0  0  0  0  0  0  0  0  0  0  0  0
   38.7170   32.2640   44.1360 C   0  0  0  0  0  0  0  0  0  0  0  0
   37.2410   30.1160   49.8990 C   0  0  0  0  0  0  0  0  0  0  0  0
   38.2510   31.0800   49.7190 C   0  0  0  0  0  0  0  0  0  0  0  0
   38.2930   31.7520   48.4910 C   0  0  0  0  0  0  0  0  0  0  0  0
   37.3560   31.4270   47.5590 N   0  0  0  0  0  0  0  0  0  0  0  0
   36.4080   30.5040   47.7640 C   0  0  0  0  0  0  0  0  0  0  0  0
   36.3700   29.8670   48.9270 N   0  0  0  0  0  0  0  0  0  0  0  0
   37.2150   29.4130   51.2190 C   0  0  0  0  0  0  0  0  0  0  0  0
   35.8890   29.1590   51.5650 F   0  0  0  0  0  0  0  0  0  0  0  0
   37.9400   28.2690   51.0920 F   0  0  0  0  0  0  0  0  0  0  0  0
   37.7140   30.2770   52.1790 F   0  0  0  0  0  0  0  0  0  0  0  0
   33.8736   29.6498   48.0941 H   0  0  0  0  0  0  0  0  0  0  0  0
   32.2318   29.2024   46.3219 H   0  0  0  0  0  0  0  0  0  0  0  0
   32.7844   29.4942   43.9242 H   0  0  0  0  0  0  0  0  0  0  0  0
   35.1091   30.2790   43.3239 H   0  0  0  0  0  0  0  0  0  0  0  0
   36.9140   32.9682   45.0860 H   0  0  0  0  0  0  0  0  0  0  0  0
   37.3154   28.7337   44.4615 H   0  0  0  0  0  0  0  0  0  0  0  0
   39.7922   28.1298   43.1884 H   0  0  0  0  0  0  0  0  0  0  0  0
   41.8654   29.4339   42.3073 H   0  0  0  0  0  0  0  0  0  0  0  0
   39.1258   33.2808   44.0410 H   0  0  0  0  0  0  0  0  0  0  0  0
   38.9802   31.2974   50.5134 H   0  0  0  0  0  0  0  0  0  0  0  0
   39.0572   32.5164   48.2867 H   0  0  0  0  0  0  0  0  0  0  0  0
  1  2  2  0
  1 20  1  0
  3  2  1  0
  4  3  2  0
  5  4  1  0
  5  6  2  0
  6  1  1  0
  7  8  2  0
  8  6  1  0
  9  8  1  0
 10  9  2  0
 11 10  1  0
 12 13  2  0
 12 11  1  0
 13 14  1  0
 14 10  1  0
 14 15  2  0
 15  7  1  0
 16 22  1  0
 17 16  2  0
 18 17  1  0
 19 20  1  0
 19 18  2  0
 20 21  2  0
 21 16  1  0
 22 23  1  0
 22 25  1  0
 24 22  1  0
  2 26  1  0
  3 27  1  0
  4 28  1  0
  5 29  1  0
  7 30  1  0
  9 31  1  0
 11 32  1  0
 12 33  1  0
 15 34  1  0
 17 35  1  0
 18 36  1  0
M  ISO  8  26  14  27  14  28  14  29  14  30  14  31  14  32   9  33  14
M  ISO  3  34  14  35  14  36  14
M  END
>  <minimizedAffinity>  (1) 
-6.70620584

>  <minimizedRMSD>  (1) 
1.43668449

$$$$
