
     RDKit          3D

 30 32  0  0  0  0  0  0  0  0999 V2000
   36.5460   30.6150   46.5300 C   0  0  0  0  0  0  0  0  0  0  0  0
   35.2720   30.1070   46.4160 C   0  0  0  0  0  0  0  0  0  0  0  0
   34.7320   29.8420   45.1710 C   0  0  0  0  0  0  0  0  0  0  0  0
   35.4350   30.0690   43.9910 C   0  0  0  0  0  0  0  0  0  0  0  0
   36.7080   30.5760   44.0980 C   0  0  0  0  0  0  0  0  0  0  0  0
   37.2130   30.8290   45.3460 C   0  0  0  0  0  0  0  0  0  0  0  0
   37.4560   30.3390   50.0700 C   0  0  0  0  0  0  0  0  0  0  0  0
   38.2180   31.4900   50.2820 C   0  0  0  0  0  0  0  0  0  0  0  0
   38.4160   32.3630   49.1930 C   0  0  0  0  0  0  0  0  0  0  0  0
   37.8460   32.0190   48.0030 N   0  0  0  0  0  0  0  0  0  0  0  0
   37.1160   30.8960   47.8390 C   0  0  0  0  0  0  0  0  0  0  0  0
   36.9290   30.0770   48.8590 N   0  0  0  0  0  0  0  0  0  0  0  0
   37.2420   29.4130   51.2240 C   0  0  0  0  0  0  0  0  0  0  0  0
   35.8850   29.1660   51.3790 F   0  0  0  0  0  0  0  0  0  0  0  0
   37.9710   28.2840   50.9990 F   0  0  0  0  0  0  0  0  0  0  0  0
   37.6630   30.0770   52.3740 F   0  0  0  0  0  0  0  0  0  0  0  0
   38.5720   31.3670   45.3860 C   0  0  0  0  0  0  0  0  0  0  0  0
   39.7180   30.5920   45.5900 C   0  0  0  0  0  0  0  0  0  0  0  0
   40.7450   31.5300   45.5470 C   0  0  0  0  0  0  0  0  0  0  0  0
   40.2260   32.7470   45.3350 N   0  0  0  0  0  0  0  0  0  0  0  0
   38.8930   32.6740   45.2330 N   0  0  0  0  0  0  0  0  0  0  0  0
   34.6793   29.9104   47.3216 H   0  0  0  0  0  0  0  0  0  0  0  0
   33.7108   29.4375   45.1108 H   0  0  0  0  0  0  0  0  0  0  0  0
   34.9884   29.8508   43.0097 H   0  0  0  0  0  0  0  0  0  0  0  0
   37.3097   30.7748   43.1989 H   0  0  0  0  0  0  0  0  0  0  0  0
   38.6508   31.7089   51.2693 H   0  0  0  0  0  0  0  0  0  0  0  0
   39.0067   33.2849   49.2990 H   0  0  0  0  0  0  0  0  0  0  0  0
   39.7901   29.5056   45.7464 H   0  0  0  0  0  0  0  0  0  0  0  0
   41.8154   31.3072   45.6681 H   0  0  0  0  0  0  0  0  0  0  0  0
   40.7747   33.6155   45.2610 H   0  0  0  0  0  0  0  0  0  0  0  0
  1 11  1  0
  2  1  2  0
  3  2  1  0
  4  5  1  0
  4  3  2  0
  5  6  2  0
  6 17  1  0
  6  1  1  0
  7  8  2  0
  7 13  1  0
  9  8  1  0
 10  9  2  0
 11 10  1  0
 11 12  2  0
 12  7  1  0
 13 14  1  0
 13 16  1  0
 15 13  1  0
 17 18  1  0
 19 18  2  0
 20 19  1  0
 21 20  1  0
 21 17  2  0
  2 22  1  0
  3 23  1  0
  4 24  1  0
  5 25  1  0
  8 26  1  0
  9 27  1  0
 18 28  1  0
 19 29  1  0
 20 30  1  0
M  ISO  8  22  14  23  14  24  14  25  14  26  14  27  14  28  14  29  14
M  ISO  1  30   9
M  END
>  <minimizedAffinity>  (1) 
-6.54212379

>  <minimizedRMSD>  (1) 
0.590971768

$$$$
