
     RDKit          3D

 25 26  0  0  0  0  0  0  0  0999 V2000
   37.9140   30.8130   46.1150 C   0  0  0  0  0  0  0  0  0  0  0  0
   36.7010   30.5150   45.5320 C   0  0  0  0  0  0  0  0  0  0  0  0
   36.6430   30.1540   44.2020 C   0  0  0  0  0  0  0  0  0  0  0  0
   37.7520   30.0690   43.3900 C   0  0  0  0  0  0  0  0  0  0  0  0
   38.9650   30.3630   43.9620 C   0  0  0  0  0  0  0  0  0  0  0  0
   39.0030   30.7210   45.2890 C   0  0  0  0  0  0  0  0  0  0  0  0
   37.6990   30.6990   49.7580 C   0  0  0  0  0  0  0  0  0  0  0  0
   38.1610   31.9610   50.1420 C   0  0  0  0  0  0  0  0  0  0  0  0
   38.5480   32.8540   49.1220 C   0  0  0  0  0  0  0  0  0  0  0  0
   38.4420   32.4150   47.8460 N   0  0  0  0  0  0  0  0  0  0  0  0
   37.9960   31.1990   47.5070 C   0  0  0  0  0  0  0  0  0  0  0  0
   37.6260   30.3480   48.4750 N   0  0  0  0  0  0  0  0  0  0  0  0
   37.2850   29.7550   50.8540 C   0  0  0  0  0  0  0  0  0  0  0  0
   35.8850   29.7300   50.9230 F   0  0  0  0  0  0  0  0  0  0  0  0
   37.8270   28.5460   50.6050 F   0  0  0  0  0  0  0  0  0  0  0  0
   37.7100   30.3010   52.0600 F   0  0  0  0  0  0  0  0  0  0  0  0
   40.3490   31.0010   45.7710 C   0  0  0  0  0  0  0  0  0  0  0  0
   41.1210   31.8950   45.3860 O   0  0  0  0  0  0  0  0  0  0  0  0
   35.7780   30.5652   46.1282 H   0  0  0  0  0  0  0  0  0  0  0  0
   35.6596   29.9219   43.7673 H   0  0  0  0  0  0  0  0  0  0  0  0
   37.6698   29.7790   42.3321 H   0  0  0  0  0  0  0  0  0  0  0  0
   39.8902   30.3130   43.3691 H   0  0  0  0  0  0  0  0  0  0  0  0
   38.2205   32.2473   51.2024 H   0  0  0  0  0  0  0  0  0  0  0  0
   38.9198   33.8632   49.3530 H   0  0  0  0  0  0  0  0  0  0  0  0
   40.7257   30.3442   46.5689 H   0  0  0  0  0  0  0  0  0  0  0  0
  1 11  1  0
  2  1  2  0
  3  2  1  0
  4  5  1  0
  4  3  2  0
  5  6  2  0
  6 17  1  0
  6  1  1  0
  7  8  2  0
  7 13  1  0
  9  8  1  0
 10  9  2  0
 11 10  1  0
 11 12  2  0
 12  7  1  0
 13 14  1  0
 13 16  1  0
 15 13  1  0
 18 17  2  0
  2 19  1  0
  3 20  1  0
  4 21  1  0
  5 22  1  0
  8 23  1  0
  9 24  1  0
 17 25  1  0
M  ISO  7  19  14  20  14  21  14  22  14  23  14  24  14  25   6
M  END
>  <minimizedAffinity>  (1) 
-5.77508211

>  <minimizedRMSD>  (1) 
1.63851333

$$$$
