
     RDKit          3D

 27 28  0  0  0  0  0  0  0  0999 V2000
   36.3750   30.5210   46.5310 C   0  0  0  0  0  0  0  0  0  0  0  0
   35.1160   29.9780   46.4780 C   0  0  0  0  0  0  0  0  0  0  0  0
   34.4850   29.7030   45.2840 C   0  0  0  0  0  0  0  0  0  0  0  0
   35.0920   29.9630   44.0740 C   0  0  0  0  0  0  0  0  0  0  0  0
   36.3620   30.5100   44.0860 C   0  0  0  0  0  0  0  0  0  0  0  0
   36.9450   30.7640   45.3080 C   0  0  0  0  0  0  0  0  0  0  0  0
   37.4330   30.2860   50.0120 C   0  0  0  0  0  0  0  0  0  0  0  0
   38.2960   31.3820   50.1580 C   0  0  0  0  0  0  0  0  0  0  0  0
   38.4960   32.1860   49.0420 C   0  0  0  0  0  0  0  0  0  0  0  0
   37.8490   31.8650   47.8850 N   0  0  0  0  0  0  0  0  0  0  0  0
   37.0330   30.8070   47.7900 C   0  0  0  0  0  0  0  0  0  0  0  0
   36.8280   30.0230   48.8530 N   0  0  0  0  0  0  0  0  0  0  0  0
   37.2170   29.4130   51.2260 C   0  0  0  0  0  0  0  0  0  0  0  0
   35.8440   29.1870   51.3870 F   0  0  0  0  0  0  0  0  0  0  0  0
   37.9210   28.2720   51.0500 F   0  0  0  0  0  0  0  0  0  0  0  0
   37.6280   30.1240   52.3410 F   0  0  0  0  0  0  0  0  0  0  0  0
   39.2040   30.3650   44.7450 C   0  0  0  0  0  0  0  0  0  0  0  0
   39.1850   29.1680   44.3690 O   0  0  0  0  0  0  0  0  0  0  0  0
   38.2510   31.3280   45.2340 N   0  0  0  0  0  0  0  0  0  0  0  0
   34.5930   29.7548   47.4196 H   0  0  0  0  0  0  0  0  0  0  0  0
   33.4753   29.2667   45.2969 H   0  0  0  0  0  0  0  0  0  0  0  0
   34.5806   29.7416   43.1256 H   0  0  0  0  0  0  0  0  0  0  0  0
   36.8907   30.7355   43.1481 H   0  0  0  0  0  0  0  0  0  0  0  0
   38.7936   31.5962   51.1154 H   0  0  0  0  0  0  0  0  0  0  0  0
   39.1608   33.0610   49.0908 H   0  0  0  0  0  0  0  0  0  0  0  0
   40.2161   30.7917   44.6854 H   0  0  0  0  0  0  0  0  0  0  0  0
   38.4832   32.2968   45.4957 H   0  0  0  0  0  0  0  0  0  0  0  0
  1 11  1  0
  2  1  2  0
  3  2  1  0
  4  5  1  0
  4  3  2  0
  5  6  2  0
  6  1  1  0
  7  8  2  0
  7 13  1  0
  9  8  1  0
 10  9  2  0
 11 10  1  0
 11 12  2  0
 12  7  1  0
 13 14  1  0
 13 16  1  0
 15 13  1  0
 17 19  1  0
 18 17  2  0
 19  6  1  0
  2 20  1  0
  3 21  1  0
  4 22  1  0
  5 23  1  0
  8 24  1  0
  9 25  1  0
 17 26  1  0
 19 27  1  0
M  ISO  7  20  14  21  14  22  14  23  14  24  14  25  14  26   6
M  END
>  <minimizedAffinity>  (1) 
-5.7469039

>  <minimizedRMSD>  (1) 
0.593879938

$$$$
