
     RDKit          3D

 24 25  0  0  0  0  0  0  0  0999 V2000
   37.6430   30.6420   49.7360 C   0  0  0  0  0  0  0  0  0  0  0  0
   38.1840   31.8830   50.0700 C   0  0  0  0  0  0  0  0  0  0  0  0
   38.5100   32.7560   49.0200 C   0  0  0  0  0  0  0  0  0  0  0  0
   38.2790   32.3410   47.7460 N   0  0  0  0  0  0  0  0  0  0  0  0
   37.7520   31.1260   47.4650 C   0  0  0  0  0  0  0  0  0  0  0  0
   37.4440   30.3030   48.4550 N   0  0  0  0  0  0  0  0  0  0  0  0
   37.5290   30.7410   46.0800 C   0  0  0  0  0  0  0  0  0  0  0  0
   36.2820   30.4160   45.6160 C   0  0  0  0  0  0  0  0  0  0  0  0
   36.0880   30.0540   44.3040 C   0  0  0  0  0  0  0  0  0  0  0  0
   37.1190   29.9990   43.3980 C   0  0  0  0  0  0  0  0  0  0  0  0
   38.4020   30.3230   43.8320 C   0  0  0  0  0  0  0  0  0  0  0  0
   38.5670   30.6830   45.1570 C   0  0  0  0  0  0  0  0  0  0  0  0
   40.1980   31.1090   45.7620 S   0  0  0  0  0  0  0  0  0  0  0  0
   37.2950   29.7100   50.8600 C   0  0  0  0  0  0  0  0  0  0  0  0
   35.8990   29.6390   50.9770 F   0  0  0  0  0  0  0  0  0  0  0  0
   37.8640   28.5110   50.6150 F   0  0  0  0  0  0  0  0  0  0  0  0
   37.7420   30.2980   52.0390 F   0  0  0  0  0  0  0  0  0  0  0  0
   38.3496   32.1680   51.1195 H   0  0  0  0  0  0  0  0  0  0  0  0
   38.9402   33.7479   49.2223 H   0  0  0  0  0  0  0  0  0  0  0  0
   35.4234   30.4450   46.3030 H   0  0  0  0  0  0  0  0  0  0  0  0
   35.0719   29.7996   43.9681 H   0  0  0  0  0  0  0  0  0  0  0  0
   36.9355   29.7058   42.3538 H   0  0  0  0  0  0  0  0  0  0  0  0
   39.2581   30.2935   43.1419 H   0  0  0  0  0  0  0  0  0  0  0  0
   40.1917   31.1074   47.1320 H   0  0  0  0  0  0  0  0  0  0  0  0
  1  2  2  0
  1 14  1  0
  3  2  1  0
  4  3  2  0
  5  4  1  0
  5  6  2  0
  6  1  1  0
  7  5  1  0
  8  7  2  0
  9  8  1  0
 10 11  1  0
 10  9  2  0
 11 12  2  0
 12 13  1  0
 12  7  1  0
 14 15  1  0
 14 17  1  0
 16 14  1  0
  2 18  1  0
  3 19  1  0
  8 20  1  0
  9 21  1  0
 10 22  1  0
 11 23  1  0
 13 24  1  0
M  ISO  7  18  14  19  14  20  14  21  14  22  14  23  14  24  11
M  END
>  <minimizedAffinity>  (1) 
-5.53955793

>  <minimizedRMSD>  (1) 
1.23729634

$$$$
