
     RDKit          3D

 25 26  0  0  0  0  0  0  0  0999 V2000
   36.5310   30.4890   46.5370 C   0  0  0  0  0  0  0  0  0  0  0  0
   35.2030   30.1650   46.4170 C   0  0  0  0  0  0  0  0  0  0  0  0
   34.6510   29.8820   45.1890 C   0  0  0  0  0  0  0  0  0  0  0  0
   35.3920   29.9080   44.0120 C   0  0  0  0  0  0  0  0  0  0  0  0
   36.7320   30.2340   44.1130 C   0  0  0  0  0  0  0  0  0  0  0  0
   37.2420   30.5090   45.3660 C   0  0  0  0  0  0  0  0  0  0  0  0
   37.4460   30.2940   50.0740 C   0  0  0  0  0  0  0  0  0  0  0  0
   38.2520   31.4160   50.2520 C   0  0  0  0  0  0  0  0  0  0  0  0
   38.4760   32.2390   49.1410 C   0  0  0  0  0  0  0  0  0  0  0  0
   37.8920   31.8880   47.9640 N   0  0  0  0  0  0  0  0  0  0  0  0
   37.1130   30.7860   47.8320 C   0  0  0  0  0  0  0  0  0  0  0  0
   36.8950   29.9980   48.8790 N   0  0  0  0  0  0  0  0  0  0  0  0
   37.2040   29.4080   51.2570 C   0  0  0  0  0  0  0  0  0  0  0  0
   35.8460   29.1700   51.4010 F   0  0  0  0  0  0  0  0  0  0  0  0
   37.9230   28.2570   51.0790 F   0  0  0  0  0  0  0  0  0  0  0  0
   37.6240   30.0960   52.3900 F   0  0  0  0  0  0  0  0  0  0  0  0
   38.6330   30.8370   45.3960 N   0  0  0  0  0  0  0  0  0  0  0  0
   34.5703   30.1310   47.3162 H   0  0  0  0  0  0  0  0  0  0  0  0
   33.5827   29.6253   45.1358 H   0  0  0  0  0  0  0  0  0  0  0  0
   34.9306   29.6785   43.0402 H   0  0  0  0  0  0  0  0  0  0  0  0
   37.3734   30.2731   43.2202 H   0  0  0  0  0  0  0  0  0  0  0  0
   38.6971   31.6476   51.2309 H   0  0  0  0  0  0  0  0  0  0  0  0
   39.1034   33.1393   49.2179 H   0  0  0  0  0  0  0  0  0  0  0  0
   39.0914   31.0555   46.2921 H   0  0  0  0  0  0  0  0  0  0  0  0
   39.1769   30.8548   44.5215 H   0  0  0  0  0  0  0  0  0  0  0  0
  1 11  1  0
  2  1  2  0
  3  2  1  0
  4  5  1  0
  4  3  2  0
  5  6  2  0
  6 17  1  0
  6  1  1  0
  7  8  2  0
  7 13  1  0
  9  8  1  0
 10  9  2  0
 11 10  1  0
 11 12  2  0
 12  7  1  0
 13 14  1  0
 13 16  1  0
 15 13  1  0
  2 18  1  0
  3 19  1  0
  4 20  1  0
  5 21  1  0
  8 22  1  0
  9 23  1  0
 17 24  1  0
 17 25  1  0
M  ISO  6  18  14  19  14  20  14  21  14  22  14  23  14
M  END
>  <minimizedAffinity>  (1) 
-5.4672308

>  <minimizedRMSD>  (1) 
0.241620407

$$$$
