
     RDKit          3D

 43 45  0  0  0  0  0  0  0  0999 V2000
   36.2270   30.4370   46.4020 C   0  0  0  0  0  0  0  0  0  0  0  0
   34.9140   29.9690   46.4300 C   0  0  0  0  0  0  0  0  0  0  0  0
   34.2910   29.6380   45.2360 C   0  0  0  0  0  0  0  0  0  0  0  0
   34.8950   29.7440   44.0040 C   0  0  0  0  0  0  0  0  0  0  0  0
   36.2020   30.2090   43.9810 C   0  0  0  0  0  0  0  0  0  0  0  0
   36.8120   30.5350   45.1790 C   0  0  0  0  0  0  0  0  0  0  0  0
   38.1420   30.9910   44.9540 N   0  0  0  0  0  0  0  0  0  0  0  0
   39.4690   30.4550   44.9310 C   0  0  0  0  0  0  0  0  0  0  0  0
   40.3050   31.2700   45.8890 C   0  0  0  0  0  0  0  0  0  0  0  0
   40.4730   32.5930   45.3300 N   0  0  0  0  0  0  0  0  0  0  0  0
   39.4800   32.9370   44.3690 C   0  0  0  0  0  0  0  0  0  0  0  0
   38.1220   32.3900   44.6590 C   0  0  0  0  0  0  0  0  0  0  0  0
   37.3950   30.3510   49.8570 C   0  0  0  0  0  0  0  0  0  0  0  0
   38.1790   31.5210   49.9440 C   0  0  0  0  0  0  0  0  0  0  0  0
   38.2900   32.3150   48.8020 C   0  0  0  0  0  0  0  0  0  0  0  0
   37.6300   31.8900   47.6970 N   0  0  0  0  0  0  0  0  0  0  0  0
   36.8970   30.7900   47.6270 C   0  0  0  0  0  0  0  0  0  0  0  0
   36.7740   30.0060   48.7180 N   0  0  0  0  0  0  0  0  0  0  0  0
   37.2880   29.5180   51.1060 C   0  0  0  0  0  0  0  0  0  0  0  0
   35.9210   29.2850   51.3520 F   0  0  0  0  0  0  0  0  0  0  0  0
   37.9610   28.3770   50.9200 F   0  0  0  0  0  0  0  0  0  0  0  0
   37.7390   30.2610   52.1640 F   0  0  0  0  0  0  0  0  0  0  0  0
   39.0700   33.5530   48.7480 C   0  0  0  0  0  0  0  0  0  0  0  0
   39.5420   33.9650   50.1350 C   0  0  0  0  0  0  0  0  0  0  0  0
   34.3797   29.8638   47.3857 H   0  0  0  0  0  0  0  0  0  0  0  0
   33.2552   29.2698   45.2760 H   0  0  0  0  0  0  0  0  0  0  0  0
   34.3653   29.4723   43.0790 H   0  0  0  0  0  0  0  0  0  0  0  0
   36.7425   30.3163   43.0290 H   0  0  0  0  0  0  0  0  0  0  0  0
   39.4541   29.4018   45.2481 H   0  0  0  0  0  0  0  0  0  0  0  0
   39.8880   30.5019   43.9150 H   0  0  0  0  0  0  0  0  0  0  0  0
   39.7959   31.3387   46.8617 H   0  0  0  0  0  0  0  0  0  0  0  0
   41.2851   30.7934   46.0378 H   0  0  0  0  0  0  0  0  0  0  0  0
   40.4339   33.2782   46.0980 H   0  0  0  0  0  0  0  0  0  0  0  0
   39.8026   32.5541   43.3895 H   0  0  0  0  0  0  0  0  0  0  0  0
   39.3875   34.0328   44.3934 H   0  0  0  0  0  0  0  0  0  0  0  0
   37.7040   32.9261   45.5238 H   0  0  0  0  0  0  0  0  0  0  0  0
   37.5077   32.5307   43.7574 H   0  0  0  0  0  0  0  0  0  0  0  0
   38.6855   31.7978   50.8804 H   0  0  0  0  0  0  0  0  0  0  0  0
   39.9465   33.3973   48.1019 H   0  0  0  0  0  0  0  0  0  0  0  0
   38.4296   34.3518   48.3456 H   0  0  0  0  0  0  0  0  0  0  0  0
   38.9437   33.4427   50.8961 H   0  0  0  0  0  0  0  0  0  0  0  0
   40.6024   33.6984   50.2557 H   0  0  0  0  0  0  0  0  0  0  0  0
   39.4211   35.0517   50.2557 H   0  0  0  0  0  0  0  0  0  0  0  0
  1  2  2  0
  1 17  1  0
  3  2  1  0
  4  3  2  0
  5  4  1  0
  5  6  2  0
  6  1  1  0
  7  6  1  0
  8  7  1  0
  8  9  1  0
 10  9  1  0
 11 12  1  0
 11 10  1  0
 12  7  1  0
 13 14  2  0
 13 19  1  0
 15 14  1  0
 16 15  2  0
 17 16  1  0
 17 18  2  0
 18 13  1  0
 19 20  1  0
 19 22  1  0
 21 19  1  0
 23 15  1  0
 23 24  1  0
  2 25  1  0
  3 26  1  0
  4 27  1  0
  5 28  1  0
  8 29  1  0
  8 30  1  0
  9 31  1  0
  9 32  1  0
 10 33  1  0
 11 34  1  0
 11 35  1  0
 12 36  1  0
 12 37  1  0
 14 38  1  0
 23 39  1  0
 23 40  1  0
 24 41  1  0
 24 42  1  0
 24 43  1  0
M  ISO  8  25  14  26  14  27  14  28  14  29  13  30  13  31  13  32  13
M  ISO  8  33   5  34  13  35  13  36  13  37  13  38  14  39   8  40   8
M  ISO  3  41   8  42   8  43   8
M  END
>  <minimizedAffinity>  (1) 
-7.09881783

>  <minimizedRMSD>  (1) 
0.576452076

$$$$
