
     RDKit          3D

 39 41  0  0  0  0  0  0  0  0999 V2000
   36.0920   30.4190   46.5460 C   0  0  0  0  0  0  0  0  0  0  0  0
   34.7750   29.9660   46.5920 C   0  0  0  0  0  0  0  0  0  0  0  0
   34.1290   29.6450   45.4100 C   0  0  0  0  0  0  0  0  0  0  0  0
   34.7160   29.7480   44.1740 C   0  0  0  0  0  0  0  0  0  0  0  0
   36.0320   30.2000   44.1190 C   0  0  0  0  0  0  0  0  0  0  0  0
   36.6610   30.5160   45.3160 C   0  0  0  0  0  0  0  0  0  0  0  0
   37.9910   30.9590   45.0700 N   0  0  0  0  0  0  0  0  0  0  0  0
   39.3100   30.4010   45.0600 C   0  0  0  0  0  0  0  0  0  0  0  0
   40.1620   31.2330   45.9900 C   0  0  0  0  0  0  0  0  0  0  0  0
   40.3500   32.5320   45.3860 N   0  0  0  0  0  0  0  0  0  0  0  0
   39.3500   32.8700   44.4340 C   0  0  0  0  0  0  0  0  0  0  0  0
   37.9830   32.3480   44.7390 C   0  0  0  0  0  0  0  0  0  0  0  0
   37.3340   30.3020   49.9770 C   0  0  0  0  0  0  0  0  0  0  0  0
   38.1090   31.4700   50.0620 C   0  0  0  0  0  0  0  0  0  0  0  0
   38.1910   32.2780   48.9280 C   0  0  0  0  0  0  0  0  0  0  0  0
   37.5120   31.8650   47.8320 N   0  0  0  0  0  0  0  0  0  0  0  0
   36.7840   30.7610   47.7630 C   0  0  0  0  0  0  0  0  0  0  0  0
   36.6920   29.9670   48.8480 N   0  0  0  0  0  0  0  0  0  0  0  0
   37.2540   29.4440   51.2160 C   0  0  0  0  0  0  0  0  0  0  0  0
   35.8940   29.1800   51.4710 F   0  0  0  0  0  0  0  0  0  0  0  0
   37.9520   28.3230   51.0100 F   0  0  0  0  0  0  0  0  0  0  0  0
   37.7080   30.1910   52.2800 F   0  0  0  0  0  0  0  0  0  0  0  0
   38.9630   33.4860   48.9380 C   0  0  0  0  0  0  0  0  0  0  0  0
   39.4750   33.8960   50.0140 O   0  0  0  0  0  0  0  0  0  0  0  0
   34.2547   29.8646   47.5559 H   0  0  0  0  0  0  0  0  0  0  0  0
   33.0898   29.2884   45.4648 H   0  0  0  0  0  0  0  0  0  0  0  0
   34.1664   29.4829   43.2588 H   0  0  0  0  0  0  0  0  0  0  0  0
   36.5567   30.3035   43.1577 H   0  0  0  0  0  0  0  0  0  0  0  0
   39.2795   29.3587   45.4102 H   0  0  0  0  0  0  0  0  0  0  0  0
   39.7264   30.4089   44.0419 H   0  0  0  0  0  0  0  0  0  0  0  0
   39.6562   31.3429   46.9606 H   0  0  0  0  0  0  0  0  0  0  0  0
   41.1341   30.7452   46.1545 H   0  0  0  0  0  0  0  0  0  0  0  0
   40.3416   33.2418   46.1323 H   0  0  0  0  0  0  0  0  0  0  0  0
   39.6586   32.4676   43.4579 H   0  0  0  0  0  0  0  0  0  0  0  0
   39.2699   33.9670   44.4496 H   0  0  0  0  0  0  0  0  0  0  0  0
   37.5716   32.9113   45.5896 H   0  0  0  0  0  0  0  0  0  0  0  0
   37.3674   32.4736   43.8361 H   0  0  0  0  0  0  0  0  0  0  0  0
   38.6334   31.7385   50.9910 H   0  0  0  0  0  0  0  0  0  0  0  0
   39.1082   34.0543   48.0075 H   0  0  0  0  0  0  0  0  0  0  0  0
  1  2  2  0
  1 17  1  0
  3  2  1  0
  4  3  2  0
  5  4  1  0
  5  6  2  0
  6  1  1  0
  7  6  1  0
  8  7  1  0
  8  9  1  0
 10  9  1  0
 11 12  1  0
 11 10  1  0
 12  7  1  0
 13 14  2  0
 13 19  1  0
 15 23  1  0
 15 14  1  0
 16 15  2  0
 17 16  1  0
 17 18  2  0
 18 13  1  0
 19 20  1  0
 19 22  1  0
 21 19  1  0
 23 24  2  0
  2 25  1  0
  3 26  1  0
  4 27  1  0
  5 28  1  0
  8 29  1  0
  8 30  1  0
  9 31  1  0
  9 32  1  0
 10 33  1  0
 11 34  1  0
 11 35  1  0
 12 36  1  0
 12 37  1  0
 14 38  1  0
 23 39  1  0
M  ISO  8  25  14  26  14  27  14  28  14  29  13  30  13  31  13  32  13
M  ISO  7  33   5  34  13  35  13  36  13  37  13  38  14  39   6
M  END
>  <minimizedAffinity>  (1) 
-7.06430864

>  <minimizedRMSD>  (1) 
0.281520903

$$$$
