
     RDKit          3D

 41 43  0  0  0  0  0  0  0  0999 V2000
   36.1470   30.3050   46.0380 C   0  0  0  0  0  0  0  0  0  0  0  0
   34.8060   29.9170   46.1360 C   0  0  0  0  0  0  0  0  0  0  0  0
   34.1360   29.4960   45.0050 C   0  0  0  0  0  0  0  0  0  0  0  0
   34.7110   29.4300   43.7640 C   0  0  0  0  0  0  0  0  0  0  0  0
   36.0560   29.8150   43.6470 C   0  0  0  0  0  0  0  0  0  0  0  0
   36.7030   30.2350   44.8010 C   0  0  0  0  0  0  0  0  0  0  0  0
   38.0480   30.5850   44.5020 N   0  0  0  0  0  0  0  0  0  0  0  0
   39.3580   30.0040   44.6190 C   0  0  0  0  0  0  0  0  0  0  0  0
   40.2100   30.9720   45.3870 C   0  0  0  0  0  0  0  0  0  0  0  0
   40.4510   32.1340   44.5500 N   0  0  0  0  0  0  0  0  0  0  0  0
   39.4640   32.3220   43.5480 C   0  0  0  0  0  0  0  0  0  0  0  0
   38.0790   31.8900   43.9080 C   0  0  0  0  0  0  0  0  0  0  0  0
   37.4340   30.4970   49.4470 C   0  0  0  0  0  0  0  0  0  0  0  0
   38.2410   31.6570   49.4000 C   0  0  0  0  0  0  0  0  0  0  0  0
   38.3220   32.3460   48.1890 C   0  0  0  0  0  0  0  0  0  0  0  0
   37.6130   31.8360   47.1530 N   0  0  0  0  0  0  0  0  0  0  0  0
   36.8610   30.7490   47.2040 C   0  0  0  0  0  0  0  0  0  0  0  0
   36.7720   30.0730   48.3660 N   0  0  0  0  0  0  0  0  0  0  0  0
   39.7130   34.3550   49.1110 C   0  0  0  0  0  0  0  0  0  0  0  0
   39.5470   34.1020   50.3270 O   0  0  0  0  0  0  0  0  0  0  0  0
   39.1190   33.5030   48.1220 N   0  0  0  0  0  0  0  0  0  0  0  0
   37.3620   29.7810   50.7630 C   0  0  0  0  0  0  0  0  0  0  0  0
   36.0120   29.7190   51.1500 F   0  0  0  0  0  0  0  0  0  0  0  0
   37.8910   28.5610   50.6180 F   0  0  0  0  0  0  0  0  0  0  0  0
   37.9870   30.5420   51.7140 F   0  0  0  0  0  0  0  0  0  0  0  0
   34.2898   29.9473   47.1069 H   0  0  0  0  0  0  0  0  0  0  0  0
   33.0822   29.1971   45.1062 H   0  0  0  0  0  0  0  0  0  0  0  0
   34.1390   29.0872   42.8892 H   0  0  0  0  0  0  0  0  0  0  0  0
   36.5768   29.7850   42.6786 H   0  0  0  0  0  0  0  0  0  0  0  0
   39.2982   29.0465   45.1571 H   0  0  0  0  0  0  0  0  0  0  0  0
   39.7880   29.8110   43.6251 H   0  0  0  0  0  0  0  0  0  0  0  0
   39.6887   31.2778   46.3061 H   0  0  0  0  0  0  0  0  0  0  0  0
   41.1646   30.4997   45.6623 H   0  0  0  0  0  0  0  0  0  0  0  0
   40.4699   32.9706   45.1506 H   0  0  0  0  0  0  0  0  0  0  0  0
   39.7740   31.7539   42.6585 H   0  0  0  0  0  0  0  0  0  0  0  0
   39.4051   33.4087   43.3877 H   0  0  0  0  0  0  0  0  0  0  0  0
   37.6584   32.6129   44.6225 H   0  0  0  0  0  0  0  0  0  0  0  0
   37.4897   31.8491   42.9801 H   0  0  0  0  0  0  0  0  0  0  0  0
   38.7873   32.0051   50.2890 H   0  0  0  0  0  0  0  0  0  0  0  0
   40.3110   35.2257   48.8038 H   0  0  0  0  0  0  0  0  0  0  0  0
   39.3186   33.8022   47.1568 H   0  0  0  0  0  0  0  0  0  0  0  0
  1  2  2  0
  1 17  1  0
  3  2  1  0
  4  3  2  0
  5  4  1  0
  5  6  2  0
  6  1  1  0
  7  8  1  0
  7  6  1  0
  8  9  1  0
 10  9  1  0
 11 12  1  0
 11 10  1  0
 12  7  1  0
 13 22  1  0
 14 13  2  0
 15 14  1  0
 16 17  1  0
 16 15  2  0
 17 18  2  0
 18 13  1  0
 19 20  2  0
 21 15  1  0
 21 19  1  0
 22 23  1  0
 22 25  1  0
 24 22  1  0
  2 26  1  0
  3 27  1  0
  4 28  1  0
  5 29  1  0
  8 30  1  0
  8 31  1  0
  9 32  1  0
  9 33  1  0
 10 34  1  0
 11 35  1  0
 11 36  1  0
 12 37  1  0
 12 38  1  0
 14 39  1  0
 19 40  1  0
 21 41  1  0
M  ISO  8  26  14  27  14  28  14  29  14  30  13  31  13  32  13  33  13
M  ISO  7  34   5  35  13  36  13  37  13  38  13  39  14  40   6
M  END
>  <minimizedAffinity>  (1) 
-7.02507591

>  <minimizedRMSD>  (1) 
0.777023137

$$$$
