
     RDKit          3D

 16 16  0  0  0  0  0  0  0  0999 V2000
   37.4400   30.3150   51.3800 C   0  0  0  0  0  0  0  0  0  0  0  0
   38.1300   30.8840   50.2740 C   0  0  0  0  0  0  0  0  0  0  0  0
   37.7250   30.4910   48.9840 C   0  0  0  0  0  0  0  0  0  0  0  0
   36.7070   29.5960   48.8710 N   0  0  0  0  0  0  0  0  0  0  0  0
   36.0750   29.0770   49.9410 C   0  0  0  0  0  0  0  0  0  0  0  0
   36.4400   29.4340   51.1960 N   0  0  0  0  0  0  0  0  0  0  0  0
   35.0650   28.1820   49.6100 O   0  0  0  0  0  0  0  0  0  0  0  0
   32.5170   28.0770   49.0420 O   0  0  0  0  0  0  0  0  0  0  0  0
   33.8590   28.4980   48.4590 P   0  0  0  0  0  0  0  0  0  0  0  0
   34.0620   27.5920   47.0490 O   0  0  0  0  0  0  0  0  0  0  0  0
   33.7250   30.1150   48.0360 O   0  0  0  0  0  0  0  0  0  0  0  0
   37.7287   30.5999   52.4025 H   0  0  0  0  0  0  0  0  0  0  0  0
   38.9488   31.6037   50.4209 H   0  0  0  0  0  0  0  0  0  0  0  0
   38.2197   30.8977   48.0897 H   0  0  0  0  0  0  0  0  0  0  0  0
   34.2721   26.6542   47.2867 H   0  0  0  0  0  0  0  0  0  0  0  0
   33.6792   30.6679   48.8559 H   0  0  0  0  0  0  0  0  0  0  0  0
  2  1  2  0
  3  2  1  0
  4  3  2  0
  4  5  1  0
  5  6  2  0
  6  1  1  0
  7  5  1  0
  9  8  2  0
  9  7  1  0
 10  9  1  0
 11  9  1  0
  1 12  1  0
  2 13  1  0
  3 14  1  0
 10 15  1  0
 11 16  1  0
M  ISO  5  12  14  13  14  14  14  15   3  16   3
M  END
>  <minimizedAffinity>  (1) 
-3.96950626

>  <minimizedRMSD>  (1) 
0.673991859

$$$$
