
     RDKit          3D

 32 34  0  0  0  0  0  0  0  0999 V2000
   32.5480   29.5950   46.7630 O   0  0  0  0  0  0  0  0  0  0  0  0
   34.0150   29.2260   46.9900 P   0  0  2  0  0  0  0  0  0  0  0  0
   34.2600   27.7410   46.2480 O   0  0  0  0  0  0  0  0  0  0  0  0
   34.2870   29.1810   48.6540 O   0  0  0  0  0  0  0  0  0  0  0  0
   36.6110   31.5710   50.1620 C   0  0  0  0  0  0  0  0  0  0  0  0
   37.6340   30.6560   50.5710 C   0  0  0  0  0  0  0  0  0  0  0  0
   37.4680   29.2920   50.3070 C   0  0  0  0  0  0  0  0  0  0  0  0
   36.3270   28.8990   49.6690 N   0  0  0  0  0  0  0  0  0  0  0  0
   35.3730   29.7870   49.2920 C   0  0  0  0  0  0  0  0  0  0  0  0
   35.5170   31.1130   49.5390 N   0  0  0  0  0  0  0  0  0  0  0  0
   34.9340   30.3970   46.1950 O   0  0  0  0  0  0  0  0  0  0  0  0
   35.8160   30.1000   45.1690 C   0  0  0  0  0  0  0  0  0  0  0  0
   35.5060   29.5380   43.9490 C   0  0  0  0  0  0  0  0  0  0  0  0
   36.5170   29.3060   43.0310 C   0  0  0  0  0  0  0  0  0  0  0  0
   37.8420   29.6150   43.2780 C   0  0  0  0  0  0  0  0  0  0  0  0
   38.1210   30.1780   44.5110 C   0  0  0  0  0  0  0  0  0  0  0  0
   39.4520   30.4790   44.7350 C   0  0  0  0  0  0  0  0  0  0  0  0
   39.8380   31.0510   45.9510 C   0  0  0  0  0  0  0  0  0  0  0  0
   38.8590   31.3030   46.9090 C   0  0  0  0  0  0  0  0  0  0  0  0
   37.5360   30.9930   46.6560 C   0  0  0  0  0  0  0  0  0  0  0  0
   37.1300   30.4260   45.4620 C   0  0  0  0  0  0  0  0  0  0  0  0
   34.3754   27.0417   46.9393 H   0  0  0  0  0  0  0  0  0  0  0  0
   36.7233   32.6474   50.3589 H   0  0  0  0  0  0  0  0  0  0  0  0
   38.5361   31.0198   51.0846 H   0  0  0  0  0  0  0  0  0  0  0  0
   38.2329   28.5594   50.6042 H   0  0  0  0  0  0  0  0  0  0  0  0
   34.4654   29.2762   43.7068 H   0  0  0  0  0  0  0  0  0  0  0  0
   36.2541   28.8559   42.0623 H   0  0  0  0  0  0  0  0  0  0  0  0
   38.6307   29.4239   42.5354 H   0  0  0  0  0  0  0  0  0  0  0  0
   40.2038   30.2693   43.9599 H   0  0  0  0  0  0  0  0  0  0  0  0
   40.8922   31.2967   46.1468 H   0  0  0  0  0  0  0  0  0  0  0  0
   39.1405   31.7516   47.8731 H   0  0  0  0  0  0  0  0  0  0  0  0
   36.7823   31.2040   47.4289 H   0  0  0  0  0  0  0  0  0  0  0  0
  2  1  2  0
  2  4  1  0
  3  2  1  0
  4  9  1  0
  5  6  2  0
  7  6  1  0
  8  7  2  0
  9 10  2  0
  9  8  1  0
 10  5  1  0
 11  2  1  0
 12 21  1  0
 12 11  1  0
 13 12  2  0
 14 15  2  0
 14 13  1  0
 15 16  1  0
 16 17  1  0
 16 21  2  0
 17 18  2  0
 18 19  1  0
 20 19  2  0
 21 20  1  0
  3 22  1  0
  5 23  1  0
  6 24  1  0
  7 25  1  0
 13 26  1  0
 14 27  1  0
 15 28  1  0
 17 29  1  0
 18 30  1  0
 19 31  1  0
 20 32  1  0
M  ISO  8  22   3  23  14  24  14  25  14  26  14  27  14  28  14  29  14
M  ISO  3  30  14  31  14  32  14
M  END
>  <minimizedAffinity>  (1) 
-4.93554163

>  <minimizedRMSD>  (1) 
4.95697117

$$$$
