
     RDKit          3D

 26 27  0  0  0  0  0  0  0  0999 V2000
   32.5110   28.0890   49.1190 O   0  0  0  0  0  0  0  0  0  0  0  0
   33.8680   28.3330   48.4930 P   0  0  2  0  0  0  0  0  0  0  0  0
   34.0120   27.2110   47.2280 O   0  0  0  0  0  0  0  0  0  0  0  0
   35.0560   28.0850   49.6820 O   0  0  0  0  0  0  0  0  0  0  0  0
   37.3400   30.3510   51.4220 C   0  0  0  0  0  0  0  0  0  0  0  0
   38.0670   30.8510   50.3020 C   0  0  0  0  0  0  0  0  0  0  0  0
   37.7190   30.3730   49.0290 C   0  0  0  0  0  0  0  0  0  0  0  0
   36.7200   29.4700   48.9320 N   0  0  0  0  0  0  0  0  0  0  0  0
   36.0390   29.0050   50.0070 C   0  0  0  0  0  0  0  0  0  0  0  0
   36.3610   29.4550   51.2440 N   0  0  0  0  0  0  0  0  0  0  0  0
   33.8650   29.8730   47.8550 O   0  0  0  0  0  0  0  0  0  0  0  0
   33.8320   30.1330   46.5010 C   0  0  0  0  0  0  0  0  0  0  0  0
   32.6430   30.5440   45.9460 C   0  0  0  0  0  0  0  0  0  0  0  0
   32.6180   30.8010   44.5950 C   0  0  0  0  0  0  0  0  0  0  0  0
   33.7160   30.6650   43.7900 C   0  0  0  0  0  0  0  0  0  0  0  0
   34.8740   30.2500   44.4140 C   0  0  0  0  0  0  0  0  0  0  0  0
   35.0070   29.9640   45.7720 C   0  0  0  0  0  0  0  0  0  0  0  0
   34.1286   26.3027   47.6042 H   0  0  0  0  0  0  0  0  0  0  0  0
   37.5841   30.7024   52.4354 H   0  0  0  0  0  0  0  0  0  0  0  0
   38.8741   31.5872   50.4313 H   0  0  0  0  0  0  0  0  0  0  0  0
   38.2479   30.7259   48.1313 H   0  0  0  0  0  0  0  0  0  0  0  0
   31.7402   30.6635   46.5630 H   0  0  0  0  0  0  0  0  0  0  0  0
   31.6720   31.1310   44.1409 H   0  0  0  0  0  0  0  0  0  0  0  0
   33.6776   30.8739   42.7107 H   0  0  0  0  0  0  0  0  0  0  0  0
   35.7698   30.1348   43.7860 H   0  0  0  0  0  0  0  0  0  0  0  0
   35.9532   29.6350   46.2263 H   0  0  0  0  0  0  0  0  0  0  0  0
  2  1  2  0
  2  4  1  0
  3  2  1  0
  4  9  1  0
  6  5  2  0
  7  6  1  0
  8  7  2  0
  8  9  1  0
  9 10  2  0
 10  5  1  0
 11  2  1  0
 12 11  1  0
 13 12  2  0
 14 13  1  0
 15 16  1  0
 15 14  2  0
 16 17  2  0
 17 12  1  0
  3 18  1  0
  5 19  1  0
  6 20  1  0
  7 21  1  0
 13 22  1  0
 14 23  1  0
 15 24  1  0
 16 25  1  0
 17 26  1  0
M  ISO  8  18   3  19  14  20  14  21  14  22  14  23  14  24  14  25  14
M  ISO  1  26  14
M  END
>  <minimizedAffinity>  (1) 
-4.39222956

>  <minimizedRMSD>  (1) 
0.785624743

$$$$
