
     RDKit          3D

 23 24  0  0  0  0  0  0  0  0999 V2000
   37.3320   30.3020   51.3810 C   0  0  0  0  0  0  0  0  0  0  0  0
   38.0250   30.6700   50.1850 C   0  0  0  0  0  0  0  0  0  0  0  0
   37.5430   30.1670   48.9710 C   0  0  0  0  0  0  0  0  0  0  0  0
   36.4530   29.3610   48.9760 N   0  0  0  0  0  0  0  0  0  0  0  0
   35.8200   29.0320   50.1280 C   0  0  0  0  0  0  0  0  0  0  0  0
   36.2600   29.5020   51.3100 N   0  0  0  0  0  0  0  0  0  0  0  0
   34.7240   28.1990   49.9350 O   0  0  0  0  0  0  0  0  0  0  0  0
   32.3140   27.9700   48.9620 O   0  0  0  0  0  0  0  0  0  0  0  0
   33.7600   28.2110   48.5450 P   0  0  2  0  0  0  0  0  0  0  0  0
   34.1450   26.9850   47.4620 O   0  0  0  0  0  0  0  0  0  0  0  0
   33.7750   29.6710   47.7160 O   0  0  0  0  0  0  0  0  0  0  0  0
   33.0320   29.6110   46.5350 C   0  0  0  0  0  0  0  0  0  0  0  0
   32.4320   30.7850   45.9000 C   0  0  0  0  0  0  0  0  0  0  0  0
   33.6410   30.1730   45.2790 C   0  0  0  0  0  0  0  0  0  0  0  0
   37.6784   30.6749   52.3562 H   0  0  0  0  0  0  0  0  0  0  0  0
   38.9071   31.3263   50.2182 H   0  0  0  0  0  0  0  0  0  0  0  0
   38.0424   30.4225   48.0248 H   0  0  0  0  0  0  0  0  0  0  0  0
   34.4008   26.1704   47.9631 H   0  0  0  0  0  0  0  0  0  0  0  0
   32.6162   28.6489   46.8689 H   0  0  0  0  0  0  0  0  0  0  0  0
   31.4565   30.6969   45.3994 H   0  0  0  0  0  0  0  0  0  0  0  0
   32.1704   31.7970   46.2427 H   0  0  0  0  0  0  0  0  0  0  0  0
   33.5585   29.6239   44.3294 H   0  0  0  0  0  0  0  0  0  0  0  0
   34.6375   30.5297   44.9794 H   0  0  0  0  0  0  0  0  0  0  0  0
  2  1  2  0
  3  4  2  0
  3  2  1  0
  4  5  1  0
  5  6  2  0
  6  1  1  0
  7  5  1  0
  9  8  2  0
  9  7  1  0
 10  9  1  0
 11  9  1  0
 12 11  1  0
 13 12  1  0
 14 13  1  0
 14 12  1  0
  1 15  1  0
  2 16  1  0
  3 17  1  0
 10 18  1  0
 12 19  1  0
 13 20  1  0
 13 21  1  0
 14 22  1  0
 14 23  1  0
M  ISO  8  15  14  16  14  17  14  18   3  19  13  20  13  21  13  22  13
M  ISO  1  23  13
M  END
>  <minimizedAffinity>  (1) 
-3.97416353

>  <minimizedRMSD>  (1) 
1.76280546

$$$$
