
     RDKit          3D

 22 22  0  0  0  0  0  0  0  0999 V2000
   37.3540   30.3620   51.3980 C   0  0  0  0  0  0  0  0  0  0  0  0
   38.0770   30.8670   50.2930 C   0  0  0  0  0  0  0  0  0  0  0  0
   37.7430   30.4040   49.0160 C   0  0  0  0  0  0  0  0  0  0  0  0
   36.7380   29.4930   48.9010 N   0  0  0  0  0  0  0  0  0  0  0  0
   36.0620   29.0270   49.9680 C   0  0  0  0  0  0  0  0  0  0  0  0
   36.3740   29.4650   51.2190 N   0  0  0  0  0  0  0  0  0  0  0  0
   35.0750   28.1020   49.6410 O   0  0  0  0  0  0  0  0  0  0  0  0
   32.5240   28.0780   49.0510 O   0  0  0  0  0  0  0  0  0  0  0  0
   33.8950   28.3640   48.4650 P   0  0  2  0  0  0  0  0  0  0  0  0
   34.0530   27.3190   47.1500 O   0  0  0  0  0  0  0  0  0  0  0  0
   33.8390   29.9410   47.8780 O   0  0  0  0  0  0  0  0  0  0  0  0
   33.9090   30.0070   46.5020 C   0  0  0  0  0  0  0  0  0  0  0  0
   32.6320   30.6120   45.9820 C   0  0  0  0  0  0  0  0  0  0  0  0
   37.5977   30.7081   52.4133 H   0  0  0  0  0  0  0  0  0  0  0  0
   38.8809   31.6045   50.4337 H   0  0  0  0  0  0  0  0  0  0  0  0
   38.2791   30.7670   48.1268 H   0  0  0  0  0  0  0  0  0  0  0  0
   34.1927   26.3952   47.4775 H   0  0  0  0  0  0  0  0  0  0  0  0
   34.7632   30.6330   46.2044 H   0  0  0  0  0  0  0  0  0  0  0  0
   34.0427   28.9980   46.0848 H   0  0  0  0  0  0  0  0  0  0  0  0
   31.9974   30.9127   46.8287 H   0  0  0  0  0  0  0  0  0  0  0  0
   32.8674   31.4943   45.3687 H   0  0  0  0  0  0  0  0  0  0  0  0
   32.0983   29.8710   45.3687 H   0  0  0  0  0  0  0  0  0  0  0  0
  2  1  2  0
  3  2  1  0
  4  3  2  0
  4  5  1  0
  5  6  2  0
  6  1  1  0
  7  5  1  0
  9  8  2  0
  9  7  1  0
 10  9  1  0
 11  9  1  0
 12 11  1  0
 13 12  1  0
  1 14  1  0
  2 15  1  0
  3 16  1  0
 10 17  1  0
 12 18  1  0
 12 19  1  0
 13 20  1  0
 13 21  1  0
 13 22  1  0
M  ISO  8  14  14  15  14  16  14  17   3  18   8  19   8  20   8  21   8
M  ISO  1  22   8
M  END
>  <minimizedAffinity>  (1) 
-3.79514456

>  <minimizedRMSD>  (1) 
0.274234295

$$$$
