
     RDKit          3D

 19 19  0  0  0  0  0  0  0  0999 V2000
   37.3360   30.3590   51.3860 C   0  0  0  0  0  0  0  0  0  0  0  0
   38.0720   30.8630   50.2910 C   0  0  0  0  0  0  0  0  0  0  0  0
   37.7230   30.3860   49.0110 C   0  0  0  0  0  0  0  0  0  0  0  0
   36.7150   29.4840   48.9030 N   0  0  0  0  0  0  0  0  0  0  0  0
   36.0420   29.0330   49.9760 C   0  0  0  0  0  0  0  0  0  0  0  0
   36.3500   29.4680   51.2210 N   0  0  0  0  0  0  0  0  0  0  0  0
   35.0480   28.1140   49.6590 O   0  0  0  0  0  0  0  0  0  0  0  0
   32.4990   28.0620   49.0660 O   0  0  0  0  0  0  0  0  0  0  0  0
   33.8760   28.3490   48.4600 P   0  0  2  0  0  0  0  0  0  0  0  0
   34.0570   27.2690   47.1730 O   0  0  0  0  0  0  0  0  0  0  0  0
   33.8310   29.9100   47.8550 O   0  0  0  0  0  0  0  0  0  0  0  0
   33.9550   29.9750   46.4880 C   0  0  0  0  0  0  0  0  0  0  0  0
   37.5790   30.7074   52.4007 H   0  0  0  0  0  0  0  0  0  0  0  0
   38.8812   31.5949   50.4306 H   0  0  0  0  0  0  0  0  0  0  0  0
   38.2578   30.7384   48.1167 H   0  0  0  0  0  0  0  0  0  0  0  0
   34.2098   26.3570   47.5265 H   0  0  0  0  0  0  0  0  0  0  0  0
   34.9019   30.4713   46.2289 H   0  0  0  0  0  0  0  0  0  0  0  0
   33.9482   28.9574   46.0704 H   0  0  0  0  0  0  0  0  0  0  0  0
   33.1142   30.5483   46.0704 H   0  0  0  0  0  0  0  0  0  0  0  0
  2  1  2  0
  3  2  1  0
  4  3  2  0
  4  5  1  0
  5  6  2  0
  6  1  1  0
  7  5  1  0
  9  8  2  0
  9  7  1  0
 10  9  1  0
 11  9  1  0
 12 11  1  0
  1 13  1  0
  2 14  1  0
  3 15  1  0
 10 16  1  0
 12 17  1  0
 12 18  1  0
 12 19  1  0
M  ISO  7  13  14  14  14  15  14  16   3  17   8  18   8  19   8
M  END
>  <minimizedAffinity>  (1) 
-3.73671365

>  <minimizedRMSD>  (1) 
0.565603912

$$$$
