
     RDKit          3D

 20 21  0  0  0  0  0  0  0  0999 V2000
   36.2280   30.2080   49.6620 C   0  0  0  0  0  0  0  0  0  0  0  0
   35.3970   29.3950   48.8100 C   0  0  0  0  0  0  0  0  0  0  0  0
   34.7610   30.5390   49.5180 C   0  0  0  0  0  0  0  0  0  0  0  0
   38.1470   33.3280   49.2070 C   0  0  0  0  0  0  0  0  0  0  0  0
   38.9940   33.0270   48.1380 C   0  0  0  0  0  0  0  0  0  0  0  0
   38.9210   31.7500   47.5700 C   0  0  0  0  0  0  0  0  0  0  0  0
   38.0300   30.8930   48.0970 N   0  0  0  0  0  0  0  0  0  0  0  0
   37.2090   31.2010   49.1430 C   0  0  0  0  0  0  0  0  0  0  0  0
   37.2720   32.4160   49.6920 N   0  0  0  0  0  0  0  0  0  0  0  0
   36.6560   29.6190   51.0090 C   0  0  0  0  0  0  0  0  0  0  0  0
   37.5980   28.6210   50.7760 F   0  0  0  0  0  0  0  0  0  0  0  0
   37.2310   30.5490   51.8280 F   0  0  0  0  0  0  0  0  0  0  0  0
   35.5840   29.0480   51.6480 F   0  0  0  0  0  0  0  0  0  0  0  0
   35.1526   28.3654   49.1103 H   0  0  0  0  0  0  0  0  0  0  0  0
   35.4544   29.0831   47.7567 H   0  0  0  0  0  0  0  0  0  0  0  0
   34.4438   31.4324   48.9601 H   0  0  0  0  0  0  0  0  0  0  0  0
   33.9084   30.6739   50.1998 H   0  0  0  0  0  0  0  0  0  0  0  0
   38.1919   34.3273   49.6645 H   0  0  0  0  0  0  0  0  0  0  0  0
   39.7014   33.7756   47.7518 H   0  0  0  0  0  0  0  0  0  0  0  0
   39.5659   31.4599   46.7274 H   0  0  0  0  0  0  0  0  0  0  0  0
  1 10  1  0
  2  3  1  0
  2  1  1  0
  3  1  1  0
  4  9  2  0
  5  4  1  0
  6  7  1  0
  6  5  2  0
  7  8  2  0
  8  1  1  0
  8  9  1  0
 10 13  1  0
 10 12  1  0
 11 10  1  0
  2 14  1  0
  2 15  1  0
  3 16  1  0
  3 17  1  0
  4 18  1  0
  5 19  1  0
  6 20  1  0
M  ISO  7  14  13  15  13  16  13  17  13  18  14  19  14  20  14
M  END
>  <minimizedAffinity>  (1) 
-5.51321888

>  <minimizedRMSD>  (1) 
1.89759743

$$$$
