
     RDKit          3D

 31 33  0  0  0  0  0  0  0  0999 V2000
   35.7610   30.0820   47.5900 C   0  0  0  0  0  0  0  0  0  0  0  0
   34.7780   29.0590   47.3130 C   0  0  0  0  0  0  0  0  0  0  0  0
   34.2920   30.4480   47.5570 C   0  0  0  0  0  0  0  0  0  0  0  0
   36.3400   30.1580   48.9690 C   0  0  0  0  0  0  0  0  0  0  0  0
   36.0070   29.0020   49.8610 C   0  0  0  0  0  0  0  0  0  0  0  0
   36.2890   29.4530   51.2850 C   0  0  0  0  0  0  0  0  0  0  0  0
   37.0490   30.6100   51.3050 O   0  0  0  0  0  0  0  0  0  0  0  0
   38.1830   30.5290   50.5020 C   0  0  0  0  0  0  0  0  0  0  0  0
   37.8250   30.3830   49.0150 C   0  0  0  0  0  0  0  0  0  0  0  0
   38.2240   32.2170   45.8500 C   0  0  0  0  0  0  0  0  0  0  0  0
   38.1870   31.7810   44.5230 C   0  0  0  0  0  0  0  0  0  0  0  0
   37.3060   30.7320   44.2270 C   0  0  0  0  0  0  0  0  0  0  0  0
   36.5720   30.2350   45.2390 N   0  0  0  0  0  0  0  0  0  0  0  0
   36.6190   30.6680   46.5180 C   0  0  0  0  0  0  0  0  0  0  0  0
   37.4580   31.6690   46.8120 N   0  0  0  0  0  0  0  0  0  0  0  0
   34.5830   28.2751   48.0597 H   0  0  0  0  0  0  0  0  0  0  0  0
   34.6389   28.3309   46.5002 H   0  0  0  0  0  0  0  0  0  0  0  0
   33.8864   31.0494   46.7300 H   0  0  0  0  0  0  0  0  0  0  0  0
   33.5797   30.9291   48.2435 H   0  0  0  0  0  0  0  0  0  0  0  0
   35.8354   31.0534   49.3610 H   0  0  0  0  0  0  0  0  0  0  0  0
   34.9462   28.7324   49.7519 H   0  0  0  0  0  0  0  0  0  0  0  0
   36.6055   28.1165   49.6008 H   0  0  0  0  0  0  0  0  0  0  0  0
   35.3339   29.6428   51.7965 H   0  0  0  0  0  0  0  0  0  0  0  0
   36.8528   28.6584   51.7957 H   0  0  0  0  0  0  0  0  0  0  0  0
   38.7792   31.4437   50.6358 H   0  0  0  0  0  0  0  0  0  0  0  0
   38.7508   29.6367   50.8043 H   0  0  0  0  0  0  0  0  0  0  0  0
   38.3557   29.5253   48.5761 H   0  0  0  0  0  0  0  0  0  0  0  0
   38.1164   31.2744   48.4401 H   0  0  0  0  0  0  0  0  0  0  0  0
   38.9043   33.0386   46.1187 H   0  0  0  0  0  0  0  0  0  0  0  0
   38.8190   32.2391   43.7479 H   0  0  0  0  0  0  0  0  0  0  0  0
   37.2181   30.3305   43.2067 H   0  0  0  0  0  0  0  0  0  0  0  0
  1  4  1  0
  2  3  1  0
  2  1  1  0
  3  1  1  0
  4  9  1  0
  4  5  1  0
  5  6  1  0
  6  7  1  0
  8  7  1  0
  9  8  1  0
 10 15  2  0
 11 10  1  0
 12 11  2  0
 12 13  1  0
 13 14  2  0
 14 15  1  0
 14  1  1  0
  2 16  1  0
  2 17  1  0
  3 18  1  0
  3 19  1  0
  4 20  1  0
  5 21  1  0
  5 22  1  0
  6 23  1  0
  6 24  1  0
  8 25  1  0
  8 26  1  0
  9 27  1  0
  9 28  1  0
 10 29  1  0
 11 30  1  0
 12 31  1  0
M  ISO  8  16  13  17  13  18  13  19  13  20  13  21  13  22  13  23  13
M  ISO  8  24  13  25  13  26  13  27  13  28  13  29  14  30  14  31  14
M  END
>  <minimizedAffinity>  (1) 
-4.62409353

>  <minimizedRMSD>  (1) 
3.51485395

$$$$
