
     RDKit          3D

 20 21  0  0  0  0  0  0  0  0999 V2000
   38.3160   32.9200   48.9220 C   0  0  0  0  0  0  0  0  0  0  0  0
   38.8400   32.5320   47.6890 C   0  0  0  0  0  0  0  0  0  0  0  0
   38.5910   31.2250   47.2560 C   0  0  0  0  0  0  0  0  0  0  0  0
   37.8630   30.4350   48.0580 N   0  0  0  0  0  0  0  0  0  0  0  0
   37.3570   30.8360   49.2640 C   0  0  0  0  0  0  0  0  0  0  0  0
   37.5910   32.0800   49.6840 N   0  0  0  0  0  0  0  0  0  0  0  0
   36.5340   29.8970   50.0910 C   0  0  0  0  0  0  0  0  0  0  0  0
   35.7870   28.8140   49.4910 C   0  0  0  0  0  0  0  0  0  0  0  0
   35.0410   30.0090   49.9750 C   0  0  0  0  0  0  0  0  0  0  0  0
   37.0290   29.8790   51.5430 C   0  0  0  0  0  0  0  0  0  0  0  0
   38.5007   33.9427   49.2824 H   0  0  0  0  0  0  0  0  0  0  0  0
   39.4296   33.2305   47.0771 H   0  0  0  0  0  0  0  0  0  0  0  0
   38.9781   30.8593   46.2935 H   0  0  0  0  0  0  0  0  0  0  0  0
   35.6897   27.8569   50.0244 H   0  0  0  0  0  0  0  0  0  0  0  0
   35.8440   28.2801   48.5310 H   0  0  0  0  0  0  0  0  0  0  0  0
   34.5902   30.7109   49.2580 H   0  0  0  0  0  0  0  0  0  0  0  0
   34.2060   30.1927   50.6671 H   0  0  0  0  0  0  0  0  0  0  0  0
   36.1664   29.9104   52.2249 H   0  0  0  0  0  0  0  0  0  0  0  0
   37.6051   28.9593   51.7226 H   0  0  0  0  0  0  0  0  0  0  0  0
   37.6704   30.7544   51.7226 H   0  0  0  0  0  0  0  0  0  0  0  0
  1  6  2  0
  2  1  1  0
  3  2  2  0
  3  4  1  0
  4  5  2  0
  5  6  1  0
  5  7  1  0
  7 10  1  0
  8  9  1  0
  8  7  1  0
  9  7  1  0
  1 11  1  0
  2 12  1  0
  3 13  1  0
  8 14  1  0
  8 15  1  0
  9 16  1  0
  9 17  1  0
 10 18  1  0
 10 19  1  0
 10 20  1  0
M  ISO  8  11  14  12  14  13  14  14  13  15  13  16  13  17  13  18   8
M  ISO  2  19   8  20   8
M  END
>  <minimizedAffinity>  (1) 
-4.48874187

>  <minimizedRMSD>  (1) 
1.07661939

$$$$
