
     RDKit          3D

 19 20  0  0  0  0  0  0  0  0999 V2000
   36.8310   29.6160   50.0820 C   0  0  0  0  0  0  0  0  0  0  0  0
   35.8250   28.7440   49.4390 C   0  0  0  0  0  0  0  0  0  0  0  0
   35.4210   29.7640   50.4810 C   0  0  0  0  0  0  0  0  0  0  0  0
   38.1190   32.9850   49.1310 C   0  0  0  0  0  0  0  0  0  0  0  0
   38.6990   32.7260   47.8700 C   0  0  0  0  0  0  0  0  0  0  0  0
   38.6300   31.3940   47.3660 C   0  0  0  0  0  0  0  0  0  0  0  0
   38.0140   30.4570   48.1220 N   0  0  0  0  0  0  0  0  0  0  0  0
   37.4680   30.7380   49.3250 C   0  0  0  0  0  0  0  0  0  0  0  0
   37.5120   31.9830   49.8350 N   0  0  0  0  0  0  0  0  0  0  0  0
   37.7360   29.0140   51.0410 N   0  0  0  0  0  0  0  0  0  0  0  0
   35.5558   28.8958   48.3833 H   0  0  0  0  0  0  0  0  0  0  0  0
   35.6945   27.6592   49.3122 H   0  0  0  0  0  0  0  0  0  0  0  0
   35.0920   29.4343   51.4775 H   0  0  0  0  0  0  0  0  0  0  0  0
   34.7037   30.5969   50.5226 H   0  0  0  0  0  0  0  0  0  0  0  0
   38.1560   34.0013   49.5502 H   0  0  0  0  0  0  0  0  0  0  0  0
   39.1883   33.5260   47.2950 H   0  0  0  0  0  0  0  0  0  0  0  0
   39.0656   31.1357   46.3895 H   0  0  0  0  0  0  0  0  0  0  0  0
   37.4154   29.2272   51.9963 H   0  0  0  0  0  0  0  0  0  0  0  0
   37.7520   27.9933   50.9041 H   0  0  0  0  0  0  0  0  0  0  0  0
  1  3  1  0
  1 10  1  0
  2  1  1  0
  2  3  1  0
  4  9  2  0
  5  4  1  0
  6  5  2  0
  6  7  1  0
  7  8  2  0
  8  9  1  0
  8  1  1  0
  2 11  1  0
  2 12  1  0
  3 13  1  0
  3 14  1  0
  4 15  1  0
  5 16  1  0
  6 17  1  0
 10 18  1  0
 10 19  1  0
M  ISO  8  11  13  12  13  13  13  14  13  15  14  16  14  17  14  18   5
M  ISO  1  19   5
M  END
>  <minimizedAffinity>  (1) 
-4.14543533

>  <minimizedRMSD>  (1) 
0.716123104

$$$$
