
     RDKit          3D

 27 29  0  0  0  0  0  0  0  0999 V2000
   35.5570   30.0090   47.3520 C   0  0  0  0  0  0  0  0  0  0  0  0
   34.6060   29.0230   46.7860 C   0  0  0  0  0  0  0  0  0  0  0  0
   34.1280   30.4040   47.1420 C   0  0  0  0  0  0  0  0  0  0  0  0
   38.3440   32.2030   46.2980 C   0  0  0  0  0  0  0  0  0  0  0  0
   38.4720   31.8990   44.9290 C   0  0  0  0  0  0  0  0  0  0  0  0
   37.5910   30.9400   44.3730 C   0  0  0  0  0  0  0  0  0  0  0  0
   36.6680   30.3600   45.1860 N   0  0  0  0  0  0  0  0  0  0  0  0
   36.5730   30.6790   46.5120 C   0  0  0  0  0  0  0  0  0  0  0  0
   37.3990   31.5890   47.0630 N   0  0  0  0  0  0  0  0  0  0  0  0
   36.0260   29.8230   48.7660 C   0  0  0  0  0  0  0  0  0  0  0  0
   37.3530   29.8890   49.0740 C   0  0  0  0  0  0  0  0  0  0  0  0
   37.7750   29.7230   50.3920 C   0  0  0  0  0  0  0  0  0  0  0  0
   36.8130   29.4910   51.3700 C   0  0  0  0  0  0  0  0  0  0  0  0
   35.4570   29.4240   51.0440 C   0  0  0  0  0  0  0  0  0  0  0  0
   35.1280   29.5950   49.7500 N   0  0  0  0  0  0  0  0  0  0  0  0
   34.4510   29.1950   51.9720 O   0  0  0  0  0  0  0  0  0  0  0  0
   34.2872   28.1591   47.3877 H   0  0  0  0  0  0  0  0  0  0  0  0
   34.5795   28.4018   45.8786 H   0  0  0  0  0  0  0  0  0  0  0  0
   33.8634   31.1184   46.3485 H   0  0  0  0  0  0  0  0  0  0  0  0
   33.3289   30.8165   47.7755 H   0  0  0  0  0  0  0  0  0  0  0  0
   39.0151   32.9451   46.7550 H   0  0  0  0  0  0  0  0  0  0  0  0
   39.2349   32.3926   44.3090 H   0  0  0  0  0  0  0  0  0  0  0  0
   37.6518   30.6704   43.3083 H   0  0  0  0  0  0  0  0  0  0  0  0
   38.0920   30.0737   48.2804 H   0  0  0  0  0  0  0  0  0  0  0  0
   38.8425   29.7742   50.6525 H   0  0  0  0  0  0  0  0  0  0  0  0
   37.1256   29.3583   52.4163 H   0  0  0  0  0  0  0  0  0  0  0  0
   33.5061   29.1584   51.6789 H   0  0  0  0  0  0  0  0  0  0  0  0
  1 10  1  0
  2  3  1  0
  2  1  1  0
  3  1  1  0
  4  9  2  0
  5  4  1  0
  6  5  2  0
  6  7  1  0
  7  8  2  0
  8  9  1  0
  8  1  1  0
 10 11  2  0
 10 15  1  0
 11 12  1  0
 12 13  2  0
 14 13  1  0
 14 16  1  0
 15 14  2  0
  2 17  1  0
  2 18  1  0
  3 19  1  0
  3 20  1  0
  4 21  1  0
  5 22  1  0
  6 23  1  0
 11 24  1  0
 12 25  1  0
 13 26  1  0
 16 27  1  0
M  ISO  8  17  13  18  13  19  13  20  13  21  14  22  14  23  14  24  14
M  ISO  3  25  14  26  14  27   3
M  END
>  <minimizedAffinity>  (1) 
-4.4818387

>  <minimizedRMSD>  (1) 
0.278670669

$$$$
