
     RDKit          3D

 45 49  0  0  1  0  0  0  0  0999 V2000
   36.4070   30.4590   46.1550 C   0  0  0  0  0  0  0  0  0  0  0  0
   37.0230   30.7520   47.3220 C   0  0  0  0  0  0  0  0  0  0  0  0
   36.3800   30.5300   48.5400 C   0  0  0  0  0  0  0  0  0  0  0  0
   35.0930   30.0010   48.5160 C   0  0  0  0  0  0  0  0  0  0  0  0
   34.4670   29.7030   47.3150 C   0  0  0  0  0  0  0  0  0  0  0  0
   35.1560   29.9460   46.1670 N   0  0  0  0  0  0  0  0  0  0  0  0
   37.0890   30.6950   44.8310 C   0  0  0  0  0  0  0  0  0  0  0  0
   36.8290   29.7350   43.7230 C   0  0  0  0  0  0  0  0  0  0  0  0
   36.2440   31.1290   43.6850 C   0  0  0  0  0  0  0  0  0  0  0  0
   39.7180   33.2800   45.0270 C   0  0  0  0  0  0  0  0  0  0  0  0
   40.8630   32.5340   45.3400 C   0  0  0  0  0  0  0  0  0  0  0  0
   40.7320   31.1420   45.4830 C   0  0  0  0  0  0  0  0  0  0  0  0
   39.5090   30.5850   45.3130 N   0  0  0  0  0  0  0  0  0  0  0  0
   38.4120   31.3310   45.0110 C   0  0  0  0  0  0  0  0  0  0  0  0
   38.5120   32.6760   44.8670 N   0  0  0  0  0  0  0  0  0  0  0  0
   33.1130   29.1440   47.2220 C   0  0  0  0  0  0  0  0  0  0  0  0
   32.1180   29.3670   46.3290 N   0  0  0  0  0  0  0  0  0  0  0  0
   31.0510   28.6040   46.6730 C   0  0  0  0  0  0  0  0  0  0  0  0
   31.3900   27.8980   47.7980 N   0  0  0  0  0  0  0  0  0  0  0  0
   32.6400   28.2320   48.1200 N   0  0  0  0  0  0  0  0  0  0  0  0
   29.8970   27.5100   49.7260 C   0  0  2  0  0  0  0  0  0  0  0  0
   30.4950   26.9640   48.4690 C   0  0  1  0  0  0  0  0  0  0  0  0
   29.4970   26.5120   47.6440 O   0  0  0  0  0  0  0  0  0  0  0  0
   28.2710   26.8510   48.1370 C   0  0  0  0  0  0  0  0  0  0  0  0
   28.4710   27.7620   49.3200 C   0  0  1  0  0  0  0  0  0  0  0  0
   30.5420   28.6470   50.2090 O   0  0  0  0  0  0  0  0  0  0  0  0
   27.6510   27.3860   50.3850 O   0  0  0  0  0  0  0  0  0  0  0  0
   38.0407   31.1693   47.3112 H   0  0  0  0  0  0  0  0  0  0  0  0
   36.8764   30.7665   49.4927 H   0  0  0  0  0  0  0  0  0  0  0  0
   34.5648   29.8166   49.4631 H   0  0  0  0  0  0  0  0  0  0  0  0
   37.6388   29.4577   43.0321 H   0  0  0  0  0  0  0  0  0  0  0  0
   36.4225   28.7153   43.6524 H   0  0  0  0  0  0  0  0  0  0  0  0
   36.6271   31.8684   42.9663 H   0  0  0  0  0  0  0  0  0  0  0  0
   35.2332   31.5489   43.5751 H   0  0  0  0  0  0  0  0  0  0  0  0
   39.7975   34.3708   44.9092 H   0  0  0  0  0  0  0  0  0  0  0  0
   41.8385   33.0254   45.4703 H   0  0  0  0  0  0  0  0  0  0  0  0
   41.6042   30.5180   45.7278 H   0  0  0  0  0  0  0  0  0  0  0  0
   30.0873   28.5596   46.1446 H   0  0  0  0  0  0  0  0  0  0  0  0
   29.9922   26.8206   50.5779 H   0  0  0  0  0  0  0  0  0  0  0  0
   31.1385   26.1161   48.7464 H   0  0  0  0  0  0  0  0  0  0  0  0
   27.6893   27.3709   47.3616 H   0  0  0  0  0  0  0  0  0  0  0  0
   27.7232   25.9476   48.4433 H   0  0  0  0  0  0  0  0  0  0  0  0
   28.2420   28.8087   49.0711 H   0  0  0  0  0  0  0  0  0  0  0  0
   30.5351   28.6349   51.1989 H   0  0  0  0  0  0  0  0  0  0  0  0
   28.1045   27.5940   51.2401 H   0  0  0  0  0  0  0  0  0  0  0  0
  1  6  1  0
  1  2  2  0
  2  3  1  0
  4  3  2  0
  5  4  1  0
  6  5  2  0
  7 14  1  0
  7  1  1  0
  8  7  1  0
  9  8  1  0
  9  7  1  0
 10 11  2  0
 11 12  1  0
 13 12  2  0
 14 13  1  0
 15 14  2  0
 15 10  1  0
 16  5  1  0
 16 20  2  0
 17 18  2  0
 17 16  1  0
 18 19  1  0
 19 20  1  0
 21 26  1  0
 22 19  1  0
 22 21  1  0
 23 24  1  0
 23 22  1  0
 24 25  1  0
 25 21  1  0
 25 27  1  0
  2 28  1  0
  3 29  1  0
  4 30  1  0
  8 31  1  0
  8 32  1  0
  9 33  1  0
  9 34  1  0
 10 35  1  0
 11 36  1  0
 12 37  1  0
 18 38  1  0
 21 39  1  1
 22 40  1  1
 24 41  1  0
 24 42  1  0
 25 43  1  6
 26 44  1  0
 27 45  1  0
M  ISO  8  28  14  29  14  30  14  31  13  32  13  33  13  34  13  35  14
M  ISO  8  36  14  37  14  38  14  39  13  40  13  41  13  42  13  43  13
M  ISO  2  44   3  45   3
M  END
>  <minimizedAffinity>  (1) 
-6.76039505

>  <minimizedRMSD>  (1) 
1.22526419

$$$$
