
     RDKit          3D

 45 49  0  0  1  0  0  0  0  0999 V2000
   36.5720   30.5220   46.0580 C   0  0  0  0  0  0  0  0  0  0  0  0
   37.1950   30.7940   47.2260 C   0  0  0  0  0  0  0  0  0  0  0  0
   36.5510   30.5580   48.4400 C   0  0  0  0  0  0  0  0  0  0  0  0
   35.2610   30.0400   48.4060 C   0  0  0  0  0  0  0  0  0  0  0  0
   34.6250   29.7620   47.2070 C   0  0  0  0  0  0  0  0  0  0  0  0
   35.3130   30.0170   46.0750 N   0  0  0  0  0  0  0  0  0  0  0  0
   37.2550   30.7710   44.7330 C   0  0  0  0  0  0  0  0  0  0  0  0
   36.9880   29.8520   43.6140 C   0  0  0  0  0  0  0  0  0  0  0  0
   36.4010   31.2340   43.5980 C   0  0  0  0  0  0  0  0  0  0  0  0
   39.8590   33.3780   44.9760 C   0  0  0  0  0  0  0  0  0  0  0  0
   41.0120   32.6360   45.2600 C   0  0  0  0  0  0  0  0  0  0  0  0
   40.8860   31.2400   45.3650 C   0  0  0  0  0  0  0  0  0  0  0  0
   39.6750   30.6680   45.1920 N   0  0  0  0  0  0  0  0  0  0  0  0
   38.5700   31.4310   44.9160 C   0  0  0  0  0  0  0  0  0  0  0  0
   38.6600   32.7700   44.8090 N   0  0  0  0  0  0  0  0  0  0  0  0
   33.2680   29.2160   47.1070 C   0  0  0  0  0  0  0  0  0  0  0  0
   32.3270   29.3400   46.1280 N   0  0  0  0  0  0  0  0  0  0  0  0
   31.2300   28.6410   46.5110 C   0  0  0  0  0  0  0  0  0  0  0  0
   31.4870   28.0860   47.7240 N   0  0  0  0  0  0  0  0  0  0  0  0
   32.7270   28.4330   48.0900 N   0  0  0  0  0  0  0  0  0  0  0  0
   30.3760   28.0300   49.7430 N   0  0  0  0  0  0  0  0  0  0  0  0
   30.6610   27.2470   48.5800 C   0  0  1  0  0  0  0  0  0  0  0  0
   29.5330   26.7280   47.7960 C   0  0  0  0  0  0  0  0  0  0  0  0
   28.2710   26.8950   48.3320 O   0  0  0  0  0  0  0  0  0  0  0  0
   28.1170   28.0840   49.0190 C   0  0  0  0  0  0  0  0  0  0  0  0
   29.0320   27.9890   50.2220 C   0  0  0  0  0  0  0  0  0  0  0  0
   38.2158   31.2038   47.2189 H   0  0  0  0  0  0  0  0  0  0  0  0
   37.0488   30.7752   49.3966 H   0  0  0  0  0  0  0  0  0  0  0  0
   34.7339   29.8467   49.3519 H   0  0  0  0  0  0  0  0  0  0  0  0
   37.7951   29.5900   42.9140 H   0  0  0  0  0  0  0  0  0  0  0  0
   36.5797   28.8344   43.5260 H   0  0  0  0  0  0  0  0  0  0  0  0
   36.7801   31.9878   42.8923 H   0  0  0  0  0  0  0  0  0  0  0  0
   35.3899   31.6556   43.4984 H   0  0  0  0  0  0  0  0  0  0  0  0
   39.9279   34.4722   44.8871 H   0  0  0  0  0  0  0  0  0  0  0  0
   41.9854   33.1298   45.3966 H   0  0  0  0  0  0  0  0  0  0  0  0
   41.7664   30.6187   45.5862 H   0  0  0  0  0  0  0  0  0  0  0  0
   30.2955   28.5409   45.9395 H   0  0  0  0  0  0  0  0  0  0  0  0
   30.6005   29.0109   49.5231 H   0  0  0  0  0  0  0  0  0  0  0  0
   31.1385   26.3273   48.9490 H   0  0  0  0  0  0  0  0  0  0  0  0
   29.6944   25.6490   47.6554 H   0  0  0  0  0  0  0  0  0  0  0  0
   29.5316   27.3196   46.8686 H   0  0  0  0  0  0  0  0  0  0  0  0
   28.4073   28.9336   48.3835 H   0  0  0  0  0  0  0  0  0  0  0  0
   27.0709   28.2451   49.3186 H   0  0  0  0  0  0  0  0  0  0  0  0
   28.8525   27.0446   50.7568 H   0  0  0  0  0  0  0  0  0  0  0  0
   28.8435   28.8191   50.9187 H   0  0  0  0  0  0  0  0  0  0  0  0
  1  6  1  0
  1  2  2  0
  2  3  1  0
  4  3  2  0
  5  4  1  0
  6  5  2  0
  7 14  1  0
  7  1  1  0
  8  7  1  0
  9  8  1  0
  9  7  1  0
 10 11  2  0
 11 12  1  0
 13 12  2  0
 14 13  1  0
 15 14  2  0
 15 10  1  0
 16  5  1  0
 16 20  2  0
 17 18  2  0
 17 16  1  0
 18 19  1  0
 19 20  1  0
 21 26  1  0
 22 19  1  0
 22 21  1  0
 23 24  1  0
 23 22  1  0
 24 25  1  0
 25 26  1  0
  2 27  1  0
  3 28  1  0
  4 29  1  0
  8 30  1  0
  8 31  1  0
  9 32  1  0
  9 33  1  0
 10 34  1  0
 11 35  1  0
 12 36  1  0
 18 37  1  0
 21 38  1  0
 22 39  1  1
 23 40  1  0
 23 41  1  0
 25 42  1  0
 25 43  1  0
 26 44  1  0
 26 45  1  0
M  ISO  8  27  14  28  14  29  14  30  13  31  13  32  13  33  13  34  14
M  ISO  8  35  14  36  14  37  14  38   5  39  13  40  13  41  13  42  13
M  ISO  3  43  13  44  13  45  13
M  END
>  <minimizedAffinity>  (1) 
-6.21574163

>  <minimizedRMSD>  (1) 
0.545656919

$$$$
