
     RDKit          3D

 38 42  0  0  0  0  0  0  0  0999 V2000
   36.3370   30.4170   45.9770 C   0  0  0  0  0  0  0  0  0  0  0  0
   36.8840   30.7650   47.1660 C   0  0  0  0  0  0  0  0  0  0  0  0
   36.2320   30.4480   48.3550 C   0  0  0  0  0  0  0  0  0  0  0  0
   35.0260   29.7750   48.2800 C   0  0  0  0  0  0  0  0  0  0  0  0
   34.4680   29.4190   47.0540 C   0  0  0  0  0  0  0  0  0  0  0  0
   35.1560   29.7590   45.9420 N   0  0  0  0  0  0  0  0  0  0  0  0
   33.2030   28.7100   46.9210 C   0  0  0  0  0  0  0  0  0  0  0  0
   32.6290   28.0970   45.8350 N   0  0  0  0  0  0  0  0  0  0  0  0
   31.4310   27.5740   46.2250 C   0  0  0  0  0  0  0  0  0  0  0  0
   31.2710   27.8610   47.5360 N   0  0  0  0  0  0  0  0  0  0  0  0
   32.3320   28.5470   47.9720 N   0  0  0  0  0  0  0  0  0  0  0  0
   30.1970   27.5420   48.4130 C   0  0  0  0  0  0  0  0  0  0  0  0
   30.3390   27.8040   49.7430 N   0  0  0  0  0  0  0  0  0  0  0  0
   29.1960   27.4150   50.3560 C   0  0  0  0  0  0  0  0  0  0  0  0
   28.3520   26.9140   49.4120 N   0  0  0  0  0  0  0  0  0  0  0  0
   28.9850   27.0020   48.2350 N   0  0  0  0  0  0  0  0  0  0  0  0
   37.0350   30.7550   44.6790 C   0  0  0  0  0  0  0  0  0  0  0  0
   36.7450   29.9210   43.4830 C   0  0  0  0  0  0  0  0  0  0  0  0
   36.1920   31.3220   43.5740 C   0  0  0  0  0  0  0  0  0  0  0  0
   39.7100   33.2840   44.9930 C   0  0  0  0  0  0  0  0  0  0  0  0
   40.8230   32.4980   45.3350 C   0  0  0  0  0  0  0  0  0  0  0  0
   40.6500   31.1070   45.4530 C   0  0  0  0  0  0  0  0  0  0  0  0
   39.4200   30.5820   45.2360 N   0  0  0  0  0  0  0  0  0  0  0  0
   38.3500   31.3730   44.9050 C   0  0  0  0  0  0  0  0  0  0  0  0
   38.5080   32.6960   44.7900 N   0  0  0  0  0  0  0  0  0  0  0  0
   37.8452   31.2991   47.1926 H   0  0  0  0  0  0  0  0  0  0  0  0
   36.6645   30.7254   49.3276 H   0  0  0  0  0  0  0  0  0  0  0  0
   34.4960   29.5152   49.2082 H   0  0  0  0  0  0  0  0  0  0  0  0
   30.7247   27.0202   45.5891 H   0  0  0  0  0  0  0  0  0  0  0  0
   28.9852   27.4908   51.4329 H   0  0  0  0  0  0  0  0  0  0  0  0
   27.4064   26.5387   49.5727 H   0  0  0  0  0  0  0  0  0  0  0  0
   36.0694   29.0569   43.5662 H   0  0  0  0  0  0  0  0  0  0  0  0
   37.3565   29.3731   42.7510 H   0  0  0  0  0  0  0  0  0  0  0  0
   36.5916   32.1165   42.9267 H   0  0  0  0  0  0  0  0  0  0  0  0
   35.1916   31.7743   43.5063 H   0  0  0  0  0  0  0  0  0  0  0  0
   39.8151   34.3742   44.8905 H   0  0  0  0  0  0  0  0  0  0  0  0
   41.8067   32.9595   45.5065 H   0  0  0  0  0  0  0  0  0  0  0  0
   41.4977   30.4575   45.7166 H   0  0  0  0  0  0  0  0  0  0  0  0
  1  2  2  0
  2  3  1  0
  4  3  2  0
  5  4  1  0
  6  1  1  0
  6  5  2  0
  7  5  1  0
  7 11  2  0
  8  9  2  0
  8  7  1  0
  9 10  1  0
 10 11  1  0
 10 12  1  0
 12 13  1  0
 13 14  2  0
 15 14  1  0
 16 12  2  0
 16 15  1  0
 17 24  1  0
 17  1  1  0
 18 19  1  0
 18 17  1  0
 19 17  1  0
 20 21  2  0
 21 22  1  0
 23 22  2  0
 24 23  1  0
 25 24  2  0
 25 20  1  0
  2 26  1  0
  3 27  1  0
  4 28  1  0
  9 29  1  0
 14 30  1  0
 15 31  1  0
 18 32  1  0
 18 33  1  0
 19 34  1  0
 19 35  1  0
 20 36  1  0
 21 37  1  0
 22 38  1  0
M  ISO  8  26  14  27  14  28  14  29  14  30  14  31   9  32  13  33  13
M  ISO  5  34  13  35  13  36  14  37  14  38  14
M  END
>  <minimizedAffinity>  (1) 
-5.9683876

>  <minimizedRMSD>  (1) 
0.922592163

$$$$
