
     RDKit          3D

 38 42  0  0  0  0  0  0  0  0999 V2000
   36.3140   30.3860   46.0110 C   0  0  0  0  0  0  0  0  0  0  0  0
   36.8410   30.7840   47.2030 C   0  0  0  0  0  0  0  0  0  0  0  0
   36.1940   30.4730   48.3960 C   0  0  0  0  0  0  0  0  0  0  0  0
   35.0090   29.7530   48.3350 C   0  0  0  0  0  0  0  0  0  0  0  0
   34.4740   29.3480   47.1120 C   0  0  0  0  0  0  0  0  0  0  0  0
   35.1570   29.6870   45.9990 N   0  0  0  0  0  0  0  0  0  0  0  0
   37.0000   30.7150   44.7080 C   0  0  0  0  0  0  0  0  0  0  0  0
   36.7220   29.8610   43.5390 C   0  0  0  0  0  0  0  0  0  0  0  0
   36.1560   31.2640   43.6040 C   0  0  0  0  0  0  0  0  0  0  0  0
   39.6690   33.2650   44.9910 C   0  0  0  0  0  0  0  0  0  0  0  0
   40.7870   32.4830   45.3660 C   0  0  0  0  0  0  0  0  0  0  0  0
   40.6140   31.0920   45.5160 C   0  0  0  0  0  0  0  0  0  0  0  0
   39.3830   30.5690   45.2950 N   0  0  0  0  0  0  0  0  0  0  0  0
   38.3240   31.3500   44.9360 C   0  0  0  0  0  0  0  0  0  0  0  0
   38.4650   32.6770   44.7870 N   0  0  0  0  0  0  0  0  0  0  0  0
   33.2380   28.5910   46.9820 C   0  0  0  0  0  0  0  0  0  0  0  0
   32.7220   27.8850   45.9480 N   0  0  0  0  0  0  0  0  0  0  0  0
   31.5290   27.3540   46.3200 C   0  0  0  0  0  0  0  0  0  0  0  0
   31.2960   27.7300   47.5940 N   0  0  0  0  0  0  0  0  0  0  0  0
   32.3240   28.4800   48.0040 N   0  0  0  0  0  0  0  0  0  0  0  0
   30.2450   27.5130   48.5500 C   0  0  0  0  0  0  0  0  0  0  0  0
   29.0630   27.2440   47.8400 C   0  0  0  0  0  0  0  0  0  0  0  0
   27.7570   26.9760   49.1920 S   0  0  0  0  0  0  0  0  0  0  0  0
   29.1400   27.2960   50.4850 C   0  0  0  0  0  0  0  0  0  0  0  0
   30.0410   27.4860   49.8480 N   0  0  0  0  0  0  0  0  0  0  0  0
   37.7818   31.3536   47.2228 H   0  0  0  0  0  0  0  0  0  0  0  0
   36.6117   30.7901   49.3630 H   0  0  0  0  0  0  0  0  0  0  0  0
   34.4829   29.4975   49.2666 H   0  0  0  0  0  0  0  0  0  0  0  0
   36.0536   28.9931   43.6384 H   0  0  0  0  0  0  0  0  0  0  0  0
   37.3386   29.3035   42.8186 H   0  0  0  0  0  0  0  0  0  0  0  0
   36.5504   32.0512   42.9446 H   0  0  0  0  0  0  0  0  0  0  0  0
   35.1536   31.7109   43.5294 H   0  0  0  0  0  0  0  0  0  0  0  0
   39.7772   34.3524   44.8648 H   0  0  0  0  0  0  0  0  0  0  0  0
   41.7684   32.9496   45.5365 H   0  0  0  0  0  0  0  0  0  0  0  0
   41.4569   30.4471   45.8052 H   0  0  0  0  0  0  0  0  0  0  0  0
   30.8720   26.7305   45.6958 H   0  0  0  0  0  0  0  0  0  0  0  0
   28.9255   27.1989   46.7496 H   0  0  0  0  0  0  0  0  0  0  0  0
   29.0654   27.2933   51.5825 H   0  0  0  0  0  0  0  0  0  0  0  0
  1  2  2  0
  2  3  1  0
  4  3  2  0
  5  4  1  0
  6  1  1  0
  6  5  2  0
  7 14  1  0
  7  1  1  0
  8  9  1  0
  8  7  1  0
  9  7  1  0
 10 11  2  0
 11 12  1  0
 13 12  2  0
 14 13  1  0
 15 14  2  0
 15 10  1  0
 16  5  1  0
 16 20  2  0
 17 18  2  0
 17 16  1  0
 18 19  1  0
 19 20  1  0
 19 21  1  0
 21 25  1  0
 22 21  2  0
 22 23  1  0
 23 24  1  0
 25 24  2  0
  2 26  1  0
  3 27  1  0
  4 28  1  0
  8 29  1  0
  8 30  1  0
  9 31  1  0
  9 32  1  0
 10 33  1  0
 11 34  1  0
 12 35  1  0
 18 36  1  0
 22 37  1  0
 24 38  1  0
M  ISO  8  26  14  27  14  28  14  29  13  30  13  31  13  32  13  33  14
M  ISO  5  34  14  35  14  36  14  37  14  38  14
M  END
>  <minimizedAffinity>  (1) 
-5.7287631

>  <minimizedRMSD>  (1) 
1.0083344

$$$$
