
     RDKit          3D

 43 46  0  0  1  0  0  0  0  0999 V2000
   37.3000   29.2950   50.6210 C   0  0  0  0  0  0  0  0  0  0  0  0
   37.4430   30.6690   50.9020 C   0  0  0  0  0  0  0  0  0  0  0  0
   36.6850   31.5590   50.1300 C   0  0  0  0  0  0  0  0  0  0  0  0
   35.8720   31.0440   49.1720 N   0  0  0  0  0  0  0  0  0  0  0  0
   35.7670   29.7400   48.9410 C   0  0  0  0  0  0  0  0  0  0  0  0
   36.4820   28.8690   49.6650 N   0  0  0  0  0  0  0  0  0  0  0  0
   34.8980   29.2730   47.9240 N   0  0  0  0  0  0  0  0  0  0  0  0
   34.2800   27.9500   47.9980 C   0  0  0  0  0  0  0  0  0  0  0  0
   32.8010   28.0730   47.8470 C   0  0  0  0  0  0  0  0  0  0  0  0
   32.3230   29.2600   47.3560 N   0  0  0  0  0  0  0  0  0  0  0  0
   33.1430   30.1460   46.5690 C   0  0  0  0  0  0  0  0  0  0  0  0
   34.5770   30.0760   46.7670 C   0  0  2  0  0  0  0  0  0  0  0  0
   35.3200   29.5140   45.6430 N   0  0  0  0  0  0  0  0  0  0  0  0
   36.4160   30.3970   45.2440 C   0  0  0  0  0  0  0  0  0  0  0  0
   36.5810   30.2360   43.7510 C   0  0  0  0  0  0  0  0  0  0  0  0
   35.5870   29.1980   43.3940 C   0  0  0  0  0  0  0  0  0  0  0  0
   34.5090   29.3270   44.4920 C   0  0  1  0  0  0  0  0  0  0  0  0
   33.8090   28.0270   44.3870 C   0  0  0  0  0  0  0  0  0  0  0  0
   32.5330   27.8790   43.8840 C   0  0  0  0  0  0  0  0  0  0  0  0
   32.1520   26.5890   43.9130 N   0  0  0  0  0  0  0  0  0  0  0  0
   33.1900   25.9130   44.4380 C   0  0  0  0  0  0  0  0  0  0  0  0
   34.1720   26.7530   44.7210 N   0  0  0  0  0  0  0  0  0  0  0  0
   37.8766   28.5619   51.2043 H   0  0  0  0  0  0  0  0  0  0  0  0
   38.1196   31.0264   51.6922 H   0  0  0  0  0  0  0  0  0  0  0  0
   36.7467   32.6448   50.2953 H   0  0  0  0  0  0  0  0  0  0  0  0
   34.6777   27.3158   47.1920 H   0  0  0  0  0  0  0  0  0  0  0  0
   34.5086   27.4968   48.9739 H   0  0  0  0  0  0  0  0  0  0  0  0
   32.4692   27.2747   47.1669 H   0  0  0  0  0  0  0  0  0  0  0  0
   32.4024   28.0054   48.8700 H   0  0  0  0  0  0  0  0  0  0  0  0
   31.5097   29.0231   46.7700 H   0  0  0  0  0  0  0  0  0  0  0  0
   32.8281   31.1755   46.7949 H   0  0  0  0  0  0  0  0  0  0  0  0
   32.9857   29.8263   45.5283 H   0  0  0  0  0  0  0  0  0  0  0  0
   34.8808   31.1259   46.8912 H   0  0  0  0  0  0  0  0  0  0  0  0
   36.1698   31.4410   45.4879 H   0  0  0  0  0  0  0  0  0  0  0  0
   37.3446   30.1402   45.7749 H   0  0  0  0  0  0  0  0  0  0  0  0
   36.3659   31.1801   43.2292 H   0  0  0  0  0  0  0  0  0  0  0  0
   37.6062   29.9588   43.4644 H   0  0  0  0  0  0  0  0  0  0  0  0
   35.1585   29.3914   42.3995 H   0  0  0  0  0  0  0  0  0  0  0  0
   36.0242   28.1899   43.3435 H   0  0  0  0  0  0  0  0  0  0  0  0
   33.7478   30.1206   44.4649 H   0  0  0  0  0  0  0  0  0  0  0  0
   31.9105   28.7050   43.5094 H   0  0  0  0  0  0  0  0  0  0  0  0
   31.2519   26.1995   43.5984 H   0  0  0  0  0  0  0  0  0  0  0  0
   33.2179   24.8263   44.6064 H   0  0  0  0  0  0  0  0  0  0  0  0
  1  2  2  0
  3  2  1  0
  4  3  2  0
  5  4  1  0
  5  6  2  0
  6  1  1  0
  7  8  1  0
  7  5  1  0
  9  8  1  0
 10  9  1  0
 11 12  1  0
 11 10  1  0
 12  7  1  0
 13 14  1  0
 13 12  1  0
 15 14  1  0
 16 15  1  0
 16 17  1  0
 17 13  1  0
 18 17  1  0
 18 22  1  0
 19 20  1  0
 19 18  2  0
 20 21  1  0
 21 22  2  0
  1 23  1  0
  2 24  1  0
  3 25  1  0
  8 26  1  0
  8 27  1  0
  9 28  1  0
  9 29  1  0
 10 30  1  0
 11 31  1  0
 11 32  1  0
 12 33  1  1
 14 34  1  0
 14 35  1  0
 15 36  1  0
 15 37  1  0
 16 38  1  0
 16 39  1  0
 17 40  1  6
 19 41  1  0
 20 42  1  0
 21 43  1  0
M  ISO  8  23  14  24  14  25  14  26  13  27  13  28  13  29  13  30   5
M  ISO  8  31  13  32  13  33  13  34  13  35  13  36  13  37  13  38  13
M  ISO  5  39  13  40  13  41  14  42   9  43  14
M  END
>  <minimizedAffinity>  (1) 
-4.61477995

>  <minimizedRMSD>  (1) 
0.498929083

$$$$
