
     RDKit          3D

 49 52  0  0  1  0  0  0  0  0999 V2000
   35.4350   29.5900   45.6160 N   0  0  0  0  0  0  0  0  0  0  0  0
   36.5750   30.4670   45.3100 C   0  0  0  0  0  0  0  0  0  0  0  0
   36.8440   30.3220   43.8320 C   0  0  0  0  0  0  0  0  0  0  0  0
   35.7210   29.5240   43.3170 C   0  0  0  0  0  0  0  0  0  0  0  0
   34.6920   29.4820   44.4230 C   0  0  1  0  0  0  0  0  0  0  0  0
   37.2900   29.2300   50.6130 C   0  0  0  0  0  0  0  0  0  0  0  0
   37.4690   30.5830   50.9300 C   0  0  0  0  0  0  0  0  0  0  0  0
   36.7530   31.5160   50.1710 C   0  0  0  0  0  0  0  0  0  0  0  0
   35.9390   31.0530   49.1850 N   0  0  0  0  0  0  0  0  0  0  0  0
   35.8050   29.7420   48.9240 C   0  0  0  0  0  0  0  0  0  0  0  0
   36.4760   28.8390   49.6330 N   0  0  0  0  0  0  0  0  0  0  0  0
   34.9350   29.3370   47.8810 N   0  0  0  0  0  0  0  0  0  0  0  0
   34.2600   28.0590   47.9220 C   0  0  0  0  0  0  0  0  0  0  0  0
   32.7890   28.2330   47.7260 C   0  0  0  0  0  0  0  0  0  0  0  0
   32.3820   29.4460   47.2410 N   0  0  0  0  0  0  0  0  0  0  0  0
   33.2600   30.3160   46.4960 C   0  0  0  0  0  0  0  0  0  0  0  0
   34.6720   30.1720   46.7230 C   0  0  2  0  0  0  0  0  0  0  0  0
   32.7050   28.3290   43.5120 C   0  0  0  0  0  0  0  0  0  0  0  0
   33.9230   28.2600   44.1570 C   0  0  0  0  0  0  0  0  0  0  0  0
   34.3350   26.9750   44.5020 C   0  0  0  0  0  0  0  0  0  0  0  0
   33.6550   25.8040   44.2650 C   0  0  0  0  0  0  0  0  0  0  0  0
   32.4420   25.9000   43.6180 C   0  0  0  0  0  0  0  0  0  0  0  0
   31.9890   27.1470   43.2550 C   0  0  0  0  0  0  0  0  0  0  0  0
   31.9000   29.7270   42.9900 S   0  0  0  0  0  0  0  0  0  0  0  0
   30.7870   30.0510   43.9930 O   0  0  0  0  0  0  0  0  0  0  0  0
   31.1170   29.3920   41.7170 O   0  0  0  0  0  0  0  0  0  0  0  0
   36.3261   31.5112   45.5501 H   0  0  0  0  0  0  0  0  0  0  0  0
   37.4590   30.1912   45.9037 H   0  0  0  0  0  0  0  0  0  0  0  0
   36.8725   31.3082   43.3457 H   0  0  0  0  0  0  0  0  0  0  0  0
   37.8151   29.8448   43.6337 H   0  0  0  0  0  0  0  0  0  0  0  0
   35.2968   29.9974   42.4192 H   0  0  0  0  0  0  0  0  0  0  0  0
   36.0453   28.5122   43.0324 H   0  0  0  0  0  0  0  0  0  0  0  0
   33.9403   30.2817   44.4963 H   0  0  0  0  0  0  0  0  0  0  0  0
   37.8368   28.4691   51.1893 H   0  0  0  0  0  0  0  0  0  0  0  0
   38.1429   30.8983   51.7402 H   0  0  0  0  0  0  0  0  0  0  0  0
   36.8462   32.5944   50.3668 H   0  0  0  0  0  0  0  0  0  0  0  0
   34.6571   27.4150   47.1236 H   0  0  0  0  0  0  0  0  0  0  0  0
   34.4340   27.5982   48.9055 H   0  0  0  0  0  0  0  0  0  0  0  0
   32.4509   27.4594   47.0209 H   0  0  0  0  0  0  0  0  0  0  0  0
   32.3477   28.1554   48.7306 H   0  0  0  0  0  0  0  0  0  0  0  0
   31.5795   29.2533   46.6248 H   0  0  0  0  0  0  0  0  0  0  0  0
   32.9885   31.3526   46.7447 H   0  0  0  0  0  0  0  0  0  0  0  0
   33.1112   30.0360   45.4427 H   0  0  0  0  0  0  0  0  0  0  0  0
   35.0060   31.2110   46.8610 H   0  0  0  0  0  0  0  0  0  0  0  0
   35.3033   26.8883   45.0166 H   0  0  0  0  0  0  0  0  0  0  0  0
   34.0619   24.8313   44.5786 H   0  0  0  0  0  0  0  0  0  0  0  0
   31.8496   24.9999   43.3969 H   0  0  0  0  0  0  0  0  0  0  0  0
   31.0204   27.2229   42.7391 H   0  0  0  0  0  0  0  0  0  0  0  0
   32.8196   30.7302   42.8320 H   0  0  0  0  0  0  0  0  0  0  0  0
  1  2  1  0
  1 17  1  0
  3  2  1  0
  4  3  1  0
  4  5  1  0
  5  1  1  0
  6  7  2  0
  8  7  1  0
  9  8  2  0
 10  9  1  0
 10 11  2  0
 11  6  1  0
 12 13  1  0
 12 10  1  0
 14 13  1  0
 15 14  1  0
 16 17  1  0
 16 15  1  0
 17 12  1  0
 18 19  2  0
 19  5  1  0
 19 20  1  0
 21 20  2  0
 22 21  1  0
 23 18  1  0
 23 22  2  0
 24 18  1  0
 24 25  2  0
 26 24  2  0
  2 27  1  0
  2 28  1  0
  3 29  1  0
  3 30  1  0
  4 31  1  0
  4 32  1  0
  5 33  1  6
  6 34  1  0
  7 35  1  0
  8 36  1  0
 13 37  1  0
 13 38  1  0
 14 39  1  0
 14 40  1  0
 15 41  1  0
 16 42  1  0
 16 43  1  0
 17 44  1  1
 20 45  1  0
 21 46  1  0
 22 47  1  0
 23 48  1  0
 24 49  1  0
M  ISO  8  27  13  28  13  29  13  30  13  31  13  32  13  33  13  34  14
M  ISO  8  35  14  36  14  37  13  38  13  39  13  40  13  41   5  42  13
M  ISO  7  43  13  44  13  45  14  46  14  47  14  48  14  49  11
M  END
>  <minimizedAffinity>  (1) 
-4.61435413

>  <minimizedRMSD>  (1) 
0.852468252

$$$$
