
     RDKit          3D

 38 40  0  0  1  0  0  0  0  0999 V2000
   37.2380   29.2520   50.5800 C   0  0  0  0  0  0  0  0  0  0  0  0
   37.3910   30.6080   50.9120 C   0  0  0  0  0  0  0  0  0  0  0  0
   36.6630   31.5330   50.1520 C   0  0  0  0  0  0  0  0  0  0  0  0
   35.8700   31.0550   49.1570 N   0  0  0  0  0  0  0  0  0  0  0  0
   35.7590   29.7390   48.8780 C   0  0  0  0  0  0  0  0  0  0  0  0
   36.4400   28.8450   49.5880 N   0  0  0  0  0  0  0  0  0  0  0  0
   34.9130   29.3280   47.8290 N   0  0  0  0  0  0  0  0  0  0  0  0
   34.2640   28.0150   47.8140 C   0  0  0  0  0  0  0  0  0  0  0  0
   32.7850   28.2050   47.6780 C   0  0  0  0  0  0  0  0  0  0  0  0
   32.3420   29.4300   47.2110 N   0  0  0  0  0  0  0  0  0  0  0  0
   33.2020   30.2860   46.4480 C   0  0  0  0  0  0  0  0  0  0  0  0
   34.6280   30.1830   46.6880 C   0  0  2  0  0  0  0  0  0  0  0  0
   35.3860   29.6470   45.5680 N   0  0  0  0  0  0  0  0  0  0  0  0
   36.5720   30.4510   45.2780 C   0  0  0  0  0  0  0  0  0  0  0  0
   36.7180   30.4960   43.7640 C   0  0  0  0  0  0  0  0  0  0  0  0
   35.7560   29.4500   43.3230 C   0  0  0  0  0  0  0  0  0  0  0  0
   34.6340   29.5800   44.3660 C   0  0  1  0  0  0  0  0  0  0  0  0
   33.8270   28.3880   44.1300 C   0  0  0  0  0  0  0  0  0  0  0  0
   33.6970   27.2290   44.3840 O   0  0  0  0  0  0  0  0  0  0  0  0
   37.7944   28.4984   51.1566 H   0  0  0  0  0  0  0  0  0  0  0  0
   38.0518   30.9290   51.7308 H   0  0  0  0  0  0  0  0  0  0  0  0
   36.7311   32.6121   50.3543 H   0  0  0  0  0  0  0  0  0  0  0  0
   34.6402   27.4271   46.9638 H   0  0  0  0  0  0  0  0  0  0  0  0
   34.4860   27.4795   48.7489 H   0  0  0  0  0  0  0  0  0  0  0  0
   32.4153   27.4343   46.9856 H   0  0  0  0  0  0  0  0  0  0  0  0
   32.3964   28.1374   48.7048 H   0  0  0  0  0  0  0  0  0  0  0  0
   31.5209   29.2380   46.6195 H   0  0  0  0  0  0  0  0  0  0  0  0
   32.9059   31.3242   46.6588 H   0  0  0  0  0  0  0  0  0  0  0  0
   33.0678   29.9629   45.4051 H   0  0  0  0  0  0  0  0  0  0  0  0
   34.9410   31.2226   46.8650 H   0  0  0  0  0  0  0  0  0  0  0  0
   36.4454   31.4686   45.6760 H   0  0  0  0  0  0  0  0  0  0  0  0
   37.4667   30.0150   45.7464 H   0  0  0  0  0  0  0  0  0  0  0  0
   36.4428   31.4839   43.3662 H   0  0  0  0  0  0  0  0  0  0  0  0
   37.7469   30.3244   43.4148 H   0  0  0  0  0  0  0  0  0  0  0  0
   35.3829   29.6536   42.3084 H   0  0  0  0  0  0  0  0  0  0  0  0
   36.1937   28.4423   43.2687 H   0  0  0  0  0  0  0  0  0  0  0  0
   33.9332   30.4278   44.3594 H   0  0  0  0  0  0  0  0  0  0  0  0
   33.0140   28.6695   43.4446 H   0  0  0  0  0  0  0  0  0  0  0  0
  1  2  2  0
  3  2  1  0
  4  3  2  0
  5  4  1  0
  5  6  2  0
  6  1  1  0
  7  5  1  0
  8  7  1  0
  9  8  1  0
 10  9  1  0
 11 12  1  0
 11 10  1  0
 12  7  1  0
 13 14  1  0
 13 12  1  0
 15 14  1  0
 16 15  1  0
 16 17  1  0
 17 13  1  0
 18 17  1  0
 18 19  2  0
  1 20  1  0
  2 21  1  0
  3 22  1  0
  8 23  1  0
  8 24  1  0
  9 25  1  0
  9 26  1  0
 10 27  1  0
 11 28  1  0
 11 29  1  0
 12 30  1  1
 14 31  1  0
 14 32  1  0
 15 33  1  0
 15 34  1  0
 16 35  1  0
 16 36  1  0
 17 37  1  6
 18 38  1  0
M  ISO  8  20  14  21  14  22  14  23  13  24  13  25  13  26  13  27   5
M  ISO  8  28  13  29  13  30  13  31  13  32  13  33  13  34  13  35  13
M  ISO  3  36  13  37  13  38   6
M  END
>  <minimizedAffinity>  (1) 
-4.41365671

>  <minimizedRMSD>  (1) 
0.0754173249

$$$$
