
     RDKit          3D

 30 31  0  0  1  0  0  0  0  0999 V2000
   35.3780   30.4100   49.7110 C   0  0  2  0  0  0  0  0  0  0  0  0
   36.4320   31.0420   48.8330 C   0  0  0  0  0  0  0  0  0  0  0  0
   37.7900   30.4660   49.0510 C   0  0  2  0  0  0  0  0  0  0  0  0
   38.2290   30.4600   50.4900 C   0  0  0  0  0  0  0  0  0  0  0  0
   37.1400   30.1200   51.4550 C   0  0  0  0  0  0  0  0  0  0  0  0
   35.9390   29.5110   50.7610 C   0  0  0  0  0  0  0  0  0  0  0  0
   34.4390   29.6040   48.8860 C   0  0  0  0  0  0  0  0  0  0  0  0
   34.2390   30.0580   47.5680 C   0  0  0  0  0  0  0  0  0  0  0  0
   33.3410   29.3170   46.7730 C   0  0  0  0  0  0  0  0  0  0  0  0
   32.7190   28.2120   47.3160 N   0  0  0  0  0  0  0  0  0  0  0  0
   32.9550   27.8210   48.6040 C   0  0  0  0  0  0  0  0  0  0  0  0
   33.8020   28.5120   49.3670 N   0  0  0  0  0  0  0  0  0  0  0  0
   38.6310   32.7740   48.6470 C   0  0  0  0  0  0  0  0  0  0  0  0
   37.7520   33.2080   49.4610 O   0  0  0  0  0  0  0  0  0  0  0  0
   38.7270   31.3680   48.3700 N   0  0  0  0  0  0  0  0  0  0  0  0
   34.8677   31.2474   50.2094 H   0  0  0  0  0  0  0  0  0  0  0  0
   36.4690   32.1199   49.0494 H   0  0  0  0  0  0  0  0  0  0  0  0
   36.1532   30.8439   47.7875 H   0  0  0  0  0  0  0  0  0  0  0  0
   37.7699   29.4271   48.6899 H   0  0  0  0  0  0  0  0  0  0  0  0
   39.0350   29.7200   50.6029 H   0  0  0  0  0  0  0  0  0  0  0  0
   38.5574   31.4826   50.7273 H   0  0  0  0  0  0  0  0  0  0  0  0
   37.5286   29.4000   52.1903 H   0  0  0  0  0  0  0  0  0  0  0  0
   36.8153   31.0504   51.9438 H   0  0  0  0  0  0  0  0  0  0  0  0
   35.1592   29.3131   51.5112 H   0  0  0  0  0  0  0  0  0  0  0  0
   36.2677   28.5831   50.2701 H   0  0  0  0  0  0  0  0  0  0  0  0
   34.7575   30.9464   47.1783 H   0  0  0  0  0  0  0  0  0  0  0  0
   33.1391   29.6159   45.7338 H   0  0  0  0  0  0  0  0  0  0  0  0
   32.4456   26.9353   49.0115 H   0  0  0  0  0  0  0  0  0  0  0  0
   39.3182   33.4781   48.1551 H   0  0  0  0  0  0  0  0  0  0  0  0
   39.4319   31.0035   47.7134 H   0  0  0  0  0  0  0  0  0  0  0  0
  1  6  1  0
  2  3  1  0
  2  1  1  0
  3  4  1  0
  4  5  1  0
  6  5  1  0
  7 12  1  0
  7  1  1  0
  8  7  2  0
  9 10  2  0
  9  8  1  0
 10 11  1  0
 11 12  2  0
 13 14  2  0
 15 13  1  0
 15  3  1  0
  1 16  1  1
  2 17  1  0
  2 18  1  0
  3 19  1  6
  4 20  1  0
  4 21  1  0
  5 22  1  0
  5 23  1  0
  6 24  1  0
  6 25  1  0
  8 26  1  0
  9 27  1  0
 11 28  1  0
 13 29  1  0
 15 30  1  0
M  ISO  8  16  13  17  13  18  13  19  13  20  13  21  13  22  13  23  13
M  ISO  6  24  13  25  13  26  14  27  14  28  14  29   6
M  END
>  <minimizedAffinity>  (1) 
-5.73513651

>  <minimizedRMSD>  (1) 
0.572340965

$$$$
