
     RDKit          3D

 28 29  0  0  1  0  0  0  0  0999 V2000
   35.4680   30.3330   49.7400 C   0  0  2  0  0  0  0  0  0  0  0  0
   36.5000   31.0970   48.9380 C   0  0  0  0  0  0  0  0  0  0  0  0
   37.9060   30.6240   49.1770 C   0  0  2  0  0  0  0  0  0  0  0  0
   38.2740   30.6450   50.6430 C   0  0  0  0  0  0  0  0  0  0  0  0
   37.1970   30.1070   51.5360 C   0  0  0  0  0  0  0  0  0  0  0  0
   36.1010   29.4250   50.7440 C   0  0  0  0  0  0  0  0  0  0  0  0
   34.6460   29.4820   48.8300 C   0  0  0  0  0  0  0  0  0  0  0  0
   34.2380   30.0690   47.6190 C   0  0  0  0  0  0  0  0  0  0  0  0
   33.4690   29.2920   46.7620 C   0  0  0  0  0  0  0  0  0  0  0  0
   33.1440   28.0040   47.1290 N   0  0  0  0  0  0  0  0  0  0  0  0
   33.5620   27.4750   48.3160 C   0  0  0  0  0  0  0  0  0  0  0  0
   34.3070   28.2250   49.1450 N   0  0  0  0  0  0  0  0  0  0  0  0
   38.7890   31.5010   48.4410 N   0  0  0  0  0  0  0  0  0  0  0  0
   34.8515   31.0812   50.2597 H   0  0  0  0  0  0  0  0  0  0  0  0
   36.4379   32.1606   49.2118 H   0  0  0  0  0  0  0  0  0  0  0  0
   36.2758   30.9297   47.8742 H   0  0  0  0  0  0  0  0  0  0  0  0
   37.9970   29.5807   48.8404 H   0  0  0  0  0  0  0  0  0  0  0  0
   39.1796   30.0366   50.7837 H   0  0  0  0  0  0  0  0  0  0  0  0
   38.4316   31.6971   50.9227 H   0  0  0  0  0  0  0  0  0  0  0  0
   37.6408   29.3786   52.2307 H   0  0  0  0  0  0  0  0  0  0  0  0
   36.7508   30.9513   52.0819 H   0  0  0  0  0  0  0  0  0  0  0  0
   35.3258   29.0770   51.4426 H   0  0  0  0  0  0  0  0  0  0  0  0
   36.5576   28.5881   50.1954 H   0  0  0  0  0  0  0  0  0  0  0  0
   34.5165   31.1014   47.3609 H   0  0  0  0  0  0  0  0  0  0  0  0
   33.1232   29.7003   45.8009 H   0  0  0  0  0  0  0  0  0  0  0  0
   33.2915   26.4448   48.5910 H   0  0  0  0  0  0  0  0  0  0  0  0
   39.3494   32.0576   49.1021 H   0  0  0  0  0  0  0  0  0  0  0  0
   39.4160   30.9384   47.8483 H   0  0  0  0  0  0  0  0  0  0  0  0
  1  6  1  0
  2  3  1  0
  2  1  1  0
  3  4  1  0
  4  5  1  0
  6  5  1  0
  7 12  1  0
  7  1  1  0
  8  7  2  0
  9 10  2  0
  9  8  1  0
 10 11  1  0
 11 12  2  0
 13  3  1  0
  1 14  1  1
  2 15  1  0
  2 16  1  0
  3 17  1  6
  4 18  1  0
  4 19  1  0
  5 20  1  0
  5 21  1  0
  6 22  1  0
  6 23  1  0
  8 24  1  0
  9 25  1  0
 11 26  1  0
 13 27  1  0
 13 28  1  0
M  ISO  8  14  13  15  13  16  13  17  13  18  13  19  13  20  13  21  13
M  ISO  7  22  13  23  13  24  14  25  14  26  14  27   5  28   5
M  END
>  <minimizedAffinity>  (1) 
-5.15519714

>  <minimizedRMSD>  (1) 
0.187614799

$$$$
