
     RDKit          3D

 52 55  0  0  1  0  0  0  0  0999 V2000
   35.4620   30.1040   49.7020 C   0  0  2  0  0  0  0  0  0  0  0  0
   36.3520   31.1590   49.1610 C   0  0  0  0  0  0  0  0  0  0  0  0
   37.8390   30.8600   49.4150 C   0  0  2  0  0  0  0  0  0  0  0  0
   38.1800   30.6370   50.8160 C   0  0  0  0  0  0  0  0  0  0  0  0
   37.1110   29.8630   51.5880 C   0  0  0  0  0  0  0  0  0  0  0  0
   36.1640   29.1580   50.6520 C   0  0  0  0  0  0  0  0  0  0  0  0
   38.5340   30.7830   46.5480 Cl  0  0  0  0  0  0  0  0  0  0  0  0
   38.9330   32.1480   47.5790 C   0  0  0  0  0  0  0  0  0  0  0  0
   38.5320   32.0820   48.9050 C   0  0  0  0  0  0  0  0  0  0  0  0
   38.8820   33.2020   49.6250 C   0  0  0  0  0  0  0  0  0  0  0  0
   39.5600   34.2700   49.0700 C   0  0  0  0  0  0  0  0  0  0  0  0
   39.9260   34.2550   47.7280 C   0  0  0  0  0  0  0  0  0  0  0  0
   39.5920   33.1440   46.9600 C   0  0  0  0  0  0  0  0  0  0  0  0
   39.9830   33.1300   45.5260 C   0  0  0  0  0  0  0  0  0  0  0  0
   38.8010   32.7930   44.6360 C   0  0  0  0  0  0  0  0  0  0  0  0
   39.2860   32.7040   43.2140 C   0  0  0  0  0  0  0  0  0  0  0  0
   40.1300   31.4670   43.0030 C   0  0  0  0  0  0  0  0  0  0  0  0
   40.6150   30.9970   44.3380 C   0  0  0  0  0  0  0  0  0  0  0  0
   41.0900   32.1660   45.2120 C   0  0  0  0  0  0  0  0  0  0  0  0
   34.8270   29.2900   48.6570 C   0  0  0  0  0  0  0  0  0  0  0  0
   34.8100   29.8660   47.3860 C   0  0  0  0  0  0  0  0  0  0  0  0
   34.2290   29.1230   46.3490 C   0  0  0  0  0  0  0  0  0  0  0  0
   33.7050   27.8670   46.6320 N   0  0  0  0  0  0  0  0  0  0  0  0
   33.7450   27.3500   47.8770 C   0  0  0  0  0  0  0  0  0  0  0  0
   34.3040   28.0780   48.8460 N   0  0  0  0  0  0  0  0  0  0  0  0
   34.6940   30.6723   50.2472 H   0  0  0  0  0  0  0  0  0  0  0  0
   36.0974   32.1158   49.6403 H   0  0  0  0  0  0  0  0  0  0  0  0
   36.1997   31.1999   48.0724 H   0  0  0  0  0  0  0  0  0  0  0  0
   38.1330   29.9227   48.9200 H   0  0  0  0  0  0  0  0  0  0  0  0
   39.1208   30.0686   50.8592 H   0  0  0  0  0  0  0  0  0  0  0  0
   38.2682   31.6262   51.2890 H   0  0  0  0  0  0  0  0  0  0  0  0
   37.6021   29.1170   52.2301 H   0  0  0  0  0  0  0  0  0  0  0  0
   36.5338   30.5773   52.1935 H   0  0  0  0  0  0  0  0  0  0  0  0
   35.4044   28.6337   51.2504 H   0  0  0  0  0  0  0  0  0  0  0  0
   36.7589   28.4606   50.0439 H   0  0  0  0  0  0  0  0  0  0  0  0
   38.6096   33.2485   50.6897 H   0  0  0  0  0  0  0  0  0  0  0  0
   39.8126   35.1396   49.6945 H   0  0  0  0  0  0  0  0  0  0  0  0
   40.4677   35.1030   47.2837 H   0  0  0  0  0  0  0  0  0  0  0  0
   40.3459   34.1487   45.3245 H   0  0  0  0  0  0  0  0  0  0  0  0
   38.3688   31.8289   44.9420 H   0  0  0  0  0  0  0  0  0  0  0  0
   38.0286   33.5713   44.7234 H   0  0  0  0  0  0  0  0  0  0  0  0
   38.4176   32.6656   42.5400 H   0  0  0  0  0  0  0  0  0  0  0  0
   39.9032   33.5889   42.9994 H   0  0  0  0  0  0  0  0  0  0  0  0
   39.5250   30.6802   42.5288 H   0  0  0  0  0  0  0  0  0  0  0  0
   40.9838   31.6973   42.3488 H   0  0  0  0  0  0  0  0  0  0  0  0
   39.7937   30.4773   44.8531 H   0  0  0  0  0  0  0  0  0  0  0  0
   41.4677   30.3214   44.1752 H   0  0  0  0  0  0  0  0  0  0  0  0
   41.4867   31.7635   46.1557 H   0  0  0  0  0  0  0  0  0  0  0  0
   41.8628   32.7125   44.6515 H   0  0  0  0  0  0  0  0  0  0  0  0
   35.2358   30.8640   47.2050 H   0  0  0  0  0  0  0  0  0  0  0  0
   34.1884   29.5277   45.3270 H   0  0  0  0  0  0  0  0  0  0  0  0
   33.3278   26.3544   48.0883 H   0  0  0  0  0  0  0  0  0  0  0  0
  1  6  1  0
  2  3  1  0
  2  1  1  0
  3  4  1  0
  4  5  1  0
  6  5  1  0
  7  8  1  0
  8  9  2  0
  9  3  1  0
  9 10  1  0
 11 10  2  0
 12 11  1  0
 13  8  1  0
 13 12  2  0
 14 13  1  0
 15 14  1  0
 16 15  1  0
 17 16  1  0
 17 18  1  0
 18 19  1  0
 19 14  1  0
 20 25  1  0
 20  1  1  0
 21 20  2  0
 22 23  2  0
 22 21  1  0
 23 24  1  0
 24 25  2  0
  1 26  1  1
  2 27  1  0
  2 28  1  0
  3 29  1  6
  4 30  1  0
  4 31  1  0
  5 32  1  0
  5 33  1  0
  6 34  1  0
  6 35  1  0
 10 36  1  0
 11 37  1  0
 12 38  1  0
 14 39  1  0
 15 40  1  0
 15 41  1  0
 16 42  1  0
 16 43  1  0
 17 44  1  0
 17 45  1  0
 18 46  1  0
 18 47  1  0
 19 48  1  0
 19 49  1  0
 21 50  1  0
 22 51  1  0
 24 52  1  0
M  ISO  8  26  13  27  13  28  13  29  13  30  13  31  13  32  13  33  13
M  ISO  8  34  13  35  13  36  14  37  14  38  14  39  13  40  13  41  13
M  ISO  8  42  13  43  13  44  13  45  13  46  13  47  13  48  13  49  13
M  ISO  3  50  14  51  14  52  14
M  END
>  <minimizedAffinity>  (1) 
-8.84286594

>  <minimizedRMSD>  (1) 
1.0692749

$$$$
