
     RDKit          3D

 46 49  0  0  1  0  0  0  0  0999 V2000
   35.1360   30.2740   50.0890 C   0  0  2  0  0  0  0  0  0  0  0  0
   36.0620   31.1740   49.3660 C   0  0  0  0  0  0  0  0  0  0  0  0
   37.5250   30.7140   49.4540 C   0  0  2  0  0  0  0  0  0  0  0  0
   38.0200   30.5380   50.8190 C   0  0  0  0  0  0  0  0  0  0  0  0
   36.9890   29.9320   51.7650 C   0  0  0  0  0  0  0  0  0  0  0  0
   35.8450   29.3130   51.0180 C   0  0  0  0  0  0  0  0  0  0  0  0
   37.8560   30.3460   46.5440 Cl  0  0  0  0  0  0  0  0  0  0  0  0
   38.5300   31.7210   47.4080 C   0  0  0  0  0  0  0  0  0  0  0  0
   38.2800   31.8030   48.7660 C   0  0  0  0  0  0  0  0  0  0  0  0
   38.8310   32.9220   49.3450 C   0  0  0  0  0  0  0  0  0  0  0  0
   39.5570   33.8590   48.6370 C   0  0  0  0  0  0  0  0  0  0  0  0
   39.7620   33.6990   47.2720 C   0  0  0  0  0  0  0  0  0  0  0  0
   39.2250   32.5860   46.6380 C   0  0  0  0  0  0  0  0  0  0  0  0
   41.1430   30.7860   45.8780 F   0  0  0  0  0  0  0  0  0  0  0  0
   40.4370   31.4760   44.9300 C   0  0  0  0  0  0  0  0  0  0  0  0
   39.4390   32.4160   45.2040 C   0  0  0  0  0  0  0  0  0  0  0  0
   38.7950   33.0480   44.1870 C   0  0  0  0  0  0  0  0  0  0  0  0
   39.1300   32.7610   42.8650 C   0  0  0  0  0  0  0  0  0  0  0  0
   40.1240   31.8240   42.5920 C   0  0  0  0  0  0  0  0  0  0  0  0
   40.7660   31.1930   43.6180 C   0  0  0  0  0  0  0  0  0  0  0  0
   34.2850   29.4720   49.1960 C   0  0  0  0  0  0  0  0  0  0  0  0
   34.4290   29.7510   47.8360 C   0  0  0  0  0  0  0  0  0  0  0  0
   33.6520   29.0050   46.9390 C   0  0  0  0  0  0  0  0  0  0  0  0
   32.7880   28.0380   47.4370 N   0  0  0  0  0  0  0  0  0  0  0  0
   32.6830   27.8080   48.7580 C   0  0  0  0  0  0  0  0  0  0  0  0
   33.4320   28.5290   49.5980 N   0  0  0  0  0  0  0  0  0  0  0  0
   34.5113   30.9667   50.6720 H   0  0  0  0  0  0  0  0  0  0  0  0
   35.9833   32.1819   49.7995 H   0  0  0  0  0  0  0  0  0  0  0  0
   35.7738   31.1642   48.3045 H   0  0  0  0  0  0  0  0  0  0  0  0
   37.6436   29.7194   48.9994 H   0  0  0  0  0  0  0  0  0  0  0  0
   38.8972   29.8750   50.7887 H   0  0  0  0  0  0  0  0  0  0  0  0
   38.2667   31.5378   51.2058 H   0  0  0  0  0  0  0  0  0  0  0  0
   37.4770   29.1574   52.3748 H   0  0  0  0  0  0  0  0  0  0  0  0
   36.5888   30.7383   52.3972 H   0  0  0  0  0  0  0  0  0  0  0  0
   35.1158   28.9353   51.7499 H   0  0  0  0  0  0  0  0  0  0  0  0
   36.2648   28.5112   50.3928 H   0  0  0  0  0  0  0  0  0  0  0  0
   38.6864   33.0781   50.4242 H   0  0  0  0  0  0  0  0  0  0  0  0
   39.9744   34.7349   49.1551 H   0  0  0  0  0  0  0  0  0  0  0  0
   40.3402   34.4418   46.7028 H   0  0  0  0  0  0  0  0  0  0  0  0
   38.0096   33.7858   44.4076 H   0  0  0  0  0  0  0  0  0  0  0  0
   38.6116   33.2723   42.0405 H   0  0  0  0  0  0  0  0  0  0  0  0
   40.3913   31.5928   41.5503 H   0  0  0  0  0  0  0  0  0  0  0  0
   41.5508   30.4540   43.3990 H   0  0  0  0  0  0  0  0  0  0  0  0
   35.1249   30.5259   47.4820 H   0  0  0  0  0  0  0  0  0  0  0  0
   33.7254   29.1828   45.8560 H   0  0  0  0  0  0  0  0  0  0  0  0
   31.9935   27.0408   49.1400 H   0  0  0  0  0  0  0  0  0  0  0  0
  1  6  1  0
  2  3  1  0
  2  1  1  0
  3  4  1  0
  4  5  1  0
  6  5  1  0
  7  8  1  0
  8  9  2  0
  9 10  1  0
  9  3  1  0
 11 10  2  0
 12 11  1  0
 13 12  2  0
 13  8  1  0
 15 16  2  0
 15 14  1  0
 16 13  1  0
 17 16  1  0
 18 17  2  0
 19 18  1  0
 19 20  2  0
 20 15  1  0
 21 26  1  0
 21  1  1  0
 22 21  2  0
 23 24  2  0
 23 22  1  0
 24 25  1  0
 25 26  2  0
  1 27  1  1
  2 28  1  0
  2 29  1  0
  3 30  1  6
  4 31  1  0
  4 32  1  0
  5 33  1  0
  5 34  1  0
  6 35  1  0
  6 36  1  0
 10 37  1  0
 11 38  1  0
 12 39  1  0
 17 40  1  0
 18 41  1  0
 19 42  1  0
 20 43  1  0
 22 44  1  0
 23 45  1  0
 25 46  1  0
M  ISO  8  27  13  28  13  29  13  30  13  31  13  32  13  33  13  34  13
M  ISO  8  35  13  36  13  37  14  38  14  39  14  40  14  41  14  42  14
M  ISO  4  43  14  44  14  45  14  46  14
M  END
>  <minimizedAffinity>  (1) 
-8.08750725

>  <minimizedRMSD>  (1) 
0.68162483

$$$$
