
     RDKit          3D

 50 53  0  0  1  0  0  0  0  0999 V2000
   35.1880   30.3290   50.0580 C   0  0  2  0  0  0  0  0  0  0  0  0
   36.1230   31.2290   49.3400 C   0  0  0  0  0  0  0  0  0  0  0  0
   37.5790   30.7500   49.4210 C   0  0  2  0  0  0  0  0  0  0  0  0
   38.0740   30.5510   50.7840 C   0  0  0  0  0  0  0  0  0  0  0  0
   37.0320   29.9600   51.7290 C   0  0  0  0  0  0  0  0  0  0  0  0
   35.8880   29.3420   50.9670 C   0  0  0  0  0  0  0  0  0  0  0  0
   38.1780   30.2610   46.5710 Cl  0  0  0  0  0  0  0  0  0  0  0  0
   38.7250   31.6970   47.4200 C   0  0  0  0  0  0  0  0  0  0  0  0
   38.3470   31.8370   48.7460 C   0  0  0  0  0  0  0  0  0  0  0  0
   38.7970   33.0030   49.3090 C   0  0  0  0  0  0  0  0  0  0  0  0
   39.5490   33.9380   48.6290 C   0  0  0  0  0  0  0  0  0  0  0  0
   39.8860   33.7200   47.2990 C   0  0  0  0  0  0  0  0  0  0  0  0
   39.4570   32.5570   46.6770 C   0  0  0  0  0  0  0  0  0  0  0  0
   39.8090   32.3580   45.3330 N   0  0  0  0  0  0  0  0  0  0  0  0
   39.8340   33.5040   44.4780 C   0  0  0  0  0  0  0  0  0  0  0  0
   39.3130   33.2080   43.0910 C   0  0  0  0  0  0  0  0  0  0  0  0
   39.7690   31.9570   42.5650 N   0  0  0  0  0  0  0  0  0  0  0  0
   40.7070   31.2630   43.4270 C   0  0  0  0  0  0  0  0  0  0  0  0
   40.1410   31.0500   44.7980 C   0  0  0  0  0  0  0  0  0  0  0  0
   34.3210   29.5570   49.1560 C   0  0  0  0  0  0  0  0  0  0  0  0
   34.3450   29.9650   47.8210 C   0  0  0  0  0  0  0  0  0  0  0  0
   33.5470   29.2530   46.9160 C   0  0  0  0  0  0  0  0  0  0  0  0
   32.7780   28.1900   47.3800 N   0  0  0  0  0  0  0  0  0  0  0  0
   32.7920   27.8390   48.6800 C   0  0  0  0  0  0  0  0  0  0  0  0
   33.5580   28.5270   49.5260 N   0  0  0  0  0  0  0  0  0  0  0  0
   34.5789   31.0196   50.6597 H   0  0  0  0  0  0  0  0  0  0  0  0
   36.0568   32.2332   49.7840 H   0  0  0  0  0  0  0  0  0  0  0  0
   35.8320   31.2357   48.2792 H   0  0  0  0  0  0  0  0  0  0  0  0
   37.6839   29.7594   48.9543 H   0  0  0  0  0  0  0  0  0  0  0  0
   38.9360   29.8687   50.7454 H   0  0  0  0  0  0  0  0  0  0  0  0
   38.3440   31.5418   51.1784 H   0  0  0  0  0  0  0  0  0  0  0  0
   37.5087   29.1865   52.3490 H   0  0  0  0  0  0  0  0  0  0  0  0
   36.6330   30.7710   52.3560 H   0  0  0  0  0  0  0  0  0  0  0  0
   35.1567   28.9489   51.6886 H   0  0  0  0  0  0  0  0  0  0  0  0
   36.3043   28.5453   50.3330 H   0  0  0  0  0  0  0  0  0  0  0  0
   38.5445   33.2039   50.3606 H   0  0  0  0  0  0  0  0  0  0  0  0
   39.8812   34.8544   49.1387 H   0  0  0  0  0  0  0  0  0  0  0  0
   40.4847   34.4595   46.7470 H   0  0  0  0  0  0  0  0  0  0  0  0
   39.2114   34.2918   44.9271 H   0  0  0  0  0  0  0  0  0  0  0  0
   40.8825   33.8215   44.3784 H   0  0  0  0  0  0  0  0  0  0  0  0
   38.2138   33.1902   43.1284 H   0  0  0  0  0  0  0  0  0  0  0  0
   39.6949   33.9971   42.4265 H   0  0  0  0  0  0  0  0  0  0  0  0
   38.9506   31.3486   42.4202 H   0  0  0  0  0  0  0  0  0  0  0  0
   40.9442   30.2851   42.9826 H   0  0  0  0  0  0  0  0  0  0  0  0
   41.6119   31.8815   43.5201 H   0  0  0  0  0  0  0  0  0  0  0  0
   39.2370   30.4260   44.7398 H   0  0  0  0  0  0  0  0  0  0  0  0
   40.8673   30.5362   45.4449 H   0  0  0  0  0  0  0  0  0  0  0  0
   34.9657   30.8118   47.4928 H   0  0  0  0  0  0  0  0  0  0  0  0
   33.5285   29.5308   45.8518 H   0  0  0  0  0  0  0  0  0  0  0  0
   32.1807   26.9975   49.0380 H   0  0  0  0  0  0  0  0  0  0  0  0
  1  6  1  0
  2  3  1  0
  2  1  1  0
  3  4  1  0
  4  5  1  0
  6  5  1  0
  7  8  1  0
  8  9  2  0
  9 10  1  0
  9  3  1  0
 11 10  2  0
 12 11  1  0
 13 12  2  0
 13  8  1  0
 14 13  1  0
 15 14  1  0
 16 15  1  0
 17 16  1  0
 17 18  1  0
 18 19  1  0
 19 14  1  0
 20 25  1  0
 20  1  1  0
 21 20  2  0
 22 23  2  0
 22 21  1  0
 23 24  1  0
 24 25  2  0
  1 26  1  1
  2 27  1  0
  2 28  1  0
  3 29  1  6
  4 30  1  0
  4 31  1  0
  5 32  1  0
  5 33  1  0
  6 34  1  0
  6 35  1  0
 10 36  1  0
 11 37  1  0
 12 38  1  0
 15 39  1  0
 15 40  1  0
 16 41  1  0
 16 42  1  0
 17 43  1  0
 18 44  1  0
 18 45  1  0
 19 46  1  0
 19 47  1  0
 21 48  1  0
 22 49  1  0
 24 50  1  0
M  ISO  8  26  13  27  13  28  13  29  13  30  13  31  13  32  13  33  13
M  ISO  8  34  13  35  13  36  14  37  14  38  14  39  13  40  13  41  13
M  ISO  8  42  13  43   5  44  13  45  13  46  13  47  13  48  14  49  14
M  ISO  1  50  14
M  END
>  <minimizedAffinity>  (1) 
-7.82786751

>  <minimizedRMSD>  (1) 
0.608960032

$$$$
