
     RDKit          3D

 43 46  0  0  1  0  0  0  0  0999 V2000
   34.9710   30.0970   50.1120 C   0  0  2  0  0  0  0  0  0  0  0  0
   35.9200   31.0570   49.4950 C   0  0  0  0  0  0  0  0  0  0  0  0
   37.3870   30.6220   49.6340 C   0  0  2  0  0  0  0  0  0  0  0  0
   37.7980   30.3770   51.0230 C   0  0  0  0  0  0  0  0  0  0  0  0
   36.7400   29.6850   51.8620 C   0  0  0  0  0  0  0  0  0  0  0  0
   35.6490   29.0960   51.0170 C   0  0  0  0  0  0  0  0  0  0  0  0
   38.0170   30.3750   46.7770 Cl  0  0  0  0  0  0  0  0  0  0  0  0
   38.5350   31.7510   47.7350 C   0  0  0  0  0  0  0  0  0  0  0  0
   38.1560   31.7630   49.0620 C   0  0  0  0  0  0  0  0  0  0  0  0
   38.5990   32.8880   49.7440 C   0  0  0  0  0  0  0  0  0  0  0  0
   39.3390   33.8800   49.1430 C   0  0  0  0  0  0  0  0  0  0  0  0
   39.6770   33.7980   47.8220 C   0  0  0  0  0  0  0  0  0  0  0  0
   39.2590   32.6900   47.0850 C   0  0  0  0  0  0  0  0  0  0  0  0
   39.6760   32.7050   45.6930 C   0  0  0  0  0  0  0  0  0  0  0  0
   39.7720   33.7080   44.7550 C   0  0  0  0  0  0  0  0  0  0  0  0
   40.2170   33.2730   43.5470 C   0  0  0  0  0  0  0  0  0  0  0  0
   40.3920   31.9380   43.7870 C   0  0  0  0  0  0  0  0  0  0  0  0
   40.0800   31.6660   44.9960 O   0  0  0  0  0  0  0  0  0  0  0  0
   34.1910   29.3410   49.1210 C   0  0  0  0  0  0  0  0  0  0  0  0
   34.3900   29.7200   47.7920 C   0  0  0  0  0  0  0  0  0  0  0  0
   33.6830   29.0180   46.8060 C   0  0  0  0  0  0  0  0  0  0  0  0
   32.8260   27.9930   47.1920 N   0  0  0  0  0  0  0  0  0  0  0  0
   32.6680   27.6680   48.4880 C   0  0  0  0  0  0  0  0  0  0  0  0
   33.3500   28.3450   49.4150 N   0  0  0  0  0  0  0  0  0  0  0  0
   34.2986   30.7360   50.7031 H   0  0  0  0  0  0  0  0  0  0  0  0
   35.7964   32.0351   49.9829 H   0  0  0  0  0  0  0  0  0  0  0  0
   35.6902   31.1031   48.4203 H   0  0  0  0  0  0  0  0  0  0  0  0
   37.5597   29.6638   49.1222 H   0  0  0  0  0  0  0  0  0  0  0  0
   38.6991   29.7461   51.0119 H   0  0  0  0  0  0  0  0  0  0  0  0
   37.9780   31.3604   51.4819 H   0  0  0  0  0  0  0  0  0  0  0  0
   37.2160   28.8790   52.4397 H   0  0  0  0  0  0  0  0  0  0  0  0
   36.2875   30.4365   52.5256 H   0  0  0  0  0  0  0  0  0  0  0  0
   34.8898   28.6618   51.6841 H   0  0  0  0  0  0  0  0  0  0  0  0
   36.1185   28.3431   50.3669 H   0  0  0  0  0  0  0  0  0  0  0  0
   38.3478   32.9907   50.8100 H   0  0  0  0  0  0  0  0  0  0  0  0
   39.6625   34.7499   49.7335 H   0  0  0  0  0  0  0  0  0  0  0  0
   40.2697   34.5935   47.3468 H   0  0  0  0  0  0  0  0  0  0  0  0
   39.5142   34.7570   44.9627 H   0  0  0  0  0  0  0  0  0  0  0  0
   40.3903   33.8429   42.6223 H   0  0  0  0  0  0  0  0  0  0  0  0
   40.7490   31.2058   43.0478 H   0  0  0  0  0  0  0  0  0  0  0  0
   35.0758   30.5387   47.5286 H   0  0  0  0  0  0  0  0  0  0  0  0
   33.8042   29.2740   45.7431 H   0  0  0  0  0  0  0  0  0  0  0  0
   31.9862   26.8556   48.7799 H   0  0  0  0  0  0  0  0  0  0  0  0
  1  6  1  0
  2  3  1  0
  2  1  1  0
  3  4  1  0
  4  5  1  0
  6  5  1  0
  7  8  1  0
  8  9  2  0
  9  3  1  0
  9 10  1  0
 11 10  2  0
 12 11  1  0
 13  8  1  0
 13 12  2  0
 14 13  1  0
 15 14  2  0
 16 17  2  0
 16 15  1  0
 17 18  1  0
 18 14  1  0
 19 24  1  0
 19  1  1  0
 20 19  2  0
 21 22  2  0
 21 20  1  0
 22 23  1  0
 23 24  2  0
  1 25  1  1
  2 26  1  0
  2 27  1  0
  3 28  1  6
  4 29  1  0
  4 30  1  0
  5 31  1  0
  5 32  1  0
  6 33  1  0
  6 34  1  0
 10 35  1  0
 11 36  1  0
 12 37  1  0
 15 38  1  0
 16 39  1  0
 17 40  1  0
 20 41  1  0
 21 42  1  0
 23 43  1  0
M  ISO  8  25  13  26  13  27  13  28  13  29  13  30  13  31  13  32  13
M  ISO  8  33  13  34  13  35  14  36  14  37  14  38  14  39  14  40  14
M  ISO  3  41  14  42  14  43  14
M  END
>  <minimizedAffinity>  (1) 
-7.5128479

>  <minimizedRMSD>  (1) 
0.545046866

$$$$
