
     RDKit          3D

 45 48  0  0  1  0  0  0  0  0999 V2000
   35.3230   30.3120   49.7940 C   0  0  2  0  0  0  0  0  0  0  0  0
   36.2430   31.3260   49.2910 C   0  0  0  0  0  0  0  0  0  0  0  0
   37.7330   30.8770   49.3920 C   0  0  2  0  0  0  0  0  0  0  0  0
   38.1480   30.5620   50.7370 C   0  0  0  0  0  0  0  0  0  0  0  0
   37.0920   29.8140   51.5470 C   0  0  0  0  0  0  0  0  0  0  0  0
   36.0220   29.2540   50.6580 C   0  0  0  0  0  0  0  0  0  0  0  0
   38.6180   30.6520   46.5840 Cl  0  0  0  0  0  0  0  0  0  0  0  0
   38.9830   32.0400   47.5730 C   0  0  0  0  0  0  0  0  0  0  0  0
   38.4770   32.0490   48.8470 C   0  0  0  0  0  0  0  0  0  0  0  0
   38.7800   33.2050   49.5520 C   0  0  0  0  0  0  0  0  0  0  0  0
   39.5200   34.2460   49.0270 C   0  0  0  0  0  0  0  0  0  0  0  0
   40.0010   34.1550   47.7190 C   0  0  0  0  0  0  0  0  0  0  0  0
   39.7180   33.0120   46.9740 C   0  0  0  0  0  0  0  0  0  0  0  0
   40.2080   32.9200   45.6450 N   0  0  0  0  0  0  0  0  0  0  0  0
   34.5400   29.5910   48.7970 C   0  0  0  0  0  0  0  0  0  0  0  0
   34.9350   29.8230   47.4890 C   0  0  0  0  0  0  0  0  0  0  0  0
   34.2710   29.1650   46.4600 C   0  0  0  0  0  0  0  0  0  0  0  0
   33.2290   28.2940   46.7970 N   0  0  0  0  0  0  0  0  0  0  0  0
   32.8770   28.0980   48.0810 C   0  0  0  0  0  0  0  0  0  0  0  0
   33.5450   28.7550   49.0360 N   0  0  0  0  0  0  0  0  0  0  0  0
   31.7700   27.1750   48.4450 C   0  0  0  0  0  0  0  0  0  0  0  0
   30.6330   27.6080   49.2610 C   0  0  0  0  0  0  0  0  0  0  0  0
   30.4610   27.4970   47.7410 C   0  0  0  0  0  0  0  0  0  0  0  0
   34.6285   30.9298   50.3823 H   0  0  0  0  0  0  0  0  0  0  0  0
   36.1105   32.2464   49.8787 H   0  0  0  0  0  0  0  0  0  0  0  0
   36.0130   31.4909   48.2280 H   0  0  0  0  0  0  0  0  0  0  0  0
   37.9176   29.9419   48.8429 H   0  0  0  0  0  0  0  0  0  0  0  0
   39.0517   29.9371   50.6840 H   0  0  0  0  0  0  0  0  0  0  0  0
   38.3278   31.5184   51.2497 H   0  0  0  0  0  0  0  0  0  0  0  0
   37.5750   28.9887   52.0906 H   0  0  0  0  0  0  0  0  0  0  0  0
   36.6264   30.5212   52.2491 H   0  0  0  0  0  0  0  0  0  0  0  0
   35.2653   28.7662   51.2900 H   0  0  0  0  0  0  0  0  0  0  0  0
   36.5115   28.5488   49.9701 H   0  0  0  0  0  0  0  0  0  0  0  0
   38.4111   33.2971   50.5842 H   0  0  0  0  0  0  0  0  0  0  0  0
   39.7289   35.1394   49.6339 H   0  0  0  0  0  0  0  0  0  0  0  0
   40.5940   34.9729   47.2837 H   0  0  0  0  0  0  0  0  0  0  0  0
   40.7609   33.6917   45.2454 H   0  0  0  0  0  0  0  0  0  0  0  0
   40.0107   32.0815   45.0802 H   0  0  0  0  0  0  0  0  0  0  0  0
   35.7602   30.5162   47.2687 H   0  0  0  0  0  0  0  0  0  0  0  0
   34.5569   29.3247   45.4099 H   0  0  0  0  0  0  0  0  0  0  0  0
   32.4486   26.3169   48.5597 H   0  0  0  0  0  0  0  0  0  0  0  0
   30.1288   26.8887   49.9230 H   0  0  0  0  0  0  0  0  0  0  0  0
   30.4724   28.4065   50.0003 H   0  0  0  0  0  0  0  0  0  0  0  0
   30.3686   28.4023   47.1230 H   0  0  0  0  0  0  0  0  0  0  0  0
   29.7787   26.9722   47.0561 H   0  0  0  0  0  0  0  0  0  0  0  0
  1  6  1  0
  2  3  1  0
  2  1  1  0
  3  4  1  0
  4  5  1  0
  6  5  1  0
  7  8  1  0
  8  9  2  0
  9  3  1  0
  9 10  1  0
 11 10  2  0
 12 11  1  0
 13  8  1  0
 13 12  2  0
 14 13  1  0
 15 20  1  0
 15  1  1  0
 16 15  2  0
 17 18  2  0
 17 16  1  0
 18 19  1  0
 19 21  1  0
 19 20  2  0
 21 22  1  0
 23 21  1  0
 23 22  1  0
  1 24  1  1
  2 25  1  0
  2 26  1  0
  3 27  1  6
  4 28  1  0
  4 29  1  0
  5 30  1  0
  5 31  1  0
  6 32  1  0
  6 33  1  0
 10 34  1  0
 11 35  1  0
 12 36  1  0
 14 37  1  0
 14 38  1  0
 16 39  1  0
 17 40  1  0
 21 41  1  0
 22 42  1  0
 22 43  1  0
 23 44  1  0
 23 45  1  0
M  ISO  8  24  13  25  13  26  13  27  13  28  13  29  13  30  13  31  13
M  ISO  8  32  13  33  13  34  14  35  14  36  14  39  14  40  14  41  13
M  ISO  4  42  13  43  13  44  13  45  13
M  END
>  <minimizedAffinity>  (1) 
-7.82756472

>  <minimizedRMSD>  (1) 
0.417417496

$$$$
