
     RDKit          3D

 27 28  0  0  1  0  0  0  0  0999 V2000
   38.3560   32.7880   45.3920 N   0  0  0  0  0  0  0  0  0  0  0  0
   38.0110   31.7810   46.3590 C   0  0  1  0  0  0  0  0  0  0  0  0
   38.7630   30.5020   46.1200 C   0  0  0  0  0  0  0  0  0  0  0  0
   40.1820   30.8060   46.1900 N   0  0  0  0  0  0  0  0  0  0  0  0
   40.4540   31.6250   44.9920 C   0  0  0  0  0  0  0  0  0  0  0  0
   39.7740   32.9440   45.2540 C   0  0  1  0  0  0  0  0  0  0  0  0
   40.0260   33.8610   44.1010 C   0  0  0  0  0  0  0  0  0  0  0  0
   39.6270   33.6680   42.9450 O   0  0  0  0  0  0  0  0  0  0  0  0
   38.4490   32.3010   48.0640 S   0  0  0  0  0  0  0  0  0  0  0  0
   37.4020   30.0790   51.2920 C   0  0  0  0  0  0  0  0  0  0  0  0
   38.1770   30.8670   50.4510 C   0  0  0  0  0  0  0  0  0  0  0  0
   37.5960   31.2880   49.2530 C   0  0  0  0  0  0  0  0  0  0  0  0
   36.3130   30.9090   48.9740 N   0  0  0  0  0  0  0  0  0  0  0  0
   35.6110   30.1540   49.8100 C   0  0  0  0  0  0  0  0  0  0  0  0
   36.1460   29.7260   50.9860 N   0  0  0  0  0  0  0  0  0  0  0  0
   37.9615   32.5200   44.4791 H   0  0  0  0  0  0  0  0  0  0  0  0
   36.9262   31.6342   46.2510 H   0  0  0  0  0  0  0  0  0  0  0  0
   38.5141   30.1008   45.1265 H   0  0  0  0  0  0  0  0  0  0  0  0
   38.4921   29.7484   46.8741 H   0  0  0  0  0  0  0  0  0  0  0  0
   40.3976   31.3348   47.0472 H   0  0  0  0  0  0  0  0  0  0  0  0
   40.0355   31.1466   44.0942 H   0  0  0  0  0  0  0  0  0  0  0  0
   41.5324   31.7463   44.8125 H   0  0  0  0  0  0  0  0  0  0  0  0
   40.1816   33.3527   46.1904 H   0  0  0  0  0  0  0  0  0  0  0  0
   40.6085   34.7740   44.2936 H   0  0  0  0  0  0  0  0  0  0  0  0
   37.8342   29.7326   52.2424 H   0  0  0  0  0  0  0  0  0  0  0  0
   39.2065   31.1480   50.7177 H   0  0  0  0  0  0  0  0  0  0  0  0
   34.5810   29.8699   49.5484 H   0  0  0  0  0  0  0  0  0  0  0  0
  1  2  1  0
  2  9  1  0
  3  4  1  0
  3  2  1  0
  5  6  1  0
  5  4  1  0
  6  1  1  0
  7  6  1  0
  8  7  2  0
  9 12  1  0
 11 10  2  0
 12 11  1  0
 13 12  2  0
 13 14  1  0
 14 15  2  0
 15 10  1  0
  1 16  1  0
  2 17  1  1
  3 18  1  0
  3 19  1  0
  4 20  1  0
  5 21  1  0
  5 22  1  0
  6 23  1  1
  7 24  1  0
 10 25  1  0
 11 26  1  0
 14 27  1  0
M  ISO  8  16   5  17  13  18  13  19  13  20   5  21  13  22  13  23  13
M  ISO  4  24   6  25  14  26  14  27  14
M  END
>  <minimizedAffinity>  (1) 
-5.03731012

>  <minimizedRMSD>  (1) 
1.66820133

$$$$
