
     RDKit          3D

 44 46  0  0  1  0  0  0  0  0999 V2000
   35.2930   30.2710   49.7080 C   0  0  2  0  0  0  0  0  0  0  0  0
   36.2200   31.2850   49.2260 C   0  0  0  0  0  0  0  0  0  0  0  0
   37.7090   30.8460   49.3670 C   0  0  2  0  0  0  0  0  0  0  0  0
   38.0920   30.5310   50.7210 C   0  0  0  0  0  0  0  0  0  0  0  0
   37.0170   29.7800   51.5080 C   0  0  0  0  0  0  0  0  0  0  0  0
   35.9700   29.2200   50.5950 C   0  0  0  0  0  0  0  0  0  0  0  0
   38.6270   30.6500   46.5670 Cl  0  0  0  0  0  0  0  0  0  0  0  0
   38.9780   32.0330   47.5770 C   0  0  0  0  0  0  0  0  0  0  0  0
   38.4580   32.0330   48.8460 C   0  0  0  0  0  0  0  0  0  0  0  0
   38.7480   33.1760   49.5630 C   0  0  0  0  0  0  0  0  0  0  0  0
   39.4920   34.2240   49.0570 C   0  0  0  0  0  0  0  0  0  0  0  0
   39.9880   34.1450   47.7540 C   0  0  0  0  0  0  0  0  0  0  0  0
   39.7180   33.0080   46.9930 C   0  0  0  0  0  0  0  0  0  0  0  0
   40.2240   32.9320   45.6700 N   0  0  0  0  0  0  0  0  0  0  0  0
   34.5400   29.5400   48.6960 C   0  0  0  0  0  0  0  0  0  0  0  0
   34.8980   29.8480   47.3910 C   0  0  0  0  0  0  0  0  0  0  0  0
   34.2570   29.1860   46.3470 C   0  0  0  0  0  0  0  0  0  0  0  0
   33.2820   28.2370   46.6680 N   0  0  0  0  0  0  0  0  0  0  0  0
   32.9640   27.9690   47.9420 C   0  0  0  0  0  0  0  0  0  0  0  0
   33.6050   28.6290   48.9060 N   0  0  0  0  0  0  0  0  0  0  0  0
   31.9480   26.9830   48.3260 C   0  0  0  0  0  0  0  0  0  0  0  0
   30.8010   27.6260   49.0610 C   0  0  0  0  0  0  0  0  0  0  0  0
   34.5821   30.8918   50.2730 H   0  0  0  0  0  0  0  0  0  0  0  0
   36.0674   32.2071   49.8060 H   0  0  0  0  0  0  0  0  0  0  0  0
   36.0173   31.4426   48.1564 H   0  0  0  0  0  0  0  0  0  0  0  0
   37.9153   29.9133   48.8216 H   0  0  0  0  0  0  0  0  0  0  0  0
   38.9976   29.9074   50.6890 H   0  0  0  0  0  0  0  0  0  0  0  0
   38.2575   31.4878   51.2378 H   0  0  0  0  0  0  0  0  0  0  0  0
   37.4885   28.9550   52.0622 H   0  0  0  0  0  0  0  0  0  0  0  0
   36.5346   30.4859   52.2000 H   0  0  0  0  0  0  0  0  0  0  0  0
   35.1970   28.7360   51.2100 H   0  0  0  0  0  0  0  0  0  0  0  0
   36.4779   28.5134   49.9221 H   0  0  0  0  0  0  0  0  0  0  0  0
   38.3666   33.2567   50.5916 H   0  0  0  0  0  0  0  0  0  0  0  0
   39.6919   35.1122   49.6744 H   0  0  0  0  0  0  0  0  0  0  0  0
   40.5837   34.9686   47.3335 H   0  0  0  0  0  0  0  0  0  0  0  0
   40.7803   33.7091   45.2859 H   0  0  0  0  0  0  0  0  0  0  0  0
   40.0351   32.0997   45.0934 H   0  0  0  0  0  0  0  0  0  0  0  0
   35.6733   30.6007   47.1853 H   0  0  0  0  0  0  0  0  0  0  0  0
   34.5107   29.4037   45.2990 H   0  0  0  0  0  0  0  0  0  0  0  0
   31.5621   26.4960   47.4183 H   0  0  0  0  0  0  0  0  0  0  0  0
   32.4177   26.2484   48.9966 H   0  0  0  0  0  0  0  0  0  0  0  0
   30.9632   27.5351   50.1452 H   0  0  0  0  0  0  0  0  0  0  0  0
   30.7403   28.6897   48.7873 H   0  0  0  0  0  0  0  0  0  0  0  0
   29.8619   27.1228   48.7873 H   0  0  0  0  0  0  0  0  0  0  0  0
  1  6  1  0
  2  3  1  0
  2  1  1  0
  3  4  1  0
  4  5  1  0
  6  5  1  0
  7  8  1  0
  8  9  2  0
  9  3  1  0
  9 10  1  0
 11 10  2  0
 12 11  1  0
 13  8  1  0
 13 12  2  0
 14 13  1  0
 15 20  1  0
 15  1  1  0
 16 15  2  0
 17 18  2  0
 17 16  1  0
 18 19  1  0
 19 21  1  0
 19 20  2  0
 21 22  1  0
  1 23  1  1
  2 24  1  0
  2 25  1  0
  3 26  1  6
  4 27  1  0
  4 28  1  0
  5 29  1  0
  5 30  1  0
  6 31  1  0
  6 32  1  0
 10 33  1  0
 11 34  1  0
 12 35  1  0
 14 36  1  0
 14 37  1  0
 16 38  1  0
 17 39  1  0
 21 40  1  0
 21 41  1  0
 22 42  1  0
 22 43  1  0
 22 44  1  0
M  ISO  8  23  13  24  13  25  13  26  13  27  13  28  13  29  13  30  13
M  ISO  8  31  13  32  13  33  14  34  14  35  14  38  14  39  14  40   8
M  ISO  4  41   8  42   8  43   8  44   8
M  END
>  <minimizedAffinity>  (1) 
-7.61799622

>  <minimizedRMSD>  (1) 
0.551327288

$$$$
