
     RDKit          3D

 36 39  0  0  1  0  0  0  0  0999 V2000
   36.2170   33.0530   43.0610 N   0  0  0  0  0  0  0  0  0  0  0  0
   35.3990   31.8770   43.1360 C   0  0  1  0  0  0  0  0  0  0  0  0
   34.9460   31.4540   41.7660 C   0  0  0  0  0  0  0  0  0  0  0  0
   36.1390   31.2020   40.9710 N   0  0  0  0  0  0  0  0  0  0  0  0
   36.7270   32.5220   40.7630 C   0  0  0  0  0  0  0  0  0  0  0  0
   37.2650   32.9550   42.1070 C   0  0  2  0  0  0  0  0  0  0  0  0
   38.4100   32.1960   42.4920 N   0  0  0  0  0  0  0  0  0  0  0  0
   39.0240   31.2160   41.7900 C   0  0  0  0  0  0  0  0  0  0  0  0
   40.0770   30.7170   42.4620 N   0  0  0  0  0  0  0  0  0  0  0  0
   40.1410   31.3930   43.6230 C   0  0  0  0  0  0  0  0  0  0  0  0
   41.0270   31.2820   44.6780 C   0  0  0  0  0  0  0  0  0  0  0  0
   40.8720   32.0840   45.7350 N   0  0  0  0  0  0  0  0  0  0  0  0
   39.8500   32.9620   45.7100 C   0  0  0  0  0  0  0  0  0  0  0  0
   38.9660   33.1130   44.7200 N   0  0  0  0  0  0  0  0  0  0  0  0
   39.0930   32.3210   43.6390 C   0  0  0  0  0  0  0  0  0  0  0  0
   36.3400   30.4520   43.8190 S   0  0  0  0  0  0  0  0  0  0  0  0
   36.7770   30.6250   47.8610 C   0  0  0  0  0  0  0  0  0  0  0  0
   37.0910   30.7250   46.5060 C   0  0  0  0  0  0  0  0  0  0  0  0
   36.1170   30.3870   45.5930 C   0  0  0  0  0  0  0  0  0  0  0  0
   34.8970   29.9730   46.0550 N   0  0  0  0  0  0  0  0  0  0  0  0
   34.6340   29.8910   47.3540 C   0  0  0  0  0  0  0  0  0  0  0  0
   35.5740   30.2170   48.2770 N   0  0  0  0  0  0  0  0  0  0  0  0
   35.6178   33.8511   42.8061 H   0  0  0  0  0  0  0  0  0  0  0  0
   34.5470   32.1349   43.7822 H   0  0  0  0  0  0  0  0  0  0  0  0
   34.3408   30.5382   41.8363 H   0  0  0  0  0  0  0  0  0  0  0  0
   34.3288   32.2375   41.3021 H   0  0  0  0  0  0  0  0  0  0  0  0
   36.7921   30.5888   41.4793 H   0  0  0  0  0  0  0  0  0  0  0  0
   37.5412   32.4658   40.0255 H   0  0  0  0  0  0  0  0  0  0  0  0
   35.9856   33.2369   40.3766 H   0  0  0  0  0  0  0  0  0  0  0  0
   37.6625   33.9782   42.0361 H   0  0  0  0  0  0  0  0  0  0  0  0
   38.7030   30.8711   40.7960 H   0  0  0  0  0  0  0  0  0  0  0  0
   41.8447   30.5468   44.6478 H   0  0  0  0  0  0  0  0  0  0  0  0
   39.7327   33.6156   46.5870 H   0  0  0  0  0  0  0  0  0  0  0  0
   37.5401   30.8891   48.6079 H   0  0  0  0  0  0  0  0  0  0  0  0
   38.0847   31.0630   46.1770 H   0  0  0  0  0  0  0  0  0  0  0  0
   33.6409   29.5543   47.6864 H   0  0  0  0  0  0  0  0  0  0  0  0
  1  2  1  0
  2 16  1  0
  3  2  1  0
  4  3  1  0
  5  4  1  0
  5  6  1  0
  6  7  1  0
  6  1  1  0
  7 15  1  0
  8  9  2  0
  8  7  1  0
  9 10  1  0
 10 15  2  0
 10 11  1  0
 11 12  2  0
 13 12  1  0
 14 13  2  0
 15 14  1  0
 16 19  1  0
 17 22  2  0
 18 17  1  0
 19 20  1  0
 19 18  2  0
 20 21  2  0
 21 22  1  0
  1 23  1  0
  2 24  1  1
  3 25  1  0
  3 26  1  0
  4 27  1  0
  5 28  1  0
  5 29  1  0
  6 30  1  6
  8 31  1  0
 11 32  1  0
 13 33  1  0
 17 34  1  0
 18 35  1  0
 21 36  1  0
M  ISO  8  23   5  24  13  25  13  26  13  27   5  28  13  29  13  30  13
M  ISO  6  31  14  32  14  33  14  34  14  35  14  36  14
M  END
>  <minimizedAffinity>  (1) 
-4.58035946

>  <minimizedRMSD>  (1) 
4.21322203

$$$$
