
     RDKit          3D

 31 33  0  0  0  0  0  0  0  0999 V2000
   34.8360   28.4370   49.3830 C   0  0  0  0  0  0  0  0  0  0  0  0
   33.5930   28.1790   48.5740 C   0  0  0  0  0  0  0  0  0  0  0  0
   33.7000   28.2120   47.1320 C   0  0  0  0  0  0  0  0  0  0  0  0
   32.0280   27.8610   46.6630 S   0  0  0  0  0  0  0  0  0  0  0  0
   31.4220   27.7200   48.4320 C   0  0  0  0  0  0  0  0  0  0  0  0
   32.4130   27.9250   49.0700 N   0  0  0  0  0  0  0  0  0  0  0  0
   29.9980   27.4150   48.8020 C   0  0  0  0  0  0  0  0  0  0  0  0
   29.7140   27.4870   50.1490 C   0  0  0  0  0  0  0  0  0  0  0  0
   28.4010   27.2020   50.4560 C   0  0  0  0  0  0  0  0  0  0  0  0
   27.4650   26.8760   49.4820 C   0  0  0  0  0  0  0  0  0  0  0  0
   27.8390   26.8270   48.1380 C   0  0  0  0  0  0  0  0  0  0  0  0
   29.1270   27.1070   47.8550 N   0  0  0  0  0  0  0  0  0  0  0  0
   34.8730   29.8210   49.9220 C   0  0  0  0  0  0  0  0  0  0  0  0
   37.6250   32.2810   49.5080 C   0  0  0  0  0  0  0  0  0  0  0  0
   38.3530   31.7420   48.4450 C   0  0  0  0  0  0  0  0  0  0  0  0
   37.9030   30.5460   47.8750 C   0  0  0  0  0  0  0  0  0  0  0  0
   36.7790   29.9860   48.3990 N   0  0  0  0  0  0  0  0  0  0  0  0
   36.1060   30.5360   49.4240 C   0  0  0  0  0  0  0  0  0  0  0  0
   36.5250   31.6820   49.9810 N   0  0  0  0  0  0  0  0  0  0  0  0
   35.7158   28.2824   48.7411 H   0  0  0  0  0  0  0  0  0  0  0  0
   34.8371   27.7409   50.2348 H   0  0  0  0  0  0  0  0  0  0  0  0
   34.5793   28.4029   46.4993 H   0  0  0  0  0  0  0  0  0  0  0  0
   30.4657   27.7478   50.9085 H   0  0  0  0  0  0  0  0  0  0  0  0
   28.0829   27.2337   51.5085 H   0  0  0  0  0  0  0  0  0  0  0  0
   26.4267   26.6560   49.7708 H   0  0  0  0  0  0  0  0  0  0  0  0
   27.1174   26.5722   47.3478 H   0  0  0  0  0  0  0  0  0  0  0  0
   33.9769   30.3655   49.5896 H   0  0  0  0  0  0  0  0  0  0  0  0
   34.8983   29.7801   51.0209 H   0  0  0  0  0  0  0  0  0  0  0  0
   37.9638   33.2210   49.9681 H   0  0  0  0  0  0  0  0  0  0  0  0
   39.2555   32.2440   48.0662 H   0  0  0  0  0  0  0  0  0  0  0  0
   38.4372   30.0766   47.0358 H   0  0  0  0  0  0  0  0  0  0  0  0
  1 13  1  0
  2  6  1  0
  2  1  1  0
  3  2  2  0
  4  3  1  0
  4  5  1  0
  5  7  1  0
  5  6  2  0
  7  8  2  0
  8  9  1  0
 10  9  2  0
 11 10  1  0
 12 11  2  0
 12  7  1  0
 14 19  2  0
 15 14  1  0
 16 17  1  0
 16 15  2  0
 17 18  2  0
 18 13  1  0
 18 19  1  0
  1 20  1  0
  1 21  1  0
  3 22  1  0
  8 23  1  0
  9 24  1  0
 10 25  1  0
 11 26  1  0
 13 27  1  0
 13 28  1  0
 14 29  1  0
 15 30  1  0
 16 31  1  0
M  ISO  8  20   8  21   8  22  14  23  14  24  14  25  14  26  14  27   8
M  ISO  4  28   8  29  14  30  14  31  14
M  END
>  <minimizedAffinity>  (1) 
-5.44417143

>  <minimizedRMSD>  (1) 
1.6455195

$$$$
