
     RDKit          3D

 30 32  0  0  0  0  0  0  0  0999 V2000
   34.8010   28.4310   49.3670 C   0  0  0  0  0  0  0  0  0  0  0  0
   33.5450   28.2530   48.5560 C   0  0  0  0  0  0  0  0  0  0  0  0
   33.6210   28.4580   47.1190 C   0  0  0  0  0  0  0  0  0  0  0  0
   31.9380   28.1410   46.6490 S   0  0  0  0  0  0  0  0  0  0  0  0
   31.3780   27.7860   48.4030 C   0  0  0  0  0  0  0  0  0  0  0  0
   32.3790   27.9260   49.0430 N   0  0  0  0  0  0  0  0  0  0  0  0
   29.9660   27.4210   48.7660 C   0  0  0  0  0  0  0  0  0  0  0  0
   29.6880   27.4080   50.1170 C   0  0  0  0  0  0  0  0  0  0  0  0
   28.3870   27.0710   50.4140 C   0  0  0  0  0  0  0  0  0  0  0  0
   27.4940   26.7850   49.4340 N   0  0  0  0  0  0  0  0  0  0  0  0
   27.8610   26.8250   48.1400 C   0  0  0  0  0  0  0  0  0  0  0  0
   29.1280   27.1490   47.7500 N   0  0  0  0  0  0  0  0  0  0  0  0
   34.8700   29.8050   49.9630 C   0  0  0  0  0  0  0  0  0  0  0  0
   37.6070   32.2750   49.5140 C   0  0  0  0  0  0  0  0  0  0  0  0
   38.3420   31.7290   48.4360 C   0  0  0  0  0  0  0  0  0  0  0  0
   37.8830   30.5240   47.8830 C   0  0  0  0  0  0  0  0  0  0  0  0
   36.7710   29.9570   48.4120 N   0  0  0  0  0  0  0  0  0  0  0  0
   36.1010   30.5240   49.4500 C   0  0  0  0  0  0  0  0  0  0  0  0
   36.5000   31.6650   50.0040 N   0  0  0  0  0  0  0  0  0  0  0  0
   35.6739   28.2781   48.7153 H   0  0  0  0  0  0  0  0  0  0  0  0
   34.7951   27.6958   50.1852 H   0  0  0  0  0  0  0  0  0  0  0  0
   34.4836   28.7336   46.4945 H   0  0  0  0  0  0  0  0  0  0  0  0
   30.4374   27.6452   50.8865 H   0  0  0  0  0  0  0  0  0  0  0  0
   28.0656   27.0329   51.4653 H   0  0  0  0  0  0  0  0  0  0  0  0
   27.1130   26.5881   47.3690 H   0  0  0  0  0  0  0  0  0  0  0  0
   33.9710   30.3719   49.6795 H   0  0  0  0  0  0  0  0  0  0  0  0
   34.9260   29.7240   51.0586 H   0  0  0  0  0  0  0  0  0  0  0  0
   37.9425   33.2197   49.9668 H   0  0  0  0  0  0  0  0  0  0  0  0
   39.2400   32.2304   48.0457 H   0  0  0  0  0  0  0  0  0  0  0  0
   38.4117   30.0516   47.0420 H   0  0  0  0  0  0  0  0  0  0  0  0
  1 13  1  0
  2  6  1  0
  2  1  1  0
  3  2  2  0
  4  3  1  0
  4  5  1  0
  5  7  1  0
  5  6  2  0
  7  8  2  0
  8  9  1  0
 10  9  2  0
 11 10  1  0
 12 11  2  0
 12  7  1  0
 14 19  2  0
 15 14  1  0
 16 17  1  0
 16 15  2  0
 17 18  2  0
 18 13  1  0
 18 19  1  0
  1 20  1  0
  1 21  1  0
  3 22  1  0
  8 23  1  0
  9 24  1  0
 11 25  1  0
 13 26  1  0
 13 27  1  0
 14 28  1  0
 15 29  1  0
 16 30  1  0
M  ISO  8  20   8  21   8  22  14  23  14  24  14  25  14  26   8  27   8
M  ISO  3  28  14  29  14  30  14
M  END
>  <minimizedAffinity>  (1) 
-5.38421345

>  <minimizedRMSD>  (1) 
1.61899865

$$$$
