
     RDKit          3D

 28 29  0  0  0  0  0  0  0  0999 V2000
   35.7710   30.2220   49.9690 C   0  0  0  0  0  0  0  0  0  0  0  0
   38.0300   33.0940   49.2720 C   0  0  0  0  0  0  0  0  0  0  0  0
   38.7910   32.6310   48.1920 C   0  0  0  0  0  0  0  0  0  0  0  0
   38.5180   31.3440   47.7180 C   0  0  0  0  0  0  0  0  0  0  0  0
   37.5430   30.6230   48.3280 N   0  0  0  0  0  0  0  0  0  0  0  0
   36.8390   31.1150   49.3640 C   0  0  0  0  0  0  0  0  0  0  0  0
   37.0650   32.3320   49.8460 N   0  0  0  0  0  0  0  0  0  0  0  0
   35.7530   28.9050   49.2780 C   0  0  0  0  0  0  0  0  0  0  0  0
   34.4710   28.6890   48.5180 C   0  0  0  0  0  0  0  0  0  0  0  0
   34.3270   29.3390   47.2350 C   0  0  0  0  0  0  0  0  0  0  0  0
   32.7010   28.7910   46.7620 S   0  0  0  0  0  0  0  0  0  0  0  0
   32.4470   27.7860   48.3250 C   0  0  0  0  0  0  0  0  0  0  0  0
   33.4690   27.9600   48.9240 N   0  0  0  0  0  0  0  0  0  0  0  0
   31.1750   26.9920   48.6060 C   0  0  0  0  0  0  0  0  0  0  0  0
   30.3210   27.7860   49.5490 C   0  0  0  0  0  0  0  0  0  0  0  0
   35.9866   30.0695   51.0368 H   0  0  0  0  0  0  0  0  0  0  0  0
   34.7894   30.7040   49.8500 H   0  0  0  0  0  0  0  0  0  0  0  0
   38.2195   34.1033   49.6662 H   0  0  0  0  0  0  0  0  0  0  0  0
   39.5728   33.2549   47.7343 H   0  0  0  0  0  0  0  0  0  0  0  0
   39.0804   30.9255   46.8703 H   0  0  0  0  0  0  0  0  0  0  0  0
   36.5963   28.8613   48.5731 H   0  0  0  0  0  0  0  0  0  0  0  0
   35.8343   28.1174   50.0416 H   0  0  0  0  0  0  0  0  0  0  0  0
   35.0298   29.9931   46.6981 H   0  0  0  0  0  0  0  0  0  0  0  0
   30.6296   26.8192   47.6665 H   0  0  0  0  0  0  0  0  0  0  0  0
   31.4274   26.0188   49.0523 H   0  0  0  0  0  0  0  0  0  0  0  0
   30.5898   27.5361   50.5860 H   0  0  0  0  0  0  0  0  0  0  0  0
   30.4850   28.8599   49.3764 H   0  0  0  0  0  0  0  0  0  0  0  0
   29.2618   27.5444   49.3764 H   0  0  0  0  0  0  0  0  0  0  0  0
  2  7  2  0
  3  2  1  0
  4  3  2  0
  4  5  1  0
  5  6  2  0
  6  7  1  0
  6  1  1  0
  8  1  1  0
  9 13  1  0
  9  8  1  0
 10  9  2  0
 11 10  1  0
 11 12  1  0
 12 14  1  0
 12 13  2  0
 14 15  1  0
  1 16  1  0
  1 17  1  0
  2 18  1  0
  3 19  1  0
  4 20  1  0
  8 21  1  0
  8 22  1  0
 10 23  1  0
 14 24  1  0
 14 25  1  0
 15 26  1  0
 15 27  1  0
 15 28  1  0
M  ISO  8  16   8  17   8  18  14  19  14  20  14  21   8  22   8  23  14
M  ISO  5  24   8  25   8  26   8  27   8  28   8
M  END
>  <minimizedAffinity>  (1) 
-4.55358267

>  <minimizedRMSD>  (1) 
0.463557452

$$$$
