
     RDKit          3D

 24 25  0  0  0  0  0  0  0  0999 V2000
   35.8670   30.2510   50.0040 C   0  0  0  0  0  0  0  0  0  0  0  0
   38.0530   33.1550   49.2760 C   0  0  0  0  0  0  0  0  0  0  0  0
   38.7940   32.7220   48.1790 C   0  0  0  0  0  0  0  0  0  0  0  0
   38.5320   31.4350   47.7040 C   0  0  0  0  0  0  0  0  0  0  0  0
   37.5890   30.6700   48.3090 N   0  0  0  0  0  0  0  0  0  0  0  0
   36.9000   31.1570   49.3800 C   0  0  0  0  0  0  0  0  0  0  0  0
   37.1250   32.3830   49.8610 N   0  0  0  0  0  0  0  0  0  0  0  0
   35.8430   28.9360   49.2850 C   0  0  0  0  0  0  0  0  0  0  0  0
   34.5240   28.6970   48.6140 C   0  0  0  0  0  0  0  0  0  0  0  0
   34.3940   29.0570   47.2230 C   0  0  0  0  0  0  0  0  0  0  0  0
   32.7100   28.6010   46.8990 S   0  0  0  0  0  0  0  0  0  0  0  0
   32.4120   27.9960   48.6510 C   0  0  0  0  0  0  0  0  0  0  0  0
   33.4660   28.1880   49.1790 N   0  0  0  0  0  0  0  0  0  0  0  0
   31.0350   27.4600   48.9530 C   0  0  0  0  0  0  0  0  0  0  0  0
   30.3460   27.9220   49.8740 O   0  0  0  0  0  0  0  0  0  0  0  0
   36.1190   30.0842   51.0617 H   0  0  0  0  0  0  0  0  0  0  0  0
   34.8767   30.7239   49.9286 H   0  0  0  0  0  0  0  0  0  0  0  0
   38.2348   34.1635   49.6759 H   0  0  0  0  0  0  0  0  0  0  0  0
   39.5519   33.3651   47.7077 H   0  0  0  0  0  0  0  0  0  0  0  0
   39.0893   31.0423   46.8408 H   0  0  0  0  0  0  0  0  0  0  0  0
   36.6368   28.9312   48.5235 H   0  0  0  0  0  0  0  0  0  0  0  0
   36.0023   28.1371   50.0242 H   0  0  0  0  0  0  0  0  0  0  0  0
   35.1397   29.4968   46.5444 H   0  0  0  0  0  0  0  0  0  0  0  0
   30.6324   26.6393   48.3412 H   0  0  0  0  0  0  0  0  0  0  0  0
  2  7  2  0
  3  2  1  0
  4  3  2  0
  4  5  1  0
  5  6  2  0
  6  7  1  0
  6  1  1  0
  8  1  1  0
  9 13  1  0
  9  8  1  0
 10  9  2  0
 11 10  1  0
 11 12  1  0
 12 14  1  0
 12 13  2  0
 14 15  2  0
  1 16  1  0
  1 17  1  0
  2 18  1  0
  3 19  1  0
  4 20  1  0
  8 21  1  0
  8 22  1  0
 10 23  1  0
 14 24  1  0
M  ISO  8  16   8  17   8  18  14  19  14  20  14  21   8  22   8  23  14
M  ISO  1  24   6
M  END
>  <minimizedAffinity>  (1) 
-4.50468302

>  <minimizedRMSD>  (1) 
0.449763477

$$$$
