
     RDKit          3D

 49 53  0  0  0  0  0  0  0  0999 V2000
   34.1640   27.9760   48.9710 C   0  0  0  0  0  0  0  0  0  0  0  0
   32.8270   28.0830   48.2800 C   0  0  0  0  0  0  0  0  0  0  0  0
   32.7650   28.6290   46.9440 C   0  0  0  0  0  0  0  0  0  0  0  0
   31.0340   28.5270   46.6260 S   0  0  0  0  0  0  0  0  0  0  0  0
   30.6010   27.7760   48.2940 C   0  0  0  0  0  0  0  0  0  0  0  0
   31.6830   27.7190   48.7810 N   0  0  0  0  0  0  0  0  0  0  0  0
   29.3340   27.3650   48.8720 N   0  0  0  0  0  0  0  0  0  0  0  0
   28.3400   26.9050   47.9460 C   0  0  0  0  0  0  0  0  0  0  0  0
   26.9480   26.9130   48.4960 C   0  0  0  0  0  0  0  0  0  0  0  0
   26.8390   27.5290   49.8130 N   0  0  0  0  0  0  0  0  0  0  0  0
   27.8250   26.8500   50.6590 C   0  0  0  0  0  0  0  0  0  0  0  0
   29.1570   27.4400   50.2940 C   0  0  0  0  0  0  0  0  0  0  0  0
   34.2240   28.8290   50.1700 C   0  0  0  0  0  0  0  0  0  0  0  0
   37.4500   30.1340   51.4840 C   0  0  0  0  0  0  0  0  0  0  0  0
   38.0300   30.7290   50.3510 C   0  0  0  0  0  0  0  0  0  0  0  0
   37.2950   30.6610   49.1720 C   0  0  0  0  0  0  0  0  0  0  0  0
   36.0940   30.0510   49.1590 N   0  0  0  0  0  0  0  0  0  0  0  0
   35.5830   29.4910   50.2980 C   0  0  0  0  0  0  0  0  0  0  0  0
   36.2550   29.5370   51.4340 N   0  0  0  0  0  0  0  0  0  0  0  0
   37.1820   30.7970   46.7530 C   0  0  0  0  0  0  0  0  0  0  0  0
   37.7720   31.2330   47.9190 C   0  0  0  0  0  0  0  0  0  0  0  0
   38.7640   32.1760   47.8190 C   0  0  0  0  0  0  0  0  0  0  0  0
   39.1720   32.6790   46.6030 C   0  0  0  0  0  0  0  0  0  0  0  0
   40.0890   33.5810   46.1960 N   0  0  0  0  0  0  0  0  0  0  0  0
   40.0760   33.7000   44.8690 N   0  0  0  0  0  0  0  0  0  0  0  0
   39.1590   32.8930   44.3270 C   0  0  0  0  0  0  0  0  0  0  0  0
   38.6030   32.2620   45.4190 C   0  0  0  0  0  0  0  0  0  0  0  0
   37.5920   31.3040   45.5130 C   0  0  0  0  0  0  0  0  0  0  0  0
   34.9535   28.2876   48.2713 H   0  0  0  0  0  0  0  0  0  0  0  0
   34.3069   26.9313   49.2843 H   0  0  0  0  0  0  0  0  0  0  0  0
   33.5751   29.0050   46.3018 H   0  0  0  0  0  0  0  0  0  0  0  0
   28.5904   25.8748   47.6526 H   0  0  0  0  0  0  0  0  0  0  0  0
   28.3506   27.6014   47.0945 H   0  0  0  0  0  0  0  0  0  0  0  0
   26.3029   27.4681   47.7991 H   0  0  0  0  0  0  0  0  0  0  0  0
   26.6416   25.8624   48.6074 H   0  0  0  0  0  0  0  0  0  0  0  0
   27.0491   28.5357   49.7558 H   0  0  0  0  0  0  0  0  0  0  0  0
   27.6054   27.0294   51.7218 H   0  0  0  0  0  0  0  0  0  0  0  0
   27.8093   25.7612   50.5030 H   0  0  0  0  0  0  0  0  0  0  0  0
   29.9583   26.8765   50.7945 H   0  0  0  0  0  0  0  0  0  0  0  0
   29.1956   28.4912   50.6157 H   0  0  0  0  0  0  0  0  0  0  0  0
   33.4501   29.6073   50.0970 H   0  0  0  0  0  0  0  0  0  0  0  0
   34.0553   28.2001   51.0566 H   0  0  0  0  0  0  0  0  0  0  0  0
   37.9947   30.1602   52.4393 H   0  0  0  0  0  0  0  0  0  0  0  0
   39.0124   31.2220   50.3940 H   0  0  0  0  0  0  0  0  0  0  0  0
   36.3815   30.0438   46.7960 H   0  0  0  0  0  0  0  0  0  0  0  0
   39.2478   32.5411   48.7370 H   0  0  0  0  0  0  0  0  0  0  0  0
   40.7135   34.1057   46.8249 H   0  0  0  0  0  0  0  0  0  0  0  0
   38.9080   32.7634   43.2639 H   0  0  0  0  0  0  0  0  0  0  0  0
   37.1075   30.9399   44.5950 H   0  0  0  0  0  0  0  0  0  0  0  0
  1 13  1  0
  2  6  1  0
  2  1  1  0
  3  2  2  0
  4  3  1  0
  4  5  1  0
  5  6  2  0
  5  7  1  0
  7 12  1  0
  8  9  1  0
  8  7  1  0
  9 10  1  0
 10 11  1  0
 12 11  1  0
 13 18  1  0
 15 14  2  0
 16 15  1  0
 17 16  2  0
 17 18  1  0
 18 19  2  0
 19 14  1  0
 20 21  2  0
 21 16  1  0
 22 21  1  0
 23 22  2  0
 24 23  1  0
 25 24  1  0
 26 25  2  0
 26 27  1  0
 27 28  2  0
 27 23  1  0
 28 20  1  0
  1 29  1  0
  1 30  1  0
  3 31  1  0
  8 32  1  0
  8 33  1  0
  9 34  1  0
  9 35  1  0
 10 36  1  0
 11 37  1  0
 11 38  1  0
 12 39  1  0
 12 40  1  0
 13 41  1  0
 13 42  1  0
 14 43  1  0
 15 44  1  0
 20 45  1  0
 22 46  1  0
 24 47  1  0
 26 48  1  0
 28 49  1  0
M  ISO  8  29   8  30   8  31  14  32  13  33  13  34  13  35  13  36   5
M  ISO  8  37  13  38  13  39  13  40  13  41   8  42   8  43  14  44  14
M  ISO  5  45  14  46  14  47   9  48  14  49  14
M  END
>  <minimizedAffinity>  (1) 
-8.60390759

>  <minimizedRMSD>  (1) 
2.47031999

$$$$
