
     RDKit          3D

 50 54  0  0  0  0  0  0  0  0999 V2000
   34.1520   27.8860   49.0020 C   0  0  0  0  0  0  0  0  0  0  0  0
   32.8140   28.0290   48.3210 C   0  0  0  0  0  0  0  0  0  0  0  0
   32.7710   28.5940   47.0000 C   0  0  0  0  0  0  0  0  0  0  0  0
   31.0270   28.5390   46.6740 S   0  0  0  0  0  0  0  0  0  0  0  0
   30.5840   27.7770   48.3260 C   0  0  0  0  0  0  0  0  0  0  0  0
   31.6640   27.6880   48.8150 N   0  0  0  0  0  0  0  0  0  0  0  0
   29.3060   27.3870   48.9000 N   0  0  0  0  0  0  0  0  0  0  0  0
   28.3060   26.9560   47.9690 C   0  0  0  0  0  0  0  0  0  0  0  0
   26.9190   26.9560   48.5120 C   0  0  0  0  0  0  0  0  0  0  0  0
   26.8150   27.5400   49.8350 N   0  0  0  0  0  0  0  0  0  0  0  0
   27.7890   26.8470   50.6620 C   0  0  0  0  0  0  0  0  0  0  0  0
   29.1240   27.4520   50.3230 C   0  0  0  0  0  0  0  0  0  0  0  0
   34.2570   28.7390   50.1950 C   0  0  0  0  0  0  0  0  0  0  0  0
   37.4790   30.2040   51.3410 C   0  0  0  0  0  0  0  0  0  0  0  0
   37.9890   30.7500   50.1650 C   0  0  0  0  0  0  0  0  0  0  0  0
   37.2310   30.6130   49.0050 C   0  0  0  0  0  0  0  0  0  0  0  0
   36.0380   29.9550   49.0800 N   0  0  0  0  0  0  0  0  0  0  0  0
   35.5970   29.4470   50.2470 C   0  0  0  0  0  0  0  0  0  0  0  0
   36.2990   29.5630   51.3700 N   0  0  0  0  0  0  0  0  0  0  0  0
   37.1570   30.7970   46.5020 C   0  0  0  0  0  0  0  0  0  0  0  0
   37.6760   31.1500   47.7270 C   0  0  0  0  0  0  0  0  0  0  0  0
   38.6910   32.0820   47.6960 C   0  0  0  0  0  0  0  0  0  0  0  0
   39.1740   32.6440   46.5150 C   0  0  0  0  0  0  0  0  0  0  0  0
   40.1160   33.5400   46.1800 N   0  0  0  0  0  0  0  0  0  0  0  0
   40.1650   33.7180   44.8560 C   0  0  0  0  0  0  0  0  0  0  0  0
   39.2170   32.9090   44.2580 C   0  0  0  0  0  0  0  0  0  0  0  0
   38.6160   32.2520   45.3160 C   0  0  0  0  0  0  0  0  0  0  0  0
   37.6020   31.3240   45.3080 C   0  0  0  0  0  0  0  0  0  0  0  0
   34.9436   28.1688   48.2925 H   0  0  0  0  0  0  0  0  0  0  0  0
   34.2600   26.8392   49.3223 H   0  0  0  0  0  0  0  0  0  0  0  0
   33.5922   28.9596   46.3660 H   0  0  0  0  0  0  0  0  0  0  0  0
   28.5508   25.9319   47.6507 H   0  0  0  0  0  0  0  0  0  0  0  0
   28.3181   27.6776   47.1388 H   0  0  0  0  0  0  0  0  0  0  0  0
   26.2771   27.5294   47.8270 H   0  0  0  0  0  0  0  0  0  0  0  0
   26.6052   25.9051   48.5970 H   0  0  0  0  0  0  0  0  0  0  0  0
   27.0293   28.5468   49.7987 H   0  0  0  0  0  0  0  0  0  0  0  0
   27.5610   26.9962   51.7277 H   0  0  0  0  0  0  0  0  0  0  0  0
   27.7782   25.7630   50.4755 H   0  0  0  0  0  0  0  0  0  0  0  0
   29.9246   26.8894   50.8255 H   0  0  0  0  0  0  0  0  0  0  0  0
   29.1598   28.4985   50.6600 H   0  0  0  0  0  0  0  0  0  0  0  0
   33.4546   29.4910   50.1701 H   0  0  0  0  0  0  0  0  0  0  0  0
   34.1646   28.1025   51.0874 H   0  0  0  0  0  0  0  0  0  0  0  0
   38.0585   30.3005   52.2710 H   0  0  0  0  0  0  0  0  0  0  0  0
   38.9574   31.2715   50.1533 H   0  0  0  0  0  0  0  0  0  0  0  0
   36.3448   30.0557   46.4741 H   0  0  0  0  0  0  0  0  0  0  0  0
   39.1415   32.3975   48.6486 H   0  0  0  0  0  0  0  0  0  0  0  0
   40.7222   34.0270   46.8554 H   0  0  0  0  0  0  0  0  0  0  0  0
   40.8492   34.3983   44.3278 H   0  0  0  0  0  0  0  0  0  0  0  0
   38.9921   32.8104   43.1858 H   0  0  0  0  0  0  0  0  0  0  0  0
   37.1496   31.0046   44.3576 H   0  0  0  0  0  0  0  0  0  0  0  0
  1 13  1  0
  2  6  1  0
  2  1  1  0
  3  2  2  0
  4  3  1  0
  4  5  1  0
  5  6  2  0
  5  7  1  0
  7 12  1  0
  8  9  1  0
  8  7  1  0
  9 10  1  0
 10 11  1  0
 12 11  1  0
 13 18  1  0
 14 19  2  0
 15 14  1  0
 16 17  1  0
 16 15  2  0
 17 18  2  0
 18 19  1  0
 20 21  2  0
 21 16  1  0
 22 21  1  0
 23 22  2  0
 24 23  1  0
 25 24  1  0
 26 25  2  0
 26 27  1  0
 27 23  1  0
 28 27  2  0
 28 20  1  0
  1 29  1  0
  1 30  1  0
  3 31  1  0
  8 32  1  0
  8 33  1  0
  9 34  1  0
  9 35  1  0
 10 36  1  0
 11 37  1  0
 11 38  1  0
 12 39  1  0
 12 40  1  0
 13 41  1  0
 13 42  1  0
 14 43  1  0
 15 44  1  0
 20 45  1  0
 22 46  1  0
 24 47  1  0
 25 48  1  0
 26 49  1  0
 28 50  1  0
M  ISO  8  29   8  30   8  31  14  32  13  33  13  34  13  35  13  36   5
M  ISO  8  37  13  38  13  39  13  40  13  41   8  42   8  43  14  44  14
M  ISO  6  45  14  46  14  47   9  48  14  49  14  50  14
M  END
>  <minimizedAffinity>  (1) 
-8.46048069

>  <minimizedRMSD>  (1) 
2.31258726

$$$$
