
     RDKit          3D

 46 49  0  0  0  0  0  0  0  0999 V2000
   34.1810   28.1930   49.0030 C   0  0  0  0  0  0  0  0  0  0  0  0
   32.8660   28.1490   48.2630 C   0  0  0  0  0  0  0  0  0  0  0  0
   32.8260   28.5380   46.8790 C   0  0  0  0  0  0  0  0  0  0  0  0
   31.1110   28.3120   46.5090 S   0  0  0  0  0  0  0  0  0  0  0  0
   30.6640   27.7300   48.2370 C   0  0  0  0  0  0  0  0  0  0  0  0
   31.7250   27.7820   48.7700 N   0  0  0  0  0  0  0  0  0  0  0  0
   29.3980   27.3160   48.8260 N   0  0  0  0  0  0  0  0  0  0  0  0
   28.4500   26.7340   47.9320 C   0  0  0  0  0  0  0  0  0  0  0  0
   27.0490   26.7160   48.4510 C   0  0  0  0  0  0  0  0  0  0  0  0
   26.8790   27.4540   49.6990 N   0  0  0  0  0  0  0  0  0  0  0  0
   27.8650   26.9000   50.6230 C   0  0  0  0  0  0  0  0  0  0  0  0
   29.1810   27.5160   50.2420 C   0  0  0  0  0  0  0  0  0  0  0  0
   34.1910   29.2370   50.0380 C   0  0  0  0  0  0  0  0  0  0  0  0
   37.4080   29.9490   51.7410 C   0  0  0  0  0  0  0  0  0  0  0  0
   38.1570   30.5380   50.7360 C   0  0  0  0  0  0  0  0  0  0  0  0
   37.5790   30.6970   49.4810 C   0  0  0  0  0  0  0  0  0  0  0  0
   36.3040   30.2550   49.3350 N   0  0  0  0  0  0  0  0  0  0  0  0
   35.6050   29.6870   50.3340 C   0  0  0  0  0  0  0  0  0  0  0  0
   36.1550   29.5380   51.5210 N   0  0  0  0  0  0  0  0  0  0  0  0
   38.8980   33.5680   49.4760 Cl  0  0  0  0  0  0  0  0  0  0  0  0
   38.8070   32.4700   48.1380 C   0  0  0  0  0  0  0  0  0  0  0  0
   38.1930   31.2580   48.3120 C   0  0  0  0  0  0  0  0  0  0  0  0
   38.1780   30.5320   47.1410 C   0  0  0  0  0  0  0  0  0  0  0  0
   38.7050   30.9460   45.9460 C   0  0  0  0  0  0  0  0  0  0  0  0
   39.3130   32.1770   45.8350 C   0  0  0  0  0  0  0  0  0  0  0  0
   39.3560   32.9460   46.9730 C   0  0  0  0  0  0  0  0  0  0  0  0
   34.9876   28.3973   48.2836 H   0  0  0  0  0  0  0  0  0  0  0  0
   34.3279   27.2210   49.4967 H   0  0  0  0  0  0  0  0  0  0  0  0
   33.6417   28.8830   46.2266 H   0  0  0  0  0  0  0  0  0  0  0  0
   28.7568   25.6969   47.7313 H   0  0  0  0  0  0  0  0  0  0  0  0
   28.4437   27.3595   47.0272 H   0  0  0  0  0  0  0  0  0  0  0  0
   26.3907   27.1618   47.6908 H   0  0  0  0  0  0  0  0  0  0  0  0
   26.7956   25.6661   48.6598 H   0  0  0  0  0  0  0  0  0  0  0  0
   27.0520   28.4582   49.5488 H   0  0  0  0  0  0  0  0  0  0  0  0
   27.6065   27.1614   51.6598 H   0  0  0  0  0  0  0  0  0  0  0  0
   27.9014   25.8022   50.5629 H   0  0  0  0  0  0  0  0  0  0  0  0
   29.9915   27.0375   50.8112 H   0  0  0  0  0  0  0  0  0  0  0  0
   29.1692   28.5922   50.4695 H   0  0  0  0  0  0  0  0  0  0  0  0
   33.6045   30.0987   49.6867 H   0  0  0  0  0  0  0  0  0  0  0  0
   33.7523   28.8248   50.9587 H   0  0  0  0  0  0  0  0  0  0  0  0
   37.8522   29.8169   52.7386 H   0  0  0  0  0  0  0  0  0  0  0  0
   39.1873   30.8730   50.9263 H   0  0  0  0  0  0  0  0  0  0  0  0
   37.7045   29.5395   47.1678 H   0  0  0  0  0  0  0  0  0  0  0  0
   38.6419   30.2887   45.0663 H   0  0  0  0  0  0  0  0  0  0  0  0
   39.7420   32.5265   44.8843 H   0  0  0  0  0  0  0  0  0  0  0  0
   39.8284   33.9391   46.9507 H   0  0  0  0  0  0  0  0  0  0  0  0
  1 13  1  0
  2  6  1  0
  2  1  1  0
  3  2  2  0
  4  3  1  0
  4  5  1  0
  5  6  2  0
  5  7  1  0
  7 12  1  0
  8  9  1  0
  8  7  1  0
  9 10  1  0
 10 11  1  0
 12 11  1  0
 13 18  1  0
 15 14  2  0
 16 15  1  0
 17 16  2  0
 17 18  1  0
 18 19  2  0
 19 14  1  0
 21 22  2  0
 21 20  1  0
 22 16  1  0
 23 22  1  0
 24 23  2  0
 25 24  1  0
 25 26  2  0
 26 21  1  0
  1 27  1  0
  1 28  1  0
  3 29  1  0
  8 30  1  0
  8 31  1  0
  9 32  1  0
  9 33  1  0
 10 34  1  0
 11 35  1  0
 11 36  1  0
 12 37  1  0
 12 38  1  0
 13 39  1  0
 13 40  1  0
 14 41  1  0
 15 42  1  0
 23 43  1  0
 24 44  1  0
 25 45  1  0
 26 46  1  0
M  ISO  8  27   8  28   8  29  14  30  13  31  13  32  13  33  13  34   5
M  ISO  8  35  13  36  13  37  13  38  13  39   8  40   8  41  14  42  14
M  ISO  4  43  14  44  14  45  14  46  14
M  END
>  <minimizedAffinity>  (1) 
-8.00310802

>  <minimizedRMSD>  (1) 
2.17529511

$$$$
