
     RDKit          3D

 39 41  0  0  0  0  0  0  0  0999 V2000
   32.9060   28.1440   48.3580 C   0  0  0  0  0  0  0  0  0  0  0  0
   32.8800   28.5820   46.9840 C   0  0  0  0  0  0  0  0  0  0  0  0
   31.1640   28.3890   46.6110 S   0  0  0  0  0  0  0  0  0  0  0  0
   30.6920   27.7510   48.3190 C   0  0  0  0  0  0  0  0  0  0  0  0
   31.7570   27.7760   48.8450 N   0  0  0  0  0  0  0  0  0  0  0  0
   29.4110   27.3410   48.8630 N   0  0  0  0  0  0  0  0  0  0  0  0
   28.4660   26.8060   47.9350 C   0  0  0  0  0  0  0  0  0  0  0  0
   27.0660   26.7420   48.4430 C   0  0  0  0  0  0  0  0  0  0  0  0
   26.8790   27.4440   49.7010 N   0  0  0  0  0  0  0  0  0  0  0  0
   27.8600   26.8490   50.6140 C   0  0  0  0  0  0  0  0  0  0  0  0
   29.1760   27.4940   50.2740 C   0  0  0  0  0  0  0  0  0  0  0  0
   34.2040   28.1400   49.1030 C   0  0  0  0  0  0  0  0  0  0  0  0
   34.2340   29.1630   50.1740 C   0  0  0  0  0  0  0  0  0  0  0  0
   37.5910   30.1050   51.4800 C   0  0  0  0  0  0  0  0  0  0  0  0
   38.1330   30.8360   50.4170 C   0  0  0  0  0  0  0  0  0  0  0  0
   37.3410   31.0010   49.2570 C   0  0  0  0  0  0  0  0  0  0  0  0
   36.1020   30.4460   49.2310 N   0  0  0  0  0  0  0  0  0  0  0  0
   35.6280   29.7460   50.2950 C   0  0  0  0  0  0  0  0  0  0  0  0
   36.3580   29.5830   51.3870 N   0  0  0  0  0  0  0  0  0  0  0  0
   37.9000   31.7740   48.1180 C   0  0  0  0  0  0  0  0  0  0  0  0
   37.9970   33.1150   48.4320 F   0  0  0  0  0  0  0  0  0  0  0  0
   37.1090   31.5570   47.0070 F   0  0  0  0  0  0  0  0  0  0  0  0
   39.1800   31.2720   47.8770 F   0  0  0  0  0  0  0  0  0  0  0  0
   33.7016   28.9379   46.3450 H   0  0  0  0  0  0  0  0  0  0  0  0
   28.7827   25.7859   47.6723 H   0  0  0  0  0  0  0  0  0  0  0  0
   28.4541   27.4893   47.0730 H   0  0  0  0  0  0  0  0  0  0  0  0
   26.4006   27.1905   47.6906 H   0  0  0  0  0  0  0  0  0  0  0  0
   26.8327   25.6822   48.6233 H   0  0  0  0  0  0  0  0  0  0  0  0
   27.0575   28.4516   49.5838 H   0  0  0  0  0  0  0  0  0  0  0  0
   27.5884   27.0594   51.6590 H   0  0  0  0  0  0  0  0  0  0  0  0
   27.9040   25.7552   50.5060 H   0  0  0  0  0  0  0  0  0  0  0  0
   29.9843   27.0071   50.8393 H   0  0  0  0  0  0  0  0  0  0  0  0
   29.1503   28.5618   50.5371 H   0  0  0  0  0  0  0  0  0  0  0  0
   34.3504   27.1481   49.5555 H   0  0  0  0  0  0  0  0  0  0  0  0
   35.0062   28.3742   48.3878 H   0  0  0  0  0  0  0  0  0  0  0  0
   33.5230   29.9663   49.9305 H   0  0  0  0  0  0  0  0  0  0  0  0
   33.9544   28.6943   51.1291 H   0  0  0  0  0  0  0  0  0  0  0  0
   38.1792   29.9572   52.3977 H   0  0  0  0  0  0  0  0  0  0  0  0
   39.1424   31.2683   50.4815 H   0  0  0  0  0  0  0  0  0  0  0  0
  1  5  1  0
  1 12  1  0
  2  1  2  0
  3  2  1  0
  3  4  1  0
  4  5  2  0
  4  6  1  0
  6 11  1  0
  7  8  1  0
  7  6  1  0
  8  9  1  0
  9 10  1  0
 11 10  1  0
 12 13  1  0
 13 18  1  0
 15 14  2  0
 16 15  1  0
 17 16  2  0
 17 18  1  0
 18 19  2  0
 19 14  1  0
 20 21  1  0
 20 16  1  0
 22 20  1  0
 23 20  1  0
  2 24  1  0
  7 25  1  0
  7 26  1  0
  8 27  1  0
  8 28  1  0
  9 29  1  0
 10 30  1  0
 10 31  1  0
 11 32  1  0
 11 33  1  0
 12 34  1  0
 12 35  1  0
 13 36  1  0
 13 37  1  0
 14 38  1  0
 15 39  1  0
M  ISO  8  24  14  25  13  26  13  27  13  28  13  29   5  30  13  31  13
M  ISO  8  32  13  33  13  34   8  35   8  36   8  37   8  38  14  39  14
M  END
>  <minimizedAffinity>  (1) 
-6.80007887

>  <minimizedRMSD>  (1) 
1.66009784

$$$$
