
     RDKit          3D

 39 41  0  0  0  0  0  0  0  0999 V2000
   33.6450   28.4250   48.3400 C   0  0  0  0  0  0  0  0  0  0  0  0
   33.6630   28.8250   46.9590 C   0  0  0  0  0  0  0  0  0  0  0  0
   31.9720   28.5610   46.5010 S   0  0  0  0  0  0  0  0  0  0  0  0
   31.4500   27.9510   48.2040 C   0  0  0  0  0  0  0  0  0  0  0  0
   32.4910   28.0280   48.7840 N   0  0  0  0  0  0  0  0  0  0  0  0
   30.1650   27.5050   48.7140 N   0  0  0  0  0  0  0  0  0  0  0  0
   29.3060   26.8670   47.7660 C   0  0  0  0  0  0  0  0  0  0  0  0
   27.8870   26.7650   48.2060 C   0  0  0  0  0  0  0  0  0  0  0  0
   27.5920   27.5530   49.4130 N   0  0  0  0  0  0  0  0  0  0  0  0
   28.5360   27.0700   50.4020 C   0  0  0  0  0  0  0  0  0  0  0  0
   29.8540   27.7290   50.1000 C   0  0  0  0  0  0  0  0  0  0  0  0
   34.9170   28.4910   49.1460 C   0  0  0  0  0  0  0  0  0  0  0  0
   35.0020   29.7260   49.9470 C   0  0  0  0  0  0  0  0  0  0  0  0
   37.4970   32.4530   49.5900 C   0  0  0  0  0  0  0  0  0  0  0  0
   38.1440   32.1460   48.4040 C   0  0  0  0  0  0  0  0  0  0  0  0
   37.7130   30.9980   47.7370 C   0  0  0  0  0  0  0  0  0  0  0  0
   36.7090   30.2620   48.2700 N   0  0  0  0  0  0  0  0  0  0  0  0
   36.1150   30.6120   49.4310 C   0  0  0  0  0  0  0  0  0  0  0  0
   36.5100   31.6930   50.0750 N   0  0  0  0  0  0  0  0  0  0  0  0
   38.3120   30.5310   46.4410 C   0  0  0  0  0  0  0  0  0  0  0  0
   34.5012   29.1953   46.3505 H   0  0  0  0  0  0  0  0  0  0  0  0
   29.6857   25.8507   47.5846 H   0  0  0  0  0  0  0  0  0  0  0  0
   29.3138   27.4905   46.8598 H   0  0  0  0  0  0  0  0  0  0  0  0
   27.2422   27.1226   47.3897 H   0  0  0  0  0  0  0  0  0  0  0  0
   27.6983   25.7098   48.4526 H   0  0  0  0  0  0  0  0  0  0  0  0
   27.7331   28.5577   49.2353 H   0  0  0  0  0  0  0  0  0  0  0  0
   28.1987   27.3427   51.4129 H   0  0  0  0  0  0  0  0  0  0  0  0
   28.6236   25.9742   50.3631 H   0  0  0  0  0  0  0  0  0  0  0  0
   30.6412   27.2931   50.7328 H   0  0  0  0  0  0  0  0  0  0  0  0
   29.7933   28.8081   50.3047 H   0  0  0  0  0  0  0  0  0  0  0  0
   34.9529   27.6254   49.8238 H   0  0  0  0  0  0  0  0  0  0  0  0
   35.7639   28.4833   48.4440 H   0  0  0  0  0  0  0  0  0  0  0  0
   34.0469   30.2677   49.8809 H   0  0  0  0  0  0  0  0  0  0  0  0
   35.2130   29.4597   50.9932 H   0  0  0  0  0  0  0  0  0  0  0  0
   37.8047   33.3489   50.1492 H   0  0  0  0  0  0  0  0  0  0  0  0
   38.9555   32.7745   48.0084 H   0  0  0  0  0  0  0  0  0  0  0  0
   39.1639   29.8669   46.6490 H   0  0  0  0  0  0  0  0  0  0  0  0
   37.5532   29.9838   45.8625 H   0  0  0  0  0  0  0  0  0  0  0  0
   38.6576   31.4004   45.8625 H   0  0  0  0  0  0  0  0  0  0  0  0
  1  5  1  0
  1 12  1  0
  2  1  2  0
  3  2  1  0
  3  4  1  0
  4  6  1  0
  4  5  2  0
  6 11  1  0
  7  8  1  0
  7  6  1  0
  8  9  1  0
  9 10  1  0
 11 10  1  0
 12 13  1  0
 14 19  2  0
 15 14  1  0
 16 17  1  0
 16 15  2  0
 17 18  2  0
 18 13  1  0
 18 19  1  0
 20 16  1  0
  2 21  1  0
  7 22  1  0
  7 23  1  0
  8 24  1  0
  8 25  1  0
  9 26  1  0
 10 27  1  0
 10 28  1  0
 11 29  1  0
 11 30  1  0
 12 31  1  0
 12 32  1  0
 13 33  1  0
 13 34  1  0
 14 35  1  0
 15 36  1  0
 20 37  1  0
 20 38  1  0
 20 39  1  0
M  ISO  8  21  14  22  13  23  13  24  13  25  13  26   5  27  13  28  13
M  ISO  8  29  13  30  13  31   8  32   8  33   8  34   8  35  14  36  14
M  ISO  3  37   8  38   8  39   8
M  END
>  <minimizedAffinity>  (1) 
-5.6801796

>  <minimizedRMSD>  (1) 
0.330748647

$$$$
