
     RDKit          3D

 37 39  0  0  0  0  0  0  0  0999 V2000
   33.5090   28.3560   48.2150 C   0  0  0  0  0  0  0  0  0  0  0  0
   33.5010   28.6850   46.8090 C   0  0  0  0  0  0  0  0  0  0  0  0
   31.8050   28.3920   46.4000 S   0  0  0  0  0  0  0  0  0  0  0  0
   31.3170   27.8730   48.1350 C   0  0  0  0  0  0  0  0  0  0  0  0
   32.3620   27.9820   48.6900 N   0  0  0  0  0  0  0  0  0  0  0  0
   30.0350   27.4500   48.6830 N   0  0  0  0  0  0  0  0  0  0  0  0
   29.1590   26.7740   47.7860 C   0  0  0  0  0  0  0  0  0  0  0  0
   27.7490   26.6870   48.2590 C   0  0  0  0  0  0  0  0  0  0  0  0
   27.4860   27.5030   49.4450 N   0  0  0  0  0  0  0  0  0  0  0  0
   28.4560   27.0560   50.4300 C   0  0  0  0  0  0  0  0  0  0  0  0
   29.7470   27.7390   50.0660 C   0  0  0  0  0  0  0  0  0  0  0  0
   34.7960   28.4680   48.9910 C   0  0  0  0  0  0  0  0  0  0  0  0
   34.8570   29.7200   49.7800 C   0  0  0  0  0  0  0  0  0  0  0  0
   37.5210   32.2980   49.5990 C   0  0  0  0  0  0  0  0  0  0  0  0
   38.0590   32.1080   48.3360 C   0  0  0  0  0  0  0  0  0  0  0  0
   37.5050   31.0950   47.5520 C   0  0  0  0  0  0  0  0  0  0  0  0
   36.4830   30.3580   48.0560 N   0  0  0  0  0  0  0  0  0  0  0  0
   36.0000   30.5880   49.2940 C   0  0  0  0  0  0  0  0  0  0  0  0
   36.5140   31.5430   50.0460 N   0  0  0  0  0  0  0  0  0  0  0  0
   38.0260   30.6680   45.9090 S   0  0  0  0  0  0  0  0  0  0  0  0
   34.3261   29.0256   46.1662 H   0  0  0  0  0  0  0  0  0  0  0  0
   29.5373   25.7516   47.6392 H   0  0  0  0  0  0  0  0  0  0  0  0
   29.1447   27.3608   46.8557 H   0  0  0  0  0  0  0  0  0  0  0  0
   27.0870   27.0255   47.4483 H   0  0  0  0  0  0  0  0  0  0  0  0
   27.5618   25.6390   48.5359 H   0  0  0  0  0  0  0  0  0  0  0  0
   27.6185   28.5024   49.2338 H   0  0  0  0  0  0  0  0  0  0  0  0
   28.1387   27.3489   51.4417 H   0  0  0  0  0  0  0  0  0  0  0  0
   28.5609   25.9610   50.4301 H   0  0  0  0  0  0  0  0  0  0  0  0
   30.5606   27.3612   50.7026 H   0  0  0  0  0  0  0  0  0  0  0  0
   29.6581   28.8250   50.2168 H   0  0  0  0  0  0  0  0  0  0  0  0
   34.8738   27.6113   49.6765 H   0  0  0  0  0  0  0  0  0  0  0  0
   35.6284   28.4768   48.2720 H   0  0  0  0  0  0  0  0  0  0  0  0
   33.9102   30.2682   49.6659 H   0  0  0  0  0  0  0  0  0  0  0  0
   35.0203   29.4702   50.8387 H   0  0  0  0  0  0  0  0  0  0  0  0
   37.9317   33.0867   50.2465 H   0  0  0  0  0  0  0  0  0  0  0  0
   38.8880   32.7297   47.9669 H   0  0  0  0  0  0  0  0  0  0  0  0
   39.0843   29.8006   45.9765 H   0  0  0  0  0  0  0  0  0  0  0  0
  1  5  1  0
  1 12  1  0
  2  1  2  0
  3  2  1  0
  3  4  1  0
  4  6  1  0
  4  5  2  0
  6 11  1  0
  7  8  1  0
  7  6  1  0
  8  9  1  0
  9 10  1  0
 11 10  1  0
 12 13  1  0
 14 19  2  0
 15 14  1  0
 16 17  1  0
 16 15  2  0
 17 18  2  0
 18 13  1  0
 18 19  1  0
 20 16  1  0
  2 21  1  0
  7 22  1  0
  7 23  1  0
  8 24  1  0
  8 25  1  0
  9 26  1  0
 10 27  1  0
 10 28  1  0
 11 29  1  0
 11 30  1  0
 12 31  1  0
 12 32  1  0
 13 33  1  0
 13 34  1  0
 14 35  1  0
 15 36  1  0
 20 37  1  0
M  ISO  8  21  14  22  13  23  13  24  13  25  13  26   5  27  13  28  13
M  ISO  8  29  13  30  13  31   8  32   8  33   8  34   8  35  14  36  14
M  ISO  1  37  11
M  END
>  <minimizedAffinity>  (1) 
-5.55189943

>  <minimizedRMSD>  (1) 
0.488969564

$$$$
