
     RDKit          3D

 36 38  0  0  0  0  0  0  0  0999 V2000
   37.7120   31.4730   46.1750 C   0  0  0  0  0  0  0  0  0  0  0  0
   38.5630   32.0780   45.2560 C   0  0  0  0  0  0  0  0  0  0  0  0
   39.5990   32.9190   45.6000 C   0  0  0  0  0  0  0  0  0  0  0  0
   39.8240   33.1940   46.9440 C   0  0  0  0  0  0  0  0  0  0  0  0
   38.9780   32.5920   47.8460 C   0  0  0  0  0  0  0  0  0  0  0  0
   37.9270   31.7420   47.5250 C   0  0  0  0  0  0  0  0  0  0  0  0
   36.9620   30.0360   44.3650 C   0  0  0  0  0  0  0  0  0  0  0  0
   36.6880   30.6150   45.6220 C   0  0  0  0  0  0  0  0  0  0  0  0
   35.4570   30.3030   46.2070 C   0  0  0  0  0  0  0  0  0  0  0  0
   34.6150   29.4700   45.5330 N   0  0  0  0  0  0  0  0  0  0  0  0
   34.9140   28.9340   44.3290 C   0  0  0  0  0  0  0  0  0  0  0  0
   36.1030   29.2210   43.7370 N   0  0  0  0  0  0  0  0  0  0  0  0
   37.0240   31.1240   48.5090 C   0  0  0  0  0  0  0  0  0  0  0  0
   37.5890   29.7510   48.8640 C   0  0  0  0  0  0  0  0  0  0  0  0
   36.6860   28.9830   49.8050 C   0  0  0  0  0  0  0  0  0  0  0  0
   36.2360   29.8890   50.9260 C   0  0  0  0  0  0  0  0  0  0  0  0
   37.2110   31.0330   51.0250 C   0  0  0  0  0  0  0  0  0  0  0  0
   36.9860   31.9100   49.8120 C   0  0  0  0  0  0  0  0  0  0  0  0
   38.3987   31.8723   44.1880 H   0  0  0  0  0  0  0  0  0  0  0  0
   40.2377   33.3655   44.8236 H   0  0  0  0  0  0  0  0  0  0  0  0
   40.6373   33.8593   47.2695 H   0  0  0  0  0  0  0  0  0  0  0  0
   39.1480   32.8014   48.9124 H   0  0  0  0  0  0  0  0  0  0  0  0
   37.9224   30.2633   43.8792 H   0  0  0  0  0  0  0  0  0  0  0  0
   35.1756   30.7190   47.1856 H   0  0  0  0  0  0  0  0  0  0  0  0
   34.1964   28.2668   43.8292 H   0  0  0  0  0  0  0  0  0  0  0  0
   36.0170   31.0852   48.0680 H   0  0  0  0  0  0  0  0  0  0  0  0
   37.7120   29.1692   47.9386 H   0  0  0  0  0  0  0  0  0  0  0  0
   38.5518   29.9052   49.3732 H   0  0  0  0  0  0  0  0  0  0  0  0
   35.8069   28.6188   49.2532 H   0  0  0  0  0  0  0  0  0  0  0  0
   37.2371   28.1284   50.2244 H   0  0  0  0  0  0  0  0  0  0  0  0
   35.2287   30.2754   50.7112 H   0  0  0  0  0  0  0  0  0  0  0  0
   36.2038   29.3333   51.8748 H   0  0  0  0  0  0  0  0  0  0  0  0
   37.0284   31.6068   51.9455 H   0  0  0  0  0  0  0  0  0  0  0  0
   38.2471   30.6650   51.0576 H   0  0  0  0  0  0  0  0  0  0  0  0
   37.7713   32.6797   49.7827 H   0  0  0  0  0  0  0  0  0  0  0  0
   35.9850   32.3567   49.9037 H   0  0  0  0  0  0  0  0  0  0  0  0
  1  6  2  0
  2  3  2  0
  2  1  1  0
  3  4  1  0
  4  5  2  0
  6  5  1  0
  6 13  1  0
  7  8  2  0
  8  1  1  0
  8  9  1  0
 10  9  2  0
 11 10  1  0
 12 11  2  0
 12  7  1  0
 13 14  1  0
 13 18  1  0
 14 15  1  0
 15 16  1  0
 16 17  1  0
 18 17  1  0
  2 19  1  0
  3 20  1  0
  4 21  1  0
  5 22  1  0
  7 23  1  0
  9 24  1  0
 11 25  1  0
 13 26  1  0
 14 27  1  0
 14 28  1  0
 15 29  1  0
 15 30  1  0
 16 31  1  0
 16 32  1  0
 17 33  1  0
 17 34  1  0
 18 35  1  0
 18 36  1  0
M  ISO  8  19  14  20  14  21  14  22  14  23  14  24  14  25  14  26  13
M  ISO  8  27  13  28  13  29  13  30  13  31  13  32  13  33  13  34  13
M  ISO  2  35  13  36  13
M  END
>  <minimizedAffinity>  (1) 
-5.43095875

>  <minimizedRMSD>  (1) 
4.33009338

$$$$
