
     RDKit          3D

 48 51  0  0  1  0  0  0  0  0999 V2000
   37.6170   30.7260   48.9120 C   0  0  1  0  0  0  0  0  0  0  0  0
   37.9600   30.4030   50.4350 C   0  0  0  0  0  0  0  0  0  0  0  0
   37.3570   29.0560   50.8230 C   0  0  0  0  0  0  0  0  0  0  0  0
   35.9320   28.9620   50.3520 C   0  0  0  0  0  0  0  0  0  0  0  0
   35.4380   30.3610   50.1080 C   0  0  0  0  0  0  0  0  0  0  0  0
   36.1270   30.8600   48.8480 C   0  0  2  0  0  0  0  0  0  0  0  0
   38.7220   32.2200   47.2970 C   0  0  0  0  0  0  0  0  0  0  0  0
   39.3950   33.4040   47.0970 C   0  0  0  0  0  0  0  0  0  0  0  0
   39.7450   34.3020   48.0690 C   0  0  0  0  0  0  0  0  0  0  0  0
   39.4040   34.0180   49.3800 C   0  0  0  0  0  0  0  0  0  0  0  0
   38.7280   32.8270   49.6050 C   0  0  0  0  0  0  0  0  0  0  0  0
   38.3700   31.9110   48.6080 C   0  0  0  0  0  0  0  0  0  0  0  0
   39.4560   30.4570   45.7840 C   0  0  0  0  0  0  0  0  0  0  0  0
   38.4650   31.4380   46.1380 C   0  0  0  0  0  0  0  0  0  0  0  0
   37.3340   31.5310   45.3380 C   0  0  0  0  0  0  0  0  0  0  0  0
   37.1930   30.7090   44.2700 N   0  0  0  0  0  0  0  0  0  0  0  0
   38.1490   29.7780   43.9490 C   0  0  0  0  0  0  0  0  0  0  0  0
   39.2730   29.6620   44.7110 N   0  0  0  0  0  0  0  0  0  0  0  0
   35.5980   29.9850   47.7660 N   0  0  0  0  0  0  0  0  0  0  0  0
   35.1170   28.7400   48.2370 C   0  0  0  0  0  0  0  0  0  0  0  0
   34.1060   28.3350   47.1740 C   0  0  0  0  0  0  0  0  0  0  0  0
   33.8960   29.5850   46.3100 C   0  0  0  0  0  0  0  0  0  0  0  0
   34.3830   30.6430   47.3070 C   0  0  0  0  0  0  0  0  0  0  0  0
   37.8898   29.9667   48.1643 H   0  0  0  0  0  0  0  0  0  0  0  0
   39.0518   30.3658   50.5641 H   0  0  0  0  0  0  0  0  0  0  0  0
   37.5389   31.1897   51.0782 H   0  0  0  0  0  0  0  0  0  0  0  0
   37.9451   28.2494   50.3608 H   0  0  0  0  0  0  0  0  0  0  0  0
   37.3768   28.9595   51.9186 H   0  0  0  0  0  0  0  0  0  0  0  0
   35.8831   28.3795   49.4201 H   0  0  0  0  0  0  0  0  0  0  0  0
   35.3091   28.4596   51.1067 H   0  0  0  0  0  0  0  0  0  0  0  0
   34.3472   30.3575   49.9664 H   0  0  0  0  0  0  0  0  0  0  0  0
   35.6641   31.0131   50.9646 H   0  0  0  0  0  0  0  0  0  0  0  0
   35.9283   31.9309   48.6939 H   0  0  0  0  0  0  0  0  0  0  0  0
   39.6770   33.6508   46.0628 H   0  0  0  0  0  0  0  0  0  0  0  0
   40.2840   35.2265   47.8145 H   0  0  0  0  0  0  0  0  0  0  0  0
   39.6564   34.7026   50.2031 H   0  0  0  0  0  0  0  0  0  0  0  0
   38.4533   32.5848   50.6423 H   0  0  0  0  0  0  0  0  0  0  0  0
   40.3672   30.3553   46.3918 H   0  0  0  0  0  0  0  0  0  0  0  0
   36.5538   32.2707   45.5708 H   0  0  0  0  0  0  0  0  0  0  0  0
   38.0078   29.1245   43.0755 H   0  0  0  0  0  0  0  0  0  0  0  0
   35.9311   28.0037   48.3083 H   0  0  0  0  0  0  0  0  0  0  0  0
   34.6830   28.7983   49.2461 H   0  0  0  0  0  0  0  0  0  0  0  0
   34.4995   27.5082   46.5645 H   0  0  0  0  0  0  0  0  0  0  0  0
   33.1636   27.9844   47.6200 H   0  0  0  0  0  0  0  0  0  0  0  0
   34.5091   29.5642   45.3969 H   0  0  0  0  0  0  0  0  0  0  0  0
   32.8763   29.7298   45.9236 H   0  0  0  0  0  0  0  0  0  0  0  0
   34.5952   31.6045   46.8166 H   0  0  0  0  0  0  0  0  0  0  0  0
   33.6659   30.9137   48.0959 H   0  0  0  0  0  0  0  0  0  0  0  0
  1  2  1  0
  2  3  1  0
  4  3  1  0
  5  4  1  0
  6  1  1  0
  6  5  1  0
  7 12  1  0
  8  7  2  0
  8  9  1  0
  9 10  2  0
 10 11  1  0
 12  1  1  0
 12 11  2  0
 13 14  2  0
 14  7  1  0
 15 14  1  0
 16 15  2  0
 17 16  1  0
 17 18  2  0
 18 13  1  0
 19 20  1  0
 19  6  1  0
 21 20  1  0
 22 21  1  0
 22 23  1  0
 23 19  1  0
  1 24  1  6
  2 25  1  0
  2 26  1  0
  3 27  1  0
  3 28  1  0
  4 29  1  0
  4 30  1  0
  5 31  1  0
  5 32  1  0
  6 33  1  6
  8 34  1  0
  9 35  1  0
 10 36  1  0
 11 37  1  0
 13 38  1  0
 15 39  1  0
 17 40  1  0
 20 41  1  0
 20 42  1  0
 21 43  1  0
 21 44  1  0
 22 45  1  0
 22 46  1  0
 23 47  1  0
 23 48  1  0
M  ISO  8  24  13  25  13  26  13  27  13  28  13  29  13  30  13  31  13
M  ISO  8  32  13  33  13  34  14  35  14  36  14  37  14  38  14  39  14
M  ISO  8  40  14  41  13  42  13  43  13  44  13  45  13  46  13  47  13
M  ISO  1  48  13
M  END
>  <minimizedAffinity>  (1) 
-6.58455515

>  <minimizedRMSD>  (1) 
2.87389493

$$$$
