
     RDKit          3D

 43 46  0  0  1  0  0  0  0  0999 V2000
   36.8190   30.8010   47.2220 C   0  0  1  0  0  0  0  0  0  0  0  0
   35.7390   29.8260   47.8560 C   0  0  0  0  0  0  0  0  0  0  0  0
   35.2820   30.3530   49.2140 C   0  0  0  0  0  0  0  0  0  0  0  0
   36.4570   30.7900   50.0340 C   0  0  0  0  0  0  0  0  0  0  0  0
   37.6760   30.1290   49.4880 C   0  0  0  0  0  0  0  0  0  0  0  0
   37.9980   30.7500   48.1420 C   0  0  2  0  0  0  0  0  0  0  0  0
   35.9700   29.9360   45.0830 C   0  0  0  0  0  0  0  0  0  0  0  0
   36.2640   29.5400   43.7930 C   0  0  0  0  0  0  0  0  0  0  0  0
   37.5200   29.4790   43.2510 C   0  0  0  0  0  0  0  0  0  0  0  0
   38.6060   29.8380   44.0480 C   0  0  0  0  0  0  0  0  0  0  0  0
   38.3180   30.2340   45.3500 C   0  0  0  0  0  0  0  0  0  0  0  0
   37.0400   30.2980   45.8950 C   0  0  0  0  0  0  0  0  0  0  0  0
   34.0500   28.6240   45.8220 C   0  0  0  0  0  0  0  0  0  0  0  0
   34.5940   29.9030   45.4440 C   0  0  0  0  0  0  0  0  0  0  0  0
   33.7470   30.9990   45.4870 C   0  0  0  0  0  0  0  0  0  0  0  0
   32.4600   30.8450   45.8790 N   0  0  0  0  0  0  0  0  0  0  0  0
   31.9590   29.6200   46.2360 C   0  0  0  0  0  0  0  0  0  0  0  0
   32.7600   28.5300   46.2010 N   0  0  0  0  0  0  0  0  0  0  0  0
   38.5720   32.1430   48.3550 C   0  0  0  0  0  0  0  0  0  0  0  0
   38.5990   32.8380   49.5580 C   0  0  0  0  0  0  0  0  0  0  0  0
   39.1980   34.0740   49.3790 C   0  0  0  0  0  0  0  0  0  0  0  0
   39.5150   34.0900   48.0720 N   0  0  0  0  0  0  0  0  0  0  0  0
   39.1490   32.9700   47.4910 N   0  0  0  0  0  0  0  0  0  0  0  0
   36.5416   31.8611   47.1261 H   0  0  0  0  0  0  0  0  0  0  0  0
   34.8719   29.7579   47.1826 H   0  0  0  0  0  0  0  0  0  0  0  0
   36.1900   28.8318   47.9912 H   0  0  0  0  0  0  0  0  0  0  0  0
   34.6093   31.2099   49.0613 H   0  0  0  0  0  0  0  0  0  0  0  0
   34.7575   29.5471   49.7483 H   0  0  0  0  0  0  0  0  0  0  0  0
   36.5673   31.8828   49.9742 H   0  0  0  0  0  0  0  0  0  0  0  0
   36.3114   30.5090   51.0875 H   0  0  0  0  0  0  0  0  0  0  0  0
   38.5199   30.2792   50.1774 H   0  0  0  0  0  0  0  0  0  0  0  0
   37.4998   29.0494   49.3726 H   0  0  0  0  0  0  0  0  0  0  0  0
   38.7413   30.1055   47.6499 H   0  0  0  0  0  0  0  0  0  0  0  0
   35.4209   29.2501   43.1487 H   0  0  0  0  0  0  0  0  0  0  0  0
   37.6687   29.1542   42.2106 H   0  0  0  0  0  0  0  0  0  0  0  0
   39.6375   29.8096   43.6669 H   0  0  0  0  0  0  0  0  0  0  0  0
   39.1625   30.5171   45.9955 H   0  0  0  0  0  0  0  0  0  0  0  0
   34.6856   27.7265   45.8014 H   0  0  0  0  0  0  0  0  0  0  0  0
   34.1201   31.9940   45.2027 H   0  0  0  0  0  0  0  0  0  0  0  0
   30.9092   29.5234   46.5499 H   0  0  0  0  0  0  0  0  0  0  0  0
   38.2027   32.4617   50.5126 H   0  0  0  0  0  0  0  0  0  0  0  0
   39.3733   34.8586   50.1298 H   0  0  0  0  0  0  0  0  0  0  0  0
   39.9810   34.8733   47.5922 H   0  0  0  0  0  0  0  0  0  0  0  0
  1  2  1  0
  1  6  1  0
  2  3  1  0
  3  4  1  0
  5  4  1  0
  6 19  1  0
  6  5  1  0
  7 14  1  0
  7 12  1  0
  8  7  2  0
  9  8  1  0
  9 10  2  0
 10 11  1  0
 11 12  2  0
 12  1  1  0
 13 18  2  0
 14 15  2  0
 14 13  1  0
 15 16  1  0
 16 17  2  0
 18 17  1  0
 19 20  1  0
 21 20  2  0
 22 21  1  0
 23 22  1  0
 23 19  2  0
  1 24  1  6
  2 25  1  0
  2 26  1  0
  3 27  1  0
  3 28  1  0
  4 29  1  0
  4 30  1  0
  5 31  1  0
  5 32  1  0
  6 33  1  6
  8 34  1  0
  9 35  1  0
 10 36  1  0
 11 37  1  0
 13 38  1  0
 15 39  1  0
 17 40  1  0
 20 41  1  0
 21 42  1  0
 22 43  1  0
M  ISO  8  24  13  25  13  26  13  27  13  28  13  29  13  30  13  31  13
M  ISO  8  32  13  33  13  34  14  35  14  36  14  37  14  38  14  39  14
M  ISO  4  40  14  41  14  42  14  43   9
M  END
>  <minimizedAffinity>  (1) 
-6.07079554

>  <minimizedRMSD>  (1) 
3.47699904

$$$$
