
     RDKit          3D

 42 45  0  0  1  0  0  0  0  0999 V2000
   36.7950   30.8190   47.3210 C   0  0  1  0  0  0  0  0  0  0  0  0
   35.8100   29.7430   47.9320 C   0  0  0  0  0  0  0  0  0  0  0  0
   35.3000   30.1660   49.3000 C   0  0  0  0  0  0  0  0  0  0  0  0
   36.4490   30.6600   50.1260 C   0  0  0  0  0  0  0  0  0  0  0  0
   37.7150   30.1230   49.5610 C   0  0  0  0  0  0  0  0  0  0  0  0
   37.9800   30.7680   48.2270 C   0  0  2  0  0  0  0  0  0  0  0  0
   35.9080   29.9980   45.2210 C   0  0  0  0  0  0  0  0  0  0  0  0
   36.1850   29.6440   43.8860 C   0  0  0  0  0  0  0  0  0  0  0  0
   37.4190   29.5990   43.3170 C   0  0  0  0  0  0  0  0  0  0  0  0
   38.5270   29.9180   44.0870 C   0  0  0  0  0  0  0  0  0  0  0  0
   38.2750   30.2670   45.4020 C   0  0  0  0  0  0  0  0  0  0  0  0
   37.0130   30.3150   45.9720 C   0  0  0  0  0  0  0  0  0  0  0  0
   34.0000   28.6880   45.9140 C   0  0  0  0  0  0  0  0  0  0  0  0
   34.5390   29.9410   45.5720 C   0  0  0  0  0  0  0  0  0  0  0  0
   33.6710   31.0320   45.5900 C   0  0  0  0  0  0  0  0  0  0  0  0
   32.3610   30.8150   45.9340 N   0  0  0  0  0  0  0  0  0  0  0  0
   31.8750   29.6190   46.2530 C   0  0  0  0  0  0  0  0  0  0  0  0
   32.7030   28.5650   46.2390 N   0  0  0  0  0  0  0  0  0  0  0  0
   38.5510   32.1620   48.4770 C   0  0  0  0  0  0  0  0  0  0  0  0
   38.6150   32.8120   49.6290 N   0  0  0  0  0  0  0  0  0  0  0  0
   39.1980   34.0320   49.4310 C   0  0  0  0  0  0  0  0  0  0  0  0
   39.4820   34.0920   48.1190 N   0  0  0  0  0  0  0  0  0  0  0  0
   39.0930   32.9730   47.5520 N   0  0  0  0  0  0  0  0  0  0  0  0
   36.4771   31.8700   47.2545 H   0  0  0  0  0  0  0  0  0  0  0  0
   34.9527   29.6179   47.2542 H   0  0  0  0  0  0  0  0  0  0  0  0
   36.3606   28.7976   48.0467 H   0  0  0  0  0  0  0  0  0  0  0  0
   34.5588   30.9703   49.1832 H   0  0  0  0  0  0  0  0  0  0  0  0
   34.8296   29.3064   49.7998 H   0  0  0  0  0  0  0  0  0  0  0  0
   36.4727   31.7596   50.1053 H   0  0  0  0  0  0  0  0  0  0  0  0
   36.3324   30.3218   51.1662 H   0  0  0  0  0  0  0  0  0  0  0  0
   38.5460   30.3439   50.2471 H   0  0  0  0  0  0  0  0  0  0  0  0
   37.6271   29.0341   49.4318 H   0  0  0  0  0  0  0  0  0  0  0  0
   38.7039   30.1382   47.6891 H   0  0  0  0  0  0  0  0  0  0  0  0
   35.3282   29.3810   43.2482 H   0  0  0  0  0  0  0  0  0  0  0  0
   37.5366   29.3137   42.2612 H   0  0  0  0  0  0  0  0  0  0  0  0
   39.5472   29.8950   43.6763 H   0  0  0  0  0  0  0  0  0  0  0  0
   39.1349   30.5238   46.0381 H   0  0  0  0  0  0  0  0  0  0  0  0
   34.6479   27.7990   45.9153 H   0  0  0  0  0  0  0  0  0  0  0  0
   34.0276   32.0408   45.3349 H   0  0  0  0  0  0  0  0  0  0  0  0
   30.8156   29.4972   46.5227 H   0  0  0  0  0  0  0  0  0  0  0  0
   39.3942   34.8049   50.1887 H   0  0  0  0  0  0  0  0  0  0  0  0
   39.9306   34.8844   47.6376 H   0  0  0  0  0  0  0  0  0  0  0  0
  1  2  1  0
  1  6  1  0
  2  3  1  0
  3  4  1  0
  5  4  1  0
  6 19  1  0
  6  5  1  0
  7 14  1  0
  7 12  1  0
  8  7  2  0
  9  8  1  0
  9 10  2  0
 10 11  1  0
 11 12  2  0
 12  1  1  0
 13 18  2  0
 14 15  2  0
 14 13  1  0
 15 16  1  0
 16 17  2  0
 18 17  1  0
 19 20  1  0
 21 20  2  0
 22 21  1  0
 23 22  1  0
 23 19  2  0
  1 24  1  6
  2 25  1  0
  2 26  1  0
  3 27  1  0
  3 28  1  0
  4 29  1  0
  4 30  1  0
  5 31  1  0
  5 32  1  0
  6 33  1  6
  8 34  1  0
  9 35  1  0
 10 36  1  0
 11 37  1  0
 13 38  1  0
 15 39  1  0
 17 40  1  0
 21 41  1  0
 22 42  1  0
M  ISO  8  24  13  25  13  26  13  27  13  28  13  29  13  30  13  31  13
M  ISO  8  32  13  33  13  34  14  35  14  36  14  37  14  38  14  39  14
M  ISO  3  40  14  41  14  42   9
M  END
>  <minimizedAffinity>  (1) 
-5.90245199

>  <minimizedRMSD>  (1) 
3.40109849

$$$$
