
     RDKit          3D

 27 28  0  0  1  0  0  0  0  0999 V2000
   39.5140   32.8400   46.3880 N   0  0  0  0  0  0  0  0  0  0  0  0
   38.2030   32.3220   46.1340 C   0  0  1  0  0  0  0  0  0  0  0  0
   37.8820   32.3890   44.6680 C   0  0  0  0  0  0  0  0  0  0  0  0
   38.8820   31.5930   43.9700 N   0  0  0  0  0  0  0  0  0  0  0  0
   40.1360   32.3530   44.1030 C   0  0  0  0  0  0  0  0  0  0  0  0
   40.5270   32.2340   45.5620 C   0  0  2  0  0  0  0  0  0  0  0  0
   40.7820   30.8530   45.8770 N   0  0  0  0  0  0  0  0  0  0  0  0
   38.0540   30.5510   46.6000 S   0  0  0  0  0  0  0  0  0  0  0  0
   37.8670   30.9010   50.6450 C   0  0  0  0  0  0  0  0  0  0  0  0
   38.2970   31.0950   49.3380 C   0  0  0  0  0  0  0  0  0  0  0  0
   37.6380   30.4230   48.3310 C   0  0  0  0  0  0  0  0  0  0  0  0
   36.5880   29.5940   48.6710 N   0  0  0  0  0  0  0  0  0  0  0  0
   36.2160   29.4440   49.9360 C   0  0  0  0  0  0  0  0  0  0  0  0
   36.8510   30.0940   50.9340 N   0  0  0  0  0  0  0  0  0  0  0  0
   39.5070   33.8542   46.2083 H   0  0  0  0  0  0  0  0  0  0  0  0
   37.5180   32.9376   46.7355 H   0  0  0  0  0  0  0  0  0  0  0  0
   36.8781   31.9790   44.4831 H   0  0  0  0  0  0  0  0  0  0  0  0
   37.8952   33.4301   44.3132 H   0  0  0  0  0  0  0  0  0  0  0  0
   38.6289   31.4832   42.9776 H   0  0  0  0  0  0  0  0  0  0  0  0
   40.9170   31.9223   43.4591 H   0  0  0  0  0  0  0  0  0  0  0  0
   40.0122   33.4024   43.7974 H   0  0  0  0  0  0  0  0  0  0  0  0
   41.4593   32.7814   45.7650 H   0  0  0  0  0  0  0  0  0  0  0  0
   40.8042   30.7326   46.8997 H   0  0  0  0  0  0  0  0  0  0  0  0
   40.0351   30.2663   45.4784 H   0  0  0  0  0  0  0  0  0  0  0  0
   38.3808   31.4290   51.4619 H   0  0  0  0  0  0  0  0  0  0  0  0
   39.1394   31.7658   49.1133 H   0  0  0  0  0  0  0  0  0  0  0  0
   35.3744   28.7775   50.1757 H   0  0  0  0  0  0  0  0  0  0  0  0
  2  1  1  0
  2  8  1  0
  3  2  1  0
  4  5  1  0
  4  3  1  0
  5  6  1  0
  6  7  1  0
  6  1  1  0
  8 11  1  0
  9 14  2  0
 10  9  1  0
 11 12  1  0
 11 10  2  0
 12 13  2  0
 13 14  1  0
  1 15  1  0
  2 16  1  1
  3 17  1  0
  3 18  1  0
  4 19  1  0
  5 20  1  0
  5 21  1  0
  6 22  1  6
  7 23  1  0
  7 24  1  0
  9 25  1  0
 10 26  1  0
 13 27  1  0
M  ISO  8  15   5  16  13  17  13  18  13  19   5  20  13  21  13  22  13
M  ISO  5  23   5  24   5  25  14  26  14  27  14
M  END
>  <minimizedAffinity>  (1) 
-4.90027714

>  <minimizedRMSD>  (1) 
0.432023972

$$$$
