
     RDKit          3D

 40 42  0  0  1  0  0  0  0  0999 V2000
   36.2020   30.4200   48.4290 C   0  0  1  0  0  0  0  0  0  0  0  0
   36.6150   29.3110   49.4710 C   0  0  0  0  0  0  0  0  0  0  0  0
   35.6650   28.1170   49.3670 C   0  0  0  0  0  0  0  0  0  0  0  0
   34.2420   28.5770   49.2890 C   0  0  0  0  0  0  0  0  0  0  0  0
   34.1800   29.9670   49.8490 C   0  0  0  0  0  0  0  0  0  0  0  0
   34.8370   30.8810   48.8380 C   0  0  2  0  0  0  0  0  0  0  0  0
   37.9140   31.8060   47.3640 C   0  0  0  0  0  0  0  0  0  0  0  0
   38.8350   32.8590   47.4690 C   0  0  0  0  0  0  0  0  0  0  0  0
   39.1000   33.5150   48.6580 C   0  0  0  0  0  0  0  0  0  0  0  0
   38.4410   33.1320   49.8110 C   0  0  0  0  0  0  0  0  0  0  0  0
   37.5320   32.0900   49.6920 C   0  0  0  0  0  0  0  0  0  0  0  0
   37.2420   31.4160   48.5160 C   0  0  0  0  0  0  0  0  0  0  0  0
   38.8550   30.1700   45.8090 C   0  0  0  0  0  0  0  0  0  0  0  0
   37.8590   31.1800   46.0870 C   0  0  0  0  0  0  0  0  0  0  0  0
   36.9430   31.4190   45.1050 C   0  0  0  0  0  0  0  0  0  0  0  0
   37.0010   30.7170   43.9500 N   0  0  0  0  0  0  0  0  0  0  0  0
   37.9540   29.7640   43.7150 C   0  0  0  0  0  0  0  0  0  0  0  0
   38.9170   29.4740   44.6640 N   0  0  0  0  0  0  0  0  0  0  0  0
   34.1500   30.0480   46.5530 C   0  0  0  0  0  0  0  0  0  0  0  0
   35.1680   29.2760   46.5440 O   0  0  0  0  0  0  0  0  0  0  0  0
   33.9080   30.8960   47.6810 N   0  0  0  0  0  0  0  0  0  0  0  0
   36.1264   30.1080   47.3769 H   0  0  0  0  0  0  0  0  0  0  0  0
   37.6424   28.9786   49.2614 H   0  0  0  0  0  0  0  0  0  0  0  0
   36.5588   29.7302   50.4864 H   0  0  0  0  0  0  0  0  0  0  0  0
   35.9080   27.5402   48.4624 H   0  0  0  0  0  0  0  0  0  0  0  0
   35.7852   27.4907   50.2633 H   0  0  0  0  0  0  0  0  0  0  0  0
   33.9062   28.5799   48.2415 H   0  0  0  0  0  0  0  0  0  0  0  0
   33.5874   27.9023   49.8602 H   0  0  0  0  0  0  0  0  0  0  0  0
   33.1327   30.2656   50.0036 H   0  0  0  0  0  0  0  0  0  0  0  0
   34.6937   30.0222   50.8201 H   0  0  0  0  0  0  0  0  0  0  0  0
   35.0022   31.8814   49.2646 H   0  0  0  0  0  0  0  0  0  0  0  0
   39.3717   33.1781   46.5634 H   0  0  0  0  0  0  0  0  0  0  0  0
   39.8309   34.3366   48.6855 H   0  0  0  0  0  0  0  0  0  0  0  0
   38.6277   33.6283   50.7748 H   0  0  0  0  0  0  0  0  0  0  0  0
   37.0003   31.7744   50.6018 H   0  0  0  0  0  0  0  0  0  0  0  0
   39.6076   29.9594   46.5832 H   0  0  0  0  0  0  0  0  0  0  0  0
   36.1611   32.1787   45.2515 H   0  0  0  0  0  0  0  0  0  0  0  0
   37.9542   29.2212   42.7583 H   0  0  0  0  0  0  0  0  0  0  0  0
   33.4608   30.0611   45.6958 H   0  0  0  0  0  0  0  0  0  0  0  0
   33.0870   31.5180   47.6894 H   0  0  0  0  0  0  0  0  0  0  0  0
  1 12  1  0
  1  6  1  0
  1  2  1  0
  3  2  1  0
  4  3  1  0
  4  5  1  0
  6  5  1  0
  7  8  2  0
  7 12  1  0
  8  9  1  0
  9 10  2  0
 11 10  1  0
 12 11  2  0
 13 14  2  0
 14  7  1  0
 15 14  1  0
 16 15  2  0
 17 16  1  0
 17 18  2  0
 18 13  1  0
 19 21  1  0
 20 19  2  0
 21  6  1  0
  1 22  1  6
  2 23  1  0
  2 24  1  0
  3 25  1  0
  3 26  1  0
  4 27  1  0
  4 28  1  0
  5 29  1  0
  5 30  1  0
  6 31  1  1
  8 32  1  0
  9 33  1  0
 10 34  1  0
 11 35  1  0
 13 36  1  0
 15 37  1  0
 17 38  1  0
 19 39  1  0
 21 40  1  0
M  ISO  8  22  13  23  13  24  13  25  13  26  13  27  13  28  13  29  13
M  ISO  8  30  13  31  13  32  14  33  14  34  14  35  14  36  14  37  14
M  ISO  2  38  14  39   6
M  END
>  <minimizedAffinity>  (1) 
-5.56986904

>  <minimizedRMSD>  (1) 
2.56541181

$$$$
