
     RDKit          3D

 49 52  0  0  1  0  0  0  0  0999 V2000
   36.0330   30.4440   47.1960 C   0  0  1  0  0  0  0  0  0  0  0  0
   35.5380   29.1110   47.8860 C   0  0  0  0  0  0  0  0  0  0  0  0
   35.1060   29.3600   49.3250 C   0  0  0  0  0  0  0  0  0  0  0  0
   36.1280   30.2190   50.0110 C   0  0  0  0  0  0  0  0  0  0  0  0
   37.4180   30.0890   49.2660 C   0  0  0  0  0  0  0  0  0  0  0  0
   37.2790   30.7880   47.9420 C   0  0  2  0  0  0  0  0  0  0  0  0
   35.0990   29.7610   45.0650 C   0  0  0  0  0  0  0  0  0  0  0  0
   35.3460   29.5150   43.7010 C   0  0  0  0  0  0  0  0  0  0  0  0
   36.5670   29.5380   43.1020 C   0  0  0  0  0  0  0  0  0  0  0  0
   37.6920   29.8210   43.8670 C   0  0  0  0  0  0  0  0  0  0  0  0
   37.4670   30.0620   45.2080 C   0  0  0  0  0  0  0  0  0  0  0  0
   36.2200   30.0430   45.8120 C   0  0  0  0  0  0  0  0  0  0  0  0
   33.2250   28.3500   45.6470 C   0  0  0  0  0  0  0  0  0  0  0  0
   33.7440   29.6510   45.4520 C   0  0  0  0  0  0  0  0  0  0  0  0
   32.8740   30.7170   45.6390 C   0  0  0  0  0  0  0  0  0  0  0  0
   31.5770   30.4440   45.9960 N   0  0  0  0  0  0  0  0  0  0  0  0
   31.1080   29.2110   46.1730 C   0  0  0  0  0  0  0  0  0  0  0  0
   31.9400   28.1750   45.9960 N   0  0  0  0  0  0  0  0  0  0  0  0
   37.8820   32.6730   49.4890 C   0  0  1  0  0  0  0  0  0  0  0  0
   37.4030   32.3240   48.1450 C   0  0  1  0  0  0  0  0  0  0  0  0
   38.3180   32.7290   47.1930 O   0  0  0  0  0  0  0  0  0  0  0  0
   39.4500   33.1730   47.8720 C   0  0  0  0  0  0  0  0  0  0  0  0
   38.9000   33.7710   49.1720 C   0  0  2  0  0  0  0  0  0  0  0  0
   36.8610   33.2670   50.2140 O   0  0  0  0  0  0  0  0  0  0  0  0
   39.8270   33.8130   50.1820 O   0  0  0  0  0  0  0  0  0  0  0  0
   35.3835   31.3316   47.2121 H   0  0  0  0  0  0  0  0  0  0  0  0
   34.6843   28.7102   47.3199 H   0  0  0  0  0  0  0  0  0  0  0  0
   36.3717   28.3935   47.8931 H   0  0  0  0  0  0  0  0  0  0  0  0
   34.1322   29.8714   49.3325 H   0  0  0  0  0  0  0  0  0  0  0  0
   35.0189   28.3994   49.8538 H   0  0  0  0  0  0  0  0  0  0  0  0
   35.7979   31.2683   50.0051 H   0  0  0  0  0  0  0  0  0  0  0  0
   36.2566   29.8986   51.0554 H   0  0  0  0  0  0  0  0  0  0  0  0
   38.2296   30.5522   49.8464 H   0  0  0  0  0  0  0  0  0  0  0  0
   37.6553   29.0267   49.1074 H   0  0  0  0  0  0  0  0  0  0  0  0
   38.1010   30.4247   47.3077 H   0  0  0  0  0  0  0  0  0  0  0  0
   34.4780   29.2847   43.0658 H   0  0  0  0  0  0  0  0  0  0  0  0
   36.6627   29.3350   42.0251 H   0  0  0  0  0  0  0  0  0  0  0  0
   38.7013   29.8512   43.4306 H   0  0  0  0  0  0  0  0  0  0  0  0
   38.3386   30.2846   45.8410 H   0  0  0  0  0  0  0  0  0  0  0  0
   33.8783   27.4754   45.5119 H   0  0  0  0  0  0  0  0  0  0  0  0
   33.2155   31.7539   45.5045 H   0  0  0  0  0  0  0  0  0  0  0  0
   30.0587   29.0455   46.4588 H   0  0  0  0  0  0  0  0  0  0  0  0
   38.2596   31.8105   50.0578 H   0  0  0  0  0  0  0  0  0  0  0  0
   36.4247   32.8164   48.0426 H   0  0  0  0  0  0  0  0  0  0  0  0
   40.1303   32.3353   48.0854 H   0  0  0  0  0  0  0  0  0  0  0  0
   40.0329   33.9003   47.2878 H   0  0  0  0  0  0  0  0  0  0  0  0
   38.5442   34.8078   49.0801 H   0  0  0  0  0  0  0  0  0  0  0  0
   37.0399   33.1629   51.1821 H   0  0  0  0  0  0  0  0  0  0  0  0
   39.3634   33.7920   51.0565 H   0  0  0  0  0  0  0  0  0  0  0  0
  1  2  1  0
  1  6  1  0
  2  3  1  0
  3  4  1  0
  5  4  1  0
  6 20  1  0
  6  5  1  0
  7 14  1  0
  7 12  1  0
  8  7  2  0
  9  8  1  0
  9 10  2  0
 10 11  1  0
 11 12  2  0
 12  1  1  0
 13 18  2  0
 14 15  2  0
 14 13  1  0
 15 16  1  0
 16 17  2  0
 18 17  1  0
 19 24  1  0
 20 21  1  0
 20 19  1  0
 21 22  1  0
 22 23  1  0
 23 19  1  0
 23 25  1  0
  1 26  1  6
  2 27  1  0
  2 28  1  0
  3 29  1  0
  3 30  1  0
  4 31  1  0
  4 32  1  0
  5 33  1  0
  5 34  1  0
  6 35  1  6
  8 36  1  0
  9 37  1  0
 10 38  1  0
 11 39  1  0
 13 40  1  0
 15 41  1  0
 17 42  1  0
 19 43  1  1
 20 44  1  6
 22 45  1  0
 22 46  1  0
 23 47  1  6
 24 48  1  0
 25 49  1  0
M  ISO  8  26  13  27  13  28  13  29  13  30  13  31  13  32  13  33  13
M  ISO  8  34  13  35  13  36  14  37  14  38  14  39  14  40  14  41  14
M  ISO  8  42  14  43  13  44  13  45  13  46  13  47  13  48   3  49   3
M  END
>  <minimizedAffinity>  (1) 
-5.06441736

>  <minimizedRMSD>  (1) 
3.67260742

$$$$
