
     RDKit          3D

 26 27  0  0  0  0  0  0  0  0999 V2000
   36.1000   29.2580   49.2880 C   0  0  0  0  0  0  0  0  0  0  0  0
   36.8270   30.2820   48.6860 C   0  0  0  0  0  0  0  0  0  0  0  0
   37.7100   31.0480   49.4170 C   0  0  0  0  0  0  0  0  0  0  0  0
   37.8380   30.7590   50.7480 N   0  0  0  0  0  0  0  0  0  0  0  0
   37.1220   29.7580   51.3170 C   0  0  0  0  0  0  0  0  0  0  0  0
   36.2590   29.0130   50.5920 N   0  0  0  0  0  0  0  0  0  0  0  0
   38.6120   30.5470   46.6680 Cl  0  0  0  0  0  0  0  0  0  0  0  0
   38.9620   32.0040   47.5530 C   0  0  0  0  0  0  0  0  0  0  0  0
   38.4920   32.1310   48.8260 C   0  0  0  0  0  0  0  0  0  0  0  0
   38.8010   33.3070   49.4760 C   0  0  0  0  0  0  0  0  0  0  0  0
   39.5460   34.2870   48.8510 C   0  0  0  0  0  0  0  0  0  0  0  0
   40.0170   34.1490   47.5640 C   0  0  0  0  0  0  0  0  0  0  0  0
   39.7070   32.9720   46.9160 C   0  0  0  0  0  0  0  0  0  0  0  0
   35.2020   28.4480   48.6390 O   0  0  0  0  0  0  0  0  0  0  0  0
   33.9420   30.5980   47.6050 O   0  0  0  0  0  0  0  0  0  0  0  0
   33.9480   29.0880   47.6450 P   0  0  0  0  0  0  0  0  0  0  0  0
   34.2280   28.4310   46.1020 O   0  0  0  0  0  0  0  0  0  0  0  0
   32.4420   28.6040   48.2350 O   0  0  0  0  0  0  0  0  0  0  0  0
   36.6949   30.4824   47.6125 H   0  0  0  0  0  0  0  0  0  0  0  0
   37.2462   29.5484   52.3897 H   0  0  0  0  0  0  0  0  0  0  0  0
   38.4494   33.4665   50.5060 H   0  0  0  0  0  0  0  0  0  0  0  0
   39.7718   35.2123   49.4012 H   0  0  0  0  0  0  0  0  0  0  0  0
   40.6102   34.9376   47.0779 H   0  0  0  0  0  0  0  0  0  0  0  0
   40.0560   32.8053   45.8862 H   0  0  0  0  0  0  0  0  0  0  0  0
   34.6144   27.5243   46.1946 H   0  0  0  0  0  0  0  0  0  0  0  0
   32.4582   28.6092   49.2249 H   0  0  0  0  0  0  0  0  0  0  0  0
  1  6  2  0
  2  1  1  0
  2  3  2  0
  3  4  1  0
  4  5  2  0
  6  5  1  0
  7  8  1  0
  8  9  2  0
  9  3  1  0
  9 10  1  0
 11 10  2  0
 12 11  1  0
 13  8  1  0
 13 12  2  0
 14  1  1  0
 15 16  2  0
 16 18  1  0
 16 14  1  0
 17 16  1  0
  2 19  1  0
  5 20  1  0
 10 21  1  0
 11 22  1  0
 12 23  1  0
 13 24  1  0
 17 25  1  0
 18 26  1  0
M  ISO  8  19  14  20  14  21  14  22  14  23  14  24  14  25   3  26   3
M  END
>  <minimizedAffinity>  (1) 
-5.91562891

>  <minimizedRMSD>  (1) 
4.92914772

$$$$
