
     RDKit          3D

 23 24  0  0  0  0  0  0  0  0999 V2000
   37.7270   31.7700   48.9300 C   0  0  0  0  0  0  0  0  0  0  0  0
   36.4640   31.1990   48.7050 C   0  0  0  0  0  0  0  0  0  0  0  0
   35.9940   30.2550   49.6020 C   0  0  0  0  0  0  0  0  0  0  0  0
   36.7600   29.9060   50.6700 N   0  0  0  0  0  0  0  0  0  0  0  0
   37.9890   30.4840   50.8600 C   0  0  0  0  0  0  0  0  0  0  0  0
   38.4690   31.4040   50.0020 N   0  0  0  0  0  0  0  0  0  0  0  0
   34.6740   29.6490   49.3800 C   0  0  0  0  0  0  0  0  0  0  0  0
   34.4770   28.1990   49.4880 C   0  0  0  0  0  0  0  0  0  0  0  0
   34.6390   28.7470   48.1330 C   0  0  0  0  0  0  0  0  0  0  0  0
   38.3390   32.7180   48.1390 O   0  0  0  0  0  0  0  0  0  0  0  0
   39.7180   31.0750   46.5230 O   0  0  0  0  0  0  0  0  0  0  0  0
   38.9100   32.3520   46.5640 P   0  0  0  0  0  0  0  0  0  0  0  0
   37.5360   32.2300   45.5690 O   0  0  0  0  0  0  0  0  0  0  0  0
   39.9290   33.6040   46.0370 O   0  0  0  0  0  0  0  0  0  0  0  0
   35.8607   31.4955   47.8343 H   0  0  0  0  0  0  0  0  0  0  0  0
   38.5944   30.1903   51.7302 H   0  0  0  0  0  0  0  0  0  0  0  0
   34.1293   30.5025   49.8100 H   0  0  0  0  0  0  0  0  0  0  0  0
   35.2745   27.5753   49.9182 H   0  0  0  0  0  0  0  0  0  0  0  0
   33.7104   27.5712   49.9656 H   0  0  0  0  0  0  0  0  0  0  0  0
   33.7822   28.7858   47.4443 H   0  0  0  0  0  0  0  0  0  0  0  0
   35.3072   28.5553   47.2805 H   0  0  0  0  0  0  0  0  0  0  0  0
   36.7255   32.1580   46.1329 H   0  0  0  0  0  0  0  0  0  0  0  0
   40.3099   34.0720   46.8219 H   0  0  0  0  0  0  0  0  0  0  0  0
  1  6  2  0
  2  1  1  0
  2  3  2  0
  3  4  1  0
  4  5  2  0
  6  5  1  0
  7  8  1  0
  7  3  1  0
  9  7  1  0
  9  8  1  0
 10  1  1  0
 11 12  2  0
 12 10  1  0
 13 12  1  0
 14 12  1  0
  2 15  1  0
  5 16  1  0
  7 17  1  0
  8 18  1  0
  8 19  1  0
  9 20  1  0
  9 21  1  0
 13 22  1  0
 14 23  1  0
M  ISO  8  15  14  16  14  17  13  18  13  19  13  20  13  21  13  22   3
M  ISO  1  23   3
M  END
>  <minimizedAffinity>  (1) 
-4.96295404

>  <minimizedRMSD>  (1) 
4.14932251

$$$$
