
     RDKit          3D

 18 18  0  0  0  0  0  0  0  0999 V2000
   35.8590   30.6610   49.3790 C   0  0  0  0  0  0  0  0  0  0  0  0
   36.2610   30.0210   50.5690 C   0  0  0  0  0  0  0  0  0  0  0  0
   37.5600   30.2090   51.0050 C   0  0  0  0  0  0  0  0  0  0  0  0
   38.3990   30.9980   50.2820 N   0  0  0  0  0  0  0  0  0  0  0  0
   37.9880   31.6050   49.1360 C   0  0  0  0  0  0  0  0  0  0  0  0
   36.7150   31.4390   48.6810 N   0  0  0  0  0  0  0  0  0  0  0  0
   37.9660   29.5650   52.2050 N   0  0  0  0  0  0  0  0  0  0  0  0
   34.6070   30.5830   48.8010 O   0  0  0  0  0  0  0  0  0  0  0  0
   35.0610   29.6380   46.3290 O   0  0  0  0  0  0  0  0  0  0  0  0
   34.2330   29.4400   47.5910 P   0  0  0  0  0  0  0  0  0  0  0  0
   34.5250   27.9010   48.2680 O   0  0  0  0  0  0  0  0  0  0  0  0
   32.6250   29.5690   47.1250 O   0  0  0  0  0  0  0  0  0  0  0  0
   35.5607   29.3894   51.1353 H   0  0  0  0  0  0  0  0  0  0  0  0
   38.6904   32.2358   48.5715 H   0  0  0  0  0  0  0  0  0  0  0  0
   38.9272   29.6862   52.5547 H   0  0  0  0  0  0  0  0  0  0  0  0
   37.2991   28.9770   52.7250 H   0  0  0  0  0  0  0  0  0  0  0  0
   34.5124   27.9672   49.2557 H   0  0  0  0  0  0  0  0  0  0  0  0
   32.0508   29.6151   47.9301 H   0  0  0  0  0  0  0  0  0  0  0  0
  1  2  2  0
  2  3  1  0
  3  7  1  0
  4  3  2  0
  5  4  1  0
  6  5  2  0
  6  1  1  0
  8  1  1  0
  9 10  2  0
 10 11  1  0
 10  8  1  0
 12 10  1  0
  2 13  1  0
  5 14  1  0
  7 15  1  0
  7 16  1  0
 11 17  1  0
 12 18  1  0
M  ISO  4  13  14  14  14  17   3  18   3
M  END
>  <minimizedAffinity>  (1) 
-4.11881495

>  <minimizedRMSD>  (1) 
0.879979253

$$$$
