
     RDKit          3D

 19 19  0  0  0  0  0  0  0  0999 V2000
   35.5730   30.4020   48.5680 C   0  0  0  0  0  0  0  0  0  0  0  0
   35.7860   30.1900   49.9440 C   0  0  0  0  0  0  0  0  0  0  0  0
   37.1130   30.2110   50.3750 C   0  0  0  0  0  0  0  0  0  0  0  0
   38.1240   30.4280   49.4910 N   0  0  0  0  0  0  0  0  0  0  0  0
   37.8550   30.6300   48.1610 C   0  0  0  0  0  0  0  0  0  0  0  0
   36.5700   30.6160   47.7040 N   0  0  0  0  0  0  0  0  0  0  0  0
   37.3570   29.9870   51.8250 C   0  0  0  0  0  0  0  0  0  0  0  0
   34.3250   30.4170   47.9530 O   0  0  0  0  0  0  0  0  0  0  0  0
   34.1700   28.9200   45.7300 O   0  0  0  0  0  0  0  0  0  0  0  0
   33.6730   29.0430   47.1590 P   0  0  0  0  0  0  0  0  0  0  0  0
   34.1500   27.6910   48.0870 O   0  0  0  0  0  0  0  0  0  0  0  0
   31.9900   29.1690   47.1010 O   0  0  0  0  0  0  0  0  0  0  0  0
   34.9523   30.0174   50.6405 H   0  0  0  0  0  0  0  0  0  0  0  0
   38.6824   30.8047   47.4575 H   0  0  0  0  0  0  0  0  0  0  0  0
   36.6724   30.6155   52.4134 H   0  0  0  0  0  0  0  0  0  0  0  0
   37.1822   28.9283   52.0670 H   0  0  0  0  0  0  0  0  0  0  0  0
   38.3969   30.2515   52.0670 H   0  0  0  0  0  0  0  0  0  0  0  0
   34.0734   27.9080   49.0499 H   0  0  0  0  0  0  0  0  0  0  0  0
   31.6292   29.1960   48.0225 H   0  0  0  0  0  0  0  0  0  0  0  0
  1  2  2  0
  2  3  1  0
  3  7  1  0
  4  3  2  0
  5  4  1  0
  6  5  2  0
  6  1  1  0
  8  1  1  0
  9 10  2  0
 10  8  1  0
 10 11  1  0
 12 10  1  0
  2 13  1  0
  5 14  1  0
  7 15  1  0
  7 16  1  0
  7 17  1  0
 11 18  1  0
 12 19  1  0
M  ISO  7  13  14  14  14  15   8  16   8  17   8  18   3  19   3
M  END
>  <minimizedAffinity>  (1) 
-4.01668787

>  <minimizedRMSD>  (1) 
1.53270698

$$$$
