
     RDKit          3D

 18 18  0  0  0  0  0  0  0  0999 V2000
   35.4400   30.3770   48.1210 C   0  0  0  0  0  0  0  0  0  0  0  0
   35.9230   30.3910   49.4340 C   0  0  0  0  0  0  0  0  0  0  0  0
   37.2780   30.5450   49.6560 C   0  0  0  0  0  0  0  0  0  0  0  0
   38.0940   30.6800   48.5750 N   0  0  0  0  0  0  0  0  0  0  0  0
   37.6050   30.6650   47.3130 C   0  0  0  0  0  0  0  0  0  0  0  0
   36.2810   30.5140   47.0880 N   0  0  0  0  0  0  0  0  0  0  0  0
   37.7620   30.5560   51.0330 C   0  0  0  0  0  0  0  0  0  0  0  0
   37.1580   29.9460   51.9470 O   0  0  0  0  0  0  0  0  0  0  0  0
   34.1180   30.2330   47.7420 O   0  0  0  0  0  0  0  0  0  0  0  0
   33.7810   28.3020   45.8890 O   0  0  0  0  0  0  0  0  0  0  0  0
   33.4610   28.7010   47.3110 P   0  0  0  0  0  0  0  0  0  0  0  0
   34.1120   27.5840   48.4260 O   0  0  0  0  0  0  0  0  0  0  0  0
   31.7720   28.7480   47.4470 O   0  0  0  0  0  0  0  0  0  0  0  0
   35.2306   30.2805   50.2815 H   0  0  0  0  0  0  0  0  0  0  0  0
   38.2924   30.7769   46.4616 H   0  0  0  0  0  0  0  0  0  0  0  0
   38.6791   31.1131   51.2749 H   0  0  0  0  0  0  0  0  0  0  0  0
   33.9309   27.8948   49.3483 H   0  0  0  0  0  0  0  0  0  0  0  0
   31.5181   28.7551   48.4038 H   0  0  0  0  0  0  0  0  0  0  0  0
  1  2  2  0
  2  3  1  0
  3  7  1  0
  4  3  2  0
  5  4  1  0
  6  5  2  0
  6  1  1  0
  7  8  2  0
  9  1  1  0
 10 11  2  0
 11 13  1  0
 11  9  1  0
 11 12  1  0
  2 14  1  0
  5 15  1  0
  7 16  1  0
 12 17  1  0
 13 18  1  0
M  ISO  5  14  14  15  14  16   6  17   3  18   3
M  END
>  <minimizedAffinity>  (1) 
-3.78191924

>  <minimizedRMSD>  (1) 
2.14702487

$$$$
