
     RDKit          3D

 27 29  0  0  0  0  0  0  0  0999 V2000
   37.3310   31.2000   50.0050 C   0  0  0  0  0  0  0  0  0  0  0  0
   38.3880   32.1000   49.8240 C   0  0  0  0  0  0  0  0  0  0  0  0
   38.6880   32.4680   48.5050 C   0  0  0  0  0  0  0  0  0  0  0  0
   37.9610   31.9510   47.4770 N   0  0  0  0  0  0  0  0  0  0  0  0
   36.9500   31.0840   47.7080 C   0  0  0  0  0  0  0  0  0  0  0  0
   36.6340   30.7070   48.9680 N   0  0  0  0  0  0  0  0  0  0  0  0
   36.1570   30.5110   46.6850 N   0  0  0  0  0  0  0  0  0  0  0  0
   36.6760   30.4400   45.4460 C   0  0  0  0  0  0  0  0  0  0  0  0
   35.8500   29.8710   44.5010 C   0  0  0  0  0  0  0  0  0  0  0  0
   34.5750   29.3940   44.7590 C   0  0  0  0  0  0  0  0  0  0  0  0
   33.8410   28.8800   43.8870 O   0  0  0  0  0  0  0  0  0  0  0  0
   34.1070   29.4940   46.0350 N   0  0  0  0  0  0  0  0  0  0  0  0
   34.9140   30.0500   46.9560 C   0  0  0  0  0  0  0  0  0  0  0  0
   34.5130   30.1610   48.1560 O   0  0  0  0  0  0  0  0  0  0  0  0
   32.8100   29.0330   46.3960 C   0  0  0  0  0  0  0  0  0  0  0  0
   32.2260   27.9370   46.9990 C   0  0  0  0  0  0  0  0  0  0  0  0
   30.9020   28.1700   47.0180 N   0  0  0  0  0  0  0  0  0  0  0  0
   30.6220   29.3600   46.4560 C   0  0  0  0  0  0  0  0  0  0  0  0
   31.8110   29.9020   46.0660 N   0  0  0  0  0  0  0  0  0  0  0  0
   37.0637   30.8878   51.0253 H   0  0  0  0  0  0  0  0  0  0  0  0
   38.9564   32.4996   50.6768 H   0  0  0  0  0  0  0  0  0  0  0  0
   39.5082   33.1722   48.3015 H   0  0  0  0  0  0  0  0  0  0  0  0
   37.6841   30.8085   45.2052 H   0  0  0  0  0  0  0  0  0  0  0  0
   36.2288   29.7900   43.4715 H   0  0  0  0  0  0  0  0  0  0  0  0
   32.7428   27.0472   47.3878 H   0  0  0  0  0  0  0  0  0  0  0  0
   30.1991   27.5264   47.4088 H   0  0  0  0  0  0  0  0  0  0  0  0
   29.6254   29.8094   46.3345 H   0  0  0  0  0  0  0  0  0  0  0  0
  2  1  2  0
  3  2  1  0
  4  5  1  0
  4  3  2  0
  5  6  2  0
  6  1  1  0
  7 13  1  0
  7  5  1  0
  8  7  1  0
  9 10  1  0
  9  8  2  0
 10 12  1  0
 11 10  2  0
 12 15  1  0
 12 13  1  0
 13 14  2  0
 15 16  2  0
 16 17  1  0
 18 17  1  0
 19 15  1  0
 19 18  2  0
  1 20  1  0
  2 21  1  0
  3 22  1  0
  8 23  1  0
  9 24  1  0
 16 25  1  0
 17 26  1  0
 18 27  1  0
M  ISO  8  20  14  21  14  22  14  23  14  24  14  25  14  26   9  27  14
M  END
>  <minimizedAffinity>  (1) 
-4.62913704

>  <minimizedRMSD>  (1) 
3.39178133

$$$$
