
     RDKit          3D

 38 40  0  0  0  0  0  0  0  0999 V2000
   35.5400   30.3110   49.7870 C   0  0  0  0  0  0  0  0  0  0  0  0
   36.4770   31.2070   49.0060 C   0  0  0  0  0  0  0  0  0  0  0  0
   37.9180   30.8370   49.1900 C   0  0  0  0  0  0  0  0  0  0  0  0
   38.3350   30.7870   50.6300 C   0  0  0  0  0  0  0  0  0  0  0  0
   37.3410   30.0970   51.5150 C   0  0  0  0  0  0  0  0  0  0  0  0
   36.2360   29.4060   50.7420 C   0  0  0  0  0  0  0  0  0  0  0  0
   34.7630   29.4580   48.8360 C   0  0  0  0  0  0  0  0  0  0  0  0
   34.1770   30.1290   47.7490 C   0  0  0  0  0  0  0  0  0  0  0  0
   33.4320   29.3300   46.8590 C   0  0  0  0  0  0  0  0  0  0  0  0
   33.3160   27.9780   47.0820 N   0  0  0  0  0  0  0  0  0  0  0  0
   33.9090   27.3820   48.1590 C   0  0  0  0  0  0  0  0  0  0  0  0
   34.6190   28.1230   49.0140 N   0  0  0  0  0  0  0  0  0  0  0  0
   32.7820   29.8650   45.7130 N   0  0  0  0  0  0  0  0  0  0  0  0
   33.3270   30.0100   44.3770 C   0  0  0  0  0  0  0  0  0  0  0  0
   32.7890   31.3670   43.9560 C   0  0  0  0  0  0  0  0  0  0  0  0
   31.7260   31.7300   44.9520 C   0  0  0  0  0  0  0  0  0  0  0  0
   31.4310   30.3850   45.6280 C   0  0  0  0  0  0  0  0  0  0  0  0
   34.8918   30.9814   50.3705 H   0  0  0  0  0  0  0  0  0  0  0  0
   36.3342   32.2444   49.3427 H   0  0  0  0  0  0  0  0  0  0  0  0
   36.2372   31.0892   47.9389 H   0  0  0  0  0  0  0  0  0  0  0  0
   38.0845   29.8458   48.7430 H   0  0  0  0  0  0  0  0  0  0  0  0
   38.5210   31.6165   48.7015 H   0  0  0  0  0  0  0  0  0  0  0  0
   39.2928   30.2503   50.6970 H   0  0  0  0  0  0  0  0  0  0  0  0
   38.4149   31.8265   50.9808 H   0  0  0  0  0  0  0  0  0  0  0  0
   37.8712   29.3439   52.1164 H   0  0  0  0  0  0  0  0  0  0  0  0
   36.8698   30.8679   52.1424 H   0  0  0  0  0  0  0  0  0  0  0  0
   35.4972   29.0175   51.4584 H   0  0  0  0  0  0  0  0  0  0  0  0
   36.7002   28.6010   50.1533 H   0  0  0  0  0  0  0  0  0  0  0  0
   34.2930   31.2129   47.6018 H   0  0  0  0  0  0  0  0  0  0  0  0
   33.8024   26.2992   48.3209 H   0  0  0  0  0  0  0  0  0  0  0  0
   34.4269   30.0043   44.3922 H   0  0  0  0  0  0  0  0  0  0  0  0
   33.0473   29.1934   43.6952 H   0  0  0  0  0  0  0  0  0  0  0  0
   33.5943   32.1162   43.9693 H   0  0  0  0  0  0  0  0  0  0  0  0
   32.3833   31.3352   42.9340 H   0  0  0  0  0  0  0  0  0  0  0  0
   32.0975   32.4672   45.6790 H   0  0  0  0  0  0  0  0  0  0  0  0
   30.8395   32.1958   44.4969 H   0  0  0  0  0  0  0  0  0  0  0  0
   30.9770   30.5148   46.6215 H   0  0  0  0  0  0  0  0  0  0  0  0
   30.7115   29.7413   45.1008 H   0  0  0  0  0  0  0  0  0  0  0  0
  1  6  1  0
  2  3  1  0
  2  1  1  0
  3  4  1  0
  4  5  1  0
  6  5  1  0
  7 12  1  0
  7  1  1  0
  8  7  2  0
  9 10  2  0
  9  8  1  0
 10 11  1  0
 11 12  2  0
 13  9  1  0
 14 13  1  0
 15 14  1  0
 15 16  1  0
 16 17  1  0
 17 13  1  0
  1 18  1  0
  2 19  1  0
  2 20  1  0
  3 21  1  0
  3 22  1  0
  4 23  1  0
  4 24  1  0
  5 25  1  0
  5 26  1  0
  6 27  1  0
  6 28  1  0
  8 29  1  0
 11 30  1  0
 14 31  1  0
 14 32  1  0
 15 33  1  0
 15 34  1  0
 16 35  1  0
 16 36  1  0
 17 37  1  0
 17 38  1  0
M  ISO  8  18  13  19  13  20  13  21  13  22  13  23  13  24  13  25  13
M  ISO  8  26  13  27  13  28  13  29  14  30  14  31  13  32  13  33  13
M  ISO  5  34  13  35  13  36  13  37  13  38  13
M  END
>  <minimizedAffinity>  (1) 
-5.53034544

>  <minimizedRMSD>  (1) 
0.157372922

$$$$
