
     RDKit          3D

 36 38  0  0  0  0  0  0  0  0999 V2000
   34.7050   29.5140   48.9380 C   0  0  0  0  0  0  0  0  0  0  0  0
   34.3140   30.2050   47.7770 C   0  0  0  0  0  0  0  0  0  0  0  0
   33.5620   29.5070   46.8420 C   0  0  0  0  0  0  0  0  0  0  0  0
   33.2360   28.2060   47.0780 N   0  0  0  0  0  0  0  0  0  0  0  0
   33.6290   27.5600   48.2160 C   0  0  0  0  0  0  0  0  0  0  0  0
   34.3550   28.2200   49.1260 N   0  0  0  0  0  0  0  0  0  0  0  0
   35.5030   30.2730   49.9410 C   0  0  0  0  0  0  0  0  0  0  0  0
   36.4150   31.2510   49.2290 C   0  0  0  0  0  0  0  0  0  0  0  0
   37.8620   30.8770   49.3490 C   0  0  0  0  0  0  0  0  0  0  0  0
   38.3140   30.6710   50.7670 C   0  0  0  0  0  0  0  0  0  0  0  0
   37.3010   29.9700   51.6210 C   0  0  0  0  0  0  0  0  0  0  0  0
   36.2290   29.2900   50.7920 C   0  0  0  0  0  0  0  0  0  0  0  0
   33.0800   30.0740   45.5930 C   0  0  0  0  0  0  0  0  0  0  0  0
   32.1470   31.0870   45.6380 C   0  0  0  0  0  0  0  0  0  0  0  0
   31.6450   31.6720   44.4800 C   0  0  0  0  0  0  0  0  0  0  0  0
   32.0620   31.2620   43.2290 C   0  0  0  0  0  0  0  0  0  0  0  0
   32.9970   30.2490   43.1970 C   0  0  0  0  0  0  0  0  0  0  0  0
   33.4940   29.6680   44.3440 C   0  0  0  0  0  0  0  0  0  0  0  0
   34.5930   31.2568   47.6163 H   0  0  0  0  0  0  0  0  0  0  0  0
   33.3516   26.5086   48.3824 H   0  0  0  0  0  0  0  0  0  0  0  0
   34.8638   30.8779   50.6010 H   0  0  0  0  0  0  0  0  0  0  0  0
   36.2713   32.2501   49.6662 H   0  0  0  0  0  0  0  0  0  0  0  0
   36.1530   31.2360   48.1608 H   0  0  0  0  0  0  0  0  0  0  0  0
   38.0272   29.9429   48.7921 H   0  0  0  0  0  0  0  0  0  0  0  0
   38.4468   31.7152   48.9424 H   0  0  0  0  0  0  0  0  0  0  0  0
   39.2352   30.0700   50.7551 H   0  0  0  0  0  0  0  0  0  0  0  0
   38.4722   31.6678   51.2045 H   0  0  0  0  0  0  0  0  0  0  0  0
   37.8143   29.2105   52.2290 H   0  0  0  0  0  0  0  0  0  0  0  0
   36.8117   30.7244   52.2546 H   0  0  0  0  0  0  0  0  0  0  0  0
   35.5112   28.7996   51.4660 H   0  0  0  0  0  0  0  0  0  0  0  0
   36.7120   28.5507   50.1361 H   0  0  0  0  0  0  0  0  0  0  0  0
   31.7896   31.4426   46.6157 H   0  0  0  0  0  0  0  0  0  0  0  0
   30.9006   32.4777   44.5625 H   0  0  0  0  0  0  0  0  0  0  0  0
   31.6697   31.7186   42.3083 H   0  0  0  0  0  0  0  0  0  0  0  0
   33.3591   29.8919   42.2216 H   0  0  0  0  0  0  0  0  0  0  0  0
   34.2379   28.8621   44.2597 H   0  0  0  0  0  0  0  0  0  0  0  0
  1  6  1  0
  1  7  1  0
  2  1  2  0
  3  4  2  0
  3  2  1  0
  4  5  1  0
  5  6  2  0
  7 12  1  0
  8  9  1  0
  8  7  1  0
  9 10  1  0
 10 11  1  0
 12 11  1  0
 13 14  2  0
 13  3  1  0
 15 14  1  0
 16 15  2  0
 17 16  1  0
 17 18  2  0
 18 13  1  0
  2 19  1  0
  5 20  1  0
  7 21  1  0
  8 22  1  0
  8 23  1  0
  9 24  1  0
  9 25  1  0
 10 26  1  0
 10 27  1  0
 11 28  1  0
 11 29  1  0
 12 30  1  0
 12 31  1  0
 14 32  1  0
 15 33  1  0
 16 34  1  0
 17 35  1  0
 18 36  1  0
M  ISO  8  19  14  20  14  21  13  22  13  23  13  24  13  25  13  26  13
M  ISO  8  27  13  28  13  29  13  30  13  31  13  32  14  33  14  34  14
M  ISO  2  35  14  36  14
M  END
>  <minimizedAffinity>  (1) 
-5.30653048

>  <minimizedRMSD>  (1) 
0.404604375

$$$$
