
     RDKit          3D

 33 35  0  0  0  0  0  0  0  0999 V2000
   35.4550   30.3280   49.8970 C   0  0  0  0  0  0  0  0  0  0  0  0
   36.4430   31.2040   49.1650 C   0  0  0  0  0  0  0  0  0  0  0  0
   37.8690   30.7660   49.3180 C   0  0  0  0  0  0  0  0  0  0  0  0
   38.2810   30.6310   50.7580 C   0  0  0  0  0  0  0  0  0  0  0  0
   37.2390   29.9790   51.6260 C   0  0  0  0  0  0  0  0  0  0  0  0
   36.1180   29.3610   50.8170 C   0  0  0  0  0  0  0  0  0  0  0  0
   34.6570   29.5380   48.9110 C   0  0  0  0  0  0  0  0  0  0  0  0
   34.2330   30.2210   47.7540 C   0  0  0  0  0  0  0  0  0  0  0  0
   33.4970   29.4980   46.8290 C   0  0  0  0  0  0  0  0  0  0  0  0
   33.2090   28.1670   47.0650 N   0  0  0  0  0  0  0  0  0  0  0  0
   33.6440   27.5470   48.2070 C   0  0  0  0  0  0  0  0  0  0  0  0
   34.3570   28.2400   49.1060 N   0  0  0  0  0  0  0  0  0  0  0  0
   33.0090   30.1060   45.5950 C   0  0  0  0  0  0  0  0  0  0  0  0
   32.0770   31.1180   45.4980 C   0  0  0  0  0  0  0  0  0  0  0  0
   31.9760   31.3180   44.1190 C   0  0  0  0  0  0  0  0  0  0  0  0
   32.7930   30.4770   43.4470 N   0  0  0  0  0  0  0  0  0  0  0  0
   33.4150   29.7470   44.3640 N   0  0  0  0  0  0  0  0  0  0  0  0
   34.8185   31.0005   50.4908 H   0  0  0  0  0  0  0  0  0  0  0  0
   36.3515   32.2292   49.5530 H   0  0  0  0  0  0  0  0  0  0  0  0
   36.1999   31.1360   48.0944 H   0  0  0  0  0  0  0  0  0  0  0  0
   37.9933   29.7915   48.8231 H   0  0  0  0  0  0  0  0  0  0  0  0
   38.5055   31.5375   48.8602 H   0  0  0  0  0  0  0  0  0  0  0  0
   39.1981   30.0252   50.8016 H   0  0  0  0  0  0  0  0  0  0  0  0
   38.4321   31.6491   51.1463 H   0  0  0  0  0  0  0  0  0  0  0  0
   37.7199   29.1903   52.2233 H   0  0  0  0  0  0  0  0  0  0  0  0
   36.8002   30.7585   52.2662 H   0  0  0  0  0  0  0  0  0  0  0  0
   35.3625   28.9654   51.5118 H   0  0  0  0  0  0  0  0  0  0  0  0
   36.5619   28.5700   50.1947 H   0  0  0  0  0  0  0  0  0  0  0  0
   34.4756   31.2816   47.5921 H   0  0  0  0  0  0  0  0  0  0  0  0
   33.4095   26.4871   48.3849 H   0  0  0  0  0  0  0  0  0  0  0  0
   31.5444   31.6393   46.3071 H   0  0  0  0  0  0  0  0  0  0  0  0
   31.3189   32.0611   43.6435 H   0  0  0  0  0  0  0  0  0  0  0  0
   32.9097   30.4150   42.4255 H   0  0  0  0  0  0  0  0  0  0  0  0
  1  6  1  0
  2  3  1  0
  2  1  1  0
  3  4  1  0
  4  5  1  0
  6  5  1  0
  7 12  1  0
  7  1  1  0
  8  7  2  0
  9 10  2  0
  9  8  1  0
 10 11  1  0
 11 12  2  0
 13  9  1  0
 14 13  1  0
 15 14  2  0
 16 15  1  0
 16 17  1  0
 17 13  2  0
  1 18  1  0
  2 19  1  0
  2 20  1  0
  3 21  1  0
  3 22  1  0
  4 23  1  0
  4 24  1  0
  5 25  1  0
  5 26  1  0
  6 27  1  0
  6 28  1  0
  8 29  1  0
 11 30  1  0
 14 31  1  0
 15 32  1  0
 16 33  1  0
M  ISO  8  18  13  19  13  20  13  21  13  22  13  23  13  24  13  25  13
M  ISO  8  26  13  27  13  28  13  29  14  30  14  31  14  32  14  33   9
M  END
>  <minimizedAffinity>  (1) 
-5.19062519

>  <minimizedRMSD>  (1) 
0.292980969

$$$$
