
     RDKit          3D

 47 50  0  0  1  0  0  0  0  0999 V2000
   34.1550   29.7440   47.2270 C   0  0  2  0  0  0  0  0  0  0  0  0
   34.1770   30.0580   45.7290 C   0  0  0  0  0  0  0  0  0  0  0  0
   35.5060   29.8220   45.1080 C   0  0  0  0  0  0  0  0  0  0  0  0
   36.5970   30.5710   45.8000 C   0  0  0  0  0  0  0  0  0  0  0  0
   36.6120   30.3290   47.2640 C   0  0  0  0  0  0  0  0  0  0  0  0
   35.4730   29.4970   47.8100 C   0  0  1  0  0  0  0  0  0  0  0  0
   33.3100   28.5090   47.4260 C   0  0  0  0  0  0  0  0  0  0  0  0
   31.9480   28.7610   47.6210 C   0  0  0  0  0  0  0  0  0  0  0  0
   31.1350   27.6360   47.8250 C   0  0  0  0  0  0  0  0  0  0  0  0
   31.7040   26.3690   47.8240 N   0  0  0  0  0  0  0  0  0  0  0  0
   33.0460   26.1920   47.6260 C   0  0  0  0  0  0  0  0  0  0  0  0
   33.8180   27.2640   47.4310 N   0  0  0  0  0  0  0  0  0  0  0  0
   29.7360   27.7680   48.0230 N   0  0  0  0  0  0  0  0  0  0  0  0
   28.9260   28.3600   47.0910 C   0  0  0  0  0  0  0  0  0  0  0  0
   27.5780   28.4740   47.3060 C   0  0  0  0  0  0  0  0  0  0  0  0
   27.0670   27.9830   48.4660 C   0  0  0  0  0  0  0  0  0  0  0  0
   25.8220   28.0740   48.6910 O   0  0  0  0  0  0  0  0  0  0  0  0
   27.8580   27.3990   49.3890 N   0  0  0  0  0  0  0  0  0  0  0  0
   29.1820   27.3080   49.1380 C   0  0  0  0  0  0  0  0  0  0  0  0
   29.8400   26.7450   50.0620 O   0  0  0  0  0  0  0  0  0  0  0  0
   35.4360   29.6040   49.3070 C   0  0  1  0  0  0  0  0  0  0  0  0
   36.7080   29.2500   49.9930 C   0  0  0  0  0  0  0  0  0  0  0  0
   37.1550   30.5620   50.5960 C   0  0  0  0  0  0  0  0  0  0  0  0
   36.3570   31.5450   50.0120 O   0  0  0  0  0  0  0  0  0  0  0  0
   35.1440   30.9300   49.8870 C   0  0  0  0  0  0  0  0  0  0  0  0
   33.7509   30.6316   47.7357 H   0  0  0  0  0  0  0  0  0  0  0  0
   33.4361   29.4195   45.2257 H   0  0  0  0  0  0  0  0  0  0  0  0
   33.9433   31.1265   45.6124 H   0  0  0  0  0  0  0  0  0  0  0  0
   35.7316   28.7463   45.1536 H   0  0  0  0  0  0  0  0  0  0  0  0
   35.4596   30.1795   44.0688 H   0  0  0  0  0  0  0  0  0  0  0  0
   37.5633   30.2548   45.3802 H   0  0  0  0  0  0  0  0  0  0  0  0
   36.4188   31.6447   45.6404 H   0  0  0  0  0  0  0  0  0  0  0  0
   37.5527   29.8149   47.5105 H   0  0  0  0  0  0  0  0  0  0  0  0
   36.5053   31.3199   47.7296 H   0  0  0  0  0  0  0  0  0  0  0  0
   35.6987   28.4659   47.5002 H   0  0  0  0  0  0  0  0  0  0  0  0
   31.5382   29.7818   47.6148 H   0  0  0  0  0  0  0  0  0  0  0  0
   33.4824   25.1823   47.6274 H   0  0  0  0  0  0  0  0  0  0  0  0
   29.3628   28.7484   46.1591 H   0  0  0  0  0  0  0  0  0  0  0  0
   26.9259   28.9506   46.5593 H   0  0  0  0  0  0  0  0  0  0  0  0
   27.4615   27.0307   50.2654 H   0  0  0  0  0  0  0  0  0  0  0  0
   34.6139   28.8939   49.4798 H   0  0  0  0  0  0  0  0  0  0  0  0
   36.5373   28.4950   50.7746 H   0  0  0  0  0  0  0  0  0  0  0  0
   37.4549   28.8113   49.3150 H   0  0  0  0  0  0  0  0  0  0  0  0
   37.0106   30.5504   51.6864 H   0  0  0  0  0  0  0  0  0  0  0  0
   38.2233   30.7475   50.4105 H   0  0  0  0  0  0  0  0  0  0  0  0
   34.4871   31.5063   49.2189 H   0  0  0  0  0  0  0  0  0  0  0  0
   34.6243   30.8490   50.8531 H   0  0  0  0  0  0  0  0  0  0  0  0
  1  7  1  0
  1  6  1  0
  2  1  1  0
  3  2  1  0
  3  4  1  0
  4  5  1  0
  5  6  1  0
  6 21  1  0
  7 12  1  0
  7  8  2  0
  8  9  1  0
  9 13  1  0
 10  9  2  0
 11 10  1  0
 12 11  2  0
 13 19  1  0
 14 15  2  0
 14 13  1  0
 15 16  1  0
 16 17  2  0
 16 18  1  0
 19 18  1  0
 19 20  2  0
 21 25  1  0
 21 22  1  0
 22 23  1  0
 24 23  1  0
 25 24  1  0
  1 26  1  1
  2 27  1  0
  2 28  1  0
  3 29  1  0
  3 30  1  0
  4 31  1  0
  4 32  1  0
  5 33  1  0
  5 34  1  0
  6 35  1  1
  8 36  1  0
 11 37  1  0
 14 38  1  0
 15 39  1  0
 18 40  1  0
 21 41  1  1
 22 42  1  0
 22 43  1  0
 23 44  1  0
 23 45  1  0
 25 46  1  0
 25 47  1  0
M  ISO  8  26  13  27  13  28  13  29  13  30  13  31  13  32  13  33  13
M  ISO  8  34  13  35  13  36  14  37  14  38  14  39  14  40   9  41  13
M  ISO  6  42  13  43  13  44  13  45  13  46  13  47  13
M  END
>  <minimizedAffinity>  (1) 
-6.07556009

>  <minimizedRMSD>  (1) 
4.58636141

$$$$
