
     RDKit          3D

 43 46  0  0  1  0  0  0  0  0999 V2000
   39.6030   33.9600   47.8340 C   0  0  0  0  0  0  0  0  0  0  0  0
   40.0590   33.3800   46.6590 C   0  0  0  0  0  0  0  0  0  0  0  0
   39.7240   32.0760   46.4400 C   0  0  0  0  0  0  0  0  0  0  0  0
   38.9690   31.4550   47.3970 N   0  0  0  0  0  0  0  0  0  0  0  0
   38.5490   32.0150   48.4960 C   0  0  0  0  0  0  0  0  0  0  0  0
   38.8730   33.2850   48.7110 N   0  0  0  0  0  0  0  0  0  0  0  0
   37.7580   31.0860   49.3240 C   0  0  0  0  0  0  0  0  0  0  0  0
   38.0920   30.8240   50.6280 C   0  0  0  0  0  0  0  0  0  0  0  0
   37.3970   29.9710   51.4440 C   0  0  0  0  0  0  0  0  0  0  0  0
   36.2870   29.3110   50.9710 C   0  0  0  0  0  0  0  0  0  0  0  0
   35.9050   29.5350   49.6680 C   0  0  0  0  0  0  0  0  0  0  0  0
   34.7950   28.8770   49.1840 C   0  0  0  0  0  0  0  0  0  0  0  0
   34.3600   29.0580   47.8870 C   0  0  0  0  0  0  0  0  0  0  0  0
   35.1030   29.9390   47.0920 C   0  0  0  0  0  0  0  0  0  0  0  0
   36.2050   30.5720   47.6190 C   0  0  0  0  0  0  0  0  0  0  0  0
   36.6470   30.4020   48.9060 C   0  0  0  0  0  0  0  0  0  0  0  0
   40.1990   31.1370   44.9910 S   0  0  0  0  0  0  0  0  0  0  0  0
   40.0460   31.6550   42.3410 N   0  0  0  0  0  0  0  0  0  0  0  0
   39.2860   31.7780   43.5330 C   0  0  1  0  0  0  0  0  0  0  0  0
   38.0520   30.9230   43.4360 C   0  0  0  0  0  0  0  0  0  0  0  0
   38.4660   29.5510   43.2270 N   0  0  0  0  0  0  0  0  0  0  0  0
   39.0340   29.5390   41.8590 C   0  0  0  0  0  0  0  0  0  0  0  0
   40.3350   30.3160   41.9470 C   0  0  2  0  0  0  0  0  0  0  0  0
   41.2280   29.6140   42.8460 N   0  0  0  0  0  0  0  0  0  0  0  0
   39.8544   35.0101   48.0440 H   0  0  0  0  0  0  0  0  0  0  0  0
   40.6640   33.9467   45.9359 H   0  0  0  0  0  0  0  0  0  0  0  0
   38.9744   31.3312   51.0454 H   0  0  0  0  0  0  0  0  0  0  0  0
   37.7279   29.8134   52.4812 H   0  0  0  0  0  0  0  0  0  0  0  0
   35.7204   28.6234   51.6161 H   0  0  0  0  0  0  0  0  0  0  0  0
   34.2439   28.1927   49.8459 H   0  0  0  0  0  0  0  0  0  0  0  0
   33.4736   28.5361   47.4971 H   0  0  0  0  0  0  0  0  0  0  0  0
   34.8065   30.1245   46.0491 H   0  0  0  0  0  0  0  0  0  0  0  0
   36.7667   31.2574   46.9672 H   0  0  0  0  0  0  0  0  0  0  0  0
   39.5203   32.1061   41.5787 H   0  0  0  0  0  0  0  0  0  0  0  0
   39.0594   32.8480   43.6505 H   0  0  0  0  0  0  0  0  0  0  0  0
   37.4724   30.9990   44.3678 H   0  0  0  0  0  0  0  0  0  0  0  0
   37.4212   31.2605   42.6004 H   0  0  0  0  0  0  0  0  0  0  0  0
   39.1776   29.2760   43.9190 H   0  0  0  0  0  0  0  0  0  0  0  0
   38.3442   30.0248   41.1532 H   0  0  0  0  0  0  0  0  0  0  0  0
   39.1976   28.5134   41.4966 H   0  0  0  0  0  0  0  0  0  0  0  0
   40.8480   30.3820   40.9762 H   0  0  0  0  0  0  0  0  0  0  0  0
   40.9659   29.8201   43.8205 H   0  0  0  0  0  0  0  0  0  0  0  0
   41.1568   28.6002   42.6783 H   0  0  0  0  0  0  0  0  0  0  0  0
  1  6  2  0
  2  1  1  0
  3  2  2  0
  3  4  1  0
  4  5  2  0
  5  6  1  0
  5  7  1  0
  7  8  2  0
  8  9  1  0
 10  9  2  0
 11 10  1  0
 12 11  2  0
 13 12  1  0
 14 15  1  0
 14 13  2  0
 15 16  2  0
 16  7  1  0
 16 11  1  0
 17  3  1  0
 18 19  1  0
 19 17  1  0
 20 19  1  0
 21 20  1  0
 22 23  1  0
 22 21  1  0
 23 18  1  0
 23 24  1  0
  1 25  1  0
  2 26  1  0
  8 27  1  0
  9 28  1  0
 10 29  1  0
 12 30  1  0
 13 31  1  0
 14 32  1  0
 15 33  1  0
 18 34  1  0
 19 35  1  1
 20 36  1  0
 20 37  1  0
 21 38  1  0
 22 39  1  0
 22 40  1  0
 23 41  1  6
 24 42  1  0
 24 43  1  0
M  ISO  8  25  14  26  14  27  14  28  14  29  14  30  14  31  14  32  14
M  ISO  8  33  14  34   5  35  13  36  13  37  13  38   5  39  13  40  13
M  ISO  3  41  13  42   5  43   5
M  END
>  <minimizedAffinity>  (1) 
-7.69237185

>  <minimizedRMSD>  (1) 
3.54751658

$$$$
