
     RDKit          3D

 27 29  0  0  0  0  0  0  0  0999 V2000
   37.8000   30.6760   50.6690 C   0  0  0  0  0  0  0  0  0  0  0  0
   37.3460   30.6310   49.3220 C   0  0  0  0  0  0  0  0  0  0  0  0
   36.2040   29.8940   49.0800 C   0  0  0  0  0  0  0  0  0  0  0  0
   35.5900   29.2650   50.1130 N   0  0  0  0  0  0  0  0  0  0  0  0
   36.0410   29.3230   51.3720 C   0  0  0  0  0  0  0  0  0  0  0  0
   37.1440   30.0300   51.6450 N   0  0  0  0  0  0  0  0  0  0  0  0
   38.1280   31.3430   48.3390 C   0  0  0  0  0  0  0  0  0  0  0  0
   38.4430   30.6910   47.1780 C   0  0  0  0  0  0  0  0  0  0  0  0
   39.1950   31.2230   46.1480 C   0  0  0  0  0  0  0  0  0  0  0  0
   39.6790   32.5200   46.2790 C   0  0  0  0  0  0  0  0  0  0  0  0
   39.3660   33.1820   47.4420 C   0  0  0  0  0  0  0  0  0  0  0  0
   38.6170   32.6460   48.4640 C   0  0  0  0  0  0  0  0  0  0  0  0
   35.5720   29.7200   47.7550 C   0  0  0  0  0  0  0  0  0  0  0  0
   34.3790   28.8680   47.5500 C   0  0  0  0  0  0  0  0  0  0  0  0
   34.1950   30.3680   47.5680 C   0  0  0  0  0  0  0  0  0  0  0  0
   38.7051   31.2507   50.9151 H   0  0  0  0  0  0  0  0  0  0  0  0
   35.5090   28.7935   52.1761 H   0  0  0  0  0  0  0  0  0  0  0  0
   38.0687   29.6640   47.0551 H   0  0  0  0  0  0  0  0  0  0  0  0
   39.4062   30.6332   45.2439 H   0  0  0  0  0  0  0  0  0  0  0  0
   40.2828   32.9929   45.4905 H   0  0  0  0  0  0  0  0  0  0  0  0
   39.7394   34.2095   47.5639 H   0  0  0  0  0  0  0  0  0  0  0  0
   38.4057   33.2358   49.3682 H   0  0  0  0  0  0  0  0  0  0  0  0
   36.5563   29.7472   47.2647 H   0  0  0  0  0  0  0  0  0  0  0  0
   33.9927   28.2611   48.3822 H   0  0  0  0  0  0  0  0  0  0  0  0
   34.1178   28.0707   46.8386 H   0  0  0  0  0  0  0  0  0  0  0  0
   33.9577   30.9092   46.6402 H   0  0  0  0  0  0  0  0  0  0  0  0
   33.5752   31.0795   48.1333 H   0  0  0  0  0  0  0  0  0  0  0  0
  1  6  2  0
  2  1  1  0
  3  2  2  0
  3  4  1  0
  4  5  2  0
  5  6  1  0
  7 12  1  0
  7  2  1  0
  8  7  2  0
  9 10  2  0
  9  8  1  0
 10 11  1  0
 11 12  2  0
 13  3  1  0
 14 15  1  0
 14 13  1  0
 15 13  1  0
  1 16  1  0
  5 17  1  0
  8 18  1  0
  9 19  1  0
 10 20  1  0
 11 21  1  0
 12 22  1  0
 13 23  1  0
 14 24  1  0
 14 25  1  0
 15 26  1  0
 15 27  1  0
M  ISO  8  16  14  17  14  18  14  19  14  20  14  21  14  22  14  23  13
M  ISO  4  24  13  25  13  26  13  27  13
M  END
>  <minimizedAffinity>  (1) 
-5.49913883

>  <minimizedRMSD>  (1) 
1.31338942

$$$$
