
     RDKit          3D

 36 38  0  0  0  0  0  0  0  0999 V2000
   38.0330   30.5680   50.9220 C   0  0  0  0  0  0  0  0  0  0  0  0
   37.5260   31.0020   49.6600 C   0  0  0  0  0  0  0  0  0  0  0  0
   36.3550   30.3970   49.2070 C   0  0  0  0  0  0  0  0  0  0  0  0
   35.7550   29.4480   49.9520 N   0  0  0  0  0  0  0  0  0  0  0  0
   36.2570   29.0480   51.1540 C   0  0  0  0  0  0  0  0  0  0  0  0
   37.3790   29.6130   51.6140 N   0  0  0  0  0  0  0  0  0  0  0  0
   38.2960   32.0180   48.9750 C   0  0  0  0  0  0  0  0  0  0  0  0
   38.8020   31.6820   47.7460 C   0  0  0  0  0  0  0  0  0  0  0  0
   39.5610   32.5190   46.9450 C   0  0  0  0  0  0  0  0  0  0  0  0
   39.8350   33.8160   47.4310 C   0  0  0  0  0  0  0  0  0  0  0  0
   39.3180   34.1500   48.6850 C   0  0  0  0  0  0  0  0  0  0  0  0
   38.5650   33.2960   49.4580 C   0  0  0  0  0  0  0  0  0  0  0  0
   35.7660   30.8230   47.9170 C   0  0  0  0  0  0  0  0  0  0  0  0
   34.3060   30.4750   48.0050 C   0  0  0  0  0  0  0  0  0  0  0  0
   33.6190   30.3770   46.6780 C   0  0  0  0  0  0  0  0  0  0  0  0
   34.3430   29.3500   45.8350 C   0  0  0  0  0  0  0  0  0  0  0  0
   35.6980   29.9580   45.5550 C   0  0  0  0  0  0  0  0  0  0  0  0
   36.5040   30.1290   46.8140 C   0  0  0  0  0  0  0  0  0  0  0  0
   38.9541   31.0111   51.3286 H   0  0  0  0  0  0  0  0  0  0  0  0
   35.7456   28.2696   51.7393 H   0  0  0  0  0  0  0  0  0  0  0  0
   38.5891   30.6714   47.3675 H   0  0  0  0  0  0  0  0  0  0  0  0
   39.9365   32.1856   45.9663 H   0  0  0  0  0  0  0  0  0  0  0  0
   40.4304   34.5331   46.8469 H   0  0  0  0  0  0  0  0  0  0  0  0
   39.5252   35.1562   49.0783 H   0  0  0  0  0  0  0  0  0  0  0  0
   38.1830   33.6167   50.4384 H   0  0  0  0  0  0  0  0  0  0  0  0
   35.8542   31.8989   47.7054 H   0  0  0  0  0  0  0  0  0  0  0  0
   34.2124   29.5048   48.5148 H   0  0  0  0  0  0  0  0  0  0  0  0
   33.8178   31.2931   48.5549 H   0  0  0  0  0  0  0  0  0  0  0  0
   32.5738   30.0667   46.8237 H   0  0  0  0  0  0  0  0  0  0  0  0
   33.6331   31.3547   46.1741 H   0  0  0  0  0  0  0  0  0  0  0  0
   34.4502   28.4039   46.3859 H   0  0  0  0  0  0  0  0  0  0  0  0
   33.7963   29.1157   44.9097 H   0  0  0  0  0  0  0  0  0  0  0  0
   36.2483   29.2999   44.8664 H   0  0  0  0  0  0  0  0  0  0  0  0
   35.5418   30.9522   45.1110 H   0  0  0  0  0  0  0  0  0  0  0  0
   36.8041   29.1328   47.1712 H   0  0  0  0  0  0  0  0  0  0  0  0
   37.3658   30.7629   46.5580 H   0  0  0  0  0  0  0  0  0  0  0  0
  1  6  2  0
  2  1  1  0
  3  2  2  0
  3  4  1  0
  4  5  2  0
  5  6  1  0
  7 12  1  0
  7  2  1  0
  8  7  2  0
  9 10  2  0
  9  8  1  0
 10 11  1  0
 11 12  2  0
 13 14  1  0
 13  3  1  0
 15 14  1  0
 16 15  1  0
 17 16  1  0
 17 18  1  0
 18 13  1  0
  1 19  1  0
  5 20  1  0
  8 21  1  0
  9 22  1  0
 10 23  1  0
 11 24  1  0
 12 25  1  0
 13 26  1  0
 14 27  1  0
 14 28  1  0
 15 29  1  0
 15 30  1  0
 16 31  1  0
 16 32  1  0
 17 33  1  0
 17 34  1  0
 18 35  1  0
 18 36  1  0
M  ISO  8  19  14  20  14  21  14  22  14  23  14  24  14  25  14  26  13
M  ISO  8  27  13  28  13  29  13  30  13  31  13  32  13  33  13  34  13
M  ISO  2  35  13  36  13
M  END
>  <minimizedAffinity>  (1) 
-5.39336395

>  <minimizedRMSD>  (1) 
0.952718437

$$$$
