
     RDKit          3D

 25 26  0  0  0  0  0  0  0  0999 V2000
   38.2670   31.3060   48.0470 C   0  0  0  0  0  0  0  0  0  0  0  0
   38.7330   30.4800   47.0480 C   0  0  0  0  0  0  0  0  0  0  0  0
   39.5010   30.8970   45.9750 C   0  0  0  0  0  0  0  0  0  0  0  0
   39.8360   32.2770   45.8970 C   0  0  0  0  0  0  0  0  0  0  0  0
   39.3670   33.1070   46.9060 C   0  0  0  0  0  0  0  0  0  0  0  0
   38.6020   32.6660   47.9640 C   0  0  0  0  0  0  0  0  0  0  0  0
   38.0880   30.5770   50.3680 C   0  0  0  0  0  0  0  0  0  0  0  0
   37.4780   30.6990   49.0910 C   0  0  0  0  0  0  0  0  0  0  0  0
   36.1770   30.2280   48.9490 C   0  0  0  0  0  0  0  0  0  0  0  0
   35.5680   29.6810   50.0340 N   0  0  0  0  0  0  0  0  0  0  0  0
   36.1720   29.5740   51.2500 C   0  0  0  0  0  0  0  0  0  0  0  0
   37.4450   30.0290   51.4040 N   0  0  0  0  0  0  0  0  0  0  0  0
   35.4190   30.2910   47.6770 C   0  0  0  0  0  0  0  0  0  0  0  0
   34.1350   30.8290   47.9310 F   0  0  0  0  0  0  0  0  0  0  0  0
   35.9920   30.9890   46.6690 F   0  0  0  0  0  0  0  0  0  0  0  0
   35.1350   28.9990   47.2240 F   0  0  0  0  0  0  0  0  0  0  0  0
   38.1160   33.4940   48.9980 N   0  0  0  0  0  0  0  0  0  0  0  0
   38.4762   29.4121   47.1074 H   0  0  0  0  0  0  0  0  0  0  0  0
   39.8409   30.1852   45.2083 H   0  0  0  0  0  0  0  0  0  0  0  0
   40.4433   32.6714   45.0690 H   0  0  0  0  0  0  0  0  0  0  0  0
   39.6201   34.1764   46.8584 H   0  0  0  0  0  0  0  0  0  0  0  0
   39.1159   30.9428   50.5080 H   0  0  0  0  0  0  0  0  0  0  0  0
   35.6361   29.1243   52.0989 H   0  0  0  0  0  0  0  0  0  0  0  0
   37.5489   33.0906   49.7573 H   0  0  0  0  0  0  0  0  0  0  0  0
   38.3283   34.5019   48.9935 H   0  0  0  0  0  0  0  0  0  0  0  0
  1  8  1  0
  2  1  2  0
  3  2  1  0
  4  3  2  0
  4  5  1  0
  5  6  2  0
  6  1  1  0
  6 17  1  0
  7 12  2  0
  8  7  1  0
  9  8  2  0
  9 10  1  0
 10 11  2  0
 11 12  1  0
 13 14  1  0
 13  9  1  0
 15 13  1  0
 16 13  1  0
  2 18  1  0
  3 19  1  0
  4 20  1  0
  5 21  1  0
  7 22  1  0
 11 23  1  0
 17 24  1  0
 17 25  1  0
M  ISO  6  18  14  19  14  20  14  21  14  22  14  23  14
M  END
>  <minimizedAffinity>  (1) 
-5.62474871

>  <minimizedRMSD>  (1) 
0.460341066

$$$$
