
     RDKit          3D

 24 25  0  0  0  0  0  0  0  0999 V2000
   37.9680   30.4960   50.5320 C   0  0  0  0  0  0  0  0  0  0  0  0
   37.3590   30.6360   49.2480 C   0  0  0  0  0  0  0  0  0  0  0  0
   36.0720   30.1480   49.0780 C   0  0  0  0  0  0  0  0  0  0  0  0
   35.4600   29.5600   50.1460 N   0  0  0  0  0  0  0  0  0  0  0  0
   36.0720   29.4400   51.3690 C   0  0  0  0  0  0  0  0  0  0  0  0
   37.3390   29.9150   51.5540 N   0  0  0  0  0  0  0  0  0  0  0  0
   38.1480   31.2850   48.2240 C   0  0  0  0  0  0  0  0  0  0  0  0
   38.6180   30.5090   47.2020 C   0  0  0  0  0  0  0  0  0  0  0  0
   39.3860   30.9650   46.1450 C   0  0  0  0  0  0  0  0  0  0  0  0
   39.7150   32.3360   46.1090 C   0  0  0  0  0  0  0  0  0  0  0  0
   39.2390   33.1370   47.1520 C   0  0  0  0  0  0  0  0  0  0  0  0
   38.4780   32.6460   48.1840 C   0  0  0  0  0  0  0  0  0  0  0  0
   38.0000   33.4260   49.2200 O   0  0  0  0  0  0  0  0  0  0  0  0
   35.3290   30.2270   47.8120 C   0  0  0  0  0  0  0  0  0  0  0  0
   34.0410   30.7660   48.0490 F   0  0  0  0  0  0  0  0  0  0  0  0
   35.9040   30.9410   46.8130 F   0  0  0  0  0  0  0  0  0  0  0  0
   35.0400   28.9440   47.3470 F   0  0  0  0  0  0  0  0  0  0  0  0
   38.9879   30.8795   50.6826 H   0  0  0  0  0  0  0  0  0  0  0  0
   35.5398   28.9594   52.2032 H   0  0  0  0  0  0  0  0  0  0  0  0
   38.3662   29.4384   47.2211 H   0  0  0  0  0  0  0  0  0  0  0  0
   39.7295   30.2790   45.3567 H   0  0  0  0  0  0  0  0  0  0  0  0
   40.3212   32.7580   45.2939 H   0  0  0  0  0  0  0  0  0  0  0  0
   39.4855   34.2090   47.1452 H   0  0  0  0  0  0  0  0  0  0  0  0
   37.4553   33.0159   49.9378 H   0  0  0  0  0  0  0  0  0  0  0  0
  1  6  2  0
  2  1  1  0
  3  2  2  0
  3  4  1  0
  4  5  2  0
  5  6  1  0
  7  2  1  0
  8  7  2  0
  9  8  1  0
 10  9  2  0
 10 11  1  0
 11 12  2  0
 12  7  1  0
 12 13  1  0
 14 15  1  0
 14  3  1  0
 16 14  1  0
 17 14  1  0
  1 18  1  0
  5 19  1  0
  8 20  1  0
  9 21  1  0
 10 22  1  0
 11 23  1  0
 13 24  1  0
M  ISO  7  18  14  19  14  20  14  21  14  22  14  23  14  24   3
M  END
>  <minimizedAffinity>  (1) 
-5.6115551

>  <minimizedRMSD>  (1) 
0.266276121

$$$$
