
     RDKit          3D

 33 35  0  0  0  0  0  0  0  0999 V2000
   37.1110   30.6410   46.8850 C   0  0  0  0  0  0  0  0  0  0  0  0
   36.5440   29.8670   45.9130 C   0  0  0  0  0  0  0  0  0  0  0  0
   36.5730   30.1480   44.5610 C   0  0  0  0  0  0  0  0  0  0  0  0
   37.2310   31.3160   44.1330 C   0  0  0  0  0  0  0  0  0  0  0  0
   37.8170   32.1200   45.1270 C   0  0  0  0  0  0  0  0  0  0  0  0
   37.7620   31.7960   46.4640 C   0  0  0  0  0  0  0  0  0  0  0  0
   40.3560   32.9640   46.2440 F   0  0  0  0  0  0  0  0  0  0  0  0
   39.6340   33.2100   47.3650 C   0  0  0  0  0  0  0  0  0  0  0  0
   38.3680   32.6370   47.4730 C   0  0  0  0  0  0  0  0  0  0  0  0
   37.6060   32.8610   48.5970 C   0  0  0  0  0  0  0  0  0  0  0  0
   38.0620   33.6530   49.6450 C   0  0  0  0  0  0  0  0  0  0  0  0
   39.3350   34.2160   49.5120 C   0  0  0  0  0  0  0  0  0  0  0  0
   40.0990   34.0000   48.4010 C   0  0  0  0  0  0  0  0  0  0  0  0
   38.1790   30.1920   49.0370 C   0  0  0  0  0  0  0  0  0  0  0  0
   36.9870   30.1940   48.2470 C   0  0  0  0  0  0  0  0  0  0  0  0
   35.8140   29.7600   48.8690 C   0  0  0  0  0  0  0  0  0  0  0  0
   35.8660   29.3640   50.1690 N   0  0  0  0  0  0  0  0  0  0  0  0
   37.0140   29.3730   50.8920 C   0  0  0  0  0  0  0  0  0  0  0  0
   38.1790   29.7920   50.3140 N   0  0  0  0  0  0  0  0  0  0  0  0
   34.5040   29.7150   48.1630 C   0  0  0  0  0  0  0  0  0  0  0  0
   33.5010   29.3280   49.0840 F   0  0  0  0  0  0  0  0  0  0  0  0
   34.1040   30.8460   47.5430 F   0  0  0  0  0  0  0  0  0  0  0  0
   34.5080   28.6620   47.2410 F   0  0  0  0  0  0  0  0  0  0  0  0
   36.0251   28.9507   46.2309 H   0  0  0  0  0  0  0  0  0  0  0  0
   36.0930   29.4745   43.8357 H   0  0  0  0  0  0  0  0  0  0  0  0
   37.2846   31.5880   43.0685 H   0  0  0  0  0  0  0  0  0  0  0  0
   38.3379   33.0407   44.8255 H   0  0  0  0  0  0  0  0  0  0  0  0
   36.6093   32.4011   48.6682 H   0  0  0  0  0  0  0  0  0  0  0  0
   37.4476   33.8291   50.5403 H   0  0  0  0  0  0  0  0  0  0  0  0
   39.7302   34.8476   50.3212 H   0  0  0  0  0  0  0  0  0  0  0  0
   41.0958   34.4595   48.3290 H   0  0  0  0  0  0  0  0  0  0  0  0
   39.1223   30.5287   48.5822 H   0  0  0  0  0  0  0  0  0  0  0  0
   37.0069   29.0436   51.9415 H   0  0  0  0  0  0  0  0  0  0  0  0
  1 15  1  0
  2  1  2  0
  3  2  1  0
  4  3  2  0
  4  5  1  0
  5  6  2  0
  6  1  1  0
  6  9  1  0
  7  8  1  0
  8  9  2  0
  8 13  1  0
  9 10  1  0
 10 11  2  0
 12 11  1  0
 13 12  2  0
 14 19  2  0
 15 16  2  0
 15 14  1  0
 16 17  1  0
 17 18  2  0
 19 18  1  0
 20 16  1  0
 20 21  1  0
 22 20  1  0
 23 20  1  0
  2 24  1  0
  3 25  1  0
  4 26  1  0
  5 27  1  0
 10 28  1  0
 11 29  1  0
 12 30  1  0
 13 31  1  0
 14 32  1  0
 18 33  1  0
M  ISO  8  24  14  25  14  26  14  27  14  28  14  29  14  30  14  31  14
M  ISO  2  32  14  33  14
M  END
>  <minimizedAffinity>  (1) 
-5.11636305

>  <minimizedRMSD>  (1) 
2.45380068

$$$$
