
     RDKit          3D

 36 38  0  0  0  0  0  0  0  0999 V2000
   36.9290   30.5420   46.9110 C   0  0  0  0  0  0  0  0  0  0  0  0
   36.2910   29.7350   46.0060 C   0  0  0  0  0  0  0  0  0  0  0  0
   36.2180   29.9550   44.6500 C   0  0  0  0  0  0  0  0  0  0  0  0
   36.8540   31.1160   44.1390 C   0  0  0  0  0  0  0  0  0  0  0  0
   37.5020   31.9350   45.0520 C   0  0  0  0  0  0  0  0  0  0  0  0
   37.5550   31.6820   46.4000 C   0  0  0  0  0  0  0  0  0  0  0  0
   38.1400   30.1500   48.9920 C   0  0  0  0  0  0  0  0  0  0  0  0
   36.8980   30.1430   48.2980 C   0  0  0  0  0  0  0  0  0  0  0  0
   35.7660   29.7550   49.0090 C   0  0  0  0  0  0  0  0  0  0  0  0
   35.9080   29.4090   50.3110 N   0  0  0  0  0  0  0  0  0  0  0  0
   37.1030   29.4220   50.9550 C   0  0  0  0  0  0  0  0  0  0  0  0
   38.2290   29.7980   50.2820 N   0  0  0  0  0  0  0  0  0  0  0  0
   34.4180   29.7020   48.4150 C   0  0  0  0  0  0  0  0  0  0  0  0
   33.4680   29.4130   49.4170 F   0  0  0  0  0  0  0  0  0  0  0  0
   33.9990   30.8130   47.7570 F   0  0  0  0  0  0  0  0  0  0  0  0
   34.3100   28.5990   47.5630 F   0  0  0  0  0  0  0  0  0  0  0  0
   39.5250   32.9890   47.1820 C   0  0  0  0  0  0  0  0  0  0  0  0
   38.2290   32.5350   47.3650 C   0  0  0  0  0  0  0  0  0  0  0  0
   37.6100   32.9410   48.5290 C   0  0  0  0  0  0  0  0  0  0  0  0
   38.1640   33.7470   49.5050 C   0  0  0  0  0  0  0  0  0  0  0  0
   39.4610   34.1910   49.3040 C   0  0  0  0  0  0  0  0  0  0  0  0
   40.1320   33.8050   48.1380 C   0  0  0  0  0  0  0  0  0  0  0  0
   40.4120   32.5490   45.7610 S   0  0  0  0  0  0  0  0  0  0  0  0
   39.9510   33.2180   44.5170 O   0  0  0  0  0  0  0  0  0  0  0  0
   40.4850   31.0630   45.5530 O   0  0  0  0  0  0  0  0  0  0  0  0
   35.7949   28.8345   46.3970 H   0  0  0  0  0  0  0  0  0  0  0  0
   35.6864   29.2569   43.9866 H   0  0  0  0  0  0  0  0  0  0  0  0
   36.8340   31.3561   43.0657 H   0  0  0  0  0  0  0  0  0  0  0  0
   38.0020   32.8390   44.6740 H   0  0  0  0  0  0  0  0  0  0  0  0
   39.0514   30.4524   48.4554 H   0  0  0  0  0  0  0  0  0  0  0  0
   37.1633   29.1309   52.0141 H   0  0  0  0  0  0  0  0  0  0  0  0
   36.5806   32.5909   48.6955 H   0  0  0  0  0  0  0  0  0  0  0  0
   37.5977   34.0252   50.4060 H   0  0  0  0  0  0  0  0  0  0  0  0
   39.9542   34.8349   50.0471 H   0  0  0  0  0  0  0  0  0  0  0  0
   41.1621   34.1529   47.9710 H   0  0  0  0  0  0  0  0  0  0  0  0
   41.6755   33.0141   46.0145 H   0  0  0  0  0  0  0  0  0  0  0  0
  1  8  1  0
  2  1  2  0
  3  2  1  0
  4  3  2  0
  4  5  1  0
  5  6  2  0
  6  1  1  0
  6 18  1  0
  7 12  2  0
  8  7  1  0
  8  9  2  0
  9 10  1  0
 10 11  2  0
 12 11  1  0
 13  9  1  0
 13 14  1  0
 15 13  1  0
 16 13  1  0
 17 18  2  0
 17 22  1  0
 18 19  1  0
 19 20  2  0
 21 20  1  0
 22 21  2  0
 23 17  1  0
 24 23  2  0
 25 23  2  0
  2 26  1  0
  3 27  1  0
  4 28  1  0
  5 29  1  0
  7 30  1  0
 11 31  1  0
 19 32  1  0
 20 33  1  0
 21 34  1  0
 22 35  1  0
 23 36  1  0
M  ISO  8  26  14  27  14  28  14  29  14  30  14  31  14  32  14  33  14
M  ISO  3  34  14  35  14  36  11
M  END
>  <minimizedAffinity>  (1) 
-4.99377966

>  <minimizedRMSD>  (1) 
2.86845493

$$$$
