
     RDKit          3D

 27 28  0  0  0  0  0  0  0  0999 V2000
   38.1410   30.8830   47.6020 C   0  0  0  0  0  0  0  0  0  0  0  0
   38.3870   30.0410   46.5550 C   0  0  0  0  0  0  0  0  0  0  0  0
   39.1020   30.3630   45.4130 C   0  0  0  0  0  0  0  0  0  0  0  0
   39.6250   31.6660   45.3080 C   0  0  0  0  0  0  0  0  0  0  0  0
   39.3860   32.5270   46.3570 C   0  0  0  0  0  0  0  0  0  0  0  0
   38.6680   32.1720   47.4840 C   0  0  0  0  0  0  0  0  0  0  0  0
   38.0790   30.1980   49.9270 C   0  0  0  0  0  0  0  0  0  0  0  0
   37.3820   30.3740   48.7010 C   0  0  0  0  0  0  0  0  0  0  0  0
   36.0280   30.0420   48.6640 C   0  0  0  0  0  0  0  0  0  0  0  0
   35.4360   29.5650   49.8000 N   0  0  0  0  0  0  0  0  0  0  0  0
   36.1360   29.4070   50.9660 C   0  0  0  0  0  0  0  0  0  0  0  0
   37.4490   29.7230   51.0230 N   0  0  0  0  0  0  0  0  0  0  0  0
   35.1850   30.1770   47.4520 C   0  0  0  0  0  0  0  0  0  0  0  0
   33.9430   30.7230   47.8010 F   0  0  0  0  0  0  0  0  0  0  0  0
   35.7060   30.8970   46.4350 F   0  0  0  0  0  0  0  0  0  0  0  0
   34.8480   28.9020   46.9820 F   0  0  0  0  0  0  0  0  0  0  0  0
   38.3480   33.2690   48.8510 S   0  0  0  0  0  0  0  0  0  0  0  0
   39.6430   34.4650   49.1490 C   0  0  0  0  0  0  0  0  0  0  0  0
   40.0840   34.2580   50.4630 F   0  0  0  0  0  0  0  0  0  0  0  0
   39.0960   35.7330   49.1280 F   0  0  0  0  0  0  0  0  0  0  0  0
   40.7210   34.3210   48.3020 F   0  0  0  0  0  0  0  0  0  0  0  0
   37.9829   29.0203   46.6245 H   0  0  0  0  0  0  0  0  0  0  0  0
   39.2563   29.6238   44.6132 H   0  0  0  0  0  0  0  0  0  0  0  0
   40.2002   31.9833   44.4257 H   0  0  0  0  0  0  0  0  0  0  0  0
   39.7871   33.5494   46.2945 H   0  0  0  0  0  0  0  0  0  0  0  0
   39.1476   30.4525   49.9840 H   0  0  0  0  0  0  0  0  0  0  0  0
   35.6270   29.0207   51.8614 H   0  0  0  0  0  0  0  0  0  0  0  0
  1  8  1  0
  2  1  2  0
  3  2  1  0
  4  3  2  0
  4  5  1  0
  5  6  2  0
  6  1  1  0
  6 17  1  0
  7 12  2  0
  8  7  1  0
  9  8  2  0
  9 10  1  0
 10 11  2  0
 11 12  1  0
 13 14  1  0
 13  9  1  0
 15 13  1  0
 16 13  1  0
 17 18  1  0
 18 19  1  0
 20 18  1  0
 21 18  1  0
  2 22  1  0
  3 23  1  0
  4 24  1  0
  5 25  1  0
  7 26  1  0
 11 27  1  0
M  ISO  6  22  14  23  14  24  14  25  14  26  14  27  14
M  END
>  <minimizedAffinity>  (1) 
-5.50292206

>  <minimizedRMSD>  (1) 
1.65268052

$$$$
