
     RDKit          3D

 41 44  0  0  0  0  0  0  0  0999 V2000
   31.6130   26.4160   47.7160 C   0  0  0  0  0  0  0  0  0  0  0  0
   31.6530   25.0460   47.9010 C   0  0  0  0  0  0  0  0  0  0  0  0
   32.6990   24.2250   47.4860 C   0  0  0  0  0  0  0  0  0  0  0  0
   33.7950   24.8290   46.8320 C   0  0  0  0  0  0  0  0  0  0  0  0
   33.7350   26.1960   46.6570 C   0  0  0  0  0  0  0  0  0  0  0  0
   32.7050   26.9870   47.0690 C   0  0  0  0  0  0  0  0  0  0  0  0
   30.5320   27.6360   49.5010 C   0  0  0  0  0  0  0  0  0  0  0  0
   30.4480   27.0980   48.2070 C   0  0  0  0  0  0  0  0  0  0  0  0
   29.2490   27.2640   47.4980 C   0  0  0  0  0  0  0  0  0  0  0  0
   28.2270   27.9330   48.0900 N   0  0  0  0  0  0  0  0  0  0  0  0
   28.3340   28.4470   49.3500 C   0  0  0  0  0  0  0  0  0  0  0  0
   29.4880   28.2960   50.0500 N   0  0  0  0  0  0  0  0  0  0  0  0
   29.0160   26.7460   46.1230 C   0  0  0  0  0  0  0  0  0  0  0  0
   27.7700   27.2080   45.6540 F   0  0  0  0  0  0  0  0  0  0  0  0
   29.9570   27.0500   45.2080 F   0  0  0  0  0  0  0  0  0  0  0  0
   28.8560   25.3610   46.1640 F   0  0  0  0  0  0  0  0  0  0  0  0
   32.6500   28.7250   46.8410 S   0  0  0  0  0  0  0  0  0  0  0  0
   34.3100   29.0410   49.4530 Cl  0  0  0  0  0  0  0  0  0  0  0  0
   34.9460   29.5830   47.9200 C   0  0  0  0  0  0  0  0  0  0  0  0
   34.2480   29.4800   46.7200 C   0  0  0  0  0  0  0  0  0  0  0  0
   34.7920   29.9290   45.5540 C   0  0  0  0  0  0  0  0  0  0  0  0
   36.0530   30.4890   45.5790 C   0  0  0  0  0  0  0  0  0  0  0  0
   36.7650   30.5990   46.7730 C   0  0  0  0  0  0  0  0  0  0  0  0
   36.2190   30.1470   47.9640 C   0  0  0  0  0  0  0  0  0  0  0  0
   36.9520   30.2570   49.2220 C   0  0  0  0  0  0  0  0  0  0  0  0
   36.3990   30.0160   50.4610 C   0  0  0  0  0  0  0  0  0  0  0  0
   37.4010   30.2230   51.4050 C   0  0  0  0  0  0  0  0  0  0  0  0
   38.5190   30.5790   50.7190 N   0  0  0  0  0  0  0  0  0  0  0  0
   38.2340   30.5960   49.4090 N   0  0  0  0  0  0  0  0  0  0  0  0
   30.8009   24.5725   48.4105 H   0  0  0  0  0  0  0  0  0  0  0  0
   32.6720   23.1396   47.6623 H   0  0  0  0  0  0  0  0  0  0  0  0
   34.6538   24.2389   46.4796 H   0  0  0  0  0  0  0  0  0  0  0  0
   34.5800   26.6827   46.1479 H   0  0  0  0  0  0  0  0  0  0  0  0
   31.4618   27.5186   50.0770 H   0  0  0  0  0  0  0  0  0  0  0  0
   27.4851   28.9838   49.7986 H   0  0  0  0  0  0  0  0  0  0  0  0
   34.2353   29.8464   44.6088 H   0  0  0  0  0  0  0  0  0  0  0  0
   36.5029   30.8538   44.6438 H   0  0  0  0  0  0  0  0  0  0  0  0
   37.7689   31.0485   46.7695 H   0  0  0  0  0  0  0  0  0  0  0  0
   35.3606   29.7163   50.6657 H   0  0  0  0  0  0  0  0  0  0  0  0
   37.3062   30.1186   52.4959 H   0  0  0  0  0  0  0  0  0  0  0  0
   39.4344   30.7994   51.1367 H   0  0  0  0  0  0  0  0  0  0  0  0
  1  2  2  0
  1  8  1  0
  3  2  1  0
  4  3  2  0
  5  4  1  0
  5  6  2  0
  6  1  1  0
  7 12  2  0
  8  7  1  0
  9 10  1  0
  9  8  2  0
 10 11  2  0
 11 12  1  0
 13 16  1  0
 13  9  1  0
 14 13  1  0
 15 13  1  0
 17  6  1  0
 19 24  2  0
 19 18  1  0
 20 17  1  0
 20 19  1  0
 21 22  1  0
 21 20  2  0
 22 23  2  0
 23 24  1  0
 24 25  1  0
 25 29  2  0
 25 26  1  0
 26 27  2  0
 28 27  1  0
 29 28  1  0
  2 30  1  0
  3 31  1  0
  4 32  1  0
  5 33  1  0
  7 34  1  0
 11 35  1  0
 21 36  1  0
 22 37  1  0
 23 38  1  0
 26 39  1  0
 27 40  1  0
 28 41  1  0
M  ISO  8  30  14  31  14  32  14  33  14  34  14  35  14  36  14  37  14
M  ISO  4  38  14  39  14  40  14  41   9
M  END
>  <minimizedAffinity>  (1) 
-6.40074062

>  <minimizedRMSD>  (1) 
3.94763684

$$$$
