
     RDKit          3D

 41 44  0  0  0  0  0  0  0  0999 V2000
   31.4290   26.7980   47.0540 C   0  0  0  0  0  0  0  0  0  0  0  0
   31.3000   25.4290   46.9510 C   0  0  0  0  0  0  0  0  0  0  0  0
   32.1710   24.6100   46.2310 C   0  0  0  0  0  0  0  0  0  0  0  0
   33.2550   25.2220   45.5640 C   0  0  0  0  0  0  0  0  0  0  0  0
   33.3620   26.5910   45.6840 C   0  0  0  0  0  0  0  0  0  0  0  0
   32.5040   27.3790   46.3900 C   0  0  0  0  0  0  0  0  0  0  0  0
   30.6870   27.5930   49.2170 C   0  0  0  0  0  0  0  0  0  0  0  0
   30.4330   27.4820   47.8400 C   0  0  0  0  0  0  0  0  0  0  0  0
   29.2460   28.0330   47.3390 C   0  0  0  0  0  0  0  0  0  0  0  0
   28.3950   28.6500   48.2020 N   0  0  0  0  0  0  0  0  0  0  0  0
   28.6660   28.7440   49.5370 C   0  0  0  0  0  0  0  0  0  0  0  0
   29.8110   28.2160   50.0390 N   0  0  0  0  0  0  0  0  0  0  0  0
   28.8480   27.9870   45.9090 C   0  0  0  0  0  0  0  0  0  0  0  0
   27.6190   28.6550   45.7430 F   0  0  0  0  0  0  0  0  0  0  0  0
   29.7340   28.4930   45.0280 F   0  0  0  0  0  0  0  0  0  0  0  0
   28.5560   26.6720   45.5420 F   0  0  0  0  0  0  0  0  0  0  0  0
   32.6610   29.1210   46.5310 S   0  0  0  0  0  0  0  0  0  0  0  0
   34.1020   29.0910   49.2870 Cl  0  0  0  0  0  0  0  0  0  0  0  0
   34.9320   29.6390   47.8430 C   0  0  0  0  0  0  0  0  0  0  0  0
   34.3420   29.6800   46.5890 C   0  0  0  0  0  0  0  0  0  0  0  0
   35.0460   30.1180   45.5070 C   0  0  0  0  0  0  0  0  0  0  0  0
   36.3490   30.5150   45.6680 C   0  0  0  0  0  0  0  0  0  0  0  0
   36.9530   30.4800   46.9220 C   0  0  0  0  0  0  0  0  0  0  0  0
   36.2550   30.0410   48.0320 C   0  0  0  0  0  0  0  0  0  0  0  0
   36.8760   30.0000   49.3540 C   0  0  0  0  0  0  0  0  0  0  0  0
   37.6960   30.9900   49.8500 C   0  0  0  0  0  0  0  0  0  0  0  0
   38.0690   30.5930   51.0890 N   0  0  0  0  0  0  0  0  0  0  0  0
   37.5040   29.3860   51.3790 C   0  0  0  0  0  0  0  0  0  0  0  0
   36.7690   29.0390   50.2880 N   0  0  0  0  0  0  0  0  0  0  0  0
   30.4558   24.9514   47.4700 H   0  0  0  0  0  0  0  0  0  0  0  0
   32.0179   23.5217   46.1845 H   0  0  0  0  0  0  0  0  0  0  0  0
   33.9779   24.6355   44.9780 H   0  0  0  0  0  0  0  0  0  0  0  0
   34.2019   27.0833   45.1720 H   0  0  0  0  0  0  0  0  0  0  0  0
   31.6118   27.1671   49.6334 H   0  0  0  0  0  0  0  0  0  0  0  0
   27.9546   29.2489   50.2071 H   0  0  0  0  0  0  0  0  0  0  0  0
   34.5736   30.1527   44.5142 H   0  0  0  0  0  0  0  0  0  0  0  0
   36.9229   30.8647   44.7972 H   0  0  0  0  0  0  0  0  0  0  0  0
   37.9981   30.8055   47.0310 H   0  0  0  0  0  0  0  0  0  0  0  0
   37.9895   31.9193   49.3398 H   0  0  0  0  0  0  0  0  0  0  0  0
   38.6875   31.1234   51.7191 H   0  0  0  0  0  0  0  0  0  0  0  0
   37.6194   28.8090   52.3084 H   0  0  0  0  0  0  0  0  0  0  0  0
  1  8  1  0
  2  1  2  0
  3  2  1  0
  4  5  1  0
  4  3  2  0
  5  6  2  0
  6 17  1  0
  6  1  1  0
  7 12  2  0
  8  7  1  0
  9  8  2  0
  9 10  1  0
 10 11  2  0
 11 12  1  0
 13  9  1  0
 14 13  1  0
 15 13  1  0
 16 13  1  0
 17 20  1  0
 19 24  2  0
 19 18  1  0
 20 19  1  0
 21 22  1  0
 21 20  2  0
 22 23  2  0
 23 24  1  0
 24 25  1  0
 25 26  2  0
 25 29  1  0
 26 27  1  0
 27 28  1  0
 29 28  2  0
  2 30  1  0
  3 31  1  0
  4 32  1  0
  5 33  1  0
  7 34  1  0
 11 35  1  0
 21 36  1  0
 22 37  1  0
 23 38  1  0
 26 39  1  0
 27 40  1  0
 28 41  1  0
M  ISO  8  30  14  31  14  32  14  33  14  34  14  35  14  36  14  37  14
M  ISO  4  38  14  39  14  40   9  41  14
M  END
>  <minimizedAffinity>  (1) 
-5.78426218

>  <minimizedRMSD>  (1) 
3.57283521

$$$$
