
     RDKit          3D

 46 49  0  0  0  0  0  0  0  0999 V2000
   30.8650   26.7910   46.8020 C   0  0  0  0  0  0  0  0  0  0  0  0
   30.6990   25.4250   46.6460 C   0  0  0  0  0  0  0  0  0  0  0  0
   31.4060   24.6460   45.7270 C   0  0  0  0  0  0  0  0  0  0  0  0
   32.3520   25.2930   44.9010 C   0  0  0  0  0  0  0  0  0  0  0  0
   32.5000   26.6510   45.0730 C   0  0  0  0  0  0  0  0  0  0  0  0
   31.8040   27.4010   45.9740 C   0  0  0  0  0  0  0  0  0  0  0  0
   30.5790   27.5030   49.0940 C   0  0  0  0  0  0  0  0  0  0  0  0
   30.0500   27.4280   47.7970 C   0  0  0  0  0  0  0  0  0  0  0  0
   28.7790   27.9740   47.5690 C   0  0  0  0  0  0  0  0  0  0  0  0
   28.1200   28.5480   48.6110 N   0  0  0  0  0  0  0  0  0  0  0  0
   28.6570   28.6070   49.8640 C   0  0  0  0  0  0  0  0  0  0  0  0
   29.8890   28.0820   50.1000 N   0  0  0  0  0  0  0  0  0  0  0  0
   28.0930   27.9670   46.2520 C   0  0  0  0  0  0  0  0  0  0  0  0
   26.8390   28.6000   46.3730 F   0  0  0  0  0  0  0  0  0  0  0  0
   28.7630   28.5380   45.2320 F   0  0  0  0  0  0  0  0  0  0  0  0
   27.7640   26.6580   45.8980 F   0  0  0  0  0  0  0  0  0  0  0  0
   32.0150   29.1300   46.1800 S   0  0  0  0  0  0  0  0  0  0  0  0
   33.6130   29.3260   48.8400 Cl  0  0  0  0  0  0  0  0  0  0  0  0
   34.3700   29.7200   47.3120 C   0  0  0  0  0  0  0  0  0  0  0  0
   33.7030   29.6610   46.0960 C   0  0  0  0  0  0  0  0  0  0  0  0
   34.3480   29.9850   44.9380 C   0  0  0  0  0  0  0  0  0  0  0  0
   35.6680   30.3670   44.9860 C   0  0  0  0  0  0  0  0  0  0  0  0
   36.3480   30.4280   46.2050 C   0  0  0  0  0  0  0  0  0  0  0  0
   35.7070   30.1050   47.3840 C   0  0  0  0  0  0  0  0  0  0  0  0
   36.4000   30.1710   48.6280 N   0  0  0  0  0  0  0  0  0  0  0  0
   36.7190   29.1130   49.5670 C   0  0  0  0  0  0  0  0  0  0  0  0
   37.7010   29.7670   50.5140 C   0  0  0  0  0  0  0  0  0  0  0  0
   37.1430   31.1760   50.6120 C   0  0  0  0  0  0  0  0  0  0  0  0
   36.9130   31.4540   49.1310 C   0  0  0  0  0  0  0  0  0  0  0  0
   29.9620   24.9203   47.2879 H   0  0  0  0  0  0  0  0  0  0  0  0
   31.2316   23.5627   45.6489 H   0  0  0  0  0  0  0  0  0  0  0  0
   32.9419   24.7385   44.1563 H   0  0  0  0  0  0  0  0  0  0  0  0
   33.2333   27.1686   44.4371 H   0  0  0  0  0  0  0  0  0  0  0  0
   31.5751   27.0820   49.2955 H   0  0  0  0  0  0  0  0  0  0  0  0
   28.0937   29.0789   50.6826 H   0  0  0  0  0  0  0  0  0  0  0  0
   33.8172   29.9410   43.9756 H   0  0  0  0  0  0  0  0  0  0  0  0
   36.1938   30.6271   44.0555 H   0  0  0  0  0  0  0  0  0  0  0  0
   37.4037   30.7362   46.2253 H   0  0  0  0  0  0  0  0  0  0  0  0
   35.8187   28.7783   50.1032 H   0  0  0  0  0  0  0  0  0  0  0  0
   37.1265   28.2152   49.0793 H   0  0  0  0  0  0  0  0  0  0  0  0
   37.7052   29.2684   51.4945 H   0  0  0  0  0  0  0  0  0  0  0  0
   38.7461   29.7234   50.1735 H   0  0  0  0  0  0  0  0  0  0  0  0
   36.2056   31.2079   51.1867 H   0  0  0  0  0  0  0  0  0  0  0  0
   37.7863   31.9011   51.1319 H   0  0  0  0  0  0  0  0  0  0  0  0
   37.8531   31.7275   48.6297 H   0  0  0  0  0  0  0  0  0  0  0  0
   36.2278   32.2952   48.9497 H   0  0  0  0  0  0  0  0  0  0  0  0
  1  8  1  0
  2  1  2  0
  3  2  1  0
  4  5  1  0
  4  3  2  0
  5  6  2  0
  6 17  1  0
  6  1  1  0
  7 12  2  0
  8  7  1  0
  9  8  2  0
  9 10  1  0
 10 11  2  0
 11 12  1  0
 13 14  1  0
 13  9  1  0
 15 13  1  0
 16 13  1  0
 19 24  2  0
 19 18  1  0
 20 17  1  0
 20 19  1  0
 21 22  1  0
 21 20  2  0
 22 23  2  0
 23 24  1  0
 24 25  1  0
 25 29  1  0
 25 26  1  0
 26 27  1  0
 27 28  1  0
 29 28  1  0
  2 30  1  0
  3 31  1  0
  4 32  1  0
  5 33  1  0
  7 34  1  0
 11 35  1  0
 21 36  1  0
 22 37  1  0
 23 38  1  0
 26 39  1  0
 26 40  1  0
 27 41  1  0
 27 42  1  0
 28 43  1  0
 28 44  1  0
 29 45  1  0
 29 46  1  0
M  ISO  8  30  14  31  14  32  14  33  14  34  14  35  14  36  14  37  14
M  ISO  8  38  14  39  13  40  13  41  13  42  13  43  13  44  13  45  13
M  ISO  1  46  13
M  END
>  <minimizedAffinity>  (1) 
-5.3807025

>  <minimizedRMSD>  (1) 
4.11121464

$$$$
