
     RDKit          3D

 35 37  0  0  1  0  0  0  0  0999 V2000
   39.7680   33.1360   45.5330 N   0  0  0  0  0  0  0  0  0  0  0  0
   38.5100   32.5280   45.7790 C   0  0  1  0  0  0  0  0  0  0  0  0
   37.8660   32.1300   44.4820 C   0  0  0  0  0  0  0  0  0  0  0  0
   38.7780   31.1990   43.8150 N   0  0  0  0  0  0  0  0  0  0  0  0
   39.9370   32.0040   43.4160 C   0  0  0  0  0  0  0  0  0  0  0  0
   40.6530   32.3510   44.7120 C   0  0  2  0  0  0  0  0  0  0  0  0
   41.1060   31.1410   45.3400 N   0  0  0  0  0  0  0  0  0  0  0  0
   38.6620   30.9950   46.7620 S   0  0  0  0  0  0  0  0  0  0  0  0
   36.2960   31.2900   50.0280 C   0  0  0  0  0  0  0  0  0  0  0  0
   37.4050   31.4560   49.2020 C   0  0  0  0  0  0  0  0  0  0  0  0
   37.3410   30.8810   47.9410 C   0  0  0  0  0  0  0  0  0  0  0  0
   36.2040   30.1900   47.5810 N   0  0  0  0  0  0  0  0  0  0  0  0
   35.1840   30.0670   48.4090 C   0  0  0  0  0  0  0  0  0  0  0  0
   35.2240   30.6220   49.6490 N   0  0  0  0  0  0  0  0  0  0  0  0
   33.9870   29.3390   48.0300 C   0  0  0  0  0  0  0  0  0  0  0  0
   33.4660   28.3260   48.8100 C   0  0  0  0  0  0  0  0  0  0  0  0
   32.3290   27.5950   48.5030 C   0  0  0  0  0  0  0  0  0  0  0  0
   31.7480   27.9620   47.3400 N   0  0  0  0  0  0  0  0  0  0  0  0
   32.2280   28.9370   46.5640 C   0  0  0  0  0  0  0  0  0  0  0  0
   33.3380   29.6360   46.8830 N   0  0  0  0  0  0  0  0  0  0  0  0
   39.6045   34.0371   45.0616 H   0  0  0  0  0  0  0  0  0  0  0  0
   37.9142   33.2716   46.3286 H   0  0  0  0  0  0  0  0  0  0  0  0
   36.9008   31.6390   44.6753 H   0  0  0  0  0  0  0  0  0  0  0  0
   37.6779   33.0119   43.8520 H   0  0  0  0  0  0  0  0  0  0  0  0
   39.0650   30.4507   44.4619 H   0  0  0  0  0  0  0  0  0  0  0  0
   40.5981   31.4253   42.7541 H   0  0  0  0  0  0  0  0  0  0  0  0
   39.6376   32.9048   42.8601 H   0  0  0  0  0  0  0  0  0  0  0  0
   41.5494   32.9625   44.5315 H   0  0  0  0  0  0  0  0  0  0  0  0
   41.0654   31.2494   46.3635 H   0  0  0  0  0  0  0  0  0  0  0  0
   40.5011   30.3582   45.0534 H   0  0  0  0  0  0  0  0  0  0  0  0
   36.3150   31.7329   51.0347 H   0  0  0  0  0  0  0  0  0  0  0  0
   38.2909   32.0172   49.5341 H   0  0  0  0  0  0  0  0  0  0  0  0
   33.9922   28.0808   49.7444 H   0  0  0  0  0  0  0  0  0  0  0  0
   31.9371   26.7925   49.1452 H   0  0  0  0  0  0  0  0  0  0  0  0
   31.6994   29.1796   45.6303 H   0  0  0  0  0  0  0  0  0  0  0  0
  1  2  1  0
  2  8  1  0
  3  2  1  0
  4  3  1  0
  5  4  1  0
  5  6  1  0
  6  7  1  0
  6  1  1  0
  8 11  1  0
 10  9  2  0
 11 10  1  0
 12 11  2  0
 12 13  1  0
 13 14  2  0
 14  9  1  0
 15 13  1  0
 15 16  2  0
 17 16  1  0
 18 17  2  0
 19 20  2  0
 19 18  1  0
 20 15  1  0
  1 21  1  0
  2 22  1  1
  3 23  1  0
  3 24  1  0
  4 25  1  0
  5 26  1  0
  5 27  1  0
  6 28  1  6
  7 29  1  0
  7 30  1  0
  9 31  1  0
 10 32  1  0
 16 33  1  0
 17 34  1  0
 19 35  1  0
M  ISO  8  21   5  22  13  23  13  24  13  25   5  26  13  27  13  28  13
M  ISO  7  29   5  30   5  31  14  32  14  33  14  34  14  35  14
M  END
>  <minimizedAffinity>  (1) 
-5.62739086

>  <minimizedRMSD>  (1) 
2.17035103

$$$$
