
     RDKit          3D

 33 34  0  0  1  0  0  0  0  0999 V2000
   39.5060   32.8610   46.2410 N   0  0  0  0  0  0  0  0  0  0  0  0
   38.2020   32.3730   45.9920 C   0  0  1  0  0  0  0  0  0  0  0  0
   37.9230   32.3750   44.5130 C   0  0  0  0  0  0  0  0  0  0  0  0
   38.9300   31.5320   43.8760 N   0  0  0  0  0  0  0  0  0  0  0  0
   40.1920   32.2790   44.0140 C   0  0  0  0  0  0  0  0  0  0  0  0
   40.5430   32.2220   45.4950 C   0  0  2  0  0  0  0  0  0  0  0  0
   40.7560   30.8350   45.8560 N   0  0  0  0  0  0  0  0  0  0  0  0
   38.0020   30.6240   46.5260 S   0  0  0  0  0  0  0  0  0  0  0  0
   38.0690   31.0540   50.5580 C   0  0  0  0  0  0  0  0  0  0  0  0
   38.4200   31.1620   49.2180 C   0  0  0  0  0  0  0  0  0  0  0  0
   37.6520   30.5550   48.2620 C   0  0  0  0  0  0  0  0  0  0  0  0
   36.5490   29.8530   48.6770 N   0  0  0  0  0  0  0  0  0  0  0  0
   36.2310   29.7620   49.9580 C   0  0  0  0  0  0  0  0  0  0  0  0
   36.9800   30.3560   50.9070 N   0  0  0  0  0  0  0  0  0  0  0  0
   35.0130   28.9840   50.3790 C   0  0  0  0  0  0  0  0  0  0  0  0
   34.5390   28.1350   49.2300 C   0  0  0  0  0  0  0  0  0  0  0  0
   39.5203   33.8652   46.0123 H   0  0  0  0  0  0  0  0  0  0  0  0
   37.5202   33.0293   46.5527 H   0  0  0  0  0  0  0  0  0  0  0  0
   36.9182   31.9712   44.3197 H   0  0  0  0  0  0  0  0  0  0  0  0
   37.9643   33.3985   44.1121 H   0  0  0  0  0  0  0  0  0  0  0  0
   38.7031   31.3844   42.8822 H   0  0  0  0  0  0  0  0  0  0  0  0
   40.9843   31.8083   43.4134 H   0  0  0  0  0  0  0  0  0  0  0  0
   40.0919   33.3155   43.6594 H   0  0  0  0  0  0  0  0  0  0  0  0
   41.4719   32.7642   45.7256 H   0  0  0  0  0  0  0  0  0  0  0  0
   40.7697   30.7455   46.8820 H   0  0  0  0  0  0  0  0  0  0  0  0
   39.9936   30.2591   45.4713 H   0  0  0  0  0  0  0  0  0  0  0  0
   38.6834   31.5402   51.3301 H   0  0  0  0  0  0  0  0  0  0  0  0
   39.3131   31.7341   48.9264 H   0  0  0  0  0  0  0  0  0  0  0  0
   35.2673   28.3378   51.2321 H   0  0  0  0  0  0  0  0  0  0  0  0
   34.2153   29.6819   50.6731 H   0  0  0  0  0  0  0  0  0  0  0  0
   34.0376   27.2370   49.6201 H   0  0  0  0  0  0  0  0  0  0  0  0
   33.8323   28.7116   48.6151 H   0  0  0  0  0  0  0  0  0  0  0  0
   35.4007   27.8360   48.6151 H   0  0  0  0  0  0  0  0  0  0  0  0
  2  1  1  0
  2  8  1  0
  3  2  1  0
  4  5  1  0
  4  3  1  0
  5  6  1  0
  6  7  1  0
  6  1  1  0
  8 11  1  0
  9 14  2  0
 10  9  1  0
 11 12  1  0
 11 10  2  0
 12 13  2  0
 13 15  1  0
 13 14  1  0
 16 15  1  0
  1 17  1  0
  2 18  1  1
  3 19  1  0
  3 20  1  0
  4 21  1  0
  5 22  1  0
  5 23  1  0
  6 24  1  6
  7 25  1  0
  7 26  1  0
  9 27  1  0
 10 28  1  0
 15 29  1  0
 15 30  1  0
 16 31  1  0
 16 32  1  0
 16 33  1  0
M  ISO  8  17   5  18  13  19  13  20  13  21   5  22  13  23  13  24  13
M  ISO  8  25   5  26   5  27  14  28  14  29   8  30   8  31   8  32   8
M  ISO  1  33   8
M  END
>  <minimizedAffinity>  (1) 
-5.56030703

>  <minimizedRMSD>  (1) 
0.313097

$$$$
