
     RDKit          3D

 38 40  0  0  1  0  0  0  0  0999 V2000
   35.3160   30.1570   48.4800 C   0  0  1  0  0  0  0  0  0  0  0  0
   34.5440   30.5060   49.6750 C   0  0  0  0  0  0  0  0  0  0  0  0
   34.8470   29.7540   50.9400 C   0  0  0  0  0  0  0  0  0  0  0  0
   36.2670   29.3900   51.1540 C   0  0  0  0  0  0  0  0  0  0  0  0
   37.0540   29.0390   49.9710 C   0  0  0  0  0  0  0  0  0  0  0  0
   36.7720   29.8890   48.7620 C   0  0  2  0  0  0  0  0  0  0  0  0
   34.2370   27.8810   48.0790 C   0  0  0  0  0  0  0  0  0  0  0  0
   34.7020   29.1310   47.6030 C   0  0  0  0  0  0  0  0  0  0  0  0
   34.5740   29.3630   46.2480 C   0  0  0  0  0  0  0  0  0  0  0  0
   34.0260   28.4160   45.4430 N   0  0  0  0  0  0  0  0  0  0  0  0
   33.5950   27.2300   45.9480 C   0  0  0  0  0  0  0  0  0  0  0  0
   33.7060   26.9730   47.2750 N   0  0  0  0  0  0  0  0  0  0  0  0
   37.6060   31.0180   48.6770 N   0  0  0  0  0  0  0  0  0  0  0  0
   38.3500   31.3510   47.5610 C   0  0  0  0  0  0  0  0  0  0  0  0
   38.8570   32.7570   47.9270 C   0  0  0  0  0  0  0  0  0  0  0  0
   38.6360   32.9160   49.3980 C   0  0  0  0  0  0  0  0  0  0  0  0
   38.1870   31.5430   49.8560 C   0  0  0  0  0  0  0  0  0  0  0  0
   35.2795   31.0781   47.8798 H   0  0  0  0  0  0  0  0  0  0  0  0
   34.7145   31.5737   49.8774 H   0  0  0  0  0  0  0  0  0  0  0  0
   33.5071   30.2339   49.4284 H   0  0  0  0  0  0  0  0  0  0  0  0
   34.5281   30.3785   51.7875 H   0  0  0  0  0  0  0  0  0  0  0  0
   34.3055   28.8002   50.8553 H   0  0  0  0  0  0  0  0  0  0  0  0
   36.7592   30.2475   51.6362 H   0  0  0  0  0  0  0  0  0  0  0  0
   36.2358   28.4702   51.7564 H   0  0  0  0  0  0  0  0  0  0  0  0
   38.1196   29.1428   50.2235 H   0  0  0  0  0  0  0  0  0  0  0  0
   36.7751   28.0093   49.7027 H   0  0  0  0  0  0  0  0  0  0  0  0
   37.0561   29.2526   47.9109 H   0  0  0  0  0  0  0  0  0  0  0  0
   34.3197   27.6569   49.1527 H   0  0  0  0  0  0  0  0  0  0  0  0
   34.9164   30.3165   45.8195 H   0  0  0  0  0  0  0  0  0  0  0  0
   33.1549   26.4764   45.2784 H   0  0  0  0  0  0  0  0  0  0  0  0
   39.1850   30.6504   47.4129 H   0  0  0  0  0  0  0  0  0  0  0  0
   37.7815   31.3140   46.6200 H   0  0  0  0  0  0  0  0  0  0  0  0
   39.9275   32.8488   47.6910 H   0  0  0  0  0  0  0  0  0  0  0  0
   38.3251   33.5335   47.3576 H   0  0  0  0  0  0  0  0  0  0  0  0
   39.5677   33.2106   49.9031 H   0  0  0  0  0  0  0  0  0  0  0  0
   37.9006   33.6999   49.6317 H   0  0  0  0  0  0  0  0  0  0  0  0
   37.4490   31.6137   50.6686 H   0  0  0  0  0  0  0  0  0  0  0  0
   38.9984   30.9236   50.2658 H   0  0  0  0  0  0  0  0  0  0  0  0
  1  6  1  0
  1  2  1  0
  2  3  1  0
  3  4  1  0
  5  4  1  0
  6  5  1  0
  8  7  2  0
  8  1  1  0
  9  8  1  0
 10 11  1  0
 10  9  2  0
 11 12  2  0
 12  7  1  0
 13 14  1  0
 13  6  1  0
 13 17  1  0
 14 15  1  0
 15 16  1  0
 16 17  1  0
  1 18  1  6
  2 19  1  0
  2 20  1  0
  3 21  1  0
  3 22  1  0
  4 23  1  0
  4 24  1  0
  5 25  1  0
  5 26  1  0
  6 27  1  6
  7 28  1  0
  9 29  1  0
 11 30  1  0
 14 31  1  0
 14 32  1  0
 15 33  1  0
 15 34  1  0
 16 35  1  0
 16 36  1  0
 17 37  1  0
 17 38  1  0
M  ISO  8  18  13  19  13  20  13  21  13  22  13  23  13  24  13  25  13
M  ISO  8  26  13  27  13  28  14  29  14  30  14  31  13  32  13  33  13
M  ISO  5  34  13  35  13  36  13  37  13  38  13
M  END
>  <minimizedAffinity>  (1) 
-5.42651224

>  <minimizedRMSD>  (1) 
5.82883549

$$$$
