
     RDKit          3D

 36 38  0  0  1  0  0  0  0  0999 V2000
   33.6400   29.0890   48.2510 C   0  0  1  0  0  0  0  0  0  0  0  0
   33.8100   29.3930   46.8290 C   0  0  0  0  0  0  0  0  0  0  0  0
   34.2180   28.2580   45.9300 C   0  0  0  0  0  0  0  0  0  0  0  0
   33.6610   26.9320   46.2490 C   0  0  0  0  0  0  0  0  0  0  0  0
   33.4160   26.6430   47.6770 C   0  0  0  0  0  0  0  0  0  0  0  0
   32.9560   27.7800   48.5070 C   0  0  2  0  0  0  0  0  0  0  0  0
   36.1050   29.6330   48.5720 C   0  0  0  0  0  0  0  0  0  0  0  0
   34.8340   29.2870   49.1010 C   0  0  0  0  0  0  0  0  0  0  0  0
   34.7670   29.1320   50.4720 C   0  0  0  0  0  0  0  0  0  0  0  0
   35.8700   29.3080   51.2340 N   0  0  0  0  0  0  0  0  0  0  0  0
   37.0660   29.6390   50.6820 C   0  0  0  0  0  0  0  0  0  0  0  0
   37.1710   29.8000   49.3450 N   0  0  0  0  0  0  0  0  0  0  0  0
   31.2950   28.0800   46.1970 F   0  0  0  0  0  0  0  0  0  0  0  0
   30.6880   28.0350   47.4270 C   0  0  0  0  0  0  0  0  0  0  0  0
   31.4780   27.8930   48.5800 C   0  0  0  0  0  0  0  0  0  0  0  0
   30.7000   27.8670   49.7120 C   0  0  0  0  0  0  0  0  0  0  0  0
   29.3350   27.9640   49.7500 C   0  0  0  0  0  0  0  0  0  0  0  0
   28.6370   28.1010   48.5730 C   0  0  0  0  0  0  0  0  0  0  0  0
   29.3170   28.1380   47.3750 C   0  0  0  0  0  0  0  0  0  0  0  0
   32.9484   29.8763   48.5853 H   0  0  0  0  0  0  0  0  0  0  0  0
   32.8512   29.7827   46.4564 H   0  0  0  0  0  0  0  0  0  0  0  0
   34.6482   30.1041   46.7881 H   0  0  0  0  0  0  0  0  0  0  0  0
   35.3144   28.1780   45.9698 H   0  0  0  0  0  0  0  0  0  0  0  0
   33.8133   28.5123   44.9393 H   0  0  0  0  0  0  0  0  0  0  0  0
   32.7012   26.8372   45.7200 H   0  0  0  0  0  0  0  0  0  0  0  0
   34.4306   26.2113   45.9354 H   0  0  0  0  0  0  0  0  0  0  0  0
   32.6499   25.8557   47.7330 H   0  0  0  0  0  0  0  0  0  0  0  0
   34.3940   26.3552   48.0900 H   0  0  0  0  0  0  0  0  0  0  0  0
   33.2954   27.5107   49.5181 H   0  0  0  0  0  0  0  0  0  0  0  0
   36.2100   29.7672   47.4853 H   0  0  0  0  0  0  0  0  0  0  0  0
   33.8114   28.8640   50.9463 H   0  0  0  0  0  0  0  0  0  0  0  0
   37.9489   29.7759   51.3236 H   0  0  0  0  0  0  0  0  0  0  0  0
   31.2209   27.7584   50.6747 H   0  0  0  0  0  0  0  0  0  0  0  0
   28.8021   27.9327   50.7118 H   0  0  0  0  0  0  0  0  0  0  0  0
   27.5400   28.1807   48.5878 H   0  0  0  0  0  0  0  0  0  0  0  0
   28.7861   28.2453   46.4176 H   0  0  0  0  0  0  0  0  0  0  0  0
  1  6  1  0
  1  8  1  0
  2  1  1  0
  3  4  1  0
  3  2  1  0
  4  5  1  0
  5  6  1  0
  6 15  1  0
  7  8  2  0
  7 12  1  0
  8  9  1  0
  9 10  2  0
 11 10  1  0
 12 11  2  0
 13 14  1  0
 14 15  2  0
 15 16  1  0
 16 17  2  0
 18 17  1  0
 19 14  1  0
 19 18  2  0
  1 20  1  1
  2 21  1  0
  2 22  1  0
  3 23  1  0
  3 24  1  0
  4 25  1  0
  4 26  1  0
  5 27  1  0
  5 28  1  0
  6 29  1  1
  7 30  1  0
  9 31  1  0
 11 32  1  0
 16 33  1  0
 17 34  1  0
 18 35  1  0
 19 36  1  0
M  ISO  8  20  13  21  13  22  13  23  13  24  13  25  13  26  13  27  13
M  ISO  8  28  13  29  13  30  14  31  14  32  14  33  14  34  14  35  14
M  ISO  1  36  14
M  END
>  <minimizedAffinity>  (1) 
-5.01155519

>  <minimizedRMSD>  (1) 
2.12831497

$$$$
