
     RDKit          3D

 33 35  0  0  1  0  0  0  0  0999 V2000
   33.7910   29.0640   48.5830 C   0  0  1  0  0  0  0  0  0  0  0  0
   33.6980   29.6400   47.2440 C   0  0  0  0  0  0  0  0  0  0  0  0
   34.1410   28.7710   46.1030 C   0  0  0  0  0  0  0  0  0  0  0  0
   33.8610   27.3230   46.2370 C   0  0  0  0  0  0  0  0  0  0  0  0
   33.8920   26.7370   47.6050 C   0  0  0  0  0  0  0  0  0  0  0  0
   33.3390   27.6340   48.6510 C   0  0  2  0  0  0  0  0  0  0  0  0
   36.2440   29.7050   48.6630 C   0  0  0  0  0  0  0  0  0  0  0  0
   35.0520   29.3160   49.3160 C   0  0  0  0  0  0  0  0  0  0  0  0
   35.1190   29.1880   50.6870 C   0  0  0  0  0  0  0  0  0  0  0  0
   36.3050   29.4380   51.3300 N   0  0  0  0  0  0  0  0  0  0  0  0
   37.4100   29.8050   50.6680 C   0  0  0  0  0  0  0  0  0  0  0  0
   37.3730   29.9380   49.3270 N   0  0  0  0  0  0  0  0  0  0  0  0
   31.8500   27.6760   48.3870 C   0  0  0  0  0  0  0  0  0  0  0  0
   30.9030   27.8940   49.3960 C   0  0  0  0  0  0  0  0  0  0  0  0
   29.6330   27.8770   48.8940 N   0  0  0  0  0  0  0  0  0  0  0  0
   29.7870   27.6500   47.5800 C   0  0  0  0  0  0  0  0  0  0  0  0
   31.0700   27.5360   47.3010 N   0  0  0  0  0  0  0  0  0  0  0  0
   33.0545   29.6505   49.1518 H   0  0  0  0  0  0  0  0  0  0  0  0
   32.6457   29.9085   47.0692 H   0  0  0  0  0  0  0  0  0  0  0  0
   34.3954   30.4906   47.2466 H   0  0  0  0  0  0  0  0  0  0  0  0
   35.2283   28.8936   45.9903 H   0  0  0  0  0  0  0  0  0  0  0  0
   33.5552   29.1049   45.2339 H   0  0  0  0  0  0  0  0  0  0  0  0
   32.8572   27.1428   45.8248 H   0  0  0  0  0  0  0  0  0  0  0  0
   34.6867   26.8292   45.7037 H   0  0  0  0  0  0  0  0  0  0  0  0
   33.3038   25.8075   47.5981 H   0  0  0  0  0  0  0  0  0  0  0  0
   34.9487   26.5630   47.8564 H   0  0  0  0  0  0  0  0  0  0  0  0
   33.6660   27.2381   49.6238 H   0  0  0  0  0  0  0  0  0  0  0  0
   36.2378   29.8189   47.5689 H   0  0  0  0  0  0  0  0  0  0  0  0
   34.2295   28.8881   51.2604 H   0  0  0  0  0  0  0  0  0  0  0  0
   38.3440   29.9971   51.2164 H   0  0  0  0  0  0  0  0  0  0  0  0
   31.1502   28.0577   50.4553 H   0  0  0  0  0  0  0  0  0  0  0  0
   28.7514   28.0092   49.4099 H   0  0  0  0  0  0  0  0  0  0  0  0
   28.9688   27.5713   46.8490 H   0  0  0  0  0  0  0  0  0  0  0  0
  1  6  1  0
  1  8  1  0
  2  1  1  0
  3  4  1  0
  3  2  1  0
  4  5  1  0
  5  6  1  0
  7  8  2  0
  7 12  1  0
  8  9  1  0
  9 10  2  0
 11 10  1  0
 12 11  2  0
 13  6  1  0
 13 14  2  0
 15 14  1  0
 16 15  1  0
 17 16  2  0
 17 13  1  0
  1 18  1  1
  2 19  1  0
  2 20  1  0
  3 21  1  0
  3 22  1  0
  4 23  1  0
  4 24  1  0
  5 25  1  0
  5 26  1  0
  6 27  1  1
  7 28  1  0
  9 29  1  0
 11 30  1  0
 14 31  1  0
 15 32  1  0
 16 33  1  0
M  ISO  8  18  13  19  13  20  13  21  13  22  13  23  13  24  13  25  13
M  ISO  8  26  13  27  13  28  14  29  14  30  14  31  14  32   9  33  14
M  END
>  <minimizedAffinity>  (1) 
-4.6622963

>  <minimizedRMSD>  (1) 
1.64104176

$$$$
