
     RDKit          3D

 27 28  0  0  1  0  0  0  0  0999 V2000
   34.4600   30.0410   49.0940 C   0  0  1  0  0  0  0  0  0  0  0  0
   34.1250   30.3010   47.6970 C   0  0  0  0  0  0  0  0  0  0  0  0
   34.3410   29.1800   46.7200 C   0  0  0  0  0  0  0  0  0  0  0  0
   34.0670   27.8160   47.2210 C   0  0  0  0  0  0  0  0  0  0  0  0
   34.3690   27.5340   48.6500 C   0  0  0  0  0  0  0  0  0  0  0  0
   34.0240   28.6760   49.5520 C   0  0  2  0  0  0  0  0  0  0  0  0
   36.7040   31.1390   48.7080 C   0  0  0  0  0  0  0  0  0  0  0  0
   35.8380   30.3830   49.5200 C   0  0  0  0  0  0  0  0  0  0  0  0
   36.3240   29.9730   50.7460 C   0  0  0  0  0  0  0  0  0  0  0  0
   37.5860   30.3060   51.1130 N   0  0  0  0  0  0  0  0  0  0  0  0
   38.3940   31.0380   50.3010 C   0  0  0  0  0  0  0  0  0  0  0  0
   37.9380   31.4510   49.0920 N   0  0  0  0  0  0  0  0  0  0  0  0
   32.6040   28.7420   49.4980 O   0  0  0  0  0  0  0  0  0  0  0  0
   33.8515   30.7804   49.6354 H   0  0  0  0  0  0  0  0  0  0  0  0
   33.0603   30.5744   47.6572 H   0  0  0  0  0  0  0  0  0  0  0  0
   34.8211   31.0917   47.3804 H   0  0  0  0  0  0  0  0  0  0  0  0
   35.3919   29.2141   46.3969 H   0  0  0  0  0  0  0  0  0  0  0  0
   33.6135   29.3488   45.9124 H   0  0  0  0  0  0  0  0  0  0  0  0
   32.9964   27.6170   47.0653 H   0  0  0  0  0  0  0  0  0  0  0  0
   34.7539   27.1679   46.6570 H   0  0  0  0  0  0  0  0  0  0  0  0
   33.7918   26.6517   48.9636 H   0  0  0  0  0  0  0  0  0  0  0  0
   35.4526   27.3632   48.7319 H   0  0  0  0  0  0  0  0  0  0  0  0
   34.5122   28.4816   50.5184 H   0  0  0  0  0  0  0  0  0  0  0  0
   36.3488   31.4824   47.7252 H   0  0  0  0  0  0  0  0  0  0  0  0
   35.6904   29.3793   51.4213 H   0  0  0  0  0  0  0  0  0  0  0  0
   39.4140   31.2945   50.6232 H   0  0  0  0  0  0  0  0  0  0  0  0
   32.2392   28.7590   50.4182 H   0  0  0  0  0  0  0  0  0  0  0  0
  1  8  1  0
  1  6  1  0
  2  1  1  0
  3  4  1  0
  3  2  1  0
  4  5  1  0
  5  6  1  0
  7 12  2  0
  7  8  1  0
  8  9  2  0
  9 10  1  0
 11 10  2  0
 12 11  1  0
 13  6  1  0
  1 14  1  1
  2 15  1  0
  2 16  1  0
  3 17  1  0
  3 18  1  0
  4 19  1  0
  4 20  1  0
  5 21  1  0
  5 22  1  0
  6 23  1  1
  7 24  1  0
  9 25  1  0
 11 26  1  0
 13 27  1  0
M  ISO  8  14  13  15  13  16  13  17  13  18  13  19  13  20  13  21  13
M  ISO  6  22  13  23  13  24  14  25  14  26  14  27   3
M  END
>  <minimizedAffinity>  (1) 
-4.64851141

>  <minimizedRMSD>  (1) 
0.154898852

$$$$
