
     RDKit          3D

 34 36  0  0  1  0  0  0  0  0999 V2000
   39.8450   33.0260   45.9420 N   0  0  0  0  0  0  0  0  0  0  0  0
   38.5400   32.4610   45.9890 C   0  0  1  0  0  0  0  0  0  0  0  0
   38.0080   32.1980   44.6050 C   0  0  0  0  0  0  0  0  0  0  0  0
   38.9470   31.2770   43.9600 N   0  0  0  0  0  0  0  0  0  0  0  0
   40.1760   32.0720   43.7530 C   0  0  0  0  0  0  0  0  0  0  0  0
   40.7620   32.2870   45.1330 C   0  0  2  0  0  0  0  0  0  0  0  0
   41.1200   31.0180   45.7080 N   0  0  0  0  0  0  0  0  0  0  0  0
   38.5390   30.8290   46.8440 S   0  0  0  0  0  0  0  0  0  0  0  0
   36.0510   31.2770   50.0330 C   0  0  0  0  0  0  0  0  0  0  0  0
   37.1690   31.3880   49.2200 C   0  0  0  0  0  0  0  0  0  0  0  0
   37.1790   30.7740   47.9980 C   0  0  0  0  0  0  0  0  0  0  0  0
   36.0580   30.0710   47.6470 N   0  0  0  0  0  0  0  0  0  0  0  0
   35.0050   29.9780   48.4350 C   0  0  0  0  0  0  0  0  0  0  0  0
   34.9890   30.5780   49.6330 N   0  0  0  0  0  0  0  0  0  0  0  0
   33.8020   29.1990   48.0100 C   0  0  0  0  0  0  0  0  0  0  0  0
   33.2510   28.2090   48.8960 C   0  0  0  0  0  0  0  0  0  0  0  0
   32.1610   27.5300   48.4640 C   0  0  0  0  0  0  0  0  0  0  0  0
   31.5920   27.8030   47.1670 C   0  0  0  0  0  0  0  0  0  0  0  0
   32.7510   29.1460   46.5650 S   0  0  0  0  0  0  0  0  0  0  0  0
   39.7725   33.9807   45.5621 H   0  0  0  0  0  0  0  0  0  0  0  0
   37.9189   33.1923   46.5270 H   0  0  0  0  0  0  0  0  0  0  0  0
   37.0090   31.7412   44.6635 H   0  0  0  0  0  0  0  0  0  0  0  0
   37.9154   33.1329   44.0329 H   0  0  0  0  0  0  0  0  0  0  0  0
   39.1368   30.4678   44.5683 H   0  0  0  0  0  0  0  0  0  0  0  0
   40.8853   31.5229   43.1163 H   0  0  0  0  0  0  0  0  0  0  0  0
   39.9623   33.0263   43.2493 H   0  0  0  0  0  0  0  0  0  0  0  0
   41.6827   32.8855   45.0683 H   0  0  0  0  0  0  0  0  0  0  0  0
   41.1001   31.0887   46.7354 H   0  0  0  0  0  0  0  0  0  0  0  0
   40.4487   30.3000   45.4002 H   0  0  0  0  0  0  0  0  0  0  0  0
   36.0406   31.7700   51.0163 H   0  0  0  0  0  0  0  0  0  0  0  0
   38.0423   31.9663   49.5559 H   0  0  0  0  0  0  0  0  0  0  0  0
   33.6957   28.0115   49.8825 H   0  0  0  0  0  0  0  0  0  0  0  0
   31.7058   26.7635   49.1084 H   0  0  0  0  0  0  0  0  0  0  0  0
   30.7214   27.3496   46.6705 H   0  0  0  0  0  0  0  0  0  0  0  0
  1  2  1  0
  2  8  1  0
  3  2  1  0
  4  3  1  0
  5  4  1  0
  5  6  1  0
  6  7  1  0
  6  1  1  0
  8 11  1  0
 10  9  2  0
 11 10  1  0
 12 11  2  0
 12 13  1  0
 13 14  2  0
 14  9  1  0
 15 13  1  0
 15 16  2  0
 17 16  1  0
 18 17  2  0
 19 18  1  0
 19 15  1  0
  1 20  1  0
  2 21  1  1
  3 22  1  0
  3 23  1  0
  4 24  1  0
  5 25  1  0
  5 26  1  0
  6 27  1  6
  7 28  1  0
  7 29  1  0
  9 30  1  0
 10 31  1  0
 16 32  1  0
 17 33  1  0
 18 34  1  0
M  ISO  8  20   5  21  13  22  13  23  13  24   5  25  13  26  13  27  13
M  ISO  7  28   5  29   5  30  14  31  14  32  14  33  14  34  14
M  END
>  <minimizedAffinity>  (1) 
-5.47894812

>  <minimizedRMSD>  (1) 
2.01446366

$$$$
