
     RDKit          3D

 32 33  0  0  1  0  0  0  0  0999 V2000
   35.3090   30.6160   48.9570 C   0  0  1  0  0  0  0  0  0  0  0  0
   34.7930   30.1400   50.2380 C   0  0  0  0  0  0  0  0  0  0  0  0
   35.6390   29.1580   50.9980 C   0  0  0  0  0  0  0  0  0  0  0  0
   37.1080   29.3460   50.8920 C   0  0  0  0  0  0  0  0  0  0  0  0
   37.6460   29.8370   49.6020 C   0  0  0  0  0  0  0  0  0  0  0  0
   36.7820   30.8900   48.9730 C   0  0  2  0  0  0  0  0  0  0  0  0
   33.9820   28.7480   47.8340 C   0  0  0  0  0  0  0  0  0  0  0  0
   34.8880   29.8390   47.7650 C   0  0  0  0  0  0  0  0  0  0  0  0
   35.3640   30.1580   46.5070 C   0  0  0  0  0  0  0  0  0  0  0  0
   34.9580   29.4370   45.4200 N   0  0  0  0  0  0  0  0  0  0  0  0
   34.0940   28.4090   45.5410 C   0  0  0  0  0  0  0  0  0  0  0  0
   33.6090   28.0690   46.7560 N   0  0  0  0  0  0  0  0  0  0  0  0
   36.9350   32.1270   49.8830 C   0  0  0  0  0  0  0  0  0  0  0  0
   38.0460   33.0300   49.3310 C   0  0  0  0  0  0  0  0  0  0  0  0
   34.8053   31.5862   48.8343 H   0  0  0  0  0  0  0  0  0  0  0  0
   34.6467   31.0191   50.8829 H   0  0  0  0  0  0  0  0  0  0  0  0
   33.8756   29.5878   49.9861 H   0  0  0  0  0  0  0  0  0  0  0  0
   35.3662   29.2308   52.0611 H   0  0  0  0  0  0  0  0  0  0  0  0
   35.4322   28.1765   50.5465 H   0  0  0  0  0  0  0  0  0  0  0  0
   37.4041   30.0674   51.6678 H   0  0  0  0  0  0  0  0  0  0  0  0
   37.5273   28.3351   51.0025 H   0  0  0  0  0  0  0  0  0  0  0  0
   38.6456   30.2615   49.7772 H   0  0  0  0  0  0  0  0  0  0  0  0
   37.6803   28.9816   48.9112 H   0  0  0  0  0  0  0  0  0  0  0  0
   37.1054   30.9773   47.9252 H   0  0  0  0  0  0  0  0  0  0  0  0
   33.5756   28.4556   48.8135 H   0  0  0  0  0  0  0  0  0  0  0  0
   36.0697   30.9924   46.3812 H   0  0  0  0  0  0  0  0  0  0  0  0
   33.7831   27.8457   44.6488 H   0  0  0  0  0  0  0  0  0  0  0  0
   35.9870   32.6844   49.9075 H   0  0  0  0  0  0  0  0  0  0  0  0
   37.1954   31.8043   50.9019 H   0  0  0  0  0  0  0  0  0  0  0  0
   38.6010   33.4811   50.1668 H   0  0  0  0  0  0  0  0  0  0  0  0
   38.7332   32.4312   48.7153 H   0  0  0  0  0  0  0  0  0  0  0  0
   37.6002   33.8251   48.7153 H   0  0  0  0  0  0  0  0  0  0  0  0
  1  6  1  0
  1  2  1  0
  2  3  1  0
  4  3  1  0
  5  4  1  0
  6  5  1  0
  6 13  1  0
  8  7  2  0
  8  1  1  0
  9  8  1  0
 10 11  1  0
 10  9  2  0
 11 12  2  0
 12  7  1  0
 14 13  1  0
  1 15  1  6
  2 16  1  0
  2 17  1  0
  3 18  1  0
  3 19  1  0
  4 20  1  0
  4 21  1  0
  5 22  1  0
  5 23  1  0
  6 24  1  6
  7 25  1  0
  9 26  1  0
 11 27  1  0
 13 28  1  0
 13 29  1  0
 14 30  1  0
 14 31  1  0
 14 32  1  0
M  ISO  8  15  13  16  13  17  13  18  13  19  13  20  13  21  13  22  13
M  ISO  8  23  13  24  13  25  14  26  14  27  14  28   8  29   8  30   8
M  ISO  2  31   8  32   8
M  END
>  <minimizedAffinity>  (1) 
-5.01552343

>  <minimizedRMSD>  (1) 
4.89977217

$$$$
