
     RDKit          3D

 40 42  0  0  1  0  0  0  0  0999 V2000
   35.2040   30.0840   48.7080 C   0  0  1  0  0  0  0  0  0  0  0  0
   34.6970   30.2480   50.0540 C   0  0  0  0  0  0  0  0  0  0  0  0
   35.4220   29.5070   51.1580 C   0  0  0  0  0  0  0  0  0  0  0  0
   36.9050   29.4200   51.0100 C   0  0  0  0  0  0  0  0  0  0  0  0
   37.4510   29.2920   49.6340 C   0  0  0  0  0  0  0  0  0  0  0  0
   36.7140   30.1190   48.6460 C   0  0  2  0  0  0  0  0  0  0  0  0
   34.2770   27.7080   48.4740 C   0  0  0  0  0  0  0  0  0  0  0  0
   34.6390   28.9740   47.9170 C   0  0  0  0  0  0  0  0  0  0  0  0
   34.4320   29.1070   46.5540 C   0  0  0  0  0  0  0  0  0  0  0  0
   33.9120   28.0610   45.8410 N   0  0  0  0  0  0  0  0  0  0  0  0
   33.5890   26.8960   46.4190 C   0  0  0  0  0  0  0  0  0  0  0  0
   33.7770   26.7210   47.7550 N   0  0  0  0  0  0  0  0  0  0  0  0
   37.0790   31.5720   48.9880 C   0  0  0  0  0  0  0  0  0  0  0  0
   38.5030   31.8720   48.5220 C   0  0  0  0  0  0  0  0  0  0  0  0
   38.5940   32.1730   47.0900 C   0  0  0  0  0  0  0  0  0  0  0  0
   39.7770   32.8230   46.7210 C   0  0  0  0  0  0  0  0  0  0  0  0
   40.0800   33.2030   45.4340 C   0  0  0  0  0  0  0  0  0  0  0  0
   39.1580   32.9210   44.4710 N   0  0  0  0  0  0  0  0  0  0  0  0
   38.0130   32.2880   44.8520 C   0  0  0  0  0  0  0  0  0  0  0  0
   37.7150   31.9160   46.1070 N   0  0  0  0  0  0  0  0  0  0  0  0
   34.8183   30.9780   48.1961 H   0  0  0  0  0  0  0  0  0  0  0  0
   34.7349   31.3208   50.2942 H   0  0  0  0  0  0  0  0  0  0  0  0
   33.6872   29.8122   50.0334 H   0  0  0  0  0  0  0  0  0  0  0  0
   35.2060   30.0186   52.1076 H   0  0  0  0  0  0  0  0  0  0  0  0
   35.0541   28.4712   51.1174 H   0  0  0  0  0  0  0  0  0  0  0  0
   37.3342   30.3317   51.4512 H   0  0  0  0  0  0  0  0  0  0  0  0
   37.1817   28.4800   51.5097 H   0  0  0  0  0  0  0  0  0  0  0  0
   38.5043   29.6091   49.6424 H   0  0  0  0  0  0  0  0  0  0  0  0
   37.3453   28.2398   49.3312 H   0  0  0  0  0  0  0  0  0  0  0  0
   36.9960   29.7300   47.6565 H   0  0  0  0  0  0  0  0  0  0  0  0
   34.4221   27.5493   49.5528 H   0  0  0  0  0  0  0  0  0  0  0  0
   34.6846   30.0497   46.0466 H   0  0  0  0  0  0  0  0  0  0  0  0
   33.1710   26.0794   45.8120 H   0  0  0  0  0  0  0  0  0  0  0  0
   36.3784   32.2530   48.4827 H   0  0  0  0  0  0  0  0  0  0  0  0
   37.0156   31.7155   50.0768 H   0  0  0  0  0  0  0  0  0  0  0  0
   38.8793   32.7386   49.0854 H   0  0  0  0  0  0  0  0  0  0  0  0
   39.1021   30.9674   48.7032 H   0  0  0  0  0  0  0  0  0  0  0  0
   40.5111   33.0441   47.5099 H   0  0  0  0  0  0  0  0  0  0  0  0
   41.0249   33.7120   45.1929 H   0  0  0  0  0  0  0  0  0  0  0  0
   37.2739   32.0639   44.0687 H   0  0  0  0  0  0  0  0  0  0  0  0
  1  2  1  0
  2  3  1  0
  4  3  1  0
  5  4  1  0
  6  1  1  0
  6 13  1  0
  6  5  1  0
  8  7  2  0
  8  1  1  0
  9  8  1  0
 10 11  1  0
 10  9  2  0
 11 12  2  0
 12  7  1  0
 14 13  1  0
 15 14  1  0
 16 15  2  0
 17 16  1  0
 18 19  1  0
 18 17  2  0
 19 20  2  0
 20 15  1  0
  1 21  1  6
  2 22  1  0
  2 23  1  0
  3 24  1  0
  3 25  1  0
  4 26  1  0
  4 27  1  0
  5 28  1  0
  5 29  1  0
  6 30  1  6
  7 31  1  0
  9 32  1  0
 11 33  1  0
 13 34  1  0
 13 35  1  0
 14 36  1  0
 14 37  1  0
 16 38  1  0
 17 39  1  0
 19 40  1  0
M  ISO  8  21  13  22  13  23  13  24  13  25  13  26  13  27  13  28  13
M  ISO  8  29  13  30  13  31  14  32  14  33  14  34   8  35   8  36   8
M  ISO  4  37   8  38  14  39  14  40  14
M  END
>  <minimizedAffinity>  (1) 
-5.97628546

>  <minimizedRMSD>  (1) 
1.4944272

$$$$
