
     RDKit          3D

 45 47  0  0  1  0  0  0  0  0999 V2000
   35.3880   30.3540   48.5700 C   0  0  1  0  0  0  0  0  0  0  0  0
   34.8730   30.4840   49.9170 C   0  0  0  0  0  0  0  0  0  0  0  0
   35.5530   29.6600   50.9930 C   0  0  0  0  0  0  0  0  0  0  0  0
   37.0300   29.5350   50.8630 C   0  0  0  0  0  0  0  0  0  0  0  0
   37.5920   29.4380   49.4970 C   0  0  0  0  0  0  0  0  0  0  0  0
   36.8960   30.3350   48.5290 C   0  0  2  0  0  0  0  0  0  0  0  0
   34.3610   28.0340   48.2350 C   0  0  0  0  0  0  0  0  0  0  0  0
   34.7940   29.2980   47.7310 C   0  0  0  0  0  0  0  0  0  0  0  0
   34.6200   29.4760   46.3730 C   0  0  0  0  0  0  0  0  0  0  0  0
   34.0670   28.4870   45.6020 N   0  0  0  0  0  0  0  0  0  0  0  0
   33.6830   27.3230   46.1390 C   0  0  0  0  0  0  0  0  0  0  0  0
   33.8320   27.0960   47.4690 N   0  0  0  0  0  0  0  0  0  0  0  0
   37.3180   31.7540   48.9250 C   0  0  0  0  0  0  0  0  0  0  0  0
   38.7000   32.0950   48.4380 C   0  0  0  0  0  0  0  0  0  0  0  0
   38.8650   32.3870   47.0070 C   0  0  0  0  0  0  0  0  0  0  0  0
   39.4820   31.1280   46.3710 C   0  0  0  0  0  0  0  0  0  0  0  0
   40.5720   31.5850   45.4600 C   0  0  0  0  0  0  0  0  0  0  0  0
   40.2550   33.0640   45.2470 C   0  0  0  0  0  0  0  0  0  0  0  0
   39.8960   33.4380   46.6910 C   0  0  0  0  0  0  0  0  0  0  0  0
   35.0396   31.2789   48.0871 H   0  0  0  0  0  0  0  0  0  0  0  0
   34.9584   31.5422   50.2049 H   0  0  0  0  0  0  0  0  0  0  0  0
   33.8433   30.1000   49.8690 H   0  0  0  0  0  0  0  0  0  0  0  0
   35.3361   30.1263   51.9654 H   0  0  0  0  0  0  0  0  0  0  0  0
   35.1525   28.6404   50.8926 H   0  0  0  0  0  0  0  0  0  0  0  0
   37.4784   30.4182   51.3414 H   0  0  0  0  0  0  0  0  0  0  0  0
   37.2712   28.5703   51.3334 H   0  0  0  0  0  0  0  0  0  0  0  0
   38.6560   29.7149   49.5326 H   0  0  0  0  0  0  0  0  0  0  0  0
   37.4555   28.4026   49.1516 H   0  0  0  0  0  0  0  0  0  0  0  0
   37.1722   29.9734   47.5275 H   0  0  0  0  0  0  0  0  0  0  0  0
   34.4729   27.8318   49.3104 H   0  0  0  0  0  0  0  0  0  0  0  0
   34.9287   30.4222   45.9046 H   0  0  0  0  0  0  0  0  0  0  0  0
   33.2435   26.5445   45.4981 H   0  0  0  0  0  0  0  0  0  0  0  0
   36.6036   32.4695   48.4917 H   0  0  0  0  0  0  0  0  0  0  0  0
   37.3250   31.8090   50.0236 H   0  0  0  0  0  0  0  0  0  0  0  0
   39.0358   32.9818   48.9956 H   0  0  0  0  0  0  0  0  0  0  0  0
   39.2885   31.1810   48.6060 H   0  0  0  0  0  0  0  0  0  0  0  0
   37.8759   32.7107   46.6506 H   0  0  0  0  0  0  0  0  0  0  0  0
   39.8938   30.4734   47.1532 H   0  0  0  0  0  0  0  0  0  0  0  0
   38.7224   30.5573   45.8167 H   0  0  0  0  0  0  0  0  0  0  0  0
   41.5581   31.4571   45.9303 H   0  0  0  0  0  0  0  0  0  0  0  0
   40.6154   31.0144   44.5205 H   0  0  0  0  0  0  0  0  0  0  0  0
   41.1271   33.6248   44.8795 H   0  0  0  0  0  0  0  0  0  0  0  0
   39.4825   33.2804   44.4944 H   0  0  0  0  0  0  0  0  0  0  0  0
   40.7680   33.3629   47.3573 H   0  0  0  0  0  0  0  0  0  0  0  0
   39.5456   34.4727   46.8197 H   0  0  0  0  0  0  0  0  0  0  0  0
  1  2  1  0
  2  3  1  0
  4  3  1  0
  5  4  1  0
  6  1  1  0
  6 13  1  0
  6  5  1  0
  8  7  2  0
  8  1  1  0
  9  8  1  0
 10 11  1  0
 10  9  2  0
 11 12  2  0
 12  7  1  0
 14 13  1  0
 15 14  1  0
 16 15  1  0
 17 16  1  0
 18 17  1  0
 18 19  1  0
 19 15  1  0
  1 20  1  6
  2 21  1  0
  2 22  1  0
  3 23  1  0
  3 24  1  0
  4 25  1  0
  4 26  1  0
  5 27  1  0
  5 28  1  0
  6 29  1  6
  7 30  1  0
  9 31  1  0
 11 32  1  0
 13 33  1  0
 13 34  1  0
 14 35  1  0
 14 36  1  0
 15 37  1  0
 16 38  1  0
 16 39  1  0
 17 40  1  0
 17 41  1  0
 18 42  1  0
 18 43  1  0
 19 44  1  0
 19 45  1  0
M  ISO  8  20  13  21  13  22  13  23  13  24  13  25  13  26  13  27  13
M  ISO  8  28  13  29  13  30  14  31  14  32  14  33   8  34   8  35   8
M  ISO  8  36   8  37  13  38  13  39  13  40  13  41  13  42  13  43  13
M  ISO  2  44  13  45  13
M  END
>  <minimizedAffinity>  (1) 
-5.97244978

>  <minimizedRMSD>  (1) 
1.2886517

$$$$
