
     RDKit          3D

 40 41  0  0  1  0  0  0  0  0999 V2000
   35.1940   30.2070   48.9080 C   0  0  1  0  0  0  0  0  0  0  0  0
   34.7000   30.1930   50.2680 C   0  0  0  0  0  0  0  0  0  0  0  0
   35.4760   29.3720   51.2750 C   0  0  0  0  0  0  0  0  0  0  0  0
   36.9590   29.3930   51.1100 C   0  0  0  0  0  0  0  0  0  0  0  0
   37.4920   29.4370   49.7270 C   0  0  0  0  0  0  0  0  0  0  0  0
   36.6990   30.3220   48.8390 C   0  0  2  0  0  0  0  0  0  0  0  0
   34.3030   27.8540   48.4390 C   0  0  0  0  0  0  0  0  0  0  0  0
   34.6800   29.1640   48.0030 C   0  0  0  0  0  0  0  0  0  0  0  0
   34.5360   29.4010   46.6470 C   0  0  0  0  0  0  0  0  0  0  0  0
   34.0640   28.4230   45.8240 N   0  0  0  0  0  0  0  0  0  0  0  0
   33.7270   27.2110   46.2910 C   0  0  0  0  0  0  0  0  0  0  0  0
   33.8500   26.9310   47.6130 N   0  0  0  0  0  0  0  0  0  0  0  0
   36.9890   31.7610   49.3400 C   0  0  0  0  0  0  0  0  0  0  0  0
   38.4390   32.1330   49.0120 C   0  0  0  0  0  0  0  0  0  0  0  0
   38.5300   33.2150   48.0670 N   0  0  0  0  0  0  0  0  0  0  0  0
   39.0460   32.5270   46.5460 S   0  0  0  0  0  0  0  0  0  0  0  0
   39.3660   31.0750   46.7040 O   0  0  0  0  0  0  0  0  0  0  0  0
   40.2770   33.2940   46.1150 O   0  0  0  0  0  0  0  0  0  0  0  0
   37.8090   32.7590   45.4200 O   0  0  0  0  0  0  0  0  0  0  0  0
   34.7536   31.1308   48.5047 H   0  0  0  0  0  0  0  0  0  0  0  0
   34.6881   31.2327   50.6269 H   0  0  0  0  0  0  0  0  0  0  0  0
   33.7133   29.7105   50.2074 H   0  0  0  0  0  0  0  0  0  0  0  0
   35.2406   29.7550   52.2789 H   0  0  0  0  0  0  0  0  0  0  0  0
   35.1679   28.3279   51.1173 H   0  0  0  0  0  0  0  0  0  0  0  0
   37.3369   30.2812   51.6375 H   0  0  0  0  0  0  0  0  0  0  0  0
   37.3000   28.4275   51.5119 H   0  0  0  0  0  0  0  0  0  0  0  0
   38.5274   29.8069   49.7599 H   0  0  0  0  0  0  0  0  0  0  0  0
   37.4387   28.4179   49.3163 H   0  0  0  0  0  0  0  0  0  0  0  0
   36.9901   30.0515   47.8133 H   0  0  0  0  0  0  0  0  0  0  0  0
   34.3948   27.6068   49.5069 H   0  0  0  0  0  0  0  0  0  0  0  0
   34.8039   30.3837   46.2317 H   0  0  0  0  0  0  0  0  0  0  0  0
   33.3500   26.4424   45.6003 H   0  0  0  0  0  0  0  0  0  0  0  0
   36.3077   32.4669   48.8424 H   0  0  0  0  0  0  0  0  0  0  0  0
   36.8352   31.8086   50.4281 H   0  0  0  0  0  0  0  0  0  0  0  0
   38.9452   32.4328   49.9414 H   0  0  0  0  0  0  0  0  0  0  0  0
   38.9158   31.2517   48.5581 H   0  0  0  0  0  0  0  0  0  0  0  0
   37.6106   33.6661   47.9569 H   0  0  0  0  0  0  0  0  0  0  0  0
   39.4154   30.8509   47.6670 H   0  0  0  0  0  0  0  0  0  0  0  0
   40.7711   33.6019   46.9157 H   0  0  0  0  0  0  0  0  0  0  0  0
   36.9556   32.9191   45.8956 H   0  0  0  0  0  0  0  0  0  0  0  0
  1  2  1  0
  2  3  1  0
  4  3  1  0
  5  4  1  0
  6  1  1  0
  6 13  1  0
  6  5  1  0
  8  7  2  0
  8  1  1  0
  9  8  1  0
 10 11  1  0
 10  9  2  0
 11 12  2  0
 12  7  1  0
 14 13  1  0
 15 14  1  0
 16 17  1  0
 16 15  1  0
 18 16  1  0
 19 16  1  0
  1 20  1  6
  2 21  1  0
  2 22  1  0
  3 23  1  0
  3 24  1  0
  4 25  1  0
  4 26  1  0
  5 27  1  0
  5 28  1  0
  6 29  1  6
  7 30  1  0
  9 31  1  0
 11 32  1  0
 13 33  1  0
 13 34  1  0
 14 35  1  0
 14 36  1  0
 15 37  1  0
 17 38  1  0
 18 39  1  0
 19 40  1  0
M  ISO  8  20  13  21  13  22  13  23  13  24  13  25  13  26  13  27  13
M  ISO  8  28  13  29  13  30  14  31  14  32  14  33   8  34   8  35   8
M  ISO  5  36   8  37   5  38   3  39   3  40   3
M  END
>  <minimizedAffinity>  (1) 
-5.82326031

>  <minimizedRMSD>  (1) 
2.19268823

$$$$
