
     RDKit          3D

 44 46  0  0  1  0  0  0  0  0999 V2000
   36.0510   30.6460   48.4690 C   0  0  1  0  0  0  0  0  0  0  0  0
   35.9650   31.6350   49.5260 C   0  0  0  0  0  0  0  0  0  0  0  0
   36.5100   31.2240   50.8830 C   0  0  0  0  0  0  0  0  0  0  0  0
   37.7390   30.3940   50.8530 C   0  0  0  0  0  0  0  0  0  0  0  0
   37.8810   29.4210   49.7470 C   0  0  0  0  0  0  0  0  0  0  0  0
   37.3800   29.9400   48.4490 C   0  0  2  0  0  0  0  0  0  0  0  0
   34.2590   29.0890   49.4220 C   0  0  0  0  0  0  0  0  0  0  0  0
   34.9090   29.7300   48.3270 C   0  0  0  0  0  0  0  0  0  0  0  0
   34.3940   29.4440   47.0690 C   0  0  0  0  0  0  0  0  0  0  0  0
   33.3300   28.5930   46.9490 N   0  0  0  0  0  0  0  0  0  0  0  0
   32.7560   28.0180   48.0180 C   0  0  0  0  0  0  0  0  0  0  0  0
   33.2320   28.2730   49.2560 N   0  0  0  0  0  0  0  0  0  0  0  0
   38.3860   31.0380   48.0140 C   0  0  0  0  0  0  0  0  0  0  0  0
   38.4940   31.0650   46.4950 C   0  0  0  0  0  0  0  0  0  0  0  0
   38.5490   32.4280   46.0400 N   0  0  0  0  0  0  0  0  0  0  0  0
   38.3560   32.4860   44.6090 C   0  0  0  0  0  0  0  0  0  0  0  0
   39.6700   32.8750   43.9690 C   0  0  0  0  0  0  0  0  0  0  0  0
   40.6770   32.6110   45.0520 C   0  0  0  0  0  0  0  0  0  0  0  0
   39.8640   32.9610   46.3020 C   0  0  0  0  0  0  0  0  0  0  0  0
   35.9810   31.2520   47.5536 H   0  0  0  0  0  0  0  0  0  0  0  0
   36.5219   32.5249   49.1975 H   0  0  0  0  0  0  0  0  0  0  0  0
   34.8891   31.8021   49.6822 H   0  0  0  0  0  0  0  0  0  0  0  0
   36.7333   32.1398   51.4500 H   0  0  0  0  0  0  0  0  0  0  0  0
   35.7327   30.5961   51.3429 H   0  0  0  0  0  0  0  0  0  0  0  0
   38.5979   31.0793   50.8009 H   0  0  0  0  0  0  0  0  0  0  0  0
   37.6824   29.7775   51.7623 H   0  0  0  0  0  0  0  0  0  0  0  0
   38.9461   29.1694   49.6362 H   0  0  0  0  0  0  0  0  0  0  0  0
   37.2752   28.5397   50.0046 H   0  0  0  0  0  0  0  0  0  0  0  0
   37.2704   29.0575   47.8016 H   0  0  0  0  0  0  0  0  0  0  0  0
   34.6250   29.2801   50.4416 H   0  0  0  0  0  0  0  0  0  0  0  0
   34.8401   29.9001   46.1729 H   0  0  0  0  0  0  0  0  0  0  0  0
   31.8996   27.3404   47.8857 H   0  0  0  0  0  0  0  0  0  0  0  0
   38.0359   32.0171   48.3728 H   0  0  0  0  0  0  0  0  0  0  0  0
   39.3738   30.8174   48.4448 H   0  0  0  0  0  0  0  0  0  0  0  0
   39.4078   30.5378   46.1834 H   0  0  0  0  0  0  0  0  0  0  0  0
   37.6154   30.5686   46.0572 H   0  0  0  0  0  0  0  0  0  0  0  0
   38.0376   31.5013   44.2362 H   0  0  0  0  0  0  0  0  0  0  0  0
   37.5796   33.2245   44.3605 H   0  0  0  0  0  0  0  0  0  0  0  0
   39.8742   32.2566   43.0825 H   0  0  0  0  0  0  0  0  0  0  0  0
   39.6834   33.9164   43.6151 H   0  0  0  0  0  0  0  0  0  0  0  0
   40.9952   31.5580   45.0593 H   0  0  0  0  0  0  0  0  0  0  0  0
   41.6133   33.1788   44.9475 H   0  0  0  0  0  0  0  0  0  0  0  0
   39.8203   34.0508   46.4446 H   0  0  0  0  0  0  0  0  0  0  0  0
   40.3080   32.5460   47.2189 H   0  0  0  0  0  0  0  0  0  0  0  0
  1  2  1  0
  2  3  1  0
  4  3  1  0
  5  4  1  0
  6  1  1  0
  6  5  1  0
  8  1  1  0
  8  7  2  0
  9  8  1  0
 10  9  2  0
 10 11  1  0
 11 12  2  0
 12  7  1  0
 13  6  1  0
 14 13  1  0
 15 19  1  0
 15 14  1  0
 16 15  1  0
 17 16  1  0
 17 18  1  0
 18 19  1  0
  1 20  1  6
  2 21  1  0
  2 22  1  0
  3 23  1  0
  3 24  1  0
  4 25  1  0
  4 26  1  0
  5 27  1  0
  5 28  1  0
  6 29  1  6
  7 30  1  0
  9 31  1  0
 11 32  1  0
 13 33  1  0
 13 34  1  0
 14 35  1  0
 14 36  1  0
 16 37  1  0
 16 38  1  0
 17 39  1  0
 17 40  1  0
 18 41  1  0
 18 42  1  0
 19 43  1  0
 19 44  1  0
M  ISO  8  20  13  21  13  22  13  23  13  24  13  25  13  26  13  27  13
M  ISO  8  28  13  29  13  30  14  31  14  32  14  33   8  34   8  35   8
M  ISO  8  36   8  37  13  38  13  39  13  40  13  41  13  42  13  43  13
M  ISO  1  44  13
M  END
>  <minimizedAffinity>  (1) 
-5.14572477

>  <minimizedRMSD>  (1) 
3.37665915

$$$$
