
     RDKit          3D

 33 34  0  0  1  0  0  0  0  0999 V2000
   35.4130   30.6460   48.8580 C   0  0  1  0  0  0  0  0  0  0  0  0
   34.7930   30.3400   50.1300 C   0  0  0  0  0  0  0  0  0  0  0  0
   35.4810   29.3010   50.9920 C   0  0  0  0  0  0  0  0  0  0  0  0
   36.9720   29.3460   50.9660 C   0  0  0  0  0  0  0  0  0  0  0  0
   37.6180   29.6760   49.6700 C   0  0  0  0  0  0  0  0  0  0  0  0
   36.9190   30.7560   48.9440 C   0  0  2  0  0  0  0  0  0  0  0  0
   34.0880   28.7650   47.7920 C   0  0  0  0  0  0  0  0  0  0  0  0
   34.9760   29.8520   47.6970 C   0  0  0  0  0  0  0  0  0  0  0  0
   35.4070   30.1390   46.4260 C   0  0  0  0  0  0  0  0  0  0  0  0
   34.9810   29.4060   45.3690 N   0  0  0  0  0  0  0  0  0  0  0  0
   34.1210   28.3690   45.5160 C   0  0  0  0  0  0  0  0  0  0  0  0
   33.6820   28.0620   46.7450 N   0  0  0  0  0  0  0  0  0  0  0  0
   37.1600   32.0380   49.7660 C   0  0  0  0  0  0  0  0  0  0  0  0
   38.4770   32.6850   49.3450 C   0  0  0  0  0  0  0  0  0  0  0  0
   38.6940   32.4100   47.5670 S   0  0  0  0  0  0  0  0  0  0  0  0
   35.0129   31.6473   48.6405 H   0  0  0  0  0  0  0  0  0  0  0  0
   34.7437   31.2737   50.7095 H   0  0  0  0  0  0  0  0  0  0  0  0
   33.8158   29.9031   49.8766 H   0  0  0  0  0  0  0  0  0  0  0  0
   35.1534   29.4491   52.0316 H   0  0  0  0  0  0  0  0  0  0  0  0
   35.1961   28.3220   50.5791 H   0  0  0  0  0  0  0  0  0  0  0  0
   37.2932   30.1017   51.6979 H   0  0  0  0  0  0  0  0  0  0  0  0
   37.2909   28.3170   51.1882 H   0  0  0  0  0  0  0  0  0  0  0  0
   38.6530   29.9945   49.8635 H   0  0  0  0  0  0  0  0  0  0  0  0
   37.5811   28.7744   49.0409 H   0  0  0  0  0  0  0  0  0  0  0  0
   37.3082   30.7266   47.9156 H   0  0  0  0  0  0  0  0  0  0  0  0
   33.7114   28.4843   48.7867 H   0  0  0  0  0  0  0  0  0  0  0  0
   36.1057   30.9729   46.2637 H   0  0  0  0  0  0  0  0  0  0  0  0
   33.7889   27.7893   44.6421 H   0  0  0  0  0  0  0  0  0  0  0  0
   36.3346   32.7438   49.5914 H   0  0  0  0  0  0  0  0  0  0  0  0
   37.2085   31.7797   50.8341 H   0  0  0  0  0  0  0  0  0  0  0  0
   38.4462   33.7644   49.5546 H   0  0  0  0  0  0  0  0  0  0  0  0
   39.3151   32.2440   49.9046 H   0  0  0  0  0  0  0  0  0  0  0  0
   39.5337   31.3458   47.3686 H   0  0  0  0  0  0  0  0  0  0  0  0
  1  6  1  0
  1  2  1  0
  2  3  1  0
  4  3  1  0
  5  4  1  0
  6  5  1  0
  6 13  1  0
  8  7  2  0
  8  1  1  0
  9  8  1  0
 10 11  1  0
 10  9  2  0
 11 12  2  0
 12  7  1  0
 14 13  1  0
 15 14  1  0
  1 16  1  6
  2 17  1  0
  2 18  1  0
  3 19  1  0
  3 20  1  0
  4 21  1  0
  4 22  1  0
  5 23  1  0
  5 24  1  0
  6 25  1  6
  7 26  1  0
  9 27  1  0
 11 28  1  0
 13 29  1  0
 13 30  1  0
 14 31  1  0
 14 32  1  0
 15 33  1  0
M  ISO  8  16  13  17  13  18  13  19  13  20  13  21  13  22  13  23  13
M  ISO  8  24  13  25  13  26  14  27  14  28  14  29   8  30   8  31   8
M  ISO  2  32   8  33  11
M  END
>  <minimizedAffinity>  (1) 
-4.92725801

>  <minimizedRMSD>  (1) 
0.445210636

$$$$
