
     RDKit          3D

 34 35  0  0  1  0  0  0  0  0999 V2000
   35.4750   30.6650   48.8390 C   0  0  1  0  0  0  0  0  0  0  0  0
   34.9440   30.4050   50.1580 C   0  0  0  0  0  0  0  0  0  0  0  0
   35.6850   29.3950   51.0110 C   0  0  0  0  0  0  0  0  0  0  0  0
   37.1710   29.4300   50.8930 C   0  0  0  0  0  0  0  0  0  0  0  0
   37.7420   29.7180   49.5520 C   0  0  0  0  0  0  0  0  0  0  0  0
   36.9810   30.7620   48.8240 C   0  0  2  0  0  0  0  0  0  0  0  0
   34.1510   28.6660   47.9440 C   0  0  0  0  0  0  0  0  0  0  0  0
   34.9730   29.8180   47.7410 C   0  0  0  0  0  0  0  0  0  0  0  0
   35.2850   30.1010   46.4210 C   0  0  0  0  0  0  0  0  0  0  0  0
   34.8090   29.2930   45.4230 N   0  0  0  0  0  0  0  0  0  0  0  0
   34.0390   28.2220   45.6750 C   0  0  0  0  0  0  0  0  0  0  0  0
   33.7130   27.9130   46.9530 N   0  0  0  0  0  0  0  0  0  0  0  0
   37.2860   32.0780   49.5870 C   0  0  0  0  0  0  0  0  0  0  0  0
   38.2670   32.9300   48.7840 C   0  0  0  0  0  0  0  0  0  0  0  0
   39.1230   33.6980   49.6820 N   0  0  0  0  0  0  0  0  0  0  0  0
   35.0578   31.6571   48.6117 H   0  0  0  0  0  0  0  0  0  0  0  0
   34.9346   31.3588   50.7059 H   0  0  0  0  0  0  0  0  0  0  0  0
   33.9530   29.9602   49.9845 H   0  0  0  0  0  0  0  0  0  0  0  0
   35.4231   29.5813   52.0630 H   0  0  0  0  0  0  0  0  0  0  0  0
   35.3742   28.4041   50.6484 H   0  0  0  0  0  0  0  0  0  0  0  0
   37.5389   30.2046   51.5820 H   0  0  0  0  0  0  0  0  0  0  0  0
   37.4966   28.4050   51.1241 H   0  0  0  0  0  0  0  0  0  0  0  0
   38.7800   30.0601   49.6765 H   0  0  0  0  0  0  0  0  0  0  0  0
   37.6900   28.7922   48.9603 H   0  0  0  0  0  0  0  0  0  0  0  0
   37.2867   30.6772   47.7707 H   0  0  0  0  0  0  0  0  0  0  0  0
   33.8711   28.3952   48.9727 H   0  0  0  0  0  0  0  0  0  0  0  0
   35.9122   30.9708   46.1758 H   0  0  0  0  0  0  0  0  0  0  0  0
   33.6741   27.5976   44.8462 H   0  0  0  0  0  0  0  0  0  0  0  0
   36.3514   32.6391   49.7341 H   0  0  0  0  0  0  0  0  0  0  0  0
   37.7320   31.8354   50.5628 H   0  0  0  0  0  0  0  0  0  0  0  0
   38.8916   32.2736   48.1603 H   0  0  0  0  0  0  0  0  0  0  0  0
   37.6997   33.6256   48.1482 H   0  0  0  0  0  0  0  0  0  0  0  0
   38.8796   33.4796   50.6587 H   0  0  0  0  0  0  0  0  0  0  0  0
   40.1085   33.4523   49.5106 H   0  0  0  0  0  0  0  0  0  0  0  0
  1  2  1  0
  2  3  1  0
  4  3  1  0
  5  4  1  0
  6  1  1  0
  6  5  1  0
  6 13  1  0
  8  7  2  0
  8  1  1  0
  9  8  1  0
 10 11  1  0
 10  9  2  0
 11 12  2  0
 12  7  1  0
 14 13  1  0
 14 15  1  0
  1 16  1  6
  2 17  1  0
  2 18  1  0
  3 19  1  0
  3 20  1  0
  4 21  1  0
  4 22  1  0
  5 23  1  0
  5 24  1  0
  6 25  1  6
  7 26  1  0
  9 27  1  0
 11 28  1  0
 13 29  1  0
 13 30  1  0
 14 31  1  0
 14 32  1  0
 15 33  1  0
 15 34  1  0
M  ISO  8  16  13  17  13  18  13  19  13  20  13  21  13  22  13  23  13
M  ISO  8  24  13  25  13  26  14  27  14  28  14  29   8  30   8  31   8
M  ISO  3  32   8  33   5  34   5
M  END
>  <minimizedAffinity>  (1) 
-4.90901804

>  <minimizedRMSD>  (1) 
0.399287373

$$$$
