
     RDKit          3D

 26 28  0  0  0  0  0  0  0  0999 V2000
   34.9210   29.5030   48.4570 C   0  0  0  0  0  0  0  0  0  0  0  0
   34.4760   28.2250   48.8060 C   0  0  0  0  0  0  0  0  0  0  0  0
   33.3600   27.7360   48.1610 C   0  0  0  0  0  0  0  0  0  0  0  0
   32.6510   28.4070   47.2010 C   0  0  0  0  0  0  0  0  0  0  0  0
   31.5660   27.8840   46.6000 N   0  0  0  0  0  0  0  0  0  0  0  0
   30.8840   28.5650   45.6580 C   0  0  0  0  0  0  0  0  0  0  0  0
   31.2800   29.8470   45.2670 C   0  0  0  0  0  0  0  0  0  0  0  0
   32.4000   30.3650   45.9000 C   0  0  0  0  0  0  0  0  0  0  0  0
   33.0980   29.6730   46.8610 C   0  0  0  0  0  0  0  0  0  0  0  0
   34.2140   30.1850   47.4940 C   0  0  0  0  0  0  0  0  0  0  0  0
   37.5430   30.0870   50.9300 C   0  0  0  0  0  0  0  0  0  0  0  0
   38.3110   31.1040   50.3400 C   0  0  0  0  0  0  0  0  0  0  0  0
   37.9180   31.5770   49.0990 C   0  0  0  0  0  0  0  0  0  0  0  0
   36.8150   31.0340   48.5230 N   0  0  0  0  0  0  0  0  0  0  0  0
   36.0870   30.0490   49.1130 C   0  0  0  0  0  0  0  0  0  0  0  0
   36.4630   29.5860   50.3160 N   0  0  0  0  0  0  0  0  0  0  0  0
   38.0670   29.7210   52.1700 O   0  0  0  0  0  0  0  0  0  0  0  0
   34.9984   27.6296   49.5693 H   0  0  0  0  0  0  0  0  0  0  0  0
   33.0127   26.7299   48.4389 H   0  0  0  0  0  0  0  0  0  0  0  0
   30.0017   28.1045   45.1895 H   0  0  0  0  0  0  0  0  0  0  0  0
   30.7333   30.4141   44.4992 H   0  0  0  0  0  0  0  0  0  0  0  0
   32.7442   31.3719   45.6213 H   0  0  0  0  0  0  0  0  0  0  0  0
   34.5557   31.1921   47.2129 H   0  0  0  0  0  0  0  0  0  0  0  0
   39.1973   31.5123   50.8478 H   0  0  0  0  0  0  0  0  0  0  0  0
   38.4850   32.3723   48.5930 H   0  0  0  0  0  0  0  0  0  0  0  0
   37.6273   29.0124   52.7036 H   0  0  0  0  0  0  0  0  0  0  0  0
  1  2  2  0
  1 15  1  0
  3  2  1  0
  4  3  2  0
  5  4  1  0
  6  5  2  0
  7  6  1  0
  7  8  2  0
  8  9  1  0
  9  4  1  0
  9 10  2  0
 10  1  1  0
 11 17  1  0
 12 11  2  0
 13 12  1  0
 14 13  2  0
 14 15  1  0
 15 16  2  0
 16 11  1  0
  2 18  1  0
  3 19  1  0
  6 20  1  0
  7 21  1  0
  8 22  1  0
 10 23  1  0
 12 24  1  0
 13 25  1  0
 17 26  1  0
M  ISO  8  18  14  19  14  20  14  21  14  22  14  23  14  24  14  25  14
M  ISO  1  26   3
M  END
>  <minimizedAffinity>  (1) 
-5.54249859

>  <minimizedRMSD>  (1) 
1.55870068

$$$$
