
     RDKit          3D

 20 21  0  0  0  0  0  0  0  0999 V2000
   37.4860   30.1190   50.9140 C   0  0  0  0  0  0  0  0  0  0  0  0
   38.2690   31.1340   50.3180 C   0  0  0  0  0  0  0  0  0  0  0  0
   37.8990   31.5750   49.0570 C   0  0  0  0  0  0  0  0  0  0  0  0
   36.8170   31.0290   48.4470 N   0  0  0  0  0  0  0  0  0  0  0  0
   36.0740   30.0490   49.0430 C   0  0  0  0  0  0  0  0  0  0  0  0
   36.4270   29.6200   50.2600 N   0  0  0  0  0  0  0  0  0  0  0  0
   34.9080   29.4580   48.3910 C   0  0  0  0  0  0  0  0  0  0  0  0
   34.4550   28.2460   48.8420 C   0  0  0  0  0  0  0  0  0  0  0  0
   33.3690   27.6110   48.2970 C   0  0  0  0  0  0  0  0  0  0  0  0
   32.7530   28.2840   47.2460 C   0  0  0  0  0  0  0  0  0  0  0  0
   33.2080   29.5040   46.7920 C   0  0  0  0  0  0  0  0  0  0  0  0
   34.2800   30.0750   47.3710 N   0  0  0  0  0  0  0  0  0  0  0  0
   37.9520   29.7670   52.1650 O   0  0  0  0  0  0  0  0  0  0  0  0
   39.1411   31.5588   50.8366 H   0  0  0  0  0  0  0  0  0  0  0  0
   38.4790   32.3628   48.5540 H   0  0  0  0  0  0  0  0  0  0  0  0
   34.9847   27.7624   49.6760 H   0  0  0  0  0  0  0  0  0  0  0  0
   33.0099   26.6383   48.6644 H   0  0  0  0  0  0  0  0  0  0  0  0
   31.8761   27.8287   46.7626 H   0  0  0  0  0  0  0  0  0  0  0  0
   32.6963   30.0087   45.9593 H   0  0  0  0  0  0  0  0  0  0  0  0
   37.4879   29.0651   52.6867 H   0  0  0  0  0  0  0  0  0  0  0  0
  1 13  1  0
  2  1  2  0
  3  2  1  0
  4  5  1  0
  4  3  2  0
  5  6  2  0
  6  1  1  0
  7  8  2  0
  7  5  1  0
  9  8  1  0
 10  9  2  0
 11 10  1  0
 11 12  2  0
 12  7  1  0
  2 14  1  0
  3 15  1  0
  8 16  1  0
  9 17  1  0
 10 18  1  0
 11 19  1  0
 13 20  1  0
M  ISO  7  14  14  15  14  16  14  17  14  18  14  19  14  20   3
M  END
>  <minimizedAffinity>  (1) 
-4.78970909

>  <minimizedRMSD>  (1) 
1.74300635

$$$$
