
     RDKit          3D

 28 29  0  0  1  0  0  0  0  0999 V2000
   34.2450   30.5520   47.1890 C   0  0  1  0  0  0  0  0  0  0  0  0
   34.5280   29.7490   48.4350 C   0  0  1  0  0  0  0  0  0  0  0  0
   34.6200   28.3840   48.1740 O   0  0  0  0  0  0  0  0  0  0  0  0
   33.6230   28.0670   47.2220 C   0  0  0  0  0  0  0  0  0  0  0  0
   34.2690   28.3980   45.8840 C   0  0  2  0  0  0  0  0  0  0  0  0
   34.6800   29.8350   45.9340 C   0  0  2  0  0  0  0  0  0  0  0  0
   37.3630   30.0810   50.7870 C   0  0  0  0  0  0  0  0  0  0  0  0
   38.1800   31.0440   50.1570 C   0  0  0  0  0  0  0  0  0  0  0  0
   37.7450   31.5610   48.9390 C   0  0  0  0  0  0  0  0  0  0  0  0
   36.5680   31.1170   48.4230 N   0  0  0  0  0  0  0  0  0  0  0  0
   35.8050   30.1870   49.0600 C   0  0  0  0  0  0  0  0  0  0  0  0
   36.2120   29.6840   50.2290 N   0  0  0  0  0  0  0  0  0  0  0  0
   37.9030   29.6490   51.9830 O   0  0  0  0  0  0  0  0  0  0  0  0
   32.9340   30.9320   47.0420 O   0  0  0  0  0  0  0  0  0  0  0  0
   33.5050   28.0410   44.8030 O   0  0  0  0  0  0  0  0  0  0  0  0
   36.0880   29.9370   45.8980 O   0  0  0  0  0  0  0  0  0  0  0  0
   34.8435   31.4641   47.3300 H   0  0  0  0  0  0  0  0  0  0  0  0
   33.6821   29.9253   49.1157 H   0  0  0  0  0  0  0  0  0  0  0  0
   33.3578   27.0007   47.2745 H   0  0  0  0  0  0  0  0  0  0  0  0
   32.6883   28.6225   47.3885 H   0  0  0  0  0  0  0  0  0  0  0  0
   35.1678   27.7837   45.7264 H   0  0  0  0  0  0  0  0  0  0  0  0
   34.1918   30.3003   45.0650 H   0  0  0  0  0  0  0  0  0  0  0  0
   39.1258   31.3742   50.6113 H   0  0  0  0  0  0  0  0  0  0  0  0
   38.3424   32.3143   48.4046 H   0  0  0  0  0  0  0  0  0  0  0  0
   37.4265   28.9715   52.5252 H   0  0  0  0  0  0  0  0  0  0  0  0
   32.5229   31.0512   47.9347 H   0  0  0  0  0  0  0  0  0  0  0  0
   32.6544   27.6435   45.1169 H   0  0  0  0  0  0  0  0  0  0  0  0
   36.4408   29.9626   46.8227 H   0  0  0  0  0  0  0  0  0  0  0  0
  1 14  1  0
  1  2  1  0
  2 11  1  0
  3  2  1  0
  4  3  1  0
  5 15  1  0
  5  6  1  0
  5  4  1  0
  6 16  1  0
  6  1  1  0
  7 13  1  0
  8  7  2  0
  9  8  1  0
 10  9  2  0
 10 11  1  0
 11 12  2  0
 12  7  1  0
  1 17  1  1
  2 18  1  1
  4 19  1  0
  4 20  1  0
  5 21  1  6
  6 22  1  6
  8 23  1  0
  9 24  1  0
 13 25  1  0
 14 26  1  0
 15 27  1  0
 16 28  1  0
M  ISO  8  17  13  18  13  19  13  20  13  21  13  22  13  23  14  24  14
M  ISO  4  25   3  26   3  27   3  28   3
M  END
>  <minimizedAffinity>  (1) 
-4.76456404

>  <minimizedRMSD>  (1) 
1.96239173

$$$$
