
     RDKit          3D

 19 20  0  0  0  0  0  0  0  0999 V2000
   37.3990   30.0620   50.9640 C   0  0  0  0  0  0  0  0  0  0  0  0
   38.1800   31.0230   50.2910 C   0  0  0  0  0  0  0  0  0  0  0  0
   37.7860   31.4440   49.0290 C   0  0  0  0  0  0  0  0  0  0  0  0
   36.6490   30.9000   48.4920 N   0  0  0  0  0  0  0  0  0  0  0  0
   35.9210   29.9790   49.1620 C   0  0  0  0  0  0  0  0  0  0  0  0
   36.2890   29.5710   50.3690 N   0  0  0  0  0  0  0  0  0  0  0  0
   34.7230   29.4410   48.5350 C   0  0  0  0  0  0  0  0  0  0  0  0
   34.0250   28.4090   49.1260 C   0  0  0  0  0  0  0  0  0  0  0  0
   32.8680   27.8520   48.5700 C   0  0  0  0  0  0  0  0  0  0  0  0
   32.4670   28.3800   47.4170 N   0  0  0  0  0  0  0  0  0  0  0  0
   33.1240   29.3870   46.8140 C   0  0  0  0  0  0  0  0  0  0  0  0
   34.2490   29.9160   47.3720 N   0  0  0  0  0  0  0  0  0  0  0  0
   37.9130   29.7440   52.2040 O   0  0  0  0  0  0  0  0  0  0  0  0
   39.0874   31.4327   50.7588 H   0  0  0  0  0  0  0  0  0  0  0  0
   38.3702   32.1936   48.4751 H   0  0  0  0  0  0  0  0  0  0  0  0
   34.3952   28.0045   50.0796 H   0  0  0  0  0  0  0  0  0  0  0  0
   32.3240   27.0288   49.0562 H   0  0  0  0  0  0  0  0  0  0  0  0
   32.7492   29.7876   45.8606 H   0  0  0  0  0  0  0  0  0  0  0  0
   37.4526   29.0791   52.7750 H   0  0  0  0  0  0  0  0  0  0  0  0
  1 13  1  0
  2  1  2  0
  3  2  1  0
  4  3  2  0
  4  5  1  0
  5  6  2  0
  6  1  1  0
  7  8  2  0
  7  5  1  0
  9  8  1  0
 10  9  2  0
 11 12  2  0
 11 10  1  0
 12  7  1  0
  2 14  1  0
  3 15  1  0
  8 16  1  0
  9 17  1  0
 11 18  1  0
 13 19  1  0
M  ISO  6  14  14  15  14  16  14  17  14  18  14  19   3
M  END
>  <minimizedAffinity>  (1) 
-4.64232969

>  <minimizedRMSD>  (1) 
1.19342685

$$$$
