
     RDKit          3D

 17 17  0  0  0  0  0  0  0  0999 V2000
   37.4100   30.2390   51.0050 C   0  0  0  0  0  0  0  0  0  0  0  0
   38.3420   31.0370   50.3370 C   0  0  0  0  0  0  0  0  0  0  0  0
   37.9610   31.6080   49.1220 C   0  0  0  0  0  0  0  0  0  0  0  0
   36.7100   31.3550   48.6630 N   0  0  0  0  0  0  0  0  0  0  0  0
   35.8240   30.5780   49.3270 C   0  0  0  0  0  0  0  0  0  0  0  0
   36.1880   30.0340   50.4870 N   0  0  0  0  0  0  0  0  0  0  0  0
   37.9160   29.7400   52.1890 O   0  0  0  0  0  0  0  0  0  0  0  0
   34.5450   30.3280   48.8450 O   0  0  0  0  0  0  0  0  0  0  0  0
   33.8190   28.6560   46.9960 O   0  0  0  0  0  0  0  0  0  0  0  0
   34.2110   30.1080   47.1820 P   0  0  0  0  0  0  0  0  0  0  0  0
   35.5740   30.4540   46.2370 O   0  0  0  0  0  0  0  0  0  0  0  0
   32.8960   31.0410   46.6840 O   0  0  0  0  0  0  0  0  0  0  0  0
   39.3445   31.2098   50.7555 H   0  0  0  0  0  0  0  0  0  0  0  0
   38.6548   32.2445   48.5533 H   0  0  0  0  0  0  0  0  0  0  0  0
   37.3553   29.1577   52.7605 H   0  0  0  0  0  0  0  0  0  0  0  0
   36.3441   30.6495   46.8276 H   0  0  0  0  0  0  0  0  0  0  0  0
   32.4142   31.3828   47.4784 H   0  0  0  0  0  0  0  0  0  0  0  0
  1  7  1  0
  2  1  2  0
  3  2  1  0
  4  3  2  0
  4  5  1  0
  5  6  2  0
  6  1  1  0
  8  5  1  0
  9 10  2  0
 10  8  1  0
 11 10  1  0
 12 10  1  0
  2 13  1  0
  3 14  1  0
  7 15  1  0
 11 16  1  0
 12 17  1  0
M  ISO  5  13  14  14  14  15   3  16   3  17   3
M  END
>  <minimizedAffinity>  (1) 
-4.62233257

>  <minimizedRMSD>  (1) 
1.76198864

$$$$
