
     RDKit          3D

 13 13  0  0  0  0  0  0  0  0999 V2000
   37.2800   29.9880   51.1900 C   0  0  0  0  0  0  0  0  0  0  0  0
   37.9400   30.8730   50.3350 C   0  0  0  0  0  0  0  0  0  0  0  0
   37.2580   31.3730   49.2180 C   0  0  0  0  0  0  0  0  0  0  0  0
   35.9720   30.9550   49.0360 N   0  0  0  0  0  0  0  0  0  0  0  0
   35.3590   30.0960   49.8800 C   0  0  0  0  0  0  0  0  0  0  0  0
   36.0000   29.6190   50.9410 N   0  0  0  0  0  0  0  0  0  0  0  0
   34.0140   29.7050   49.6250 N   0  0  0  0  0  0  0  0  0  0  0  0
   38.0880   29.5880   52.2420 O   0  0  0  0  0  0  0  0  0  0  0  0
   38.9792   31.1729   50.5354 H   0  0  0  0  0  0  0  0  0  0  0  0
   37.7385   32.0723   48.5180 H   0  0  0  0  0  0  0  0  0  0  0  0
   33.5382   29.0507   50.2625 H   0  0  0  0  0  0  0  0  0  0  0  0
   33.5167   30.0764   48.8030 H   0  0  0  0  0  0  0  0  0  0  0  0
   37.7395   28.9589   52.9224 H   0  0  0  0  0  0  0  0  0  0  0  0
  1  8  1  0
  2  1  2  0
  3  2  1  0
  4  3  2  0
  4  5  1  0
  5  6  2  0
  6  1  1  0
  7  5  1  0
  2  9  1  0
  3 10  1  0
  7 11  1  0
  7 12  1  0
  8 13  1  0
M  ISO  3   9  14  10  14  13   3
M  END
>  <minimizedAffinity>  (1) 
-3.74245167

>  <minimizedRMSD>  (1) 
0.0843549296

$$$$
