
     RDKit          3D

 12 12  0  0  0  0  0  0  0  0999 V2000
   37.2800   30.0030   51.1710 C   0  0  0  0  0  0  0  0  0  0  0  0
   37.9590   30.8750   50.3120 C   0  0  0  0  0  0  0  0  0  0  0  0
   37.2570   31.3630   49.2030 C   0  0  0  0  0  0  0  0  0  0  0  0
   35.9700   30.9780   49.0120 N   0  0  0  0  0  0  0  0  0  0  0  0
   35.3380   30.1260   49.8690 C   0  0  0  0  0  0  0  0  0  0  0  0
   35.9930   29.6520   50.9310 N   0  0  0  0  0  0  0  0  0  0  0  0
   38.0740   29.5880   52.2270 O   0  0  0  0  0  0  0  0  0  0  0  0
   34.0190   29.7260   49.6820 O   0  0  0  0  0  0  0  0  0  0  0  0
   39.0030   31.1655   50.5007 H   0  0  0  0  0  0  0  0  0  0  0  0
   37.7432   32.0503   48.4950 H   0  0  0  0  0  0  0  0  0  0  0  0
   37.7091   28.9675   52.9067 H   0  0  0  0  0  0  0  0  0  0  0  0
   33.5938   29.1058   50.3259 H   0  0  0  0  0  0  0  0  0  0  0  0
  1  7  1  0
  2  1  2  0
  3  2  1  0
  4  3  2  0
  4  5  1  0
  5  6  2  0
  6  1  1  0
  8  5  1  0
  2  9  1  0
  3 10  1  0
  7 11  1  0
  8 12  1  0
M  ISO  4   9  14  10  14  11   3  12   3
M  END
>  <minimizedAffinity>  (1) 
-3.70364904

>  <minimizedRMSD>  (1) 
0.105186634

$$$$
