
     RDKit          3D

 12 12  0  0  0  0  0  0  0  0999 V2000
   37.2520   29.9410   51.1120 C   0  0  0  0  0  0  0  0  0  0  0  0
   37.6480   31.0450   50.3600 C   0  0  0  0  0  0  0  0  0  0  0  0
   36.9060   31.3950   49.2350 C   0  0  0  0  0  0  0  0  0  0  0  0
   35.8150   30.6290   48.9240 N   0  0  0  0  0  0  0  0  0  0  0  0
   35.4600   29.5600   49.6810 C   0  0  0  0  0  0  0  0  0  0  0  0
   36.1700   29.2230   50.7580 N   0  0  0  0  0  0  0  0  0  0  0  0
   38.0800   29.7150   52.1950 O   0  0  0  0  0  0  0  0  0  0  0  0
   34.0180   28.6050   49.2090 S   0  0  0  0  0  0  0  0  0  0  0  0
   38.5326   31.6307   50.6504 H   0  0  0  0  0  0  0  0  0  0  0  0
   37.1876   32.2595   48.6159 H   0  0  0  0  0  0  0  0  0  0  0  0
   37.9003   28.9568   52.8057 H   0  0  0  0  0  0  0  0  0  0  0  0
   33.3672   28.1740   50.3349 H   0  0  0  0  0  0  0  0  0  0  0  0
  1  7  1  0
  2  1  2  0
  3  2  1  0
  4  3  2  0
  4  5  1  0
  5  6  2  0
  6  1  1  0
  8  5  1  0
  2  9  1  0
  3 10  1  0
  7 11  1  0
  8 12  1  0
M  ISO  4   9  14  10  14  11   3  12  11
M  END
>  <minimizedAffinity>  (1) 
-3.49269199

>  <minimizedRMSD>  (1) 
0.458607465

$$$$
