
     RDKit          3D

 26 27  0  0  1  0  0  0  0  0999 V2000
   36.1340   30.5930   47.2730 C   0  0  0  0  0  0  0  0  0  0  0  0
   37.0070   30.7640   46.1740 C   0  0  0  0  0  0  0  0  0  0  0  0
   36.6120   30.3260   44.9260 C   0  0  0  0  0  0  0  0  0  0  0  0
   35.3710   29.7380   44.8210 N   0  0  0  0  0  0  0  0  0  0  0  0
   34.5520   29.5830   45.8820 C   0  0  0  0  0  0  0  0  0  0  0  0
   34.9450   30.0120   47.0860 N   0  0  0  0  0  0  0  0  0  0  0  0
   33.1410   27.7810   46.5480 C   0  0  0  0  0  0  0  0  0  0  0  0
   34.0000   27.2490   47.3240 O   0  0  0  0  0  0  0  0  0  0  0  0
   33.2700   28.9700   45.7440 N   0  0  0  0  0  0  0  0  0  0  0  0
   36.6520   31.0740   48.4600 O   0  0  0  0  0  0  0  0  0  0  0  0
   36.3220   30.5450   49.7260 C   0  0  2  0  0  0  0  0  0  0  0  0
   37.2650   31.1790   50.7280 C   0  0  0  0  0  0  0  0  0  0  0  0
   37.3890   30.0580   51.7370 C   0  0  0  0  0  0  0  0  0  0  0  0
   37.2170   28.8660   51.0850 O   0  0  0  0  0  0  0  0  0  0  0  0
   36.6880   29.0840   49.8450 C   0  0  0  0  0  0  0  0  0  0  0  0
   37.9889   31.2402   46.3118 H   0  0  0  0  0  0  0  0  0  0  0  0
   37.2642   30.4423   44.0479 H   0  0  0  0  0  0  0  0  0  0  0  0
   32.1722   27.2641   46.4831 H   0  0  0  0  0  0  0  0  0  0  0  0
   32.5218   29.3362   45.1382 H   0  0  0  0  0  0  0  0  0  0  0  0
   35.2462   30.7151   49.8797 H   0  0  0  0  0  0  0  0  0  0  0  0
   38.2357   31.4250   50.2729 H   0  0  0  0  0  0  0  0  0  0  0  0
   36.9156   32.1349   51.1453 H   0  0  0  0  0  0  0  0  0  0  0  0
   38.3853   30.0861   52.2024 H   0  0  0  0  0  0  0  0  0  0  0  0
   36.6272   30.1716   52.5223 H   0  0  0  0  0  0  0  0  0  0  0  0
   35.7886   28.4648   49.7119 H   0  0  0  0  0  0  0  0  0  0  0  0
   37.4228   28.8169   49.0712 H   0  0  0  0  0  0  0  0  0  0  0  0
  1 10  1  0
  2  1  2  0
  3  2  1  0
  4  3  2  0
  4  5  1  0
  5  6  2  0
  6  1  1  0
  7  8  2  0
  9  5  1  0
  9  7  1  0
 11 10  1  0
 11 15  1  0
 11 12  1  0
 12 13  1  0
 14 13  1  0
 15 14  1  0
  2 16  1  0
  3 17  1  0
  7 18  1  0
  9 19  1  0
 11 20  1  1
 12 21  1  0
 12 22  1  0
 13 23  1  0
 13 24  1  0
 15 25  1  0
 15 26  1  0
M  ISO  8  16  14  17  14  18   6  20  13  21  13  22  13  23  13  24  13
M  ISO  2  25  13  26  13
M  END
>  <minimizedAffinity>  (1) 
-3.90614176

>  <minimizedRMSD>  (1) 
3.84668708

$$$$
