
     RDKit          3D

 26 27  0  0  1  0  0  0  0  0999 V2000
   38.0710   31.2470   48.3590 C   0  0  0  0  0  0  0  0  0  0  0  0
   38.2560   32.0160   49.5300 C   0  0  0  0  0  0  0  0  0  0  0  0
   38.9320   33.2310   49.4530 C   0  0  0  0  0  0  0  0  0  0  0  0
   39.3880   33.6170   48.2180 N   0  0  0  0  0  0  0  0  0  0  0  0
   39.2020   32.8660   47.1070 C   0  0  0  0  0  0  0  0  0  0  0  0
   38.5550   31.7110   47.2060 N   0  0  0  0  0  0  0  0  0  0  0  0
   40.6410   32.3720   45.2820 C   0  0  0  0  0  0  0  0  0  0  0  0
   41.0510   31.2700   45.7550 O   0  0  0  0  0  0  0  0  0  0  0  0
   39.6950   33.3090   45.8480 N   0  0  0  0  0  0  0  0  0  0  0  0
   37.3870   30.0860   48.6230 O   0  0  0  0  0  0  0  0  0  0  0  0
   36.2250   29.3130   51.1740 O   0  0  0  0  0  0  0  0  0  0  0  0
   35.6410   29.2630   50.0600 C   0  0  0  0  0  0  0  0  0  0  0  0
   36.0110   30.1520   48.9310 C   0  0  2  0  0  0  0  0  0  0  0  0
   35.1640   29.5860   47.7990 C   0  0  0  0  0  0  0  0  0  0  0  0
   33.9970   28.9650   48.5200 C   0  0  0  0  0  0  0  0  0  0  0  0
   34.5670   28.3710   49.7270 N   0  0  0  0  0  0  0  0  0  0  0  0
   37.8689   31.6575   50.4952 H   0  0  0  0  0  0  0  0  0  0  0  0
   39.0935   33.8548   50.3445 H   0  0  0  0  0  0  0  0  0  0  0  0
   41.0627   32.6552   44.3063 H   0  0  0  0  0  0  0  0  0  0  0  0
   39.4127   34.1897   45.3946 H   0  0  0  0  0  0  0  0  0  0  0  0
   35.8338   31.2171   49.1411 H   0  0  0  0  0  0  0  0  0  0  0  0
   35.7229   28.8297   47.2283 H   0  0  0  0  0  0  0  0  0  0  0  0
   34.8619   30.3468   47.0642 H   0  0  0  0  0  0  0  0  0  0  0  0
   33.2525   29.7314   48.7814 H   0  0  0  0  0  0  0  0  0  0  0  0
   33.4787   28.2194   47.8992 H   0  0  0  0  0  0  0  0  0  0  0  0
   34.2696   27.5172   50.2204 H   0  0  0  0  0  0  0  0  0  0  0  0
  1 10  1  0
  1  2  2  0
  3  2  1  0
  4  3  2  0
  5  6  2  0
  5  4  1  0
  6  1  1  0
  7  8  2  0
  7  9  1  0
  9  5  1  0
 12 11  2  0
 13 10  1  0
 13 12  1  0
 14 15  1  0
 14 13  1  0
 15 16  1  0
 16 12  1  0
  2 17  1  0
  3 18  1  0
  7 19  1  0
  9 20  1  0
 13 21  1  1
 14 22  1  0
 14 23  1  0
 15 24  1  0
 15 25  1  0
 16 26  1  0
M  ISO  8  17  14  18  14  19   6  21  13  22  13  23  13  24  13  25  13
M  ISO  1  26  10
M  END
>  <minimizedAffinity>  (1) 
-5.45283365

>  <minimizedRMSD>  (1) 
5.47712898

$$$$
