
     RDKit          3D

 29 30  0  0  1  0  0  0  0  0999 V2000
   37.3400   30.1330   48.3380 O   0  0  0  0  0  0  0  0  0  0  0  0
   38.0630   31.3030   48.1990 C   0  0  0  0  0  0  0  0  0  0  0  0
   38.2180   32.0170   49.3910 C   0  0  0  0  0  0  0  0  0  0  0  0
   38.9280   33.2110   49.3680 C   0  0  0  0  0  0  0  0  0  0  0  0
   39.4420   33.6250   48.1760 N   0  0  0  0  0  0  0  0  0  0  0  0
   39.2830   32.9220   47.0340 C   0  0  0  0  0  0  0  0  0  0  0  0
   38.6030   31.7830   47.0690 N   0  0  0  0  0  0  0  0  0  0  0  0
   40.7740   32.4600   45.2440 C   0  0  0  0  0  0  0  0  0  0  0  0
   41.1360   31.3390   45.6940 O   0  0  0  0  0  0  0  0  0  0  0  0
   39.8370   33.3900   45.8070 N   0  0  0  0  0  0  0  0  0  0  0  0
   35.4970   28.6550   50.0570 O   0  0  0  0  0  0  0  0  0  0  0  0
   35.2640   29.0350   48.8910 C   0  0  0  0  0  0  0  0  0  0  0  0
   35.9200   30.2110   48.3040 C   0  0  2  0  0  0  0  0  0  0  0  0
   35.4500   30.1380   46.8450 C   0  0  0  0  0  0  0  0  0  0  0  0
   34.1520   29.3840   46.9380 C   0  0  0  0  0  0  0  0  0  0  0  0
   34.3520   28.4010   47.9820 N   0  0  0  0  0  0  0  0  0  0  0  0
   33.7540   27.0860   48.0640 C   0  0  0  0  0  0  0  0  0  0  0  0
   37.7858   31.6404   50.3298 H   0  0  0  0  0  0  0  0  0  0  0  0
   39.0707   33.8037   50.2836 H   0  0  0  0  0  0  0  0  0  0  0  0
   41.2377   32.7655   44.2944 H   0  0  0  0  0  0  0  0  0  0  0  0
   39.5929   34.2921   45.3740 H   0  0  0  0  0  0  0  0  0  0  0  0
   35.6687   31.1358   48.8440 H   0  0  0  0  0  0  0  0  0  0  0  0
   36.1774   29.5955   46.2232 H   0  0  0  0  0  0  0  0  0  0  0  0
   35.3408   31.1277   46.3775 H   0  0  0  0  0  0  0  0  0  0  0  0
   33.3296   30.0648   47.2029 H   0  0  0  0  0  0  0  0  0  0  0  0
   33.8823   28.9145   45.9805 H   0  0  0  0  0  0  0  0  0  0  0  0
   33.6268   26.8063   49.1202 H   0  0  0  0  0  0  0  0  0  0  0  0
   32.7727   27.0978   47.5671 H   0  0  0  0  0  0  0  0  0  0  0  0
   34.4079   26.3542   47.5671 H   0  0  0  0  0  0  0  0  0  0  0  0
  2  1  1  0
  2  3  2  0
  4  3  1  0
  5  4  2  0
  6  7  2  0
  6  5  1  0
  7  2  1  0
  8  9  2  0
  8 10  1  0
 10  6  1  0
 12 11  2  0
 13  1  1  0
 13 12  1  0
 14 15  1  0
 14 13  1  0
 15 16  1  0
 16 17  1  0
 16 12  1  0
  3 18  1  0
  4 19  1  0
  8 20  1  0
 10 21  1  0
 13 22  1  1
 14 23  1  0
 14 24  1  0
 15 25  1  0
 15 26  1  0
 17 27  1  0
 17 28  1  0
 17 29  1  0
M  ISO  8  18  14  19  14  20   6  22  13  23  13  24  13  25  13  26  13
M  ISO  3  27   8  28   8  29   8
M  END
>  <minimizedAffinity>  (1) 
-5.39535284

>  <minimizedRMSD>  (1) 
1.00542021

$$$$
