
     RDKit          3D

 45 47  0  0  1  0  0  0  0  0999 V2000
   34.4950   29.2360   50.0890 O   0  0  0  0  0  0  0  0  0  0  0  0
   34.3430   29.3710   48.8680 C   0  0  0  0  0  0  0  0  0  0  0  0
   35.1560   30.2870   48.0970 C   0  0  2  0  0  0  0  0  0  0  0  0
   34.7170   29.9200   46.6370 C   0  0  0  0  0  0  0  0  0  0  0  0
   33.3090   29.4250   46.8410 C   0  0  0  0  0  0  0  0  0  0  0  0
   33.3750   28.6600   48.0800 N   0  0  0  0  0  0  0  0  0  0  0  0
   32.6210   27.4570   48.4070 C   0  0  0  0  0  0  0  0  0  0  0  0
   31.1480   27.7010   48.2980 C   0  0  0  0  0  0  0  0  0  0  0  0
   30.5370   26.4650   47.6250 C   0  0  0  0  0  0  0  0  0  0  0  0
   29.1070   26.6690   47.2460 C   0  0  0  0  0  0  0  0  0  0  0  0
   28.5320   27.8050   48.0510 C   0  0  0  0  0  0  0  0  0  0  0  0
   28.9680   27.6620   49.5020 C   0  0  0  0  0  0  0  0  0  0  0  0
   30.4610   27.8190   49.6440 C   0  0  0  0  0  0  0  0  0  0  0  0
   36.5550   30.0200   48.1450 O   0  0  0  0  0  0  0  0  0  0  0  0
   37.4170   31.1120   48.2310 C   0  0  0  0  0  0  0  0  0  0  0  0
   37.5840   31.6760   49.4840 C   0  0  0  0  0  0  0  0  0  0  0  0
   38.4350   32.7650   49.6030 C   0  0  0  0  0  0  0  0  0  0  0  0
   39.0650   33.2290   48.4910 N   0  0  0  0  0  0  0  0  0  0  0  0
   38.8920   32.6730   47.2830 C   0  0  0  0  0  0  0  0  0  0  0  0
   38.0760   31.6280   47.1710 N   0  0  0  0  0  0  0  0  0  0  0  0
   40.4100   32.2170   45.5160 C   0  0  0  0  0  0  0  0  0  0  0  0
   40.6140   31.0250   45.8640 O   0  0  0  0  0  0  0  0  0  0  0  0
   39.5640   33.1850   46.1330 N   0  0  0  0  0  0  0  0  0  0  0  0
   35.0190   31.3185   48.4537 H   0  0  0  0  0  0  0  0  0  0  0  0
   35.3587   29.1331   46.2138 H   0  0  0  0  0  0  0  0  0  0  0  0
   34.7910   30.7596   45.9302 H   0  0  0  0  0  0  0  0  0  0  0  0
   32.6095   30.2682   46.9399 H   0  0  0  0  0  0  0  0  0  0  0  0
   32.9466   28.8243   45.9937 H   0  0  0  0  0  0  0  0  0  0  0  0
   32.9051   26.6540   47.7109 H   0  0  0  0  0  0  0  0  0  0  0  0
   32.8528   27.1688   49.4430 H   0  0  0  0  0  0  0  0  0  0  0  0
   31.0080   28.6423   47.7462 H   0  0  0  0  0  0  0  0  0  0  0  0
   31.1137   26.2366   46.7166 H   0  0  0  0  0  0  0  0  0  0  0  0
   30.5766   25.6367   48.3478 H   0  0  0  0  0  0  0  0  0  0  0  0
   29.0422   26.9091   46.1745 H   0  0  0  0  0  0  0  0  0  0  0  0
   28.5385   25.7498   47.4505 H   0  0  0  0  0  0  0  0  0  0  0  0
   28.8973   28.7619   47.6498 H   0  0  0  0  0  0  0  0  0  0  0  0
   27.4339   27.7811   47.9913 H   0  0  0  0  0  0  0  0  0  0  0  0
   28.4677   28.4347   50.1042 H   0  0  0  0  0  0  0  0  0  0  0  0
   28.6902   26.6563   49.8503 H   0  0  0  0  0  0  0  0  0  0  0  0
   30.8435   27.0345   50.3135 H   0  0  0  0  0  0  0  0  0  0  0  0
   30.6715   28.8154   50.0598 H   0  0  0  0  0  0  0  0  0  0  0  0
   37.0567   31.2720   50.3608 H   0  0  0  0  0  0  0  0  0  0  0  0
   38.5972   33.2446   50.5796 H   0  0  0  0  0  0  0  0  0  0  0  0
   40.9537   32.5555   44.6217 H   0  0  0  0  0  0  0  0  0  0  0  0
   39.4504   34.1483   45.7865 H   0  0  0  0  0  0  0  0  0  0  0  0
  2  1  2  0
  3 14  1  0
  3  2  1  0
  4  5  1  0
  4  3  1  0
  5  6  1  0
  6  7  1  0
  6  2  1  0
  8  7  1  0
  8 13  1  0
  9  8  1  0
 10  9  1  0
 10 11  1  0
 11 12  1  0
 12 13  1  0
 14 15  1  0
 15 16  2  0
 16 17  1  0
 18 17  2  0
 19 18  1  0
 20 19  2  0
 20 15  1  0
 21 22  2  0
 21 23  1  0
 23 19  1  0
  3 24  1  1
  4 25  1  0
  4 26  1  0
  5 27  1  0
  5 28  1  0
  7 29  1  0
  7 30  1  0
  8 31  1  0
  9 32  1  0
  9 33  1  0
 10 34  1  0
 10 35  1  0
 11 36  1  0
 11 37  1  0
 12 38  1  0
 12 39  1  0
 13 40  1  0
 13 41  1  0
 16 42  1  0
 17 43  1  0
 21 44  1  0
 23 45  1  0
M  ISO  8  24  13  25  13  26  13  27  13  28  13  29   8  30   8  31  13
M  ISO  8  32  13  33  13  34  13  35  13  36  13  37  13  38  13  39  13
M  ISO  5  40  13  41  13  42  14  43  14  44   6
M  END
>  <minimizedAffinity>  (1) 
-6.21717358

>  <minimizedRMSD>  (1) 
1.51727092

$$$$
