
     RDKit          3D

 43 45  0  0  1  0  0  0  0  0999 V2000
   34.5340   29.6460   50.0000 O   0  0  0  0  0  0  0  0  0  0  0  0
   34.3440   29.6160   48.7720 C   0  0  0  0  0  0  0  0  0  0  0  0
   35.1600   30.3890   47.8600 C   0  0  2  0  0  0  0  0  0  0  0  0
   34.6710   29.8260   46.4820 C   0  0  0  0  0  0  0  0  0  0  0  0
   33.2560   29.4060   46.7910 C   0  0  0  0  0  0  0  0  0  0  0  0
   33.3280   28.8380   48.1310 N   0  0  0  0  0  0  0  0  0  0  0  0
   32.5340   27.7380   48.6470 C   0  0  0  0  0  0  0  0  0  0  0  0
   32.5610   26.5540   47.8860 N   0  0  0  0  0  0  0  0  0  0  0  0
   33.7810   26.0450   47.4250 C   0  0  0  0  0  0  0  0  0  0  0  0
   33.8830   25.8100   45.9450 C   0  0  0  0  0  0  0  0  0  0  0  0
   32.6840   25.2790   45.3630 N   0  0  0  0  0  0  0  0  0  0  0  0
   31.7120   24.9310   46.3960 C   0  0  0  0  0  0  0  0  0  0  0  0
   31.4020   26.2570   47.1030 C   0  0  0  0  0  0  0  0  0  0  0  0
   36.5520   30.0820   47.9190 O   0  0  0  0  0  0  0  0  0  0  0  0
   37.4370   31.1470   48.0680 C   0  0  0  0  0  0  0  0  0  0  0  0
   37.5870   31.6520   49.3450 C   0  0  0  0  0  0  0  0  0  0  0  0
   38.4650   32.7170   49.5300 C   0  0  0  0  0  0  0  0  0  0  0  0
   39.1300   33.2090   48.4570 N   0  0  0  0  0  0  0  0  0  0  0  0
   38.9730   32.7050   47.2170 C   0  0  0  0  0  0  0  0  0  0  0  0
   38.1380   31.6940   47.0530 N   0  0  0  0  0  0  0  0  0  0  0  0
   40.5250   32.2900   45.4760 C   0  0  0  0  0  0  0  0  0  0  0  0
   40.6880   31.0750   45.7760 O   0  0  0  0  0  0  0  0  0  0  0  0
   39.6870   33.2500   46.1130 N   0  0  0  0  0  0  0  0  0  0  0  0
   35.0630   31.4659   48.0621 H   0  0  0  0  0  0  0  0  0  0  0  0
   35.2808   28.9678   46.1632 H   0  0  0  0  0  0  0  0  0  0  0  0
   34.7455   30.5511   45.6582 H   0  0  0  0  0  0  0  0  0  0  0  0
   32.5801   30.2736   46.7723 H   0  0  0  0  0  0  0  0  0  0  0  0
   32.8618   28.6906   46.0542 H   0  0  0  0  0  0  0  0  0  0  0  0
   32.9026   27.4996   49.6556 H   0  0  0  0  0  0  0  0  0  0  0  0
   31.4905   28.0853   48.6229 H   0  0  0  0  0  0  0  0  0  0  0  0
   34.5703   26.7573   47.7072 H   0  0  0  0  0  0  0  0  0  0  0  0
   33.8808   25.0526   47.8889 H   0  0  0  0  0  0  0  0  0  0  0  0
   34.1120   26.7683   45.4559 H   0  0  0  0  0  0  0  0  0  0  0  0
   34.6745   25.0617   45.7914 H   0  0  0  0  0  0  0  0  0  0  0  0
   32.2719   25.9853   44.7367 H   0  0  0  0  0  0  0  0  0  0  0  0
   30.8013   24.5097   45.9453 H   0  0  0  0  0  0  0  0  0  0  0  0
   32.0975   24.1698   47.0902 H   0  0  0  0  0  0  0  0  0  0  0  0
   31.2224   27.0529   46.3653 H   0  0  0  0  0  0  0  0  0  0  0  0
   30.4974   26.1856   47.7248 H   0  0  0  0  0  0  0  0  0  0  0  0
   37.0290   31.2252   50.1914 H   0  0  0  0  0  0  0  0  0  0  0  0
   38.6159   33.1510   50.5294 H   0  0  0  0  0  0  0  0  0  0  0  0
   41.1030   32.6537   44.6137 H   0  0  0  0  0  0  0  0  0  0  0  0
   39.6067   34.2306   45.8081 H   0  0  0  0  0  0  0  0  0  0  0  0
  2  1  2  0
  3 14  1  0
  3  2  1  0
  4  5  1  0
  4  3  1  0
  5  6  1  0
  6  7  1  0
  6  2  1  0
  8  7  1  0
  9  8  1  0
 10  9  1  0
 11 10  1  0
 11 12  1  0
 12 13  1  0
 13  8  1  0
 14 15  1  0
 15 16  2  0
 16 17  1  0
 18 17  2  0
 19 18  1  0
 20 19  2  0
 20 15  1  0
 21 22  2  0
 21 23  1  0
 23 19  1  0
  3 24  1  6
  4 25  1  0
  4 26  1  0
  5 27  1  0
  5 28  1  0
  7 29  1  0
  7 30  1  0
  9 31  1  0
  9 32  1  0
 10 33  1  0
 10 34  1  0
 11 35  1  0
 12 36  1  0
 12 37  1  0
 13 38  1  0
 13 39  1  0
 16 40  1  0
 17 41  1  0
 21 42  1  0
 23 43  1  0
M  ISO  8  24  13  25  13  26  13  27  13  28  13  29   8  30   8  31  13
M  ISO  8  32  13  33  13  34  13  35   5  36  13  37  13  38  13  39  13
M  ISO  3  40  14  41  14  42   6
M  END
>  <minimizedAffinity>  (1) 
-5.47437954

>  <minimizedRMSD>  (1) 
1.43696725

$$$$
