
     RDKit          3D

 30 31  0  0  1  0  0  0  0  0999 V2000
   35.4800   28.6710   50.0500 O   0  0  0  0  0  0  0  0  0  0  0  0
   35.2630   29.0560   48.8930 C   0  0  0  0  0  0  0  0  0  0  0  0
   35.9250   30.2170   48.3450 C   0  0  2  0  0  0  0  0  0  0  0  0
   35.4650   30.1520   46.8540 C   0  0  0  0  0  0  0  0  0  0  0  0
   34.1620   29.4210   46.9290 C   0  0  0  0  0  0  0  0  0  0  0  0
   34.3510   28.4210   47.9680 N   0  0  0  0  0  0  0  0  0  0  0  0
   33.7680   27.0990   48.0520 C   0  0  0  0  0  0  0  0  0  0  0  0
   32.4390   27.1670   48.4350 O   0  0  0  0  0  0  0  0  0  0  0  0
   37.3470   30.1280   48.3120 O   0  0  0  0  0  0  0  0  0  0  0  0
   38.0680   31.3190   48.2390 C   0  0  0  0  0  0  0  0  0  0  0  0
   38.2250   32.0290   49.4150 C   0  0  0  0  0  0  0  0  0  0  0  0
   38.9380   33.2180   49.3680 C   0  0  0  0  0  0  0  0  0  0  0  0
   39.4470   33.6310   48.1800 N   0  0  0  0  0  0  0  0  0  0  0  0
   39.2880   32.9310   47.0440 C   0  0  0  0  0  0  0  0  0  0  0  0
   38.6050   31.7940   47.0930 N   0  0  0  0  0  0  0  0  0  0  0  0
   40.7620   32.4700   45.2450 C   0  0  0  0  0  0  0  0  0  0  0  0
   41.1310   31.3470   45.7050 O   0  0  0  0  0  0  0  0  0  0  0  0
   39.8330   33.3920   45.8090 N   0  0  0  0  0  0  0  0  0  0  0  0
   35.6833   31.1129   48.9357 H   0  0  0  0  0  0  0  0  0  0  0  0
   36.1922   29.5997   46.2407 H   0  0  0  0  0  0  0  0  0  0  0  0
   35.3766   31.1438   46.3866 H   0  0  0  0  0  0  0  0  0  0  0  0
   33.3474   30.1094   47.1984 H   0  0  0  0  0  0  0  0  0  0  0  0
   33.8859   28.9685   45.9652 H   0  0  0  0  0  0  0  0  0  0  0  0
   33.8343   26.6132   47.0673 H   0  0  0  0  0  0  0  0  0  0  0  0
   34.3210   26.5189   48.8055 H   0  0  0  0  0  0  0  0  0  0  0  0
   32.3801   27.1700   49.4232 H   0  0  0  0  0  0  0  0  0  0  0  0
   37.7973   31.6620   50.3596 H   0  0  0  0  0  0  0  0  0  0  0  0
   39.0883   33.8162   50.2788 H   0  0  0  0  0  0  0  0  0  0  0  0
   41.2167   32.7704   44.2895 H   0  0  0  0  0  0  0  0  0  0  0  0
   39.5830   34.2912   45.3733 H   0  0  0  0  0  0  0  0  0  0  0  0
  2  1  2  0
  3  2  1  0
  4  5  1  0
  4  3  1  0
  5  6  1  0
  6  7  1  0
  6  2  1  0
  7  8  1  0
  9  3  1  0
 10  9  1  0
 10 11  2  0
 12 11  1  0
 13 12  2  0
 14 15  2  0
 14 13  1  0
 15 10  1  0
 16 17  2  0
 16 18  1  0
 18 14  1  0
  3 19  1  1
  4 20  1  0
  4 21  1  0
  5 22  1  0
  5 23  1  0
  7 24  1  0
  7 25  1  0
  8 26  1  0
 11 27  1  0
 12 28  1  0
 16 29  1  0
 18 30  1  0
M  ISO  8  19  13  20  13  21  13  22  13  23  13  24   8  25   8  26   3
M  ISO  3  27  14  28  14  29   6
M  END
>  <minimizedAffinity>  (1) 
-5.33051205

>  <minimizedRMSD>  (1) 
0.0858211517

$$$$
