
     RDKit          3D

 11 11  0  0  0  0  0  0  0  0999 V2000
   37.2660   30.1800   51.4190 C   0  0  0  0  0  0  0  0  0  0  0  0
   38.1220   30.7620   50.4730 C   0  0  0  0  0  0  0  0  0  0  0  0
   37.8460   30.5490   49.1110 C   0  0  0  0  0  0  0  0  0  0  0  0
   36.7620   29.7870   48.7870 N   0  0  0  0  0  0  0  0  0  0  0  0
   35.9630   29.2440   49.7230 C   0  0  0  0  0  0  0  0  0  0  0  0
   36.2050   29.4330   51.0320 N   0  0  0  0  0  0  0  0  0  0  0  0
   34.5380   28.2440   49.2890 S   0  0  0  0  0  0  0  0  0  0  0  0
   37.4593   30.3325   52.4911 H   0  0  0  0  0  0  0  0  0  0  0  0
   38.9846   31.3678   50.7875 H   0  0  0  0  0  0  0  0  0  0  0  0
   38.4858   30.9843   48.3292 H   0  0  0  0  0  0  0  0  0  0  0  0
   33.9195   27.8100   50.4318 H   0  0  0  0  0  0  0  0  0  0  0  0
  2  1  2  0
  3  2  1  0
  4  3  2  0
  4  5  1  0
  5  6  2  0
  6  1  1  0
  7  5  1  0
  1  8  1  0
  2  9  1  0
  3 10  1  0
  7 11  1  0
M  ISO  4   8  14   9  14  10  14  11  11
M  END
>  <minimizedAffinity>  (1) 
-3.1826396

>  <minimizedRMSD>  (1) 
0.27999562

$$$$
