
     RDKit          3D

 20 21  0  0  0  0  0  0  0  0999 V2000
   31.7540   28.6440   46.6210 C   0  0  0  0  0  0  0  0  0  0  0  0
   32.0380   29.8470   45.9790 C   0  0  0  0  0  0  0  0  0  0  0  0
   33.1800   30.5610   46.3820 C   0  0  0  0  0  0  0  0  0  0  0  0
   33.9470   30.0320   47.3820 N   0  0  0  0  0  0  0  0  0  0  0  0
   33.6370   28.8740   47.9700 C   0  0  0  0  0  0  0  0  0  0  0  0
   32.5520   28.1750   47.6030 N   0  0  0  0  0  0  0  0  0  0  0  0
   34.6370   28.1750   49.2810 S   0  0  0  0  0  0  0  0  0  0  0  0
   36.0350   29.2620   49.6110 C   0  0  0  0  0  0  0  0  0  0  0  0
   36.8090   29.7980   48.6040 C   0  0  0  0  0  0  0  0  0  0  0  0
   37.8590   30.6240   49.0060 C   0  0  0  0  0  0  0  0  0  0  0  0
   38.0560   30.8500   50.3710 C   0  0  0  0  0  0  0  0  0  0  0  0
   37.2550   30.2920   51.3420 C   0  0  0  0  0  0  0  0  0  0  0  0
   36.2310   29.4850   50.9400 N   0  0  0  0  0  0  0  0  0  0  0  0
   30.8658   28.0675   46.3231 H   0  0  0  0  0  0  0  0  0  0  0  0
   31.3866   30.2279   45.1786 H   0  0  0  0  0  0  0  0  0  0  0  0
   33.4481   31.5163   45.9070 H   0  0  0  0  0  0  0  0  0  0  0  0
   36.6099   29.5863   47.5431 H   0  0  0  0  0  0  0  0  0  0  0  0
   38.5208   31.0897   48.2609 H   0  0  0  0  0  0  0  0  0  0  0  0
   38.8860   31.5011   50.6828 H   0  0  0  0  0  0  0  0  0  0  0  0
   37.4351   30.4907   52.4088 H   0  0  0  0  0  0  0  0  0  0  0  0
  1  6  2  0
  2  3  2  0
  2  1  1  0
  3  4  1  0
  4  5  2  0
  5  7  1  0
  6  5  1  0
  7  8  1  0
  8 13  2  0
  9 10  2  0
  9  8  1  0
 10 11  1  0
 11 12  2  0
 13 12  1  0
  1 14  1  0
  2 15  1  0
  3 16  1  0
  9 17  1  0
 10 18  1  0
 11 19  1  0
 12 20  1  0
M  ISO  7  14  14  15  14  16  14  17  14  18  14  19  14  20  14
M  END
>  <minimizedAffinity>  (1) 
-4.22391653

>  <minimizedRMSD>  (1) 
5.4557519

$$$$
