
     RDKit          3D

 21 22  0  0  0  0  0  0  0  0999 V2000
   33.9790   28.9860   49.6740 S   0  0  0  0  0  0  0  0  0  0  0  0
   37.8450   29.5870   50.2810 C   0  0  0  0  0  0  0  0  0  0  0  0
   38.0250   30.9660   50.1440 C   0  0  0  0  0  0  0  0  0  0  0  0
   36.8970   31.7610   49.8490 C   0  0  0  0  0  0  0  0  0  0  0  0
   35.6930   31.1430   49.7110 N   0  0  0  0  0  0  0  0  0  0  0  0
   35.5580   29.8020   49.8510 C   0  0  0  0  0  0  0  0  0  0  0  0
   36.6200   29.0190   50.1340 N   0  0  0  0  0  0  0  0  0  0  0  0
   33.6620   30.5470   46.8860 Cl  0  0  0  0  0  0  0  0  0  0  0  0
   33.7480   28.8180   46.8230 C   0  0  0  0  0  0  0  0  0  0  0  0
   33.8840   28.2250   48.0600 C   0  0  0  0  0  0  0  0  0  0  0  0
   33.9650   26.8310   48.1600 C   0  0  0  0  0  0  0  0  0  0  0  0
   33.9100   26.0340   47.0120 C   0  0  0  0  0  0  0  0  0  0  0  0
   33.7750   26.6390   45.7810 C   0  0  0  0  0  0  0  0  0  0  0  0
   33.6960   28.0140   45.7030 C   0  0  0  0  0  0  0  0  0  0  0  0
   38.7113   28.9498   50.5121 H   0  0  0  0  0  0  0  0  0  0  0  0
   39.0199   31.4199   50.2630 H   0  0  0  0  0  0  0  0  0  0  0  0
   36.9888   32.8511   49.7337 H   0  0  0  0  0  0  0  0  0  0  0  0
   34.0726   26.3594   49.1479 H   0  0  0  0  0  0  0  0  0  0  0  0
   33.9737   24.9387   47.0905 H   0  0  0  0  0  0  0  0  0  0  0  0
   33.7305   26.0293   44.8665 H   0  0  0  0  0  0  0  0  0  0  0  0
   33.5879   28.4851   44.7149 H   0  0  0  0  0  0  0  0  0  0  0  0
  1  6  1  0
  3  2  2  0
  4  3  1  0
  5  4  2  0
  5  6  1  0
  6  7  2  0
  7  2  1  0
  9  8  1  0
  9 10  2  0
 10 11  1  0
 10  1  1  0
 12 11  2  0
 13 12  1  0
 14 13  2  0
 14  9  1  0
  2 15  1  0
  3 16  1  0
  4 17  1  0
 11 18  1  0
 12 19  1  0
 13 20  1  0
 14 21  1  0
M  ISO  7  15  14  16  14  17  14  18  14  19  14  20  14  21  14
M  END
>  <minimizedAffinity>  (1) 
-3.95782733

>  <minimizedRMSD>  (1) 
2.92180181

$$$$
