
     RDKit          3D

 33 35  0  0  1  0  0  0  0  0999 V2000
   32.1590   28.3050   47.5190 C   0  0  2  0  0  0  0  0  0  0  0  0
   33.4470   28.1640   48.3010 C   0  0  1  0  0  0  0  0  0  0  0  0
   33.8880   26.8650   48.1470 O   0  0  0  0  0  0  0  0  0  0  0  0
   33.1170   26.2360   47.2010 C   0  0  0  0  0  0  0  0  0  0  0  0
   32.4500   27.3460   46.3730 C   0  0  1  0  0  0  0  0  0  0  0  0
   31.9880   29.6020   47.0580 O   0  0  0  0  0  0  0  0  0  0  0  0
   34.6760   29.2490   47.4770 S   0  0  0  0  0  0  0  0  0  0  0  0
   37.1480   29.3380   50.5640 C   0  0  0  0  0  0  0  0  0  0  0  0
   37.6620   30.6360   50.5810 C   0  0  0  0  0  0  0  0  0  0  0  0
   37.2260   31.5240   49.5940 C   0  0  0  0  0  0  0  0  0  0  0  0
   36.3270   31.0780   48.6750 N   0  0  0  0  0  0  0  0  0  0  0  0
   35.8540   29.8060   48.6970 C   0  0  0  0  0  0  0  0  0  0  0  0
   36.2550   28.9270   49.6340 N   0  0  0  0  0  0  0  0  0  0  0  0
   31.3180   26.8550   45.7700 O   0  0  0  0  0  0  0  0  0  0  0  0
   30.0390   27.2480   46.1120 C   0  0  0  0  0  0  0  0  0  0  0  0
   29.3750   26.2660   46.8210 C   0  0  0  0  0  0  0  0  0  0  0  0
   28.0630   26.4280   47.2810 C   0  0  0  0  0  0  0  0  0  0  0  0
   27.4510   27.6500   46.9830 C   0  0  0  0  0  0  0  0  0  0  0  0
   28.1450   28.6070   46.2730 C   0  0  0  0  0  0  0  0  0  0  0  0
   29.4240   28.4200   45.8380 N   0  0  0  0  0  0  0  0  0  0  0  0
   31.2410   28.0932   48.0868 H   0  0  0  0  0  0  0  0  0  0  0  0
   33.3108   28.4168   49.3629 H   0  0  0  0  0  0  0  0  0  0  0  0
   33.7465   25.6063   46.5551 H   0  0  0  0  0  0  0  0  0  0  0  0
   32.3657   25.5835   47.6699 H   0  0  0  0  0  0  0  0  0  0  0  0
   33.0182   27.7855   45.5400 H   0  0  0  0  0  0  0  0  0  0  0  0
   31.9068   30.2181   47.8286 H   0  0  0  0  0  0  0  0  0  0  0  0
   37.4803   28.6250   51.3329 H   0  0  0  0  0  0  0  0  0  0  0  0
   38.3868   30.9496   51.3467 H   0  0  0  0  0  0  0  0  0  0  0  0
   37.6002   32.5579   49.5608 H   0  0  0  0  0  0  0  0  0  0  0  0
   29.8970   25.3210   47.0321 H   0  0  0  0  0  0  0  0  0  0  0  0
   27.5429   25.6394   47.8446 H   0  0  0  0  0  0  0  0  0  0  0  0
   26.4205   27.8467   47.3136 H   0  0  0  0  0  0  0  0  0  0  0  0
   27.6461   29.5612   46.0481 H   0  0  0  0  0  0  0  0  0  0  0  0
  1  2  1  0
  3  2  1  0
  4  3  1  0
  5  4  1  0
  5  1  1  0
  6  1  1  0
  7  2  1  0
  7 12  1  0
  8  9  2  0
 10  9  1  0
 11 12  1  0
 11 10  2  0
 12 13  2  0
 13  8  1  0
 14 15  1  0
 14  5  1  0
 15 16  2  0
 16 17  1  0
 18 17  2  0
 19 18  1  0
 20 15  1  0
 20 19  2  0
  1 21  1  1
  2 22  1  1
  4 23  1  0
  4 24  1  0
  5 25  1  6
  6 26  1  0
  8 27  1  0
  9 28  1  0
 10 29  1  0
 16 30  1  0
 17 31  1  0
 18 32  1  0
 19 33  1  0
M  ISO  8  21  13  22  13  23  13  24  13  25  13  26   3  27  14  28  14
M  ISO  5  29  14  30  14  31  14  32  14  33  14
M  END
>  <minimizedAffinity>  (1) 
-4.45914507

>  <minimizedRMSD>  (1) 
2.63541913

$$$$
