
     RDKit          3D

 40 42  0  0  1  0  0  0  0  0999 V2000
   32.4610   28.4270   47.5040 C   0  0  2  0  0  0  0  0  0  0  0  0
   33.6670   28.5310   48.4130 C   0  0  1  0  0  0  0  0  0  0  0  0
   34.2380   27.2850   48.4890 O   0  0  0  0  0  0  0  0  0  0  0  0
   33.6550   26.4590   47.5540 C   0  0  0  0  0  0  0  0  0  0  0  0
   32.9460   27.3700   46.5530 C   0  0  1  0  0  0  0  0  0  0  0  0
   32.2220   29.6410   46.8420 O   0  0  0  0  0  0  0  0  0  0  0  0
   34.8470   29.6370   47.5790 S   0  0  0  0  0  0  0  0  0  0  0  0
   37.5140   29.5270   50.4970 C   0  0  0  0  0  0  0  0  0  0  0  0
   38.1010   30.7840   50.5160 C   0  0  0  0  0  0  0  0  0  0  0  0
   37.6500   31.7180   49.5750 C   0  0  0  0  0  0  0  0  0  0  0  0
   36.6670   31.3510   48.6990 N   0  0  0  0  0  0  0  0  0  0  0  0
   36.1250   30.1170   48.7190 C   0  0  0  0  0  0  0  0  0  0  0  0
   36.5450   29.1920   49.6200 N   0  0  0  0  0  0  0  0  0  0  0  0
   31.9160   26.6940   45.9150 O   0  0  0  0  0  0  0  0  0  0  0  0
   32.1290   26.5230   44.5590 C   0  0  0  0  0  0  0  0  0  0  0  0
   33.2800   27.3880   44.0660 C   0  0  0  0  0  0  0  0  0  0  0  0
   34.2000   26.6460   43.1380 C   0  0  0  0  0  0  0  0  0  0  0  0
   33.4550   25.8120   42.1240 C   0  0  0  0  0  0  0  0  0  0  0  0
   32.3570   24.9720   42.7130 C   0  0  0  0  0  0  0  0  0  0  0  0
   32.4860   25.0860   44.2350 C   0  0  0  0  0  0  0  0  0  0  0  0
   31.5111   28.1966   48.0087 H   0  0  0  0  0  0  0  0  0  0  0  0
   33.3997   28.8989   49.4146 H   0  0  0  0  0  0  0  0  0  0  0  0
   34.4238   25.8597   47.0443 H   0  0  0  0  0  0  0  0  0  0  0  0
   32.9486   25.7601   48.0257 H   0  0  0  0  0  0  0  0  0  0  0  0
   33.5518   27.7528   45.7184 H   0  0  0  0  0  0  0  0  0  0  0  0
   32.0807   30.3585   47.5093 H   0  0  0  0  0  0  0  0  0  0  0  0
   37.8516   28.7746   51.2250 H   0  0  0  0  0  0  0  0  0  0  0  0
   38.8888   31.0367   51.2409 H   0  0  0  0  0  0  0  0  0  0  0  0
   38.0797   32.7301   49.5414 H   0  0  0  0  0  0  0  0  0  0  0  0
   31.1900   26.8100   44.0630 H   0  0  0  0  0  0  0  0  0  0  0  0
   32.8657   28.2562   43.5325 H   0  0  0  0  0  0  0  0  0  0  0  0
   33.8671   27.6957   44.9438 H   0  0  0  0  0  0  0  0  0  0  0  0
   34.8242   27.3766   42.6026 H   0  0  0  0  0  0  0  0  0  0  0  0
   34.8079   25.9623   43.7488 H   0  0  0  0  0  0  0  0  0  0  0  0
   34.1751   25.1433   41.6298 H   0  0  0  0  0  0  0  0  0  0  0  0
   32.9786   26.5131   41.4229 H   0  0  0  0  0  0  0  0  0  0  0  0
   31.3758   25.3468   42.3863 H   0  0  0  0  0  0  0  0  0  0  0  0
   32.4399   23.9251   42.3856 H   0  0  0  0  0  0  0  0  0  0  0  0
   31.7911   24.3943   44.7337 H   0  0  0  0  0  0  0  0  0  0  0  0
   33.4969   24.8259   44.5820 H   0  0  0  0  0  0  0  0  0  0  0  0
  1  2  1  0
  2  3  1  0
  4  3  1  0
  5  1  1  0
  5  4  1  0
  6  1  1  0
  7  2  1  0
  7 12  1  0
  8  9  2  0
 10  9  1  0
 11 12  1  0
 11 10  2  0
 12 13  2  0
 13  8  1  0
 14  5  1  0
 15 14  1  0
 16 15  1  0
 17 16  1  0
 18 19  1  0
 18 17  1  0
 19 20  1  0
 20 15  1  0
  1 21  1  1
  2 22  1  1
  4 23  1  0
  4 24  1  0
  5 25  1  6
  6 26  1  0
  8 27  1  0
  9 28  1  0
 10 29  1  0
 15 30  1  0
 16 31  1  0
 16 32  1  0
 17 33  1  0
 17 34  1  0
 18 35  1  0
 18 36  1  0
 19 37  1  0
 19 38  1  0
 20 39  1  0
 20 40  1  0
M  ISO  8  21  13  22  13  23  13  24  13  25  13  26   3  27  14  28  14
M  ISO  8  29  14  30  13  31  13  32  13  33  13  34  13  35  13  36  13
M  ISO  4  37  13  38  13  39  13  40  13
M  END
>  <minimizedAffinity>  (1) 
-3.77577233

>  <minimizedRMSD>  (1) 
0.582116306

$$$$
