
     RDKit          3D

 39 41  0  0  1  0  0  0  0  0999 V2000
   32.3580   28.3280   47.4640 C   0  0  2  0  0  0  0  0  0  0  0  0
   33.5710   28.3570   48.3720 C   0  0  1  0  0  0  0  0  0  0  0  0
   34.1300   27.1060   48.3620 O   0  0  0  0  0  0  0  0  0  0  0  0
   33.5180   26.3460   47.3820 C   0  0  0  0  0  0  0  0  0  0  0  0
   32.8390   27.3460   46.4320 C   0  0  1  0  0  0  0  0  0  0  0  0
   32.1270   29.5920   46.9030 O   0  0  0  0  0  0  0  0  0  0  0  0
   34.7710   29.5060   47.6070 S   0  0  0  0  0  0  0  0  0  0  0  0
   37.3420   29.3200   50.6320 C   0  0  0  0  0  0  0  0  0  0  0  0
   37.8310   30.6330   50.7530 C   0  0  0  0  0  0  0  0  0  0  0  0
   37.3480   31.6080   49.8690 C   0  0  0  0  0  0  0  0  0  0  0  0
   36.4350   31.2310   48.9440 N   0  0  0  0  0  0  0  0  0  0  0  0
   35.9840   29.9640   48.8520 C   0  0  0  0  0  0  0  0  0  0  0  0
   36.4260   29.0020   49.6840 N   0  0  0  0  0  0  0  0  0  0  0  0
   31.8100   26.7240   45.7470 O   0  0  0  0  0  0  0  0  0  0  0  0
   31.6950   27.7650   41.9260 N   0  0  0  0  0  0  0  0  0  0  0  0
   32.7660   28.3970   42.6470 C   0  0  0  0  0  0  0  0  0  0  0  0
   33.0970   27.6840   43.9610 C   0  0  0  0  0  0  0  0  0  0  0  0
   31.8050   27.0190   44.3940 C   0  0  0  0  0  0  0  0  0  0  0  0
   30.6860   27.9970   44.0580 C   0  0  0  0  0  0  0  0  0  0  0  0
   30.4140   27.8410   42.5700 C   0  0  0  0  0  0  0  0  0  0  0  0
   31.4072   28.0618   47.9489 H   0  0  0  0  0  0  0  0  0  0  0  0
   33.3076   28.6607   49.3959 H   0  0  0  0  0  0  0  0  0  0  0  0
   34.2656   25.7496   46.8384 H   0  0  0  0  0  0  0  0  0  0  0  0
   32.7905   25.6427   47.8134 H   0  0  0  0  0  0  0  0  0  0  0  0
   33.4530   27.7872   45.6330 H   0  0  0  0  0  0  0  0  0  0  0  0
   32.0055   30.2569   47.6264 H   0  0  0  0  0  0  0  0  0  0  0  0
   37.7077   28.5400   51.3160 H   0  0  0  0  0  0  0  0  0  0  0  0
   38.5743   30.8887   51.5225 H   0  0  0  0  0  0  0  0  0  0  0  0
   37.7006   32.6484   49.9256 H   0  0  0  0  0  0  0  0  0  0  0  0
   31.9339   26.7707   41.8023 H   0  0  0  0  0  0  0  0  0  0  0  0
   33.6642   28.3990   42.0120 H   0  0  0  0  0  0  0  0  0  0  0  0
   32.4409   29.4179   42.8963 H   0  0  0  0  0  0  0  0  0  0  0  0
   33.8833   26.9312   43.8030 H   0  0  0  0  0  0  0  0  0  0  0  0
   33.4729   28.3830   44.7226 H   0  0  0  0  0  0  0  0  0  0  0  0
   31.6708   26.0595   43.8731 H   0  0  0  0  0  0  0  0  0  0  0  0
   29.7827   27.7557   44.6375 H   0  0  0  0  0  0  0  0  0  0  0  0
   30.9707   29.0302   44.3058 H   0  0  0  0  0  0  0  0  0  0  0  0
   29.8507   28.7078   42.1940 H   0  0  0  0  0  0  0  0  0  0  0  0
   29.8138   26.9416   42.3680 H   0  0  0  0  0  0  0  0  0  0  0  0
  1  2  1  0
  3  2  1  0
  4  3  1  0
  5  4  1  0
  5  1  1  0
  6  1  1  0
  7  2  1  0
  7 12  1  0
  8  9  2  0
 10  9  1  0
 11 10  2  0
 12 11  1  0
 12 13  2  0
 13  8  1  0
 14  5  1  0
 15 20  1  0
 15 16  1  0
 16 17  1  0
 17 18  1  0
 18 14  1  0
 19 18  1  0
 20 19  1  0
  1 21  1  1
  2 22  1  1
  4 23  1  0
  4 24  1  0
  5 25  1  6
  6 26  1  0
  8 27  1  0
  9 28  1  0
 10 29  1  0
 15 30  1  0
 16 31  1  0
 16 32  1  0
 17 33  1  0
 17 34  1  0
 18 35  1  0
 19 36  1  0
 19 37  1  0
 20 38  1  0
 20 39  1  0
M  ISO  8  21  13  22  13  23  13  24  13  25  13  26   3  27  14  28  14
M  ISO  8  29  14  30   5  31  13  32  13  33  13  34  13  35  13  36  13
M  ISO  3  37  13  38  13  39  13
M  END
>  <minimizedAffinity>  (1) 
-3.76604438

>  <minimizedRMSD>  (1) 
0.498138458

$$$$
