
     RDKit          3D

 36 38  0  0  1  0  0  0  0  0999 V2000
   39.7130   31.6020   46.2140 S   0  0  0  0  0  0  0  0  0  0  0  0
   40.0080   32.7880   43.7940 N   0  0  0  0  0  0  0  0  0  0  0  0
   39.1050   32.7460   44.9100 C   0  0  1  0  0  0  0  0  0  0  0  0
   37.7610   32.2240   44.4880 C   0  0  0  0  0  0  0  0  0  0  0  0
   37.9680   30.8950   43.9350 N   0  0  0  0  0  0  0  0  0  0  0  0
   38.6850   31.1310   42.6680 C   0  0  0  0  0  0  0  0  0  0  0  0
   40.0840   31.5670   43.0580 C   0  0  2  0  0  0  0  0  0  0  0  0
   40.7280   30.5120   43.8050 N   0  0  0  0  0  0  0  0  0  0  0  0
   37.7880   33.0000   49.4960 C   0  0  0  0  0  0  0  0  0  0  0  0
   38.5730   32.9780   48.3620 C   0  0  0  0  0  0  0  0  0  0  0  0
   38.7350   31.7860   47.6870 C   0  0  0  0  0  0  0  0  0  0  0  0
   38.1020   30.6630   48.1800 N   0  0  0  0  0  0  0  0  0  0  0  0
   37.3580   30.7580   49.2840 C   0  0  0  0  0  0  0  0  0  0  0  0
   37.1890   31.8970   49.9490 N   0  0  0  0  0  0  0  0  0  0  0  0
   36.6940   29.5520   49.7840 C   0  0  0  0  0  0  0  0  0  0  0  0
   37.1810   28.7890   50.6410 O   0  0  0  0  0  0  0  0  0  0  0  0
   35.3670   29.2040   49.2510 C   0  0  0  0  0  0  0  0  0  0  0  0
   34.6190   30.0520   48.4380 C   0  0  0  0  0  0  0  0  0  0  0  0
   33.4790   29.3530   48.1770 N   0  0  0  0  0  0  0  0  0  0  0  0
   33.4870   28.1460   48.7730 C   0  0  0  0  0  0  0  0  0  0  0  0
   34.6620   28.0800   49.4290 N   0  0  0  0  0  0  0  0  0  0  0  0
   39.6964   33.5324   43.1539 H   0  0  0  0  0  0  0  0  0  0  0  0
   39.0340   33.7753   45.2914 H   0  0  0  0  0  0  0  0  0  0  0  0
   37.0884   32.1698   45.3567 H   0  0  0  0  0  0  0  0  0  0  0  0
   37.3013   32.8891   43.7422 H   0  0  0  0  0  0  0  0  0  0  0  0
   38.5358   30.3193   44.5731 H   0  0  0  0  0  0  0  0  0  0  0  0
   38.1860   31.9207   42.0872 H   0  0  0  0  0  0  0  0  0  0  0  0
   38.7034   30.2282   42.0398 H   0  0  0  0  0  0  0  0  0  0  0  0
   40.6955   31.7549   42.1631 H   0  0  0  0  0  0  0  0  0  0  0  0
   40.6194   30.6899   44.8137 H   0  0  0  0  0  0  0  0  0  0  0  0
   40.2941   29.6087   43.5670 H   0  0  0  0  0  0  0  0  0  0  0  0
   37.6529   33.9473   50.0386 H   0  0  0  0  0  0  0  0  0  0  0  0
   39.0615   33.8955   48.0021 H   0  0  0  0  0  0  0  0  0  0  0  0
   34.8879   31.0589   48.0860 H   0  0  0  0  0  0  0  0  0  0  0  0
   32.7056   29.7050   47.5949 H   0  0  0  0  0  0  0  0  0  0  0  0
   32.7014   27.3771   48.7330 H   0  0  0  0  0  0  0  0  0  0  0  0
  1 11  1  0
  2  3  1  0
  3  1  1  0
  4  3  1  0
  5  4  1  0
  6  7  1  0
  6  5  1  0
  7  2  1  0
  7  8  1  0
  9 14  2  0
 10  9  1  0
 11 12  1  0
 11 10  2  0
 12 13  2  0
 13 15  1  0
 13 14  1  0
 15 16  2  0
 17 21  1  0
 17 15  1  0
 18 17  2  0
 19 18  1  0
 19 20  1  0
 20 21  2  0
  2 22  1  0
  3 23  1  1
  4 24  1  0
  4 25  1  0
  5 26  1  0
  6 27  1  0
  6 28  1  0
  7 29  1  6
  8 30  1  0
  8 31  1  0
  9 32  1  0
 10 33  1  0
 18 34  1  0
 19 35  1  0
 20 36  1  0
M  ISO  8  22   5  23  13  24  13  25  13  26   5  27  13  28  13  29  13
M  ISO  7  30   5  31   5  32  14  33  14  34  14  35   9  36  14
M  END
>  <minimizedAffinity>  (1) 
-6.10133934

>  <minimizedRMSD>  (1) 
2.5856092

$$$$
