
     RDKit          3D

 47 50  0  0  1  0  0  0  0  0999 V2000
   32.2780   28.6620   47.2890 C   0  0  2  0  0  0  0  0  0  0  0  0
   33.5020   28.4220   48.1220 C   0  0  1  0  0  0  0  0  0  0  0  0
   33.9030   27.1360   47.9190 O   0  0  0  0  0  0  0  0  0  0  0  0
   33.2160   26.6030   46.8330 C   0  0  0  0  0  0  0  0  0  0  0  0
   32.6370   27.7630   46.0640 C   0  0  1  0  0  0  0  0  0  0  0  0
   32.2220   30.0070   46.8680 O   0  0  0  0  0  0  0  0  0  0  0  0
   34.8260   29.5280   47.4900 S   0  0  0  0  0  0  0  0  0  0  0  0
   37.1050   29.2320   50.7150 C   0  0  0  0  0  0  0  0  0  0  0  0
   37.6200   30.5150   50.9150 C   0  0  0  0  0  0  0  0  0  0  0  0
   37.2430   31.5130   50.0110 C   0  0  0  0  0  0  0  0  0  0  0  0
   36.4010   31.1890   48.9890 N   0  0  0  0  0  0  0  0  0  0  0  0
   35.9290   29.9330   48.8350 C   0  0  0  0  0  0  0  0  0  0  0  0
   36.2710   28.9350   49.6920 N   0  0  0  0  0  0  0  0  0  0  0  0
   31.5040   27.3530   45.4020 O   0  0  0  0  0  0  0  0  0  0  0  0
   29.9070   29.6390   44.4770 Cl  0  0  0  0  0  0  0  0  0  0  0  0
   29.4320   28.3430   45.5480 C   0  0  0  0  0  0  0  0  0  0  0  0
   30.2720   27.3140   45.9050 C   0  0  0  0  0  0  0  0  0  0  0  0
   29.7750   26.3230   46.7530 C   0  0  0  0  0  0  0  0  0  0  0  0
   28.4730   26.3880   47.2130 C   0  0  0  0  0  0  0  0  0  0  0  0
   27.6270   27.4100   46.8640 C   0  0  0  0  0  0  0  0  0  0  0  0
   28.1240   28.4090   46.0100 C   0  0  0  0  0  0  0  0  0  0  0  0
   27.1670   29.4290   45.6510 N   0  0  0  0  0  0  0  0  0  0  0  0
   26.9260   30.5400   46.5950 C   0  0  0  0  0  0  0  0  0  0  0  0
   26.8910   31.8710   45.9080 C   0  0  0  0  0  0  0  0  0  0  0  0
   26.2890   31.9090   44.6840 O   0  0  0  0  0  0  0  0  0  0  0  0
   26.7140   30.8860   43.8290 C   0  0  0  0  0  0  0  0  0  0  0  0
   26.3220   29.5960   44.5140 C   0  0  0  0  0  0  0  0  0  0  0  0
   31.3212   28.4549   47.7907 H   0  0  0  0  0  0  0  0  0  0  0  0
   33.2999   28.6070   49.1873 H   0  0  0  0  0  0  0  0  0  0  0  0
   33.9053   26.0324   46.1933 H   0  0  0  0  0  0  0  0  0  0  0  0
   32.4220   25.9195   47.1684 H   0  0  0  0  0  0  0  0  0  0  0  0
   33.2707   28.2284   45.2947 H   0  0  0  0  0  0  0  0  0  0  0  0
   32.1973   30.6000   47.6603 H   0  0  0  0  0  0  0  0  0  0  0  0
   37.3883   28.4329   51.4158 H   0  0  0  0  0  0  0  0  0  0  0  0
   38.2978   30.7325   51.7536 H   0  0  0  0  0  0  0  0  0  0  0  0
   37.6190   32.5407   50.1225 H   0  0  0  0  0  0  0  0  0  0  0  0
   30.4220   25.4868   47.0565 H   0  0  0  0  0  0  0  0  0  0  0  0
   28.1036   25.5951   47.8800 H   0  0  0  0  0  0  0  0  0  0  0  0
   26.5940   27.4462   47.2402 H   0  0  0  0  0  0  0  0  0  0  0  0
   25.9610   30.3752   47.0967 H   0  0  0  0  0  0  0  0  0  0  0  0
   27.7560   30.5550   47.3167 H   0  0  0  0  0  0  0  0  0  0  0  0
   26.3562   32.5724   46.5653 H   0  0  0  0  0  0  0  0  0  0  0  0
   27.9437   32.1306   45.7227 H   0  0  0  0  0  0  0  0  0  0  0  0
   27.8041   30.9306   43.6887 H   0  0  0  0  0  0  0  0  0  0  0  0
   26.2581   30.9727   42.8317 H   0  0  0  0  0  0  0  0  0  0  0  0
   25.2708   29.6472   44.8339 H   0  0  0  0  0  0  0  0  0  0  0  0
   26.4350   28.7464   43.8245 H   0  0  0  0  0  0  0  0  0  0  0  0
  1  2  1  0
  3  2  1  0
  4  3  1  0
  5  4  1  0
  5  1  1  0
  6  1  1  0
  7  2  1  0
  7 12  1  0
  8  9  2  0
 10  9  1  0
 11 10  2  0
 12 11  1  0
 12 13  2  0
 13  8  1  0
 14 17  1  0
 14  5  1  0
 15 16  1  0
 16 17  2  0
 16 21  1  0
 17 18  1  0
 18 19  2  0
 20 19  1  0
 21 20  2  0
 22 21  1  0
 22 23  1  0
 24 23  1  0
 25 24  1  0
 26 27  1  0
 26 25  1  0
 27 22  1  0
  1 28  1  1
  2 29  1  1
  4 30  1  0
  4 31  1  0
  5 32  1  6
  6 33  1  0
  8 34  1  0
  9 35  1  0
 10 36  1  0
 18 37  1  0
 19 38  1  0
 20 39  1  0
 23 40  1  0
 23 41  1  0
 24 42  1  0
 24 43  1  0
 26 44  1  0
 26 45  1  0
 27 46  1  0
 27 47  1  0
M  ISO  8  28  13  29  13  30  13  31  13  32  13  33   3  34  14  35  14
M  ISO  8  36  14  37  14  38  14  39  14  40  13  41  13  42  13  43  13
M  ISO  4  44  13  45  13  46  13  47  13
M  END
>  <minimizedAffinity>  (1) 
-5.3440671

>  <minimizedRMSD>  (1) 
0.365755379

$$$$
