
     RDKit          3D

 41 44  0  0  1  0  0  0  0  0999 V2000
   32.0280   28.3700   47.4940 C   0  0  2  0  0  0  0  0  0  0  0  0
   33.2900   28.1350   48.2690 C   0  0  1  0  0  0  0  0  0  0  0  0
   33.6280   26.8230   48.1390 O   0  0  0  0  0  0  0  0  0  0  0  0
   32.8600   26.2480   47.1320 C   0  0  0  0  0  0  0  0  0  0  0  0
   32.2780   27.3780   46.3140 C   0  0  1  0  0  0  0  0  0  0  0  0
   31.9930   29.6850   46.9860 O   0  0  0  0  0  0  0  0  0  0  0  0
   34.6140   29.1410   47.4860 S   0  0  0  0  0  0  0  0  0  0  0  0
   37.0010   29.2610   50.6480 C   0  0  0  0  0  0  0  0  0  0  0  0
   37.4010   30.5940   50.7470 C   0  0  0  0  0  0  0  0  0  0  0  0
   36.9170   31.4900   49.8010 C   0  0  0  0  0  0  0  0  0  0  0  0
   36.0780   31.0290   48.8270 N   0  0  0  0  0  0  0  0  0  0  0  0
   35.7150   29.7290   48.7690 C   0  0  0  0  0  0  0  0  0  0  0  0
   36.1690   28.8280   49.6760 N   0  0  0  0  0  0  0  0  0  0  0  0
   31.0910   26.9640   45.7600 O   0  0  0  0  0  0  0  0  0  0  0  0
   29.9400   29.2880   44.3660 Cl  0  0  0  0  0  0  0  0  0  0  0  0
   29.2340   28.3230   45.6400 C   0  0  0  0  0  0  0  0  0  0  0  0
   29.8720   27.2440   46.2090 C   0  0  0  0  0  0  0  0  0  0  0  0
   29.1940   26.5320   47.2010 C   0  0  0  0  0  0  0  0  0  0  0  0
   27.9260   26.9040   47.5930 C   0  0  0  0  0  0  0  0  0  0  0  0
   27.2780   27.9870   47.0280 C   0  0  0  0  0  0  0  0  0  0  0  0
   27.9520   28.6900   46.0460 C   0  0  0  0  0  0  0  0  0  0  0  0
   27.2870   29.8380   45.4340 C   0  0  0  0  0  0  0  0  0  0  0  0
   27.1610   31.0880   45.9410 C   0  0  0  0  0  0  0  0  0  0  0  0
   26.4630   31.9140   45.0710 C   0  0  0  0  0  0  0  0  0  0  0  0
   26.1930   31.0590   44.0220 C   0  0  0  0  0  0  0  0  0  0  0  0
   26.6820   29.8670   44.2630 O   0  0  0  0  0  0  0  0  0  0  0  0
   31.0972   28.2360   48.0647 H   0  0  0  0  0  0  0  0  0  0  0  0
   33.1603   28.4002   49.3286 H   0  0  0  0  0  0  0  0  0  0  0  0
   33.4897   25.6080   46.4965 H   0  0  0  0  0  0  0  0  0  0  0  0
   32.0616   25.6228   47.5583 H   0  0  0  0  0  0  0  0  0  0  0  0
   32.8769   27.7657   45.4767 H   0  0  0  0  0  0  0  0  0  0  0  0
   31.9759   30.3289   47.7378 H   0  0  0  0  0  0  0  0  0  0  0  0
   37.3761   28.5377   51.3870 H   0  0  0  0  0  0  0  0  0  0  0  0
   38.0779   30.9253   51.5483 H   0  0  0  0  0  0  0  0  0  0  0  0
   37.2045   32.5512   49.8362 H   0  0  0  0  0  0  0  0  0  0  0  0
   29.6773   25.6648   47.6747 H   0  0  0  0  0  0  0  0  0  0  0  0
   27.4160   26.3239   48.3762 H   0  0  0  0  0  0  0  0  0  0  0  0
   26.2663   28.2780   47.3470 H   0  0  0  0  0  0  0  0  0  0  0  0
   27.5599   31.4068   46.9153 H   0  0  0  0  0  0  0  0  0  0  0  0
   26.1948   32.9744   45.1874 H   0  0  0  0  0  0  0  0  0  0  0  0
   25.6440   31.3388   43.1108 H   0  0  0  0  0  0  0  0  0  0  0  0
  1  2  1  0
  3  2  1  0
  4  3  1  0
  5  4  1  0
  5  1  1  0
  6  1  1  0
  7  2  1  0
  7 12  1  0
  8  9  2  0
 10  9  1  0
 11 10  2  0
 12 11  1  0
 12 13  2  0
 13  8  1  0
 14 17  1  0
 14  5  1  0
 15 16  1  0
 16 21  2  0
 16 17  1  0
 17 18  2  0
 18 19  1  0
 20 19  2  0
 21 20  1  0
 22 23  2  0
 22 21  1  0
 24 23  1  0
 25 26  1  0
 25 24  2  0
 26 22  1  0
  1 27  1  1
  2 28  1  1
  4 29  1  0
  4 30  1  0
  5 31  1  6
  6 32  1  0
  8 33  1  0
  9 34  1  0
 10 35  1  0
 18 36  1  0
 19 37  1  0
 20 38  1  0
 23 39  1  0
 24 40  1  0
 25 41  1  0
M  ISO  8  27  13  28  13  29  13  30  13  31  13  32   3  33  14  34  14
M  ISO  7  35  14  36  14  37  14  38  14  39  14  40  14  41  14
M  END
>  <minimizedAffinity>  (1) 
-5.17521954

>  <minimizedRMSD>  (1) 
0.411280751

$$$$
