
     RDKit          3D

 42 44  0  0  1  0  0  0  0  0999 V2000
   39.8900   33.0750   45.9400 N   0  0  0  0  0  0  0  0  0  0  0  0
   38.5800   32.5290   46.1190 C   0  0  1  0  0  0  0  0  0  0  0  0
   37.9780   32.2050   44.7710 C   0  0  0  0  0  0  0  0  0  0  0  0
   38.8700   31.2340   44.1280 N   0  0  0  0  0  0  0  0  0  0  0  0
   40.0890   31.9900   43.8070 C   0  0  0  0  0  0  0  0  0  0  0  0
   40.7640   32.2820   45.1420 C   0  0  2  0  0  0  0  0  0  0  0  0
   41.1240   31.0110   45.7380 N   0  0  0  0  0  0  0  0  0  0  0  0
   38.6180   30.9540   47.0550 S   0  0  0  0  0  0  0  0  0  0  0  0
   35.8960   31.2110   50.0390 C   0  0  0  0  0  0  0  0  0  0  0  0
   37.0710   31.3760   49.3240 C   0  0  0  0  0  0  0  0  0  0  0  0
   37.1750   30.8220   48.0790 C   0  0  0  0  0  0  0  0  0  0  0  0
   36.0970   30.1120   47.5740 N   0  0  0  0  0  0  0  0  0  0  0  0
   34.9890   29.9810   48.3000 C   0  0  0  0  0  0  0  0  0  0  0  0
   34.8720   30.5210   49.5260 N   0  0  0  0  0  0  0  0  0  0  0  0
   33.8500   29.2380   47.7800 C   0  0  0  0  0  0  0  0  0  0  0  0
   33.1330   29.6930   46.8400 O   0  0  0  0  0  0  0  0  0  0  0  0
   33.5020   27.8970   48.3630 C   0  0  0  0  0  0  0  0  0  0  0  0
   33.8510   26.8550   47.3260 C   0  0  0  0  0  0  0  0  0  0  0  0
   32.8030   25.8060   47.5310 C   0  0  0  0  0  0  0  0  0  0  0  0
   31.6120   26.4490   48.1640 C   0  0  0  0  0  0  0  0  0  0  0  0
   32.0350   27.8130   48.6320 C   0  0  0  0  0  0  0  0  0  0  0  0
   39.7942   33.9970   45.4909 H   0  0  0  0  0  0  0  0  0  0  0  0
   37.9952   33.2810   46.6690 H   0  0  0  0  0  0  0  0  0  0  0  0
   36.9755   31.7707   44.8990 H   0  0  0  0  0  0  0  0  0  0  0  0
   37.8757   33.1121   44.1573 H   0  0  0  0  0  0  0  0  0  0  0  0
   39.0841   30.4583   44.7709 H   0  0  0  0  0  0  0  0  0  0  0  0
   40.7526   31.3914   43.1657 H   0  0  0  0  0  0  0  0  0  0  0  0
   39.8573   32.9163   43.2608 H   0  0  0  0  0  0  0  0  0  0  0  0
   41.6886   32.8679   45.0327 H   0  0  0  0  0  0  0  0  0  0  0  0
   41.1005   31.0941   46.7644 H   0  0  0  0  0  0  0  0  0  0  0  0
   40.4545   30.2886   45.4366 H   0  0  0  0  0  0  0  0  0  0  0  0
   35.8042   31.6534   51.0419 H   0  0  0  0  0  0  0  0  0  0  0  0
   37.9090   31.9453   49.7526 H   0  0  0  0  0  0  0  0  0  0  0  0
   34.0492   27.7429   49.3047 H   0  0  0  0  0  0  0  0  0  0  0  0
   34.8575   26.4467   47.5000 H   0  0  0  0  0  0  0  0  0  0  0  0
   33.8678   27.2543   46.3012 H   0  0  0  0  0  0  0  0  0  0  0  0
   32.5189   25.3698   46.5619 H   0  0  0  0  0  0  0  0  0  0  0  0
   33.1901   25.0055   48.1786 H   0  0  0  0  0  0  0  0  0  0  0  0
   30.7981   26.5389   47.4295 H   0  0  0  0  0  0  0  0  0  0  0  0
   31.2459   25.8447   49.0071 H   0  0  0  0  0  0  0  0  0  0  0  0
   31.8353   27.9282   49.7076 H   0  0  0  0  0  0  0  0  0  0  0  0
   31.4813   28.6095   48.1133 H   0  0  0  0  0  0  0  0  0  0  0  0
  1  2  1  0
  2  8  1  0
  3  2  1  0
  4  3  1  0
  5  4  1  0
  5  6  1  0
  6  7  1  0
  6  1  1  0
  8 11  1  0
 10  9  2  0
 11 10  1  0
 12 11  2  0
 12 13  1  0
 13 14  2  0
 14  9  1  0
 15 13  1  0
 15 17  1  0
 16 15  2  0
 17 21  1  0
 18 19  1  0
 18 17  1  0
 19 20  1  0
 20 21  1  0
  1 22  1  0
  2 23  1  1
  3 24  1  0
  3 25  1  0
  4 26  1  0
  5 27  1  0
  5 28  1  0
  6 29  1  6
  7 30  1  0
  7 31  1  0
  9 32  1  0
 10 33  1  0
 17 34  1  0
 18 35  1  0
 18 36  1  0
 19 37  1  0
 19 38  1  0
 20 39  1  0
 20 40  1  0
 21 41  1  0
 21 42  1  0
M  ISO  8  22   5  23  13  24  13  25  13  26   5  27  13  28  13  29  13
M  ISO  8  30   5  31   5  32  14  33  14  34  13  35  13  36  13  37  13
M  ISO  5  38  13  39  13  40  13  41  13  42  13
M  END
>  <minimizedAffinity>  (1) 
-5.78990602

>  <minimizedRMSD>  (1) 
2.82859492

$$$$
