
     RDKit          3D

 35 37  0  0  1  0  0  0  0  0999 V2000
   32.1550   28.5320   47.4300 C   0  0  2  0  0  0  0  0  0  0  0  0
   33.4070   28.3410   48.2350 C   0  0  1  0  0  0  0  0  0  0  0  0
   33.7830   27.0360   48.1250 O   0  0  0  0  0  0  0  0  0  0  0  0
   33.0610   26.4350   47.0990 C   0  0  0  0  0  0  0  0  0  0  0  0
   32.4630   27.5400   46.2640 C   0  0  1  0  0  0  0  0  0  0  0  0
   32.0940   29.8420   46.9120 O   0  0  0  0  0  0  0  0  0  0  0  0
   34.7220   29.3760   47.4710 S   0  0  0  0  0  0  0  0  0  0  0  0
   37.1140   29.2960   50.6300 C   0  0  0  0  0  0  0  0  0  0  0  0
   37.6190   30.5940   50.7330 C   0  0  0  0  0  0  0  0  0  0  0  0
   37.2060   31.5250   49.7940 C   0  0  0  0  0  0  0  0  0  0  0  0
   36.3300   31.1370   48.8160 N   0  0  0  0  0  0  0  0  0  0  0  0
   35.8680   29.8710   48.7550 C   0  0  0  0  0  0  0  0  0  0  0  0
   36.2550   28.9380   49.6590 N   0  0  0  0  0  0  0  0  0  0  0  0
   31.3030   27.0850   45.6870 O   0  0  0  0  0  0  0  0  0  0  0  0
   29.8240   29.2280   44.3120 Cl  0  0  0  0  0  0  0  0  0  0  0  0
   29.2890   28.2020   45.6210 C   0  0  0  0  0  0  0  0  0  0  0  0
   30.0730   27.2190   46.1780 C   0  0  0  0  0  0  0  0  0  0  0  0
   29.5240   26.4440   47.2010 C   0  0  0  0  0  0  0  0  0  0  0  0
   28.2330   26.6650   47.6360 C   0  0  0  0  0  0  0  0  0  0  0  0
   27.4360   27.6500   47.0820 C   0  0  0  0  0  0  0  0  0  0  0  0
   27.9760   28.4190   46.0690 C   0  0  0  0  0  0  0  0  0  0  0  0
   27.1910   29.4000   45.5150 O   0  0  0  0  0  0  0  0  0  0  0  0
   31.2152   28.3736   47.9793 H   0  0  0  0  0  0  0  0  0  0  0  0
   33.2473   28.6143   49.2885 H   0  0  0  0  0  0  0  0  0  0  0  0
   33.7285   25.8159   46.4816 H   0  0  0  0  0  0  0  0  0  0  0  0
   32.2728   25.7849   47.5066 H   0  0  0  0  0  0  0  0  0  0  0  0
   33.0687   27.9421   45.4385 H   0  0  0  0  0  0  0  0  0  0  0  0
   32.0638   30.4911   47.6589 H   0  0  0  0  0  0  0  0  0  0  0  0
   37.4289   28.5422   51.3667 H   0  0  0  0  0  0  0  0  0  0  0  0
   38.3218   30.8681   51.5336 H   0  0  0  0  0  0  0  0  0  0  0  0
   37.5762   32.5601   49.8336 H   0  0  0  0  0  0  0  0  0  0  0  0
   30.1264   25.6492   47.6651 H   0  0  0  0  0  0  0  0  0  0  0  0
   27.8269   26.0406   48.4455 H   0  0  0  0  0  0  0  0  0  0  0  0
   26.4076   27.8156   47.4356 H   0  0  0  0  0  0  0  0  0  0  0  0
   26.2674   29.5391   45.8432 H   0  0  0  0  0  0  0  0  0  0  0  0
  1  2  1  0
  3  2  1  0
  4  3  1  0
  5  4  1  0
  5  1  1  0
  6  1  1  0
  7  2  1  0
  7 12  1  0
  8  9  2  0
 10  9  1  0
 11 10  2  0
 12 11  1  0
 12 13  2  0
 13  8  1  0
 14 17  1  0
 14  5  1  0
 15 16  1  0
 16 21  2  0
 16 17  1  0
 17 18  2  0
 18 19  1  0
 20 19  2  0
 21 20  1  0
 22 21  1  0
  1 23  1  1
  2 24  1  1
  4 25  1  0
  4 26  1  0
  5 27  1  6
  6 28  1  0
  8 29  1  0
  9 30  1  0
 10 31  1  0
 18 32  1  0
 19 33  1  0
 20 34  1  0
 22 35  1  0
M  ISO  8  23  13  24  13  25  13  26  13  27  13  28   3  29  14  30  14
M  ISO  5  31  14  32  14  33  14  34  14  35   3
M  END
>  <minimizedAffinity>  (1) 
-4.62173796

>  <minimizedRMSD>  (1) 
0.0801193938

$$$$
