
     RDKit          3D

 33 35  0  0  1  0  0  0  0  0999 V2000
   34.7070   30.5690   48.7660 C   0  0  1  0  0  0  0  0  0  0  0  0
   33.8890   30.3070   47.5860 C   0  0  0  0  0  0  0  0  0  0  0  0
   33.7580   28.8760   47.1420 C   0  0  0  0  0  0  0  0  0  0  0  0
   33.7190   27.8620   48.2240 C   0  0  2  0  0  0  0  0  0  0  0  0
   34.5610   28.1110   49.4270 C   0  0  0  0  0  0  0  0  0  0  0  0
   34.5180   29.5450   49.8500 C   0  0  0  0  0  0  0  0  0  0  0  0
   36.7630   30.6310   47.2620 C   0  0  0  0  0  0  0  0  0  0  0  0
   36.1360   30.8760   48.5100 C   0  0  0  0  0  0  0  0  0  0  0  0
   36.9240   31.4300   49.5110 C   0  0  0  0  0  0  0  0  0  0  0  0
   38.2300   31.7070   49.2590 N   0  0  0  0  0  0  0  0  0  0  0  0
   38.7850   31.4550   48.0490 C   0  0  0  0  0  0  0  0  0  0  0  0
   38.0440   30.9130   47.0460 N   0  0  0  0  0  0  0  0  0  0  0  0
   34.0860   26.5250   47.6140 C   0  0  0  0  0  0  0  0  0  0  0  0
   32.8720   25.6240   47.4460 C   0  0  0  0  0  0  0  0  0  0  0  0
   33.6850   26.1300   46.2660 C   0  0  0  0  0  0  0  0  0  0  0  0
   34.3043   31.5203   49.1440 H   0  0  0  0  0  0  0  0  0  0  0  0
   32.8764   30.6820   47.7959 H   0  0  0  0  0  0  0  0  0  0  0  0
   34.4129   30.8120   46.7611 H   0  0  0  0  0  0  0  0  0  0  0  0
   32.8269   28.7868   46.5631 H   0  0  0  0  0  0  0  0  0  0  0  0
   34.6687   28.6594   46.5643 H   0  0  0  0  0  0  0  0  0  0  0  0
   32.6945   27.9012   48.6225 H   0  0  0  0  0  0  0  0  0  0  0  0
   34.1941   27.4851   50.2538 H   0  0  0  0  0  0  0  0  0  0  0  0
   35.6017   27.8614   49.1727 H   0  0  0  0  0  0  0  0  0  0  0  0
   35.3118   29.6975   50.5961 H   0  0  0  0  0  0  0  0  0  0  0  0
   33.4981   29.7067   50.2291 H   0  0  0  0  0  0  0  0  0  0  0  0
   36.1698   30.1931   46.4457 H   0  0  0  0  0  0  0  0  0  0  0  0
   36.4936   31.6429   50.5007 H   0  0  0  0  0  0  0  0  0  0  0  0
   39.8454   31.6912   47.8763 H   0  0  0  0  0  0  0  0  0  0  0  0
   35.0778   26.5100   48.0896 H   0  0  0  0  0  0  0  0  0  0  0  0
   32.9188   24.5655   47.7417 H   0  0  0  0  0  0  0  0  0  0  0  0
   31.8155   25.6524   47.7511 H   0  0  0  0  0  0  0  0  0  0  0  0
   34.3106   25.4296   45.6932 H   0  0  0  0  0  0  0  0  0  0  0  0
   33.4436   26.6776   45.3431 H   0  0  0  0  0  0  0  0  0  0  0  0
  1  6  1  0
  2  1  1  0
  3  2  1  0
  3  4  1  0
  4  5  1  0
  5  6  1  0
  7  8  2  0
  8  1  1  0
  8  9  1  0
 10  9  2  0
 11 10  1  0
 12  7  1  0
 12 11  2  0
 13  4  1  0
 14 13  1  0
 15 14  1  0
 15 13  1  0
  1 16  1  1
  2 17  1  0
  2 18  1  0
  3 19  1  0
  3 20  1  0
  4 21  1  1
  5 22  1  0
  5 23  1  0
  6 24  1  0
  6 25  1  0
  7 26  1  0
  9 27  1  0
 11 28  1  0
 13 29  1  0
 14 30  1  0
 14 31  1  0
 15 32  1  0
 15 33  1  0
M  ISO  8  16  13  17  13  18  13  19  13  20  13  21  13  22  13  23  13
M  ISO  8  24  13  25  13  26  14  27  14  28  14  29  13  30  13  31  13
M  ISO  2  32  13  33  13
M  END
>  <minimizedAffinity>  (1) 
-4.59345293

>  <minimizedRMSD>  (1) 
1.49178267

$$$$
