
     RDKit          3D

 27 28  0  0  1  0  0  0  0  0999 V2000
   34.4920   30.1970   49.0790 C   0  0  1  0  0  0  0  0  0  0  0  0
   34.2320   30.3490   47.6480 C   0  0  0  0  0  0  0  0  0  0  0  0
   34.3880   29.1280   46.7870 C   0  0  0  0  0  0  0  0  0  0  0  0
   34.0080   27.8340   47.4070 C   0  0  1  0  0  0  0  0  0  0  0  0
   34.2720   27.6700   48.8600 C   0  0  0  0  0  0  0  0  0  0  0  0
   33.9670   28.9110   49.6440 C   0  0  0  0  0  0  0  0  0  0  0  0
   36.7940   31.2260   48.7220 C   0  0  0  0  0  0  0  0  0  0  0  0
   35.8780   30.4900   49.5170 C   0  0  0  0  0  0  0  0  0  0  0  0
   36.3370   30.0530   50.7480 C   0  0  0  0  0  0  0  0  0  0  0  0
   37.6120   30.3330   51.1440 N   0  0  0  0  0  0  0  0  0  0  0  0
   38.4470   31.0430   50.3420 C   0  0  0  0  0  0  0  0  0  0  0  0
   38.0310   31.4880   49.1290 N   0  0  0  0  0  0  0  0  0  0  0  0
   32.6640   27.4920   47.1810 O   0  0  0  0  0  0  0  0  0  0  0  0
   33.8985   31.0082   49.5260 H   0  0  0  0  0  0  0  0  0  0  0  0
   33.1964   30.7026   47.5358 H   0  0  0  0  0  0  0  0  0  0  0  0
   35.0049   31.0464   47.2926 H   0  0  0  0  0  0  0  0  0  0  0  0
   35.4450   29.0599   46.4901 H   0  0  0  0  0  0  0  0  0  0  0  0
   33.6894   29.2684   45.9490 H   0  0  0  0  0  0  0  0  0  0  0  0
   34.6948   27.1535   46.8824 H   0  0  0  0  0  0  0  0  0  0  0  0
   33.6466   26.8494   49.2415 H   0  0  0  0  0  0  0  0  0  0  0  0
   35.3435   27.4532   48.9820 H   0  0  0  0  0  0  0  0  0  0  0  0
   34.3955   28.7865   50.6494 H   0  0  0  0  0  0  0  0  0  0  0  0
   32.8714   29.0078   49.6273 H   0  0  0  0  0  0  0  0  0  0  0  0
   36.4693   31.5915   47.7366 H   0  0  0  0  0  0  0  0  0  0  0  0
   35.6714   29.4782   51.4088 H   0  0  0  0  0  0  0  0  0  0  0  0
   39.4714   31.2598   50.6791 H   0  0  0  0  0  0  0  0  0  0  0  0
   32.2029   27.3747   48.0492 H   0  0  0  0  0  0  0  0  0  0  0  0
  1  8  1  0
  1  6  1  0
  2  1  1  0
  3  4  1  0
  3  2  1  0
  4  5  1  0
  5  6  1  0
  7 12  2  0
  7  8  1  0
  8  9  2  0
  9 10  1  0
 11 10  2  0
 12 11  1  0
 13  4  1  0
  1 14  1  1
  2 15  1  0
  2 16  1  0
  3 17  1  0
  3 18  1  0
  4 19  1  6
  5 20  1  0
  5 21  1  0
  6 22  1  0
  6 23  1  0
  7 24  1  0
  9 25  1  0
 11 26  1  0
 13 27  1  0
M  ISO  8  14  13  15  13  16  13  17  13  18  13  19  13  20  13  21  13
M  ISO  6  22  13  23  13  24  14  25  14  26  14  27   3
M  END
>  <minimizedAffinity>  (1) 
-4.40407896

>  <minimizedRMSD>  (1) 
0.0391742326

$$$$
