
     RDKit          3D

 33 35  0  0  1  0  0  0  0  0999 V2000
   34.6980   30.4230   48.6280 C   0  0  1  0  0  0  0  0  0  0  0  0
   33.7720   30.3410   47.5080 C   0  0  0  0  0  0  0  0  0  0  0  0
   33.5520   28.9890   46.8900 C   0  0  0  0  0  0  0  0  0  0  0  0
   33.5650   27.8440   47.8270 C   0  0  2  0  0  0  0  0  0  0  0  0
   34.5050   27.9070   48.9820 C   0  0  0  0  0  0  0  0  0  0  0  0
   34.5440   29.2740   49.5860 C   0  0  0  0  0  0  0  0  0  0  0  0
   36.6210   30.5850   46.9870 C   0  0  0  0  0  0  0  0  0  0  0  0
   36.1120   30.7130   48.3050 C   0  0  0  0  0  0  0  0  0  0  0  0
   37.0000   31.1330   49.2720 C   0  0  0  0  0  0  0  0  0  0  0  0
   38.2980   31.3990   48.9190 N   0  0  0  0  0  0  0  0  0  0  0  0
   38.7380   31.2650   47.6600 C   0  0  0  0  0  0  0  0  0  0  0  0
   37.8860   30.8520   46.6810 N   0  0  0  0  0  0  0  0  0  0  0  0
   33.8160   26.5850   47.0750 C   0  0  0  0  0  0  0  0  0  0  0  0
   33.9330   26.5470   45.6860 C   0  0  0  0  0  0  0  0  0  0  0  0
   34.1580   25.2600   45.3030 N   0  0  0  0  0  0  0  0  0  0  0  0
   34.1820   24.5150   46.4190 C   0  0  0  0  0  0  0  0  0  0  0  0
   33.9740   25.3170   47.5000 N   0  0  0  0  0  0  0  0  0  0  0  0
   34.3785   31.3406   49.1437 H   0  0  0  0  0  0  0  0  0  0  0  0
   32.7957   30.7058   47.8597 H   0  0  0  0  0  0  0  0  0  0  0  0
   34.2385   30.9411   46.7129 H   0  0  0  0  0  0  0  0  0  0  0  0
   32.5738   29.0027   46.3871 H   0  0  0  0  0  0  0  0  0  0  0  0
   34.4018   28.8289   46.2101 H   0  0  0  0  0  0  0  0  0  0  0  0
   32.5663   27.8820   48.2866 H   0  0  0  0  0  0  0  0  0  0  0  0
   34.1786   27.1877   49.7475 H   0  0  0  0  0  0  0  0  0  0  0  0
   35.5139   27.6628   48.6181 H   0  0  0  0  0  0  0  0  0  0  0  0
   35.3913   29.3064   50.2868 H   0  0  0  0  0  0  0  0  0  0  0  0
   33.5594   29.4146   50.0558 H   0  0  0  0  0  0  0  0  0  0  0  0
   35.9424   30.2520   46.1879 H   0  0  0  0  0  0  0  0  0  0  0  0
   36.6712   31.2534   50.3148 H   0  0  0  0  0  0  0  0  0  0  0  0
   39.7874   31.4886   47.4175 H   0  0  0  0  0  0  0  0  0  0  0  0
   33.8563   27.4128   45.0119 H   0  0  0  0  0  0  0  0  0  0  0  0
   34.2857   24.9219   44.3385 H   0  0  0  0  0  0  0  0  0  0  0  0
   34.3442   23.4276   46.4550 H   0  0  0  0  0  0  0  0  0  0  0  0
  1  6  1  0
  2  1  1  0
  3  2  1  0
  3  4  1  0
  4  5  1  0
  5  6  1  0
  7  8  2  0
  8  1  1  0
  8  9  1  0
 10  9  2  0
 11 10  1  0
 12  7  1  0
 12 11  2  0
 13 17  1  0
 13  4  1  0
 14 13  2  0
 15 14  1  0
 15 16  1  0
 16 17  2  0
  1 18  1  1
  2 19  1  0
  2 20  1  0
  3 21  1  0
  3 22  1  0
  4 23  1  1
  5 24  1  0
  5 25  1  0
  6 26  1  0
  6 27  1  0
  7 28  1  0
  9 29  1  0
 11 30  1  0
 14 31  1  0
 15 32  1  0
 16 33  1  0
M  ISO  8  18  13  19  13  20  13  21  13  22  13  23  13  24  13  25  13
M  ISO  8  26  13  27  13  28  14  29  14  30  14  31  14  32   9  33  14
M  END
>  <minimizedAffinity>  (1) 
-4.3412571

>  <minimizedRMSD>  (1) 
1.55876148

$$$$
