
     RDKit          3D

 29 30  0  0  1  0  0  0  0  0999 V2000
   34.4580   30.4020   48.9160 C   0  0  1  0  0  0  0  0  0  0  0  0
   34.0360   30.3150   47.5190 C   0  0  0  0  0  0  0  0  0  0  0  0
   33.9940   28.9460   46.9000 C   0  0  0  0  0  0  0  0  0  0  0  0
   33.5710   27.8430   47.7920 C   0  0  2  0  0  0  0  0  0  0  0  0
   33.9840   27.9180   49.2200 C   0  0  0  0  0  0  0  0  0  0  0  0
   33.8840   29.3050   49.7680 C   0  0  0  0  0  0  0  0  0  0  0  0
   36.7860   31.0240   48.1200 C   0  0  0  0  0  0  0  0  0  0  0  0
   35.9070   30.6210   49.1510 C   0  0  0  0  0  0  0  0  0  0  0  0
   36.4540   30.4390   50.4060 C   0  0  0  0  0  0  0  0  0  0  0  0
   37.7800   30.6490   50.6000 N   0  0  0  0  0  0  0  0  0  0  0  0
   38.5920   31.0370   49.5810 C   0  0  0  0  0  0  0  0  0  0  0  0
   38.0810   31.2210   48.3430 N   0  0  0  0  0  0  0  0  0  0  0  0
   34.1330   26.5430   47.2320 C   0  0  0  0  0  0  0  0  0  0  0  0
   34.0080   31.3468   49.2551 H   0  0  0  0  0  0  0  0  0  0  0  0
   33.0238   30.7402   47.4516 H   0  0  0  0  0  0  0  0  0  0  0  0
   34.8077   30.8588   46.9544 H   0  0  0  0  0  0  0  0  0  0  0  0
   33.2933   28.9811   46.0528 H   0  0  0  0  0  0  0  0  0  0  0  0
   35.0319   28.7168   46.6167 H   0  0  0  0  0  0  0  0  0  0  0  0
   32.4732   27.9114   47.8048 H   0  0  0  0  0  0  0  0  0  0  0  0
   33.3339   27.2564   49.8113 H   0  0  0  0  0  0  0  0  0  0  0  0
   35.0373   27.6071   49.2822 H   0  0  0  0  0  0  0  0  0  0  0  0
   34.4092   29.3219   50.7344 H   0  0  0  0  0  0  0  0  0  0  0  0
   32.8066   29.5174   49.8320 H   0  0  0  0  0  0  0  0  0  0  0  0
   36.3875   31.1786   47.1064 H   0  0  0  0  0  0  0  0  0  0  0  0
   35.8165   30.1248   51.2455 H   0  0  0  0  0  0  0  0  0  0  0  0
   39.6642   31.2011   49.7637 H   0  0  0  0  0  0  0  0  0  0  0  0
   34.4196   25.8800   48.0616 H   0  0  0  0  0  0  0  0  0  0  0  0
   33.3682   26.0486   46.6150 H   0  0  0  0  0  0  0  0  0  0  0  0
   35.0171   26.7614   46.6150 H   0  0  0  0  0  0  0  0  0  0  0  0
  1  8  1  0
  1  6  1  0
  2  1  1  0
  3  2  1  0
  3  4  1  0
  4  5  1  0
  5  6  1  0
  7 12  2  0
  7  8  1  0
  8  9  2  0
  9 10  1  0
 11 10  2  0
 12 11  1  0
 13  4  1  0
  1 14  1  1
  2 15  1  0
  2 16  1  0
  3 17  1  0
  3 18  1  0
  4 19  1  1
  5 20  1  0
  5 21  1  0
  6 22  1  0
  6 23  1  0
  7 24  1  0
  9 25  1  0
 11 26  1  0
 13 27  1  0
 13 28  1  0
 13 29  1  0
M  ISO  8  14  13  15  13  16  13  17  13  18  13  19  13  20  13  21  13
M  ISO  8  22  13  23  13  24  14  25  14  26  14  27   8  28   8  29   8
M  END
>  <minimizedAffinity>  (1) 
-4.04356718

>  <minimizedRMSD>  (1) 
0.592056513

$$$$
