
     RDKit          3D

 36 38  0  0  1  0  0  0  0  0999 V2000
   39.8000   33.0090   45.9700 N   0  0  0  0  0  0  0  0  0  0  0  0
   38.4870   32.4560   46.0580 C   0  0  1  0  0  0  0  0  0  0  0  0
   37.9400   32.1790   44.6770 C   0  0  0  0  0  0  0  0  0  0  0  0
   38.8600   31.2440   44.0400 N   0  0  0  0  0  0  0  0  0  0  0  0
   40.0880   32.0080   43.8000 C   0  0  0  0  0  0  0  0  0  0  0  0
   40.7050   32.2340   45.1690 C   0  0  2  0  0  0  0  0  0  0  0  0
   41.0460   30.9710   45.7560 N   0  0  0  0  0  0  0  0  0  0  0  0
   38.4730   30.8360   46.9340 S   0  0  0  0  0  0  0  0  0  0  0  0
   35.6290   30.7620   49.8320 C   0  0  0  0  0  0  0  0  0  0  0  0
   36.8620   30.9080   49.2370 C   0  0  0  0  0  0  0  0  0  0  0  0
   36.9630   30.6930   47.8740 C   0  0  0  0  0  0  0  0  0  0  0  0
   35.8180   30.3420   47.1620 N   0  0  0  0  0  0  0  0  0  0  0  0
   34.6620   30.2200   47.8000 C   0  0  0  0  0  0  0  0  0  0  0  0
   34.5450   30.4250   49.1290 N   0  0  0  0  0  0  0  0  0  0  0  0
   33.4640   29.8560   47.0720 C   0  0  0  0  0  0  0  0  0  0  0  0
   32.9160   30.6170   46.2520 O   0  0  0  0  0  0  0  0  0  0  0  0
   32.8490   28.5730   47.2730 C   0  0  0  0  0  0  0  0  0  0  0  0
   31.5640   28.2030   47.2490 C   0  0  0  0  0  0  0  0  0  0  0  0
   31.2060   26.9000   47.4740 C   0  0  0  0  0  0  0  0  0  0  0  0
   32.2940   26.0020   47.7270 C   0  0  0  0  0  0  0  0  0  0  0  0
   33.7970   27.0760   47.6330 S   0  0  0  0  0  0  0  0  0  0  0  0
   39.7284   33.9508   45.5592 H   0  0  0  0  0  0  0  0  0  0  0  0
   37.8845   33.1957   46.6055 H   0  0  0  0  0  0  0  0  0  0  0  0
   36.9368   31.7335   44.7492 H   0  0  0  0  0  0  0  0  0  0  0  0
   37.8529   33.1072   44.0931 H   0  0  0  0  0  0  0  0  0  0  0  0
   39.0487   30.4445   44.6613 H   0  0  0  0  0  0  0  0  0  0  0  0
   40.7758   31.4372   43.1588 H   0  0  0  0  0  0  0  0  0  0  0  0
   39.8812   32.9582   43.2858 H   0  0  0  0  0  0  0  0  0  0  0  0
   41.6404   32.8076   45.0920 H   0  0  0  0  0  0  0  0  0  0  0  0
   41.0240   31.0524   46.7825 H   0  0  0  0  0  0  0  0  0  0  0  0
   40.3675   30.2575   45.4536 H   0  0  0  0  0  0  0  0  0  0  0  0
   35.5344   30.9274   50.9154 H   0  0  0  0  0  0  0  0  0  0  0  0
   37.7447   31.1886   49.8304 H   0  0  0  0  0  0  0  0  0  0  0  0
   30.7858   28.9535   47.0463 H   0  0  0  0  0  0  0  0  0  0  0  0
   30.1578   26.5666   47.4614 H   0  0  0  0  0  0  0  0  0  0  0  0
   32.2462   24.9220   47.9304 H   0  0  0  0  0  0  0  0  0  0  0  0
  1  2  1  0
  2  8  1  0
  3  2  1  0
  4  3  1  0
  5  4  1  0
  5  6  1  0
  6  7  1  0
  6  1  1  0
  8 11  1  0
 10  9  2  0
 11 10  1  0
 12 13  1  0
 12 11  2  0
 13 14  2  0
 14  9  1  0
 15 17  1  0
 15 13  1  0
 16 15  2  0
 17 21  1  0
 18 17  2  0
 18 19  1  0
 19 20  2  0
 21 20  1  0
  1 22  1  0
  2 23  1  1
  3 24  1  0
  3 25  1  0
  4 26  1  0
  5 27  1  0
  5 28  1  0
  6 29  1  6
  7 30  1  0
  7 31  1  0
  9 32  1  0
 10 33  1  0
 18 34  1  0
 19 35  1  0
 20 36  1  0
M  ISO  8  22   5  23  13  24  13  25  13  26   5  27  13  28  13  29  13
M  ISO  7  30   5  31   5  32  14  33  14  34  14  35  14  36  14
M  END
>  <minimizedAffinity>  (1) 
-5.43661165

>  <minimizedRMSD>  (1) 
3.25044608

$$$$
