
     RDKit          3D

 47 50  0  0  1  0  0  0  0  0999 V2000
   35.8000   29.2790   43.0260 C   0  0  1  0  0  0  0  0  0  0  0  0
   34.6070   28.5550   43.3870 C   0  0  0  0  0  0  0  0  0  0  0  0
   34.2990   28.4630   44.8640 C   0  0  0  0  0  0  0  0  0  0  0  0
   34.5080   29.6490   45.6600 C   0  0  2  0  0  0  0  0  0  0  0  0
   35.7610   30.4570   45.2950 C   0  0  0  0  0  0  0  0  0  0  0  0
   35.9040   30.5780   43.8070 C   0  0  0  0  0  0  0  0  0  0  0  0
   34.7150   29.2330   47.0660 C   0  0  0  0  0  0  0  0  0  0  0  0
   35.6110   29.9770   47.8620 C   0  0  0  0  0  0  0  0  0  0  0  0
   35.8490   29.6410   49.1810 C   0  0  0  0  0  0  0  0  0  0  0  0
   35.2010   28.5830   49.6920 C   0  0  0  0  0  0  0  0  0  0  0  0
   34.3240   27.8320   48.9440 C   0  0  0  0  0  0  0  0  0  0  0  0
   34.0870   28.1620   47.6180 C   0  0  0  0  0  0  0  0  0  0  0  0
   31.3430   28.4450   47.5900 O   0  0  0  0  0  0  0  0  0  0  0  0
   31.8660   27.3160   47.3010 C   0  0  0  0  0  0  0  0  0  0  0  0
   33.2570   27.1870   46.9060 C   0  0  2  0  0  0  0  0  0  0  0  0
   33.5800   25.7500   47.4330 C   0  0  0  0  0  0  0  0  0  0  0  0
   32.2630   25.0840   47.5770 C   0  0  0  0  0  0  0  0  0  0  0  0
   31.2430   26.0660   47.3100 N   0  0  0  0  0  0  0  0  0  0  0  0
   37.1290   27.1810   42.7560 C   0  0  0  0  0  0  0  0  0  0  0  0
   37.0750   28.5530   42.9590 C   0  0  0  0  0  0  0  0  0  0  0  0
   38.2880   29.2330   43.1030 C   0  0  0  0  0  0  0  0  0  0  0  0
   39.4530   28.5190   43.0360 N   0  0  0  0  0  0  0  0  0  0  0  0
   39.4610   27.1810   42.8370 C   0  0  0  0  0  0  0  0  0  0  0  0
   38.2840   26.5090   42.6950 N   0  0  0  0  0  0  0  0  0  0  0  0
   35.6383   29.4892   41.9585 H   0  0  0  0  0  0  0  0  0  0  0  0
   33.7546   29.0486   42.8973 H   0  0  0  0  0  0  0  0  0  0  0  0
   34.7826   27.5196   43.0596 H   0  0  0  0  0  0  0  0  0  0  0  0
   33.2405   28.1807   44.9636 H   0  0  0  0  0  0  0  0  0  0  0  0
   35.0184   27.7294   45.2568 H   0  0  0  0  0  0  0  0  0  0  0  0
   33.6225   30.2778   45.4851 H   0  0  0  0  0  0  0  0  0  0  0  0
   35.6809   31.4632   45.7323 H   0  0  0  0  0  0  0  0  0  0  0  0
   36.6442   29.9352   45.6921 H   0  0  0  0  0  0  0  0  0  0  0  0
   36.8891   31.0202   43.5973 H   0  0  0  0  0  0  0  0  0  0  0  0
   35.0569   31.1958   43.4743 H   0  0  0  0  0  0  0  0  0  0  0  0
   36.1306   30.8419   47.4239 H   0  0  0  0  0  0  0  0  0  0  0  0
   36.5504   30.2248   49.7952 H   0  0  0  0  0  0  0  0  0  0  0  0
   35.3766   28.3074   50.7423 H   0  0  0  0  0  0  0  0  0  0  0  0
   33.8113   26.9707   49.3972 H   0  0  0  0  0  0  0  0  0  0  0  0
   33.4384   27.3480   45.8331 H   0  0  0  0  0  0  0  0  0  0  0  0
   34.2100   25.2075   46.7127 H   0  0  0  0  0  0  0  0  0  0  0  0
   34.1342   25.7752   48.3829 H   0  0  0  0  0  0  0  0  0  0  0  0
   32.1820   24.2551   46.8585 H   0  0  0  0  0  0  0  0  0  0  0  0
   32.1474   24.6751   48.5916 H   0  0  0  0  0  0  0  0  0  0  0  0
   30.2417   25.8808   47.1548 H   0  0  0  0  0  0  0  0  0  0  0  0
   36.1866   26.6254   42.6410 H   0  0  0  0  0  0  0  0  0  0  0  0
   38.3053   30.3206   43.2669 H   0  0  0  0  0  0  0  0  0  0  0  0
   40.4156   26.6365   42.7899 H   0  0  0  0  0  0  0  0  0  0  0  0
  1  2  1  0
  1  6  1  0
  2  3  1  0
  3  4  1  0
  4  7  1  0
  5  4  1  0
  6  5  1  0
  7 12  1  0
  7  8  2  0
  8  9  1  0
  9 10  2  0
 11 10  1  0
 12 11  2  0
 14 18  1  0
 14 13  2  0
 15 14  1  0
 15 16  1  0
 15 12  1  0
 16 17  1  0
 18 17  1  0
 19 20  2  0
 20  1  1  0
 20 21  1  0
 22 21  2  0
 23 22  1  0
 24 19  1  0
 24 23  2  0
  1 25  1  6
  2 26  1  0
  2 27  1  0
  3 28  1  0
  3 29  1  0
  4 30  1  1
  5 31  1  0
  5 32  1  0
  6 33  1  0
  6 34  1  0
  8 35  1  0
  9 36  1  0
 10 37  1  0
 11 38  1  0
 15 39  1  6
 16 40  1  0
 16 41  1  0
 17 42  1  0
 17 43  1  0
 18 44  1  0
 19 45  1  0
 21 46  1  0
 23 47  1  0
M  ISO  8  25  13  26  13  27  13  28  13  29  13  30  13  31  13  32  13
M  ISO  8  33  13  34  13  35  14  36  14  37  14  38  14  39  13  40  13
M  ISO  7  41  13  42  13  43  13  44  10  45  14  46  14  47  14
M  END
>  <minimizedAffinity>  (1) 
-4.97812796

>  <minimizedRMSD>  (1) 
4.69309568

$$$$
