
     RDKit          3D

 44 46  0  0  1  0  0  0  0  0999 V2000
   35.3060   30.4790   48.2640 C   0  0  1  0  0  0  0  0  0  0  0  0
   33.9370   30.5880   47.8220 C   0  0  0  0  0  0  0  0  0  0  0  0
   33.2220   29.2840   47.5240 C   0  0  0  0  0  0  0  0  0  0  0  0
   33.4670   28.1810   48.4250 C   0  0  2  0  0  0  0  0  0  0  0  0
   34.8920   28.0450   48.9670 C   0  0  0  0  0  0  0  0  0  0  0  0
   35.4550   29.3980   49.3070 C   0  0  0  0  0  0  0  0  0  0  0  0
   33.2140   26.9060   47.6920 C   0  0  0  0  0  0  0  0  0  0  0  0
   34.1920   26.4980   46.7620 C   0  0  0  0  0  0  0  0  0  0  0  0
   34.0040   25.3560   46.0130 C   0  0  0  0  0  0  0  0  0  0  0  0
   32.8730   24.6290   46.1780 C   0  0  0  0  0  0  0  0  0  0  0  0
   31.9150   25.0220   47.0800 C   0  0  0  0  0  0  0  0  0  0  0  0
   32.0920   26.1690   47.8370 C   0  0  0  0  0  0  0  0  0  0  0  0
   31.0260   26.5000   48.6680 N   0  0  0  0  0  0  0  0  0  0  0  0
   29.6790   27.5450   48.3250 S   0  0  0  0  0  0  0  0  0  0  0  0
   29.8950   28.1010   46.9240 O   0  0  0  0  0  0  0  0  0  0  0  0
   28.3760   26.8210   48.3170 O   0  0  0  0  0  0  0  0  0  0  0  0
   29.6230   28.8400   49.3480 O   0  0  0  0  0  0  0  0  0  0  0  0
   36.1050   30.3230   45.9030 C   0  0  0  0  0  0  0  0  0  0  0  0
   36.3740   30.4550   47.2550 C   0  0  0  0  0  0  0  0  0  0  0  0
   37.7150   30.5710   47.6350 C   0  0  0  0  0  0  0  0  0  0  0  0
   38.6760   30.5470   46.6660 N   0  0  0  0  0  0  0  0  0  0  0  0
   38.3680   30.4160   45.3530 C   0  0  0  0  0  0  0  0  0  0  0  0
   37.0630   30.3030   44.9740 N   0  0  0  0  0  0  0  0  0  0  0  0
   35.4911   31.4642   48.7170 H   0  0  0  0  0  0  0  0  0  0  0  0
   33.3711   31.1085   48.6087 H   0  0  0  0  0  0  0  0  0  0  0  0
   33.9799   31.1251   46.8630 H   0  0  0  0  0  0  0  0  0  0  0  0
   32.1411   29.4880   47.5353 H   0  0  0  0  0  0  0  0  0  0  0  0
   33.6214   28.9544   46.5535 H   0  0  0  0  0  0  0  0  0  0  0  0
   32.8029   28.3830   49.2783 H   0  0  0  0  0  0  0  0  0  0  0  0
   34.8774   27.4205   49.8724 H   0  0  0  0  0  0  0  0  0  0  0  0
   35.5239   27.5789   48.1966 H   0  0  0  0  0  0  0  0  0  0  0  0
   36.5298   29.2713   49.5037 H   0  0  0  0  0  0  0  0  0  0  0  0
   34.8665   29.7463   50.1686 H   0  0  0  0  0  0  0  0  0  0  0  0
   35.1082   27.0930   46.6336 H   0  0  0  0  0  0  0  0  0  0  0  0
   34.7666   25.0376   45.2870 H   0  0  0  0  0  0  0  0  0  0  0  0
   32.7206   23.7157   45.5842 H   0  0  0  0  0  0  0  0  0  0  0  0
   31.0010   24.4223   47.2024 H   0  0  0  0  0  0  0  0  0  0  0  0
   31.0361   26.0719   49.6048 H   0  0  0  0  0  0  0  0  0  0  0  0
   30.2528   29.0220   46.9860 H   0  0  0  0  0  0  0  0  0  0  0  0
   28.0832   26.6583   49.2486 H   0  0  0  0  0  0  0  0  0  0  0  0
   29.6368   28.5211   50.2851 H   0  0  0  0  0  0  0  0  0  0  0  0
   35.0572   30.2307   45.5811 H   0  0  0  0  0  0  0  0  0  0  0  0
   37.9900   30.6795   48.6945 H   0  0  0  0  0  0  0  0  0  0  0  0
   39.1666   30.4009   44.5967 H   0  0  0  0  0  0  0  0  0  0  0  0
  1  6  1  0
  2  1  1  0
  3  2  1  0
  3  4  1  0
  4  5  1  0
  5  6  1  0
  7 12  1  0
  7  4  1  0
  8  7  2  0
  9 10  2  0
  9  8  1  0
 10 11  1  0
 11 12  2  0
 12 13  1  0
 14 13  1  0
 14 17  1  0
 15 14  1  0
 16 14  1  0
 18 19  2  0
 19 20  1  0
 19  1  1  0
 21 20  2  0
 22 21  1  0
 23 22  2  0
 23 18  1  0
  1 24  1  1
  2 25  1  0
  2 26  1  0
  3 27  1  0
  3 28  1  0
  4 29  1  1
  5 30  1  0
  5 31  1  0
  6 32  1  0
  6 33  1  0
  8 34  1  0
  9 35  1  0
 10 36  1  0
 11 37  1  0
 13 38  1  0
 15 39  1  0
 16 40  1  0
 17 41  1  0
 18 42  1  0
 20 43  1  0
 22 44  1  0
M  ISO  8  24  13  25  13  26  13  27  13  28  13  29  13  30  13  31  13
M  ISO  8  32  13  33  13  34  14  35  14  36  14  37  14  39   3  40   3
M  ISO  4  41   3  42  14  43  14  44  14
M  END
>  <minimizedAffinity>  (1) 
-4.8252244

>  <minimizedRMSD>  (1) 
2.83739543

$$$$
