
     RDKit          3D

 43 45  0  0  1  0  0  0  0  0999 V2000
   35.3190   30.5090   48.1630 C   0  0  1  0  0  0  0  0  0  0  0  0
   33.9520   30.5900   47.7080 C   0  0  0  0  0  0  0  0  0  0  0  0
   33.2580   29.2750   47.4290 C   0  0  0  0  0  0  0  0  0  0  0  0
   33.5040   28.1880   48.3670 C   0  0  2  0  0  0  0  0  0  0  0  0
   34.9140   28.0900   48.9330 C   0  0  0  0  0  0  0  0  0  0  0  0
   35.4740   29.4580   49.2320 C   0  0  0  0  0  0  0  0  0  0  0  0
   33.2500   26.9110   47.6520 C   0  0  0  0  0  0  0  0  0  0  0  0
   34.1860   26.4790   46.7220 C   0  0  0  0  0  0  0  0  0  0  0  0
   34.0080   25.3140   46.0020 C   0  0  0  0  0  0  0  0  0  0  0  0
   32.8840   24.5780   46.2190 C   0  0  0  0  0  0  0  0  0  0  0  0
   31.9420   24.9960   47.1380 C   0  0  0  0  0  0  0  0  0  0  0  0
   32.1360   26.1740   47.8510 C   0  0  0  0  0  0  0  0  0  0  0  0
   31.0070   26.5630   48.6160 C   0  0  0  0  0  0  0  0  0  0  0  0
   29.9970   27.3980   48.5270 C   0  0  0  0  0  0  0  0  0  0  0  0
   29.6100   28.3610   47.4650 C   0  0  0  0  0  0  0  0  0  0  0  0
   36.1450   30.3190   45.8150 C   0  0  0  0  0  0  0  0  0  0  0  0
   36.3980   30.4660   47.1680 C   0  0  0  0  0  0  0  0  0  0  0  0
   37.7370   30.5810   47.5610 C   0  0  0  0  0  0  0  0  0  0  0  0
   38.7110   30.5420   46.6100 N   0  0  0  0  0  0  0  0  0  0  0  0
   38.4130   30.3950   45.2950 C   0  0  0  0  0  0  0  0  0  0  0  0
   37.1140   30.2820   44.8980 N   0  0  0  0  0  0  0  0  0  0  0  0
   35.4828   31.5108   48.5868 H   0  0  0  0  0  0  0  0  0  0  0  0
   33.3727   31.1171   48.4803 H   0  0  0  0  0  0  0  0  0  0  0  0
   33.9963   31.1089   46.7391 H   0  0  0  0  0  0  0  0  0  0  0  0
   32.1748   29.4665   47.4189 H   0  0  0  0  0  0  0  0  0  0  0  0
   33.6751   28.9280   46.4721 H   0  0  0  0  0  0  0  0  0  0  0  0
   32.8400   28.3894   49.2205 H   0  0  0  0  0  0  0  0  0  0  0  0
   34.8884   27.5012   49.8618 H   0  0  0  0  0  0  0  0  0  0  0  0
   35.5581   27.6040   48.1854 H   0  0  0  0  0  0  0  0  0  0  0  0
   36.5499   29.3405   49.4284 H   0  0  0  0  0  0  0  0  0  0  0  0
   34.8849   29.8280   50.0841 H   0  0  0  0  0  0  0  0  0  0  0  0
   35.0921   27.0797   46.5544 H   0  0  0  0  0  0  0  0  0  0  0  0
   34.7595   24.9876   45.2680 H   0  0  0  0  0  0  0  0  0  0  0  0
   32.7250   23.6447   45.6590 H   0  0  0  0  0  0  0  0  0  0  0  0
   31.0358   24.3956   47.3065 H   0  0  0  0  0  0  0  0  0  0  0  0
   30.9648   26.0008   49.5605 H   0  0  0  0  0  0  0  0  0  0  0  0
   29.3178   27.3809   49.3921 H   0  0  0  0  0  0  0  0  0  0  0  0
   29.2379   29.2870   47.9276 H   0  0  0  0  0  0  0  0  0  0  0  0
   30.4861   28.5896   46.8403 H   0  0  0  0  0  0  0  0  0  0  0  0
   28.8194   27.9198   46.8403 H   0  0  0  0  0  0  0  0  0  0  0  0
   35.1007   30.2288   45.4814 H   0  0  0  0  0  0  0  0  0  0  0  0
   37.9984   30.7011   48.6227 H   0  0  0  0  0  0  0  0  0  0  0  0
   39.2203   30.3670   44.5483 H   0  0  0  0  0  0  0  0  0  0  0  0
  1  6  1  0
  2  1  1  0
  3  2  1  0
  3  4  1  0
  4  5  1  0
  5  6  1  0
  7 12  1  0
  7  4  1  0
  8  7  2  0
  9 10  2  0
  9  8  1  0
 10 11  1  0
 11 12  2  0
 12 13  1  0
 14 13  2  0
 15 14  1  0
 16 17  2  0
 17 18  1  0
 17  1  1  0
 19 18  2  0
 20 19  1  0
 21 20  2  0
 21 16  1  0
  1 22  1  1
  2 23  1  0
  2 24  1  0
  3 25  1  0
  3 26  1  0
  4 27  1  1
  5 28  1  0
  5 29  1  0
  6 30  1  0
  6 31  1  0
  8 32  1  0
  9 33  1  0
 10 34  1  0
 11 35  1  0
 13 36  1  0
 14 37  1  0
 15 38  1  0
 15 39  1  0
 15 40  1  0
 16 41  1  0
 18 42  1  0
 20 43  1  0
M  ISO  8  22  13  23  13  24  13  25  13  26  13  27  13  28  13  29  13
M  ISO  8  30  13  31  13  32  14  33  14  34  14  35  14  38   8  39   8
M  ISO  4  40   8  41  14  42  14  43  14
M  END
>  <minimizedAffinity>  (1) 
-4.66576576

>  <minimizedRMSD>  (1) 
2.37950492

$$$$
