
     RDKit          3D

 42 44  0  0  1  0  0  0  0  0999 V2000
   34.5590   30.2560   48.4330 C   0  0  1  0  0  0  0  0  0  0  0  0
   33.6230   30.3730   47.3460 C   0  0  0  0  0  0  0  0  0  0  0  0
   33.4930   29.1610   46.4410 C   0  0  0  0  0  0  0  0  0  0  0  0
   33.4940   27.8580   47.0660 C   0  0  2  0  0  0  0  0  0  0  0  0
   34.4310   27.6960   48.2600 C   0  0  0  0  0  0  0  0  0  0  0  0
   34.4190   28.9250   49.1270 C   0  0  0  0  0  0  0  0  0  0  0  0
   33.9720   26.8600   46.0610 C   0  0  0  0  0  0  0  0  0  0  0  0
   34.3630   27.3650   44.8050 C   0  0  0  0  0  0  0  0  0  0  0  0
   34.7650   26.5270   43.7870 C   0  0  0  0  0  0  0  0  0  0  0  0
   34.7710   25.1950   44.0290 C   0  0  0  0  0  0  0  0  0  0  0  0
   34.3920   24.6780   45.2380 C   0  0  0  0  0  0  0  0  0  0  0  0
   33.9860   25.5250   46.2690 C   0  0  0  0  0  0  0  0  0  0  0  0
   33.5850   24.8940   47.5090 C   0  0  0  0  0  0  0  0  0  0  0  0
   32.1750   24.2620   47.3810 C   0  0  0  0  0  0  0  0  0  0  0  0
   36.5420   30.5870   46.9430 C   0  0  0  0  0  0  0  0  0  0  0  0
   35.9610   30.6290   48.2000 C   0  0  0  0  0  0  0  0  0  0  0  0
   36.7680   31.0510   49.2660 C   0  0  0  0  0  0  0  0  0  0  0  0
   38.0660   31.3920   49.0120 N   0  0  0  0  0  0  0  0  0  0  0  0
   38.5890   31.3330   47.7620 C   0  0  0  0  0  0  0  0  0  0  0  0
   37.8110   30.9250   46.7230 N   0  0  0  0  0  0  0  0  0  0  0  0
   34.2462   31.0683   49.1056 H   0  0  0  0  0  0  0  0  0  0  0  0
   32.6319   30.5781   47.7769 H   0  0  0  0  0  0  0  0  0  0  0  0
   34.0135   31.1780   46.7062 H   0  0  0  0  0  0  0  0  0  0  0  0
   34.3341   29.1872   45.7325 H   0  0  0  0  0  0  0  0  0  0  0  0
   32.4942   29.2543   45.9896 H   0  0  0  0  0  0  0  0  0  0  0  0
   32.4630   27.7167   47.4225 H   0  0  0  0  0  0  0  0  0  0  0  0
   34.1058   26.8315   48.8574 H   0  0  0  0  0  0  0  0  0  0  0  0
   35.4534   27.5430   47.8841 H   0  0  0  0  0  0  0  0  0  0  0  0
   35.2505   28.8347   49.8415 H   0  0  0  0  0  0  0  0  0  0  0  0
   33.4168   28.9441   49.5800 H   0  0  0  0  0  0  0  0  0  0  0  0
   34.3471   28.4514   44.6331 H   0  0  0  0  0  0  0  0  0  0  0  0
   35.0711   26.9277   42.8094 H   0  0  0  0  0  0  0  0  0  0  0  0
   35.0897   24.5085   43.2308 H   0  0  0  0  0  0  0  0  0  0  0  0
   34.4076   23.5897   45.3974 H   0  0  0  0  0  0  0  0  0  0  0  0
   34.3102   24.1068   47.7629 H   0  0  0  0  0  0  0  0  0  0  0  0
   33.5551   25.6599   48.2980 H   0  0  0  0  0  0  0  0  0  0  0  0
   31.7634   24.0775   48.3843 H   0  0  0  0  0  0  0  0  0  0  0  0
   31.5133   24.9496   46.8340 H   0  0  0  0  0  0  0  0  0  0  0  0
   32.2480   23.3105   46.8340 H   0  0  0  0  0  0  0  0  0  0  0  0
   35.9287   30.2605   46.0902 H   0  0  0  0  0  0  0  0  0  0  0  0
   36.3635   31.1064   50.2874 H   0  0  0  0  0  0  0  0  0  0  0  0
   39.6383   31.6140   47.5888 H   0  0  0  0  0  0  0  0  0  0  0  0
  1  6  1  0
  2  1  1  0
  3  4  1  0
  3  2  1  0
  4  5  1  0
  5  6  1  0
  7 12  1  0
  7  4  1  0
  8  7  2  0
  9 10  2  0
  9  8  1  0
 10 11  1  0
 11 12  2  0
 12 13  1  0
 14 13  1  0
 15 16  2  0
 16  1  1  0
 16 17  1  0
 18 17  2  0
 19 18  1  0
 20 15  1  0
 20 19  2  0
  1 21  1  1
  2 22  1  0
  2 23  1  0
  3 24  1  0
  3 25  1  0
  4 26  1  1
  5 27  1  0
  5 28  1  0
  6 29  1  0
  6 30  1  0
  8 31  1  0
  9 32  1  0
 10 33  1  0
 11 34  1  0
 13 35  1  0
 13 36  1  0
 14 37  1  0
 14 38  1  0
 14 39  1  0
 15 40  1  0
 17 41  1  0
 19 42  1  0
M  ISO  8  21  13  22  13  23  13  24  13  25  13  26  13  27  13  28  13
M  ISO  8  29  13  30  13  31  14  32  14  33  14  34  14  35   8  36   8
M  ISO  6  37   8  38   8  39   8  40  14  41  14  42  14
M  END
>  <minimizedAffinity>  (1) 
-4.38368988

>  <minimizedRMSD>  (1) 
0.941254795

$$$$
