
     RDKit          3D

 39 41  0  0  1  0  0  0  0  0999 V2000
   35.3460   30.5110   48.2540 C   0  0  1  0  0  0  0  0  0  0  0  0
   33.9740   30.6210   47.8300 C   0  0  0  0  0  0  0  0  0  0  0  0
   33.2510   29.3160   47.5620 C   0  0  0  0  0  0  0  0  0  0  0  0
   33.4880   28.2250   48.4720 C   0  0  2  0  0  0  0  0  0  0  0  0
   34.9410   28.0810   48.9660 C   0  0  0  0  0  0  0  0  0  0  0  0
   35.4950   29.4390   49.3140 C   0  0  0  0  0  0  0  0  0  0  0  0
   33.2170   26.9420   47.7580 C   0  0  0  0  0  0  0  0  0  0  0  0
   34.2270   26.4640   46.8950 C   0  0  0  0  0  0  0  0  0  0  0  0
   34.0500   25.3070   46.1650 C   0  0  0  0  0  0  0  0  0  0  0  0
   32.8870   24.6410   46.2910 C   0  0  0  0  0  0  0  0  0  0  0  0
   31.8940   25.0880   47.1160 C   0  0  0  0  0  0  0  0  0  0  0  0
   32.0560   26.2550   47.8610 C   0  0  0  0  0  0  0  0  0  0  0  0
   30.9100   26.6560   48.6630 C   0  0  0  0  0  0  0  0  0  0  0  0
   36.1140   30.3240   45.8850 C   0  0  0  0  0  0  0  0  0  0  0  0
   36.4010   30.4670   47.2340 C   0  0  0  0  0  0  0  0  0  0  0  0
   37.7470   30.5740   47.5950 C   0  0  0  0  0  0  0  0  0  0  0  0
   38.7010   30.5310   46.6160 N   0  0  0  0  0  0  0  0  0  0  0  0
   38.3710   30.3880   45.3110 C   0  0  0  0  0  0  0  0  0  0  0  0
   37.0650   30.2840   44.9460 N   0  0  0  0  0  0  0  0  0  0  0  0
   35.5492   31.5013   48.6875 H   0  0  0  0  0  0  0  0  0  0  0  0
   33.4213   31.1558   48.6164 H   0  0  0  0  0  0  0  0  0  0  0  0
   34.0051   31.1449   46.8633 H   0  0  0  0  0  0  0  0  0  0  0  0
   32.1718   29.5284   47.5763 H   0  0  0  0  0  0  0  0  0  0  0  0
   33.6496   28.9679   46.5976 H   0  0  0  0  0  0  0  0  0  0  0  0
   32.8374   28.4379   49.3330 H   0  0  0  0  0  0  0  0  0  0  0  0
   34.9621   27.4377   49.8580 H   0  0  0  0  0  0  0  0  0  0  0  0
   35.5534   27.6299   48.1714 H   0  0  0  0  0  0  0  0  0  0  0  0
   36.5683   29.3205   49.5236 H   0  0  0  0  0  0  0  0  0  0  0  0
   34.9032   29.7884   50.1729 H   0  0  0  0  0  0  0  0  0  0  0  0
   35.1699   27.0230   46.8033 H   0  0  0  0  0  0  0  0  0  0  0  0
   34.8407   24.9373   45.4956 H   0  0  0  0  0  0  0  0  0  0  0  0
   32.7326   23.7157   45.7166 H   0  0  0  0  0  0  0  0  0  0  0  0
   30.9551   24.5201   47.1933 H   0  0  0  0  0  0  0  0  0  0  0  0
   31.1608   26.5683   49.7304 H   0  0  0  0  0  0  0  0  0  0  0  0
   30.6481   27.6992   48.4324 H   0  0  0  0  0  0  0  0  0  0  0  0
   30.0548   26.0037   48.4324 H   0  0  0  0  0  0  0  0  0  0  0  0
   35.0619   30.2401   45.5750 H   0  0  0  0  0  0  0  0  0  0  0  0
   38.0346   30.6910   48.6503 H   0  0  0  0  0  0  0  0  0  0  0  0
   39.1599   30.3559   44.5451 H   0  0  0  0  0  0  0  0  0  0  0  0
  1  6  1  0
  2  1  1  0
  3  2  1  0
  3  4  1  0
  4  5  1  0
  5  6  1  0
  7 12  1  0
  7  4  1  0
  8  7  2  0
  9 10  2  0
  9  8  1  0
 10 11  1  0
 11 12  2  0
 12 13  1  0
 14 15  2  0
 15 16  1  0
 15  1  1  0
 17 16  2  0
 18 17  1  0
 19 18  2  0
 19 14  1  0
  1 20  1  1
  2 21  1  0
  2 22  1  0
  3 23  1  0
  3 24  1  0
  4 25  1  1
  5 26  1  0
  5 27  1  0
  6 28  1  0
  6 29  1  0
  8 30  1  0
  9 31  1  0
 10 32  1  0
 11 33  1  0
 13 34  1  0
 13 35  1  0
 13 36  1  0
 14 37  1  0
 16 38  1  0
 18 39  1  0
M  ISO  8  20  13  21  13  22  13  23  13  24  13  25  13  26  13  27  13
M  ISO  8  28  13  29  13  30  14  31  14  32  14  33  14  34   8  35   8
M  ISO  4  36   8  37  14  38  14  39  14
M  END
>  <minimizedAffinity>  (1) 
-4.35186338

>  <minimizedRMSD>  (1) 
1.60347283

$$$$
