
     RDKit          3D

 26 28  0  0  0  0  0  0  0  0999 V2000
   35.7940   29.2570   49.5850 C   0  0  0  0  0  0  0  0  0  0  0  0
   35.8840   30.0850   48.4630 C   0  0  0  0  0  0  0  0  0  0  0  0
   35.0820   29.8930   47.3530 C   0  0  0  0  0  0  0  0  0  0  0  0
   34.1610   28.8660   47.3240 C   0  0  0  0  0  0  0  0  0  0  0  0
   33.2790   28.4770   46.3740 N   0  0  0  0  0  0  0  0  0  0  0  0
   32.6000   27.4070   46.8330 C   0  0  0  0  0  0  0  0  0  0  0  0
   33.0620   27.1030   48.1160 C   0  0  0  0  0  0  0  0  0  0  0  0
   34.0350   28.0260   48.3990 C   0  0  0  0  0  0  0  0  0  0  0  0
   34.8480   28.2440   49.4910 C   0  0  0  0  0  0  0  0  0  0  0  0
   37.7900   33.0060   49.6320 C   0  0  0  0  0  0  0  0  0  0  0  0
   38.7040   33.2390   48.5900 C   0  0  0  0  0  0  0  0  0  0  0  0
   38.6470   32.3730   47.4890 C   0  0  0  0  0  0  0  0  0  0  0  0
   37.7350   31.3770   47.4820 N   0  0  0  0  0  0  0  0  0  0  0  0
   36.8710   31.1820   48.5010 C   0  0  0  0  0  0  0  0  0  0  0  0
   36.8860   31.9890   49.5850 N   0  0  0  0  0  0  0  0  0  0  0  0
   39.6210   34.3130   48.6980 N   0  0  0  0  0  0  0  0  0  0  0  0
   36.4246   29.3967   50.4754 H   0  0  0  0  0  0  0  0  0  0  0  0
   35.1790   30.5640   46.4867 H   0  0  0  0  0  0  0  0  0  0  0  0
   33.1486   28.9235   45.4550 H   0  0  0  0  0  0  0  0  0  0  0  0
   31.8136   26.8639   46.2885 H   0  0  0  0  0  0  0  0  0  0  0  0
   32.7149   26.2875   48.7675 H   0  0  0  0  0  0  0  0  0  0  0  0
   34.7397   27.5663   50.3506 H   0  0  0  0  0  0  0  0  0  0  0  0
   37.8055   33.6654   50.5123 H   0  0  0  0  0  0  0  0  0  0  0  0
   39.3363   32.5031   46.6417 H   0  0  0  0  0  0  0  0  0  0  0  0
   40.2951   34.4928   47.9403 H   0  0  0  0  0  0  0  0  0  0  0  0
   39.6137   34.9143   49.5342 H   0  0  0  0  0  0  0  0  0  0  0  0
  2 14  1  0
  2  1  2  0
  3  2  1  0
  4  3  2  0
  4  8  1  0
  5  6  1  0
  5  4  1  0
  6  7  2  0
  7  8  1  0
  8  9  2  0
  9  1  1  0
 11 16  1  0
 11 10  2  0
 12 11  1  0
 13 12  2  0
 13 14  1  0
 14 15  2  0
 15 10  1  0
  1 17  1  0
  3 18  1  0
  5 19  1  0
  6 20  1  0
  7 21  1  0
  9 22  1  0
 10 23  1  0
 12 24  1  0
 16 25  1  0
 16 26  1  0
M  ISO  8  17  14  18  14  19   9  20  14  21  14  22  14  23  14  24  14
M  END
>  <minimizedAffinity>  (1) 
-5.848207

>  <minimizedRMSD>  (1) 
3.87476206

$$$$
