
     RDKit          3D

 22 23  0  0  0  0  0  0  0  0999 V2000
   35.5190   30.3300   48.9940 C   0  0  0  0  0  0  0  0  0  0  0  0
   35.9480   29.7300   50.1990 C   0  0  0  0  0  0  0  0  0  0  0  0
   37.3320   29.7230   50.4300 C   0  0  0  0  0  0  0  0  0  0  0  0
   38.1730   30.2800   49.5010 N   0  0  0  0  0  0  0  0  0  0  0  0
   37.7090   30.8370   48.3730 C   0  0  0  0  0  0  0  0  0  0  0  0
   36.3710   30.8710   48.0990 N   0  0  0  0  0  0  0  0  0  0  0  0
   38.6750   33.6460   49.0170 Cl  0  0  0  0  0  0  0  0  0  0  0  0
   39.1020   32.7060   47.6120 C   0  0  0  0  0  0  0  0  0  0  0  0
   38.6180   31.4290   47.3910 C   0  0  0  0  0  0  0  0  0  0  0  0
   39.0000   30.7310   46.2430 C   0  0  0  0  0  0  0  0  0  0  0  0
   39.8550   31.2820   45.3140 C   0  0  0  0  0  0  0  0  0  0  0  0
   40.3520   32.5720   45.5250 C   0  0  0  0  0  0  0  0  0  0  0  0
   39.9700   33.2580   46.6610 C   0  0  0  0  0  0  0  0  0  0  0  0
   35.0150   29.1760   51.1070 N   0  0  0  0  0  0  0  0  0  0  0  0
   34.4412   30.3572   48.7757 H   0  0  0  0  0  0  0  0  0  0  0  0
   37.7389   29.2746   51.3484 H   0  0  0  0  0  0  0  0  0  0  0  0
   38.6085   29.7166   46.0767 H   0  0  0  0  0  0  0  0  0  0  0  0
   40.1433   30.7142   44.4171 H   0  0  0  0  0  0  0  0  0  0  0  0
   41.0364   33.0330   44.7976 H   0  0  0  0  0  0  0  0  0  0  0  0
   40.3608   34.2731   46.8248 H   0  0  0  0  0  0  0  0  0  0  0  0
   35.3429   28.7419   51.9816 H   0  0  0  0  0  0  0  0  0  0  0  0
   34.0079   29.2068   50.8934 H   0  0  0  0  0  0  0  0  0  0  0  0
  1  2  2  0
  2  3  1  0
  2 14  1  0
  4  3  2  0
  5  4  1  0
  6  5  2  0
  6  1  1  0
  8  7  1  0
  9  8  2  0
  9  5  1  0
 10  9  1  0
 11 12  1  0
 11 10  2  0
 12 13  2  0
 13  8  1  0
  1 15  1  0
  3 16  1  0
 10 17  1  0
 11 18  1  0
 12 19  1  0
 13 20  1  0
 14 21  1  0
 14 22  1  0
M  ISO  6  15  14  16  14  17  14  18  14  19  14  20  14
M  END
>  <minimizedAffinity>  (1) 
-5.278368

>  <minimizedRMSD>  (1) 
6.76619577

$$$$
