
     RDKit          3D

 26 28  0  0  0  0  0  0  0  0999 V2000
   33.9190   29.8980   47.0860 C   0  0  0  0  0  0  0  0  0  0  0  0
   33.0860   30.7560   46.4620 N   0  0  0  0  0  0  0  0  0  0  0  0
   31.8990   30.4230   45.9550 C   0  0  0  0  0  0  0  0  0  0  0  0
   31.4180   29.1720   46.0250 N   0  0  0  0  0  0  0  0  0  0  0  0
   32.1770   28.2460   46.6280 C   0  0  0  0  0  0  0  0  0  0  0  0
   31.6630   26.9710   46.6860 C   0  0  0  0  0  0  0  0  0  0  0  0
   32.3820   25.9730   47.2870 C   0  0  0  0  0  0  0  0  0  0  0  0
   33.6290   26.3080   47.8220 C   0  0  0  0  0  0  0  0  0  0  0  0
   34.0830   27.6020   47.7300 C   0  0  0  0  0  0  0  0  0  0  0  0
   33.4000   28.6210   47.1410 C   0  0  0  0  0  0  0  0  0  0  0  0
   36.1760   30.8810   49.6920 C   0  0  0  0  0  0  0  0  0  0  0  0
   37.4470   30.9900   49.1380 C   0  0  0  0  0  0  0  0  0  0  0  0
   37.5370   30.7060   47.7710 C   0  0  0  0  0  0  0  0  0  0  0  0
   36.4290   30.3560   47.0920 N   0  0  0  0  0  0  0  0  0  0  0  0
   35.2330   30.2610   47.6470 C   0  0  0  0  0  0  0  0  0  0  0  0
   35.1080   30.5250   48.9550 N   0  0  0  0  0  0  0  0  0  0  0  0
   38.5730   31.3630   49.8990 N   0  0  0  0  0  0  0  0  0  0  0  0
   31.2939   31.1989   45.4632 H   0  0  0  0  0  0  0  0  0  0  0  0
   30.6765   26.7541   46.2504 H   0  0  0  0  0  0  0  0  0  0  0  0
   31.9929   24.9459   47.3466 H   0  0  0  0  0  0  0  0  0  0  0  0
   34.2439   25.5400   48.3141 H   0  0  0  0  0  0  0  0  0  0  0  0
   35.0681   27.8301   48.1631 H   0  0  0  0  0  0  0  0  0  0  0  0
   36.0400   31.0918   50.7630 H   0  0  0  0  0  0  0  0  0  0  0  0
   38.5064   30.7683   47.2549 H   0  0  0  0  0  0  0  0  0  0  0  0
   39.4977   31.4323   49.4506 H   0  0  0  0  0  0  0  0  0  0  0  0
   38.4713   31.5663   50.9036 H   0  0  0  0  0  0  0  0  0  0  0  0
  1 10  1  0
  1 15  1  0
  2  1  2  0
  3  4  2  0
  3  2  1  0
  4  5  1  0
  5  6  1  0
  5 10  2  0
  6  7  2  0
  7  8  1  0
  9  8  2  0
 10  9  1  0
 12 11  2  0
 12 17  1  0
 13 12  1  0
 14 15  1  0
 14 13  2  0
 15 16  2  0
 16 11  1  0
  3 18  1  0
  6 19  1  0
  7 20  1  0
  8 21  1  0
  9 22  1  0
 11 23  1  0
 13 24  1  0
 17 25  1  0
 17 26  1  0
M  ISO  7  18  14  19  14  20  14  21  14  22  14  23  14  24  14
M  END
>  <minimizedAffinity>  (1) 
-4.53076982

>  <minimizedRMSD>  (1) 
3.22047281

$$$$
