
     RDKit          3D

 19 20  0  0  0  0  0  0  0  0999 V2000
   38.5460   33.3150   48.7200 C   0  0  0  0  0  0  0  0  0  0  0  0
   39.0180   32.7210   47.5400 C   0  0  0  0  0  0  0  0  0  0  0  0
   38.6300   31.3790   47.3050 C   0  0  0  0  0  0  0  0  0  0  0  0
   37.8380   30.7510   48.2160 N   0  0  0  0  0  0  0  0  0  0  0  0
   37.4210   31.3780   49.3250 C   0  0  0  0  0  0  0  0  0  0  0  0
   37.7530   32.6540   49.6110 N   0  0  0  0  0  0  0  0  0  0  0  0
   39.8410   33.4320   46.6330 N   0  0  0  0  0  0  0  0  0  0  0  0
   36.5560   30.6830   50.3140 C   0  0  0  0  0  0  0  0  0  0  0  0
   37.3300   29.9500   51.4270 C   0  0  0  0  0  0  0  0  0  0  0  0
   36.5170   29.2020   50.3610 C   0  0  0  0  0  0  0  0  0  0  0  0
   38.8270   34.3565   48.9353 H   0  0  0  0  0  0  0  0  0  0  0  0
   38.9642   30.8521   46.3991 H   0  0  0  0  0  0  0  0  0  0  0  0
   40.1751   32.9740   45.7730 H   0  0  0  0  0  0  0  0  0  0  0  0
   40.1055   34.4071   46.8333 H   0  0  0  0  0  0  0  0  0  0  0  0
   35.7608   31.4401   50.2475 H   0  0  0  0  0  0  0  0  0  0  0  0
   38.4294   29.9183   51.4122 H   0  0  0  0  0  0  0  0  0  0  0  0
   37.3548   29.9811   52.5263 H   0  0  0  0  0  0  0  0  0  0  0  0
   35.5862   28.6890   50.6445 H   0  0  0  0  0  0  0  0  0  0  0  0
   36.7444   28.4030   49.6400 H   0  0  0  0  0  0  0  0  0  0  0  0
  1  6  2  0
  2  1  1  0
  3  2  2  0
  3  4  1  0
  4  5  2  0
  5  6  1  0
  5  8  1  0
  7  2  1  0
  8 10  1  0
  8  9  1  0
 10  9  1  0
  1 11  1  0
  3 12  1  0
  7 13  1  0
  7 14  1  0
  8 15  1  0
  9 16  1  0
  9 17  1  0
 10 18  1  0
 10 19  1  0
M  ISO  7  11  14  12  14  15  13  16  13  17  13  18  13  19  13
M  END
>  <minimizedAffinity>  (1) 
-4.44932795

>  <minimizedRMSD>  (1) 
4.04259253

$$$$
