
     RDKit          3D

 16 16  0  0  0  0  0  0  0  0999 V2000
   38.0730   33.0370   49.1490 C   0  0  0  0  0  0  0  0  0  0  0  0
   38.8190   32.7400   48.0090 C   0  0  0  0  0  0  0  0  0  0  0  0
   38.7050   31.4150   47.5190 C   0  0  0  0  0  0  0  0  0  0  0  0
   37.8910   30.5380   48.1800 N   0  0  0  0  0  0  0  0  0  0  0  0
   37.2020   30.8900   49.2700 C   0  0  0  0  0  0  0  0  0  0  0  0
   37.2740   32.1350   49.7800 N   0  0  0  0  0  0  0  0  0  0  0  0
   36.5730   29.5730   51.2840 C   0  0  0  0  0  0  0  0  0  0  0  0
   37.5200   30.0750   51.9560 O   0  0  0  0  0  0  0  0  0  0  0  0
   36.3660   29.9450   49.9280 N   0  0  0  0  0  0  0  0  0  0  0  0
   39.6390   33.7070   47.3860 N   0  0  0  0  0  0  0  0  0  0  0  0
   38.1339   34.0555   49.5601 H   0  0  0  0  0  0  0  0  0  0  0  0
   39.2608   31.0985   46.6241 H   0  0  0  0  0  0  0  0  0  0  0  0
   35.9017   28.8398   51.7548 H   0  0  0  0  0  0  0  0  0  0  0  0
   35.5876   29.5178   49.4060 H   0  0  0  0  0  0  0  0  0  0  0  0
   40.1791   33.4593   46.5447 H   0  0  0  0  0  0  0  0  0  0  0  0
   39.6967   34.6598   47.7731 H   0  0  0  0  0  0  0  0  0  0  0  0
  1  6  2  0
  2  1  1  0
  3  2  2  0
  3  4  1  0
  4  5  2  0
  5  6  1  0
  5  9  1  0
  7  8  2  0
  9  7  1  0
 10  2  1  0
  1 11  1  0
  3 12  1  0
  7 13  1  0
  9 14  1  0
 10 15  1  0
 10 16  1  0
M  ISO  3  11  14  12  14  13   6
M  END
>  <minimizedAffinity>  (1) 
-4.24979734

>  <minimizedRMSD>  (1) 
3.75503373

$$$$
