
     RDKit          3D

 15 15  0  0  0  0  0  0  0  0999 V2000
   36.5310   29.7400   51.0680 C   0  0  0  0  0  0  0  0  0  0  0  0
   37.4160   30.2040   50.0910 C   0  0  0  0  0  0  0  0  0  0  0  0
   36.9980   30.0170   48.7610 C   0  0  0  0  0  0  0  0  0  0  0  0
   35.8060   29.4200   48.5040 N   0  0  0  0  0  0  0  0  0  0  0  0
   35.0070   28.9990   49.4900 C   0  0  0  0  0  0  0  0  0  0  0  0
   35.3490   29.1490   50.8070 N   0  0  0  0  0  0  0  0  0  0  0  0
   38.6420   30.8160   50.4630 N   0  0  0  0  0  0  0  0  0  0  0  0
   33.6970   28.3440   49.2250 C   0  0  0  0  0  0  0  0  0  0  0  0
   36.8193   29.8660   52.1220 H   0  0  0  0  0  0  0  0  0  0  0  0
   37.6358   30.3539   47.9305 H   0  0  0  0  0  0  0  0  0  0  0  0
   39.2892   31.1555   49.7372 H   0  0  0  0  0  0  0  0  0  0  0  0
   38.8842   30.9204   51.4587 H   0  0  0  0  0  0  0  0  0  0  0  0
   33.2091   28.1001   50.1802 H   0  0  0  0  0  0  0  0  0  0  0  0
   33.0552   29.0273   48.6495 H   0  0  0  0  0  0  0  0  0  0  0  0
   33.8585   27.4206   48.6495 H   0  0  0  0  0  0  0  0  0  0  0  0
  2  7  1  0
  2  1  2  0
  3  2  1  0
  4  3  2  0
  4  5  1  0
  5  6  2  0
  6  1  1  0
  8  5  1  0
  1  9  1  0
  3 10  1  0
  7 11  1  0
  7 12  1  0
  8 13  1  0
  8 14  1  0
  8 15  1  0
M  ISO  5   9  14  10  14  13   8  14   8  15   8
M  END
>  <minimizedAffinity>  (1) 
-3.49484468

>  <minimizedRMSD>  (1) 
0.416980088

$$$$
