
     RDKit          3D

 13 13  0  0  0  0  0  0  0  0999 V2000
   36.4550   29.6440   51.0460 C   0  0  0  0  0  0  0  0  0  0  0  0
   37.2890   30.0730   50.0130 C   0  0  0  0  0  0  0  0  0  0  0  0
   36.7870   29.9150   48.7060 C   0  0  0  0  0  0  0  0  0  0  0  0
   35.5630   29.3750   48.5180 N   0  0  0  0  0  0  0  0  0  0  0  0
   34.8000   28.9790   49.5420 C   0  0  0  0  0  0  0  0  0  0  0  0
   35.2340   29.1060   50.8300 N   0  0  0  0  0  0  0  0  0  0  0  0
   38.5630   30.6310   50.2920 N   0  0  0  0  0  0  0  0  0  0  0  0
   33.5340   28.4160   49.4410 O   0  0  0  0  0  0  0  0  0  0  0  0
   36.8070   29.7483   52.0829 H   0  0  0  0  0  0  0  0  0  0  0  0
   37.3897   30.2303   47.8415 H   0  0  0  0  0  0  0  0  0  0  0  0
   39.1686   30.9437   49.5197 H   0  0  0  0  0  0  0  0  0  0  0  0
   38.8824   30.7235   51.2668 H   0  0  0  0  0  0  0  0  0  0  0  0
   33.0426   28.1527   50.2591 H   0  0  0  0  0  0  0  0  0  0  0  0
  2  7  1  0
  2  1  2  0
  3  2  1  0
  4  3  2  0
  4  5  1  0
  5  6  2  0
  6  1  1  0
  8  5  1  0
  1  9  1  0
  3 10  1  0
  7 11  1  0
  7 12  1  0
  8 13  1  0
M  ISO  3   9  14  10  14  13   3
M  END
>  <minimizedAffinity>  (1) 
-3.40631437

>  <minimizedRMSD>  (1) 
0.37074849

$$$$
