
     RDKit          3D

 14 14  0  0  0  0  0  0  0  0999 V2000
   36.5350   29.7440   51.1100 C   0  0  0  0  0  0  0  0  0  0  0  0
   37.3930   30.1790   50.0870 C   0  0  0  0  0  0  0  0  0  0  0  0
   36.9420   29.9770   48.7720 C   0  0  0  0  0  0  0  0  0  0  0  0
   35.7240   29.3840   48.5620 N   0  0  0  0  0  0  0  0  0  0  0  0
   34.9550   28.9910   49.6000 C   0  0  0  0  0  0  0  0  0  0  0  0
   35.3400   29.1600   50.8850 N   0  0  0  0  0  0  0  0  0  0  0  0
   33.6970   28.3780   49.3480 N   0  0  0  0  0  0  0  0  0  0  0  0
   38.6340   30.7830   50.3830 N   0  0  0  0  0  0  0  0  0  0  0  0
   36.8551   29.8874   52.1526 H   0  0  0  0  0  0  0  0  0  0  0  0
   37.5606   30.2918   47.9186 H   0  0  0  0  0  0  0  0  0  0  0  0
   33.1047   28.0755   50.1345 H   0  0  0  0  0  0  0  0  0  0  0  0
   33.3780   28.2364   48.3789 H   0  0  0  0  0  0  0  0  0  0  0  0
   39.2499   31.0957   49.6189 H   0  0  0  0  0  0  0  0  0  0  0  0
   38.9237   30.9111   51.3631 H   0  0  0  0  0  0  0  0  0  0  0  0
  2  8  1  0
  2  1  2  0
  3  2  1  0
  4  3  2  0
  4  5  1  0
  5  6  2  0
  6  1  1  0
  7  5  1  0
  1  9  1  0
  3 10  1  0
  7 11  1  0
  7 12  1  0
  8 13  1  0
  8 14  1  0
M  ISO  2   9  14  10  14
M  END
>  <minimizedAffinity>  (1) 
-3.40308142

>  <minimizedRMSD>  (1) 
0.325648546

$$$$
