
     RDKit          3D

 32 34  0  0  0  0  0  0  0  0999 V2000
   39.8940   30.8490   44.5430 C   0  0  0  0  0  0  0  0  0  0  0  0
   40.4030   32.1230   44.3470 C   0  0  0  0  0  0  0  0  0  0  0  0
   40.3300   33.1920   45.2010 C   0  0  0  0  0  0  0  0  0  0  0  0
   39.6730   32.9370   46.3730 N   0  0  0  0  0  0  0  0  0  0  0  0
   39.1550   31.6940   46.6080 C   0  0  0  0  0  0  0  0  0  0  0  0
   39.2680   30.6940   45.7180 N   0  0  0  0  0  0  0  0  0  0  0  0
   38.4680   31.4330   47.8370 N   0  0  0  0  0  0  0  0  0  0  0  0
   37.6070   30.3060   48.1410 C   0  0  0  0  0  0  0  0  0  0  0  0
   37.6050   30.1660   49.6260 C   0  0  0  0  0  0  0  0  0  0  0  0
   38.3340   31.3610   50.1990 C   0  0  0  0  0  0  0  0  0  0  0  0
   38.5210   32.2820   49.0240 C   0  0  0  0  0  0  0  0  0  0  0  0
   39.2390   27.7920   42.7200 C   0  0  0  0  0  0  0  0  0  0  0  0
   40.2020   27.7570   41.6970 C   0  0  0  0  0  0  0  0  0  0  0  0
   41.1020   28.8550   41.6650 C   0  0  0  0  0  0  0  0  0  0  0  0
   40.9950   29.8450   42.5850 N   0  0  0  0  0  0  0  0  0  0  0  0
   40.0490   29.8060   43.5300 C   0  0  0  0  0  0  0  0  0  0  0  0
   39.1370   28.7870   43.6370 N   0  0  0  0  0  0  0  0  0  0  0  0
   40.2670   26.7030   40.7660 N   0  0  0  0  0  0  0  0  0  0  0  0
   40.9265   32.2961   43.3952 H   0  0  0  0  0  0  0  0  0  0  0  0
   40.7641   34.1744   44.9635 H   0  0  0  0  0  0  0  0  0  0  0  0
   36.5872   30.4969   47.7755 H   0  0  0  0  0  0  0  0  0  0  0  0
   37.9661   29.3872   47.6544 H   0  0  0  0  0  0  0  0  0  0  0  0
   36.5705   30.1434   49.9992 H   0  0  0  0  0  0  0  0  0  0  0  0
   38.1002   29.2309   49.9265 H   0  0  0  0  0  0  0  0  0  0  0  0
   37.7323   31.8457   50.9819 H   0  0  0  0  0  0  0  0  0  0  0  0
   39.2880   31.0840   50.6714 H   0  0  0  0  0  0  0  0  0  0  0  0
   39.4944   32.7904   49.0875 H   0  0  0  0  0  0  0  0  0  0  0  0
   37.7472   33.0633   48.9964 H   0  0  0  0  0  0  0  0  0  0  0  0
   38.5223   26.9598   42.7812 H   0  0  0  0  0  0  0  0  0  0  0  0
   41.8854   28.9022   40.8943 H   0  0  0  0  0  0  0  0  0  0  0  0
   40.9866   26.7104   40.0291 H   0  0  0  0  0  0  0  0  0  0  0  0
   39.5950   25.9244   40.8218 H   0  0  0  0  0  0  0  0  0  0  0  0
  1  6  1  0
  2  1  2  0
  2  3  1  0
  3  4  2  0
  4  5  1  0
  5  7  1  0
  6  5  2  0
  7  8  1  0
  7 11  1  0
  8  9  1  0
  9 10  1  0
 11 10  1  0
 12 17  2  0
 13 12  1  0
 14 13  2  0
 14 15  1  0
 15 16  2  0
 16 17  1  0
 16  1  1  0
 18 13  1  0
  2 19  1  0
  3 20  1  0
  8 21  1  0
  8 22  1  0
  9 23  1  0
  9 24  1  0
 10 25  1  0
 10 26  1  0
 11 27  1  0
 11 28  1  0
 12 29  1  0
 14 30  1  0
 18 31  1  0
 18 32  1  0
M  ISO  8  19  14  20  14  21  13  22  13  23  13  24  13  25  13  26  13
M  ISO  4  27  13  28  13  29  14  30  14
M  END
>  <minimizedAffinity>  (1) 
-5.86720181

>  <minimizedRMSD>  (1) 
6.26834917

$$$$
