
     RDKit          3D

 28 30  0  0  0  0  0  0  0  0999 V2000
   39.7570   30.7630   44.4020 C   0  0  0  0  0  0  0  0  0  0  0  0
   40.4450   31.9350   44.1670 C   0  0  0  0  0  0  0  0  0  0  0  0
   40.4230   33.0560   44.9670 C   0  0  0  0  0  0  0  0  0  0  0  0
   39.6430   32.9710   46.0830 N   0  0  0  0  0  0  0  0  0  0  0  0
   38.9580   31.8310   46.3340 C   0  0  0  0  0  0  0  0  0  0  0  0
   38.9960   30.7350   45.5280 N   0  0  0  0  0  0  0  0  0  0  0  0
   39.0350   27.5420   42.8780 C   0  0  0  0  0  0  0  0  0  0  0  0
   39.9430   27.4430   41.8050 C   0  0  0  0  0  0  0  0  0  0  0  0
   40.8220   28.5470   41.6310 C   0  0  0  0  0  0  0  0  0  0  0  0
   40.7430   29.5940   42.4700 N   0  0  0  0  0  0  0  0  0  0  0  0
   39.8610   29.6320   43.4710 C   0  0  0  0  0  0  0  0  0  0  0  0
   38.9940   28.6150   43.6970 N   0  0  0  0  0  0  0  0  0  0  0  0
   39.9630   26.3050   40.9660 N   0  0  0  0  0  0  0  0  0  0  0  0
   38.1360   31.7820   47.5370 C   0  0  0  0  0  0  0  0  0  0  0  0
   38.3460   32.6620   48.5800 C   0  0  0  0  0  0  0  0  0  0  0  0
   37.5480   32.5890   49.7090 C   0  0  0  0  0  0  0  0  0  0  0  0
   36.5730   31.6430   49.7520 N   0  0  0  0  0  0  0  0  0  0  0  0
   36.3650   30.7860   48.7370 C   0  0  0  0  0  0  0  0  0  0  0  0
   37.1560   30.8640   47.6290 N   0  0  0  0  0  0  0  0  0  0  0  0
   41.0664   31.9783   43.2603 H   0  0  0  0  0  0  0  0  0  0  0  0
   40.9974   33.9615   44.7218 H   0  0  0  0  0  0  0  0  0  0  0  0
   38.3330   26.7139   43.0552 H   0  0  0  0  0  0  0  0  0  0  0  0
   41.5609   28.5442   40.8161 H   0  0  0  0  0  0  0  0  0  0  0  0
   40.6344   26.2514   40.1867 H   0  0  0  0  0  0  0  0  0  0  0  0
   39.3062   25.5296   41.1341 H   0  0  0  0  0  0  0  0  0  0  0  0
   39.1432   33.4171   48.5143 H   0  0  0  0  0  0  0  0  0  0  0  0
   37.6994   33.2802   50.5512 H   0  0  0  0  0  0  0  0  0  0  0  0
   35.5669   30.0316   48.7996 H   0  0  0  0  0  0  0  0  0  0  0  0
  1  6  1  0
  2  1  2  0
  2  3  1  0
  3  4  2  0
  4  5  1  0
  5 14  1  0
  6  5  2  0
  7 12  2  0
  8  7  1  0
  9  8  2  0
  9 10  1  0
 10 11  2  0
 11 12  1  0
 11  1  1  0
 13  8  1  0
 14 19  1  0
 14 15  2  0
 15 16  1  0
 16 17  2  0
 18 17  1  0
 19 18  2  0
  2 20  1  0
  3 21  1  0
  7 22  1  0
  9 23  1  0
 13 24  1  0
 13 25  1  0
 15 26  1  0
 16 27  1  0
 18 28  1  0
M  ISO  7  20  14  21  14  22  14  23  14  26  14  27  14  28  14
M  END
>  <minimizedAffinity>  (1) 
-5.47126484

>  <minimizedRMSD>  (1) 
6.1571312

$$$$
