
     RDKit          3D

 23 24  0  0  0  0  0  0  0  0999 V2000
   35.7520   30.0930   48.0820 C   0  0  0  0  0  0  0  0  0  0  0  0
   36.2390   29.8960   49.3670 C   0  0  0  0  0  0  0  0  0  0  0  0
   37.5830   30.2450   49.5490 C   0  0  0  0  0  0  0  0  0  0  0  0
   38.3120   30.7350   48.5160 N   0  0  0  0  0  0  0  0  0  0  0  0
   37.7720   30.8990   47.2980 C   0  0  0  0  0  0  0  0  0  0  0  0
   36.4800   30.5820   47.0530 N   0  0  0  0  0  0  0  0  0  0  0  0
   38.5370   31.4230   46.1720 C   0  0  0  0  0  0  0  0  0  0  0  0
   39.9020   31.4840   46.1920 C   0  0  0  0  0  0  0  0  0  0  0  0
   40.7240   31.9610   45.1870 C   0  0  0  0  0  0  0  0  0  0  0  0
   40.0800   32.4060   44.0790 N   0  0  0  0  0  0  0  0  0  0  0  0
   38.7200   32.3610   44.0210 C   0  0  0  0  0  0  0  0  0  0  0  0
   37.9460   31.8830   45.0370 N   0  0  0  0  0  0  0  0  0  0  0  0
   38.0120   32.8500   42.8040 C   0  0  0  0  0  0  0  0  0  0  0  0
   35.4510   29.3850   50.4160 N   0  0  0  0  0  0  0  0  0  0  0  0
   34.7010   29.8332   47.8875 H   0  0  0  0  0  0  0  0  0  0  0  0
   38.0506   30.1207   50.5369 H   0  0  0  0  0  0  0  0  0  0  0  0
   40.3986   31.1155   47.1017 H   0  0  0  0  0  0  0  0  0  0  0  0
   41.8200   31.9783   45.2794 H   0  0  0  0  0  0  0  0  0  0  0  0
   37.1411   33.4515   43.1033 H   0  0  0  0  0  0  0  0  0  0  0  0
   38.6966   33.4687   42.2052 H   0  0  0  0  0  0  0  0  0  0  0  0
   37.6758   31.9907   42.2052 H   0  0  0  0  0  0  0  0  0  0  0  0
   35.8603   29.2575   51.3526 H   0  0  0  0  0  0  0  0  0  0  0  0
   34.4653   29.1387   50.2468 H   0  0  0  0  0  0  0  0  0  0  0  0
  1  2  2  0
  2  3  1  0
  2 14  1  0
  4  3  2  0
  5  4  1  0
  6  5  2  0
  6  1  1  0
  7  8  2  0
  7  5  1  0
  9  8  1  0
 10  9  2  0
 11 10  1  0
 11 12  2  0
 12  7  1  0
 13 11  1  0
  1 15  1  0
  3 16  1  0
  8 17  1  0
  9 18  1  0
 13 19  1  0
 13 20  1  0
 13 21  1  0
 14 22  1  0
 14 23  1  0
M  ISO  7  15  14  16  14  17  14  18  14  19   8  20   8  21   8
M  END
>  <minimizedAffinity>  (1) 
-4.23830605

>  <minimizedRMSD>  (1) 
0.406040341

$$$$
