
     RDKit          3D

 28 30  0  0  0  0  0  0  0  0999 V2000
   38.4180   31.5230   47.1930 C   0  0  0  0  0  0  0  0  0  0  0  0
   38.9200   32.4120   48.1210 C   0  0  0  0  0  0  0  0  0  0  0  0
   38.3570   32.7370   49.3350 C   0  0  0  0  0  0  0  0  0  0  0  0
   37.1910   32.1070   49.6220 N   0  0  0  0  0  0  0  0  0  0  0  0
   36.6650   31.2190   48.7210 C   0  0  0  0  0  0  0  0  0  0  0  0
   37.2650   30.9470   47.5560 N   0  0  0  0  0  0  0  0  0  0  0  0
   39.2990   29.9070   44.0800 C   0  0  0  0  0  0  0  0  0  0  0  0
   40.3580   30.6620   43.5580 C   0  0  0  0  0  0  0  0  0  0  0  0
   40.7550   31.7590   44.3340 C   0  0  0  0  0  0  0  0  0  0  0  0
   40.1200   32.0130   45.4910 N   0  0  0  0  0  0  0  0  0  0  0  0
   39.1180   31.2700   45.9490 C   0  0  0  0  0  0  0  0  0  0  0  0
   38.6560   30.1680   45.2550 N   0  0  0  0  0  0  0  0  0  0  0  0
   40.9560   30.3060   42.3280 N   0  0  0  0  0  0  0  0  0  0  0  0
   35.4180   30.4940   48.9370 C   0  0  0  0  0  0  0  0  0  0  0  0
   34.8140   29.9830   47.7940 C   0  0  0  0  0  0  0  0  0  0  0  0
   33.6680   29.3370   48.1400 N   0  0  0  0  0  0  0  0  0  0  0  0
   33.5670   29.4470   49.4820 C   0  0  0  0  0  0  0  0  0  0  0  0
   34.6270   30.1490   49.9610 N   0  0  0  0  0  0  0  0  0  0  0  0
   32.5530   28.9400   50.2920 O   0  0  0  0  0  0  0  0  0  0  0  0
   39.8659   32.9119   47.8652 H   0  0  0  0  0  0  0  0  0  0  0  0
   38.8210   33.4578   50.0243 H   0  0  0  0  0  0  0  0  0  0  0  0
   38.9601   29.0373   43.4979 H   0  0  0  0  0  0  0  0  0  0  0  0
   41.5789   32.4065   43.9993 H   0  0  0  0  0  0  0  0  0  0  0  0
   41.7338   30.8669   41.9521 H   0  0  0  0  0  0  0  0  0  0  0  0
   40.6140   29.4857   41.8074 H   0  0  0  0  0  0  0  0  0  0  0  0
   35.2021   30.0851   46.7698 H   0  0  0  0  0  0  0  0  0  0  0  0
   33.0104   28.8604   47.5065 H   0  0  0  0  0  0  0  0  0  0  0  0
   32.5835   29.0830   51.2711 H   0  0  0  0  0  0  0  0  0  0  0  0
  1  6  1  0
  1  2  2  0
  2  3  1  0
  3  4  2  0
  5 14  1  0
  5  4  1  0
  6  5  2  0
  7 12  2  0
  8  7  1  0
  8  9  2  0
  9 10  1  0
 10 11  2  0
 11  1  1  0
 12 11  1  0
 13  8  1  0
 14 18  1  0
 15 16  1  0
 15 14  2  0
 16 17  1  0
 17 18  2  0
 17 19  1  0
  2 20  1  0
  3 21  1  0
  7 22  1  0
  9 23  1  0
 13 24  1  0
 13 25  1  0
 15 26  1  0
 16 27  1  0
 19 28  1  0
M  ISO  7  20  14  21  14  22  14  23  14  26  14  27   9  28   3
M  END
>  <minimizedAffinity>  (1) 
-5.17269611

>  <minimizedRMSD>  (1) 
0.509773314

$$$$
