
     RDKit          3D

 50 53  0  0  1  0  0  0  0  0999 V2000
   35.2470   30.2090   49.2030 C   0  0  2  0  0  0  0  0  0  0  0  0
   36.1580   30.8530   48.2190 C   0  0  0  0  0  0  0  0  0  0  0  0
   37.5340   30.2070   48.2040 C   0  0  2  0  0  0  0  0  0  0  0  0
   38.1830   30.2470   49.5460 C   0  0  0  0  0  0  0  0  0  0  0  0
   37.2430   29.8730   50.6660 C   0  0  0  0  0  0  0  0  0  0  0  0
   35.9580   29.2740   50.1520 C   0  0  0  0  0  0  0  0  0  0  0  0
   38.3860   30.7960   47.2300 N   0  0  0  0  0  0  0  0  0  0  0  0
   38.4610   30.0700   45.9790 C   0  0  0  0  0  0  0  0  0  0  0  0
   39.4640   30.9390   45.2160 C   0  0  0  0  0  0  0  0  0  0  0  0
   38.9210   32.3100   45.5470 C   0  0  0  0  0  0  0  0  0  0  0  0
   38.1750   32.1380   46.8750 C   0  0  2  0  0  0  0  0  0  0  0  0
   38.7280   33.0600   47.7750 N   0  0  0  0  0  0  0  0  0  0  0  0
   38.9580   32.6780   49.1130 C   0  0  0  0  0  0  0  0  0  0  0  0
   39.2120   34.0560   49.7200 C   0  0  0  0  0  0  0  0  0  0  0  0
   40.0810   34.6650   48.6370 C   0  0  0  0  0  0  0  0  0  0  0  0
   39.8710   33.7840   47.3950 C   0  0  0  0  0  0  0  0  0  0  0  0
   34.1650   29.4270   48.5580 C   0  0  0  0  0  0  0  0  0  0  0  0
   33.8800   29.8010   47.2440 C   0  0  0  0  0  0  0  0  0  0  0  0
   32.8730   29.0820   46.5820 C   0  0  0  0  0  0  0  0  0  0  0  0
   32.2250   28.0570   47.2530 N   0  0  0  0  0  0  0  0  0  0  0  0
   32.5440   27.7350   48.5390 C   0  0  0  0  0  0  0  0  0  0  0  0
   33.4940   28.4210   49.1480 N   0  0  0  0  0  0  0  0  0  0  0  0
   34.8261   31.0588   49.7603 H   0  0  0  0  0  0  0  0  0  0  0  0
   35.7147   30.7663   47.2160 H   0  0  0  0  0  0  0  0  0  0  0  0
   36.2819   31.9061   48.5116 H   0  0  0  0  0  0  0  0  0  0  0  0
   37.3767   29.1532   47.9305 H   0  0  0  0  0  0  0  0  0  0  0  0
   39.0283   29.5432   49.5479 H   0  0  0  0  0  0  0  0  0  0  0  0
   38.5107   31.2821   49.7227 H   0  0  0  0  0  0  0  0  0  0  0  0
   37.7410   29.1392   51.3169 H   0  0  0  0  0  0  0  0  0  0  0  0
   36.9919   30.7907   51.2181 H   0  0  0  0  0  0  0  0  0  0  0  0
   35.2971   29.0617   51.0053 H   0  0  0  0  0  0  0  0  0  0  0  0
   36.2039   28.3517   49.6052 H   0  0  0  0  0  0  0  0  0  0  0  0
   38.8376   29.0468   46.1246 H   0  0  0  0  0  0  0  0  0  0  0  0
   37.4956   29.9284   45.4711 H   0  0  0  0  0  0  0  0  0  0  0  0
   39.4387   30.7392   44.1346 H   0  0  0  0  0  0  0  0  0  0  0  0
   40.5182   30.7786   45.4859 H   0  0  0  0  0  0  0  0  0  0  0  0
   39.7421   33.0337   45.6569 H   0  0  0  0  0  0  0  0  0  0  0  0
   38.2634   32.6940   44.7532 H   0  0  0  0  0  0  0  0  0  0  0  0
   37.0929   32.3331   46.8452 H   0  0  0  0  0  0  0  0  0  0  0  0
   38.0795   32.1878   49.5579 H   0  0  0  0  0  0  0  0  0  0  0  0
   39.7622   31.9423   49.2613 H   0  0  0  0  0  0  0  0  0  0  0  0
   38.2775   34.6195   49.8585 H   0  0  0  0  0  0  0  0  0  0  0  0
   39.6626   34.0442   50.7234 H   0  0  0  0  0  0  0  0  0  0  0  0
   39.7694   35.6996   48.4311 H   0  0  0  0  0  0  0  0  0  0  0  0
   41.1389   34.7014   48.9362 H   0  0  0  0  0  0  0  0  0  0  0  0
   40.7306   33.1204   47.2195 H   0  0  0  0  0  0  0  0  0  0  0  0
   39.7637   34.3427   46.4535 H   0  0  0  0  0  0  0  0  0  0  0  0
   34.4201   30.6220   46.7498 H   0  0  0  0  0  0  0  0  0  0  0  0
   32.6017   29.3285   45.5449 H   0  0  0  0  0  0  0  0  0  0  0  0
   32.0201   26.9195   49.0592 H   0  0  0  0  0  0  0  0  0  0  0  0
  1  6  1  0
  2  1  1  0
  3  2  1  0
  3  4  1  0
  4  5  1  0
  6  5  1  0
  7  8  1  0
  7  3  1  0
  9 10  1  0
  9  8  1  0
 10 11  1  0
 11  7  1  0
 11 12  1  0
 12 13  1  0
 13 14  1  0
 15 14  1  0
 16 12  1  0
 16 15  1  0
 17 22  1  0
 17  1  1  0
 18 17  2  0
 19 18  1  0
 19 20  2  0
 20 21  1  0
 21 22  2  0
  1 23  1  1
  2 24  1  0
  2 25  1  0
  3 26  1  6
  4 27  1  0
  4 28  1  0
  5 29  1  0
  5 30  1  0
  6 31  1  0
  6 32  1  0
  8 33  1  0
  8 34  1  0
  9 35  1  0
  9 36  1  0
 10 37  1  0
 10 38  1  0
 11 39  1  6
 13 40  1  0
 13 41  1  0
 14 42  1  0
 14 43  1  0
 15 44  1  0
 15 45  1  0
 16 46  1  0
 16 47  1  0
 18 48  1  0
 19 49  1  0
 21 50  1  0
M  ISO  8  23  13  24  13  25  13  26  13  27  13  28  13  29  13  30  13
M  ISO  8  31  13  32  13  33  13  34  13  35  13  36  13  37  13  38  13
M  ISO  8  39  13  40  13  41  13  42  13  43  13  44  13  45  13  46  13
M  ISO  4  47  13  48  14  49  14  50  14
M  END
>  <minimizedAffinity>  (1) 
-5.85714054

>  <minimizedRMSD>  (1) 
1.11438441

$$$$
