
     RDKit          3D

 44 46  0  0  1  0  0  0  0  0999 V2000
   35.0260   30.1140   49.2400 C   0  0  2  0  0  0  0  0  0  0  0  0
   35.9410   30.7560   48.2560 C   0  0  0  0  0  0  0  0  0  0  0  0
   37.3250   30.1350   48.2580 C   0  0  2  0  0  0  0  0  0  0  0  0
   37.9670   30.1960   49.6060 C   0  0  0  0  0  0  0  0  0  0  0  0
   37.0260   29.8350   50.7250 C   0  0  0  0  0  0  0  0  0  0  0  0
   35.7410   29.2210   50.2230 C   0  0  0  0  0  0  0  0  0  0  0  0
   38.1680   30.7520   47.2850 N   0  0  0  0  0  0  0  0  0  0  0  0
   37.6630   30.6640   45.9350 C   0  0  0  0  0  0  0  0  0  0  0  0
   38.8170   31.3280   45.1740 C   0  0  0  0  0  0  0  0  0  0  0  0
   39.1610   32.4670   46.1080 C   0  0  0  0  0  0  0  0  0  0  0  0
   38.5540   32.0780   47.4770 C   0  0  2  0  0  0  0  0  0  0  0  0
   39.5470   32.3380   48.3980 O   0  0  0  0  0  0  0  0  0  0  0  0
   39.8150   33.9710   50.4680 O   0  0  0  0  0  0  0  0  0  0  0  0
   39.1890   33.8310   49.1040 P   0  0  0  0  0  0  0  0  0  0  0  0
   37.5000   34.0280   49.1810 O   0  0  0  0  0  0  0  0  0  0  0  0
   39.7910   35.0770   48.1310 O   0  0  0  0  0  0  0  0  0  0  0  0
   33.9690   29.3010   48.5950 C   0  0  0  0  0  0  0  0  0  0  0  0
   33.7320   29.6240   47.2590 C   0  0  0  0  0  0  0  0  0  0  0  0
   32.7420   28.8760   46.5930 C   0  0  0  0  0  0  0  0  0  0  0  0
   32.0700   27.8850   47.2840 N   0  0  0  0  0  0  0  0  0  0  0  0
   32.3430   27.6130   48.5920 C   0  0  0  0  0  0  0  0  0  0  0  0
   33.2750   28.3210   49.2030 N   0  0  0  0  0  0  0  0  0  0  0  0
   34.5765   30.9649   49.7728 H   0  0  0  0  0  0  0  0  0  0  0  0
   36.0331   31.8236   48.5045 H   0  0  0  0  0  0  0  0  0  0  0  0
   35.5105   30.6093   47.2544 H   0  0  0  0  0  0  0  0  0  0  0  0
   37.1955   29.0749   47.9946 H   0  0  0  0  0  0  0  0  0  0  0  0
   38.8151   29.4956   49.6220 H   0  0  0  0  0  0  0  0  0  0  0  0
   38.2882   31.2352   49.7698 H   0  0  0  0  0  0  0  0  0  0  0  0
   37.5263   29.1139   51.3881 H   0  0  0  0  0  0  0  0  0  0  0  0
   36.7682   30.7622   51.2578 H   0  0  0  0  0  0  0  0  0  0  0  0
   35.0779   29.0371   51.0812 H   0  0  0  0  0  0  0  0  0  0  0  0
   35.9953   28.2850   49.7042 H   0  0  0  0  0  0  0  0  0  0  0  0
   37.5151   29.6199   45.6219 H   0  0  0  0  0  0  0  0  0  0  0  0
   36.6778   31.1275   45.7782 H   0  0  0  0  0  0  0  0  0  0  0  0
   39.6656   30.6399   45.0464 H   0  0  0  0  0  0  0  0  0  0  0  0
   38.5642   31.6415   44.1504 H   0  0  0  0  0  0  0  0  0  0  0  0
   40.2520   32.5807   46.1898 H   0  0  0  0  0  0  0  0  0  0  0  0
   38.7647   33.4265   45.7442 H   0  0  0  0  0  0  0  0  0  0  0  0
   37.6717   32.6177   47.8515 H   0  0  0  0  0  0  0  0  0  0  0  0
   37.2145   34.0613   50.1284 H   0  0  0  0  0  0  0  0  0  0  0  0
   40.1420   35.8035   48.7047 H   0  0  0  0  0  0  0  0  0  0  0  0
   34.2908   30.4236   46.7507 H   0  0  0  0  0  0  0  0  0  0  0  0
   32.5067   29.0775   45.5375 H   0  0  0  0  0  0  0  0  0  0  0  0
   31.7985   26.8208   49.1266 H   0  0  0  0  0  0  0  0  0  0  0  0
  1  6  1  0
  2  3  1  0
  2  1  1  0
  3  4  1  0
  4  5  1  0
  6  5  1  0
  7  8  1  0
  7 11  1  0
  7  3  1  0
  9  8  1  0
  9 10  1  0
 10 11  1  0
 11 12  1  0
 12 14  1  0
 14 15  1  0
 14 13  2  0
 16 14  1  0
 17 22  1  0
 17  1  1  0
 18 17  2  0
 19 18  1  0
 19 20  2  0
 20 21  1  0
 21 22  2  0
  1 23  1  1
  2 24  1  0
  2 25  1  0
  3 26  1  6
  4 27  1  0
  4 28  1  0
  5 29  1  0
  5 30  1  0
  6 31  1  0
  6 32  1  0
  8 33  1  0
  8 34  1  0
  9 35  1  0
  9 36  1  0
 10 37  1  0
 10 38  1  0
 11 39  1  1
 15 40  1  0
 16 41  1  0
 18 42  1  0
 19 43  1  0
 21 44  1  0
M  ISO  8  23  13  24  13  25  13  26  13  27  13  28  13  29  13  30  13
M  ISO  8  31  13  32  13  33  13  34  13  35  13  36  13  37  13  38  13
M  ISO  6  39  13  40   3  41   3  42  14  43  14  44  14
M  END
>  <minimizedAffinity>  (1) 
-5.57160616

>  <minimizedRMSD>  (1) 
0.931098819

$$$$
