
     RDKit          3D

 53 56  0  0  1  0  0  0  0  0999 V2000
   34.9030   29.9360   48.9150 C   0  0  2  0  0  0  0  0  0  0  0  0
   35.7280   30.6000   47.8740 C   0  0  0  0  0  0  0  0  0  0  0  0
   37.1030   29.9720   47.7270 C   0  0  2  0  0  0  0  0  0  0  0  0
   37.8680   29.9470   48.9980 C   0  0  0  0  0  0  0  0  0  0  0  0
   37.0200   29.6090   50.2050 C   0  0  0  0  0  0  0  0  0  0  0  0
   35.6940   29.0120   49.8080 C   0  0  0  0  0  0  0  0  0  0  0  0
   37.8740   30.6070   46.7200 N   0  0  0  0  0  0  0  0  0  0  0  0
   37.5400   30.1560   45.3780 C   0  0  0  0  0  0  0  0  0  0  0  0
   38.5550   30.9620   44.5590 C   0  0  0  0  0  0  0  0  0  0  0  0
   38.5080   32.2920   45.2670 C   0  0  0  0  0  0  0  0  0  0  0  0
   37.8910   31.9870   46.6490 C   0  0  2  0  0  0  0  0  0  0  0  0
   38.4900   32.7950   47.6370 N   0  0  0  0  0  0  0  0  0  0  0  0
   38.5940   32.2370   48.9630 C   0  0  0  0  0  0  0  0  0  0  0  0
   38.7450   33.4180   49.9200 C   0  0  0  0  0  0  0  0  0  0  0  0
   39.7640   34.4150   49.5000 C   0  0  0  0  0  0  0  0  0  0  0  0
   40.0100   34.5510   48.0410 C   0  0  0  0  0  0  0  0  0  0  0  0
   39.7960   33.2750   47.2580 C   0  0  0  0  0  0  0  0  0  0  0  0
   33.7850   29.1450   48.3480 C   0  0  0  0  0  0  0  0  0  0  0  0
   33.4600   29.4660   47.0270 C   0  0  0  0  0  0  0  0  0  0  0  0
   32.4170   28.7380   46.4330 C   0  0  0  0  0  0  0  0  0  0  0  0
   31.7770   27.7580   47.1730 N   0  0  0  0  0  0  0  0  0  0  0  0
   32.1340   27.4850   48.4600 C   0  0  0  0  0  0  0  0  0  0  0  0
   33.1170   28.1780   49.0050 N   0  0  0  0  0  0  0  0  0  0  0  0
   34.5114   30.7767   49.5065 H   0  0  0  0  0  0  0  0  0  0  0  0
   35.2032   30.5277   46.9100 H   0  0  0  0  0  0  0  0  0  0  0  0
   35.8718   31.6463   48.1814 H   0  0  0  0  0  0  0  0  0  0  0  0
   36.9133   28.9309   47.4268 H   0  0  0  0  0  0  0  0  0  0  0  0
   38.6650   29.1939   48.9102 H   0  0  0  0  0  0  0  0  0  0  0  0
   38.2674   30.9597   49.1558 H   0  0  0  0  0  0  0  0  0  0  0  0
   37.5633   28.8854   50.8305 H   0  0  0  0  0  0  0  0  0  0  0  0
   36.8242   30.5401   50.7570 H   0  0  0  0  0  0  0  0  0  0  0  0
   35.1089   28.8100   50.7173 H   0  0  0  0  0  0  0  0  0  0  0  0
   35.8921   28.0859   49.2485 H   0  0  0  0  0  0  0  0  0  0  0  0
   37.6922   29.0727   45.2628 H   0  0  0  0  0  0  0  0  0  0  0  0
   36.4897   30.3080   45.0887 H   0  0  0  0  0  0  0  0  0  0  0  0
   38.2440   31.0532   43.5078 H   0  0  0  0  0  0  0  0  0  0  0  0
   39.5570   30.5108   44.5095 H   0  0  0  0  0  0  0  0  0  0  0  0
   39.5207   32.7066   45.3787 H   0  0  0  0  0  0  0  0  0  0  0  0
   37.9226   33.0372   44.7084 H   0  0  0  0  0  0  0  0  0  0  0  0
   36.8468   32.2801   46.8328 H   0  0  0  0  0  0  0  0  0  0  0  0
   37.6870   31.6642   49.2064 H   0  0  0  0  0  0  0  0  0  0  0  0
   39.4503   31.5508   49.0398 H   0  0  0  0  0  0  0  0  0  0  0  0
   37.7733   33.9281   49.9947 H   0  0  0  0  0  0  0  0  0  0  0  0
   39.0840   33.0049   50.8815 H   0  0  0  0  0  0  0  0  0  0  0  0
   39.4423   35.3975   49.8758 H   0  0  0  0  0  0  0  0  0  0  0  0
   40.7132   34.0484   49.9179 H   0  0  0  0  0  0  0  0  0  0  0  0
   39.3276   35.3178   47.6455 H   0  0  0  0  0  0  0  0  0  0  0  0
   41.0691   34.8231   47.9215 H   0  0  0  0  0  0  0  0  0  0  0  0
   40.5663   32.5335   47.5163 H   0  0  0  0  0  0  0  0  0  0  0  0
   39.8641   33.4492   46.1740 H   0  0  0  0  0  0  0  0  0  0  0  0
   33.9971   30.2533   46.4778 H   0  0  0  0  0  0  0  0  0  0  0  0
   32.1129   28.9428   45.3959 H   0  0  0  0  0  0  0  0  0  0  0  0
   31.6137   26.7033   49.0329 H   0  0  0  0  0  0  0  0  0  0  0  0
  1  6  1  0
  2  1  1  0
  3  2  1  0
  3  4  1  0
  4  5  1  0
  6  5  1  0
  7  8  1  0
  7  3  1  0
  9 10  1  0
  9  8  1  0
 10 11  1  0
 11  7  1  0
 11 12  1  0
 12 13  1  0
 13 14  1  0
 15 14  1  0
 16 15  1  0
 17 12  1  0
 17 16  1  0
 18  1  1  0
 18 23  1  0
 19 18  2  0
 20 19  1  0
 20 21  2  0
 21 22  1  0
 22 23  2  0
  1 24  1  1
  2 25  1  0
  2 26  1  0
  3 27  1  6
  4 28  1  0
  4 29  1  0
  5 30  1  0
  5 31  1  0
  6 32  1  0
  6 33  1  0
  8 34  1  0
  8 35  1  0
  9 36  1  0
  9 37  1  0
 10 38  1  0
 10 39  1  0
 11 40  1  6
 13 41  1  0
 13 42  1  0
 14 43  1  0
 14 44  1  0
 15 45  1  0
 15 46  1  0
 16 47  1  0
 16 48  1  0
 17 49  1  0
 17 50  1  0
 19 51  1  0
 20 52  1  0
 22 53  1  0
M  ISO  8  24  13  25  13  26  13  27  13  28  13  29  13  30  13  31  13
M  ISO  8  32  13  33  13  34  13  35  13  36  13  37  13  38  13  39  13
M  ISO  8  40  13  41  13  42  13  43  13  44  13  45  13  46  13  47  13
M  ISO  6  48  13  49  13  50  13  51  14  52  14  53  14
M  END
>  <minimizedAffinity>  (1) 
-5.53243923

>  <minimizedRMSD>  (1) 
1.46831584

$$$$
