
     RDKit          3D

 23 25  0  0  0  0  0  0  0  0999 V2000
   34.6140   28.1410   48.9200 C   0  0  0  0  0  0  0  0  0  0  0  0
   34.9730   29.4450   48.6010 C   0  0  0  0  0  0  0  0  0  0  0  0
   34.2270   30.1890   47.7090 C   0  0  0  0  0  0  0  0  0  0  0  0
   33.1010   29.6460   47.1160 C   0  0  0  0  0  0  0  0  0  0  0  0
   32.2040   30.1280   46.2300 N   0  0  0  0  0  0  0  0  0  0  0  0
   31.3290   29.1010   46.0410 C   0  0  0  0  0  0  0  0  0  0  0  0
   31.6750   28.0350   46.7790 N   0  0  0  0  0  0  0  0  0  0  0  0
   32.7830   28.3470   47.4630 C   0  0  0  0  0  0  0  0  0  0  0  0
   33.4920   27.5690   48.3420 C   0  0  0  0  0  0  0  0  0  0  0  0
   37.5200   30.3670   51.0900 C   0  0  0  0  0  0  0  0  0  0  0  0
   38.4160   31.1670   50.3330 C   0  0  0  0  0  0  0  0  0  0  0  0
   38.1060   31.3650   48.9670 C   0  0  0  0  0  0  0  0  0  0  0  0
   36.9850   30.7840   48.4700 N   0  0  0  0  0  0  0  0  0  0  0  0
   36.1580   30.0320   49.2190 C   0  0  0  0  0  0  0  0  0  0  0  0
   36.4260   29.8260   50.5150 N   0  0  0  0  0  0  0  0  0  0  0  0
   35.2210   27.5624   49.6319 H   0  0  0  0  0  0  0  0  0  0  0  0
   34.5293   31.2189   47.4684 H   0  0  0  0  0  0  0  0  0  0  0  0
   32.1853   31.0615   45.7950 H   0  0  0  0  0  0  0  0  0  0  0  0
   30.4559   29.1403   45.3730 H   0  0  0  0  0  0  0  0  0  0  0  0
   33.1845   26.5394   48.5772 H   0  0  0  0  0  0  0  0  0  0  0  0
   37.7199   30.1864   52.1565 H   0  0  0  0  0  0  0  0  0  0  0  0
   39.3121   31.6134   50.7888 H   0  0  0  0  0  0  0  0  0  0  0  0
   38.7575   31.9748   48.3238 H   0  0  0  0  0  0  0  0  0  0  0  0
  2  1  2  0
  2 14  1  0
  3  2  1  0
  4  8  1  0
  4  3  2  0
  5  4  1  0
  6  5  1  0
  6  7  2  0
  7  8  1  0
  8  9  2  0
  9  1  1  0
 11 10  2  0
 12 11  1  0
 13 12  2  0
 13 14  1  0
 14 15  2  0
 15 10  1  0
  1 16  1  0
  3 17  1  0
  5 18  1  0
  6 19  1  0
  9 20  1  0
 10 21  1  0
 11 22  1  0
 12 23  1  0
M  ISO  8  16  14  17  14  18   9  19  14  20  14  21  14  22  14  23  14
M  END
>  <minimizedAffinity>  (1) 
-4.88713646

>  <minimizedRMSD>  (1) 
2.26387811

$$$$
