
     RDKit          3D

 33 36  0  0  0  0  0  0  0  0999 V2000
   37.3170   29.7130   51.3340 C   0  0  0  0  0  0  0  0  0  0  0  0
   38.1470   30.7330   50.7730 C   0  0  0  0  0  0  0  0  0  0  0  0
   37.7960   31.2190   49.5060 C   0  0  0  0  0  0  0  0  0  0  0  0
   36.7070   30.6900   48.9170 N   0  0  0  0  0  0  0  0  0  0  0  0
   35.9430   29.7380   49.4550 C   0  0  0  0  0  0  0  0  0  0  0  0
   36.2410   29.2470   50.6590 N   0  0  0  0  0  0  0  0  0  0  0  0
   34.3480   27.9430   48.9220 C   0  0  0  0  0  0  0  0  0  0  0  0
   34.7900   29.2540   48.7070 C   0  0  0  0  0  0  0  0  0  0  0  0
   34.1470   30.0650   47.8070 C   0  0  0  0  0  0  0  0  0  0  0  0
   33.0460   29.5910   47.0980 C   0  0  0  0  0  0  0  0  0  0  0  0
   32.2470   30.1660   46.1730 N   0  0  0  0  0  0  0  0  0  0  0  0
   31.3480   29.1790   45.8610 C   0  0  0  0  0  0  0  0  0  0  0  0
   31.5930   28.0580   46.5670 N   0  0  0  0  0  0  0  0  0  0  0  0
   32.6560   28.2950   47.3500 C   0  0  0  0  0  0  0  0  0  0  0  0
   33.2540   27.4450   48.2300 C   0  0  0  0  0  0  0  0  0  0  0  0
   38.6290   30.5980   46.6400 Cl  0  0  0  0  0  0  0  0  0  0  0  0
   38.9830   32.0570   47.5440 C   0  0  0  0  0  0  0  0  0  0  0  0
   38.5630   32.2510   48.8410 C   0  0  0  0  0  0  0  0  0  0  0  0
   38.9290   33.4540   49.4010 C   0  0  0  0  0  0  0  0  0  0  0  0
   39.6620   34.4200   48.7430 C   0  0  0  0  0  0  0  0  0  0  0  0
   40.0680   34.1880   47.4330 C   0  0  0  0  0  0  0  0  0  0  0  0
   39.7100   32.9820   46.8530 C   0  0  0  0  0  0  0  0  0  0  0  0
   37.5560   29.3023   52.3261 H   0  0  0  0  0  0  0  0  0  0  0  0
   39.0239   31.1200   51.3128 H   0  0  0  0  0  0  0  0  0  0  0  0
   34.8729   27.3024   49.6460 H   0  0  0  0  0  0  0  0  0  0  0  0
   34.5021   31.0934   47.6446 H   0  0  0  0  0  0  0  0  0  0  0  0
   32.3005   31.1213   45.7917 H   0  0  0  0  0  0  0  0  0  0  0  0
   30.5333   29.2881   45.1300 H   0  0  0  0  0  0  0  0  0  0  0  0
   32.8891   26.4188   48.3837 H   0  0  0  0  0  0  0  0  0  0  0  0
   38.6181   33.6576   50.4363 H   0  0  0  0  0  0  0  0  0  0  0  0
   39.9221   35.3619   49.2481 H   0  0  0  0  0  0  0  0  0  0  0  0
   40.6527   34.9358   46.8772 H   0  0  0  0  0  0  0  0  0  0  0  0
   40.0167   32.7667   45.8188 H   0  0  0  0  0  0  0  0  0  0  0  0
  2  1  2  0
  3  2  1  0
  4  5  1  0
  4  3  2  0
  5  6  2  0
  6  1  1  0
  8  7  2  0
  8  5  1  0
  9  8  1  0
 10 14  1  0
 10  9  2  0
 11 10  1  0
 12 11  1  0
 12 13  2  0
 13 14  1  0
 14 15  2  0
 15  7  1  0
 16 17  1  0
 17 18  2  0
 18 19  1  0
 18  3  1  0
 20 19  2  0
 21 20  1  0
 22 21  2  0
 22 17  1  0
  1 23  1  0
  2 24  1  0
  7 25  1  0
  9 26  1  0
 11 27  1  0
 12 28  1  0
 15 29  1  0
 19 30  1  0
 20 31  1  0
 21 32  1  0
 22 33  1  0
M  ISO  8  23  14  24  14  25  14  26  14  27   9  28  14  29  14  30  14
M  ISO  3  31  14  32  14  33  14
M  END
>  <minimizedAffinity>  (1) 
-7.1526103

>  <minimizedRMSD>  (1) 
0.704230189

$$$$
