
     RDKit          3D

 29 31  0  0  0  0  0  0  0  0999 V2000
   37.7550   30.2230   50.7730 C   0  0  0  0  0  0  0  0  0  0  0  0
   38.3930   31.3030   50.1300 C   0  0  0  0  0  0  0  0  0  0  0  0
   37.8230   31.7400   48.9230 C   0  0  0  0  0  0  0  0  0  0  0  0
   36.7140   31.1130   48.4580 N   0  0  0  0  0  0  0  0  0  0  0  0
   36.1320   30.0920   49.0920 C   0  0  0  0  0  0  0  0  0  0  0  0
   36.6530   29.6470   50.2500 N   0  0  0  0  0  0  0  0  0  0  0  0
   34.6120   28.1640   48.9130 C   0  0  0  0  0  0  0  0  0  0  0  0
   34.9380   29.4570   48.5390 C   0  0  0  0  0  0  0  0  0  0  0  0
   34.1600   30.1830   47.6450 C   0  0  0  0  0  0  0  0  0  0  0  0
   33.0210   29.5980   47.1090 C   0  0  0  0  0  0  0  0  0  0  0  0
   32.0910   30.0300   46.2460 N   0  0  0  0  0  0  0  0  0  0  0  0
   31.2270   28.9780   46.1240 C   0  0  0  0  0  0  0  0  0  0  0  0
   31.6110   27.9490   46.8800 N   0  0  0  0  0  0  0  0  0  0  0  0
   32.7360   28.3020   47.5140 C   0  0  0  0  0  0  0  0  0  0  0  0
   33.4870   27.5660   48.3930 C   0  0  0  0  0  0  0  0  0  0  0  0
   38.3000   32.7830   48.1420 O   0  0  0  0  0  0  0  0  0  0  0  0
   37.8980   32.3380   45.5930 O   0  0  0  0  0  0  0  0  0  0  0  0
   38.9900   32.4250   46.6180 P   0  0  0  0  0  0  0  0  0  0  0  0
   40.0560   33.6730   46.1630 O   0  0  0  0  0  0  0  0  0  0  0  0
   39.9400   31.0160   46.6670 O   0  0  0  0  0  0  0  0  0  0  0  0
   38.1640   29.8422   51.7205 H   0  0  0  0  0  0  0  0  0  0  0  0
   39.2907   31.7788   50.5516 H   0  0  0  0  0  0  0  0  0  0  0  0
   35.2499   27.6171   49.6230 H   0  0  0  0  0  0  0  0  0  0  0  0
   34.4433   31.2085   47.3656 H   0  0  0  0  0  0  0  0  0  0  0  0
   32.0391   30.9472   45.7802 H   0  0  0  0  0  0  0  0  0  0  0  0
   30.3314   28.9800   45.4853 H   0  0  0  0  0  0  0  0  0  0  0  0
   33.2025   26.5405   48.6711 H   0  0  0  0  0  0  0  0  0  0  0  0
   40.4245   34.1044   46.9743 H   0  0  0  0  0  0  0  0  0  0  0  0
   40.1094   30.7648   47.6095 H   0  0  0  0  0  0  0  0  0  0  0  0
  2  1  2  0
  3  2  1  0
  4  3  2  0
  4  5  1  0
  5  6  2  0
  6  1  1  0
  8  7  2  0
  8  5  1  0
  9  8  1  0
 10 14  1  0
 10  9  2  0
 11 10  1  0
 12 11  1  0
 12 13  2  0
 13 14  1  0
 14 15  2  0
 15  7  1  0
 16  3  1  0
 17 18  2  0
 18 20  1  0
 18 16  1  0
 19 18  1  0
  1 21  1  0
  2 22  1  0
  7 23  1  0
  9 24  1  0
 11 25  1  0
 12 26  1  0
 15 27  1  0
 19 28  1  0
 20 29  1  0
M  ISO  8  21  14  22  14  23  14  24  14  25   9  26  14  27  14  28   3
M  ISO  1  29   3
M  END
>  <minimizedAffinity>  (1) 
-6.29103279

>  <minimizedRMSD>  (1) 
0.504170358

$$$$
