
     RDKit          3D

 26 28  0  0  0  0  0  0  0  0999 V2000
   34.6960   28.2420   48.9410 C   0  0  0  0  0  0  0  0  0  0  0  0
   35.0160   29.5520   48.5720 C   0  0  0  0  0  0  0  0  0  0  0  0
   34.2460   30.2560   47.6780 C   0  0  0  0  0  0  0  0  0  0  0  0
   33.1270   29.6910   47.1130 C   0  0  0  0  0  0  0  0  0  0  0  0
   32.2110   30.1300   46.2340 N   0  0  0  0  0  0  0  0  0  0  0  0
   31.3510   29.0830   46.0820 C   0  0  0  0  0  0  0  0  0  0  0  0
   31.7260   28.0440   46.8390 N   0  0  0  0  0  0  0  0  0  0  0  0
   32.8340   28.3970   47.4940 C   0  0  0  0  0  0  0  0  0  0  0  0
   33.5710   27.6540   48.3810 C   0  0  0  0  0  0  0  0  0  0  0  0
   37.6840   30.4500   50.9470 C   0  0  0  0  0  0  0  0  0  0  0  0
   38.4670   31.3590   50.2080 C   0  0  0  0  0  0  0  0  0  0  0  0
   38.0380   31.6330   48.8970 C   0  0  0  0  0  0  0  0  0  0  0  0
   36.9210   31.0320   48.4060 N   0  0  0  0  0  0  0  0  0  0  0  0
   36.2060   30.1630   49.1630 C   0  0  0  0  0  0  0  0  0  0  0  0
   36.5900   29.8880   50.4040 N   0  0  0  0  0  0  0  0  0  0  0  0
   38.8040   32.5860   48.0310 C   0  0  0  0  0  0  0  0  0  0  0  0
   35.3214   27.6905   49.6584 H   0  0  0  0  0  0  0  0  0  0  0  0
   34.5284   31.2850   47.4108 H   0  0  0  0  0  0  0  0  0  0  0  0
   32.1679   31.0520   45.7768 H   0  0  0  0  0  0  0  0  0  0  0  0
   30.4681   29.0907   45.4259 H   0  0  0  0  0  0  0  0  0  0  0  0
   33.2795   26.6254   48.6398 H   0  0  0  0  0  0  0  0  0  0  0  0
   37.9707   30.1977   51.9786 H   0  0  0  0  0  0  0  0  0  0  0  0
   39.3657   31.8292   50.6337 H   0  0  0  0  0  0  0  0  0  0  0  0
   39.3670   33.2864   48.6654 H   0  0  0  0  0  0  0  0  0  0  0  0
   39.5037   32.0229   47.3959 H   0  0  0  0  0  0  0  0  0  0  0  0
   38.1036   33.1483   47.3959 H   0  0  0  0  0  0  0  0  0  0  0  0
  2  1  2  0
  2 14  1  0
  3  2  1  0
  4  8  1  0
  4  3  2  0
  5  4  1  0
  6  5  1  0
  6  7  2  0
  7  8  1  0
  8  9  2  0
  9  1  1  0
 11 10  2  0
 12 11  1  0
 13 12  2  0
 13 14  1  0
 14 15  2  0
 15 10  1  0
 16 12  1  0
  1 17  1  0
  3 18  1  0
  5 19  1  0
  6 20  1  0
  9 21  1  0
 10 22  1  0
 11 23  1  0
 16 24  1  0
 16 25  1  0
 16 26  1  0
M  ISO  8  17  14  18  14  19   9  20  14  21  14  22  14  23  14  24   8
M  ISO  2  25   8  26   8
M  END
>  <minimizedAffinity>  (1) 
-5.41008949

>  <minimizedRMSD>  (1) 
0.200756505

$$$$
