
     RDKit          3D

 24 26  0  0  0  0  0  0  0  0999 V2000
   34.6070   28.1690   48.9230 C   0  0  0  0  0  0  0  0  0  0  0  0
   34.9320   29.4720   48.5490 C   0  0  0  0  0  0  0  0  0  0  0  0
   34.1410   30.1590   47.6650 C   0  0  0  0  0  0  0  0  0  0  0  0
   33.0120   29.5780   47.1290 C   0  0  0  0  0  0  0  0  0  0  0  0
   32.0710   30.0080   46.2580 N   0  0  0  0  0  0  0  0  0  0  0  0
   31.2130   28.9640   46.1330 C   0  0  0  0  0  0  0  0  0  0  0  0
   31.6010   27.9360   46.8880 N   0  0  0  0  0  0  0  0  0  0  0  0
   32.7230   28.2900   47.5230 C   0  0  0  0  0  0  0  0  0  0  0  0
   33.4820   27.5590   48.4040 C   0  0  0  0  0  0  0  0  0  0  0  0
   37.5930   30.4600   50.8850 C   0  0  0  0  0  0  0  0  0  0  0  0
   38.3980   31.3120   50.0830 C   0  0  0  0  0  0  0  0  0  0  0  0
   37.9950   31.5200   48.7530 C   0  0  0  0  0  0  0  0  0  0  0  0
   36.8640   30.8940   48.3240 N   0  0  0  0  0  0  0  0  0  0  0  0
   36.1270   30.0950   49.1110 C   0  0  0  0  0  0  0  0  0  0  0  0
   36.4850   29.8780   50.3760 N   0  0  0  0  0  0  0  0  0  0  0  0
   38.9690   32.5820   47.6980 S   0  0  0  0  0  0  0  0  0  0  0  0
   35.2479   27.6256   49.6329 H   0  0  0  0  0  0  0  0  0  0  0  0
   34.4107   31.1866   47.3799 H   0  0  0  0  0  0  0  0  0  0  0  0
   32.0174   30.9252   45.7924 H   0  0  0  0  0  0  0  0  0  0  0  0
   30.3174   28.9658   45.4943 H   0  0  0  0  0  0  0  0  0  0  0  0
   33.2056   26.5318   48.6841 H   0  0  0  0  0  0  0  0  0  0  0  0
   37.8746   30.2720   51.9316 H   0  0  0  0  0  0  0  0  0  0  0  0
   39.3021   31.7906   50.4874 H   0  0  0  0  0  0  0  0  0  0  0  0
   39.7338   33.4159   48.4704 H   0  0  0  0  0  0  0  0  0  0  0  0
  2  1  2  0
  2 14  1  0
  3  2  1  0
  4  8  1  0
  4  3  2  0
  5  4  1  0
  6  5  1  0
  6  7  2  0
  7  8  1  0
  8  9  2  0
  9  1  1  0
 11 10  2  0
 12 11  1  0
 13 12  2  0
 13 14  1  0
 14 15  2  0
 15 10  1  0
 16 12  1  0
  1 17  1  0
  3 18  1  0
  5 19  1  0
  6 20  1  0
  9 21  1  0
 10 22  1  0
 11 23  1  0
 16 24  1  0
M  ISO  8  17  14  18  14  19   9  20  14  21  14  22  14  23  14  24  11
M  END
>  <minimizedAffinity>  (1) 
-5.23312473

>  <minimizedRMSD>  (1) 
0.196572319

$$$$
