
     RDKit          3D

 31 34  0  0  0  0  0  0  0  0999 V2000
   38.1130   32.6730   49.3890 C   0  0  0  0  0  0  0  0  0  0  0  0
   38.8470   32.8050   48.1920 C   0  0  0  0  0  0  0  0  0  0  0  0
   38.4460   31.9850   47.1260 C   0  0  0  0  0  0  0  0  0  0  0  0
   37.4070   31.1310   47.2860 N   0  0  0  0  0  0  0  0  0  0  0  0
   36.7350   31.0450   48.4600 C   0  0  0  0  0  0  0  0  0  0  0  0
   37.0820   31.8070   49.5050 N   0  0  0  0  0  0  0  0  0  0  0  0
   35.6520   29.1320   49.5480 C   0  0  0  0  0  0  0  0  0  0  0  0
   35.6250   30.0970   48.5510 C   0  0  0  0  0  0  0  0  0  0  0  0
   34.5760   30.1560   47.6720 C   0  0  0  0  0  0  0  0  0  0  0  0
   33.5350   29.2650   47.7590 C   0  0  0  0  0  0  0  0  0  0  0  0
   32.4010   29.1060   47.0340 N   0  0  0  0  0  0  0  0  0  0  0  0
   31.7760   28.0460   47.6170 C   0  0  0  0  0  0  0  0  0  0  0  0
   32.4930   27.5750   48.6520 N   0  0  0  0  0  0  0  0  0  0  0  0
   33.6050   28.3200   48.7680 C   0  0  0  0  0  0  0  0  0  0  0  0
   34.6230   28.2170   49.6680 C   0  0  0  0  0  0  0  0  0  0  0  0
   39.0900   31.9880   45.8180 C   0  0  0  0  0  0  0  0  0  0  0  0
   38.6960   32.7910   44.7700 C   0  0  0  0  0  0  0  0  0  0  0  0
   39.2930   32.8080   43.5260 C   0  0  0  0  0  0  0  0  0  0  0  0
   40.3320   31.9760   43.3380 N   0  0  0  0  0  0  0  0  0  0  0  0
   40.7360   31.1880   44.3320 C   0  0  0  0  0  0  0  0  0  0  0  0
   40.1430   31.1940   45.5130 N   0  0  0  0  0  0  0  0  0  0  0  0
   38.3880   33.2938   50.2545 H   0  0  0  0  0  0  0  0  0  0  0  0
   39.6859   33.5104   48.0992 H   0  0  0  0  0  0  0  0  0  0  0  0
   36.4993   29.0950   50.2485 H   0  0  0  0  0  0  0  0  0  0  0  0
   34.5676   30.9265   46.8870 H   0  0  0  0  0  0  0  0  0  0  0  0
   32.0841   29.6607   46.2260 H   0  0  0  0  0  0  0  0  0  0  0  0
   30.8130   27.6306   47.2853 H   0  0  0  0  0  0  0  0  0  0  0  0
   34.6257   27.4443   50.4509 H   0  0  0  0  0  0  0  0  0  0  0  0
   37.8445   33.4670   44.9369 H   0  0  0  0  0  0  0  0  0  0  0  0
   38.9352   33.4718   42.7251 H   0  0  0  0  0  0  0  0  0  0  0  0
   41.5880   30.5124   44.1655 H   0  0  0  0  0  0  0  0  0  0  0  0
  1  6  2  0
  2  1  1  0
  3  4  1  0
  3  2  2  0
  4  5  2  0
  5  8  1  0
  5  6  1  0
  7 15  2  0
  8  7  1  0
  9 10  1  0
  9  8  2  0
 10 14  2  0
 11 12  1  0
 11 10  1  0
 12 13  2  0
 13 14  1  0
 14 15  1  0
 16  3  1  0
 17 16  2  0
 18 17  1  0
 19 18  2  0
 19 20  1  0
 20 21  2  0
 21 16  1  0
  1 22  1  0
  2 23  1  0
  7 24  1  0
  9 25  1  0
 11 26  1  0
 12 27  1  0
 15 28  1  0
 17 29  1  0
 18 30  1  0
 20 31  1  0
M  ISO  8  22  14  23  14  24  14  25  14  26   9  27  14  28  14  29  14
M  ISO  2  30  14  31  14
M  END
>  <minimizedAffinity>  (1) 
-6.72254181

>  <minimizedRMSD>  (1) 
2.15663767

$$$$
