
     RDKit          3D

 40 44  0  0  0  0  0  0  0  0999 V2000
   38.0600   32.7130   49.6280 C   0  0  0  0  0  0  0  0  0  0  0  0
   38.8060   32.9070   48.4580 C   0  0  0  0  0  0  0  0  0  0  0  0
   38.4490   32.1250   47.3410 C   0  0  0  0  0  0  0  0  0  0  0  0
   37.4250   31.2450   47.4480 N   0  0  0  0  0  0  0  0  0  0  0  0
   36.7360   31.0940   48.5990 C   0  0  0  0  0  0  0  0  0  0  0  0
   37.0540   31.8290   49.6850 N   0  0  0  0  0  0  0  0  0  0  0  0
   35.6880   29.1040   49.5780 C   0  0  0  0  0  0  0  0  0  0  0  0
   35.6430   30.1220   48.6310 C   0  0  0  0  0  0  0  0  0  0  0  0
   34.6020   30.1980   47.7590 C   0  0  0  0  0  0  0  0  0  0  0  0
   33.5800   29.2920   47.7840 C   0  0  0  0  0  0  0  0  0  0  0  0
   32.4560   29.1520   47.0440 N   0  0  0  0  0  0  0  0  0  0  0  0
   31.8480   28.0430   47.5700 C   0  0  0  0  0  0  0  0  0  0  0  0
   32.5720   27.5310   48.5880 N   0  0  0  0  0  0  0  0  0  0  0  0
   33.6590   28.2990   48.7360 C   0  0  0  0  0  0  0  0  0  0  0  0
   34.6740   28.1670   49.6370 C   0  0  0  0  0  0  0  0  0  0  0  0
   39.1140   32.1990   46.0550 C   0  0  0  0  0  0  0  0  0  0  0  0
   39.6310   33.3570   45.5190 C   0  0  0  0  0  0  0  0  0  0  0  0
   40.2680   33.4670   44.3040 C   0  0  0  0  0  0  0  0  0  0  0  0
   40.3840   32.3350   43.5950 N   0  0  0  0  0  0  0  0  0  0  0  0
   39.8950   31.1820   44.0750 C   0  0  0  0  0  0  0  0  0  0  0  0
   39.2880   31.1330   45.2560 N   0  0  0  0  0  0  0  0  0  0  0  0
   40.0270   29.9510   43.2940 C   0  0  0  0  0  0  0  0  0  0  0  0
   39.1200   28.9090   43.4790 C   0  0  0  0  0  0  0  0  0  0  0  0
   39.1800   27.7230   42.7800 C   0  0  0  0  0  0  0  0  0  0  0  0
   40.2300   27.6380   41.8610 C   0  0  0  0  0  0  0  0  0  0  0  0
   41.1370   28.6570   41.6640 C   0  0  0  0  0  0  0  0  0  0  0  0
   41.0240   29.8050   42.3850 N   0  0  0  0  0  0  0  0  0  0  0  0
   38.3065   33.3019   50.5238 H   0  0  0  0  0  0  0  0  0  0  0  0
   39.6301   33.6342   48.4133 H   0  0  0  0  0  0  0  0  0  0  0  0
   36.5320   29.0448   50.2809 H   0  0  0  0  0  0  0  0  0  0  0  0
   34.5826   31.0086   47.0157 H   0  0  0  0  0  0  0  0  0  0  0  0
   32.1323   29.7429   46.2650 H   0  0  0  0  0  0  0  0  0  0  0  0
   30.8961   27.6250   47.2106 H   0  0  0  0  0  0  0  0  0  0  0  0
   34.6851   27.3526   50.3763 H   0  0  0  0  0  0  0  0  0  0  0  0
   39.5256   34.2757   46.1147 H   0  0  0  0  0  0  0  0  0  0  0  0
   40.6590   34.4272   43.9362 H   0  0  0  0  0  0  0  0  0  0  0  0
   38.3169   29.0398   44.2193 H   0  0  0  0  0  0  0  0  0  0  0  0
   38.4583   26.9071   42.9331 H   0  0  0  0  0  0  0  0  0  0  0  0
   40.3371   26.7172   41.2689 H   0  0  0  0  0  0  0  0  0  0  0  0
   41.9470   28.5427   40.9285 H   0  0  0  0  0  0  0  0  0  0  0  0
  1  6  2  0
  2  1  1  0
  3  4  1  0
  3  2  2  0
  4  5  2  0
  5  8  1  0
  5  6  1  0
  7 15  2  0
  8  7  1  0
  9 10  1  0
  9  8  2  0
 10 14  2  0
 11 12  1  0
 11 10  1  0
 12 13  2  0
 13 14  1  0
 14 15  1  0
 16  3  1  0
 17 16  2  0
 18 17  1  0
 19 20  1  0
 19 18  2  0
 20 21  2  0
 21 16  1  0
 22 23  2  0
 22 20  1  0
 24 23  1  0
 25 24  2  0
 26 25  1  0
 26 27  2  0
 27 22  1  0
  1 28  1  0
  2 29  1  0
  7 30  1  0
  9 31  1  0
 11 32  1  0
 12 33  1  0
 15 34  1  0
 17 35  1  0
 18 36  1  0
 23 37  1  0
 24 38  1  0
 25 39  1  0
 26 40  1  0
M  ISO  8  28  14  29  14  30  14  31  14  32   9  33  14  34  14  35  14
M  ISO  5  36  14  37  14  38  14  39  14  40  14
M  END
>  <minimizedAffinity>  (1) 
-7.60496664

>  <minimizedRMSD>  (1) 
1.67437196

$$$$
