
     RDKit          3D

 33 36  0  0  0  0  0  0  0  0999 V2000
   38.3790   32.5830   48.9800 C   0  0  0  0  0  0  0  0  0  0  0  0
   39.0200   32.6990   47.7300 C   0  0  0  0  0  0  0  0  0  0  0  0
   38.5160   31.8980   46.7030 C   0  0  0  0  0  0  0  0  0  0  0  0
   37.4680   31.0710   46.9440 N   0  0  0  0  0  0  0  0  0  0  0  0
   36.8920   30.9990   48.1590 C   0  0  0  0  0  0  0  0  0  0  0  0
   37.3370   31.7450   49.1740 N   0  0  0  0  0  0  0  0  0  0  0  0
   35.8180   29.1480   49.3520 C   0  0  0  0  0  0  0  0  0  0  0  0
   35.7630   30.0770   48.3290 C   0  0  0  0  0  0  0  0  0  0  0  0
   34.6820   30.1230   47.5060 C   0  0  0  0  0  0  0  0  0  0  0  0
   33.6270   29.2520   47.6740 C   0  0  0  0  0  0  0  0  0  0  0  0
   32.4600   29.1040   46.9940 N   0  0  0  0  0  0  0  0  0  0  0  0
   31.8360   28.0780   47.6370 C   0  0  0  0  0  0  0  0  0  0  0  0
   32.5910   27.6250   48.6570 N   0  0  0  0  0  0  0  0  0  0  0  0
   33.7240   28.3470   48.7030 C   0  0  0  0  0  0  0  0  0  0  0  0
   34.7750   28.2540   49.5550 C   0  0  0  0  0  0  0  0  0  0  0  0
   39.0550   31.8890   45.3540 C   0  0  0  0  0  0  0  0  0  0  0  0
   38.8580   32.9110   44.4360 C   0  0  0  0  0  0  0  0  0  0  0  0
   39.3620   32.9190   43.1540 C   0  0  0  0  0  0  0  0  0  0  0  0
   40.0940   31.8550   42.7780 N   0  0  0  0  0  0  0  0  0  0  0  0
   40.3000   30.8620   43.6320 C   0  0  0  0  0  0  0  0  0  0  0  0
   39.8050   30.8840   44.8530 N   0  0  0  0  0  0  0  0  0  0  0  0
   41.0790   29.7580   43.1940 N   0  0  0  0  0  0  0  0  0  0  0  0
   38.7377   33.1927   49.8224 H   0  0  0  0  0  0  0  0  0  0  0  0
   39.8684   33.3812   47.5725 H   0  0  0  0  0  0  0  0  0  0  0  0
   36.6974   29.1169   50.0120 H   0  0  0  0  0  0  0  0  0  0  0  0
   34.6488   30.8654   46.6950 H   0  0  0  0  0  0  0  0  0  0  0  0
   32.1253   29.6420   46.1819 H   0  0  0  0  0  0  0  0  0  0  0  0
   30.8505   27.6745   47.3613 H   0  0  0  0  0  0  0  0  0  0  0  0
   34.8000   27.5095   50.3644 H   0  0  0  0  0  0  0  0  0  0  0  0
   38.2571   33.7755   44.7545 H   0  0  0  0  0  0  0  0  0  0  0  0
   39.1742   33.7583   42.4682 H   0  0  0  0  0  0  0  0  0  0  0  0
   41.2588   28.9693   43.8316 H   0  0  0  0  0  0  0  0  0  0  0  0
   41.4641   29.7461   42.2388 H   0  0  0  0  0  0  0  0  0  0  0  0
  1  6  2  0
  2  1  1  0
  3  4  1  0
  3  2  2  0
  4  5  2  0
  5  8  1  0
  5  6  1  0
  7 15  2  0
  8  7  1  0
  9 10  1  0
  9  8  2  0
 10 14  2  0
 11 12  1  0
 11 10  1  0
 12 13  2  0
 13 14  1  0
 14 15  1  0
 16  3  1  0
 17 16  2  0
 18 17  1  0
 19 18  2  0
 19 20  1  0
 20 21  2  0
 21 16  1  0
 22 20  1  0
  1 23  1  0
  2 24  1  0
  7 25  1  0
  9 26  1  0
 11 27  1  0
 12 28  1  0
 15 29  1  0
 17 30  1  0
 18 31  1  0
 22 32  1  0
 22 33  1  0
M  ISO  8  23  14  24  14  25  14  26  14  27   9  28  14  29  14  30  14
M  ISO  1  31  14
M  END
>  <minimizedAffinity>  (1) 
-7.07590914

>  <minimizedRMSD>  (1) 
0.493979216

$$$$
