
     RDKit          3D

 37 40  0  0  0  0  0  0  0  0999 V2000
   38.4770   32.4700   48.9110 C   0  0  0  0  0  0  0  0  0  0  0  0
   39.0390   32.6430   47.6400 C   0  0  0  0  0  0  0  0  0  0  0  0
   38.4690   31.9130   46.6000 C   0  0  0  0  0  0  0  0  0  0  0  0
   37.4220   31.0850   46.8370 N   0  0  0  0  0  0  0  0  0  0  0  0
   36.9090   30.9490   48.0900 C   0  0  0  0  0  0  0  0  0  0  0  0
   37.4400   31.6420   49.1160 N   0  0  0  0  0  0  0  0  0  0  0  0
   35.8390   29.1230   49.3230 C   0  0  0  0  0  0  0  0  0  0  0  0
   35.7820   30.0410   48.2840 C   0  0  0  0  0  0  0  0  0  0  0  0
   34.6950   30.0970   47.4590 C   0  0  0  0  0  0  0  0  0  0  0  0
   33.6320   29.2460   47.6370 C   0  0  0  0  0  0  0  0  0  0  0  0
   32.4620   29.0920   46.9820 N   0  0  0  0  0  0  0  0  0  0  0  0
   31.8350   28.0800   47.6410 C   0  0  0  0  0  0  0  0  0  0  0  0
   32.5900   27.6310   48.6610 N   0  0  0  0  0  0  0  0  0  0  0  0
   33.7250   28.3450   48.6830 C   0  0  0  0  0  0  0  0  0  0  0  0
   34.7860   28.2490   49.5330 C   0  0  0  0  0  0  0  0  0  0  0  0
   38.9290   31.9720   45.2110 C   0  0  0  0  0  0  0  0  0  0  0  0
   38.5360   32.9170   44.2980 C   0  0  0  0  0  0  0  0  0  0  0  0
   38.9530   32.9910   42.9960 C   0  0  0  0  0  0  0  0  0  0  0  0
   39.8240   32.0540   42.5860 N   0  0  0  0  0  0  0  0  0  0  0  0
   40.2360   31.1140   43.4400 C   0  0  0  0  0  0  0  0  0  0  0  0
   39.8110   31.0730   44.6910 N   0  0  0  0  0  0  0  0  0  0  0  0
   41.1390   30.0740   43.1620 O   0  0  0  0  0  0  0  0  0  0  0  0
   40.3750   27.7170   42.2460 O   0  0  0  0  0  0  0  0  0  0  0  0
   40.9100   29.0650   41.8050 P   0  0  0  0  0  0  0  0  0  0  0  0
   39.7950   29.7880   40.7770 O   0  0  0  0  0  0  0  0  0  0  0  0
   42.4140   28.8830   41.0220 O   0  0  0  0  0  0  0  0  0  0  0  0
   38.8955   33.0263   49.7627 H   0  0  0  0  0  0  0  0  0  0  0  0
   39.8882   33.3216   47.4716 H   0  0  0  0  0  0  0  0  0  0  0  0
   36.7208   29.0897   49.9798 H   0  0  0  0  0  0  0  0  0  0  0  0
   34.6707   30.8329   46.6418 H   0  0  0  0  0  0  0  0  0  0  0  0
   32.1207   29.6213   46.1670 H   0  0  0  0  0  0  0  0  0  0  0  0
   30.8443   27.6823   47.3759 H   0  0  0  0  0  0  0  0  0  0  0  0
   34.8049   27.5110   50.3485 H   0  0  0  0  0  0  0  0  0  0  0  0
   37.8240   33.6818   44.6416 H   0  0  0  0  0  0  0  0  0  0  0  0
   38.5924   33.7792   42.3187 H   0  0  0  0  0  0  0  0  0  0  0  0
   39.0968   30.2407   41.3134 H   0  0  0  0  0  0  0  0  0  0  0  0
   43.1305   28.7963   41.6997 H   0  0  0  0  0  0  0  0  0  0  0  0
  1  6  2  0
  2  1  1  0
  3  4  1  0
  3  2  2  0
  4  5  2  0
  5  8  1  0
  5  6  1  0
  7 15  2  0
  8  7  1  0
  9 10  1  0
  9  8  2  0
 10 14  2  0
 11 10  1  0
 11 12  1  0
 12 13  2  0
 13 14  1  0
 14 15  1  0
 16  3  1  0
 17 16  2  0
 18 17  1  0
 19 18  2  0
 19 20  1  0
 20 21  2  0
 21 16  1  0
 22 20  1  0
 24 23  2  0
 24 22  1  0
 25 24  1  0
 26 24  1  0
  1 27  1  0
  2 28  1  0
  7 29  1  0
  9 30  1  0
 11 31  1  0
 12 32  1  0
 15 33  1  0
 17 34  1  0
 18 35  1  0
 25 36  1  0
 26 37  1  0
M  ISO  8  27  14  28  14  29  14  30  14  31   9  32  14  33  14  34  14
M  ISO  3  35  14  36   3  37   3
M  END
>  <minimizedAffinity>  (1) 
-7.03971577

>  <minimizedRMSD>  (1) 
0.919272006

$$$$
