
     RDKit          3D

 39 42  0  0  1  0  0  0  0  0999 V2000
   36.1100   29.6280   49.9530 C   0  0  0  0  0  0  0  0  0  0  0  0
   34.9550   29.6490   50.6990 C   0  0  0  0  0  0  0  0  0  0  0  0
   34.0420   28.8230   50.0190 C   0  0  0  0  0  0  0  0  0  0  0  0
   34.7110   28.3580   48.9020 C   0  0  0  0  0  0  0  0  0  0  0  0
   35.9130   28.8630   48.9210 O   0  0  0  0  0  0  0  0  0  0  0  0
   37.2850   30.3780   50.3560 C   0  0  0  0  0  0  0  0  0  0  0  0
   37.6970   30.2780   51.5350 O   0  0  0  0  0  0  0  0  0  0  0  0
   37.9220   31.2120   49.3630 C   0  0  0  0  0  0  0  0  0  0  0  0
   38.3090   32.4880   49.7480 C   0  0  0  0  0  0  0  0  0  0  0  0
   38.9250   33.3150   48.8180 C   0  0  0  0  0  0  0  0  0  0  0  0
   39.1210   32.8210   47.5580 N   0  0  0  0  0  0  0  0  0  0  0  0
   38.7370   31.5770   47.2040 C   0  0  0  0  0  0  0  0  0  0  0  0
   38.1440   30.7820   48.0970 N   0  0  0  0  0  0  0  0  0  0  0  0
   34.0470   27.4390   47.9290 C   0  0  0  0  0  0  0  0  0  0  0  0
   32.9780   28.2120   47.2720 C   0  0  0  0  0  0  0  0  0  0  0  0
   33.1790   29.1470   46.3730 C   0  0  0  0  0  0  0  0  0  0  0  0
   32.0610   29.8080   45.8120 N   0  0  0  0  0  0  0  0  0  0  0  0
   31.4840   31.0550   45.3770 C   0  0  0  0  0  0  0  0  0  0  0  0
   31.8890   32.2450   45.1540 O   0  0  0  0  0  0  0  0  0  0  0  0
   30.1320   30.4790   45.2540 C   0  0  0  0  0  0  0  0  0  0  0  0
   30.8150   29.1590   45.4080 C   0  0  2  0  0  0  0  0  0  0  0  0
   30.2510   28.2490   46.8830 S   0  0  0  0  0  0  0  0  0  0  0  0
   31.7000   27.7270   47.8400 C   0  0  0  0  0  0  0  0  0  0  0  0
   34.5240   29.5460   45.9060 C   0  0  0  0  0  0  0  0  0  0  0  0
   35.2690   29.2100   44.9690 O   0  0  0  0  0  0  0  0  0  0  0  0
   35.2890   30.5010   46.5260 O   0  0  0  0  0  0  0  0  0  0  0  0
   34.7808   30.1990   51.6356 H   0  0  0  0  0  0  0  0  0  0  0  0
   33.0077   28.5939   50.3152 H   0  0  0  0  0  0  0  0  0  0  0  0
   38.1303   32.8392   50.7750 H   0  0  0  0  0  0  0  0  0  0  0  0
   39.2445   34.3330   49.0858 H   0  0  0  0  0  0  0  0  0  0  0  0
   38.9127   31.2180   46.1792 H   0  0  0  0  0  0  0  0  0  0  0  0
   34.7747   27.0890   47.1820 H   0  0  0  0  0  0  0  0  0  0  0  0
   33.6373   26.5546   48.4389 H   0  0  0  0  0  0  0  0  0  0  0  0
   29.4363   30.7425   46.0643 H   0  0  0  0  0  0  0  0  0  0  0  0
   29.4584   30.7091   44.4154 H   0  0  0  0  0  0  0  0  0  0  0  0
   30.7417   28.4517   44.5687 H   0  0  0  0  0  0  0  0  0  0  0  0
   31.7240   26.6276   47.8669 H   0  0  0  0  0  0  0  0  0  0  0  0
   31.6025   28.1622   48.8455 H   0  0  0  0  0  0  0  0  0  0  0  0
   36.1838   30.7276   46.1681 H   0  0  0  0  0  0  0  0  0  0  0  0
  1  6  1  0
  1  2  2  0
  3  2  1  0
  4  5  1  0
  4  3  2  0
  5  1  1  0
  6  7  2  0
  8  9  2  0
  8  6  1  0
 10  9  1  0
 11 10  2  0
 12 11  1  0
 12 13  2  0
 13  8  1  0
 14  4  1  0
 15 23  1  0
 15 14  1  0
 16 15  2  0
 17 16  1  0
 18 17  1  0
 19 18  2  0
 20 18  1  0
 21 20  1  0
 21 17  1  0
 21 22  1  0
 22 23  1  0
 24 16  1  0
 24 26  1  0
 25 24  2  0
  2 27  1  0
  3 28  1  0
  9 29  1  0
 10 30  1  0
 12 31  1  0
 14 32  1  0
 14 33  1  0
 20 34  1  0
 20 35  1  0
 21 36  1  6
 23 37  1  0
 23 38  1  0
 26 39  1  0
M  ISO  8  27  14  28  14  29  14  30  14  31  14  32   8  33   8  34  13
M  ISO  5  35  13  36  13  37  13  38  13  39   3
M  END
>  <minimizedAffinity>  (1) 
-6.10267925

>  <minimizedRMSD>  (1) 
2.27883458

$$$$
