
     RDKit          3D

 29 31  0  0  0  0  0  0  0  0999 V2000
   35.8620   29.2030   49.7540 C   0  0  0  0  0  0  0  0  0  0  0  0
   34.7980   29.7790   50.3890 C   0  0  0  0  0  0  0  0  0  0  0  0
   33.6470   29.1630   49.8960 C   0  0  0  0  0  0  0  0  0  0  0  0
   34.0900   28.2330   48.9750 C   0  0  0  0  0  0  0  0  0  0  0  0
   35.3900   28.3050   48.9370 O   0  0  0  0  0  0  0  0  0  0  0  0
   31.4070   27.9810   49.4870 F   0  0  0  0  0  0  0  0  0  0  0  0
   31.9190   27.2250   48.4640 C   0  0  0  0  0  0  0  0  0  0  0  0
   33.2630   27.3300   48.1830 C   0  0  0  0  0  0  0  0  0  0  0  0
   33.7920   26.5780   47.1600 C   0  0  0  0  0  0  0  0  0  0  0  0
   33.0060   25.7310   46.4180 C   0  0  0  0  0  0  0  0  0  0  0  0
   31.6690   25.6760   46.7550 C   0  0  0  0  0  0  0  0  0  0  0  0
   31.0420   26.3910   47.7650 C   0  0  0  0  0  0  0  0  0  0  0  0
   37.2320   29.5940   50.0150 C   0  0  0  0  0  0  0  0  0  0  0  0
   37.8520   29.0400   50.9430 O   0  0  0  0  0  0  0  0  0  0  0  0
   37.8050   30.6220   49.1650 C   0  0  0  0  0  0  0  0  0  0  0  0
   38.1380   31.8280   49.7860 C   0  0  0  0  0  0  0  0  0  0  0  0
   38.6910   32.8420   49.0050 C   0  0  0  0  0  0  0  0  0  0  0  0
   38.8730   32.5900   47.6660 N   0  0  0  0  0  0  0  0  0  0  0  0
   38.5390   31.4150   47.1050 C   0  0  0  0  0  0  0  0  0  0  0  0
   38.0090   30.4440   47.8530 N   0  0  0  0  0  0  0  0  0  0  0  0
   34.8407   30.5767   51.1452 H   0  0  0  0  0  0  0  0  0  0  0  0
   32.6056   29.3736   50.1808 H   0  0  0  0  0  0  0  0  0  0  0  0
   34.8652   26.6566   46.9319 H   0  0  0  0  0  0  0  0  0  0  0  0
   33.4208   25.1274   45.5972 H   0  0  0  0  0  0  0  0  0  0  0  0
   31.0371   24.9972   46.1635 H   0  0  0  0  0  0  0  0  0  0  0  0
   29.9686   26.3101   47.9916 H   0  0  0  0  0  0  0  0  0  0  0  0
   37.9684   31.9739   50.8630 H   0  0  0  0  0  0  0  0  0  0  0  0
   38.9719   33.8102   49.4451 H   0  0  0  0  0  0  0  0  0  0  0  0
   38.7023   31.2532   46.0293 H   0  0  0  0  0  0  0  0  0  0  0  0
  1 13  1  0
  1  2  2  0
  3  2  1  0
  4  3  2  0
  5  4  1  0
  5  1  1  0
  7  6  1  0
  8  7  2  0
  8  4  1  0
  9  8  1  0
 10 11  1  0
 10  9  2  0
 11 12  2  0
 12  7  1  0
 13 14  2  0
 15 16  2  0
 15 13  1  0
 17 16  1  0
 18 17  2  0
 19 18  1  0
 19 20  2  0
 20 15  1  0
  2 21  1  0
  3 22  1  0
  9 23  1  0
 10 24  1  0
 11 25  1  0
 12 26  1  0
 16 27  1  0
 17 28  1  0
 19 29  1  0
M  ISO  8  21  14  22  14  23  14  24  14  25  14  26  14  27  14  28  14
M  ISO  1  29  14
M  END
>  <minimizedAffinity>  (1) 
-5.72593737

>  <minimizedRMSD>  (1) 
1.20468056

$$$$
