
     RDKit          3D

 21 22  0  0  0  0  0  0  0  0999 V2000
   37.0820   30.2970   50.3350 C   0  0  0  0  0  0  0  0  0  0  0  0
   37.4600   30.1980   51.5330 O   0  0  0  0  0  0  0  0  0  0  0  0
   37.7710   31.1090   49.3540 C   0  0  0  0  0  0  0  0  0  0  0  0
   38.0850   32.4230   49.7170 C   0  0  0  0  0  0  0  0  0  0  0  0
   38.7480   33.2240   48.7920 C   0  0  0  0  0  0  0  0  0  0  0  0
   39.0500   32.6700   47.5810 N   0  0  0  0  0  0  0  0  0  0  0  0
   38.7380   31.4130   47.2600 C   0  0  0  0  0  0  0  0  0  0  0  0
   38.0980   30.6260   48.1440 N   0  0  0  0  0  0  0  0  0  0  0  0
   35.9140   29.5770   49.9110 C   0  0  0  0  0  0  0  0  0  0  0  0
   34.6610   29.8930   50.3340 C   0  0  0  0  0  0  0  0  0  0  0  0
   33.7590   29.0140   49.7460 C   0  0  0  0  0  0  0  0  0  0  0  0
   34.5380   28.1780   48.9680 C   0  0  0  0  0  0  0  0  0  0  0  0
   35.7910   28.5590   49.1070 O   0  0  0  0  0  0  0  0  0  0  0  0
   34.0420   27.0990   48.1660 N   0  0  0  0  0  0  0  0  0  0  0  0
   37.8145   32.8135   50.7091 H   0  0  0  0  0  0  0  0  0  0  0  0
   39.0185   34.2639   49.0275 H   0  0  0  0  0  0  0  0  0  0  0  0
   39.0051   31.0185   46.2685 H   0  0  0  0  0  0  0  0  0  0  0  0
   34.4040   30.7084   51.0262 H   0  0  0  0  0  0  0  0  0  0  0  0
   32.6665   28.9891   49.8719 H   0  0  0  0  0  0  0  0  0  0  0  0
   33.0320   26.8987   48.1399 H   0  0  0  0  0  0  0  0  0  0  0  0
   34.6955   26.5237   47.6156 H   0  0  0  0  0  0  0  0  0  0  0  0
  1  2  2  0
  3  4  2  0
  3  1  1  0
  5  4  1  0
  6  5  2  0
  7  6  1  0
  7  8  2  0
  8  3  1  0
  9 10  2  0
  9  1  1  0
 11 10  1  0
 12 13  1  0
 12 11  2  0
 13  9  1  0
 14 12  1  0
  4 15  1  0
  5 16  1  0
  7 17  1  0
 10 18  1  0
 11 19  1  0
 14 20  1  0
 14 21  1  0
M  ISO  5  15  14  16  14  17  14  18  14  19  14
M  END
>  <minimizedAffinity>  (1) 
-4.81851912

>  <minimizedRMSD>  (1) 
0.346776664

$$$$
