
     RDKit          3D

 20 21  0  0  0  0  0  0  0  0999 V2000
   37.0560   30.1520   50.2990 C   0  0  0  0  0  0  0  0  0  0  0  0
   37.4750   29.9860   51.4680 O   0  0  0  0  0  0  0  0  0  0  0  0
   37.7260   30.9880   49.3330 C   0  0  0  0  0  0  0  0  0  0  0  0
   38.0190   32.2970   49.7090 C   0  0  0  0  0  0  0  0  0  0  0  0
   38.6660   33.1270   48.8000 C   0  0  0  0  0  0  0  0  0  0  0  0
   38.9830   32.6190   47.5780 N   0  0  0  0  0  0  0  0  0  0  0  0
   38.6930   31.3500   47.2290 C   0  0  0  0  0  0  0  0  0  0  0  0
   38.0670   30.5540   48.1150 N   0  0  0  0  0  0  0  0  0  0  0  0
   35.8520   29.4910   49.8800 C   0  0  0  0  0  0  0  0  0  0  0  0
   34.6260   29.7750   50.4370 C   0  0  0  0  0  0  0  0  0  0  0  0
   33.6840   28.9510   49.7940 C   0  0  0  0  0  0  0  0  0  0  0  0
   34.4060   28.2070   48.8750 C   0  0  0  0  0  0  0  0  0  0  0  0
   35.6700   28.5640   48.9680 O   0  0  0  0  0  0  0  0  0  0  0  0
   33.8270   26.9710   47.7320 S   0  0  0  0  0  0  0  0  0  0  0  0
   37.7434   32.6675   50.7074 H   0  0  0  0  0  0  0  0  0  0  0  0
   38.9148   34.1661   49.0617 H   0  0  0  0  0  0  0  0  0  0  0  0
   38.9645   30.9700   46.2330 H   0  0  0  0  0  0  0  0  0  0  0  0
   34.4216   30.5064   51.2328 H   0  0  0  0  0  0  0  0  0  0  0  0
   32.6010   28.9068   49.9817 H   0  0  0  0  0  0  0  0  0  0  0  0
   33.3267   25.9030   48.4291 H   0  0  0  0  0  0  0  0  0  0  0  0
  1  2  2  0
  3  4  2  0
  3  1  1  0
  5  4  1  0
  6  5  2  0
  7  6  1  0
  7  8  2  0
  8  3  1  0
  9  1  1  0
  9 10  2  0
 11 10  1  0
 12 13  1  0
 12 11  2  0
 13  9  1  0
 14 12  1  0
  4 15  1  0
  5 16  1  0
  7 17  1  0
 10 18  1  0
 11 19  1  0
 14 20  1  0
M  ISO  6  15  14  16  14  17  14  18  14  19  14  20  11
M  END
>  <minimizedAffinity>  (1) 
-4.73601723

>  <minimizedRMSD>  (1) 
0.502996802

$$$$
