
     RDKit          3D

 45 50  0  0  0  0  0  0  0  0999 V2000
   37.0310   29.6120   50.2510 C   0  0  0  0  0  0  0  0  0  0  0  0
   37.6870   29.0020   51.1350 O   0  0  0  0  0  0  0  0  0  0  0  0
   37.5700   30.7170   49.5010 C   0  0  0  0  0  0  0  0  0  0  0  0
   37.5060   31.9790   50.0680 C   0  0  0  0  0  0  0  0  0  0  0  0
   38.0150   33.0750   49.3790 C   0  0  0  0  0  0  0  0  0  0  0  0
   38.5570   32.8190   48.1530 N   0  0  0  0  0  0  0  0  0  0  0  0
   38.6140   31.6010   47.6150 C   0  0  0  0  0  0  0  0  0  0  0  0
   38.1210   30.5480   48.2860 N   0  0  0  0  0  0  0  0  0  0  0  0
   40.0010   32.3970   45.7440 C   0  0  0  0  0  0  0  0  0  0  0  0
   39.2160   31.4130   46.2870 C   0  0  0  0  0  0  0  0  0  0  0  0
   38.9910   30.2320   45.5720 C   0  0  0  0  0  0  0  0  0  0  0  0
   39.5590   30.0450   44.3100 C   0  0  0  0  0  0  0  0  0  0  0  0
   39.5250   29.0590   43.4220 N   0  0  0  0  0  0  0  0  0  0  0  0
   40.2680   29.4250   42.3620 C   0  0  0  0  0  0  0  0  0  0  0  0
   40.7610   30.6520   42.6110 N   0  0  0  0  0  0  0  0  0  0  0  0
   40.3500   31.0840   43.8120 C   0  0  0  0  0  0  0  0  0  0  0  0
   40.5710   32.2370   44.5060 C   0  0  0  0  0  0  0  0  0  0  0  0
   35.6690   29.2000   49.9590 C   0  0  0  0  0  0  0  0  0  0  0  0
   34.6030   29.6760   50.6340 C   0  0  0  0  0  0  0  0  0  0  0  0
   33.4690   29.0660   50.0900 C   0  0  0  0  0  0  0  0  0  0  0  0
   33.9440   28.2210   49.0750 C   0  0  0  0  0  0  0  0  0  0  0  0
   35.2390   28.3540   49.0590 O   0  0  0  0  0  0  0  0  0  0  0  0
   33.5300   26.4330   47.4060 C   0  0  0  0  0  0  0  0  0  0  0  0
   33.0510   27.4050   48.2700 C   0  0  0  0  0  0  0  0  0  0  0  0
   31.7000   27.6380   48.4100 C   0  0  0  0  0  0  0  0  0  0  0  0
   30.8340   26.8700   47.6620 C   0  0  0  0  0  0  0  0  0  0  0  0
   29.4880   26.8830   47.6060 N   0  0  0  0  0  0  0  0  0  0  0  0
   29.1220   25.9480   46.7340 N   0  0  0  0  0  0  0  0  0  0  0  0
   30.2070   25.3480   46.2410 C   0  0  0  0  0  0  0  0  0  0  0  0
   31.3420   25.9060   46.8080 C   0  0  0  0  0  0  0  0  0  0  0  0
   32.6870   25.6650   46.6580 C   0  0  0  0  0  0  0  0  0  0  0  0
   37.0535   32.1144   51.0614 H   0  0  0  0  0  0  0  0  0  0  0  0
   37.9824   34.0912   49.7989 H   0  0  0  0  0  0  0  0  0  0  0  0
   40.1760   33.3256   46.3072 H   0  0  0  0  0  0  0  0  0  0  0  0
   38.3606   29.4430   46.0080 H   0  0  0  0  0  0  0  0  0  0  0  0
   39.0179   28.1686   43.5264 H   0  0  0  0  0  0  0  0  0  0  0  0
   40.4414   28.8282   41.4544 H   0  0  0  0  0  0  0  0  0  0  0  0
   41.2001   33.0311   44.0775 H   0  0  0  0  0  0  0  0  0  0  0  0
   34.6222   30.4059   51.4567 H   0  0  0  0  0  0  0  0  0  0  0  0
   32.4226   29.2168   50.3940 H   0  0  0  0  0  0  0  0  0  0  0  0
   34.6156   26.2773   47.3216 H   0  0  0  0  0  0  0  0  0  0  0  0
   31.3251   28.4116   49.0963 H   0  0  0  0  0  0  0  0  0  0  0  0
   28.8599   27.5014   48.1389 H   0  0  0  0  0  0  0  0  0  0  0  0
   30.2016   24.5359   45.4991 H   0  0  0  0  0  0  0  0  0  0  0  0
   33.0636   24.8932   45.9707 H   0  0  0  0  0  0  0  0  0  0  0  0
  1  2  2  0
  3  4  2  0
  3  1  1  0
  5  4  1  0
  6  5  2  0
  7  6  1  0
  7  8  2  0
  8  3  1  0
  9 10  2  0
 10  7  1  0
 11 10  1  0
 12 11  2  0
 13 12  1  0
 14 15  2  0
 14 13  1  0
 15 16  1  0
 16 12  1  0
 16 17  2  0
 17  9  1  0
 18  1  1  0
 18 19  2  0
 20 19  1  0
 21 20  2  0
 22 21  1  0
 22 18  1  0
 23 24  2  0
 24 25  1  0
 24 21  1  0
 26 25  2  0
 27 26  1  0
 28 27  1  0
 29 28  2  0
 29 30  1  0
 30 26  1  0
 31 30  2  0
 31 23  1  0
  4 32  1  0
  5 33  1  0
  9 34  1  0
 11 35  1  0
 13 36  1  0
 14 37  1  0
 17 38  1  0
 19 39  1  0
 20 40  1  0
 23 41  1  0
 25 42  1  0
 27 43  1  0
 29 44  1  0
 31 45  1  0
M  ISO  8  32  14  33  14  34  14  35  14  36   9  37  14  38  14  39  14
M  ISO  6  40  14  41  14  42  14  43   9  44  14  45  14
M  END
>  <minimizedAffinity>  (1) 
-7.9474206

>  <minimizedRMSD>  (1) 
0.866005182

$$$$
