
     RDKit          3D

 45 49  0  0  0  0  0  0  0  0999 V2000
   35.8540   29.0900   49.8650 C   0  0  0  0  0  0  0  0  0  0  0  0
   34.8220   29.6330   50.5440 C   0  0  0  0  0  0  0  0  0  0  0  0
   33.6450   29.0750   50.0280 C   0  0  0  0  0  0  0  0  0  0  0  0
   34.0680   28.1880   49.0200 C   0  0  0  0  0  0  0  0  0  0  0  0
   35.3620   28.2520   48.9850 O   0  0  0  0  0  0  0  0  0  0  0  0
   33.5370   26.4480   47.3350 C   0  0  0  0  0  0  0  0  0  0  0  0
   33.1130   27.4100   48.2440 C   0  0  0  0  0  0  0  0  0  0  0  0
   31.7790   27.6640   48.4450 C   0  0  0  0  0  0  0  0  0  0  0  0
   30.8550   26.9430   47.7250 C   0  0  0  0  0  0  0  0  0  0  0  0
   29.5120   26.9790   47.7180 N   0  0  0  0  0  0  0  0  0  0  0  0
   29.0870   26.0700   46.8340 N   0  0  0  0  0  0  0  0  0  0  0  0
   30.1480   25.4630   46.2850 C   0  0  0  0  0  0  0  0  0  0  0  0
   31.3090   25.9960   46.8310 C   0  0  0  0  0  0  0  0  0  0  0  0
   32.6400   25.7180   46.6070 C   0  0  0  0  0  0  0  0  0  0  0  0
   37.2310   29.4420   50.1390 C   0  0  0  0  0  0  0  0  0  0  0  0
   37.8840   28.7540   50.9690 O   0  0  0  0  0  0  0  0  0  0  0  0
   37.7860   30.5710   49.4450 C   0  0  0  0  0  0  0  0  0  0  0  0
   38.0700   31.7080   50.1970 C   0  0  0  0  0  0  0  0  0  0  0  0
   38.6070   32.8260   49.5710 C   0  0  0  0  0  0  0  0  0  0  0  0
   38.8260   32.7250   48.2200 N   0  0  0  0  0  0  0  0  0  0  0  0
   38.5500   31.6340   47.5220 C   0  0  0  0  0  0  0  0  0  0  0  0
   38.0340   30.5630   48.1250 N   0  0  0  0  0  0  0  0  0  0  0  0
   38.8230   31.6550   46.1250 N   0  0  0  0  0  0  0  0  0  0  0  0
   40.1260   31.2280   45.6480 C   0  0  0  0  0  0  0  0  0  0  0  0
   40.7200   32.5030   45.0560 C   0  0  0  0  0  0  0  0  0  0  0  0
   39.9280   32.8720   43.8570 C   0  0  0  0  0  0  0  0  0  0  0  0
   38.4680   32.6540   43.8980 C   0  0  0  0  0  0  0  0  0  0  0  0
   37.8810   32.0780   45.1240 C   0  0  0  0  0  0  0  0  0  0  0  0
   34.8919   30.3757   51.3524 H   0  0  0  0  0  0  0  0  0  0  0  0
   32.6122   29.2849   50.3429 H   0  0  0  0  0  0  0  0  0  0  0  0
   34.6141   26.2710   47.1991 H   0  0  0  0  0  0  0  0  0  0  0  0
   31.4557   28.4283   49.1670 H   0  0  0  0  0  0  0  0  0  0  0  0
   28.9172   27.5953   48.2901 H   0  0  0  0  0  0  0  0  0  0  0  0
   30.1064   24.6698   45.5240 H   0  0  0  0  0  0  0  0  0  0  0  0
   32.9616   24.9533   45.8846 H   0  0  0  0  0  0  0  0  0  0  0  0
   37.8706   31.7209   51.2787 H   0  0  0  0  0  0  0  0  0  0  0  0
   38.8442   33.7439   50.1289 H   0  0  0  0  0  0  0  0  0  0  0  0
   40.7450   30.8529   46.4763 H   0  0  0  0  0  0  0  0  0  0  0  0
   40.0690   30.4032   44.9225 H   0  0  0  0  0  0  0  0  0  0  0  0
   40.6729   33.3144   45.7972 H   0  0  0  0  0  0  0  0  0  0  0  0
   41.7720   32.3386   44.7798 H   0  0  0  0  0  0  0  0  0  0  0  0
   40.3225   32.2888   43.0119 H   0  0  0  0  0  0  0  0  0  0  0  0
   40.0413   33.9632   43.7773 H   0  0  0  0  0  0  0  0  0  0  0  0
   37.8343   32.9141   43.0373 H   0  0  0  0  0  0  0  0  0  0  0  0
   36.7943   31.9788   45.2628 H   0  0  0  0  0  0  0  0  0  0  0  0
  1 15  1  0
  1  2  2  0
  3  2  1  0
  4  3  2  0
  5  4  1  0
  5  1  1  0
  6  7  2  0
  7  8  1  0
  7  4  1  0
  9  8  2  0
 10  9  1  0
 11 10  1  0
 12 13  1  0
 12 11  2  0
 13  9  1  0
 14 13  2  0
 14  6  1  0
 15 16  2  0
 17 15  1  0
 17 18  2  0
 19 18  1  0
 20 19  2  0
 21 22  2  0
 21 20  1  0
 22 17  1  0
 23 21  1  0
 24 23  1  0
 25 24  1  0
 26 27  1  0
 26 25  1  0
 27 28  2  0
 28 23  1  0
  2 29  1  0
  3 30  1  0
  6 31  1  0
  8 32  1  0
 10 33  1  0
 12 34  1  0
 14 35  1  0
 18 36  1  0
 19 37  1  0
 24 38  1  0
 24 39  1  0
 25 40  1  0
 25 41  1  0
 26 42  1  0
 26 43  1  0
 27 44  1  0
 28 45  1  0
M  ISO  8  29  14  30  14  31  14  32  14  33   9  34  14  35  14  36  14
M  ISO  8  37  14  38  13  39  13  40  13  41  13  42  13  43  13  44  13
M  ISO  1  45  13
M  END
>  <minimizedAffinity>  (1) 
-7.63341427

>  <minimizedRMSD>  (1) 
0.394306123

$$$$
