
     RDKit          3D

 45 49  0  0  0  0  0  0  0  0999 V2000
   35.9190   29.1500   49.7970 C   0  0  0  0  0  0  0  0  0  0  0  0
   34.8860   29.7100   50.4940 C   0  0  0  0  0  0  0  0  0  0  0  0
   33.7140   29.1480   49.9870 C   0  0  0  0  0  0  0  0  0  0  0  0
   34.1200   28.2580   48.9860 C   0  0  0  0  0  0  0  0  0  0  0  0
   35.4200   28.3120   48.9330 O   0  0  0  0  0  0  0  0  0  0  0  0
   33.5670   26.5180   47.2910 C   0  0  0  0  0  0  0  0  0  0  0  0
   33.1690   27.4680   48.2130 C   0  0  0  0  0  0  0  0  0  0  0  0
   31.8210   27.7160   48.4560 C   0  0  0  0  0  0  0  0  0  0  0  0
   30.8900   26.9820   47.7440 C   0  0  0  0  0  0  0  0  0  0  0  0
   29.5600   27.0150   47.7800 N   0  0  0  0  0  0  0  0  0  0  0  0
   29.1160   26.1090   46.9050 N   0  0  0  0  0  0  0  0  0  0  0  0
   30.1600   25.5130   46.3250 C   0  0  0  0  0  0  0  0  0  0  0  0
   31.3430   26.0390   46.8300 C   0  0  0  0  0  0  0  0  0  0  0  0
   32.6810   25.7860   46.5820 C   0  0  0  0  0  0  0  0  0  0  0  0
   37.3030   29.5060   50.0640 C   0  0  0  0  0  0  0  0  0  0  0  0
   37.9550   28.8270   50.8980 O   0  0  0  0  0  0  0  0  0  0  0  0
   37.8480   30.6300   49.3450 C   0  0  0  0  0  0  0  0  0  0  0  0
   38.1390   31.7740   50.0750 C   0  0  0  0  0  0  0  0  0  0  0  0
   38.6660   32.8890   49.4280 C   0  0  0  0  0  0  0  0  0  0  0  0
   38.8640   32.7740   48.0910 N   0  0  0  0  0  0  0  0  0  0  0  0
   38.5810   31.6710   47.4000 C   0  0  0  0  0  0  0  0  0  0  0  0
   38.0760   30.6110   48.0340 N   0  0  0  0  0  0  0  0  0  0  0  0
   38.8100   31.5990   45.9780 N   0  0  0  0  0  0  0  0  0  0  0  0
   37.8980   32.2950   45.0620 C   0  0  0  0  0  0  0  0  0  0  0  0
   38.4710   32.2050   43.6910 C   0  0  0  0  0  0  0  0  0  0  0  0
   39.8300   32.3420   43.6070 O   0  0  0  0  0  0  0  0  0  0  0  0
   40.5540   31.3810   44.2580 C   0  0  0  0  0  0  0  0  0  0  0  0
   39.9510   30.8310   45.5060 C   0  0  0  0  0  0  0  0  0  0  0  0
   34.9632   30.4574   51.2974 H   0  0  0  0  0  0  0  0  0  0  0  0
   32.6835   29.3605   50.3078 H   0  0  0  0  0  0  0  0  0  0  0  0
   34.6424   26.3527   47.1293 H   0  0  0  0  0  0  0  0  0  0  0  0
   31.5064   28.4716   49.1909 H   0  0  0  0  0  0  0  0  0  0  0  0
   28.9804   27.6261   48.3729 H   0  0  0  0  0  0  0  0  0  0  0  0
   30.0939   24.7237   45.5617 H   0  0  0  0  0  0  0  0  0  0  0  0
   33.0041   25.0318   45.8493 H   0  0  0  0  0  0  0  0  0  0  0  0
   37.9543   31.7999   51.1591 H   0  0  0  0  0  0  0  0  0  0  0  0
   38.9087   33.8136   49.9722 H   0  0  0  0  0  0  0  0  0  0  0  0
   36.9077   31.8168   45.0854 H   0  0  0  0  0  0  0  0  0  0  0  0
   37.7831   33.3472   45.3613 H   0  0  0  0  0  0  0  0  0  0  0  0
   38.2039   31.2216   43.2767 H   0  0  0  0  0  0  0  0  0  0  0  0
   38.0484   33.0532   43.1325 H   0  0  0  0  0  0  0  0  0  0  0  0
   40.7027   30.5436   43.5605 H   0  0  0  0  0  0  0  0  0  0  0  0
   41.4824   31.8783   44.5755 H   0  0  0  0  0  0  0  0  0  0  0  0
   39.6214   29.8000   45.3100 H   0  0  0  0  0  0  0  0  0  0  0  0
   40.7221   30.8767   46.2891 H   0  0  0  0  0  0  0  0  0  0  0  0
  1 15  1  0
  1  2  2  0
  3  2  1  0
  4  3  2  0
  5  4  1  0
  5  1  1  0
  6  7  2  0
  7  8  1  0
  7  4  1  0
  9 10  1  0
  9  8  2  0
 11 10  1  0
 12 13  1  0
 12 11  2  0
 13  9  1  0
 14 13  2  0
 14  6  1  0
 15 16  2  0
 17 15  1  0
 17 18  2  0
 19 18  1  0
 20 19  2  0
 21 22  2  0
 21 20  1  0
 22 17  1  0
 23 21  1  0
 24 23  1  0
 25 24  1  0
 26 25  1  0
 26 27  1  0
 27 28  1  0
 28 23  1  0
  2 29  1  0
  3 30  1  0
  6 31  1  0
  8 32  1  0
 10 33  1  0
 12 34  1  0
 14 35  1  0
 18 36  1  0
 19 37  1  0
 24 38  1  0
 24 39  1  0
 25 40  1  0
 25 41  1  0
 27 42  1  0
 27 43  1  0
 28 44  1  0
 28 45  1  0
M  ISO  8  29  14  30  14  31  14  32  14  33   9  34  14  35  14  36  14
M  ISO  8  37  14  38  13  39  13  40  13  41  13  42  13  43  13  44  13
M  ISO  1  45  13
M  END
>  <minimizedAffinity>  (1) 
-7.36032963

>  <minimizedRMSD>  (1) 
0.346365601

$$$$
