
     RDKit          3D

 31 34  0  0  1  0  0  0  0  0999 V2000
   36.5870   30.6580   50.4810 C   0  0  1  0  0  0  0  0  0  0  0  0
   35.7930   29.4520   50.4070 C   0  0  2  0  0  0  0  0  0  0  0  0
   37.1290   29.3700   51.1140 C   0  0  0  0  0  0  0  0  0  0  0  0
   37.4280   31.1160   49.3170 C   0  0  0  0  0  0  0  0  0  0  0  0
   38.0130   32.3760   49.4430 C   0  0  0  0  0  0  0  0  0  0  0  0
   38.7710   32.7970   48.3420 C   0  0  0  0  0  0  0  0  0  0  0  0
   38.8950   31.9900   47.2440 N   0  0  0  0  0  0  0  0  0  0  0  0
   38.3080   30.7720   47.1700 C   0  0  0  0  0  0  0  0  0  0  0  0
   37.5600   30.3230   48.2220 N   0  0  0  0  0  0  0  0  0  0  0  0
   35.7300   28.7510   49.1910 O   0  0  0  0  0  0  0  0  0  0  0  0
   34.1770   27.3090   47.8510 N   0  0  0  0  0  0  0  0  0  0  0  0
   34.5180   28.1920   48.8060 C   0  0  0  0  0  0  0  0  0  0  0  0
   33.3600   28.4990   49.4180 N   0  0  0  0  0  0  0  0  0  0  0  0
   32.3230   27.8430   48.8810 C   0  0  0  0  0  0  0  0  0  0  0  0
   30.9600   27.7340   49.0530 C   0  0  0  0  0  0  0  0  0  0  0  0
   30.1980   26.9380   48.2940 N   0  0  0  0  0  0  0  0  0  0  0  0
   30.7450   26.1930   47.3060 C   0  0  0  0  0  0  0  0  0  0  0  0
   32.0750   26.2780   47.1130 N   0  0  0  0  0  0  0  0  0  0  0  0
   32.8670   27.0650   47.8550 C   0  0  0  0  0  0  0  0  0  0  0  0
   30.3730   28.5000   50.0740 N   0  0  0  0  0  0  0  0  0  0  0  0
   36.3170   31.6794   50.7873 H   0  0  0  0  0  0  0  0  0  0  0  0
   34.7460   29.2398   50.6692 H   0  0  0  0  0  0  0  0  0  0  0  0
   37.9725   28.8334   50.6550 H   0  0  0  0  0  0  0  0  0  0  0  0
   37.4879   29.0594   52.1063 H   0  0  0  0  0  0  0  0  0  0  0  0
   37.8881   32.9956   50.3433 H   0  0  0  0  0  0  0  0  0  0  0  0
   39.2674   33.7784   48.3606 H   0  0  0  0  0  0  0  0  0  0  0  0
   38.4320   30.1497   46.2715 H   0  0  0  0  0  0  0  0  0  0  0  0
   34.8450   26.8753   47.1979 H   0  0  0  0  0  0  0  0  0  0  0  0
   30.1222   25.5377   46.6793 H   0  0  0  0  0  0  0  0  0  0  0  0
   29.3573   28.4488   50.2371 H   0  0  0  0  0  0  0  0  0  0  0  0
   30.9584   29.1128   50.6594 H   0  0  0  0  0  0  0  0  0  0  0  0
  1  3  1  0
  2  1  1  0
  2  3  1  0
  4  5  2  0
  4  1  1  0
  6  5  1  0
  7  6  2  0
  8  7  1  0
  8  9  2  0
  9  4  1  0
 10  2  1  0
 11 19  1  0
 11 12  1  0
 12 10  1  0
 12 13  2  0
 14 15  2  0
 14 13  1  0
 15 20  1  0
 16 15  1  0
 17 16  2  0
 18 17  1  0
 18 19  2  0
 19 14  1  0
  1 21  1  1
  2 22  1  1
  3 23  1  0
  3 24  1  0
  5 25  1  0
  6 26  1  0
  8 27  1  0
 11 28  1  0
 17 29  1  0
 20 30  1  0
 20 31  1  0
M  ISO  8  21  13  22  13  23  13  24  13  25  14  26  14  27  14  28   9
M  ISO  1  29  14
M  END
>  <minimizedAffinity>  (1) 
-6.1982398

>  <minimizedRMSD>  (1) 
1.48277402

$$$$
