
     RDKit          3D

 28 30  0  0  1  0  0  0  0  0999 V2000
   36.9140   30.8920   50.6040 C   0  0  1  0  0  0  0  0  0  0  0  0
   36.1260   29.6850   50.5320 C   0  0  2  0  0  0  0  0  0  0  0  0
   37.4810   29.5990   51.2050 C   0  0  0  0  0  0  0  0  0  0  0  0
   37.7280   31.3800   49.4230 C   0  0  0  0  0  0  0  0  0  0  0  0
   38.1710   32.7020   49.4820 C   0  0  0  0  0  0  0  0  0  0  0  0
   38.8920   33.1230   48.3690 C   0  0  0  0  0  0  0  0  0  0  0  0
   39.1270   32.2700   47.3090 N   0  0  0  0  0  0  0  0  0  0  0  0
   38.6690   31.0000   47.3140 C   0  0  0  0  0  0  0  0  0  0  0  0
   37.9560   30.5440   48.3890 N   0  0  0  0  0  0  0  0  0  0  0  0
   36.0140   29.0110   49.3080 O   0  0  0  0  0  0  0  0  0  0  0  0
   35.1160   30.8000   47.3820 F   0  0  0  0  0  0  0  0  0  0  0  0
   34.4650   29.6300   47.6650 C   0  0  0  0  0  0  0  0  0  0  0  0
   34.8780   28.7070   48.6200 C   0  0  0  0  0  0  0  0  0  0  0  0
   34.1010   27.5700   48.7810 C   0  0  0  0  0  0  0  0  0  0  0  0
   32.9590   27.2940   48.0690 C   0  0  0  0  0  0  0  0  0  0  0  0
   32.5890   28.2330   47.1360 C   0  0  0  0  0  0  0  0  0  0  0  0
   33.3160   29.3740   46.9320 C   0  0  0  0  0  0  0  0  0  0  0  0
   36.6441   31.9069   50.9314 H   0  0  0  0  0  0  0  0  0  0  0  0
   35.0893   29.4573   50.8210 H   0  0  0  0  0  0  0  0  0  0  0  0
   38.3157   29.0743   50.7172 H   0  0  0  0  0  0  0  0  0  0  0  0
   37.8670   29.2760   52.1831 H   0  0  0  0  0  0  0  0  0  0  0  0
   37.9664   33.3590   50.3402 H   0  0  0  0  0  0  0  0  0  0  0  0
   39.2808   34.1514   48.3330 H   0  0  0  0  0  0  0  0  0  0  0  0
   38.8677   30.3363   46.4596 H   0  0  0  0  0  0  0  0  0  0  0  0
   34.4225   26.8352   49.5339 H   0  0  0  0  0  0  0  0  0  0  0  0
   32.3756   26.3764   48.2356 H   0  0  0  0  0  0  0  0  0  0  0  0
   31.6828   28.0623   46.5363 H   0  0  0  0  0  0  0  0  0  0  0  0
   32.9839   30.0995   46.1748 H   0  0  0  0  0  0  0  0  0  0  0  0
  1  3  1  0
  2  1  1  0
  2  3  1  0
  4  5  2  0
  4  1  1  0
  6  5  1  0
  7  8  1  0
  7  6  2  0
  8  9  2  0
  9  4  1  0
 10  2  1  0
 11 12  1  0
 12 13  2  0
 13 14  1  0
 13 10  1  0
 15 14  2  0
 16 15  1  0
 17 16  2  0
 17 12  1  0
  1 18  1  1
  2 19  1  1
  3 20  1  0
  3 21  1  0
  5 22  1  0
  6 23  1  0
  8 24  1  0
 14 25  1  0
 15 26  1  0
 16 27  1  0
 17 28  1  0
M  ISO  8  18  13  19  13  20  13  21  13  22  14  23  14  24  14  25  14
M  ISO  3  26  14  27  14  28  14
M  END
>  <minimizedAffinity>  (1) 
-5.56590271

>  <minimizedRMSD>  (1) 
1.48409498

$$$$
