
     RDKit          3D

 28 30  0  0  1  0  0  0  0  0999 V2000
   37.0750   30.7850   50.4690 C   0  0  1  0  0  0  0  0  0  0  0  0
   36.1040   29.7410   50.2410 C   0  0  2  0  0  0  0  0  0  0  0  0
   37.4780   29.3310   50.7300 C   0  0  0  0  0  0  0  0  0  0  0  0
   37.8570   31.3990   49.3260 C   0  0  0  0  0  0  0  0  0  0  0  0
   38.2700   32.7190   49.4990 C   0  0  0  0  0  0  0  0  0  0  0  0
   38.9620   33.2700   48.4320 C   0  0  0  0  0  0  0  0  0  0  0  0
   39.2040   32.5300   47.3010 N   0  0  0  0  0  0  0  0  0  0  0  0
   38.7820   31.2470   47.1780 C   0  0  0  0  0  0  0  0  0  0  0  0
   38.0970   30.6660   48.2060 N   0  0  0  0  0  0  0  0  0  0  0  0
   35.7990   29.3640   48.9240 O   0  0  0  0  0  0  0  0  0  0  0  0
   35.4690   30.1100   46.0720 Cl  0  0  0  0  0  0  0  0  0  0  0  0
   34.3700   29.2220   47.1130 C   0  0  0  0  0  0  0  0  0  0  0  0
   34.6010   28.9120   48.4480 C   0  0  0  0  0  0  0  0  0  0  0  0
   33.6370   28.2080   49.1320 C   0  0  0  0  0  0  0  0  0  0  0  0
   32.4520   27.7890   48.5690 C   0  0  0  0  0  0  0  0  0  0  0  0
   32.2270   28.1020   47.2370 C   0  0  0  0  0  0  0  0  0  0  0  0
   30.7350   27.5900   46.4830 Cl  0  0  0  0  0  0  0  0  0  0  0  0
   33.1770   28.8100   46.5210 C   0  0  0  0  0  0  0  0  0  0  0  0
   36.9951   31.7318   51.0233 H   0  0  0  0  0  0  0  0  0  0  0  0
   35.0697   29.6014   50.5885 H   0  0  0  0  0  0  0  0  0  0  0  0
   38.1801   28.8160   50.0578 H   0  0  0  0  0  0  0  0  0  0  0  0
   37.8848   28.7557   51.5747 H   0  0  0  0  0  0  0  0  0  0  0  0
   38.0611   33.2845   50.4191 H   0  0  0  0  0  0  0  0  0  0  0  0
   39.3202   34.3083   48.4917 H   0  0  0  0  0  0  0  0  0  0  0  0
   38.9897   30.6799   46.2586 H   0  0  0  0  0  0  0  0  0  0  0  0
   33.8233   27.9660   50.1887 H   0  0  0  0  0  0  0  0  0  0  0  0
   31.7105   27.2262   49.1550 H   0  0  0  0  0  0  0  0  0  0  0  0
   32.9869   29.0521   45.4649 H   0  0  0  0  0  0  0  0  0  0  0  0
  1  3  1  0
  2  1  1  0
  2  3  1  0
  4  5  2  0
  4  1  1  0
  6  5  1  0
  7  6  2  0
  8  7  1  0
  8  9  2  0
  9  4  1  0
 10  2  1  0
 11 12  1  0
 12 13  2  0
 13 10  1  0
 13 14  1  0
 15 14  2  0
 16 15  1  0
 17 16  1  0
 18 12  1  0
 18 16  2  0
  1 19  1  1
  2 20  1  1
  3 21  1  0
  3 22  1  0
  5 23  1  0
  6 24  1  0
  8 25  1  0
 14 26  1  0
 15 27  1  0
 18 28  1  0
M  ISO  8  19  13  20  13  21  13  22  13  23  14  24  14  25  14  26  14
M  ISO  2  27  14  28  14
M  END
>  <minimizedAffinity>  (1) 
-5.53551054

>  <minimizedRMSD>  (1) 
1.71463037

$$$$
