
     RDKit          3D

 28 30  0  0  1  0  0  0  0  0999 V2000
   36.9130   30.9590   50.5470 C   0  0  1  0  0  0  0  0  0  0  0  0
   36.1950   29.7030   50.4800 C   0  0  2  0  0  0  0  0  0  0  0  0
   37.5190   29.7190   51.2130 C   0  0  0  0  0  0  0  0  0  0  0  0
   37.7400   31.4420   49.3850 C   0  0  0  0  0  0  0  0  0  0  0  0
   38.2180   32.7500   49.4900 C   0  0  0  0  0  0  0  0  0  0  0  0
   38.9600   33.2080   48.3900 C   0  0  0  0  0  0  0  0  0  0  0  0
   39.1770   32.3850   47.3020 N   0  0  0  0  0  0  0  0  0  0  0  0
   38.6810   31.1180   47.2650 C   0  0  0  0  0  0  0  0  0  0  0  0
   37.9560   30.6510   48.3250 N   0  0  0  0  0  0  0  0  0  0  0  0
   36.1720   28.9950   49.2800 O   0  0  0  0  0  0  0  0  0  0  0  0
   35.0260   28.9500   48.5140 C   0  0  0  0  0  0  0  0  0  0  0  0
   34.5730   29.6870   47.4400 C   0  0  0  0  0  0  0  0  0  0  0  0
   33.3570   29.3990   46.8740 C   0  0  0  0  0  0  0  0  0  0  0  0
   32.5380   28.3810   47.3360 C   0  0  0  0  0  0  0  0  0  0  0  0
   32.9750   27.6320   48.4110 C   0  0  0  0  0  0  0  0  0  0  0  0
   34.2090   27.9200   48.9900 C   0  0  0  0  0  0  0  0  0  0  0  0
   36.5790   31.9675   50.8322 H   0  0  0  0  0  0  0  0  0  0  0  0
   35.1621   29.4210   50.7322 H   0  0  0  0  0  0  0  0  0  0  0  0
   38.4032   29.2282   50.7802 H   0  0  0  0  0  0  0  0  0  0  0  0
   37.8761   29.4492   52.2178 H   0  0  0  0  0  0  0  0  0  0  0  0
   38.0264   33.3774   50.3730 H   0  0  0  0  0  0  0  0  0  0  0  0
   39.3711   34.2283   48.3944 H   0  0  0  0  0  0  0  0  0  0  0  0
   38.8620   30.4762   46.3902 H   0  0  0  0  0  0  0  0  0  0  0  0
   35.1869   30.5060   47.0371 H   0  0  0  0  0  0  0  0  0  0  0  0
   33.0180   30.0010   46.0180 H   0  0  0  0  0  0  0  0  0  0  0  0
   31.5678   28.1754   46.8602 H   0  0  0  0  0  0  0  0  0  0  0  0
   32.3539   26.8149   48.8067 H   0  0  0  0  0  0  0  0  0  0  0  0
   34.5504   27.3198   49.8463 H   0  0  0  0  0  0  0  0  0  0  0  0
  1  3  1  0
  2  1  1  0
  2  3  1  0
  4  5  2  0
  4  1  1  0
  6  5  1  0
  7  6  2  0
  8  7  1  0
  8  9  2  0
  9  4  1  0
 10  2  1  0
 11 16  1  0
 11 10  1  0
 12 11  2  0
 13 14  2  0
 13 12  1  0
 14 15  1  0
 15 16  2  0
  1 17  1  1
  2 18  1  1
  3 19  1  0
  3 20  1  0
  5 21  1  0
  6 22  1  0
  8 23  1  0
 12 24  1  0
 13 25  1  0
 14 26  1  0
 15 27  1  0
 16 28  1  0
M  ISO  8  17  13  18  13  19  13  20  13  21  14  22  14  23  14  24  14
M  ISO  4  25  14  26  14  27  14  28  14
M  END
>  <minimizedAffinity>  (1) 
-5.51397562

>  <minimizedRMSD>  (1) 
1.97347152

$$$$
