
     RDKit          3D

 27 29  0  0  1  0  0  0  0  0999 V2000
   36.9090   30.9340   50.5670 C   0  0  1  0  0  0  0  0  0  0  0  0
   36.1550   29.7030   50.5020 C   0  0  2  0  0  0  0  0  0  0  0  0
   37.4990   29.6720   51.1990 C   0  0  0  0  0  0  0  0  0  0  0  0
   37.7240   31.4160   49.3950 C   0  0  0  0  0  0  0  0  0  0  0  0
   38.2200   32.7160   49.4860 C   0  0  0  0  0  0  0  0  0  0  0  0
   38.9500   33.1520   48.3710 C   0  0  0  0  0  0  0  0  0  0  0  0
   39.1420   32.3250   47.2830 N   0  0  0  0  0  0  0  0  0  0  0  0
   38.6310   31.0670   47.2600 C   0  0  0  0  0  0  0  0  0  0  0  0
   37.9170   30.6150   48.3290 N   0  0  0  0  0  0  0  0  0  0  0  0
   36.1000   28.9970   49.2880 O   0  0  0  0  0  0  0  0  0  0  0  0
   34.9540   28.8830   48.5190 C   0  0  0  0  0  0  0  0  0  0  0  0
   34.0320   27.9960   49.0660 C   0  0  0  0  0  0  0  0  0  0  0  0
   32.8290   27.7850   48.3920 C   0  0  0  0  0  0  0  0  0  0  0  0
   32.5570   28.4320   47.2230 C   0  0  0  0  0  0  0  0  0  0  0  0
   33.5060   29.2980   46.7320 C   0  0  0  0  0  0  0  0  0  0  0  0
   34.6750   29.5190   47.3630 N   0  0  0  0  0  0  0  0  0  0  0  0
   36.6069   31.9466   50.8727 H   0  0  0  0  0  0  0  0  0  0  0  0
   35.1184   29.4540   50.7732 H   0  0  0  0  0  0  0  0  0  0  0  0
   38.3574   29.1637   50.7356 H   0  0  0  0  0  0  0  0  0  0  0  0
   37.8762   29.3787   52.1898 H   0  0  0  0  0  0  0  0  0  0  0  0
   38.0511   33.3524   50.3672 H   0  0  0  0  0  0  0  0  0  0  0  0
   39.3752   34.1665   48.3634 H   0  0  0  0  0  0  0  0  0  0  0  0
   38.7920   30.4186   46.3861 H   0  0  0  0  0  0  0  0  0  0  0  0
   34.2470   27.4726   50.0093 H   0  0  0  0  0  0  0  0  0  0  0  0
   32.0890   27.0865   48.8097 H   0  0  0  0  0  0  0  0  0  0  0  0
   31.6092   28.2667   46.6898 H   0  0  0  0  0  0  0  0  0  0  0  0
   33.3029   29.8290   45.7903 H   0  0  0  0  0  0  0  0  0  0  0  0
  1  3  1  0
  2  1  1  0
  2  3  1  0
  4  5  2  0
  4  1  1  0
  6  5  1  0
  7  6  2  0
  8  7  1  0
  8  9  2  0
  9  4  1  0
 10  2  1  0
 11 12  2  0
 11 10  1  0
 13 12  1  0
 14 13  2  0
 15 14  1  0
 15 16  2  0
 16 11  1  0
  1 17  1  1
  2 18  1  1
  3 19  1  0
  3 20  1  0
  5 21  1  0
  6 22  1  0
  8 23  1  0
 12 24  1  0
 13 25  1  0
 14 26  1  0
 15 27  1  0
M  ISO  8  17  13  18  13  19  13  20  13  21  14  22  14  23  14  24  14
M  ISO  3  25  14  26  14  27  14
M  END
>  <minimizedAffinity>  (1) 
-5.35107279

>  <minimizedRMSD>  (1) 
1.6892966

$$$$
