
     RDKit          3D

 26 28  0  0  1  0  0  0  0  0999 V2000
   36.9060   30.9310   50.5560 C   0  0  1  0  0  0  0  0  0  0  0  0
   36.1660   29.6910   50.4900 C   0  0  2  0  0  0  0  0  0  0  0  0
   37.4970   29.6760   51.2000 C   0  0  0  0  0  0  0  0  0  0  0  0
   37.7270   31.4210   49.3870 C   0  0  0  0  0  0  0  0  0  0  0  0
   38.2190   32.7240   49.4780 C   0  0  0  0  0  0  0  0  0  0  0  0
   38.9480   33.1560   48.3710 C   0  0  0  0  0  0  0  0  0  0  0  0
   39.1460   32.3310   47.2890 N   0  0  0  0  0  0  0  0  0  0  0  0
   38.6430   31.0770   47.2560 C   0  0  0  0  0  0  0  0  0  0  0  0
   37.9240   30.6100   48.3180 N   0  0  0  0  0  0  0  0  0  0  0  0
   36.0910   28.9990   49.2720 O   0  0  0  0  0  0  0  0  0  0  0  0
   34.8860   28.8930   48.5550 C   0  0  0  0  0  0  0  0  0  0  0  0
   34.0000   27.8970   48.9670 C   0  0  0  0  0  0  0  0  0  0  0  0
   32.8400   27.8740   48.1970 C   0  0  0  0  0  0  0  0  0  0  0  0
   32.5390   28.6780   47.1690 N   0  0  0  0  0  0  0  0  0  0  0  0
   33.4640   29.6150   46.8450 C   0  0  0  0  0  0  0  0  0  0  0  0
   34.6190   29.7210   47.5260 N   0  0  0  0  0  0  0  0  0  0  0  0
   36.5935   31.9427   50.8539 H   0  0  0  0  0  0  0  0  0  0  0  0
   35.1352   29.4184   50.7606 H   0  0  0  0  0  0  0  0  0  0  0  0
   38.3650   29.1727   50.7491 H   0  0  0  0  0  0  0  0  0  0  0  0
   37.8643   29.3904   52.1968 H   0  0  0  0  0  0  0  0  0  0  0  0
   38.0447   33.3620   50.3570 H   0  0  0  0  0  0  0  0  0  0  0  0
   39.3709   34.1714   48.3630 H   0  0  0  0  0  0  0  0  0  0  0  0
   38.8122   30.4362   46.3780 H   0  0  0  0  0  0  0  0  0  0  0  0
   34.1952   27.2095   49.8032 H   0  0  0  0  0  0  0  0  0  0  0  0
   32.0903   27.1138   48.4615 H   0  0  0  0  0  0  0  0  0  0  0  0
   33.2659   30.3018   46.0089 H   0  0  0  0  0  0  0  0  0  0  0  0
  1  3  1  0
  2  1  1  0
  2  3  1  0
  4  5  2  0
  4  1  1  0
  6  5  1  0
  7  6  2  0
  8  7  1  0
  8  9  2  0
  9  4  1  0
 10  2  1  0
 11 12  2  0
 11 10  1  0
 13 12  1  0
 14 13  2  0
 15 14  1  0
 15 16  2  0
 16 11  1  0
  1 17  1  1
  2 18  1  1
  3 19  1  0
  3 20  1  0
  5 21  1  0
  6 22  1  0
  8 23  1  0
 12 24  1  0
 13 25  1  0
 15 26  1  0
M  ISO  8  17  13  18  13  19  13  20  13  21  14  22  14  23  14  24  14
M  ISO  2  25  14  26  14
M  END
>  <minimizedAffinity>  (1) 
-5.26937866

>  <minimizedRMSD>  (1) 
1.68419909

$$$$
