
     RDKit          3D

 21 22  0  0  1  0  0  0  0  0999 V2000
   36.9260   30.8700   50.6850 C   0  0  1  0  0  0  0  0  0  0  0  0
   36.1980   29.6230   50.7440 C   0  0  2  0  0  0  0  0  0  0  0  0
   37.5680   29.6700   51.3910 C   0  0  0  0  0  0  0  0  0  0  0  0
   37.6780   31.2810   49.4480 C   0  0  0  0  0  0  0  0  0  0  0  0
   38.2210   32.5650   49.4640 C   0  0  0  0  0  0  0  0  0  0  0  0
   38.8950   32.9510   48.2930 C   0  0  0  0  0  0  0  0  0  0  0  0
   38.9790   32.0780   47.2340 N   0  0  0  0  0  0  0  0  0  0  0  0
   38.4300   30.8370   47.2770 C   0  0  0  0  0  0  0  0  0  0  0  0
   37.7710   30.4360   48.4010 N   0  0  0  0  0  0  0  0  0  0  0  0
   36.1290   28.8140   49.5990 O   0  0  0  0  0  0  0  0  0  0  0  0
   34.7920   28.7060   49.1870 C   0  0  0  0  0  0  0  0  0  0  0  0
   34.6720   29.4030   47.9920 F   0  0  0  0  0  0  0  0  0  0  0  0
   34.4880   27.3820   48.9990 F   0  0  0  0  0  0  0  0  0  0  0  0
   33.9390   29.2860   50.1250 F   0  0  0  0  0  0  0  0  0  0  0  0
   36.6155   31.8976   50.9251 H   0  0  0  0  0  0  0  0  0  0  0  0
   35.1743   29.3837   51.0678 H   0  0  0  0  0  0  0  0  0  0  0  0
   38.4198   29.1434   50.9358 H   0  0  0  0  0  0  0  0  0  0  0  0
   37.9873   29.4612   52.3863 H   0  0  0  0  0  0  0  0  0  0  0  0
   38.1281   33.2310   50.3346 H   0  0  0  0  0  0  0  0  0  0  0  0
   39.3539   33.9483   48.2237 H   0  0  0  0  0  0  0  0  0  0  0  0
   38.5161   30.1615   46.4131 H   0  0  0  0  0  0  0  0  0  0  0  0
  1  2  1  0
  1  3  1  0
  2  3  1  0
  4  5  2  0
  4  1  1  0
  6  5  1  0
  7  8  1  0
  7  6  2  0
  8  9  2  0
  9  4  1  0
 10  2  1  0
 11 10  1  0
 11 14  1  0
 12 11  1  0
 13 11  1  0
  1 15  1  1
  2 16  1  1
  3 17  1  0
  3 18  1  0
  5 19  1  0
  6 20  1  0
  8 21  1  0
M  ISO  7  15  13  16  13  17  13  18  13  19  14  20  14  21  14
M  END
>  <minimizedAffinity>  (1) 
-5.10460329

>  <minimizedRMSD>  (1) 
0.891526461

$$$$
