
     RDKit          3D

 43 47  0  0  1  0  0  0  0  0999 V2000
   37.9280   30.8640   45.8520 C   0  0  0  0  0  0  0  0  0  0  0  0
   36.7180   30.4460   45.3300 C   0  0  0  0  0  0  0  0  0  0  0  0
   36.6970   29.9190   44.0510 C   0  0  0  0  0  0  0  0  0  0  0  0
   37.8630   29.8100   43.3080 C   0  0  0  0  0  0  0  0  0  0  0  0
   39.0540   30.2480   43.8900 C   0  0  0  0  0  0  0  0  0  0  0  0
   39.1290   30.7830   45.1680 C   0  0  0  0  0  0  0  0  0  0  0  0
   40.5930   30.1370   42.9920 S   0  0  0  0  0  0  0  0  0  0  0  0
   40.2170   29.4220   41.4000 C   0  0  0  0  0  0  0  0  0  0  0  0
   41.2890   29.2510   40.5470 C   0  0  0  0  0  0  0  0  0  0  0  0
   41.0660   28.7040   39.3020 C   0  0  0  0  0  0  0  0  0  0  0  0
   39.7640   28.3580   38.9940 C   0  0  0  0  0  0  0  0  0  0  0  0
   38.7000   28.5340   39.8540 C   0  0  0  0  0  0  0  0  0  0  0  0
   38.9080   29.0880   41.1230 C   0  0  0  0  0  0  0  0  0  0  0  0
   37.8360   29.2680   41.9980 N   0  0  0  0  0  0  0  0  0  0  0  0
   37.5090   31.4650   49.4870 C   0  0  0  0  0  0  0  0  0  0  0  0
   38.2560   32.6010   49.7410 C   0  0  0  0  0  0  0  0  0  0  0  0
   38.9020   33.1360   48.5980 C   0  0  0  0  0  0  0  0  0  0  0  0
   38.7640   32.5380   47.3660 N   0  0  0  0  0  0  0  0  0  0  0  0
   38.0170   31.4300   47.1990 C   0  0  0  0  0  0  0  0  0  0  0  0
   37.3770   30.8800   48.2700 N   0  0  0  0  0  0  0  0  0  0  0  0
   36.7810   30.9020   50.6660 C   0  0  1  0  0  0  0  0  0  0  0  0
   36.0720   29.6230   50.6010 C   0  0  2  0  0  0  0  0  0  0  0  0
   37.4450   29.6170   51.1990 C   0  0  0  0  0  0  0  0  0  0  0  0
   35.8810   29.0720   49.3420 O   0  0  0  0  0  0  0  0  0  0  0  0
   34.7310   28.8150   48.6690 C   0  0  0  0  0  0  0  0  0  0  0  0
   34.3090   27.6540   48.4910 O   0  0  0  0  0  0  0  0  0  0  0  0
   34.1850   30.0320   48.2580 N   0  0  0  0  0  0  0  0  0  0  0  0
   35.7925   30.5306   45.9185 H   0  0  0  0  0  0  0  0  0  0  0  0
   35.7436   29.5822   43.6179 H   0  0  0  0  0  0  0  0  0  0  0  0
   40.0790   31.1202   45.6082 H   0  0  0  0  0  0  0  0  0  0  0  0
   42.3028   29.5460   40.8556 H   0  0  0  0  0  0  0  0  0  0  0  0
   41.8868   28.5498   38.5861 H   0  0  0  0  0  0  0  0  0  0  0  0
   39.5647   27.9169   38.0062 H   0  0  0  0  0  0  0  0  0  0  0  0
   37.6871   28.2388   39.5426 H   0  0  0  0  0  0  0  0  0  0  0  0
   36.9131   28.9711   41.6501 H   0  0  0  0  0  0  0  0  0  0  0  0
   38.3413   33.0498   50.7416 H   0  0  0  0  0  0  0  0  0  0  0  0
   39.5210   34.0399   48.6970 H   0  0  0  0  0  0  0  0  0  0  0  0
   36.4595   31.8899   51.0274 H   0  0  0  0  0  0  0  0  0  0  0  0
   35.0977   29.2585   50.9586 H   0  0  0  0  0  0  0  0  0  0  0  0
   38.2860   29.1592   50.6575 H   0  0  0  0  0  0  0  0  0  0  0  0
   37.8931   29.2931   52.1499 H   0  0  0  0  0  0  0  0  0  0  0  0
   33.3025   30.0474   47.7270 H   0  0  0  0  0  0  0  0  0  0  0  0
   34.6645   30.9147   48.4857 H   0  0  0  0  0  0  0  0  0  0  0  0
  1 19  1  0
  2  1  2  0
  3  2  1  0
  4  5  1  0
  4  3  2  0
  5  6  2  0
  6  1  1  0
  7  5  1  0
  8  7  1  0
  9  8  2  0
 10  9  1  0
 11 10  2  0
 11 12  1  0
 12 13  2  0
 13  8  1  0
 13 14  1  0
 14  4  1  0
 15 16  2  0
 15 21  1  0
 17 16  1  0
 18 17  2  0
 19 18  1  0
 19 20  2  0
 20 15  1  0
 21 23  1  0
 22 21  1  0
 22 23  1  0
 24 22  1  0
 25 24  1  0
 26 25  2  0
 27 25  1  0
  2 28  1  0
  3 29  1  0
  6 30  1  0
  9 31  1  0
 10 32  1  0
 11 33  1  0
 12 34  1  0
 14 35  1  0
 16 36  1  0
 17 37  1  0
 21 38  1  1
 22 39  1  1
 23 40  1  0
 23 41  1  0
 27 42  1  0
 27 43  1  0
M  ISO  8  28  14  29  14  30  14  31  14  32  14  33  14  34  14  36  14
M  ISO  5  37  14  38  13  39  13  40  13  41  13
M  END
>  <minimizedAffinity>  (1) 
-6.40523958

>  <minimizedRMSD>  (1) 
2.58155966

$$$$
