
     RDKit          3D

 42 45  0  0  1  0  0  0  0  0999 V2000
   37.6960   31.4080   49.3950 C   0  0  0  0  0  0  0  0  0  0  0  0
   38.2200   32.6790   49.5940 C   0  0  0  0  0  0  0  0  0  0  0  0
   38.9230   33.1950   48.4890 C   0  0  0  0  0  0  0  0  0  0  0  0
   39.0550   32.4710   47.3360 N   0  0  0  0  0  0  0  0  0  0  0  0
   38.5220   31.2330   47.1930 C   0  0  0  0  0  0  0  0  0  0  0  0
   37.8310   30.6990   48.2510 N   0  0  0  0  0  0  0  0  0  0  0  0
   36.9180   30.8360   50.5400 C   0  0  1  0  0  0  0  0  0  0  0  0
   36.1110   29.6250   50.3970 C   0  0  2  0  0  0  0  0  0  0  0  0
   37.4720   29.4770   51.0030 C   0  0  0  0  0  0  0  0  0  0  0  0
   35.8860   29.1620   49.1090 O   0  0  0  0  0  0  0  0  0  0  0  0
   34.7220   28.9440   48.4490 C   0  0  0  0  0  0  0  0  0  0  0  0
   34.3330   27.7950   48.1450 O   0  0  0  0  0  0  0  0  0  0  0  0
   34.1210   30.1830   48.2120 N   0  0  0  0  0  0  0  0  0  0  0  0
   38.7040   30.4990   45.9070 C   0  0  0  0  0  0  0  0  0  0  0  0
   37.7980   31.0090   44.8550 C   0  0  0  0  0  0  0  0  0  0  0  0
   38.0770   31.9690   43.9970 C   0  0  0  0  0  0  0  0  0  0  0  0
   37.2490   32.4970   42.9740 N   0  0  0  0  0  0  0  0  0  0  0  0
   37.0850   33.2250   41.7660 C   0  0  0  0  0  0  0  0  0  0  0  0
   37.7550   34.1330   41.2420 O   0  0  0  0  0  0  0  0  0  0  0  0
   35.8590   32.4340   41.5010 C   0  0  0  0  0  0  0  0  0  0  0  0
   35.8210   32.3020   43.0070 C   0  0  1  0  0  0  0  0  0  0  0  0
   35.3960   30.6780   43.6230 S   0  0  0  0  0  0  0  0  0  0  0  0
   36.5350   30.2410   44.9570 C   0  0  0  0  0  0  0  0  0  0  0  0
   39.3960   32.5710   44.1090 C   0  0  0  0  0  0  0  0  0  0  0  0
   39.7890   33.5270   43.3800 O   0  0  0  0  0  0  0  0  0  0  0  0
   40.6850   32.9740   44.3960 O   0  0  0  0  0  0  0  0  0  0  0  0
   38.0961   33.2350   50.5350 H   0  0  0  0  0  0  0  0  0  0  0  0
   39.3734   34.1965   48.5538 H   0  0  0  0  0  0  0  0  0  0  0  0
   36.6745   31.8242   50.9573 H   0  0  0  0  0  0  0  0  0  0  0  0
   35.1070   29.3192   50.7263 H   0  0  0  0  0  0  0  0  0  0  0  0
   38.2805   28.9852   50.4422 H   0  0  0  0  0  0  0  0  0  0  0  0
   37.8824   29.0659   51.9371 H   0  0  0  0  0  0  0  0  0  0  0  0
   33.2189   30.2316   47.7172 H   0  0  0  0  0  0  0  0  0  0  0  0
   34.5801   31.0477   48.5321 H   0  0  0  0  0  0  0  0  0  0  0  0
   39.7445   30.6201   45.5712 H   0  0  0  0  0  0  0  0  0  0  0  0
   38.4673   29.4388   46.0800 H   0  0  0  0  0  0  0  0  0  0  0  0
   35.0233   32.9920   41.0536 H   0  0  0  0  0  0  0  0  0  0  0  0
   35.8214   31.5778   40.8114 H   0  0  0  0  0  0  0  0  0  0  0  0
   35.1291   32.9117   43.6066 H   0  0  0  0  0  0  0  0  0  0  0  0
   36.7625   29.1664   44.8972 H   0  0  0  0  0  0  0  0  0  0  0  0
   36.0564   30.4828   45.9174 H   0  0  0  0  0  0  0  0  0  0  0  0
   41.0934   33.7222   43.8925 H   0  0  0  0  0  0  0  0  0  0  0  0
  1  2  2  0
  1  7  1  0
  3  2  1  0
  4  3  2  0
  5  4  1  0
  5  6  2  0
  6  1  1  0
  7  9  1  0
  8  7  1  0
  8  9  1  0
 10  8  1  0
 11 10  1  0
 12 11  2  0
 13 11  1  0
 14  5  1  0
 15 23  1  0
 15 14  1  0
 16 24  1  0
 16 15  2  0
 17 21  1  0
 17 16  1  0
 18 17  1  0
 19 18  2  0
 20 18  1  0
 21 20  1  0
 21 22  1  0
 22 23  1  0
 24 26  1  0
 25 24  2  0
  2 27  1  0
  3 28  1  0
  7 29  1  1
  8 30  1  1
  9 31  1  0
  9 32  1  0
 13 33  1  0
 13 34  1  0
 14 35  1  0
 14 36  1  0
 20 37  1  0
 20 38  1  0
 21 39  1  1
 23 40  1  0
 23 41  1  0
 26 42  1  0
M  ISO  8  27  14  28  14  29  13  30  13  31  13  32  13  35   8  36   8
M  ISO  6  37  13  38  13  39  13  40  13  41  13  42   3
M  END
>  <minimizedAffinity>  (1) 
-6.17366791

>  <minimizedRMSD>  (1) 
2.15915775

$$$$
