
     RDKit          3D

 31 33  0  0  1  0  0  0  0  0999 V2000
   36.9560   31.3320   49.3330 C   0  0  0  0  0  0  0  0  0  0  0  0
   37.1600   32.5040   50.0400 C   0  0  0  0  0  0  0  0  0  0  0  0
   38.0920   33.3880   49.4450 C   0  0  0  0  0  0  0  0  0  0  0  0
   38.7110   33.0690   48.2690 N   0  0  0  0  0  0  0  0  0  0  0  0
   38.4620   31.8960   47.6260 C   0  0  0  0  0  0  0  0  0  0  0  0
   37.5760   31.0190   48.1620 N   0  0  0  0  0  0  0  0  0  0  0  0
   39.1290   31.5600   46.3690 C   0  0  0  0  0  0  0  0  0  0  0  0
   40.0990   32.4370   45.8960 C   0  0  0  0  0  0  0  0  0  0  0  0
   40.6870   32.0400   44.6870 C   0  0  0  0  0  0  0  0  0  0  0  0
   40.3450   30.8850   44.0140 C   0  0  0  0  0  0  0  0  0  0  0  0
   39.3730   30.0630   44.5440 C   0  0  0  0  0  0  0  0  0  0  0  0
   38.8010   30.4340   45.7060 N   0  0  0  0  0  0  0  0  0  0  0  0
   35.9560   30.3890   49.9250 C   0  0  1  0  0  0  0  0  0  0  0  0
   34.8160   29.8900   49.1570 C   0  0  2  0  0  0  0  0  0  0  0  0
   36.0150   28.9970   49.2610 C   0  0  0  0  0  0  0  0  0  0  0  0
   34.5490   30.5130   47.9450 O   0  0  0  0  0  0  0  0  0  0  0  0
   33.8240   30.0720   46.8880 C   0  0  0  0  0  0  0  0  0  0  0  0
   34.0310   28.9630   46.3530 O   0  0  0  0  0  0  0  0  0  0  0  0
   32.8830   31.0500   46.5640 N   0  0  0  0  0  0  0  0  0  0  0  0
   36.6421   32.7295   50.9839 H   0  0  0  0  0  0  0  0  0  0  0  0
   38.3212   34.3452   49.9361 H   0  0  0  0  0  0  0  0  0  0  0  0
   40.3800   33.3603   46.4237 H   0  0  0  0  0  0  0  0  0  0  0  0
   41.4640   32.6849   44.2507 H   0  0  0  0  0  0  0  0  0  0  0  0
   40.8410   30.6235   43.0676 H   0  0  0  0  0  0  0  0  0  0  0  0
   39.0744   29.1348   44.0348 H   0  0  0  0  0  0  0  0  0  0  0  0
   36.0102   30.8430   50.9255 H   0  0  0  0  0  0  0  0  0  0  0  0
   33.7475   29.7406   49.3713 H   0  0  0  0  0  0  0  0  0  0  0  0
   35.9787   28.0850   49.8750 H   0  0  0  0  0  0  0  0  0  0  0  0
   36.6843   28.4834   48.5551 H   0  0  0  0  0  0  0  0  0  0  0  0
   32.2320   30.8987   45.7803 H   0  0  0  0  0  0  0  0  0  0  0  0
   32.8394   31.9232   47.1085 H   0  0  0  0  0  0  0  0  0  0  0  0
  1 13  1  0
  1  2  2  0
  3  2  1  0
  4  3  2  0
  5  6  2  0
  5  4  1  0
  6  1  1  0
  7  5  1  0
  8  7  2  0
  9  8  1  0
 10 11  1  0
 10  9  2  0
 11 12  2  0
 12  7  1  0
 14 15  1  0
 14 13  1  0
 15 13  1  0
 16 14  1  0
 17 16  1  0
 18 17  2  0
 19 17  1  0
  2 20  1  0
  3 21  1  0
  8 22  1  0
  9 23  1  0
 10 24  1  0
 11 25  1  0
 13 26  1  1
 14 27  1  1
 15 28  1  0
 15 29  1  0
 19 30  1  0
 19 31  1  0
M  ISO  8  20  14  21  14  22  14  23  14  24  14  25  14  26  13  27  13
M  ISO  2  28  13  29  13
M  END
>  <minimizedAffinity>  (1) 
-6.08106184

>  <minimizedRMSD>  (1) 
2.79938507

$$$$
