
     RDKit          3D

 35 37  0  0  1  0  0  0  0  0999 V2000
   38.0180   31.1380   49.7560 C   0  0  0  0  0  0  0  0  0  0  0  0
   38.3470   32.4730   49.8880 C   0  0  0  0  0  0  0  0  0  0  0  0
   38.5130   33.1720   48.6950 C   0  0  0  0  0  0  0  0  0  0  0  0
   38.3470   32.5250   47.4900 N   0  0  0  0  0  0  0  0  0  0  0  0
   38.0260   31.2190   47.4330 C   0  0  0  0  0  0  0  0  0  0  0  0
   37.8560   30.4980   48.5660 N   0  0  0  0  0  0  0  0  0  0  0  0
   38.8510   31.2700   44.9960 C   0  0  0  0  0  0  0  0  0  0  0  0
   37.9670   31.0400   46.0090 C   0  0  0  0  0  0  0  0  0  0  0  0
   36.7070   30.5200   45.6920 C   0  0  0  0  0  0  0  0  0  0  0  0
   36.4270   30.2650   44.3440 C   0  0  0  0  0  0  0  0  0  0  0  0
   37.3860   30.5310   43.3930 C   0  0  0  0  0  0  0  0  0  0  0  0
   38.6330   31.0400   43.6610 C   0  0  0  0  0  0  0  0  0  0  0  0
   40.3570   31.9450   45.5790 S   0  0  0  0  0  0  0  0  0  0  0  0
   40.5860   33.1720   44.6990 O   0  0  0  0  0  0  0  0  0  0  0  0
   41.4860   30.9960   45.4620 O   0  0  0  0  0  0  0  0  0  0  0  0
   37.7890   30.3890   51.0350 C   0  0  1  0  0  0  0  0  0  0  0  0
   36.5430   29.6690   51.2930 C   0  0  2  0  0  0  0  0  0  0  0  0
   37.7110   28.8640   50.8120 C   0  0  0  0  0  0  0  0  0  0  0  0
   35.4810   29.9060   50.4330 O   0  0  0  0  0  0  0  0  0  0  0  0
   34.4690   29.0810   50.0640 C   0  0  0  0  0  0  0  0  0  0  0  0
   34.6730   28.0370   49.4230 O   0  0  0  0  0  0  0  0  0  0  0  0
   33.2650   29.6180   50.5180 N   0  0  0  0  0  0  0  0  0  0  0  0
   38.4698   32.9523   50.8704 H   0  0  0  0  0  0  0  0  0  0  0  0
   38.7764   34.2398   48.7147 H   0  0  0  0  0  0  0  0  0  0  0  0
   35.9617   30.3184   46.4755 H   0  0  0  0  0  0  0  0  0  0  0  0
   35.4498   29.8559   44.0477 H   0  0  0  0  0  0  0  0  0  0  0  0
   37.1355   30.3207   42.3428 H   0  0  0  0  0  0  0  0  0  0  0  0
   39.3830   31.2432   42.8824 H   0  0  0  0  0  0  0  0  0  0  0  0
   40.2860   32.2470   46.9134 H   0  0  0  0  0  0  0  0  0  0  0  0
   38.3454   31.1168   51.6438 H   0  0  0  0  0  0  0  0  0  0  0  0
   35.8718   29.5714   52.1590 H   0  0  0  0  0  0  0  0  0  0  0  0
   37.7197   28.4489   49.7934 H   0  0  0  0  0  0  0  0  0  0  0  0
   38.2651   27.9820   51.1656 H   0  0  0  0  0  0  0  0  0  0  0  0
   32.3791   29.1270   50.3310 H   0  0  0  0  0  0  0  0  0  0  0  0
   33.2615   30.5057   51.0404 H   0  0  0  0  0  0  0  0  0  0  0  0
  1  2  2  0
  1 16  1  0
  3  2  1  0
  4  3  2  0
  5  4  1  0
  5  6  2  0
  6  1  1  0
  7 13  1  0
  7  8  2  0
  8  5  1  0
  9  8  1  0
 10  9  2  0
 11 12  2  0
 11 10  1  0
 12  7  1  0
 14 13  2  0
 15 13  2  0
 16 17  1  0
 18 16  1  0
 18 17  1  0
 19 17  1  0
 20 19  1  0
 20 22  1  0
 21 20  2  0
  2 23  1  0
  3 24  1  0
  9 25  1  0
 10 26  1  0
 11 27  1  0
 12 28  1  0
 13 29  1  0
 16 30  1  1
 17 31  1  1
 18 32  1  0
 18 33  1  0
 22 34  1  0
 22 35  1  0
M  ISO  8  23  14  24  14  25  14  26  14  27  14  28  14  29  11  30  13
M  ISO  3  31  13  32  13  33  13
M  END
>  <minimizedAffinity>  (1) 
-5.97522879

>  <minimizedRMSD>  (1) 
1.79742825

$$$$
