
     RDKit          3D

 28 29  0  0  1  0  0  0  0  0999 V2000
   37.7330   31.3340   49.4670 C   0  0  0  0  0  0  0  0  0  0  0  0
   38.1960   32.6120   49.7280 C   0  0  0  0  0  0  0  0  0  0  0  0
   38.8790   33.2130   48.6530 C   0  0  0  0  0  0  0  0  0  0  0  0
   39.0530   32.5530   47.4600 N   0  0  0  0  0  0  0  0  0  0  0  0
   38.5750   31.2990   47.2670 C   0  0  0  0  0  0  0  0  0  0  0  0
   37.9050   30.6830   48.2880 N   0  0  0  0  0  0  0  0  0  0  0  0
   36.9810   30.6690   50.5770 C   0  0  1  0  0  0  0  0  0  0  0  0
   36.1670   29.4760   50.3540 C   0  0  2  0  0  0  0  0  0  0  0  0
   37.5470   29.2680   50.8920 C   0  0  0  0  0  0  0  0  0  0  0  0
   35.8940   29.1330   49.0370 O   0  0  0  0  0  0  0  0  0  0  0  0
   34.7000   28.9750   48.4160 C   0  0  0  0  0  0  0  0  0  0  0  0
   34.2720   27.8540   48.0660 O   0  0  0  0  0  0  0  0  0  0  0  0
   34.1110   30.2320   48.2690 N   0  0  0  0  0  0  0  0  0  0  0  0
   38.7320   30.6110   46.0840 O   0  0  0  0  0  0  0  0  0  0  0  0
   36.8260   30.3910   44.2370 O   0  0  0  0  0  0  0  0  0  0  0  0
   38.0700   31.1790   44.6270 P   0  0  0  0  0  0  0  0  0  0  0  0
   39.2300   31.1270   43.4120 O   0  0  0  0  0  0  0  0  0  0  0  0
   37.5610   32.7920   44.8780 O   0  0  0  0  0  0  0  0  0  0  0  0
   38.0433   33.1158   50.6938 H   0  0  0  0  0  0  0  0  0  0  0  0
   39.2809   34.2302   48.7704 H   0  0  0  0  0  0  0  0  0  0  0  0
   36.7501   31.6156   51.0875 H   0  0  0  0  0  0  0  0  0  0  0  0
   35.1744   29.1432   50.6917 H   0  0  0  0  0  0  0  0  0  0  0  0
   38.3315   28.8289   50.2582 H   0  0  0  0  0  0  0  0  0  0  0  0
   37.9896   28.7706   51.7676 H   0  0  0  0  0  0  0  0  0  0  0  0
   33.1905   30.3195   47.8152 H   0  0  0  0  0  0  0  0  0  0  0  0
   34.5969   31.0720   48.6143 H   0  0  0  0  0  0  0  0  0  0  0  0
   40.1319   31.0866   43.8183 H   0  0  0  0  0  0  0  0  0  0  0  0
   37.5040   32.9726   45.8497 H   0  0  0  0  0  0  0  0  0  0  0  0
  1  2  2  0
  1  7  1  0
  3  2  1  0
  4  3  2  0
  5  4  1  0
  5  6  2  0
  6  1  1  0
  7  9  1  0
  8  7  1  0
  8  9  1  0
 10  8  1  0
 11 10  1  0
 12 11  2  0
 13 11  1  0
 14  5  1  0
 15 16  2  0
 16 18  1  0
 16 14  1  0
 17 16  1  0
  2 19  1  0
  3 20  1  0
  7 21  1  1
  8 22  1  1
  9 23  1  0
  9 24  1  0
 13 25  1  0
 13 26  1  0
 17 27  1  0
 18 28  1  0
M  ISO  8  19  14  20  14  21  13  22  13  23  13  24  13  27   3  28   3
M  END
>  <minimizedAffinity>  (1) 
-5.41548109

>  <minimizedRMSD>  (1) 
1.52403986

$$$$
