
     RDKit          3D

 25 26  0  0  1  0  0  0  0  0999 V2000
   37.0560   30.7860   50.4780 C   0  0  1  0  0  0  0  0  0  0  0  0
   36.1580   29.6970   50.0900 C   0  0  2  0  0  0  0  0  0  0  0  0
   37.5150   29.3200   50.5910 C   0  0  0  0  0  0  0  0  0  0  0  0
   37.8510   31.5510   49.4670 C   0  0  0  0  0  0  0  0  0  0  0  0
   38.1540   32.8570   49.8050 C   0  0  0  0  0  0  0  0  0  0  0  0
   38.8840   33.5610   48.8160 C   0  0  0  0  0  0  0  0  0  0  0  0
   39.2340   32.9510   47.6370 N   0  0  0  0  0  0  0  0  0  0  0  0
   38.9060   31.6690   47.3670 C   0  0  0  0  0  0  0  0  0  0  0  0
   38.2030   30.9580   48.2970 N   0  0  0  0  0  0  0  0  0  0  0  0
   39.3270   31.0900   46.0650 C   0  0  0  0  0  0  0  0  0  0  0  0
   38.5680   29.9610   45.8420 F   0  0  0  0  0  0  0  0  0  0  0  0
   39.0700   32.0160   45.0540 F   0  0  0  0  0  0  0  0  0  0  0  0
   40.6850   30.8040   46.0530 F   0  0  0  0  0  0  0  0  0  0  0  0
   35.8670   29.5660   48.7400 O   0  0  0  0  0  0  0  0  0  0  0  0
   34.6990   29.2400   48.1420 C   0  0  0  0  0  0  0  0  0  0  0  0
   34.3880   28.0770   47.8500 O   0  0  0  0  0  0  0  0  0  0  0  0
   33.9610   30.3960   47.9270 N   0  0  0  0  0  0  0  0  0  0  0  0
   36.8960   31.6641   51.1209 H   0  0  0  0  0  0  0  0  0  0  0  0
   35.1422   29.3893   50.3789 H   0  0  0  0  0  0  0  0  0  0  0  0
   38.2715   28.9190   49.9004 H   0  0  0  0  0  0  0  0  0  0  0  0
   37.9133   28.6746   51.3878 H   0  0  0  0  0  0  0  0  0  0  0  0
   37.8536   33.3109   50.7609 H   0  0  0  0  0  0  0  0  0  0  0  0
   39.1734   34.6071   48.9945 H   0  0  0  0  0  0  0  0  0  0  0  0
   33.0359   30.3403   47.4776 H   0  0  0  0  0  0  0  0  0  0  0  0
   34.3385   31.3094   48.2169 H   0  0  0  0  0  0  0  0  0  0  0  0
  1  3  1  0
  2  1  1  0
  2  3  1  0
  4  5  2  0
  4  1  1  0
  6  5  1  0
  7  6  2  0
  8  7  1  0
  8  9  2  0
  9  4  1  0
 10  8  1  0
 11 10  1  0
 12 10  1  0
 13 10  1  0
 14  2  1  0
 15 14  1  0
 16 15  2  0
 17 15  1  0
  1 18  1  1
  2 19  1  1
  3 20  1  0
  3 21  1  0
  5 22  1  0
  6 23  1  0
 17 24  1  0
 17 25  1  0
M  ISO  6  18  13  19  13  20  13  21  13  22  14  23  14
M  END
>  <minimizedAffinity>  (1) 
-5.32503986

>  <minimizedRMSD>  (1) 
1.84402716

$$$$
