
     RDKit          3D

 24 25  0  0  1  0  0  0  0  0999 V2000
   36.7140   30.7760   50.7110 C   0  0  1  0  0  0  0  0  0  0  0  0
   36.0290   29.5000   50.9060 C   0  0  2  0  0  0  0  0  0  0  0  0
   37.4760   29.5620   51.2840 C   0  0  0  0  0  0  0  0  0  0  0  0
   37.2500   31.1870   49.3710 C   0  0  0  0  0  0  0  0  0  0  0  0
   38.3720   32.0090   49.3910 C   0  0  0  0  0  0  0  0  0  0  0  0
   38.8360   32.3870   48.1260 C   0  0  0  0  0  0  0  0  0  0  0  0
   38.2060   31.9620   46.9820 N   0  0  0  0  0  0  0  0  0  0  0  0
   37.1130   31.1610   47.0180 C   0  0  0  0  0  0  0  0  0  0  0  0
   36.6310   30.7700   48.2370 N   0  0  0  0  0  0  0  0  0  0  0  0
   36.4650   30.7250   45.8350 N   0  0  0  0  0  0  0  0  0  0  0  0
   35.6590   28.7980   49.7670 O   0  0  0  0  0  0  0  0  0  0  0  0
   34.4340   28.3920   49.3570 C   0  0  0  0  0  0  0  0  0  0  0  0
   34.2680   27.4150   48.5970 O   0  0  0  0  0  0  0  0  0  0  0  0
   33.4800   29.2400   49.9230 N   0  0  0  0  0  0  0  0  0  0  0  0
   36.4317   31.7997   50.9979 H   0  0  0  0  0  0  0  0  0  0  0  0
   35.1255   29.1840   51.4481 H   0  0  0  0  0  0  0  0  0  0  0  0
   38.2328   29.0427   50.6778 H   0  0  0  0  0  0  0  0  0  0  0  0
   38.0692   29.3524   52.1863 H   0  0  0  0  0  0  0  0  0  0  0  0
   38.8547   32.3350   50.3241 H   0  0  0  0  0  0  0  0  0  0  0  0
   39.7207   33.0358   48.0465 H   0  0  0  0  0  0  0  0  0  0  0  0
   35.6362   30.1165   45.8961 H   0  0  0  0  0  0  0  0  0  0  0  0
   36.8230   31.0167   44.9143 H   0  0  0  0  0  0  0  0  0  0  0  0
   32.4794   29.0924   49.7281 H   0  0  0  0  0  0  0  0  0  0  0  0
   33.7768   30.0131   50.5354 H   0  0  0  0  0  0  0  0  0  0  0  0
  1  2  1  0
  1  3  1  0
  2  3  1  0
  4  5  2  0
  4  1  1  0
  6  5  1  0
  7  8  1  0
  7  6  2  0
  8  9  2  0
  9  4  1  0
 10  8  1  0
 11  2  1  0
 12 11  1  0
 12 14  1  0
 13 12  2  0
  1 15  1  1
  2 16  1  1
  3 17  1  0
  3 18  1  0
  5 19  1  0
  6 20  1  0
 10 21  1  0
 10 22  1  0
 14 23  1  0
 14 24  1  0
M  ISO  6  15  13  16  13  17  13  18  13  19  14  20  14
M  END
>  <minimizedAffinity>  (1) 
-4.96880102

>  <minimizedRMSD>  (1) 
0.170334458

$$$$
