
     RDKit          3D

 37 40  0  0  1  0  0  0  0  0999 V2000
   37.8150   32.3350   49.1920 C   0  0  0  0  0  0  0  0  0  0  0  0
   38.4190   33.4280   49.7740 C   0  0  0  0  0  0  0  0  0  0  0  0
   39.3870   34.0600   48.9840 C   0  0  0  0  0  0  0  0  0  0  0  0
   39.6810   33.6010   47.7410 N   0  0  0  0  0  0  0  0  0  0  0  0
   39.0690   32.5250   47.1980 C   0  0  0  0  0  0  0  0  0  0  0  0
   38.1240   31.8910   47.9450 N   0  0  0  0  0  0  0  0  0  0  0  0
   39.8300   32.9500   44.9280 C   0  0  0  0  0  0  0  0  0  0  0  0
   39.4020   32.0300   45.8610 C   0  0  0  0  0  0  0  0  0  0  0  0
   39.3020   30.6930   45.5100 C   0  0  0  0  0  0  0  0  0  0  0  0
   39.6140   30.2240   44.2480 C   0  0  0  0  0  0  0  0  0  0  0  0
   39.5970   29.0090   43.6600 N   0  0  0  0  0  0  0  0  0  0  0  0
   40.0080   29.2020   42.3970 C   0  0  0  0  0  0  0  0  0  0  0  0
   40.2820   30.5180   42.1850 N   0  0  0  0  0  0  0  0  0  0  0  0
   40.0430   31.1810   43.3340 C   0  0  0  0  0  0  0  0  0  0  0  0
   40.1520   32.5160   43.6560 C   0  0  0  0  0  0  0  0  0  0  0  0
   36.7680   31.6080   50.0050 C   0  0  1  0  0  0  0  0  0  0  0  0
   35.7920   30.7520   49.3760 C   0  0  2  0  0  0  0  0  0  0  0  0
   37.0240   30.1110   50.0590 C   0  0  2  0  0  0  0  0  0  0  0  0
   36.9060   29.4220   51.3480 C   0  0  0  0  0  0  0  0  0  0  0  0
   37.5400   29.9130   52.2470 O   0  0  0  0  0  0  0  0  0  0  0  0
   35.7870   30.6120   48.0330 O   0  0  0  0  0  0  0  0  0  0  0  0
   34.9240   30.3450   47.0580 C   0  0  0  0  0  0  0  0  0  0  0  0
   35.4480   29.8850   45.9930 O   0  0  0  0  0  0  0  0  0  0  0  0
   33.6050   30.6020   47.3330 N   0  0  0  0  0  0  0  0  0  0  0  0
   38.1600   33.7781   50.7841 H   0  0  0  0  0  0  0  0  0  0  0  0
   39.9166   34.9408   49.3762 H   0  0  0  0  0  0  0  0  0  0  0  0
   39.9141   34.0145   45.1921 H   0  0  0  0  0  0  0  0  0  0  0  0
   38.9595   29.9740   46.2687 H   0  0  0  0  0  0  0  0  0  0  0  0
   39.3240   28.1151   44.0928 H   0  0  0  0  0  0  0  0  0  0  0  0
   40.1090   28.4094   41.6410 H   0  0  0  0  0  0  0  0  0  0  0  0
   40.4957   33.2373   42.8999 H   0  0  0  0  0  0  0  0  0  0  0  0
   36.6287   32.4374   50.7140 H   0  0  0  0  0  0  0  0  0  0  0  0
   34.6969   30.6957   49.4634 H   0  0  0  0  0  0  0  0  0  0  0  0
   37.8139   29.4085   49.7550 H   0  0  0  0  0  0  0  0  0  0  0  0
   36.2852   28.5242   51.4839 H   0  0  0  0  0  0  0  0  0  0  0  0
   32.8848   30.4172   46.6202 H   0  0  0  0  0  0  0  0  0  0  0  0
   33.3347   30.9798   48.2523 H   0  0  0  0  0  0  0  0  0  0  0  0
  1  2  2  0
  1 16  1  0
  3  2  1  0
  4  3  2  0
  5  4  1  0
  5  6  2  0
  6  1  1  0
  7  8  2  0
  8  5  1  0
  9  8  1  0
 10  9  2  0
 11 10  1  0
 12 11  1  0
 13 12  2  0
 13 14  1  0
 14 15  2  0
 14 10  1  0
 15  7  1  0
 16 18  1  0
 17 16  1  0
 17 18  1  0
 18 19  1  0
 19 20  2  0
 21 17  1  0
 22 24  1  0
 22 21  1  0
 23 22  2  0
  2 25  1  0
  3 26  1  0
  7 27  1  0
  9 28  1  0
 11 29  1  0
 12 30  1  0
 15 31  1  0
 16 32  1  1
 17 33  1  1
 18 34  1  6
 19 35  1  0
 24 36  1  0
 24 37  1  0
M  ISO  8  25  14  26  14  27  14  28  14  29   9  30  14  31  14  32  13
M  ISO  3  33  13  34  13  35   6
M  END
>  <minimizedAffinity>  (1) 
-6.93597507

>  <minimizedRMSD>  (1) 
1.36932242

$$$$
