
     RDKit          3D

 37 40  0  0  1  0  0  0  0  0999 V2000
   37.0410   31.7200   49.2230 C   0  0  0  0  0  0  0  0  0  0  0  0
   37.4650   32.8390   49.9000 C   0  0  0  0  0  0  0  0  0  0  0  0
   38.5050   33.5480   49.2870 C   0  0  0  0  0  0  0  0  0  0  0  0
   39.0310   33.1240   48.1050 N   0  0  0  0  0  0  0  0  0  0  0  0
   38.5890   32.0160   47.4660 C   0  0  0  0  0  0  0  0  0  0  0  0
   37.5790   31.3110   48.0420 N   0  0  0  0  0  0  0  0  0  0  0  0
   40.0540   32.4150   45.5660 C   0  0  0  0  0  0  0  0  0  0  0  0
   39.1650   31.5700   46.1960 C   0  0  0  0  0  0  0  0  0  0  0  0
   38.8510   30.3430   45.6190 C   0  0  0  0  0  0  0  0  0  0  0  0
   39.3950   29.9220   44.4230 C   0  0  0  0  0  0  0  0  0  0  0  0
   39.2690   28.8150   43.6680 N   0  0  0  0  0  0  0  0  0  0  0  0
   40.0800   29.0060   42.6000 C   0  0  0  0  0  0  0  0  0  0  0  0
   40.6930   30.1950   42.6850 N   0  0  0  0  0  0  0  0  0  0  0  0
   40.2880   30.8000   43.8160 C   0  0  0  0  0  0  0  0  0  0  0  0
   40.6190   32.0250   44.3670 C   0  0  0  0  0  0  0  0  0  0  0  0
   35.9250   30.9160   49.8510 C   0  0  1  0  0  0  0  0  0  0  0  0
   34.8810   30.3290   49.0480 C   0  0  2  0  0  0  0  0  0  0  0  0
   36.0410   29.4320   49.5430 C   0  0  2  0  0  0  0  0  0  0  0  0
   35.8510   28.5010   50.6080 N   0  0  0  0  0  0  0  0  0  0  0  0
   34.8810   30.5130   47.7100 O   0  0  0  0  0  0  0  0  0  0  0  0
   34.1010   30.2500   46.6670 C   0  0  0  0  0  0  0  0  0  0  0  0
   34.5490   29.3590   45.8780 O   0  0  0  0  0  0  0  0  0  0  0  0
   32.9330   30.9680   46.5910 N   0  0  0  0  0  0  0  0  0  0  0  0
   37.0191   33.1546   50.8548 H   0  0  0  0  0  0  0  0  0  0  0  0
   38.9009   34.4562   49.7649 H   0  0  0  0  0  0  0  0  0  0  0  0
   40.3101   33.3872   46.0123 H   0  0  0  0  0  0  0  0  0  0  0  0
   38.1405   29.6823   46.1374 H   0  0  0  0  0  0  0  0  0  0  0  0
   38.6787   27.9935   43.8619 H   0  0  0  0  0  0  0  0  0  0  0  0
   40.2163   28.2869   41.7789 H   0  0  0  0  0  0  0  0  0  0  0  0
   41.3304   32.6871   43.8517 H   0  0  0  0  0  0  0  0  0  0  0  0
   35.8566   31.5604   50.7399 H   0  0  0  0  0  0  0  0  0  0  0  0
   33.7846   30.3560   49.1328 H   0  0  0  0  0  0  0  0  0  0  0  0
   36.7635   28.7512   49.0691 H   0  0  0  0  0  0  0  0  0  0  0  0
   35.9502   28.9870   51.5107 H   0  0  0  0  0  0  0  0  0  0  0  0
   34.9088   28.0902   50.5409 H   0  0  0  0  0  0  0  0  0  0  0  0
   32.2831   30.8127   45.8072 H   0  0  0  0  0  0  0  0  0  0  0  0
   32.7068   31.6619   47.3178 H   0  0  0  0  0  0  0  0  0  0  0  0
  1 16  1  0
  1  2  2  0
  3  2  1  0
  4  3  2  0
  5  6  2  0
  5  4  1  0
  6  1  1  0
  7  8  2  0
  8  5  1  0
  9  8  1  0
 10  9  2  0
 11 10  1  0
 12 13  2  0
 12 11  1  0
 13 14  1  0
 14 15  2  0
 14 10  1  0
 15  7  1  0
 17 18  1  0
 17 16  1  0
 18 16  1  0
 18 19  1  0
 20 17  1  0
 21 20  1  0
 22 21  2  0
 23 21  1  0
  2 24  1  0
  3 25  1  0
  7 26  1  0
  9 27  1  0
 11 28  1  0
 12 29  1  0
 15 30  1  0
 16 31  1  1
 17 32  1  1
 18 33  1  6
 19 34  1  0
 19 35  1  0
 23 36  1  0
 23 37  1  0
M  ISO  8  24  14  25  14  26  14  27  14  28   9  29  14  30  14  31  13
M  ISO  4  32  13  33  13  34   5  35   5
M  END
>  <minimizedAffinity>  (1) 
-6.56985664

>  <minimizedRMSD>  (1) 
0.4095909

$$$$
