
     RDKit          3D

 34 36  0  0  1  0  0  0  0  0999 V2000
   36.1650   29.5790   51.1900 C   0  0  0  0  0  0  0  0  0  0  0  0
   37.0710   30.5600   50.7760 C   0  0  0  0  0  0  0  0  0  0  0  0
   37.3280   30.7600   49.4260 C   0  0  0  0  0  0  0  0  0  0  0  0
   36.6530   29.9580   48.5910 N   0  0  0  0  0  0  0  0  0  0  0  0
   35.7760   29.0080   48.9650 C   0  0  0  0  0  0  0  0  0  0  0  0
   35.5390   28.8270   50.2740 N   0  0  0  0  0  0  0  0  0  0  0  0
   38.2250   31.7310   48.9530 N   0  0  0  0  0  0  0  0  0  0  0  0
   38.5500   32.9600   49.6780 C   0  0  0  0  0  0  0  0  0  0  0  0
   39.4200   33.7610   48.7670 C   0  0  0  0  0  0  0  0  0  0  0  0
   38.9980   33.2060   47.4080 C   0  0  0  0  0  0  0  0  0  0  0  0
   38.9650   31.7330   47.7520 C   0  0  2  0  0  0  0  0  0  0  0  0
   38.5240   30.8830   46.6960 N   0  0  0  0  0  0  0  0  0  0  0  0
   39.6800   30.6540   45.7990 C   0  0  0  0  0  0  0  0  0  0  0  0
   39.0020   29.9930   44.5830 C   0  0  0  0  0  0  0  0  0  0  0  0
   37.5440   30.4620   44.6970 C   0  0  0  0  0  0  0  0  0  0  0  0
   37.6690   31.5620   45.7320 C   0  0  0  0  0  0  0  0  0  0  0  0
   35.9671   29.4252   52.2611 H   0  0  0  0  0  0  0  0  0  0  0  0
   37.5848   31.1789   51.5263 H   0  0  0  0  0  0  0  0  0  0  0  0
   35.2630   28.3914   48.2122 H   0  0  0  0  0  0  0  0  0  0  0  0
   37.6317   33.5169   49.9161 H   0  0  0  0  0  0  0  0  0  0  0  0
   39.0573   32.7428   50.6296 H   0  0  0  0  0  0  0  0  0  0  0  0
   39.2086   34.8375   48.8481 H   0  0  0  0  0  0  0  0  0  0  0  0
   40.4966   33.6804   48.9777 H   0  0  0  0  0  0  0  0  0  0  0  0
   39.7365   33.4298   46.6240 H   0  0  0  0  0  0  0  0  0  0  0  0
   38.0629   33.6169   46.9995 H   0  0  0  0  0  0  0  0  0  0  0  0
   39.9549   31.2749   47.8943 H   0  0  0  0  0  0  0  0  0  0  0  0
   40.1668   31.6007   45.5218 H   0  0  0  0  0  0  0  0  0  0  0  0
   40.4820   30.0495   46.2478 H   0  0  0  0  0  0  0  0  0  0  0  0
   39.0695   28.8966   44.6413 H   0  0  0  0  0  0  0  0  0  0  0  0
   39.4700   30.2671   43.6260 H   0  0  0  0  0  0  0  0  0  0  0  0
   37.1695   30.8509   43.7386 H   0  0  0  0  0  0  0  0  0  0  0  0
   36.8336   29.6667   44.9668 H   0  0  0  0  0  0  0  0  0  0  0  0
   38.1485   32.4620   45.3195 H   0  0  0  0  0  0  0  0  0  0  0  0
   36.7171   31.9404   46.1329 H   0  0  0  0  0  0  0  0  0  0  0  0
  2  1  2  0
  3  2  1  0
  4  5  1  0
  4  3  2  0
  5  6  2  0
  6  1  1  0
  7  3  1  0
  7  8  1  0
  9  8  1  0
 10 11  1  0
 10  9  1  0
 11  7  1  0
 12 13  1  0
 12 11  1  0
 14 15  1  0
 14 13  1  0
 15 16  1  0
 16 12  1  0
  1 17  1  0
  2 18  1  0
  5 19  1  0
  8 20  1  0
  8 21  1  0
  9 22  1  0
  9 23  1  0
 10 24  1  0
 10 25  1  0
 11 26  1  1
 13 27  1  0
 13 28  1  0
 14 29  1  0
 14 30  1  0
 15 31  1  0
 15 32  1  0
 16 33  1  0
 16 34  1  0
M  ISO  8  17  14  18  14  19  14  20  13  21  13  22  13  23  13  24  13
M  ISO  8  25  13  26  13  27  13  28  13  29  13  30  13  31  13  32  13
M  ISO  2  33  13  34  13
M  END
>  <minimizedAffinity>  (1) 
-5.15320444

>  <minimizedRMSD>  (1) 
2.07553625

$$$$
