
     RDKit          3D

 28 29  0  0  1  0  0  0  0  0999 V2000
   34.4020   28.0670   48.9920 C   0  0  0  0  0  0  0  0  0  0  0  0
   35.5740   28.7920   49.3060 C   0  0  0  0  0  0  0  0  0  0  0  0
   35.8170   29.9720   48.6030 C   0  0  0  0  0  0  0  0  0  0  0  0
   34.9220   30.3680   47.6540 N   0  0  0  0  0  0  0  0  0  0  0  0
   33.8120   29.6450   47.3820 C   0  0  0  0  0  0  0  0  0  0  0  0
   33.5580   28.5040   48.0480 N   0  0  0  0  0  0  0  0  0  0  0  0
   36.9790   30.7500   48.8720 N   0  0  0  0  0  0  0  0  0  0  0  0
   37.6280   30.8500   50.1680 C   0  0  0  0  0  0  0  0  0  0  0  0
   38.6870   31.9060   49.9960 C   0  0  0  0  0  0  0  0  0  0  0  0
   38.1670   32.6940   48.8180 C   0  0  0  0  0  0  0  0  0  0  0  0
   37.7010   31.5580   47.9250 C   0  0  1  0  0  0  0  0  0  0  0  0
   38.7570   30.8990   47.3380 O   0  0  0  0  0  0  0  0  0  0  0  0
   38.6340   32.4010   45.1760 O   0  0  0  0  0  0  0  0  0  0  0  0
   38.4740   30.9770   45.6540 P   0  0  0  0  0  0  0  0  0  0  0  0
   36.9000   30.4960   45.2670 O   0  0  0  0  0  0  0  0  0  0  0  0
   39.5530   29.9120   44.9110 O   0  0  0  0  0  0  0  0  0  0  0  0
   34.1804   27.1330   49.5291 H   0  0  0  0  0  0  0  0  0  0  0  0
   36.2714   28.4374   50.0792 H   0  0  0  0  0  0  0  0  0  0  0  0
   33.1106   29.9929   46.6094 H   0  0  0  0  0  0  0  0  0  0  0  0
   36.9045   31.1509   50.9400 H   0  0  0  0  0  0  0  0  0  0  0  0
   38.0535   29.8885   50.4911 H   0  0  0  0  0  0  0  0  0  0  0  0
   38.7691   32.5376   50.8928 H   0  0  0  0  0  0  0  0  0  0  0  0
   39.6962   31.4967   49.8413 H   0  0  0  0  0  0  0  0  0  0  0  0
   37.3359   33.3553   49.1042 H   0  0  0  0  0  0  0  0  0  0  0  0
   38.8979   33.3750   48.3575 H   0  0  0  0  0  0  0  0  0  0  0  0
   37.0964   31.8665   47.0594 H   0  0  0  0  0  0  0  0  0  0  0  0
   36.3885   30.3397   46.1001 H   0  0  0  0  0  0  0  0  0  0  0  0
   40.0562   29.4153   45.6039 H   0  0  0  0  0  0  0  0  0  0  0  0
  1  2  2  0
  3  7  1  0
  3  2  1  0
  4  3  2  0
  5  4  1  0
  5  6  2  0
  6  1  1  0
  7  8  1  0
  9  8  1  0
 10  9  1  0
 11 10  1  0
 11  7  1  0
 12 11  1  0
 13 14  2  0
 14 12  1  0
 15 14  1  0
 16 14  1  0
  1 17  1  0
  2 18  1  0
  5 19  1  0
  8 20  1  0
  8 21  1  0
  9 22  1  0
  9 23  1  0
 10 24  1  0
 10 25  1  0
 11 26  1  6
 15 27  1  0
 16 28  1  0
M  ISO  8  17  14  18  14  19  14  20  13  21  13  22  13  23  13  24  13
M  ISO  4  25  13  26  13  27   3  28   3
M  END
>  <minimizedAffinity>  (1) 
-5.14470911

>  <minimizedRMSD>  (1) 
3.19919538

$$$$
