
     RDKit          3D

 22 23  0  0  0  0  0  0  0  0999 V2000
   38.5260   33.4190   49.3310 Br  0  0  0  0  0  0  0  0  0  0  0  0
   38.7530   32.3590   47.7780 C   0  0  0  0  0  0  0  0  0  0  0  0
   38.1300   31.1410   47.8010 C   0  0  0  0  0  0  0  0  0  0  0  0
   38.2540   30.2980   46.6820 C   0  0  0  0  0  0  0  0  0  0  0  0
   38.9950   30.7030   45.5810 C   0  0  0  0  0  0  0  0  0  0  0  0
   39.5850   31.9390   45.6420 C   0  0  0  0  0  0  0  0  0  0  0  0
   39.4860   32.7880   46.7140 C   0  0  0  0  0  0  0  0  0  0  0  0
   37.8570   29.9310   50.0030 C   0  0  0  0  0  0  0  0  0  0  0  0
   37.3160   30.5580   48.8730 C   0  0  0  0  0  0  0  0  0  0  0  0
   35.9210   30.6350   48.7570 C   0  0  0  0  0  0  0  0  0  0  0  0
   35.1670   30.0870   49.7670 N   0  0  0  0  0  0  0  0  0  0  0  0
   35.7300   29.4950   50.8310 C   0  0  0  0  0  0  0  0  0  0  0  0
   37.0770   29.4110   50.9600 N   0  0  0  0  0  0  0  0  0  0  0  0
   40.0790   34.0560   46.8020 N   0  0  0  0  0  0  0  0  0  0  0  0
   37.7618   29.3142   46.6797 H   0  0  0  0  0  0  0  0  0  0  0  0
   39.1045   30.0591   44.6959 H   0  0  0  0  0  0  0  0  0  0  0  0
   40.1756   32.2708   44.7754 H   0  0  0  0  0  0  0  0  0  0  0  0
   38.9500   29.8640   50.1071 H   0  0  0  0  0  0  0  0  0  0  0  0
   35.4470   31.1166   47.8890 H   0  0  0  0  0  0  0  0  0  0  0  0
   35.0859   29.0692   51.6145 H   0  0  0  0  0  0  0  0  0  0  0  0
   39.9504   34.6270   47.6496 H   0  0  0  0  0  0  0  0  0  0  0  0
   40.6431   34.4162   46.0191 H   0  0  0  0  0  0  0  0  0  0  0  0
  2  3  2  0
  2  1  1  0
  3  9  1  0
  4  3  1  0
  5  6  1  0
  5  4  2  0
  6  7  2  0
  7 14  1  0
  7  2  1  0
  8 13  2  0
  9  8  1  0
 10  9  2  0
 10 11  1  0
 11 12  2  0
 12 13  1  0
  4 15  1  0
  5 16  1  0
  6 17  1  0
  8 18  1  0
 10 19  1  0
 12 20  1  0
 14 21  1  0
 14 22  1  0
M  ISO  6  15  14  16  14  17  14  18  14  19  14  20  14
M  END
>  <minimizedAffinity>  (1) 
-5.43925476

>  <minimizedRMSD>  (1) 
0.244811103

$$$$
