
     RDKit          3D

 28 29  0  0  1  0  0  0  0  0999 V2000
   37.2280   30.2210   51.1830 C   0  0  0  0  0  0  0  0  0  0  0  0
   38.0310   31.0890   50.3980 C   0  0  0  0  0  0  0  0  0  0  0  0
   37.9180   30.9410   48.9990 C   0  0  0  0  0  0  0  0  0  0  0  0
   37.0750   30.0090   48.4880 N   0  0  0  0  0  0  0  0  0  0  0  0
   36.3300   29.2050   49.2710 C   0  0  0  0  0  0  0  0  0  0  0  0
   36.4040   29.3090   50.6040 N   0  0  0  0  0  0  0  0  0  0  0  0
   38.6980   31.7780   48.1520 N   0  0  0  0  0  0  0  0  0  0  0  0
   39.1200   33.1380   48.4730 C   0  0  0  0  0  0  0  0  0  0  0  0
   39.8280   33.6180   47.2250 C   0  0  0  0  0  0  0  0  0  0  0  0
   39.1500   32.7910   46.1710 C   0  0  0  0  0  0  0  0  0  0  0  0
   39.1970   31.4280   46.8530 C   0  0  2  0  0  0  0  0  0  0  0  0
   38.4210   30.4050   46.1030 C   0  0  0  0  0  0  0  0  0  0  0  0
   39.2200   30.1350   44.8210 C   0  0  0  0  0  0  0  0  0  0  0  0
   37.2736   30.2879   52.2800 H   0  0  0  0  0  0  0  0  0  0  0  0
   38.7016   31.8329   50.8530 H   0  0  0  0  0  0  0  0  0  0  0  0
   35.6597   28.4618   48.8146 H   0  0  0  0  0  0  0  0  0  0  0  0
   38.2498   33.7731   48.6953 H   0  0  0  0  0  0  0  0  0  0  0  0
   39.7661   33.1771   49.3624 H   0  0  0  0  0  0  0  0  0  0  0  0
   39.6679   34.6935   47.0588 H   0  0  0  0  0  0  0  0  0  0  0  0
   40.9218   33.5053   47.2540 H   0  0  0  0  0  0  0  0  0  0  0  0
   39.7087   32.7954   45.2234 H   0  0  0  0  0  0  0  0  0  0  0  0
   38.1466   33.1346   45.8794 H   0  0  0  0  0  0  0  0  0  0  0  0
   40.1800   30.9369   46.9036 H   0  0  0  0  0  0  0  0  0  0  0  0
   38.3262   29.4840   46.6969 H   0  0  0  0  0  0  0  0  0  0  0  0
   37.4012   30.7519   45.8802 H   0  0  0  0  0  0  0  0  0  0  0  0
   40.2317   29.7931   45.0847 H   0  0  0  0  0  0  0  0  0  0  0  0
   38.7130   29.3583   44.2297 H   0  0  0  0  0  0  0  0  0  0  0  0
   39.2880   31.0600   44.2297 H   0  0  0  0  0  0  0  0  0  0  0  0
  2  1  2  0
  3  2  1  0
  4  3  2  0
  4  5  1  0
  5  6  2  0
  6  1  1  0
  7  8  1  0
  7  3  1  0
  9  8  1  0
 10 11  1  0
 10  9  1  0
 11  7  1  0
 12 11  1  0
 13 12  1  0
  1 14  1  0
  2 15  1  0
  5 16  1  0
  8 17  1  0
  8 18  1  0
  9 19  1  0
  9 20  1  0
 10 21  1  0
 10 22  1  0
 11 23  1  1
 12 24  1  0
 12 25  1  0
 13 26  1  0
 13 27  1  0
 13 28  1  0
M  ISO  8  14  14  15  14  16  14  17  13  18  13  19  13  20  13  21  13
M  ISO  7  22  13  23  13  24   8  25   8  26   8  27   8  28   8
M  END
>  <minimizedAffinity>  (1) 
-4.57096004

>  <minimizedRMSD>  (1) 
1.26497316

$$$$
