
     RDKit          3D

 30 32  0  0  1  0  0  0  0  0999 V2000
   37.2990   29.7490   51.4460 C   0  0  0  0  0  0  0  0  0  0  0  0
   37.9370   30.3030   50.3200 C   0  0  0  0  0  0  0  0  0  0  0  0
   37.1960   30.3970   49.1460 C   0  0  0  0  0  0  0  0  0  0  0  0
   35.9310   29.9490   49.1830 N   0  0  0  0  0  0  0  0  0  0  0  0
   35.3190   29.4200   50.2570 C   0  0  0  0  0  0  0  0  0  0  0  0
   36.0170   29.3220   51.3950 N   0  0  0  0  0  0  0  0  0  0  0  0
   37.7370   30.9370   47.9460 N   0  0  0  0  0  0  0  0  0  0  0  0
   38.7410   31.9980   47.9310 C   0  0  0  0  0  0  0  0  0  0  0  0
   38.9440   32.2990   46.4610 C   0  0  0  0  0  0  0  0  0  0  0  0
   37.6030   31.9210   45.9060 C   0  0  0  0  0  0  0  0  0  0  0  0
   37.4190   30.5680   46.6190 C   0  0  2  0  0  0  0  0  0  0  0  0
   36.0000   30.1910   46.3890 C   0  0  0  0  0  0  0  0  0  0  0  0
   35.7020   29.2380   45.4140 C   0  0  0  0  0  0  0  0  0  0  0  0
   34.4080   28.8360   45.1370 C   0  0  0  0  0  0  0  0  0  0  0  0
   33.4200   29.3960   45.8450 N   0  0  0  0  0  0  0  0  0  0  0  0
   33.6830   30.3260   46.8010 C   0  0  0  0  0  0  0  0  0  0  0  0
   34.9620   30.7070   47.0560 N   0  0  0  0  0  0  0  0  0  0  0  0
   37.8568   29.6614   52.3900 H   0  0  0  0  0  0  0  0  0  0  0  0
   38.9804   30.6481   50.3664 H   0  0  0  0  0  0  0  0  0  0  0  0
   34.2751   29.0777   50.2021 H   0  0  0  0  0  0  0  0  0  0  0  0
   38.3756   32.8880   48.4643 H   0  0  0  0  0  0  0  0  0  0  0  0
   39.6741   31.7013   48.4324 H   0  0  0  0  0  0  0  0  0  0  0  0
   39.1657   33.3632   46.2930 H   0  0  0  0  0  0  0  0  0  0  0  0
   39.7916   31.7693   46.0016 H   0  0  0  0  0  0  0  0  0  0  0  0
   36.8224   32.6439   46.1855 H   0  0  0  0  0  0  0  0  0  0  0  0
   37.5373   31.8898   44.8084 H   0  0  0  0  0  0  0  0  0  0  0  0
   38.0171   29.7001   46.3043 H   0  0  0  0  0  0  0  0  0  0  0  0
   36.5285   28.7891   44.8436 H   0  0  0  0  0  0  0  0  0  0  0  0
   34.1985   28.0832   44.3628 H   0  0  0  0  0  0  0  0  0  0  0  0
   32.8554   30.7727   47.3715 H   0  0  0  0  0  0  0  0  0  0  0  0
  2  1  2  0
  3  4  2  0
  3  2  1  0
  4  5  1  0
  5  6  2  0
  6  1  1  0
  7  3  1  0
  8  7  1  0
  9  8  1  0
 10  9  1  0
 10 11  1  0
 11  7  1  0
 12 11  1  0
 12 17  1  0
 13 12  2  0
 14 13  1  0
 14 15  2  0
 15 16  1  0
 16 17  2  0
  1 18  1  0
  2 19  1  0
  5 20  1  0
  8 21  1  0
  8 22  1  0
  9 23  1  0
  9 24  1  0
 10 25  1  0
 10 26  1  0
 11 27  1  6
 13 28  1  0
 14 29  1  0
 16 30  1  0
M  ISO  8  18  14  19  14  20  14  21  13  22  13  23  13  24  13  25  13
M  ISO  5  26  13  27  13  28  14  29  14  30  14
M  END
>  <minimizedAffinity>  (1) 
-4.03395176

>  <minimizedRMSD>  (1) 
1.20909381

$$$$
