
     RDKit          3D

 27 28  0  0  1  0  0  0  0  0999 V2000
   37.0440   31.4590   50.0510 C   0  0  0  0  0  0  0  0  0  0  0  0
   38.0440   31.9490   49.1990 C   0  0  0  0  0  0  0  0  0  0  0  0
   37.9290   31.7140   47.8210 C   0  0  0  0  0  0  0  0  0  0  0  0
   36.8550   31.0260   47.3890 N   0  0  0  0  0  0  0  0  0  0  0  0
   35.8990   30.5610   48.2340 C   0  0  0  0  0  0  0  0  0  0  0  0
   36.0070   30.7840   49.5530 N   0  0  0  0  0  0  0  0  0  0  0  0
   38.8990   32.1740   46.9200 N   0  0  0  0  0  0  0  0  0  0  0  0
   39.7500   33.3480   47.1320 C   0  0  0  0  0  0  0  0  0  0  0  0
   40.4910   33.5760   45.8580 C   0  0  0  0  0  0  0  0  0  0  0  0
   39.6190   32.8710   44.8690 C   0  0  0  0  0  0  0  0  0  0  0  0
   39.2740   31.6240   45.6540 C   0  0  2  0  0  0  0  0  0  0  0  0
   38.3140   30.7540   44.9540 C   0  0  0  0  0  0  0  0  0  0  0  0
   37.1440   31.4890   44.8000 F   0  0  0  0  0  0  0  0  0  0  0  0
   37.9710   29.6050   45.6090 F   0  0  0  0  0  0  0  0  0  0  0  0
   38.8000   30.5550   43.6760 F   0  0  0  0  0  0  0  0  0  0  0  0
   40.5320   30.9060   45.9040 N   0  0  0  0  0  0  0  0  0  0  0  0
   37.1150   31.6320   51.1350 H   0  0  0  0  0  0  0  0  0  0  0  0
   38.9017   32.5066   49.6033 H   0  0  0  0  0  0  0  0  0  0  0  0
   35.0378   30.0027   47.8382 H   0  0  0  0  0  0  0  0  0  0  0  0
   39.1321   34.2255   47.3734 H   0  0  0  0  0  0  0  0  0  0  0  0
   40.4441   33.1873   47.9701 H   0  0  0  0  0  0  0  0  0  0  0  0
   40.5721   34.6486   45.6279 H   0  0  0  0  0  0  0  0  0  0  0  0
   41.5296   33.2141   45.8749 H   0  0  0  0  0  0  0  0  0  0  0  0
   40.1638   32.6318   43.9438 H   0  0  0  0  0  0  0  0  0  0  0  0
   38.7515   33.4523   44.5232 H   0  0  0  0  0  0  0  0  0  0  0  0
   40.6824   30.8202   46.9193 H   0  0  0  0  0  0  0  0  0  0  0  0
   40.4807   29.9670   45.4839 H   0  0  0  0  0  0  0  0  0  0  0  0
  2  1  2  0
  3  2  1  0
  4  3  2  0
  4  5  1  0
  5  6  2  0
  6  1  1  0
  7  8  1  0
  7  3  1  0
  9  8  1  0
 10 11  1  0
 10  9  1  0
 11 12  1  0
 11 16  1  1
 11  7  1  0
 12 14  1  0
 13 12  1  0
 15 12  1  0
  1 17  1  0
  2 18  1  0
  5 19  1  0
  8 20  1  0
  8 21  1  0
  9 22  1  0
  9 23  1  0
 10 24  1  0
 10 25  1  0
 16 26  1  0
 16 27  1  0
M  ISO  8  17  14  18  14  19  14  20  13  21  13  22  13  23  13  24  13
M  ISO  3  25  13  26   5  27   5
M  END
>  <minimizedAffinity>  (1) 
-4.77324295

>  <minimizedRMSD>  (1) 
2.20376205

$$$$
