
     RDKit          3D

 26 27  0  0  1  0  0  0  0  0999 V2000
   37.0050   31.4950   50.0390 C   0  0  0  0  0  0  0  0  0  0  0  0
   38.0400   31.9800   49.2050 C   0  0  0  0  0  0  0  0  0  0  0  0
   37.9500   31.7180   47.8310 C   0  0  0  0  0  0  0  0  0  0  0  0
   36.8900   31.0220   47.3760 N   0  0  0  0  0  0  0  0  0  0  0  0
   35.9090   30.5660   48.1970 C   0  0  0  0  0  0  0  0  0  0  0  0
   35.9770   30.8070   49.5180 N   0  0  0  0  0  0  0  0  0  0  0  0
   38.9420   32.1670   46.9490 N   0  0  0  0  0  0  0  0  0  0  0  0
   39.7660   33.3640   47.1610 C   0  0  0  0  0  0  0  0  0  0  0  0
   40.5630   33.5500   45.8970 C   0  0  0  0  0  0  0  0  0  0  0  0
   39.7230   32.8220   44.9080 C   0  0  0  0  0  0  0  0  0  0  0  0
   39.3680   31.5910   45.7100 C   0  0  2  0  0  0  0  0  0  0  0  0
   38.4390   30.6950   45.0010 C   0  0  0  0  0  0  0  0  0  0  0  0
   37.2790   31.4270   44.7600 F   0  0  0  0  0  0  0  0  0  0  0  0
   38.0510   29.5760   45.6780 F   0  0  0  0  0  0  0  0  0  0  0  0
   38.9820   30.4460   43.7550 F   0  0  0  0  0  0  0  0  0  0  0  0
   40.5800   30.9280   46.0090 O   0  0  0  0  0  0  0  0  0  0  0  0
   37.0431   31.6831   51.1221 H   0  0  0  0  0  0  0  0  0  0  0  0
   38.8876   32.5442   49.6213 H   0  0  0  0  0  0  0  0  0  0  0  0
   35.0611   30.0010   47.7824 H   0  0  0  0  0  0  0  0  0  0  0  0
   39.1267   34.2407   47.3420 H   0  0  0  0  0  0  0  0  0  0  0  0
   40.4215   33.2513   48.0371 H   0  0  0  0  0  0  0  0  0  0  0  0
   40.6601   34.6141   45.6359 H   0  0  0  0  0  0  0  0  0  0  0  0
   41.5986   33.1848   45.9615 H   0  0  0  0  0  0  0  0  0  0  0  0
   40.2908   32.5671   44.0010 H   0  0  0  0  0  0  0  0  0  0  0  0
   38.8602   33.3900   44.5298 H   0  0  0  0  0  0  0  0  0  0  0  0
   40.6897   30.8680   46.9911 H   0  0  0  0  0  0  0  0  0  0  0  0
  2  1  2  0
  3  2  1  0
  4  3  2  0
  4  5  1  0
  5  6  2  0
  6  1  1  0
  7  8  1  0
  7  3  1  0
  9  8  1  0
 10 11  1  0
 10  9  1  0
 11 16  1  1
 11  7  1  0
 12 14  1  0
 12 11  1  0
 13 12  1  0
 15 12  1  0
  1 17  1  0
  2 18  1  0
  5 19  1  0
  8 20  1  0
  8 21  1  0
  9 22  1  0
  9 23  1  0
 10 24  1  0
 10 25  1  0
 16 26  1  0
M  ISO  8  17  14  18  14  19  14  20  13  21  13  22  13  23  13  24  13
M  ISO  2  25  13  26   3
M  END
>  <minimizedAffinity>  (1) 
-4.68720388

>  <minimizedRMSD>  (1) 
2.18798399

$$$$
