
     RDKit          3D

 29 30  0  0  1  0  0  0  0  0999 V2000
   37.0670   30.0700   48.9470 C   0  0  0  0  0  0  0  0  0  0  0  0
   38.0350   30.7190   48.1470 C   0  0  0  0  0  0  0  0  0  0  0  0
   37.6870   31.0190   46.8210 C   0  0  0  0  0  0  0  0  0  0  0  0
   36.4580   30.6760   46.3850 N   0  0  0  0  0  0  0  0  0  0  0  0
   35.5490   30.0530   47.1800 C   0  0  0  0  0  0  0  0  0  0  0  0
   35.8640   29.7570   48.4510 N   0  0  0  0  0  0  0  0  0  0  0  0
   38.5980   31.6610   45.9660 N   0  0  0  0  0  0  0  0  0  0  0  0
   39.6450   32.5860   46.4120 C   0  0  0  0  0  0  0  0  0  0  0  0
   40.2370   33.1860   45.1680 C   0  0  0  0  0  0  0  0  0  0  0  0
   39.1490   32.9690   44.1710 C   0  0  0  0  0  0  0  0  0  0  0  0
   38.7140   31.5650   44.5490 C   0  0  2  0  0  0  0  0  0  0  0  0
   37.5310   31.1190   43.7780 C   0  0  0  0  0  0  0  0  0  0  0  0
   36.5500   32.0850   43.9540 F   0  0  0  0  0  0  0  0  0  0  0  0
   36.9810   29.9320   44.1640 F   0  0  0  0  0  0  0  0  0  0  0  0
   37.8790   31.1730   42.4420 F   0  0  0  0  0  0  0  0  0  0  0  0
   39.8180   30.5900   44.2810 C   0  0  0  0  0  0  0  0  0  0  0  0
   39.4800   29.5020   44.7170 O   0  0  0  0  0  0  0  0  0  0  0  0
   37.3057   29.8189   49.9910 H   0  0  0  0  0  0  0  0  0  0  0  0
   39.0251   30.9794   48.5493 H   0  0  0  0  0  0  0  0  0  0  0  0
   34.5570   29.7917   46.7829 H   0  0  0  0  0  0  0  0  0  0  0  0
   39.2121   33.3739   47.0459 H   0  0  0  0  0  0  0  0  0  0  0  0
   40.4098   32.0663   47.0077 H   0  0  0  0  0  0  0  0  0  0  0  0
   40.4482   34.2571   45.3023 H   0  0  0  0  0  0  0  0  0  0  0  0
   41.2005   32.7422   44.8767 H   0  0  0  0  0  0  0  0  0  0  0  0
   39.5271   33.0143   43.1390 H   0  0  0  0  0  0  0  0  0  0  0  0
   38.3472   33.7217   44.1921 H   0  0  0  0  0  0  0  0  0  0  0  0
   39.9964   30.5180   43.1980 H   0  0  0  0  0  0  0  0  0  0  0  0
   40.7459   30.9232   44.7689 H   0  0  0  0  0  0  0  0  0  0  0  0
   39.4875   29.5263   45.7067 H   0  0  0  0  0  0  0  0  0  0  0  0
  2  1  2  0
  3  2  1  0
  4  3  2  0
  4  5  1  0
  5  6  2  0
  6  1  1  0
  7  8  1  0
  7  3  1  0
  9  8  1  0
 10 11  1  0
 10  9  1  0
 11 16  1  1
 11  7  1  0
 12 13  1  0
 12 14  1  0
 12 11  1  0
 15 12  1  0
 16 17  1  0
  1 18  1  0
  2 19  1  0
  5 20  1  0
  8 21  1  0
  8 22  1  0
  9 23  1  0
  9 24  1  0
 10 25  1  0
 10 26  1  0
 16 27  1  0
 16 28  1  0
 17 29  1  0
M  ISO  8  18  14  19  14  20  14  21  13  22  13  23  13  24  13  25  13
M  ISO  4  26  13  27   8  28   8  29   3
M  END
>  <minimizedAffinity>  (1) 
-4.65850592

>  <minimizedRMSD>  (1) 
3.15493345

$$$$
