
     RDKit          3D

 32 33  0  0  1  0  0  0  0  0999 V2000
   36.9610   29.8920   48.7970 C   0  0  0  0  0  0  0  0  0  0  0  0
   37.9720   30.5140   48.0260 C   0  0  0  0  0  0  0  0  0  0  0  0
   37.6260   30.9260   46.7240 C   0  0  0  0  0  0  0  0  0  0  0  0
   36.3710   30.7080   46.2900 N   0  0  0  0  0  0  0  0  0  0  0  0
   35.4360   30.1100   47.0610 C   0  0  0  0  0  0  0  0  0  0  0  0
   35.7410   29.7090   48.3040 N   0  0  0  0  0  0  0  0  0  0  0  0
   38.5790   31.5520   45.8960 N   0  0  0  0  0  0  0  0  0  0  0  0
   39.7040   32.3690   46.3840 C   0  0  0  0  0  0  0  0  0  0  0  0
   40.2960   33.0250   45.1750 C   0  0  0  0  0  0  0  0  0  0  0  0
   39.2150   32.9340   44.1810 C   0  0  0  0  0  0  0  0  0  0  0  0
   38.6670   31.5410   44.4700 C   0  0  2  0  0  0  0  0  0  0  0  0
   37.4520   31.2390   43.6930 C   0  0  0  0  0  0  0  0  0  0  0  0
   36.5530   32.2650   43.9530 F   0  0  0  0  0  0  0  0  0  0  0  0
   36.8180   30.0780   44.0130 F   0  0  0  0  0  0  0  0  0  0  0  0
   37.7910   31.3520   42.3590 F   0  0  0  0  0  0  0  0  0  0  0  0
   39.7070   30.5110   44.1400 C   0  0  0  0  0  0  0  0  0  0  0  0
   39.1150   29.4540   43.9660 O   0  0  0  0  0  0  0  0  0  0  0  0
   39.4200   28.4560   43.0770 C   0  0  0  0  0  0  0  0  0  0  0  0
   38.4670   28.5040   42.0510 F   0  0  0  0  0  0  0  0  0  0  0  0
   40.6630   28.4980   42.5310 F   0  0  0  0  0  0  0  0  0  0  0  0
   39.1430   27.2530   43.7350 F   0  0  0  0  0  0  0  0  0  0  0  0
   37.1887   29.5553   49.8191 H   0  0  0  0  0  0  0  0  0  0  0  0
   38.9847   30.6691   48.4264 H   0  0  0  0  0  0  0  0  0  0  0  0
   34.4210   29.9515   46.6677 H   0  0  0  0  0  0  0  0  0  0  0  0
   39.3444   33.1291   47.0932 H   0  0  0  0  0  0  0  0  0  0  0  0
   40.4476   31.7543   46.9123 H   0  0  0  0  0  0  0  0  0  0  0  0
   40.5545   34.0740   45.3820 H   0  0  0  0  0  0  0  0  0  0  0  0
   41.2308   32.5512   44.8409 H   0  0  0  0  0  0  0  0  0  0  0  0
   39.6032   33.0100   43.1546 H   0  0  0  0  0  0  0  0  0  0  0  0
   38.4673   33.7378   44.2508 H   0  0  0  0  0  0  0  0  0  0  0  0
   40.2470   30.7976   43.2255 H   0  0  0  0  0  0  0  0  0  0  0  0
   40.4450   30.4213   44.9508 H   0  0  0  0  0  0  0  0  0  0  0  0
  2  1  2  0
  3  2  1  0
  4  3  2  0
  4  5  1  0
  5  6  2  0
  6  1  1  0
  7  8  1  0
  7  3  1  0
  9  8  1  0
 10 11  1  0
 10  9  1  0
 11 12  1  6
 11  7  1  0
 12 13  1  0
 12 14  1  0
 15 12  1  0
 16 11  1  0
 17 16  1  0
 18 21  1  0
 18 17  1  0
 19 18  1  0
 20 18  1  0
  1 22  1  0
  2 23  1  0
  5 24  1  0
  8 25  1  0
  8 26  1  0
  9 27  1  0
  9 28  1  0
 10 29  1  0
 10 30  1  0
 16 31  1  0
 16 32  1  0
M  ISO  8  22  14  23  14  24  14  25  13  26  13  27  13  28  13  29  13
M  ISO  3  30  13  31   8  32   8
M  END
>  <minimizedAffinity>  (1) 
-4.65987682

>  <minimizedRMSD>  (1) 
1.05061996

$$$$
