
     RDKit          3D

 31 32  0  0  1  0  0  0  0  0999 V2000
   36.6860   29.9050   49.0430 C   0  0  0  0  0  0  0  0  0  0  0  0
   37.7070   30.5800   48.3420 C   0  0  0  0  0  0  0  0  0  0  0  0
   37.4790   30.8940   46.9970 C   0  0  0  0  0  0  0  0  0  0  0  0
   36.3030   30.5370   46.4520 N   0  0  0  0  0  0  0  0  0  0  0  0
   35.3460   29.8920   47.1490 C   0  0  0  0  0  0  0  0  0  0  0  0
   35.5400   29.5810   48.4320 N   0  0  0  0  0  0  0  0  0  0  0  0
   38.4580   31.5660   46.2450 N   0  0  0  0  0  0  0  0  0  0  0  0
   39.4350   32.5030   46.7870 C   0  0  0  0  0  0  0  0  0  0  0  0
   40.1180   33.1430   45.6210 C   0  0  0  0  0  0  0  0  0  0  0  0
   39.1650   32.8900   44.5130 C   0  0  0  0  0  0  0  0  0  0  0  0
   38.7020   31.4840   44.8470 C   0  0  2  0  0  0  0  0  0  0  0  0
   37.5940   31.0390   43.9570 C   0  0  0  0  0  0  0  0  0  0  0  0
   36.4630   31.7490   44.3370 F   0  0  0  0  0  0  0  0  0  0  0  0
   37.2750   29.7230   44.0260 F   0  0  0  0  0  0  0  0  0  0  0  0
   37.9060   31.4720   42.6770 F   0  0  0  0  0  0  0  0  0  0  0  0
   39.8480   30.5350   44.6540 C   0  0  0  0  0  0  0  0  0  0  0  0
   40.3690   30.8150   43.5790 O   0  0  0  0  0  0  0  0  0  0  0  0
   40.8640   30.0350   42.5460 C   0  0  0  0  0  0  0  0  0  0  0  0
   40.6810   30.6030   41.4310 O   0  0  0  0  0  0  0  0  0  0  0  0
   36.8328   29.6426   50.1011 H   0  0  0  0  0  0  0  0  0  0  0  0
   38.6517   30.8509   48.8361 H   0  0  0  0  0  0  0  0  0  0  0  0
   34.4001   29.6207   46.6573 H   0  0  0  0  0  0  0  0  0  0  0  0
   38.9289   33.2674   47.3949 H   0  0  0  0  0  0  0  0  0  0  0  0
   40.1603   31.9855   47.4321 H   0  0  0  0  0  0  0  0  0  0  0  0
   40.2591   34.2214   45.7857 H   0  0  0  0  0  0  0  0  0  0  0  0
   41.1264   32.7466   45.4315 H   0  0  0  0  0  0  0  0  0  0  0  0
   39.6642   32.9293   43.5336 H   0  0  0  0  0  0  0  0  0  0  0  0
   38.3537   33.6286   44.4343 H   0  0  0  0  0  0  0  0  0  0  0  0
   40.5772   30.6527   45.4691 H   0  0  0  0  0  0  0  0  0  0  0  0
   39.4990   29.4918   44.6610 H   0  0  0  0  0  0  0  0  0  0  0  0
   41.3492   29.0566   42.6777 H   0  0  0  0  0  0  0  0  0  0  0  0
  2  1  2  0
  3  2  1  0
  4  3  2  0
  4  5  1  0
  5  6  2  0
  6  1  1  0
  7  8  1  0
  7  3  1  0
  9  8  1  0
 10 11  1  0
 10  9  1  0
 11 12  1  6
 11  7  1  0
 12 14  1  0
 12 13  1  0
 15 12  1  0
 16 11  1  0
 17 16  1  0
 18 17  1  0
 19 18  2  0
  1 20  1  0
  2 21  1  0
  5 22  1  0
  8 23  1  0
  8 24  1  0
  9 25  1  0
  9 26  1  0
 10 27  1  0
 10 28  1  0
 16 29  1  0
 16 30  1  0
 18 31  1  0
M  ISO  8  20  14  21  14  22  14  23  13  24  13  25  13  26  13  27  13
M  ISO  4  28  13  29   8  30   8  31   6
M  END
>  <minimizedAffinity>  (1) 
-4.43574381

>  <minimizedRMSD>  (1) 
1.50932205

$$$$
