
     RDKit          3D

 46 48  0  0  1  0  0  0  0  0999 V2000
   36.7250   29.8150   49.4240 C   0  0  0  0  0  0  0  0  0  0  0  0
   37.7080   30.5140   48.6940 C   0  0  0  0  0  0  0  0  0  0  0  0
   37.4300   30.8200   47.3540 C   0  0  0  0  0  0  0  0  0  0  0  0
   36.2560   30.4340   46.8520 N   0  0  0  0  0  0  0  0  0  0  0  0
   35.3400   29.7670   47.5770 C   0  0  0  0  0  0  0  0  0  0  0  0
   35.5780   29.4630   48.8520 N   0  0  0  0  0  0  0  0  0  0  0  0
   38.3740   31.5140   46.5800 N   0  0  0  0  0  0  0  0  0  0  0  0
   39.3670   32.4680   47.0900 C   0  0  0  0  0  0  0  0  0  0  0  0
   40.0000   33.1190   45.9070 C   0  0  0  0  0  0  0  0  0  0  0  0
   39.0220   32.8500   44.8240 C   0  0  0  0  0  0  0  0  0  0  0  0
   38.5810   31.4520   45.1630 C   0  0  2  0  0  0  0  0  0  0  0  0
   37.4500   30.9720   44.3150 C   0  0  0  0  0  0  0  0  0  0  0  0
   36.3000   31.5540   44.8300 F   0  0  0  0  0  0  0  0  0  0  0  0
   37.2520   29.6250   44.2930 F   0  0  0  0  0  0  0  0  0  0  0  0
   37.6400   31.5320   43.0590 F   0  0  0  0  0  0  0  0  0  0  0  0
   39.7340   30.5310   44.9640 C   0  0  0  0  0  0  0  0  0  0  0  0
   40.2460   30.8320   43.8710 O   0  0  0  0  0  0  0  0  0  0  0  0
   40.5270   30.2160   42.6960 C   0  0  0  0  0  0  0  0  0  0  0  0
   40.4660   31.0680   41.7770 O   0  0  0  0  0  0  0  0  0  0  0  0
   40.8660   29.0590   41.9700 N   0  0  0  0  0  0  0  0  0  0  0  0
   40.1330   27.8540   42.2980 C   0  0  0  0  0  0  0  0  0  0  0  0
   39.8400   27.0260   41.0690 C   0  0  0  0  0  0  0  0  0  0  0  0
   39.6960   27.9690   39.9000 C   0  0  0  0  0  0  0  0  0  0  0  0
   41.0870   28.4990   39.6090 C   0  0  0  0  0  0  0  0  0  0  0  0
   41.8220   28.7220   40.9040 C   0  0  0  0  0  0  0  0  0  0  0  0
   36.9092   29.5583   50.4777 H   0  0  0  0  0  0  0  0  0  0  0  0
   38.6600   30.8091   49.1594 H   0  0  0  0  0  0  0  0  0  0  0  0
   34.3875   29.4704   47.1137 H   0  0  0  0  0  0  0  0  0  0  0  0
   38.8747   33.2248   47.7184 H   0  0  0  0  0  0  0  0  0  0  0  0
   40.1218   31.9554   47.7045 H   0  0  0  0  0  0  0  0  0  0  0  0
   40.1252   34.1998   46.0688 H   0  0  0  0  0  0  0  0  0  0  0  0
   41.0090   32.7395   45.6880 H   0  0  0  0  0  0  0  0  0  0  0  0
   39.4973   32.8928   43.8329 H   0  0  0  0  0  0  0  0  0  0  0  0
   38.2007   33.5796   44.7682 H   0  0  0  0  0  0  0  0  0  0  0  0
   40.4666   30.6598   45.7744 H   0  0  0  0  0  0  0  0  0  0  0  0
   39.4081   29.4804   44.9729 H   0  0  0  0  0  0  0  0  0  0  0  0
   40.7309   27.2527   42.9987 H   0  0  0  0  0  0  0  0  0  0  0  0
   39.1742   28.1483   42.7497 H   0  0  0  0  0  0  0  0  0  0  0  0
   40.6673   26.3250   40.8843 H   0  0  0  0  0  0  0  0  0  0  0  0
   38.9168   26.4445   41.2091 H   0  0  0  0  0  0  0  0  0  0  0  0
   39.3014   27.4330   39.0242 H   0  0  0  0  0  0  0  0  0  0  0  0
   38.9958   28.7860   40.1284 H   0  0  0  0  0  0  0  0  0  0  0  0
   41.6366   27.7688   38.9968 H   0  0  0  0  0  0  0  0  0  0  0  0
   41.0092   29.4512   39.0637 H   0  0  0  0  0  0  0  0  0  0  0  0
   42.3654   27.8056   41.1776 H   0  0  0  0  0  0  0  0  0  0  0  0
   42.5328   29.5521   40.7790 H   0  0  0  0  0  0  0  0  0  0  0  0
  2  1  2  0
  3  2  1  0
  4  3  2  0
  4  5  1  0
  5  6  2  0
  6  1  1  0
  7  8  1  0
  7  3  1  0
  9  8  1  0
 10 11  1  0
 10  9  1  0
 11 12  1  6
 11  7  1  0
 12 13  1  0
 14 12  1  0
 15 12  1  0
 16 11  1  0
 17 16  1  0
 18 17  1  0
 19 18  2  0
 20 21  1  0
 20 18  1  0
 22 21  1  0
 23 22  1  0
 24 23  1  0
 24 25  1  0
 25 20  1  0
  1 26  1  0
  2 27  1  0
  5 28  1  0
  8 29  1  0
  8 30  1  0
  9 31  1  0
  9 32  1  0
 10 33  1  0
 10 34  1  0
 16 35  1  0
 16 36  1  0
 21 37  1  0
 21 38  1  0
 22 39  1  0
 22 40  1  0
 23 41  1  0
 23 42  1  0
 24 43  1  0
 24 44  1  0
 25 45  1  0
 25 46  1  0
M  ISO  8  26  14  27  14  28  14  29  13  30  13  31  13  32  13  33  13
M  ISO  8  34  13  35   8  36   8  37  13  38  13  39  13  40  13  41  13
M  ISO  5  42  13  43  13  44  13  45  13  46  13
M  END
>  <minimizedAffinity>  (1) 
-5.44579268

>  <minimizedRMSD>  (1) 
0.731212139

$$$$
