
     RDKit          3D

 45 47  0  0  1  0  0  0  0  0999 V2000
   36.7150   29.8670   49.5000 C   0  0  0  0  0  0  0  0  0  0  0  0
   37.6990   30.5660   48.7920 C   0  0  0  0  0  0  0  0  0  0  0  0
   37.4370   30.8700   47.4410 C   0  0  0  0  0  0  0  0  0  0  0  0
   36.2750   30.4760   46.9190 N   0  0  0  0  0  0  0  0  0  0  0  0
   35.3510   29.8030   47.6350 C   0  0  0  0  0  0  0  0  0  0  0  0
   35.5740   29.5030   48.9150 N   0  0  0  0  0  0  0  0  0  0  0  0
   38.3940   31.5690   46.6840 N   0  0  0  0  0  0  0  0  0  0  0  0
   39.3680   32.5300   47.2100 C   0  0  0  0  0  0  0  0  0  0  0  0
   40.0190   33.1790   46.0350 C   0  0  0  0  0  0  0  0  0  0  0  0
   39.0590   32.9000   44.9330 C   0  0  0  0  0  0  0  0  0  0  0  0
   38.6260   31.5000   45.2710 C   0  0  2  0  0  0  0  0  0  0  0  0
   37.5140   31.0060   44.4060 C   0  0  0  0  0  0  0  0  0  0  0  0
   36.3510   31.5990   44.8790 F   0  0  0  0  0  0  0  0  0  0  0  0
   37.3150   29.6600   44.4020 F   0  0  0  0  0  0  0  0  0  0  0  0
   37.7310   31.5470   43.1460 F   0  0  0  0  0  0  0  0  0  0  0  0
   39.7900   30.5870   45.0970 C   0  0  0  0  0  0  0  0  0  0  0  0
   40.2850   30.8560   43.9880 O   0  0  0  0  0  0  0  0  0  0  0  0
   40.4970   30.2170   42.8120 C   0  0  0  0  0  0  0  0  0  0  0  0
   40.6080   31.0770   41.9050 O   0  0  0  0  0  0  0  0  0  0  0  0
   40.6650   29.0440   42.0520 N   0  0  0  0  0  0  0  0  0  0  0  0
   39.6280   28.1390   42.5020 C   0  0  0  0  0  0  0  0  0  0  0  0
   39.7570   26.8540   41.7550 C   0  0  0  0  0  0  0  0  0  0  0  0
   39.7360   27.1410   40.3380 N   0  0  0  0  0  0  0  0  0  0  0  0
   40.8990   27.8730   39.9070 C   0  0  0  0  0  0  0  0  0  0  0  0
   41.5780   28.6190   41.0170 C   0  0  0  0  0  0  0  0  0  0  0  0
   36.8859   29.6138   50.5567 H   0  0  0  0  0  0  0  0  0  0  0  0
   38.6419   30.8670   49.2720 H   0  0  0  0  0  0  0  0  0  0  0  0
   34.4066   29.4994   47.1596 H   0  0  0  0  0  0  0  0  0  0  0  0
   38.8582   33.2863   47.8249 H   0  0  0  0  0  0  0  0  0  0  0  0
   40.1134   32.0266   47.8432 H   0  0  0  0  0  0  0  0  0  0  0  0
   40.1364   34.2611   46.1942 H   0  0  0  0  0  0  0  0  0  0  0  0
   41.0334   32.8032   45.8355 H   0  0  0  0  0  0  0  0  0  0  0  0
   39.5501   32.9438   43.9497 H   0  0  0  0  0  0  0  0  0  0  0  0
   38.2332   33.6229   44.8596 H   0  0  0  0  0  0  0  0  0  0  0  0
   40.5286   30.7562   45.8944 H   0  0  0  0  0  0  0  0  0  0  0  0
   39.4811   29.5326   45.1505 H   0  0  0  0  0  0  0  0  0  0  0  0
   39.7412   27.9532   43.5803 H   0  0  0  0  0  0  0  0  0  0  0  0
   38.6382   28.5819   42.3175 H   0  0  0  0  0  0  0  0  0  0  0  0
   40.7058   26.3647   42.0201 H   0  0  0  0  0  0  0  0  0  0  0  0
   38.9255   26.1826   42.0152 H   0  0  0  0  0  0  0  0  0  0  0  0
   39.6954   26.2510   39.8211 H   0  0  0  0  0  0  0  0  0  0  0  0
   41.6179   27.1620   39.4739 H   0  0  0  0  0  0  0  0  0  0  0  0
   40.5597   28.6195   39.1738 H   0  0  0  0  0  0  0  0  0  0  0  0
   42.3374   27.9628   41.4672 H   0  0  0  0  0  0  0  0  0  0  0  0
   42.0247   29.5243   40.5801 H   0  0  0  0  0  0  0  0  0  0  0  0
  2  1  2  0
  3  2  1  0
  4  3  2  0
  4  5  1  0
  5  6  2  0
  6  1  1  0
  7  8  1  0
  7  3  1  0
  9  8  1  0
 10 11  1  0
 10  9  1  0
 11 12  1  6
 11  7  1  0
 12 13  1  0
 14 12  1  0
 15 12  1  0
 16 11  1  0
 17 16  1  0
 18 17  1  0
 19 18  2  0
 20 21  1  0
 20 18  1  0
 22 21  1  0
 23 22  1  0
 24 23  1  0
 24 25  1  0
 25 20  1  0
  1 26  1  0
  2 27  1  0
  5 28  1  0
  8 29  1  0
  8 30  1  0
  9 31  1  0
  9 32  1  0
 10 33  1  0
 10 34  1  0
 16 35  1  0
 16 36  1  0
 21 37  1  0
 21 38  1  0
 22 39  1  0
 22 40  1  0
 23 41  1  0
 24 42  1  0
 24 43  1  0
 25 44  1  0
 25 45  1  0
M  ISO  8  26  14  27  14  28  14  29  13  30  13  31  13  32  13  33  13
M  ISO  8  34  13  35   8  36   8  37  13  38  13  39  13  40  13  41   5
M  ISO  4  42  13  43  13  44  13  45  13
M  END
>  <minimizedAffinity>  (1) 
-5.41032267

>  <minimizedRMSD>  (1) 
0.938336194

$$$$
