
     RDKit          3D

 45 47  0  0  1  0  0  0  0  0999 V2000
   36.7740   29.9490   49.3290 C   0  0  0  0  0  0  0  0  0  0  0  0
   37.7670   30.6290   48.6040 C   0  0  0  0  0  0  0  0  0  0  0  0
   37.5190   30.9060   47.2520 C   0  0  0  0  0  0  0  0  0  0  0  0
   36.3540   30.5080   46.7360 N   0  0  0  0  0  0  0  0  0  0  0  0
   35.4190   29.8580   47.4540 C   0  0  0  0  0  0  0  0  0  0  0  0
   35.6380   29.5860   48.7380 N   0  0  0  0  0  0  0  0  0  0  0  0
   38.4810   31.5820   46.4800 N   0  0  0  0  0  0  0  0  0  0  0  0
   39.4590   32.5500   46.9920 C   0  0  0  0  0  0  0  0  0  0  0  0
   40.1080   33.1770   45.7970 C   0  0  0  0  0  0  0  0  0  0  0  0
   39.1610   32.8710   44.7050 C   0  0  0  0  0  0  0  0  0  0  0  0
   38.7180   31.4820   45.0700 C   0  0  2  0  0  0  0  0  0  0  0  0
   37.6050   30.9740   44.2170 C   0  0  0  0  0  0  0  0  0  0  0  0
   36.4510   31.6110   44.6490 F   0  0  0  0  0  0  0  0  0  0  0  0
   37.3770   29.6340   44.2640 F   0  0  0  0  0  0  0  0  0  0  0  0
   37.8520   31.4600   42.9410 F   0  0  0  0  0  0  0  0  0  0  0  0
   39.8720   30.5600   44.9210 C   0  0  0  0  0  0  0  0  0  0  0  0
   40.3750   30.7730   43.8130 O   0  0  0  0  0  0  0  0  0  0  0  0
   40.6980   30.0810   42.6940 C   0  0  0  0  0  0  0  0  0  0  0  0
   40.6820   30.8790   41.7190 O   0  0  0  0  0  0  0  0  0  0  0  0
   41.0720   28.8410   42.0070 C   0  0  0  0  0  0  0  0  0  0  0  0
   39.8020   27.9830   41.8710 C   0  0  0  0  0  0  0  0  0  0  0  0
   40.1670   26.9680   40.8050 C   0  0  0  0  0  0  0  0  0  0  0  0
   40.0530   27.6800   39.6260 O   0  0  0  0  0  0  0  0  0  0  0  0
   41.0910   28.5530   39.4800 C   0  0  0  0  0  0  0  0  0  0  0  0
   41.6830   29.1590   40.6860 C   0  0  0  0  0  0  0  0  0  0  0  0
   36.9364   29.7152   50.3915 H   0  0  0  0  0  0  0  0  0  0  0  0
   38.7094   30.9345   49.0820 H   0  0  0  0  0  0  0  0  0  0  0  0
   34.4749   29.5520   46.9797 H   0  0  0  0  0  0  0  0  0  0  0  0
   38.9526   33.3179   47.5952 H   0  0  0  0  0  0  0  0  0  0  0  0
   40.2038   32.0583   47.6350 H   0  0  0  0  0  0  0  0  0  0  0  0
   40.2185   34.2631   45.9316 H   0  0  0  0  0  0  0  0  0  0  0  0
   41.1239   32.7999   45.6079 H   0  0  0  0  0  0  0  0  0  0  0  0
   39.6595   32.8888   43.7246 H   0  0  0  0  0  0  0  0  0  0  0  0
   38.3369   33.5936   44.6115 H   0  0  0  0  0  0  0  0  0  0  0  0
   40.6112   30.7521   45.7126 H   0  0  0  0  0  0  0  0  0  0  0  0
   39.5455   29.5129   45.0042 H   0  0  0  0  0  0  0  0  0  0  0  0
   41.8256   28.2771   42.5764 H   0  0  0  0  0  0  0  0  0  0  0  0
   39.5617   27.4844   42.8216 H   0  0  0  0  0  0  0  0  0  0  0  0
   38.9130   28.5755   41.6092 H   0  0  0  0  0  0  0  0  0  0  0  0
   41.1952   26.6031   40.9457 H   0  0  0  0  0  0  0  0  0  0  0  0
   39.5261   26.0743   40.8284 H   0  0  0  0  0  0  0  0  0  0  0  0
   41.8966   28.0137   38.9603 H   0  0  0  0  0  0  0  0  0  0  0  0
   40.6488   29.4053   38.9433 H   0  0  0  0  0  0  0  0  0  0  0  0
   42.7349   28.8402   40.7282 H   0  0  0  0  0  0  0  0  0  0  0  0
   41.5124   30.2384   40.5600 H   0  0  0  0  0  0  0  0  0  0  0  0
  2  1  2  0
  3  2  1  0
  4  3  2  0
  4  5  1  0
  5  6  2  0
  6  1  1  0
  7  8  1  0
  7  3  1  0
  9  8  1  0
 10 11  1  0
 10  9  1  0
 11 12  1  6
 11  7  1  0
 12 14  1  0
 12 13  1  0
 15 12  1  0
 16 11  1  0
 17 16  1  0
 18 17  1  0
 19 18  2  0
 20 18  1  0
 21 20  1  0
 22 21  1  0
 23 22  1  0
 24 23  1  0
 24 25  1  0
 25 20  1  0
  1 26  1  0
  2 27  1  0
  5 28  1  0
  8 29  1  0
  8 30  1  0
  9 31  1  0
  9 32  1  0
 10 33  1  0
 10 34  1  0
 16 35  1  0
 16 36  1  0
 20 37  1  0
 21 38  1  0
 21 39  1  0
 22 40  1  0
 22 41  1  0
 24 42  1  0
 24 43  1  0
 25 44  1  0
 25 45  1  0
M  ISO  8  26  14  27  14  28  14  29  13  30  13  31  13  32  13  33  13
M  ISO  8  34  13  35   8  36   8  37  13  38  13  39  13  40  13  41  13
M  ISO  4  42  13  43  13  44  13  45  13
M  END
>  <minimizedAffinity>  (1) 
-5.23699999

>  <minimizedRMSD>  (1) 
0.851423204

$$$$
