
     RDKit          3D

 32 33  0  0  1  0  0  0  0  0999 V2000
   36.6800   29.9090   49.0400 C   0  0  0  0  0  0  0  0  0  0  0  0
   37.7140   30.5780   48.3530 C   0  0  0  0  0  0  0  0  0  0  0  0
   37.5040   30.8840   46.9990 C   0  0  0  0  0  0  0  0  0  0  0  0
   36.3420   30.5210   46.4500 N   0  0  0  0  0  0  0  0  0  0  0  0
   35.3770   29.8840   47.1310 C   0  0  0  0  0  0  0  0  0  0  0  0
   35.5520   29.5820   48.4200 N   0  0  0  0  0  0  0  0  0  0  0  0
   38.5040   31.5500   46.2620 N   0  0  0  0  0  0  0  0  0  0  0  0
   39.4860   32.4850   46.8060 C   0  0  0  0  0  0  0  0  0  0  0  0
   40.1900   33.1020   45.6450 C   0  0  0  0  0  0  0  0  0  0  0  0
   39.2550   32.8430   44.5230 C   0  0  0  0  0  0  0  0  0  0  0  0
   38.7700   31.4590   44.8570 C   0  0  2  0  0  0  0  0  0  0  0  0
   37.6650   30.9940   43.9640 C   0  0  0  0  0  0  0  0  0  0  0  0
   36.5370   31.7140   44.3250 F   0  0  0  0  0  0  0  0  0  0  0  0
   37.3490   29.6720   44.0450 F   0  0  0  0  0  0  0  0  0  0  0  0
   38.0000   31.4190   42.6920 F   0  0  0  0  0  0  0  0  0  0  0  0
   39.8950   30.4990   44.7150 C   0  0  0  0  0  0  0  0  0  0  0  0
   40.4280   30.7220   43.6180 O   0  0  0  0  0  0  0  0  0  0  0  0
   40.9950   30.0110   42.6140 C   0  0  0  0  0  0  0  0  0  0  0  0
   40.7640   30.5990   41.5260 O   0  0  0  0  0  0  0  0  0  0  0  0
   41.7210   28.9380   42.1590 O   0  0  0  0  0  0  0  0  0  0  0  0
   36.8093   29.6549   50.1024 H   0  0  0  0  0  0  0  0  0  0  0  0
   38.6515   30.8503   48.8598 H   0  0  0  0  0  0  0  0  0  0  0  0
   34.4390   29.6098   46.6260 H   0  0  0  0  0  0  0  0  0  0  0  0
   38.9803   33.2622   47.3977 H   0  0  0  0  0  0  0  0  0  0  0  0
   40.1972   31.9674   47.4665 H   0  0  0  0  0  0  0  0  0  0  0  0
   40.3370   34.1813   45.7980 H   0  0  0  0  0  0  0  0  0  0  0  0
   41.1975   32.6934   45.4774 H   0  0  0  0  0  0  0  0  0  0  0  0
   39.7738   32.8648   43.5533 H   0  0  0  0  0  0  0  0  0  0  0  0
   38.4532   33.5895   44.4233 H   0  0  0  0  0  0  0  0  0  0  0  0
   40.6233   30.6485   45.5257 H   0  0  0  0  0  0  0  0  0  0  0  0
   39.5339   29.4615   44.7713 H   0  0  0  0  0  0  0  0  0  0  0  0
   41.9021   28.8376   41.1909 H   0  0  0  0  0  0  0  0  0  0  0  0
  2  1  2  0
  3  2  1  0
  4  3  2  0
  4  5  1  0
  5  6  2  0
  6  1  1  0
  7  8  1  0
  7  3  1  0
  9  8  1  0
 10 11  1  0
 10  9  1  0
 11 12  1  6
 11  7  1  0
 12 14  1  0
 12 13  1  0
 15 12  1  0
 16 11  1  0
 17 16  1  0
 18 17  1  0
 19 18  2  0
 20 18  1  0
  1 21  1  0
  2 22  1  0
  5 23  1  0
  8 24  1  0
  8 25  1  0
  9 26  1  0
  9 27  1  0
 10 28  1  0
 10 29  1  0
 16 30  1  0
 16 31  1  0
 20 32  1  0
M  ISO  8  21  14  22  14  23  14  24  13  25  13  26  13  27  13  28  13
M  ISO  4  29  13  30   8  31   8  32   3
M  END
>  <minimizedAffinity>  (1) 
-4.89144421

>  <minimizedRMSD>  (1) 
0.0822241679

$$$$
