
     RDKit          3D

 33 34  0  0  1  0  0  0  0  0999 V2000
   36.6940   29.9540   49.0150 C   0  0  0  0  0  0  0  0  0  0  0  0
   37.7060   30.6240   48.3110 C   0  0  0  0  0  0  0  0  0  0  0  0
   37.4870   30.9180   46.9600 C   0  0  0  0  0  0  0  0  0  0  0  0
   36.3260   30.5450   46.4180 N   0  0  0  0  0  0  0  0  0  0  0  0
   35.3720   29.9020   47.1190 C   0  0  0  0  0  0  0  0  0  0  0  0
   35.5590   29.6130   48.4030 N   0  0  0  0  0  0  0  0  0  0  0  0
   38.4700   31.5860   46.2120 N   0  0  0  0  0  0  0  0  0  0  0  0
   39.4580   32.5320   46.7490 C   0  0  0  0  0  0  0  0  0  0  0  0
   40.1410   33.1570   45.5820 C   0  0  0  0  0  0  0  0  0  0  0  0
   39.2010   32.8850   44.4600 C   0  0  0  0  0  0  0  0  0  0  0  0
   38.7300   31.5000   44.8040 C   0  0  2  0  0  0  0  0  0  0  0  0
   37.6240   31.0250   43.9230 C   0  0  0  0  0  0  0  0  0  0  0  0
   36.4950   31.7470   44.2780 F   0  0  0  0  0  0  0  0  0  0  0  0
   37.3090   29.7010   44.0250 F   0  0  0  0  0  0  0  0  0  0  0  0
   37.9510   31.4250   42.6370 F   0  0  0  0  0  0  0  0  0  0  0  0
   39.8720   30.5520   44.6620 C   0  0  0  0  0  0  0  0  0  0  0  0
   40.3110   30.7000   43.5090 O   0  0  0  0  0  0  0  0  0  0  0  0
   41.0000   29.9620   42.6040 C   0  0  0  0  0  0  0  0  0  0  0  0
   40.7750   30.4190   41.4570 O   0  0  0  0  0  0  0  0  0  0  0  0
   41.8740   28.9070   42.2820 N   0  0  0  0  0  0  0  0  0  0  0  0
   36.8375   29.7086   50.0776 H   0  0  0  0  0  0  0  0  0  0  0  0
   38.6453   30.9103   48.8068 H   0  0  0  0  0  0  0  0  0  0  0  0
   34.4320   29.6142   46.6256 H   0  0  0  0  0  0  0  0  0  0  0  0
   38.9545   33.3036   47.3499 H   0  0  0  0  0  0  0  0  0  0  0  0
   40.1817   32.0176   47.3984 H   0  0  0  0  0  0  0  0  0  0  0  0
   40.2734   34.2384   45.7338 H   0  0  0  0  0  0  0  0  0  0  0  0
   41.1518   32.7600   45.4071 H   0  0  0  0  0  0  0  0  0  0  0  0
   39.7161   32.9060   43.4883 H   0  0  0  0  0  0  0  0  0  0  0  0
   38.3931   33.6246   44.3581 H   0  0  0  0  0  0  0  0  0  0  0  0
   40.6540   30.7856   45.3995 H   0  0  0  0  0  0  0  0  0  0  0  0
   39.5519   29.5141   44.8361 H   0  0  0  0  0  0  0  0  0  0  0  0
   42.1270   28.7295   41.2995 H   0  0  0  0  0  0  0  0  0  0  0  0
   42.2606   28.3124   43.0289 H   0  0  0  0  0  0  0  0  0  0  0  0
  2  1  2  0
  3  2  1  0
  4  3  2  0
  4  5  1  0
  5  6  2  0
  6  1  1  0
  7  8  1  0
  7  3  1  0
  9  8  1  0
 10 11  1  0
 10  9  1  0
 11 12  1  6
 11  7  1  0
 12 14  1  0
 12 13  1  0
 15 12  1  0
 16 11  1  0
 17 16  1  0
 18 17  1  0
 19 18  2  0
 20 18  1  0
  1 21  1  0
  2 22  1  0
  5 23  1  0
  8 24  1  0
  8 25  1  0
  9 26  1  0
  9 27  1  0
 10 28  1  0
 10 29  1  0
 16 30  1  0
 16 31  1  0
 20 32  1  0
 20 33  1  0
M  ISO  8  21  14  22  14  23  14  24  13  25  13  26  13  27  13  28  13
M  ISO  3  29  13  30   8  31   8
M  END
>  <minimizedAffinity>  (1) 
-5.163764

>  <minimizedRMSD>  (1) 
0.112215035

$$$$
