
     RDKit          3D

 40 42  0  0  1  0  0  0  0  0999 V2000
   37.2200   30.0240   48.7990 C   0  0  0  0  0  0  0  0  0  0  0  0
   38.1850   30.5290   47.9060 C   0  0  0  0  0  0  0  0  0  0  0  0
   37.7310   30.9080   46.6410 C   0  0  0  0  0  0  0  0  0  0  0  0
   36.4300   30.7790   46.3440 N   0  0  0  0  0  0  0  0  0  0  0  0
   35.5370   30.2910   47.2290 C   0  0  0  0  0  0  0  0  0  0  0  0
   35.9310   29.9190   48.4440 N   0  0  0  0  0  0  0  0  0  0  0  0
   38.6200   31.4070   45.6930 N   0  0  0  0  0  0  0  0  0  0  0  0
   39.8460   32.1990   45.9810 C   0  0  0  0  0  0  0  0  0  0  0  0
   40.3450   32.7540   44.7040 C   0  0  0  0  0  0  0  0  0  0  0  0
   39.2020   32.6220   43.8040 C   0  0  0  0  0  0  0  0  0  0  0  0
   38.6280   31.3390   44.2660 C   0  0  2  0  0  0  0  0  0  0  0  0
   37.2480   31.1240   43.6390 C   0  0  0  0  0  0  0  0  0  0  0  0
   36.4730   32.2290   43.9240 F   0  0  0  0  0  0  0  0  0  0  0  0
   36.5610   30.0380   44.0850 F   0  0  0  0  0  0  0  0  0  0  0  0
   37.4360   31.1250   42.2710 F   0  0  0  0  0  0  0  0  0  0  0  0
   39.4130   30.1960   43.8870 C   0  0  2  0  0  0  0  0  0  0  0  0
   40.1350   30.2220   42.4770 C   0  0  0  0  0  0  0  0  0  0  0  0
   41.3400   29.4950   42.2450 C   0  0  0  0  0  0  0  0  0  0  0  0
   41.7770   29.6560   40.9510 C   0  0  0  0  0  0  0  0  0  0  0  0
   40.8040   30.4840   40.4510 C   0  0  0  0  0  0  0  0  0  0  0  0
   39.8950   30.7870   41.3220 O   0  0  0  0  0  0  0  0  0  0  0  0
   38.6320   29.2240   43.7270 O   0  0  0  0  0  0  0  0  0  0  0  0
   38.6350   27.9640   43.2600 C   0  0  0  0  0  0  0  0  0  0  0  0
   37.7000   27.7510   42.4850 O   0  0  0  0  0  0  0  0  0  0  0  0
   39.2560   26.6850   43.2360 N   0  0  0  0  0  0  0  0  0  0  0  0
   37.5295   29.7098   49.8067 H   0  0  0  0  0  0  0  0  0  0  0  0
   39.2435   30.6203   48.1908 H   0  0  0  0  0  0  0  0  0  0  0  0
   34.4782   30.2002   46.9450 H   0  0  0  0  0  0  0  0  0  0  0  0
   39.6063   33.0180   46.6751 H   0  0  0  0  0  0  0  0  0  0  0  0
   40.6123   31.5601   46.4442 H   0  0  0  0  0  0  0  0  0  0  0  0
   40.6340   33.8090   44.8202 H   0  0  0  0  0  0  0  0  0  0  0  0
   41.2429   32.2371   44.3344 H   0  0  0  0  0  0  0  0  0  0  0  0
   39.5197   32.5674   42.7523 H   0  0  0  0  0  0  0  0  0  0  0  0
   38.5013   33.4695   43.8324 H   0  0  0  0  0  0  0  0  0  0  0  0
   40.1677   30.1553   44.6862 H   0  0  0  0  0  0  0  0  0  0  0  0
   41.8532   28.8847   43.0028 H   0  0  0  0  0  0  0  0  0  0  0  0
   42.6636   29.2361   40.4533 H   0  0  0  0  0  0  0  0  0  0  0  0
   40.7968   30.8532   39.4148 H   0  0  0  0  0  0  0  0  0  0  0  0
   38.8555   25.9287   42.6628 H   0  0  0  0  0  0  0  0  0  0  0  0
   40.1063   26.5148   43.7919 H   0  0  0  0  0  0  0  0  0  0  0  0
  2  1  2  0
  3  2  1  0
  4  3  2  0
  4  5  1  0
  5  6  2  0
  6  1  1  0
  7  8  1  0
  7  3  1  0
  9  8  1  0
 10 11  1  0
 10  9  1  0
 11 12  1  6
 11  7  1  0
 12 13  1  0
 12 14  1  0
 15 12  1  0
 16 11  1  0
 17 16  1  0
 18 17  2  0
 19 18  1  0
 20 19  2  0
 20 21  1  0
 21 17  1  0
 22 16  1  0
 23 22  1  0
 24 23  2  0
 25 23  1  0
  1 26  1  0
  2 27  1  0
  5 28  1  0
  8 29  1  0
  8 30  1  0
  9 31  1  0
  9 32  1  0
 10 33  1  0
 10 34  1  0
 16 35  1  1
 18 36  1  0
 19 37  1  0
 20 38  1  0
 25 39  1  0
 25 40  1  0
M  ISO  8  26  14  27  14  28  14  29  13  30  13  31  13  32  13  33  13
M  ISO  5  34  13  35   8  36  14  37  14  38  14
M  END
>  <minimizedAffinity>  (1) 
-4.81514788

>  <minimizedRMSD>  (1) 
2.81228113

$$$$
