
     RDKit          3D

 34 35  0  0  1  0  0  0  0  0999 V2000
   36.8800   30.2830   49.3110 C   0  0  0  0  0  0  0  0  0  0  0  0
   37.8650   30.8740   48.4990 C   0  0  0  0  0  0  0  0  0  0  0  0
   37.5690   31.0370   47.1360 C   0  0  0  0  0  0  0  0  0  0  0  0
   36.3810   30.6280   46.6850 N   0  0  0  0  0  0  0  0  0  0  0  0
   35.4590   30.0660   47.4890 C   0  0  0  0  0  0  0  0  0  0  0  0
   35.7070   29.8980   48.7820 N   0  0  0  0  0  0  0  0  0  0  0  0
   38.5150   31.6130   46.2860 N   0  0  0  0  0  0  0  0  0  0  0  0
   39.5540   32.6040   46.6680 C   0  0  0  0  0  0  0  0  0  0  0  0
   40.1440   33.1370   45.4090 C   0  0  0  0  0  0  0  0  0  0  0  0
   39.1780   32.7370   44.3760 C   0  0  0  0  0  0  0  0  0  0  0  0
   38.7320   31.4110   44.8860 C   0  0  2  0  0  0  0  0  0  0  0  0
   37.5670   30.8670   44.1020 C   0  0  0  0  0  0  0  0  0  0  0  0
   36.4710   31.6560   44.4020 F   0  0  0  0  0  0  0  0  0  0  0  0
   37.2120   29.5770   44.3800 F   0  0  0  0  0  0  0  0  0  0  0  0
   37.8540   31.0820   42.7720 F   0  0  0  0  0  0  0  0  0  0  0  0
   39.8060   30.4250   44.7750 C   0  0  2  0  0  0  0  0  0  0  0  0
   40.8150   30.7120   45.8530 O   0  0  0  0  0  0  0  0  0  0  0  0
   40.4490   30.6510   43.7460 O   0  0  0  0  0  0  0  0  0  0  0  0
   41.0290   30.0250   42.7030 C   0  0  0  0  0  0  0  0  0  0  0  0
   40.7360   30.5450   41.6240 O   0  0  0  0  0  0  0  0  0  0  0  0
   41.8800   28.9780   42.2600 N   0  0  0  0  0  0  0  0  0  0  0  0
   37.0713   30.1355   50.3841 H   0  0  0  0  0  0  0  0  0  0  0  0
   38.8306   31.1963   48.9159 H   0  0  0  0  0  0  0  0  0  0  0  0
   34.4936   29.7439   47.0715 H   0  0  0  0  0  0  0  0  0  0  0  0
   39.0992   33.4220   47.2460 H   0  0  0  0  0  0  0  0  0  0  0  0
   40.3286   32.1342   47.2919 H   0  0  0  0  0  0  0  0  0  0  0  0
   40.2402   34.2319   45.4535 H   0  0  0  0  0  0  0  0  0  0  0  0
   41.1571   32.7540   45.2170 H   0  0  0  0  0  0  0  0  0  0  0  0
   39.6575   32.6480   43.3900 H   0  0  0  0  0  0  0  0  0  0  0  0
   38.3607   33.4571   44.2226 H   0  0  0  0  0  0  0  0  0  0  0  0
   39.3665   29.4174   44.8145 H   0  0  0  0  0  0  0  0  0  0  0  0
   40.3930   30.5920   46.7404 H   0  0  0  0  0  0  0  0  0  0  0  0
   42.0662   28.8563   41.2543 H   0  0  0  0  0  0  0  0  0  0  0  0
   42.3111   28.3403   42.9444 H   0  0  0  0  0  0  0  0  0  0  0  0
  2  1  2  0
  3  2  1  0
  4  3  2  0
  4  5  1  0
  5  6  2  0
  6  1  1  0
  7  8  1  0
  7  3  1  0
  9  8  1  0
 10 11  1  0
 10  9  1  0
 11 12  1  6
 11  7  1  0
 12 14  1  0
 12 13  1  0
 15 12  1  0
 16 11  1  0
 16 17  1  0
 18 16  1  0
 19 18  1  0
 20 19  2  0
 21 19  1  0
  1 22  1  0
  2 23  1  0
  5 24  1  0
  8 25  1  0
  8 26  1  0
  9 27  1  0
  9 28  1  0
 10 29  1  0
 10 30  1  0
 16 31  1  6
 17 32  1  0
 21 33  1  0
 21 34  1  0
M  ISO  8  22  14  23  14  24  14  25  13  26  13  27  13  28  13  29  13
M  ISO  3  30  13  31   8  32   3
M  END
>  <minimizedAffinity>  (1) 
-5.73480844

>  <minimizedRMSD>  (1) 
0.283945113

$$$$
