
     RDKit          3D

 30 32  0  0  0  0  0  0  0  0999 V2000
   35.9310   29.2600   49.8130 C   0  0  0  0  0  0  0  0  0  0  0  0
   34.9650   29.7240   50.6480 C   0  0  0  0  0  0  0  0  0  0  0  0
   33.7360   29.1920   50.2270 C   0  0  0  0  0  0  0  0  0  0  0  0
   34.0610   28.4110   49.1180 C   0  0  0  0  0  0  0  0  0  0  0  0
   35.3410   28.4920   48.9310 O   0  0  0  0  0  0  0  0  0  0  0  0
   37.3330   29.6150   49.9590 C   0  0  0  0  0  0  0  0  0  0  0  0
   38.0040   29.0370   50.8350 O   0  0  0  0  0  0  0  0  0  0  0  0
   37.8570   30.6230   49.0690 C   0  0  0  0  0  0  0  0  0  0  0  0
   38.1980   31.8450   49.6330 C   0  0  0  0  0  0  0  0  0  0  0  0
   38.7070   32.8440   48.8050 C   0  0  0  0  0  0  0  0  0  0  0  0
   38.8440   32.5630   47.4720 N   0  0  0  0  0  0  0  0  0  0  0  0
   38.5090   31.3800   46.9580 C   0  0  0  0  0  0  0  0  0  0  0  0
   38.0170   30.4130   47.7540 N   0  0  0  0  0  0  0  0  0  0  0  0
   33.0880   27.6460   48.3280 C   0  0  0  0  0  0  0  0  0  0  0  0
   31.8720   27.6340   48.6660 O   0  0  0  0  0  0  0  0  0  0  0  0
   33.5080   26.9050   47.1670 C   0  0  0  0  0  0  0  0  0  0  0  0
   33.7920   25.5600   47.2780 C   0  0  0  0  0  0  0  0  0  0  0  0
   34.1900   24.9030   46.1280 C   0  0  0  0  0  0  0  0  0  0  0  0
   34.3170   25.5170   44.8850 C   0  0  0  0  0  0  0  0  0  0  0  0
   34.0160   26.8550   44.8620 C   0  0  0  0  0  0  0  0  0  0  0  0
   33.6210   27.5390   45.9660 N   0  0  0  0  0  0  0  0  0  0  0  0
   35.1188   30.3981   51.5036 H   0  0  0  0  0  0  0  0  0  0  0  0
   32.7426   29.3542   50.6708 H   0  0  0  0  0  0  0  0  0  0  0  0
   38.0691   32.0211   50.7111 H   0  0  0  0  0  0  0  0  0  0  0  0
   38.9897   33.8270   49.2097 H   0  0  0  0  0  0  0  0  0  0  0  0
   38.6349   31.1937   45.8812 H   0  0  0  0  0  0  0  0  0  0  0  0
   33.7057   25.0327   48.2395 H   0  0  0  0  0  0  0  0  0  0  0  0
   34.4203   23.8298   46.1998 H   0  0  0  0  0  0  0  0  0  0  0  0
   34.6357   24.9687   43.9862 H   0  0  0  0  0  0  0  0  0  0  0  0
   34.0982   27.3969   43.9083 H   0  0  0  0  0  0  0  0  0  0  0  0
  1  6  1  0
  1  2  2  0
  3  2  1  0
  4  3  2  0
  5  4  1  0
  5  1  1  0
  6  7  2  0
  8  9  2  0
  8  6  1  0
 10  9  1  0
 11 10  2  0
 12 11  1  0
 12 13  2  0
 13  8  1  0
 14 15  2  0
 14  4  1  0
 16 17  2  0
 16 14  1  0
 18 17  1  0
 19 18  2  0
 20 19  1  0
 20 21  2  0
 21 16  1  0
  2 22  1  0
  3 23  1  0
  9 24  1  0
 10 25  1  0
 12 26  1  0
 17 27  1  0
 18 28  1  0
 19 29  1  0
 20 30  1  0
M  ISO  8  22  14  23  14  24  14  25  14  26  14  27  14  28  14  29  14
M  ISO  1  30  14
M  END
>  <minimizedAffinity>  (1) 
-5.27200317

>  <minimizedRMSD>  (1) 
1.21560454

$$$$
