
     RDKit          3D

 31 33  0  0  0  0  0  0  0  0999 V2000
   35.8980   29.1850   49.8350 C   0  0  0  0  0  0  0  0  0  0  0  0
   34.9110   29.6450   50.6640 C   0  0  0  0  0  0  0  0  0  0  0  0
   33.6970   29.1240   50.1980 C   0  0  0  0  0  0  0  0  0  0  0  0
   34.0410   28.3620   49.0850 C   0  0  0  0  0  0  0  0  0  0  0  0
   35.3250   28.4360   48.9250 O   0  0  0  0  0  0  0  0  0  0  0  0
   37.2950   29.5320   50.0250 C   0  0  0  0  0  0  0  0  0  0  0  0
   37.9480   28.9300   50.8820 O   0  0  0  0  0  0  0  0  0  0  0  0
   37.8310   30.5830   49.1710 C   0  0  0  0  0  0  0  0  0  0  0  0
   38.1630   31.7790   49.8120 C   0  0  0  0  0  0  0  0  0  0  0  0
   38.6800   32.8110   49.0290 C   0  0  0  0  0  0  0  0  0  0  0  0
   38.8300   32.6000   47.6950 N   0  0  0  0  0  0  0  0  0  0  0  0
   38.4990   31.4350   47.1050 C   0  0  0  0  0  0  0  0  0  0  0  0
   38.0020   30.4380   47.8510 N   0  0  0  0  0  0  0  0  0  0  0  0
   33.0760   27.6180   48.2640 C   0  0  0  0  0  0  0  0  0  0  0  0
   31.8370   27.7010   48.5080 O   0  0  0  0  0  0  0  0  0  0  0  0
   34.1900   24.6790   46.3280 N   0  0  0  0  0  0  0  0  0  0  0  0
   33.7850   25.4450   47.3470 C   0  0  0  0  0  0  0  0  0  0  0  0
   33.5130   26.7860   47.1740 C   0  0  0  0  0  0  0  0  0  0  0  0
   33.7000   27.2420   45.8690 C   0  0  0  0  0  0  0  0  0  0  0  0
   33.4600   28.4790   45.6620 O   0  0  0  0  0  0  0  0  0  0  0  0
   34.1090   26.4530   44.8600 N   0  0  0  0  0  0  0  0  0  0  0  0
   34.3590   25.1520   45.0840 C   0  0  0  0  0  0  0  0  0  0  0  0
   34.7390   24.4400   44.1280 O   0  0  0  0  0  0  0  0  0  0  0  0
   35.0461   30.3025   51.5354 H   0  0  0  0  0  0  0  0  0  0  0  0
   32.6931   29.2822   50.6189 H   0  0  0  0  0  0  0  0  0  0  0  0
   38.0217   31.9025   50.8959 H   0  0  0  0  0  0  0  0  0  0  0  0
   38.9600   33.7739   49.4811 H   0  0  0  0  0  0  0  0  0  0  0  0
   38.6352   31.3030   46.0215 H   0  0  0  0  0  0  0  0  0  0  0  0
   34.3804   23.6826   46.5062 H   0  0  0  0  0  0  0  0  0  0  0  0
   33.6664   24.9959   48.3441 H   0  0  0  0  0  0  0  0  0  0  0  0
   34.2306   26.8458   43.9156 H   0  0  0  0  0  0  0  0  0  0  0  0
  1  6  1  0
  1  2  2  0
  3  2  1  0
  4  3  2  0
  5  4  1  0
  5  1  1  0
  6  7  2  0
  8  9  2  0
  8  6  1  0
 10  9  1  0
 11 10  2  0
 12 11  1  0
 12 13  2  0
 13  8  1  0
 14 15  2  0
 14  4  1  0
 16 17  1  0
 18 17  2  0
 18 14  1  0
 19 18  1  0
 20 19  2  0
 21 22  1  0
 21 19  1  0
 22 16  1  0
 23 22  2  0
  2 24  1  0
  3 25  1  0
  9 26  1  0
 10 27  1  0
 12 28  1  0
 16 29  1  0
 17 30  1  0
 21 31  1  0
M  ISO  8  24  14  25  14  26  14  27  14  28  14  29   9  30  14  31   9
M  END
>  <minimizedAffinity>  (1) 
-5.24436569

>  <minimizedRMSD>  (1) 
1.40519118

$$$$
