
     RDKit          3D

 29 31  0  0  0  0  0  0  0  0999 V2000
   35.8990   29.2130   49.8480 C   0  0  0  0  0  0  0  0  0  0  0  0
   34.9490   29.6880   50.6940 C   0  0  0  0  0  0  0  0  0  0  0  0
   33.7020   29.1990   50.2720 C   0  0  0  0  0  0  0  0  0  0  0  0
   34.0030   28.4290   49.1510 C   0  0  0  0  0  0  0  0  0  0  0  0
   35.3000   28.4830   48.9630 O   0  0  0  0  0  0  0  0  0  0  0  0
   37.3050   29.5310   50.0040 C   0  0  0  0  0  0  0  0  0  0  0  0
   37.9730   28.9020   50.8370 O   0  0  0  0  0  0  0  0  0  0  0  0
   37.8450   30.5860   49.1550 C   0  0  0  0  0  0  0  0  0  0  0  0
   38.1720   31.7770   49.7870 C   0  0  0  0  0  0  0  0  0  0  0  0
   38.6920   32.8150   49.0140 C   0  0  0  0  0  0  0  0  0  0  0  0
   38.8490   32.5990   47.6820 N   0  0  0  0  0  0  0  0  0  0  0  0
   38.5210   31.4310   47.1010 C   0  0  0  0  0  0  0  0  0  0  0  0
   38.0240   30.4360   47.8340 N   0  0  0  0  0  0  0  0  0  0  0  0
   33.0240   27.6900   48.3290 C   0  0  0  0  0  0  0  0  0  0  0  0
   31.8140   27.6880   48.6890 O   0  0  0  0  0  0  0  0  0  0  0  0
   33.4730   26.9990   47.1500 C   0  0  0  0  0  0  0  0  0  0  0  0
   33.8030   25.6570   47.2260 C   0  0  0  0  0  0  0  0  0  0  0  0
   34.2370   24.9560   46.1220 C   0  0  0  0  0  0  0  0  0  0  0  0
   34.3250   25.6440   44.9600 N   0  0  0  0  0  0  0  0  0  0  0  0
   34.0090   26.9450   44.8710 C   0  0  0  0  0  0  0  0  0  0  0  0
   33.5810   27.6160   45.9810 N   0  0  0  0  0  0  0  0  0  0  0  0
   35.1256   30.3427   51.5602 H   0  0  0  0  0  0  0  0  0  0  0  0
   32.7154   29.3818   50.7227 H   0  0  0  0  0  0  0  0  0  0  0  0
   38.0249   31.8996   50.8702 H   0  0  0  0  0  0  0  0  0  0  0  0
   38.9664   33.7783   49.4687 H   0  0  0  0  0  0  0  0  0  0  0  0
   38.6635   31.2973   46.0185 H   0  0  0  0  0  0  0  0  0  0  0  0
   33.7167   25.1372   48.1916 H   0  0  0  0  0  0  0  0  0  0  0  0
   34.4991   23.8894   46.1822 H   0  0  0  0  0  0  0  0  0  0  0  0
   34.0943   27.4692   43.9077 H   0  0  0  0  0  0  0  0  0  0  0  0
  1  6  1  0
  1  2  2  0
  3  2  1  0
  4  3  2  0
  5  4  1  0
  5  1  1  0
  6  7  2  0
  8  9  2  0
  8  6  1  0
 10  9  1  0
 11 10  2  0
 12 11  1  0
 12 13  2  0
 13  8  1  0
 14 15  2  0
 14  4  1  0
 16 17  2  0
 16 14  1  0
 18 17  1  0
 19 18  2  0
 20 19  1  0
 20 21  2  0
 21 16  1  0
  2 22  1  0
  3 23  1  0
  9 24  1  0
 10 25  1  0
 12 26  1  0
 17 27  1  0
 18 28  1  0
 20 29  1  0
M  ISO  8  22  14  23  14  24  14  25  14  26  14  27  14  28  14  29  14
M  END
>  <minimizedAffinity>  (1) 
-5.14927006

>  <minimizedRMSD>  (1) 
1.25761414

$$$$
