
     RDKit          3D

 28 30  0  0  0  0  0  0  0  0999 V2000
   35.8220   29.1350   49.8100 C   0  0  0  0  0  0  0  0  0  0  0  0
   34.8070   29.6500   50.5780 C   0  0  0  0  0  0  0  0  0  0  0  0
   33.6020   29.1130   50.0980 C   0  0  0  0  0  0  0  0  0  0  0  0
   33.9840   28.2890   49.0460 C   0  0  0  0  0  0  0  0  0  0  0  0
   35.2820   28.3380   48.9200 O   0  0  0  0  0  0  0  0  0  0  0  0
   37.2150   29.4830   50.0340 C   0  0  0  0  0  0  0  0  0  0  0  0
   37.8540   28.8780   50.9020 O   0  0  0  0  0  0  0  0  0  0  0  0
   37.7690   30.5350   49.2100 C   0  0  0  0  0  0  0  0  0  0  0  0
   38.1120   31.7170   49.8460 C   0  0  0  0  0  0  0  0  0  0  0  0
   38.6490   32.7560   49.0810 C   0  0  0  0  0  0  0  0  0  0  0  0
   38.8080   32.5480   47.7320 N   0  0  0  0  0  0  0  0  0  0  0  0
   38.4650   31.3950   47.1510 C   0  0  0  0  0  0  0  0  0  0  0  0
   37.9490   30.3900   47.8760 N   0  0  0  0  0  0  0  0  0  0  0  0
   33.0490   27.5020   48.2260 C   0  0  0  0  0  0  0  0  0  0  0  0
   31.8310   27.4320   48.5510 O   0  0  0  0  0  0  0  0  0  0  0  0
   33.5590   26.7980   47.0190 C   0  0  0  0  0  0  0  0  0  0  0  0
   33.8110   25.2840   47.2730 C   0  0  0  0  0  0  0  0  0  0  0  0
   32.7550   25.7490   46.3570 C   0  0  0  0  0  0  0  0  0  0  0  0
   34.9177   30.3542   51.4157 H   0  0  0  0  0  0  0  0  0  0  0  0
   32.5844   29.3019   50.4707 H   0  0  0  0  0  0  0  0  0  0  0  0
   37.9649   31.8352   50.9297 H   0  0  0  0  0  0  0  0  0  0  0  0
   38.9357   33.7114   49.5447 H   0  0  0  0  0  0  0  0  0  0  0  0
   38.6068   31.2679   46.0676 H   0  0  0  0  0  0  0  0  0  0  0  0
   34.0886   27.6819   46.6340 H   0  0  0  0  0  0  0  0  0  0  0  0
   34.7147   24.7981   46.8764 H   0  0  0  0  0  0  0  0  0  0  0  0
   33.8552   24.6305   48.1567 H   0  0  0  0  0  0  0  0  0  0  0  0
   31.6998   25.6190   46.6394 H   0  0  0  0  0  0  0  0  0  0  0  0
   32.5161   25.5304   45.3058 H   0  0  0  0  0  0  0  0  0  0  0  0
  1  6  1  0
  1  2  2  0
  3  2  1  0
  4  3  2  0
  5  4  1  0
  5  1  1  0
  6  7  2  0
  8  9  2  0
  8  6  1  0
 10  9  1  0
 11 10  2  0
 12 11  1  0
 12 13  2  0
 13  8  1  0
 14 15  2  0
 14  4  1  0
 16 17  1  0
 16 14  1  0
 18 16  1  0
 18 17  1  0
  2 19  1  0
  3 20  1  0
  9 21  1  0
 10 22  1  0
 12 23  1  0
 16 24  1  0
 17 25  1  0
 17 26  1  0
 18 27  1  0
 18 28  1  0
M  ISO  8  19  14  20  14  21  14  22  14  23  14  24  13  25  13  26  13
M  ISO  2  27  13  28  13
M  END
>  <minimizedAffinity>  (1) 
-4.90918589

>  <minimizedRMSD>  (1) 
0.860298336

$$$$
