
     RDKit          3D

 40 43  0  0  1  0  0  0  0  0999 V2000
   33.0960   27.3880   48.1300 C   0  0  0  0  0  0  0  0  0  0  0  0
   31.9020   27.7940   47.9210 O   0  0  0  0  0  0  0  0  0  0  0  0
   35.7870   29.0950   49.7540 C   0  0  0  0  0  0  0  0  0  0  0  0
   34.7370   29.6230   50.4770 C   0  0  0  0  0  0  0  0  0  0  0  0
   33.5560   29.0580   49.9720 C   0  0  0  0  0  0  0  0  0  0  0  0
   33.9680   28.2160   48.9640 C   0  0  0  0  0  0  0  0  0  0  0  0
   35.2790   28.2690   48.8710 O   0  0  0  0  0  0  0  0  0  0  0  0
   37.1690   29.4640   50.0130 C   0  0  0  0  0  0  0  0  0  0  0  0
   37.7950   28.8770   50.9040 O   0  0  0  0  0  0  0  0  0  0  0  0
   37.7270   30.5090   49.2030 C   0  0  0  0  0  0  0  0  0  0  0  0
   38.0730   31.6920   49.8400 C   0  0  0  0  0  0  0  0  0  0  0  0
   38.6170   32.7240   49.0750 C   0  0  0  0  0  0  0  0  0  0  0  0
   38.7830   32.5170   47.7260 N   0  0  0  0  0  0  0  0  0  0  0  0
   38.4380   31.3630   47.1460 C   0  0  0  0  0  0  0  0  0  0  0  0
   37.9140   30.3630   47.8710 N   0  0  0  0  0  0  0  0  0  0  0  0
   33.5940   26.0960   47.5500 C   0  0  1  0  0  0  0  0  0  0  0  0
   32.4860   25.4660   46.6200 C   0  0  0  0  0  0  0  0  0  0  0  0
   33.7840   25.9680   46.1040 C   0  0  2  0  0  0  0  0  0  0  0  0
   35.1740   25.2830   44.1930 C   0  0  0  0  0  0  0  0  0  0  0  0
   34.7290   25.0330   45.4960 C   0  0  0  0  0  0  0  0  0  0  0  0
   35.2440   23.9010   46.0860 C   0  0  0  0  0  0  0  0  0  0  0  0
   36.1250   23.0630   45.4700 C   0  0  0  0  0  0  0  0  0  0  0  0
   36.5520   23.3280   44.1800 C   0  0  0  0  0  0  0  0  0  0  0  0
   36.0770   24.4480   43.5280 C   0  0  0  0  0  0  0  0  0  0  0  0
   34.6940   26.4100   43.5400 O   0  0  0  0  0  0  0  0  0  0  0  0
   36.4420   24.8050   42.2350 O   0  0  0  0  0  0  0  0  0  0  0  0
   34.8119   30.3519   51.2974 H   0  0  0  0  0  0  0  0  0  0  0  0
   32.5258   29.2468   50.3083 H   0  0  0  0  0  0  0  0  0  0  0  0
   37.9219   31.8133   50.9228 H   0  0  0  0  0  0  0  0  0  0  0  0
   38.9057   33.6786   49.5391 H   0  0  0  0  0  0  0  0  0  0  0  0
   38.5852   31.2320   46.0638 H   0  0  0  0  0  0  0  0  0  0  0  0
   34.2394   25.8291   48.3999 H   0  0  0  0  0  0  0  0  0  0  0  0
   32.2782   24.3863   46.6522 H   0  0  0  0  0  0  0  0  0  0  0  0
   31.4221   25.6531   46.4122 H   0  0  0  0  0  0  0  0  0  0  0  0
   34.0802   26.7050   45.3430 H   0  0  0  0  0  0  0  0  0  0  0  0
   34.9271   23.6593   47.1112 H   0  0  0  0  0  0  0  0  0  0  0  0
   36.4978   22.1737   45.9993 H   0  0  0  0  0  0  0  0  0  0  0  0
   37.2623   22.6531   43.6799 H   0  0  0  0  0  0  0  0  0  0  0  0
   34.9915   26.6120   42.6176 H   0  0  0  0  0  0  0  0  0  0  0  0
   36.0655   25.6222   41.8222 H   0  0  0  0  0  0  0  0  0  0  0  0
  1  6  1  0
  2  1  2  0
  3  8  1  0
  3  4  2  0
  5  4  1  0
  6  5  2  0
  7  6  1  0
  7  3  1  0
  8  9  2  0
 10 11  2  0
 10  8  1  0
 12 11  1  0
 13 12  2  0
 14 13  1  0
 14 15  2  0
 15 10  1  0
 16  1  1  0
 17 16  1  0
 18 17  1  0
 18 16  1  0
 19 20  2  0
 20 21  1  0
 20 18  1  0
 22 21  2  0
 23 22  1  0
 24 23  2  0
 24 19  1  0
 25 19  1  0
 26 24  1  0
  4 27  1  0
  5 28  1  0
 11 29  1  0
 12 30  1  0
 14 31  1  0
 16 32  1  1
 17 33  1  0
 17 34  1  0
 18 35  1  6
 21 36  1  0
 22 37  1  0
 23 38  1  0
 25 39  1  0
 26 40  1  0
M  ISO  8  27  14  28  14  29  14  30  14  31  14  32  13  33  13  34  13
M  ISO  6  35  13  36  14  37  14  38  14  39   3  40   3
M  END
>  <minimizedAffinity>  (1) 
-5.4538455

>  <minimizedRMSD>  (1) 
1.81504309

$$$$
