
     RDKit          3D

 44 47  0  0  1  0  0  0  0  0999 V2000
   35.8470   29.2410   49.8070 C   0  0  0  0  0  0  0  0  0  0  0  0
   34.7550   29.6580   50.5340 C   0  0  0  0  0  0  0  0  0  0  0  0
   33.6240   29.0260   49.9940 C   0  0  0  0  0  0  0  0  0  0  0  0
   34.1080   28.2550   48.9600 C   0  0  0  0  0  0  0  0  0  0  0  0
   35.4130   28.4140   48.8870 O   0  0  0  0  0  0  0  0  0  0  0  0
   37.1930   29.7030   50.0970 C   0  0  0  0  0  0  0  0  0  0  0  0
   37.7800   29.2720   51.1010 O   0  0  0  0  0  0  0  0  0  0  0  0
   37.7680   30.6490   49.1830 C   0  0  0  0  0  0  0  0  0  0  0  0
   38.1300   31.8820   49.6900 C   0  0  0  0  0  0  0  0  0  0  0  0
   38.6900   32.8260   48.8310 C   0  0  0  0  0  0  0  0  0  0  0  0
   38.8570   32.4790   47.5050 N   0  0  0  0  0  0  0  0  0  0  0  0
   38.4940   31.2750   47.0520 C   0  0  0  0  0  0  0  0  0  0  0  0
   37.9550   30.3650   47.8750 N   0  0  0  0  0  0  0  0  0  0  0  0
   33.3100   27.3970   48.0830 C   0  0  0  0  0  0  0  0  0  0  0  0
   32.0420   27.4040   48.2270 O   0  0  0  0  0  0  0  0  0  0  0  0
   33.9780   26.5310   47.0540 C   0  0  1  0  0  0  0  0  0  0  0  0
   33.7340   25.0090   47.4120 C   0  0  0  0  0  0  0  0  0  0  0  0
   33.1780   25.6630   46.2040 C   0  0  2  0  0  0  0  0  0  0  0  0
   33.6090   25.0950   44.9100 C   0  0  0  0  0  0  0  0  0  0  0  0
   33.6660   26.0240   43.7380 C   0  0  0  0  0  0  0  0  0  0  0  0
   35.0100   26.6410   43.5000 C   0  0  0  0  0  0  0  0  0  0  0  0
   36.0890   25.6140   43.2450 C   0  0  0  0  0  0  0  0  0  0  0  0
   35.7520   24.2750   43.8550 C   0  0  0  0  0  0  0  0  0  0  0  0
   34.9820   24.4880   45.1170 C   0  0  0  0  0  0  0  0  0  0  0  0
   34.7666   30.3580   51.3824 H   0  0  0  0  0  0  0  0  0  0  0  0
   32.5794   29.1248   50.3243 H   0  0  0  0  0  0  0  0  0  0  0  0
   37.9787   32.1150   50.7543 H   0  0  0  0  0  0  0  0  0  0  0  0
   38.9901   33.8184   49.1986 H   0  0  0  0  0  0  0  0  0  0  0  0
   38.6396   31.0279   45.9900 H   0  0  0  0  0  0  0  0  0  0  0  0
   34.7953   27.2294   46.8213 H   0  0  0  0  0  0  0  0  0  0  0  0
   34.5500   24.2764   47.3259 H   0  0  0  0  0  0  0  0  0  0  0  0
   33.3356   24.4452   48.2684 H   0  0  0  0  0  0  0  0  0  0  0  0
   32.1824   25.8504   45.7755 H   0  0  0  0  0  0  0  0  0  0  0  0
   32.8278   24.3710   44.6354 H   0  0  0  0  0  0  0  0  0  0  0  0
   33.3828   25.4591   42.8376 H   0  0  0  0  0  0  0  0  0  0  0  0
   32.9765   26.8517   43.9607 H   0  0  0  0  0  0  0  0  0  0  0  0
   34.9423   27.3043   42.6251 H   0  0  0  0  0  0  0  0  0  0  0  0
   35.2868   27.1932   44.4102 H   0  0  0  0  0  0  0  0  0  0  0  0
   36.2104   25.4888   42.1589 H   0  0  0  0  0  0  0  0  0  0  0  0
   37.0179   25.9749   43.7107 H   0  0  0  0  0  0  0  0  0  0  0  0
   35.1444   23.6913   43.1478 H   0  0  0  0  0  0  0  0  0  0  0  0
   36.6796   23.7269   44.0770 H   0  0  0  0  0  0  0  0  0  0  0  0
   35.5623   25.1600   45.7663 H   0  0  0  0  0  0  0  0  0  0  0  0
   34.8254   23.4952   45.5640 H   0  0  0  0  0  0  0  0  0  0  0  0
  1  6  1  0
  1  2  2  0
  3  2  1  0
  4  3  2  0
  5  4  1  0
  5  1  1  0
  6  7  2  0
  8  9  2  0
  8  6  1  0
 10  9  1  0
 11 10  2  0
 12 11  1  0
 12 13  2  0
 13  8  1  0
 14 15  2  0
 14  4  1  0
 16 17  1  0
 16 14  1  0
 18 16  1  0
 18 17  1  0
 19 24  1  0
 19 18  1  0
 20 19  1  0
 21 20  1  0
 22 21  1  0
 22 23  1  0
 23 24  1  0
  2 25  1  0
  3 26  1  0
  9 27  1  0
 10 28  1  0
 12 29  1  0
 16 30  1  6
 17 31  1  0
 17 32  1  0
 18 33  1  1
 19 34  1  0
 20 35  1  0
 20 36  1  0
 21 37  1  0
 21 38  1  0
 22 39  1  0
 22 40  1  0
 23 41  1  0
 23 42  1  0
 24 43  1  0
 24 44  1  0
M  ISO  8  25  14  26  14  27  14  28  14  29  14  30  13  31  13  32  13
M  ISO  8  33  13  34  13  35  13  36  13  37  13  38  13  39  13  40  13
M  ISO  4  41  13  42  13  43  13  44  13
M  END
>  <minimizedAffinity>  (1) 
-5.2168231

>  <minimizedRMSD>  (1) 
0.524340749

$$$$
