
     RDKit          3D

 45 48  0  0  1  0  0  0  0  0999 V2000
   33.1820   27.5500   47.8000 C   0  0  0  0  0  0  0  0  0  0  0  0
   31.9410   27.8380   47.7410 O   0  0  0  0  0  0  0  0  0  0  0  0
   35.7990   29.1300   49.6570 C   0  0  0  0  0  0  0  0  0  0  0  0
   34.7290   29.5000   50.4450 C   0  0  0  0  0  0  0  0  0  0  0  0
   33.5720   28.9590   49.8620 C   0  0  0  0  0  0  0  0  0  0  0  0
   34.0190   28.2890   48.7460 C   0  0  0  0  0  0  0  0  0  0  0  0
   35.3260   28.4150   48.6650 O   0  0  0  0  0  0  0  0  0  0  0  0
   37.1620   29.5210   49.9710 C   0  0  0  0  0  0  0  0  0  0  0  0
   37.7600   28.9490   50.8940 O   0  0  0  0  0  0  0  0  0  0  0  0
   37.7400   30.5680   49.1740 C   0  0  0  0  0  0  0  0  0  0  0  0
   38.0390   31.7590   49.8190 C   0  0  0  0  0  0  0  0  0  0  0  0
   38.6000   32.8010   49.0700 C   0  0  0  0  0  0  0  0  0  0  0  0
   38.8250   32.5820   47.7330 N   0  0  0  0  0  0  0  0  0  0  0  0
   38.5250   31.4240   47.1460 C   0  0  0  0  0  0  0  0  0  0  0  0
   37.9860   30.4160   47.8540 N   0  0  0  0  0  0  0  0  0  0  0  0
   33.7740   26.4790   46.9330 C   0  0  1  0  0  0  0  0  0  0  0  0
   33.4360   25.0590   47.5310 C   0  0  0  0  0  0  0  0  0  0  0  0
   32.9160   25.5290   46.2210 C   0  0  2  0  0  0  0  0  0  0  0  0
   34.7820   25.3810   44.6630 C   0  0  1  0  0  0  0  0  0  0  0  0
   33.4460   24.8580   44.9580 C   0  0  1  0  0  0  0  0  0  0  0  0
   33.2710   23.5240   45.0850 O   0  0  0  0  0  0  0  0  0  0  0  0
   34.1520   22.6610   44.5460 C   0  0  0  0  0  0  0  0  0  0  0  0
   35.1000   23.2080   43.5220 C   0  0  2  0  0  0  0  0  0  0  0  0
   35.7970   24.3790   44.1940 C   0  0  2  0  0  0  0  0  0  0  0  0
   34.7300   26.3960   43.6980 O   0  0  0  0  0  0  0  0  0  0  0  0
   34.4200   23.6100   42.3780 O   0  0  0  0  0  0  0  0  0  0  0  0
   36.4790   23.8500   45.3040 O   0  0  0  0  0  0  0  0  0  0  0  0
   34.7739   30.1070   51.3612 H   0  0  0  0  0  0  0  0  0  0  0  0
   32.5356   29.0506   50.2189 H   0  0  0  0  0  0  0  0  0  0  0  0
   37.8401   31.8823   50.8938 H   0  0  0  0  0  0  0  0  0  0  0  0
   38.8524   33.7641   49.5377 H   0  0  0  0  0  0  0  0  0  0  0  0
   38.7202   31.2914   46.0716 H   0  0  0  0  0  0  0  0  0  0  0  0
   34.6320   27.0784   46.5947 H   0  0  0  0  0  0  0  0  0  0  0  0
   34.2063   24.2751   47.5769 H   0  0  0  0  0  0  0  0  0  0  0  0
   33.0032   24.6727   48.4656 H   0  0  0  0  0  0  0  0  0  0  0  0
   31.9051   25.6139   45.7958 H   0  0  0  0  0  0  0  0  0  0  0  0
   35.1171   25.7493   45.6438 H   0  0  0  0  0  0  0  0  0  0  0  0
   32.8914   25.1003   44.0395 H   0  0  0  0  0  0  0  0  0  0  0  0
   34.7542   22.2452   45.3672 H   0  0  0  0  0  0  0  0  0  0  0  0
   33.5379   21.9268   44.0038 H   0  0  0  0  0  0  0  0  0  0  0  0
   35.8242   22.4489   43.1914 H   0  0  0  0  0  0  0  0  0  0  0  0
   36.4825   24.8849   43.4982 H   0  0  0  0  0  0  0  0  0  0  0  0
   34.6849   27.2768   44.1477 H   0  0  0  0  0  0  0  0  0  0  0  0
   33.5974   24.0963   42.6368 H   0  0  0  0  0  0  0  0  0  0  0  0
   36.0568   24.1775   46.1375 H   0  0  0  0  0  0  0  0  0  0  0  0
  1  6  1  0
  2  1  2  0
  3  8  1  0
  3  4  2  0
  5  4  1  0
  6  5  2  0
  7  6  1  0
  7  3  1  0
  8  9  2  0
 10 11  2  0
 10  8  1  0
 12 11  1  0
 13 12  2  0
 14 13  1  0
 14 15  2  0
 15 10  1  0
 16 17  1  0
 16  1  1  0
 18 16  1  0
 18 17  1  0
 19 25  1  0
 19 20  1  0
 20 21  1  0
 20 18  1  0
 22 21  1  0
 23 26  1  0
 23 24  1  0
 23 22  1  0
 24 19  1  0
 24 27  1  0
  4 28  1  0
  5 29  1  0
 11 30  1  0
 12 31  1  0
 14 32  1  0
 16 33  1  6
 17 34  1  0
 17 35  1  0
 18 36  1  1
 19 37  1  1
 20 38  1  6
 22 39  1  0
 22 40  1  0
 23 41  1  6
 24 42  1  6
 25 43  1  0
 26 44  1  0
 27 45  1  0
M  ISO  8  28  14  29  14  30  14  31  14  32  14  33  13  34  13  35  13
M  ISO  8  36  13  37  13  38  13  39  13  40  13  41  13  42  13  43   3
M  ISO  2  44   3  45   3
M  END
>  <minimizedAffinity>  (1) 
-5.08100033

>  <minimizedRMSD>  (1) 
1.21152258

$$$$
