
     RDKit          3D

 13 13  0  0  0  0  0  0  0  0999 V2000
   36.8780   29.8330   51.2580 C   0  0  0  0  0  0  0  0  0  0  0  0
   37.1850   30.7220   50.2270 C   0  0  0  0  0  0  0  0  0  0  0  0
   36.2220   30.9740   49.2560 C   0  0  0  0  0  0  0  0  0  0  0  0
   35.0220   30.3470   49.3480 N   0  0  0  0  0  0  0  0  0  0  0  0
   34.7380   29.4820   50.3620 C   0  0  0  0  0  0  0  0  0  0  0  0
   35.6700   29.2530   51.2810 N   0  0  0  0  0  0  0  0  0  0  0  0
   38.4250   31.4590   50.0070 C   0  0  0  0  0  0  0  0  0  0  0  0
   38.5690   32.6130   49.5890 O   0  0  0  0  0  0  0  0  0  0  0  0
   37.9150   29.6720   52.1510 O   0  0  0  0  0  0  0  0  0  0  0  0
   36.4291   31.6687   48.4287 H   0  0  0  0  0  0  0  0  0  0  0  0
   33.7587   28.9843   50.4185 H   0  0  0  0  0  0  0  0  0  0  0  0
   39.3523   30.9168   50.2441 H   0  0  0  0  0  0  0  0  0  0  0  0
   38.7638   30.1639   52.0179 H   0  0  0  0  0  0  0  0  0  0  0  0
  1  6  2  0
  1  9  1  0
  2  1  1  0
  3  4  1  0
  3  2  2  0
  4  5  2  0
  5  6  1  0
  7  2  1  0
  8  7  2  0
  3 10  1  0
  5 11  1  0
  7 12  1  0
  9 13  1  0
M  ISO  4  10  14  11  14  12   6  13   3
M  END
>  <minimizedAffinity>  (1) 
-3.89337635

>  <minimizedRMSD>  (1) 
0.986146688

$$$$
