
     RDKit          3D

 12 12  0  0  0  0  0  0  0  0999 V2000
   36.9420   29.8590   51.2620 C   0  0  0  0  0  0  0  0  0  0  0  0
   37.3190   30.7900   50.2940 C   0  0  0  0  0  0  0  0  0  0  0  0
   36.3840   31.0920   49.2990 C   0  0  0  0  0  0  0  0  0  0  0  0
   35.1640   30.4720   49.3190 N   0  0  0  0  0  0  0  0  0  0  0  0
   34.8410   29.5680   50.2860 C   0  0  0  0  0  0  0  0  0  0  0  0
   35.7370   29.2850   51.2320 N   0  0  0  0  0  0  0  0  0  0  0  0
   37.9600   29.6520   52.1850 O   0  0  0  0  0  0  0  0  0  0  0  0
   38.5320   31.4560   50.2080 O   0  0  0  0  0  0  0  0  0  0  0  0
   36.6261   31.8190   48.5098 H   0  0  0  0  0  0  0  0  0  0  0  0
   33.8557   29.0789   50.2862 H   0  0  0  0  0  0  0  0  0  0  0  0
   37.8298   29.0140   52.9307 H   0  0  0  0  0  0  0  0  0  0  0  0
   38.6920   32.1001   49.4735 H   0  0  0  0  0  0  0  0  0  0  0  0
  1  7  1  0
  2  1  2  0
  3  4  2  0
  3  2  1  0
  4  5  1  0
  5  6  2  0
  6  1  1  0
  8  2  1  0
  3  9  1  0
  5 10  1  0
  7 11  1  0
  8 12  1  0
M  ISO  4   9  14  10  14  11   3  12   3
M  END
>  <minimizedAffinity>  (1) 
-3.53306389

>  <minimizedRMSD>  (1) 
0.723947108

$$$$
