
     RDKit          3D

 15 15  0  0  0  0  0  0  0  0999 V2000
   36.7840   29.6800   51.1240 C   0  0  0  0  0  0  0  0  0  0  0  0
   37.2980   30.0630   49.8860 C   0  0  0  0  0  0  0  0  0  0  0  0
   36.5480   29.8560   48.7410 C   0  0  0  0  0  0  0  0  0  0  0  0
   35.3220   29.2750   48.8950 N   0  0  0  0  0  0  0  0  0  0  0  0
   34.8370   28.9080   50.1020 C   0  0  0  0  0  0  0  0  0  0  0  0
   35.5650   29.1110   51.2030 N   0  0  0  0  0  0  0  0  0  0  0  0
   38.6260   32.0620   49.4970 C   0  0  0  0  0  0  0  0  0  0  0  0
   37.8110   33.0470   49.4570 O   0  0  0  0  0  0  0  0  0  0  0  0
   38.5480   30.6610   49.6810 N   0  0  0  0  0  0  0  0  0  0  0  0
   37.6550   29.9560   52.1580 O   0  0  0  0  0  0  0  0  0  0  0  0
   36.9238   30.1473   47.7491 H   0  0  0  0  0  0  0  0  0  0  0  0
   33.8433   28.4424   50.1774 H   0  0  0  0  0  0  0  0  0  0  0  0
   39.6648   32.3920   49.3488 H   0  0  0  0  0  0  0  0  0  0  0  0
   39.4026   30.0863   49.6643 H   0  0  0  0  0  0  0  0  0  0  0  0
   38.5294   30.3800   51.9688 H   0  0  0  0  0  0  0  0  0  0  0  0
  1  6  2  0
  1 10  1  0
  2  1  1  0
  3  4  1  0
  3  2  2  0
  4  5  2  0
  5  6  1  0
  7  9  1  0
  8  7  2  0
  9  2  1  0
  3 11  1  0
  5 12  1  0
  7 13  1  0
  9 14  1  0
 10 15  1  0
M  ISO  4  11  14  12  14  13   6  15   3
M  END
>  <minimizedAffinity>  (1) 
-4.23447084

>  <minimizedRMSD>  (1) 
1.43491542

$$$$
