
     RDKit          3D

 22 23  0  0  0  0  0  0  0  0999 V2000
   37.3560   30.1930   48.8330 C   0  0  0  0  0  0  0  0  0  0  0  0
   36.2770   29.4130   49.2100 C   0  0  0  0  0  0  0  0  0  0  0  0
   36.0050   29.2440   50.5500 C   0  0  0  0  0  0  0  0  0  0  0  0
   36.8280   29.8640   51.4530 N   0  0  0  0  0  0  0  0  0  0  0  0
   37.8740   30.6190   51.0560 C   0  0  0  0  0  0  0  0  0  0  0  0
   38.1410   30.7860   49.7490 N   0  0  0  0  0  0  0  0  0  0  0  0
   34.3670   29.4690   47.7000 C   0  0  0  0  0  0  0  0  0  0  0  0
   33.9540   30.6800   47.7060 O   0  0  0  0  0  0  0  0  0  0  0  0
   35.4080   28.7600   48.3370 N   0  0  0  0  0  0  0  0  0  0  0  0
   37.4960   30.2650   47.4520 O   0  0  0  0  0  0  0  0  0  0  0  0
   38.3800   31.0810   46.9120 C   0  0  0  0  0  0  0  0  0  0  0  0
   38.8330   32.3540   47.1380 C   0  0  0  0  0  0  0  0  0  0  0  0
   39.8000   32.9340   46.3650 C   0  0  0  0  0  0  0  0  0  0  0  0
   40.3130   32.1180   45.2920 C   0  0  0  0  0  0  0  0  0  0  0  0
   39.3700   30.5370   45.4510 S   0  0  0  0  0  0  0  0  0  0  0  0
   35.1547   28.6312   50.8840 H   0  0  0  0  0  0  0  0  0  0  0  0
   38.5140   31.1022   51.8089 H   0  0  0  0  0  0  0  0  0  0  0  0
   33.7665   28.8260   47.0398 H   0  0  0  0  0  0  0  0  0  0  0  0
   35.5265   27.7530   48.1556 H   0  0  0  0  0  0  0  0  0  0  0  0
   38.4034   32.9299   47.9710 H   0  0  0  0  0  0  0  0  0  0  0  0
   40.1630   33.9559   46.5493 H   0  0  0  0  0  0  0  0  0  0  0  0
   41.0849   32.3764   44.5522 H   0  0  0  0  0  0  0  0  0  0  0  0
  1  2  2  0
  1  6  1  0
  2  3  1  0
  3  4  2  0
  5  4  1  0
  6  5  2  0
  7  8  2  0
  7  9  1  0
  9  2  1  0
 10  1  1  0
 11 12  2  0
 11 10  1  0
 13 12  1  0
 14 15  1  0
 14 13  2  0
 15 11  1  0
  3 16  1  0
  5 17  1  0
  7 18  1  0
  9 19  1  0
 12 20  1  0
 13 21  1  0
 14 22  1  0
M  ISO  6  16  14  17  14  18   6  20  14  21  14  22  14
M  END
>  <minimizedAffinity>  (1) 
-4.345263

>  <minimizedRMSD>  (1) 
6.15904903

$$$$
