
     RDKit          3D

 40 42  0  0  1  0  0  0  0  0999 V2000
   38.4990   31.7170   48.2600 Br  0  0  0  0  0  0  0  0  0  0  0  0
   37.3620   31.1070   46.8900 C   0  0  0  0  0  0  0  0  0  0  0  0
   36.2900   30.3710   47.2850 C   0  0  0  0  0  0  0  0  0  0  0  0
   35.3980   29.8810   46.3270 C   0  0  0  0  0  0  0  0  0  0  0  0
   35.6210   30.1540   44.9830 C   0  0  0  0  0  0  0  0  0  0  0  0
   36.7180   30.8990   44.6600 C   0  0  0  0  0  0  0  0  0  0  0  0
   37.6110   31.3940   45.5820 C   0  0  0  0  0  0  0  0  0  0  0  0
   36.7820   29.4470   49.5860 C   0  0  0  0  0  0  0  0  0  0  0  0
   35.9150   29.9970   48.6530 C   0  0  0  0  0  0  0  0  0  0  0  0
   34.5710   30.2110   49.0510 C   0  0  0  0  0  0  0  0  0  0  0  0
   34.2330   29.8570   50.3340 N   0  0  0  0  0  0  0  0  0  0  0  0
   35.1040   29.3340   51.1870 C   0  0  0  0  0  0  0  0  0  0  0  0
   36.3810   29.1250   50.8230 N   0  0  0  0  0  0  0  0  0  0  0  0
   38.7480   32.1650   45.2520 N   0  0  0  0  0  0  0  0  0  0  0  0
   40.3630   31.7830   44.9300 S   0  0  0  0  0  0  0  0  0  0  0  0
   40.8300   30.6400   45.7680 O   0  0  0  0  0  0  0  0  0  0  0  0
   41.2430   32.9700   45.2880 O   0  0  0  0  0  0  0  0  0  0  0  0
   40.5440   31.4030   43.3070 O   0  0  0  0  0  0  0  0  0  0  0  0
   39.0700   30.1050   42.0420 N   0  0  0  0  0  0  0  0  0  0  0  0
   39.6570   30.3250   40.7330 C   0  0  0  0  0  0  0  0  0  0  0  0
   41.1270   30.0690   40.8370 C   0  0  0  0  0  0  0  0  0  0  0  0
   41.2970   29.4900   42.2020 C   0  0  0  0  0  0  0  0  0  0  0  0
   40.1650   30.1300   42.9870 C   0  0  1  0  0  0  0  0  0  0  0  0
   34.5267   29.2842   46.6345 H   0  0  0  0  0  0  0  0  0  0  0  0
   34.9368   29.7824   44.2059 H   0  0  0  0  0  0  0  0  0  0  0  0
   36.8992   31.1170   43.5972 H   0  0  0  0  0  0  0  0  0  0  0  0
   37.8298   29.2701   49.3016 H   0  0  0  0  0  0  0  0  0  0  0  0
   33.8305   30.6423   48.3613 H   0  0  0  0  0  0  0  0  0  0  0  0
   34.7777   29.0684   52.2034 H   0  0  0  0  0  0  0  0  0  0  0  0
   38.5510   33.1744   45.1956 H   0  0  0  0  0  0  0  0  0  0  0  0
   40.7350   30.8725   46.7256 H   0  0  0  0  0  0  0  0  0  0  0  0
   41.3031   33.0511   46.2728 H   0  0  0  0  0  0  0  0  0  0  0  0
   38.5947   29.1917   42.0709 H   0  0  0  0  0  0  0  0  0  0  0  0
   39.4804   31.3629   40.4143 H   0  0  0  0  0  0  0  0  0  0  0  0
   39.2030   29.6504   39.9922 H   0  0  0  0  0  0  0  0  0  0  0  0
   41.4552   29.3561   40.0662 H   0  0  0  0  0  0  0  0  0  0  0  0
   41.7269   30.9784   40.6852 H   0  0  0  0  0  0  0  0  0  0  0  0
   41.1951   28.3949   42.1826 H   0  0  0  0  0  0  0  0  0  0  0  0
   42.2893   29.6842   42.6351 H   0  0  0  0  0  0  0  0  0  0  0  0
   39.8970   29.6326   43.9308 H   0  0  0  0  0  0  0  0  0  0  0  0
  2  3  2  0
  2  1  1  0
  3  9  1  0
  4  3  1  0
  5  4  2  0
  6  5  1  0
  6  7  2  0
  7  2  1  0
  8 13  2  0
  9 10  2  0
  9  8  1  0
 10 11  1  0
 11 12  2  0
 13 12  1  0
 14  7  1  0
 15 14  1  0
 15 17  1  0
 15 16  1  0
 18 15  1  0
 19 23  1  0
 20 21  1  0
 20 19  1  0
 21 22  1  0
 22 23  1  0
 23 18  1  0
  4 24  1  0
  5 25  1  0
  6 26  1  0
  8 27  1  0
 10 28  1  0
 12 29  1  0
 14 30  1  0
 16 31  1  0
 17 32  1  0
 19 33  1  0
 20 34  1  0
 20 35  1  0
 21 36  1  0
 21 37  1  0
 22 38  1  0
 22 39  1  0
 23 40  1  1
M  ISO  8  24  14  25  14  26  14  27  14  28  14  29  14  31   3  32   3
M  ISO  8  33   5  34  13  35  13  36  13  37  13  38  13  39  13  40  13
M  END
>  <minimizedAffinity>  (1) 
-5.66241693

>  <minimizedRMSD>  (1) 
2.70549631

$$$$
