
     RDKit          3D

 28 29  0  0  0  0  0  0  0  0999 V2000
   36.9170   32.0220   48.8210 O   0  0  0  0  0  0  0  0  0  0  0  0
   38.6380   32.4540   47.1090 C   0  0  0  0  0  0  0  0  0  0  0  0
   38.0410   32.6580   48.3280 C   0  0  0  0  0  0  0  0  0  0  0  0
   38.5630   33.5860   49.2160 C   0  0  0  0  0  0  0  0  0  0  0  0
   39.7010   34.3080   48.8550 C   0  0  0  0  0  0  0  0  0  0  0  0
   40.2930   34.0940   47.6260 C   0  0  0  0  0  0  0  0  0  0  0  0
   39.7440   33.1650   46.7740 C   0  0  0  0  0  0  0  0  0  0  0  0
   40.3800   32.9360   45.4570 C   0  0  0  0  0  0  0  0  0  0  0  0
   40.1160   33.7950   44.5480 O   0  0  0  0  0  0  0  0  0  0  0  0
   37.5370   30.7110   45.5560 N   0  0  0  0  0  0  0  0  0  0  0  0
   38.0210   31.4780   46.2530 C   0  0  0  0  0  0  0  0  0  0  0  0
   36.9370   31.0190   49.7440 C   0  0  0  0  0  0  0  0  0  0  0  0
   36.3120   29.8670   49.2730 C   0  0  0  0  0  0  0  0  0  0  0  0
   36.2260   28.7390   50.0600 C   0  0  0  0  0  0  0  0  0  0  0  0
   36.7830   28.8060   51.3170 N   0  0  0  0  0  0  0  0  0  0  0  0
   37.3880   29.9360   51.7580 C   0  0  0  0  0  0  0  0  0  0  0  0
   37.4570   31.0060   50.9840 N   0  0  0  0  0  0  0  0  0  0  0  0
   34.3930   29.2480   47.8900 C   0  0  0  0  0  0  0  0  0  0  0  0
   33.5070   28.8100   48.7250 O   0  0  0  0  0  0  0  0  0  0  0  0
   35.7460   29.6870   48.0080 N   0  0  0  0  0  0  0  0  0  0  0  0
   38.0858   33.7510   50.1932 H   0  0  0  0  0  0  0  0  0  0  0  0
   40.1265   35.0475   49.5493 H   0  0  0  0  0  0  0  0  0  0  0  0
   41.1905   34.6584   47.3329 H   0  0  0  0  0  0  0  0  0  0  0  0
   41.0412   32.0767   45.2715 H   0  0  0  0  0  0  0  0  0  0  0  0
   35.7333   27.8241   49.6991 H   0  0  0  0  0  0  0  0  0  0  0  0
   37.8248   29.9632   52.7672 H   0  0  0  0  0  0  0  0  0  0  0  0
   34.0194   29.2919   46.8563 H   0  0  0  0  0  0  0  0  0  0  0  0
   36.3043   29.8708   47.1622 H   0  0  0  0  0  0  0  0  0  0  0  0
  1 12  1  0
  2  3  2  0
  3  1  1  0
  3  4  1  0
  5  4  2  0
  6  5  1  0
  7  2  1  0
  7  6  2  0
  8  7  1  0
  9  8  2  0
 10 11  3  0
 11  2  1  0
 12 17  1  0
 13 12  2  0
 13 14  1  0
 14 15  2  0
 15 16  1  0
 17 16  2  0
 18 20  1  0
 18 19  2  0
 20 13  1  0
  4 21  1  0
  5 22  1  0
  6 23  1  0
  8 24  1  0
 14 25  1  0
 16 26  1  0
 18 27  1  0
 20 28  1  0
M  ISO  7  21  14  22  14  23  14  24   6  25  14  26  14  27   6
M  END
>  <minimizedAffinity>  (1) 
-4.93357086

>  <minimizedRMSD>  (1) 
0.435612172

$$$$
