
     RDKit          3D

 27 28  0  0  0  0  0  0  0  0999 V2000
   36.9710   31.9780   48.6650 O   0  0  0  0  0  0  0  0  0  0  0  0
   38.7090   32.3540   46.9810 C   0  0  0  0  0  0  0  0  0  0  0  0
   38.0970   32.6030   48.1800 C   0  0  0  0  0  0  0  0  0  0  0  0
   38.6040   33.5640   49.0430 C   0  0  0  0  0  0  0  0  0  0  0  0
   39.7420   34.2750   48.6790 C   0  0  0  0  0  0  0  0  0  0  0  0
   40.3580   34.0160   47.4610 C   0  0  0  0  0  0  0  0  0  0  0  0
   39.8290   33.0510   46.6220 C   0  0  0  0  0  0  0  0  0  0  0  0
   37.6610   30.5370   45.4750 N   0  0  0  0  0  0  0  0  0  0  0  0
   38.1190   31.3400   46.1520 C   0  0  0  0  0  0  0  0  0  0  0  0
   40.5440   32.6420   45.0340 S   0  0  0  0  0  0  0  0  0  0  0  0
   36.9690   31.0230   49.6320 C   0  0  0  0  0  0  0  0  0  0  0  0
   36.3160   29.8580   49.2160 C   0  0  0  0  0  0  0  0  0  0  0  0
   36.2110   28.7770   50.0590 C   0  0  0  0  0  0  0  0  0  0  0  0
   36.7680   28.8910   51.3070 N   0  0  0  0  0  0  0  0  0  0  0  0
   37.3950   30.0220   51.6940 C   0  0  0  0  0  0  0  0  0  0  0  0
   37.4850   31.0470   50.8730 N   0  0  0  0  0  0  0  0  0  0  0  0
   34.3900   29.1930   47.8620 C   0  0  0  0  0  0  0  0  0  0  0  0
   33.4990   28.8080   48.7220 O   0  0  0  0  0  0  0  0  0  0  0  0
   35.7440   29.6370   47.9600 N   0  0  0  0  0  0  0  0  0  0  0  0
   38.1103   33.7614   50.0059 H   0  0  0  0  0  0  0  0  0  0  0  0
   40.1534   35.0404   49.3535 H   0  0  0  0  0  0  0  0  0  0  0  0
   41.2591   34.5736   47.1659 H   0  0  0  0  0  0  0  0  0  0  0  0
   41.7218   31.9683   45.2234 H   0  0  0  0  0  0  0  0  0  0  0  0
   35.6995   27.8554   49.7443 H   0  0  0  0  0  0  0  0  0  0  0  0
   37.8331   30.0875   52.7009 H   0  0  0  0  0  0  0  0  0  0  0  0
   34.0207   29.1732   46.8261 H   0  0  0  0  0  0  0  0  0  0  0  0
   36.2982   29.7941   47.1061 H   0  0  0  0  0  0  0  0  0  0  0  0
  1 11  1  0
  2  3  2  0
  3  1  1  0
  3  4  1  0
  5  4  2  0
  6  5  1  0
  7  2  1  0
  7  6  2  0
  8  9  3  0
  9  2  1  0
 10  7  1  0
 11 16  1  0
 12 11  2  0
 12 13  1  0
 13 14  2  0
 14 15  1  0
 16 15  2  0
 17 19  1  0
 17 18  2  0
 19 12  1  0
  4 20  1  0
  5 21  1  0
  6 22  1  0
 10 23  1  0
 13 24  1  0
 15 25  1  0
 17 26  1  0
 19 27  1  0
M  ISO  7  20  14  21  14  22  14  23  11  24  14  25  14  26   6
M  END
>  <minimizedAffinity>  (1) 
-4.7557106

>  <minimizedRMSD>  (1) 
0.331735402

$$$$
