
     RDKit          3D

 28 29  0  0  0  0  0  0  0  0999 V2000
   36.9660   32.0580   48.7810 O   0  0  0  0  0  0  0  0  0  0  0  0
   38.7220   32.5130   47.1350 C   0  0  0  0  0  0  0  0  0  0  0  0
   38.0930   32.7060   48.3360 C   0  0  0  0  0  0  0  0  0  0  0  0
   38.5880   33.6320   49.2350 C   0  0  0  0  0  0  0  0  0  0  0  0
   39.7230   34.3640   48.9190 C   0  0  0  0  0  0  0  0  0  0  0  0
   40.3550   34.1620   47.7030 C   0  0  0  0  0  0  0  0  0  0  0  0
   39.8400   33.2300   46.8200 C   0  0  0  0  0  0  0  0  0  0  0  0
   40.4310   32.9680   45.5570 N   0  0  0  0  0  0  0  0  0  0  0  0
   37.6910   30.7610   45.5410 N   0  0  0  0  0  0  0  0  0  0  0  0
   38.1430   31.5320   46.2570 C   0  0  0  0  0  0  0  0  0  0  0  0
   36.9610   31.0390   49.6940 C   0  0  0  0  0  0  0  0  0  0  0  0
   36.3440   29.9000   49.1920 C   0  0  0  0  0  0  0  0  0  0  0  0
   36.2370   28.7640   49.9620 C   0  0  0  0  0  0  0  0  0  0  0  0
   36.7630   28.8070   51.2350 N   0  0  0  0  0  0  0  0  0  0  0  0
   37.3690   29.9400   51.7050 C   0  0  0  0  0  0  0  0  0  0  0  0
   37.4560   31.0120   50.9480 N   0  0  0  0  0  0  0  0  0  0  0  0
   34.4340   29.3670   47.7620 C   0  0  0  0  0  0  0  0  0  0  0  0
   33.5220   28.9270   48.5650 O   0  0  0  0  0  0  0  0  0  0  0  0
   35.8050   29.7380   47.9140 N   0  0  0  0  0  0  0  0  0  0  0  0
   38.0826   33.7881   50.1995 H   0  0  0  0  0  0  0  0  0  0  0  0
   40.1198   35.1022   49.6314 H   0  0  0  0  0  0  0  0  0  0  0  0
   41.2563   34.7363   47.4425 H   0  0  0  0  0  0  0  0  0  0  0  0
   41.2764   33.4804   45.2678 H   0  0  0  0  0  0  0  0  0  0  0  0
   40.0146   32.2654   44.9294 H   0  0  0  0  0  0  0  0  0  0  0  0
   35.7501   27.8564   49.5758 H   0  0  0  0  0  0  0  0  0  0  0  0
   37.7862   29.9545   52.7227 H   0  0  0  0  0  0  0  0  0  0  0  0
   34.0734   29.4816   46.7291 H   0  0  0  0  0  0  0  0  0  0  0  0
   36.3948   29.8857   47.0826 H   0  0  0  0  0  0  0  0  0  0  0  0
  1 11  1  0
  2  3  2  0
  3  1  1  0
  3  4  1  0
  5  4  2  0
  6  5  1  0
  7  2  1  0
  7  6  2  0
  8  7  1  0
  9 10  3  0
 10  2  1  0
 11 16  1  0
 12 11  2  0
 12 13  1  0
 13 14  2  0
 14 15  1  0
 16 15  2  0
 17 19  1  0
 17 18  2  0
 19 12  1  0
  4 20  1  0
  5 21  1  0
  6 22  1  0
  8 23  1  0
  8 24  1  0
 13 25  1  0
 15 26  1  0
 17 27  1  0
 19 28  1  0
M  ISO  6  20  14  21  14  22  14  25  14  26  14  27   6
M  END
>  <minimizedAffinity>  (1) 
-4.71214008

>  <minimizedRMSD>  (1) 
0.209040329

$$$$
