
     RDKit          3D

 27 28  0  0  0  0  0  0  0  0999 V2000
   37.0050   32.0040   48.7180 O   0  0  0  0  0  0  0  0  0  0  0  0
   38.7920   32.4760   47.1040 C   0  0  0  0  0  0  0  0  0  0  0  0
   38.1300   32.6750   48.2880 C   0  0  0  0  0  0  0  0  0  0  0  0
   38.5800   33.6260   49.1870 C   0  0  0  0  0  0  0  0  0  0  0  0
   39.7030   34.3810   48.8890 C   0  0  0  0  0  0  0  0  0  0  0  0
   40.3690   34.1750   47.6900 C   0  0  0  0  0  0  0  0  0  0  0  0
   39.8980   33.2180   46.8110 C   0  0  0  0  0  0  0  0  0  0  0  0
   37.8390   30.6790   45.5150 N   0  0  0  0  0  0  0  0  0  0  0  0
   38.2570   31.4710   46.2290 C   0  0  0  0  0  0  0  0  0  0  0  0
   40.5140   32.9610   45.5990 O   0  0  0  0  0  0  0  0  0  0  0  0
   37.0010   31.0220   49.6640 C   0  0  0  0  0  0  0  0  0  0  0  0
   36.4220   29.8490   49.1900 C   0  0  0  0  0  0  0  0  0  0  0  0
   36.3220   28.7400   50.0010 C   0  0  0  0  0  0  0  0  0  0  0  0
   36.8190   28.8500   51.2810 N   0  0  0  0  0  0  0  0  0  0  0  0
   37.3780   29.9970   51.7230 C   0  0  0  0  0  0  0  0  0  0  0  0
   37.4600   31.0450   50.9270 N   0  0  0  0  0  0  0  0  0  0  0  0
   34.5420   29.3000   47.7280 C   0  0  0  0  0  0  0  0  0  0  0  0
   33.5800   28.9690   48.5270 O   0  0  0  0  0  0  0  0  0  0  0  0
   35.9200   29.6300   47.9050 N   0  0  0  0  0  0  0  0  0  0  0  0
   38.0471   33.7823   50.1365 H   0  0  0  0  0  0  0  0  0  0  0  0
   40.0642   35.1393   49.5992 H   0  0  0  0  0  0  0  0  0  0  0  0
   41.2623   34.7668   47.4413 H   0  0  0  0  0  0  0  0  0  0  0  0
   41.3209   33.4708   45.3359 H   0  0  0  0  0  0  0  0  0  0  0  0
   35.8647   27.8063   49.6417 H   0  0  0  0  0  0  0  0  0  0  0  0
   37.7662   30.0573   52.7504 H   0  0  0  0  0  0  0  0  0  0  0  0
   34.2276   29.3352   46.6745 H   0  0  0  0  0  0  0  0  0  0  0  0
   36.5420   29.7063   47.0875 H   0  0  0  0  0  0  0  0  0  0  0  0
  1 11  1  0
  2  3  2  0
  3  1  1  0
  3  4  1  0
  5  4  2  0
  6  5  1  0
  7  2  1  0
  7  6  2  0
  8  9  3  0
  9  2  1  0
 10  7  1  0
 11 16  1  0
 12 11  2  0
 12 13  1  0
 13 14  2  0
 14 15  1  0
 16 15  2  0
 17 19  1  0
 17 18  2  0
 19 12  1  0
  4 20  1  0
  5 21  1  0
  6 22  1  0
 10 23  1  0
 13 24  1  0
 15 25  1  0
 17 26  1  0
 19 27  1  0
M  ISO  7  20  14  21  14  22  14  23   3  24  14  25  14  26   6
M  END
>  <minimizedAffinity>  (1) 
-4.66171169

>  <minimizedRMSD>  (1) 
0.152656868

$$$$
