
     RDKit          3D

 33 35  0  0  0  0  0  0  0  0999 V2000
   38.2660   32.2890   47.3890 C   0  0  0  0  0  0  0  0  0  0  0  0
   37.9050   32.7340   48.6540 C   0  0  0  0  0  0  0  0  0  0  0  0
   38.6660   33.6900   49.3090 C   0  0  0  0  0  0  0  0  0  0  0  0
   39.8020   34.2030   48.6810 C   0  0  0  0  0  0  0  0  0  0  0  0
   40.1570   33.7550   47.4220 C   0  0  0  0  0  0  0  0  0  0  0  0
   39.3740   32.8060   46.8110 C   0  0  0  0  0  0  0  0  0  0  0  0
   39.7670   32.3350   45.4610 C   0  0  0  0  0  0  0  0  0  0  0  0
   40.6200   31.3280   45.0980 C   0  0  0  0  0  0  0  0  0  0  0  0
   40.6490   31.2870   43.7060 C   0  0  0  0  0  0  0  0  0  0  0  0
   39.7940   32.2910   43.3040 C   0  0  0  0  0  0  0  0  0  0  0  0
   39.2780   32.9040   44.3590 O   0  0  0  0  0  0  0  0  0  0  0  0
   36.7520   30.5250   46.2960 N   0  0  0  0  0  0  0  0  0  0  0  0
   37.4250   31.3050   46.7940 C   0  0  0  0  0  0  0  0  0  0  0  0
   36.8110   32.3170   49.3940 O   0  0  0  0  0  0  0  0  0  0  0  0
   36.7880   31.2020   50.1700 C   0  0  0  0  0  0  0  0  0  0  0  0
   35.6350   30.4390   49.9550 C   0  0  0  0  0  0  0  0  0  0  0  0
   35.4250   29.2650   50.6520 C   0  0  0  0  0  0  0  0  0  0  0  0
   36.3890   28.8880   51.5510 N   0  0  0  0  0  0  0  0  0  0  0  0
   37.5050   29.6430   51.7460 C   0  0  0  0  0  0  0  0  0  0  0  0
   37.6830   30.7630   51.0680 N   0  0  0  0  0  0  0  0  0  0  0  0
   34.1520   29.7100   48.1540 C   0  0  0  0  0  0  0  0  0  0  0  0
   34.5470   28.5090   47.8630 O   0  0  0  0  0  0  0  0  0  0  0  0
   34.6130   30.7260   49.0450 N   0  0  0  0  0  0  0  0  0  0  0  0
   38.3780   34.0399   50.3113 H   0  0  0  0  0  0  0  0  0  0  0  0
   40.4146   34.9634   49.1875 H   0  0  0  0  0  0  0  0  0  0  0  0
   41.0509   34.1516   46.9184 H   0  0  0  0  0  0  0  0  0  0  0  0
   41.1799   30.6715   45.7803 H   0  0  0  0  0  0  0  0  0  0  0  0
   41.2274   30.6033   43.0673 H   0  0  0  0  0  0  0  0  0  0  0  0
   39.5721   32.5465   42.2573 H   0  0  0  0  0  0  0  0  0  0  0  0
   34.5218   28.6578   50.4923 H   0  0  0  0  0  0  0  0  0  0  0  0
   38.2638   29.3183   52.4731 H   0  0  0  0  0  0  0  0  0  0  0  0
   33.2605   30.0143   47.5860 H   0  0  0  0  0  0  0  0  0  0  0  0
   34.1943   31.6667   49.0175 H   0  0  0  0  0  0  0  0  0  0  0  0
  1  2  2  0
  2  3  1  0
  2 14  1  0
  4  3  2  0
  5  4  1  0
  6  1  1  0
  6  5  2  0
  7  6  1  0
  8  7  2  0
  9  8  1  0
 10  9  2  0
 10 11  1  0
 11  7  1  0
 12 13  3  0
 13  1  1  0
 14 15  1  0
 15 20  1  0
 16 15  2  0
 16 17  1  0
 17 18  2  0
 18 19  1  0
 20 19  2  0
 21 23  1  0
 22 21  2  0
 23 16  1  0
  3 24  1  0
  4 25  1  0
  5 26  1  0
  8 27  1  0
  9 28  1  0
 10 29  1  0
 17 30  1  0
 19 31  1  0
 21 32  1  0
 23 33  1  0
M  ISO  8  24  14  25  14  26  14  27  14  28  14  29  14  30  14  31  14
M  ISO  1  32   6
M  END
>  <minimizedAffinity>  (1) 
-5.69011784

>  <minimizedRMSD>  (1) 
1.23650479

$$$$
