
     RDKit          3D

 46 50  0  0  0  0  0  0  0  0999 V2000
   36.7920   31.2080   50.1220 C   0  0  0  0  0  0  0  0  0  0  0  0
   35.7490   30.3200   49.8760 C   0  0  0  0  0  0  0  0  0  0  0  0
   35.5620   29.1800   50.6270 C   0  0  0  0  0  0  0  0  0  0  0  0
   36.4530   28.9560   51.6320 N   0  0  0  0  0  0  0  0  0  0  0  0
   37.4750   29.8300   51.8700 C   0  0  0  0  0  0  0  0  0  0  0  0
   37.6220   30.9170   51.1260 N   0  0  0  0  0  0  0  0  0  0  0  0
   34.3290   29.3400   48.1130 C   0  0  0  0  0  0  0  0  0  0  0  0
   34.7370   28.1190   48.0650 O   0  0  0  0  0  0  0  0  0  0  0  0
   34.7800   30.4500   48.8610 N   0  0  0  0  0  0  0  0  0  0  0  0
   32.2230   28.5650   47.0270 C   0  0  0  0  0  0  0  0  0  0  0  0
   33.1960   29.5240   47.2040 C   0  0  0  0  0  0  0  0  0  0  0  0
   32.9920   30.6580   46.4470 C   0  0  0  0  0  0  0  0  0  0  0  0
   31.9400   30.8710   45.5830 C   0  0  0  0  0  0  0  0  0  0  0  0
   31.5690   31.8790   44.7750 N   0  0  0  0  0  0  0  0  0  0  0  0
   30.4510   31.5350   44.1630 N   0  0  0  0  0  0  0  0  0  0  0  0
   30.0550   30.3100   44.5400 C   0  0  0  0  0  0  0  0  0  0  0  0
   30.9970   29.8740   45.4480 C   0  0  0  0  0  0  0  0  0  0  0  0
   31.1270   28.7070   46.1690 C   0  0  0  0  0  0  0  0  0  0  0  0
   36.8010   32.2630   49.2780 O   0  0  0  0  0  0  0  0  0  0  0  0
   38.2570   32.2520   47.2860 C   0  0  0  0  0  0  0  0  0  0  0  0
   37.8950   32.6830   48.5540 C   0  0  0  0  0  0  0  0  0  0  0  0
   38.6660   33.6250   49.2060 C   0  0  0  0  0  0  0  0  0  0  0  0
   39.8020   34.1390   48.5940 C   0  0  0  0  0  0  0  0  0  0  0  0
   40.1550   33.7020   47.3300 C   0  0  0  0  0  0  0  0  0  0  0  0
   39.3700   32.7680   46.7100 C   0  0  0  0  0  0  0  0  0  0  0  0
   39.7610   32.3080   45.3540 C   0  0  0  0  0  0  0  0  0  0  0  0
   40.5930   31.2740   44.9840 C   0  0  0  0  0  0  0  0  0  0  0  0
   40.6350   31.2550   43.5930 C   0  0  0  0  0  0  0  0  0  0  0  0
   39.8110   32.2950   43.1960 C   0  0  0  0  0  0  0  0  0  0  0  0
   39.3060   32.9040   44.2570 O   0  0  0  0  0  0  0  0  0  0  0  0
   36.7410   30.4980   46.1610 N   0  0  0  0  0  0  0  0  0  0  0  0
   37.4130   31.2770   46.6730 C   0  0  0  0  0  0  0  0  0  0  0  0
   34.7337   28.4851   50.4246 H   0  0  0  0  0  0  0  0  0  0  0  0
   38.1833   29.6298   52.6874 H   0  0  0  0  0  0  0  0  0  0  0  0
   34.3894   31.3814   48.6588 H   0  0  0  0  0  0  0  0  0  0  0  0
   32.3135   27.6282   47.5963 H   0  0  0  0  0  0  0  0  0  0  0  0
   33.7347   31.4640   46.5411 H   0  0  0  0  0  0  0  0  0  0  0  0
   32.0721   32.7696   44.6538 H   0  0  0  0  0  0  0  0  0  0  0  0
   29.1632   29.7657   44.1960 H   0  0  0  0  0  0  0  0  0  0  0  0
   30.3833   27.9024   46.0719 H   0  0  0  0  0  0  0  0  0  0  0  0
   38.3802   33.9687   50.2111 H   0  0  0  0  0  0  0  0  0  0  0  0
   40.4175   34.8894   49.1117 H   0  0  0  0  0  0  0  0  0  0  0  0
   41.0517   34.0986   46.8314 H   0  0  0  0  0  0  0  0  0  0  0  0
   41.1252   30.5905   45.6620 H   0  0  0  0  0  0  0  0  0  0  0  0
   41.1996   30.5645   42.9492 H   0  0  0  0  0  0  0  0  0  0  0  0
   39.6063   32.5740   42.1518 H   0  0  0  0  0  0  0  0  0  0  0  0
  1  6  2  0
  2  1  1  0
  2  3  2  0
  3  4  1  0
  4  5  2  0
  6  5  1  0
  7  9  1  0
  8  7  2  0
  9  2  1  0
 10 11  2  0
 11  7  1  0
 12 11  1  0
 13 12  2  0
 14 13  1  0
 15 16  2  0
 15 14  1  0
 16 17  1  0
 17 13  1  0
 17 18  2  0
 18 10  1  0
 19  1  1  0
 20 21  2  0
 21 22  1  0
 21 19  1  0
 23 22  2  0
 24 23  1  0
 25 20  1  0
 25 24  2  0
 26 25  1  0
 27 26  2  0
 28 27  1  0
 29 28  2  0
 29 30  1  0
 30 26  1  0
 31 32  3  0
 32 20  1  0
  3 33  1  0
  5 34  1  0
  9 35  1  0
 10 36  1  0
 12 37  1  0
 14 38  1  0
 16 39  1  0
 18 40  1  0
 22 41  1  0
 23 42  1  0
 24 43  1  0
 27 44  1  0
 28 45  1  0
 29 46  1  0
M  ISO  8  33  14  34  14  36  14  37  14  38   9  39  14  40  14  41  14
M  ISO  5  42  14  43  14  44  14  45  14  46  14
M  END
>  <minimizedAffinity>  (1) 
-6.39636612

>  <minimizedRMSD>  (1) 
0.492011398

$$$$
