
     RDKit          3D

 43 46  0  0  0  0  0  0  0  0999 V2000
   36.7720   31.2070   50.0890 C   0  0  0  0  0  0  0  0  0  0  0  0
   35.7320   30.3090   49.8490 C   0  0  0  0  0  0  0  0  0  0  0  0
   35.5570   29.1820   50.6330 C   0  0  0  0  0  0  0  0  0  0  0  0
   36.4410   28.9880   51.6490 N   0  0  0  0  0  0  0  0  0  0  0  0
   37.4550   29.8730   51.8730 C   0  0  0  0  0  0  0  0  0  0  0  0
   37.5970   30.9440   51.1050 N   0  0  0  0  0  0  0  0  0  0  0  0
   34.3240   29.2680   48.1200 C   0  0  0  0  0  0  0  0  0  0  0  0
   34.7250   28.0420   48.1320 O   0  0  0  0  0  0  0  0  0  0  0  0
   34.7770   30.4020   48.8320 N   0  0  0  0  0  0  0  0  0  0  0  0
   33.2060   29.4620   47.1960 C   0  0  0  0  0  0  0  0  0  0  0  0
   32.1730   28.5620   47.0320 C   0  0  0  0  0  0  0  0  0  0  0  0
   31.1130   28.7220   46.1710 C   0  0  0  0  0  0  0  0  0  0  0  0
   31.0520   29.8560   45.4010 C   0  0  0  0  0  0  0  0  0  0  0  0
   32.0440   30.8050   45.5040 C   0  0  0  0  0  0  0  0  0  0  0  0
   33.0550   30.5650   46.3810 C   0  0  0  0  0  0  0  0  0  0  0  0
   36.7780   32.2390   49.2240 O   0  0  0  0  0  0  0  0  0  0  0  0
   38.2450   32.2310   47.2350 C   0  0  0  0  0  0  0  0  0  0  0  0
   37.8790   32.6600   48.5060 C   0  0  0  0  0  0  0  0  0  0  0  0
   38.6490   33.5970   49.1660 C   0  0  0  0  0  0  0  0  0  0  0  0
   39.7870   34.1110   48.5660 C   0  0  0  0  0  0  0  0  0  0  0  0
   40.1480   33.6780   47.2960 C   0  0  0  0  0  0  0  0  0  0  0  0
   39.3610   32.7470   46.6680 C   0  0  0  0  0  0  0  0  0  0  0  0
   39.7570   32.2930   45.3120 C   0  0  0  0  0  0  0  0  0  0  0  0
   40.5880   31.2570   44.9420 C   0  0  0  0  0  0  0  0  0  0  0  0
   40.6350   31.2430   43.5510 C   0  0  0  0  0  0  0  0  0  0  0  0
   39.8180   32.2860   43.1540 C   0  0  0  0  0  0  0  0  0  0  0  0
   39.3110   32.8910   44.2160 O   0  0  0  0  0  0  0  0  0  0  0  0
   36.7320   30.4830   46.0990 N   0  0  0  0  0  0  0  0  0  0  0  0
   37.4030   31.2630   46.6160 C   0  0  0  0  0  0  0  0  0  0  0  0
   34.7378   28.4730   50.4428 H   0  0  0  0  0  0  0  0  0  0  0  0
   38.1607   29.6962   52.6980 H   0  0  0  0  0  0  0  0  0  0  0  0
   34.3911   31.3268   48.5939 H   0  0  0  0  0  0  0  0  0  0  0  0
   32.1996   27.6442   47.6378 H   0  0  0  0  0  0  0  0  0  0  0  0
   30.3280   27.9547   46.1008 H   0  0  0  0  0  0  0  0  0  0  0  0
   30.2141   30.0062   44.7044 H   0  0  0  0  0  0  0  0  0  0  0  0
   32.0196   31.7235   44.8992 H   0  0  0  0  0  0  0  0  0  0  0  0
   33.8382   31.3344   46.4481 H   0  0  0  0  0  0  0  0  0  0  0  0
   38.3580   33.9363   50.1711 H   0  0  0  0  0  0  0  0  0  0  0  0
   40.4009   34.8572   49.0917 H   0  0  0  0  0  0  0  0  0  0  0  0
   41.0482   34.0746   46.8036 H   0  0  0  0  0  0  0  0  0  0  0  0
   41.1155   30.5697   45.6197 H   0  0  0  0  0  0  0  0  0  0  0  0
   41.1994   30.5524   42.9072 H   0  0  0  0  0  0  0  0  0  0  0  0
   39.6192   32.5704   42.1102 H   0  0  0  0  0  0  0  0  0  0  0  0
  1  6  2  0
  2  1  1  0
  2  3  2  0
  3  4  1  0
  4  5  2  0
  6  5  1  0
  7  8  2  0
  7  9  1  0
  9  2  1  0
 10  7  1  0
 11 10  2  0
 12 11  1  0
 13 14  1  0
 13 12  2  0
 14 15  2  0
 15 10  1  0
 16  1  1  0
 17 18  2  0
 18 19  1  0
 18 16  1  0
 20 19  2  0
 21 20  1  0
 22 17  1  0
 22 21  2  0
 23 22  1  0
 24 23  2  0
 25 24  1  0
 26 25  2  0
 26 27  1  0
 27 23  1  0
 28 29  3  0
 29 17  1  0
  3 30  1  0
  5 31  1  0
  9 32  1  0
 11 33  1  0
 12 34  1  0
 13 35  1  0
 14 36  1  0
 15 37  1  0
 19 38  1  0
 20 39  1  0
 21 40  1  0
 24 41  1  0
 25 42  1  0
 26 43  1  0
M  ISO  8  30  14  31  14  33  14  34  14  35  14  36  14  37  14  38  14
M  ISO  5  39  14  40  14  41  14  42  14  43  14
M  END
>  <minimizedAffinity>  (1) 
-6.13942575

>  <minimizedRMSD>  (1) 
0.479462653

$$$$
