
     RDKit          3D

 39 42  0  0  0  0  0  0  0  0999 V2000
   36.7900   32.2840   49.2560 O   0  0  0  0  0  0  0  0  0  0  0  0
   38.2580   32.2580   47.2760 C   0  0  0  0  0  0  0  0  0  0  0  0
   37.8910   32.6940   48.5390 C   0  0  0  0  0  0  0  0  0  0  0  0
   38.6640   33.6310   49.2010 C   0  0  0  0  0  0  0  0  0  0  0  0
   39.8090   34.1350   48.5940 C   0  0  0  0  0  0  0  0  0  0  0  0
   40.1680   33.6950   47.3320 C   0  0  0  0  0  0  0  0  0  0  0  0
   39.3770   32.7630   46.7040 C   0  0  0  0  0  0  0  0  0  0  0  0
   39.7740   32.3030   45.3570 C   0  0  0  0  0  0  0  0  0  0  0  0
   40.5990   31.2610   44.9970 C   0  0  0  0  0  0  0  0  0  0  0  0
   40.6550   31.2380   43.6050 C   0  0  0  0  0  0  0  0  0  0  0  0
   39.8470   32.2830   43.2030 C   0  0  0  0  0  0  0  0  0  0  0  0
   39.3330   32.9030   44.2560 O   0  0  0  0  0  0  0  0  0  0  0  0
   36.7320   30.5190   46.1490 N   0  0  0  0  0  0  0  0  0  0  0  0
   37.4090   31.2910   46.6620 C   0  0  0  0  0  0  0  0  0  0  0  0
   36.7620   31.2300   50.0990 C   0  0  0  0  0  0  0  0  0  0  0  0
   35.7140   30.3480   49.8360 C   0  0  0  0  0  0  0  0  0  0  0  0
   35.5150   29.2150   50.5820 C   0  0  0  0  0  0  0  0  0  0  0  0
   36.3920   28.9850   51.6000 N   0  0  0  0  0  0  0  0  0  0  0  0
   37.4130   29.8470   51.8540 C   0  0  0  0  0  0  0  0  0  0  0  0
   37.5760   30.9300   51.1140 N   0  0  0  0  0  0  0  0  0  0  0  0
   34.3150   29.3790   48.0530 C   0  0  0  0  0  0  0  0  0  0  0  0
   34.7340   28.1390   48.0090 O   0  0  0  0  0  0  0  0  0  0  0  0
   34.7640   30.4920   48.8080 N   0  0  0  0  0  0  0  0  0  0  0  0
   33.1690   29.6100   47.1360 C   0  0  0  0  0  0  0  0  0  0  0  0
   32.1180   28.7660   46.9170 N   0  0  0  0  0  0  0  0  0  0  0  0
   31.2630   29.2900   46.0280 C   0  0  0  0  0  0  0  0  0  0  0  0
   31.7730   30.4810   45.6730 N   0  0  0  0  0  0  0  0  0  0  0  0
   32.8980   30.6390   46.3450 N   0  0  0  0  0  0  0  0  0  0  0  0
   38.3738   33.9762   50.2043 H   0  0  0  0  0  0  0  0  0  0  0  0
   40.4272   34.8808   49.1151 H   0  0  0  0  0  0  0  0  0  0  0  0
   41.0713   34.0847   46.8398 H   0  0  0  0  0  0  0  0  0  0  0  0
   41.1178   30.5739   45.6816 H   0  0  0  0  0  0  0  0  0  0  0  0
   41.2185   30.5412   42.9671 H   0  0  0  0  0  0  0  0  0  0  0  0
   39.6566   32.5619   42.1561 H   0  0  0  0  0  0  0  0  0  0  0  0
   34.6863   28.5238   50.3690 H   0  0  0  0  0  0  0  0  0  0  0  0
   38.1082   29.6413   52.6813 H   0  0  0  0  0  0  0  0  0  0  0  0
   34.3862   31.4272   48.5992 H   0  0  0  0  0  0  0  0  0  0  0  0
   30.3303   28.8358   45.6622 H   0  0  0  0  0  0  0  0  0  0  0  0
   31.3629   31.1463   45.0021 H   0  0  0  0  0  0  0  0  0  0  0  0
  1 15  1  0
  2  3  2  0
  3  4  1  0
  3  1  1  0
  5  4  2  0
  6  5  1  0
  7  2  1  0
  7  6  2  0
  8  7  1  0
  9  8  2  0
 10  9  1  0
 11 10  2  0
 11 12  1  0
 12  8  1  0
 13 14  3  0
 14  2  1  0
 15 20  2  0
 16 15  1  0
 16 17  2  0
 17 18  1  0
 18 19  2  0
 20 19  1  0
 21 23  1  0
 22 21  2  0
 23 16  1  0
 24 21  1  0
 25 24  1  0
 26 25  2  0
 27 26  1  0
 27 28  1  0
 28 24  2  0
  4 29  1  0
  5 30  1  0
  6 31  1  0
  9 32  1  0
 10 33  1  0
 11 34  1  0
 17 35  1  0
 19 36  1  0
 23 37  1  0
 26 38  1  0
 27 39  1  0
M  ISO  8  29  14  30  14  31  14  32  14  33  14  34  14  35  14  36  14
M  ISO  2  38  14  39   9
M  END
>  <minimizedAffinity>  (1) 
-6.00961685

>  <minimizedRMSD>  (1) 
0.597076178

$$$$
