
     RDKit          3D

 35 37  0  0  0  0  0  0  0  0999 V2000
   32.6660   28.2440   47.4100 N   0  0  0  0  0  0  0  0  0  0  0  0
   33.2090   27.8010   48.6680 C   0  0  0  0  0  0  0  0  0  0  0  0
   34.4570   28.4260   49.1390 C   0  0  0  0  0  0  0  0  0  0  0  0
   35.3870   28.9550   48.1270 C   0  0  0  0  0  0  0  0  0  0  0  0
   34.7500   29.3100   46.8070 C   0  0  0  0  0  0  0  0  0  0  0  0
   33.7380   28.2380   46.4410 C   0  0  0  0  0  0  0  0  0  0  0  0
   31.3150   28.6190   47.1600 C   0  0  0  0  0  0  0  0  0  0  0  0
   30.9050   29.4560   46.1230 C   0  0  0  0  0  0  0  0  0  0  0  0
   29.5330   29.7250   46.0190 C   0  0  0  0  0  0  0  0  0  0  0  0
   28.6910   29.1610   46.9250 N   0  0  0  0  0  0  0  0  0  0  0  0
   29.1320   28.3660   47.9030 C   0  0  0  0  0  0  0  0  0  0  0  0
   30.4370   28.0890   48.0290 N   0  0  0  0  0  0  0  0  0  0  0  0
   36.1440   30.1570   48.5620 C   0  0  0  0  0  0  0  0  0  0  0  0
   35.8560   30.7960   49.7610 C   0  0  0  0  0  0  0  0  0  0  0  0
   36.5850   31.9190   50.1380 C   0  0  0  0  0  0  0  0  0  0  0  0
   37.5960   32.4090   49.3290 C   0  0  0  0  0  0  0  0  0  0  0  0
   37.9130   31.7910   48.1140 C   0  0  0  0  0  0  0  0  0  0  0  0
   37.1590   30.6760   47.7850 C   0  0  0  0  0  0  0  0  0  0  0  0
   32.4427   27.9800   49.4366 H   0  0  0  0  0  0  0  0  0  0  0  0
   33.4757   26.7475   48.4974 H   0  0  0  0  0  0  0  0  0  0  0  0
   34.1768   29.2628   49.7957 H   0  0  0  0  0  0  0  0  0  0  0  0
   35.0108   27.6071   49.6215 H   0  0  0  0  0  0  0  0  0  0  0  0
   36.0663   28.0998   47.9964 H   0  0  0  0  0  0  0  0  0  0  0  0
   34.2426   30.2823   46.8922 H   0  0  0  0  0  0  0  0  0  0  0  0
   35.5229   29.3728   46.0268 H   0  0  0  0  0  0  0  0  0  0  0  0
   33.3302   28.4437   45.4403 H   0  0  0  0  0  0  0  0  0  0  0  0
   34.2281   27.2532   46.4390 H   0  0  0  0  0  0  0  0  0  0  0  0
   31.6283   29.8876   45.4155 H   0  0  0  0  0  0  0  0  0  0  0  0
   29.1466   30.3777   45.2223 H   0  0  0  0  0  0  0  0  0  0  0  0
   28.4142   27.9325   48.6150 H   0  0  0  0  0  0  0  0  0  0  0  0
   35.0540   30.4152   50.4104 H   0  0  0  0  0  0  0  0  0  0  0  0
   36.3559   32.4229   51.0886 H   0  0  0  0  0  0  0  0  0  0  0  0
   38.1595   33.2988   49.6464 H   0  0  0  0  0  0  0  0  0  0  0  0
   38.7128   32.1678   47.4595 H   0  0  0  0  0  0  0  0  0  0  0  0
   37.3860   30.1681   46.8360 H   0  0  0  0  0  0  0  0  0  0  0  0
  1  2  1  0
  2  3  1  0
  4 13  1  0
  4  3  1  0
  5  4  1  0
  6  5  1  0
  6  1  1  0
  7  1  1  0
  7 12  1  0
  8  7  2  0
  9  8  1  0
  9 10  2  0
 10 11  1  0
 11 12  2  0
 13 14  2  0
 14 15  1  0
 16 15  2  0
 17 16  1  0
 18 17  2  0
 18 13  1  0
  2 19  1  0
  2 20  1  0
  3 21  1  0
  3 22  1  0
  4 23  1  0
  5 24  1  0
  5 25  1  0
  6 26  1  0
  6 27  1  0
  8 28  1  0
  9 29  1  0
 11 30  1  0
 14 31  1  0
 15 32  1  0
 16 33  1  0
 17 34  1  0
 18 35  1  0
M  ISO  8  19  13  20  13  21  13  22  13  23  13  24  13  25  13  26  13
M  ISO  8  27  13  28  14  29  14  30  14  31  14  32  14  33  14  34  14
M  ISO  1  35  14
M  END
>  <minimizedAffinity>  (1) 
-5.2837429

>  <minimizedRMSD>  (1) 
4.21463633

$$$$
