
     RDKit          3D

 41 43  0  0  0  0  0  0  0  0999 V2000
   35.1260   29.5740   49.1330 N   0  0  0  0  0  0  0  0  0  0  0  0
   35.0560   30.6240   50.1140 C   0  0  0  0  0  0  0  0  0  0  0  0
   36.0600   31.6970   50.0330 C   0  0  0  0  0  0  0  0  0  0  0  0
   37.3520   31.4160   49.3810 C   0  0  0  0  0  0  0  0  0  0  0  0
   37.3070   30.2740   48.3880 C   0  0  0  0  0  0  0  0  0  0  0  0
   36.4980   29.1370   49.0040 C   0  0  0  0  0  0  0  0  0  0  0  0
   34.0070   29.0550   48.4100 C   0  0  0  0  0  0  0  0  0  0  0  0
   33.6900   29.4140   47.0850 C   0  0  0  0  0  0  0  0  0  0  0  0
   32.5600   28.8160   46.5230 C   0  0  0  0  0  0  0  0  0  0  0  0
   31.8430   27.9350   47.2770 N   0  0  0  0  0  0  0  0  0  0  0  0
   32.1900   27.6310   48.5290 C   0  0  0  0  0  0  0  0  0  0  0  0
   33.2580   28.1820   49.0930 N   0  0  0  0  0  0  0  0  0  0  0  0
   37.9150   32.6550   48.6880 C   0  0  0  0  0  0  0  0  0  0  0  0
   38.2680   32.4270   47.2550 C   0  0  0  0  0  0  0  0  0  0  0  0
   39.7390   32.6340   46.9600 C   0  0  0  0  0  0  0  0  0  0  0  0
   40.2660   33.9570   47.4400 C   0  0  0  0  0  0  0  0  0  0  0  0
   39.5890   34.4170   48.6920 C   0  0  0  0  0  0  0  0  0  0  0  0
   39.0520   33.2440   49.5000 C   0  0  0  0  0  0  0  0  0  0  0  0
   34.0648   31.0927   50.0250 H   0  0  0  0  0  0  0  0  0  0  0  0
   35.2557   30.1249   51.0737 H   0  0  0  0  0  0  0  0  0  0  0  0
   35.5971   32.5316   49.4860 H   0  0  0  0  0  0  0  0  0  0  0  0
   36.3288   31.8880   51.0824 H   0  0  0  0  0  0  0  0  0  0  0  0
   38.0148   31.1106   50.2040 H   0  0  0  0  0  0  0  0  0  0  0  0
   38.3287   29.9289   48.1712 H   0  0  0  0  0  0  0  0  0  0  0  0
   36.8407   30.6060   47.4487 H   0  0  0  0  0  0  0  0  0  0  0  0
   36.5466   28.2511   48.3537 H   0  0  0  0  0  0  0  0  0  0  0  0
   36.9060   28.8730   49.9908 H   0  0  0  0  0  0  0  0  0  0  0  0
   34.3034   30.1313   46.5200 H   0  0  0  0  0  0  0  0  0  0  0  0
   32.2546   29.0511   45.4927 H   0  0  0  0  0  0  0  0  0  0  0  0
   31.5830   26.9142   49.1015 H   0  0  0  0  0  0  0  0  0  0  0  0
   37.1107   33.4044   48.6493 H   0  0  0  0  0  0  0  0  0  0  0  0
   38.0008   31.3934   46.9898 H   0  0  0  0  0  0  0  0  0  0  0  0
   37.7096   33.1651   46.6605 H   0  0  0  0  0  0  0  0  0  0  0  0
   40.3091   31.8326   47.4527 H   0  0  0  0  0  0  0  0  0  0  0  0
   39.8553   32.6168   45.8663 H   0  0  0  0  0  0  0  0  0  0  0  0
   41.3438   33.8583   47.6364 H   0  0  0  0  0  0  0  0  0  0  0  0
   40.0672   34.7029   46.6563 H   0  0  0  0  0  0  0  0  0  0  0  0
   40.3130   34.9724   49.3063 H   0  0  0  0  0  0  0  0  0  0  0  0
   38.7410   35.0583   48.4098 H   0  0  0  0  0  0  0  0  0  0  0  0
   38.6832   33.5909   50.4765 H   0  0  0  0  0  0  0  0  0  0  0  0
   39.8364   32.4970   49.6913 H   0  0  0  0  0  0  0  0  0  0  0  0
  1  2  1  0
  3  2  1  0
  4  3  1  0
  5  6  1  0
  5  4  1  0
  6  1  1  0
  7 12  1  0
  7  1  1  0
  8  7  2  0
  9  8  1  0
  9 10  2  0
 10 11  1  0
 11 12  2  0
 13  4  1  0
 13 18  1  0
 14 13  1  0
 15 14  1  0
 15 16  1  0
 16 17  1  0
 17 18  1  0
  2 19  1  0
  2 20  1  0
  3 21  1  0
  3 22  1  0
  4 23  1  0
  5 24  1  0
  5 25  1  0
  6 26  1  0
  6 27  1  0
  8 28  1  0
  9 29  1  0
 11 30  1  0
 13 31  1  0
 14 32  1  0
 14 33  1  0
 15 34  1  0
 15 35  1  0
 16 36  1  0
 16 37  1  0
 17 38  1  0
 17 39  1  0
 18 40  1  0
 18 41  1  0
M  ISO  8  19  13  20  13  21  13  22  13  23  13  24  13  25  13  26  13
M  ISO  8  27  13  28  14  29  14  30  14  31  13  32  13  33  13  34  13
M  ISO  7  35  13  36  13  37  13  38  13  39  13  40  13  41  13
M  END
>  <minimizedAffinity>  (1) 
-5.02661324

>  <minimizedRMSD>  (1) 
2.24745965

$$$$
