
     RDKit          3D

 27 28  0  0  0  0  0  0  0  0999 V2000
   37.2050   30.2130   48.4610 N   0  0  0  0  0  0  0  0  0  0  0  0
   37.9100   30.5410   49.6630 C   0  0  0  0  0  0  0  0  0  0  0  0
   38.5300   31.8710   49.7690 C   0  0  0  0  0  0  0  0  0  0  0  0
   38.8820   32.5870   48.5200 C   0  0  0  0  0  0  0  0  0  0  0  0
   38.1700   32.1070   47.2980 C   0  0  0  0  0  0  0  0  0  0  0  0
   38.0420   30.5820   47.3540 C   0  0  0  0  0  0  0  0  0  0  0  0
   35.9150   29.6280   48.3920 C   0  0  0  0  0  0  0  0  0  0  0  0
   34.9810   29.8960   47.3920 C   0  0  0  0  0  0  0  0  0  0  0  0
   33.7440   29.2520   47.4390 C   0  0  0  0  0  0  0  0  0  0  0  0
   33.5150   28.3920   48.4680 N   0  0  0  0  0  0  0  0  0  0  0  0
   34.4380   28.1590   49.4150 C   0  0  0  0  0  0  0  0  0  0  0  0
   35.6270   28.7720   49.3750 N   0  0  0  0  0  0  0  0  0  0  0  0
   38.5450   33.9930   48.6970 N   0  0  0  0  0  0  0  0  0  0  0  0
   37.1961   30.4476   50.4947 H   0  0  0  0  0  0  0  0  0  0  0  0
   38.7608   29.8439   49.6766 H   0  0  0  0  0  0  0  0  0  0  0  0
   37.8305   32.5123   50.3252 H   0  0  0  0  0  0  0  0  0  0  0  0
   39.4992   31.6793   50.2527 H   0  0  0  0  0  0  0  0  0  0  0  0
   39.9541   32.4047   48.3544 H   0  0  0  0  0  0  0  0  0  0  0  0
   38.7407   32.3954   46.4029 H   0  0  0  0  0  0  0  0  0  0  0  0
   37.1685   32.5598   47.2529 H   0  0  0  0  0  0  0  0  0  0  0  0
   37.5943   30.2169   46.4179 H   0  0  0  0  0  0  0  0  0  0  0  0
   39.0386   30.1345   47.4823 H   0  0  0  0  0  0  0  0  0  0  0  0
   35.2149   30.6018   46.5813 H   0  0  0  0  0  0  0  0  0  0  0  0
   32.9793   29.4337   46.6695 H   0  0  0  0  0  0  0  0  0  0  0  0
   34.2146   27.4571   50.2320 H   0  0  0  0  0  0  0  0  0  0  0  0
   38.4931   34.2096   49.7026 H   0  0  0  0  0  0  0  0  0  0  0  0
   39.2696   34.5778   48.2568 H   0  0  0  0  0  0  0  0  0  0  0  0
  1  2  1  0
  2  3  1  0
  4 13  1  0
  4  3  1  0
  5  6  1  0
  5  4  1  0
  6  1  1  0
  7  1  1  0
  7 12  2  0
  8  9  2  0
  8  7  1  0
  9 10  1  0
 10 11  2  0
 12 11  1  0
  2 14  1  0
  2 15  1  0
  3 16  1  0
  3 17  1  0
  4 18  1  0
  5 19  1  0
  5 20  1  0
  6 21  1  0
  6 22  1  0
  8 23  1  0
  9 24  1  0
 11 25  1  0
 13 26  1  0
 13 27  1  0
M  ISO  8  14  13  15  13  16  13  17  13  18  13  19  13  20  13  21  13
M  ISO  6  22  13  23  14  24  14  25  14  26   5  27   5
M  END
>  <minimizedAffinity>  (1) 
-4.82930613

>  <minimizedRMSD>  (1) 
1.48517609

$$$$
