
     RDKit          3D

 34 36  0  0  0  0  0  0  0  0999 V2000
   33.5560   30.2820   45.3740 N   0  0  0  0  0  0  0  0  0  0  0  0
   33.2640   29.9340   46.7300 C   0  0  0  0  0  0  0  0  0  0  0  0
   34.3250   30.0990   47.7250 C   0  0  0  0  0  0  0  0  0  0  0  0
   35.7240   30.0050   47.2730 C   0  0  0  0  0  0  0  0  0  0  0  0
   35.9360   30.3600   45.8170 C   0  0  0  0  0  0  0  0  0  0  0  0
   34.8290   29.6930   45.0020 C   0  0  0  0  0  0  0  0  0  0  0  0
   32.7360   31.0780   44.5130 C   0  0  0  0  0  0  0  0  0  0  0  0
   32.8630   31.1380   43.1230 C   0  0  0  0  0  0  0  0  0  0  0  0
   31.9800   31.9670   42.4350 C   0  0  0  0  0  0  0  0  0  0  0  0
   31.0520   32.6700   43.1370 N   0  0  0  0  0  0  0  0  0  0  0  0
   30.9730   32.5750   44.4770 C   0  0  0  0  0  0  0  0  0  0  0  0
   31.8110   31.7850   45.1530 N   0  0  0  0  0  0  0  0  0  0  0  0
   36.6190   30.9180   48.0430 C   0  0  0  0  0  0  0  0  0  0  0  0
   36.3440   31.0910   49.3810 C   0  0  0  0  0  0  0  0  0  0  0  0
   37.1730   31.9360   50.0910 C   0  0  0  0  0  0  0  0  0  0  0  0
   38.2090   32.5330   49.3980 C   0  0  0  0  0  0  0  0  0  0  0  0
   38.4800   32.3550   48.0570 C   0  0  0  0  0  0  0  0  0  0  0  0
   37.6410   31.5210   47.4070 N   0  0  0  0  0  0  0  0  0  0  0  0
   32.4146   30.5546   47.0514 H   0  0  0  0  0  0  0  0  0  0  0  0
   33.0793   28.8500   46.7021 H   0  0  0  0  0  0  0  0  0  0  0  0
   34.1949   31.0926   48.1788 H   0  0  0  0  0  0  0  0  0  0  0  0
   34.1992   29.2414   48.4023 H   0  0  0  0  0  0  0  0  0  0  0  0
   35.9685   28.9449   47.4352 H   0  0  0  0  0  0  0  0  0  0  0  0
   35.8884   31.4514   45.6882 H   0  0  0  0  0  0  0  0  0  0  0  0
   36.9227   30.0110   45.4785 H   0  0  0  0  0  0  0  0  0  0  0  0
   34.8131   28.6137   45.2136 H   0  0  0  0  0  0  0  0  0  0  0  0
   35.0119   29.8448   43.9280 H   0  0  0  0  0  0  0  0  0  0  0  0
   33.6297   30.5539   42.5930 H   0  0  0  0  0  0  0  0  0  0  0  0
   32.0328   32.0516   41.3395 H   0  0  0  0  0  0  0  0  0  0  0  0
   30.2113   33.1533   45.0204 H   0  0  0  0  0  0  0  0  0  0  0  0
   35.4994   30.5776   49.8637 H   0  0  0  0  0  0  0  0  0  0  0  0
   37.0157   32.1261   51.1630 H   0  0  0  0  0  0  0  0  0  0  0  0
   38.8721   33.2054   49.9620 H   0  0  0  0  0  0  0  0  0  0  0  0
   39.3196   32.8567   47.5536 H   0  0  0  0  0  0  0  0  0  0  0  0
  1  2  1  0
  2  3  1  0
  4  3  1  0
  4 13  1  0
  5  4  1  0
  6  1  1  0
  6  5  1  0
  7 12  1  0
  7  1  1  0
  8  7  2  0
  9  8  1  0
  9 10  2  0
 10 11  1  0
 11 12  2  0
 13 14  2  0
 14 15  1  0
 16 15  2  0
 17 16  1  0
 18 13  1  0
 18 17  2  0
  2 19  1  0
  2 20  1  0
  3 21  1  0
  3 22  1  0
  4 23  1  0
  5 24  1  0
  5 25  1  0
  6 26  1  0
  6 27  1  0
  8 28  1  0
  9 29  1  0
 11 30  1  0
 14 31  1  0
 15 32  1  0
 16 33  1  0
 17 34  1  0
M  ISO  8  19  13  20  13  21  13  22  13  23  13  24  13  25  13  26  13
M  ISO  8  27  13  28  14  29  14  30  14  31  14  32  14  33  14  34  14
M  END
>  <minimizedAffinity>  (1) 
-4.7000742

>  <minimizedRMSD>  (1) 
4.69003439

$$$$
