
     RDKit          3D

 29 30  0  0  0  0  0  0  0  0999 V2000
   35.3790   29.3600   48.6600 N   0  0  0  0  0  0  0  0  0  0  0  0
   36.1760   28.6610   49.6200 C   0  0  0  0  0  0  0  0  0  0  0  0
   36.7650   29.4160   50.7260 C   0  0  0  0  0  0  0  0  0  0  0  0
   37.0520   30.8670   50.5010 C   0  0  0  0  0  0  0  0  0  0  0  0
   36.2100   31.4960   49.4380 C   0  0  0  0  0  0  0  0  0  0  0  0
   36.1020   30.5250   48.2520 C   0  0  0  0  0  0  0  0  0  0  0  0
   34.0920   28.9600   48.1980 C   0  0  0  0  0  0  0  0  0  0  0  0
   33.5410   29.3370   46.9710 C   0  0  0  0  0  0  0  0  0  0  0  0
   32.2720   28.8610   46.6660 C   0  0  0  0  0  0  0  0  0  0  0  0
   31.6240   28.0560   47.5640 N   0  0  0  0  0  0  0  0  0  0  0  0
   32.1920   27.7210   48.7280 C   0  0  0  0  0  0  0  0  0  0  0  0
   33.4110   28.1720   49.0310 N   0  0  0  0  0  0  0  0  0  0  0  0
   39.0450   32.2980   49.7960 C   0  0  0  0  0  0  0  0  0  0  0  0
   38.2270   33.2520   49.5700 O   0  0  0  0  0  0  0  0  0  0  0  0
   38.4870   31.0770   50.2680 N   0  0  0  0  0  0  0  0  0  0  0  0
   35.5395   27.8809   50.0630 H   0  0  0  0  0  0  0  0  0  0  0  0
   37.0444   28.3109   49.0427 H   0  0  0  0  0  0  0  0  0  0  0  0
   36.0722   29.3461   51.5775 H   0  0  0  0  0  0  0  0  0  0  0  0
   37.7527   28.9575   50.8814 H   0  0  0  0  0  0  0  0  0  0  0  0
   36.7667   31.3893   51.4261 H   0  0  0  0  0  0  0  0  0  0  0  0
   35.2065   31.7053   49.8369 H   0  0  0  0  0  0  0  0  0  0  0  0
   36.6688   32.4396   49.1077 H   0  0  0  0  0  0  0  0  0  0  0  0
   37.1103   30.2349   47.9215 H   0  0  0  0  0  0  0  0  0  0  0  0
   35.5733   31.0150   47.4212 H   0  0  0  0  0  0  0  0  0  0  0  0
   34.0907   29.9858   46.2732 H   0  0  0  0  0  0  0  0  0  0  0  0
   31.7927   29.1282   45.7126 H   0  0  0  0  0  0  0  0  0  0  0  0
   31.6539   27.0734   49.4359 H   0  0  0  0  0  0  0  0  0  0  0  0
   40.1268   32.4141   49.6340 H   0  0  0  0  0  0  0  0  0  0  0  0
   39.1279   30.2933   50.4577 H   0  0  0  0  0  0  0  0  0  0  0  0
  1  2  1  0
  2  3  1  0
  4  3  1  0
  5  4  1  0
  6  1  1  0
  6  5  1  0
  7  1  1  0
  7 12  1  0
  8  7  2  0
  9  8  1  0
  9 10  2  0
 10 11  1  0
 11 12  2  0
 13 15  1  0
 14 13  2  0
 15  4  1  0
  2 16  1  0
  2 17  1  0
  3 18  1  0
  3 19  1  0
  4 20  1  0
  5 21  1  0
  5 22  1  0
  6 23  1  0
  6 24  1  0
  8 25  1  0
  9 26  1  0
 11 27  1  0
 13 28  1  0
 15 29  1  0
M  ISO  8  16  13  17  13  18  13  19  13  20  13  21  13  22  13  23  13
M  ISO  5  24  13  25  14  26  14  27  14  28   6
M  END
>  <minimizedAffinity>  (1) 
-4.45606995

>  <minimizedRMSD>  (1) 
1.54292786

$$$$
