
     RDKit          3D

 48 52  0  0  1  0  0  0  0  0999 V2000
   31.7150   28.2070   47.2480 N   0  0  0  0  0  0  0  0  0  0  0  0
   31.9200   27.8330   48.6040 C   0  0  0  0  0  0  0  0  0  0  0  0
   33.1830   28.2830   49.2320 C   0  0  0  0  0  0  0  0  0  0  0  0
   34.3850   28.2510   48.4010 C   0  0  0  0  0  0  0  0  0  0  0  0
   34.0870   28.5870   46.9300 C   0  0  0  0  0  0  0  0  0  0  0  0
   32.8760   27.7460   46.5050 C   0  0  0  0  0  0  0  0  0  0  0  0
   35.8660   29.1670   50.1210 C   0  0  0  0  0  0  0  0  0  0  0  0
   35.4470   29.2060   48.8050 C   0  0  0  0  0  0  0  0  0  0  0  0
   35.9350   30.0870   47.8760 C   0  0  0  0  0  0  0  0  0  0  0  0
   36.9050   30.9910   48.2870 C   0  0  0  0  0  0  0  0  0  0  0  0
   37.3270   30.9580   49.5960 C   0  0  0  0  0  0  0  0  0  0  0  0
   36.8340   30.0650   50.5430 C   0  0  0  0  0  0  0  0  0  0  0  0
   38.3050   31.9420   49.8180 O   0  0  0  0  0  0  0  0  0  0  0  0
   38.7090   32.3450   48.5140 C   0  0  0  0  0  0  0  0  0  0  0  0
   37.6350   32.0150   47.6700 O   0  0  0  0  0  0  0  0  0  0  0  0
   30.6110   28.8970   46.6670 C   0  0  0  0  0  0  0  0  0  0  0  0
   30.5790   29.5200   45.4260 C   0  0  0  0  0  0  0  0  0  0  0  0
   29.4070   30.1360   45.0370 C   0  0  0  0  0  0  0  0  0  0  0  0
   28.3450   30.1030   45.8840 N   0  0  0  0  0  0  0  0  0  0  0  0
   28.3910   29.4970   47.0790 C   0  0  0  0  0  0  0  0  0  0  0  0
   29.5240   28.8990   47.4600 N   0  0  0  0  0  0  0  0  0  0  0  0
   27.0840   26.8900   48.0250 Cl  0  0  0  0  0  0  0  0  0  0  0  0
   26.4570   28.4830   48.3330 C   0  0  0  0  0  0  0  0  0  0  0  0
   27.1510   29.5680   47.8460 C   0  0  0  0  0  0  0  0  0  0  0  0
   26.5840   30.7910   48.1310 C   0  0  0  0  0  0  0  0  0  0  0  0
   25.4000   30.9000   48.8570 C   0  0  0  0  0  0  0  0  0  0  0  0
   24.7430   29.7820   49.3220 C   0  0  0  0  0  0  0  0  0  0  0  0
   25.2860   28.5440   49.0540 C   0  0  0  0  0  0  0  0  0  0  0  0
   31.0884   28.2463   49.1936 H   0  0  0  0  0  0  0  0  0  0  0  0
   31.9750   26.7344   48.5968 H   0  0  0  0  0  0  0  0  0  0  0  0
   33.0368   29.3213   49.5644 H   0  0  0  0  0  0  0  0  0  0  0  0
   33.3742   27.5605   50.0391 H   0  0  0  0  0  0  0  0  0  0  0  0
   34.7366   27.2175   48.5363 H   0  0  0  0  0  0  0  0  0  0  0  0
   33.8560   29.6576   46.8280 H   0  0  0  0  0  0  0  0  0  0  0  0
   34.9576   28.3635   46.2959 H   0  0  0  0  0  0  0  0  0  0  0  0
   32.6992   27.8677   45.4261 H   0  0  0  0  0  0  0  0  0  0  0  0
   33.0616   26.6823   46.7149 H   0  0  0  0  0  0  0  0  0  0  0  0
   35.4385   28.4354   50.8224 H   0  0  0  0  0  0  0  0  0  0  0  0
   35.5700   30.0782   46.8383 H   0  0  0  0  0  0  0  0  0  0  0  0
   37.1968   30.0716   51.5814 H   0  0  0  0  0  0  0  0  0  0  0  0
   38.8997   33.4280   48.4881 H   0  0  0  0  0  0  0  0  0  0  0  0
   39.6400   31.8484   48.2033 H   0  0  0  0  0  0  0  0  0  0  0  0
   31.4631   29.5223   44.7716 H   0  0  0  0  0  0  0  0  0  0  0  0
   29.3342   30.6423   44.0632 H   0  0  0  0  0  0  0  0  0  0  0  0
   27.0798   31.7064   47.7756 H   0  0  0  0  0  0  0  0  0  0  0  0
   24.9823   31.8966   49.0626 H   0  0  0  0  0  0  0  0  0  0  0  0
   23.8077   29.8752   49.8934 H   0  0  0  0  0  0  0  0  0  0  0  0
   24.7949   27.6256   49.4081 H   0  0  0  0  0  0  0  0  0  0  0  0
  1  2  1  0
  2  3  1  0
  4  8  1  0
  4  3  1  0
  5  4  1  0
  6  5  1  0
  6  1  1  0
  7 12  2  0
  8  7  1  0
  9 10  1  0
  9  8  2  0
 10 11  2  0
 11 13  1  0
 11 12  1  0
 14 13  1  0
 15 10  1  0
 15 14  1  0
 16  1  1  0
 16 21  1  0
 17 16  2  0
 18 17  1  0
 18 19  2  0
 19 20  1  0
 20 21  2  0
 20 24  1  0
 22 23  1  0
 23 28  2  0
 24 25  2  0
 24 23  1  0
 25 26  1  0
 26 27  2  0
 28 27  1  0
  2 29  1  0
  2 30  1  0
  3 31  1  0
  3 32  1  0
  4 33  1  0
  5 34  1  0
  5 35  1  0
  6 36  1  0
  6 37  1  0
  7 38  1  0
  9 39  1  0
 12 40  1  0
 14 41  1  0
 14 42  1  0
 17 43  1  0
 18 44  1  0
 25 45  1  0
 26 46  1  0
 27 47  1  0
 28 48  1  0
M  ISO  8  29  13  30  13  31  13  32  13  33  13  34  13  35  13  36  13
M  ISO  8  37  13  38  14  39  14  40  14  41  13  42  13  43  14  44  14
M  ISO  4  45  14  46  14  47  14  48  14
M  END
>  <minimizedAffinity>  (1) 
-8.32882881

>  <minimizedRMSD>  (1) 
1.90328085

$$$$
