
     RDKit          3D

 45 49  0  0  1  0  0  0  0  0999 V2000
   32.8420   28.1510   47.3810 N   0  0  0  0  0  0  0  0  0  0  0  0
   33.5480   27.6150   48.4940 C   0  0  0  0  0  0  0  0  0  0  0  0
   34.7160   28.3830   48.9840 C   0  0  0  0  0  0  0  0  0  0  0  0
   35.5450   29.0400   47.9740 C   0  0  0  0  0  0  0  0  0  0  0  0
   34.7250   29.5280   46.7670 C   0  0  0  0  0  0  0  0  0  0  0  0
   33.8060   28.3770   46.3400 C   0  0  0  0  0  0  0  0  0  0  0  0
   35.9590   30.7320   49.7030 C   0  0  0  0  0  0  0  0  0  0  0  0
   36.2790   30.2400   48.4460 C   0  0  0  0  0  0  0  0  0  0  0  0
   37.2070   30.8110   47.6170 C   0  0  0  0  0  0  0  0  0  0  0  0
   37.8660   31.9560   48.0700 C   0  0  0  0  0  0  0  0  0  0  0  0
   37.5490   32.4430   49.3120 C   0  0  0  0  0  0  0  0  0  0  0  0
   36.6060   31.8640   50.1570 C   0  0  0  0  0  0  0  0  0  0  0  0
   38.3070   33.5920   49.5900 O   0  0  0  0  0  0  0  0  0  0  0  0
   39.3460   33.5760   48.6160 C   0  0  0  0  0  0  0  0  0  0  0  0
   38.8420   32.8060   47.5510 O   0  0  0  0  0  0  0  0  0  0  0  0
   31.4440   28.4220   47.2810 C   0  0  0  0  0  0  0  0  0  0  0  0
   30.7990   28.9830   46.1850 C   0  0  0  0  0  0  0  0  0  0  0  0
   29.4250   29.1700   46.2730 C   0  0  0  0  0  0  0  0  0  0  0  0
   28.7790   28.8000   47.4150 N   0  0  0  0  0  0  0  0  0  0  0  0
   29.4340   28.2690   48.4390 C   0  0  0  0  0  0  0  0  0  0  0  0
   30.7430   28.0780   48.3830 N   0  0  0  0  0  0  0  0  0  0  0  0
   28.6030   27.9200   49.6040 C   0  0  0  0  0  0  0  0  0  0  0  0
   28.8050   27.1450   50.6720 C   0  0  0  0  0  0  0  0  0  0  0  0
   27.8620   26.9870   51.6210 C   0  0  0  0  0  0  0  0  0  0  0  0
   26.6760   27.6810   51.4070 C   0  0  0  0  0  0  0  0  0  0  0  0
   26.9740   28.5650   49.7940 S   0  0  0  0  0  0  0  0  0  0  0  0
   32.8356   27.5271   49.3275 H   0  0  0  0  0  0  0  0  0  0  0  0
   33.9635   26.6616   48.1358 H   0  0  0  0  0  0  0  0  0  0  0  0
   34.3404   29.1618   49.6640 H   0  0  0  0  0  0  0  0  0  0  0  0
   35.3734   27.6372   49.4547 H   0  0  0  0  0  0  0  0  0  0  0  0
   36.2568   28.2439   47.7102 H   0  0  0  0  0  0  0  0  0  0  0  0
   34.1232   30.4039   47.0510 H   0  0  0  0  0  0  0  0  0  0  0  0
   35.3886   29.8217   45.9404 H   0  0  0  0  0  0  0  0  0  0  0  0
   33.2882   28.6427   45.4066 H   0  0  0  0  0  0  0  0  0  0  0  0
   34.3982   27.4655   46.1714 H   0  0  0  0  0  0  0  0  0  0  0  0
   35.2042   30.2298   50.3260 H   0  0  0  0  0  0  0  0  0  0  0  0
   37.4261   30.3825   46.6279 H   0  0  0  0  0  0  0  0  0  0  0  0
   36.3854   32.2912   51.1464 H   0  0  0  0  0  0  0  0  0  0  0  0
   39.5744   34.5979   48.2789 H   0  0  0  0  0  0  0  0  0  0  0  0
   40.2806   33.1585   49.0188 H   0  0  0  0  0  0  0  0  0  0  0  0
   31.3562   29.2686   45.2806 H   0  0  0  0  0  0  0  0  0  0  0  0
   28.8667   29.6101   45.4336 H   0  0  0  0  0  0  0  0  0  0  0  0
   29.7665   26.6218   50.7800 H   0  0  0  0  0  0  0  0  0  0  0  0
   28.0194   26.3520   52.5053 H   0  0  0  0  0  0  0  0  0  0  0  0
   25.7762   27.7029   52.0394 H   0  0  0  0  0  0  0  0  0  0  0  0
  1  2  1  0
  2  3  1  0
  4  8  1  0
  4  3  1  0
  5  4  1  0
  6  5  1  0
  6  1  1  0
  7 12  2  0
  8  7  1  0
  9 10  1  0
  9  8  2  0
 10 11  2  0
 11 13  1  0
 11 12  1  0
 14 13  1  0
 15 10  1  0
 15 14  1  0
 16  1  1  0
 16 21  2  0
 17 18  2  0
 17 16  1  0
 18 19  1  0
 19 20  2  0
 20 22  1  0
 21 20  1  0
 22 26  1  0
 22 23  2  0
 23 24  1  0
 25 24  2  0
 26 25  1  0
  2 27  1  0
  2 28  1  0
  3 29  1  0
  3 30  1  0
  4 31  1  0
  5 32  1  0
  5 33  1  0
  6 34  1  0
  6 35  1  0
  7 36  1  0
  9 37  1  0
 12 38  1  0
 14 39  1  0
 14 40  1  0
 17 41  1  0
 18 42  1  0
 23 43  1  0
 24 44  1  0
 25 45  1  0
M  ISO  8  27  13  28  13  29  13  30  13  31  13  32  13  33  13  34  13
M  ISO  8  35  13  36  14  37  14  38  14  39  13  40  13  41  14  42  14
M  ISO  3  43  14  44  14  45  14
M  END
>  <minimizedAffinity>  (1) 
-7.49828434

>  <minimizedRMSD>  (1) 
0.69062829

$$$$
