
     RDKit          3D

 44 47  0  0  0  0  0  0  0  0999 V2000
   32.2170   28.1070   47.4980 N   0  0  0  0  0  0  0  0  0  0  0  0
   32.7260   27.6920   48.7600 C   0  0  0  0  0  0  0  0  0  0  0  0
   33.9380   28.3810   49.2540 C   0  0  0  0  0  0  0  0  0  0  0  0
   34.9520   28.7260   48.2580 C   0  0  0  0  0  0  0  0  0  0  0  0
   34.3340   29.1010   46.8970 C   0  0  0  0  0  0  0  0  0  0  0  0
   33.3000   28.0130   46.5590 C   0  0  0  0  0  0  0  0  0  0  0  0
   35.7560   30.3370   49.9250 C   0  0  0  0  0  0  0  0  0  0  0  0
   35.8120   29.8820   48.6180 C   0  0  0  0  0  0  0  0  0  0  0  0
   36.5880   30.4500   47.6420 C   0  0  0  0  0  0  0  0  0  0  0  0
   37.3660   31.5540   47.9910 C   0  0  0  0  0  0  0  0  0  0  0  0
   37.3130   32.0080   49.2870 C   0  0  0  0  0  0  0  0  0  0  0  0
   36.5250   31.4320   50.2810 C   0  0  0  0  0  0  0  0  0  0  0  0
   38.1600   33.1190   49.4400 O   0  0  0  0  0  0  0  0  0  0  0  0
   39.0120   33.0690   48.2960 C   0  0  0  0  0  0  0  0  0  0  0  0
   38.2580   32.3870   47.3200 O   0  0  0  0  0  0  0  0  0  0  0  0
   30.8930   28.5410   47.1810 C   0  0  0  0  0  0  0  0  0  0  0  0
   30.5430   29.4340   46.1740 C   0  0  0  0  0  0  0  0  0  0  0  0
   29.1900   29.7280   46.0220 C   0  0  0  0  0  0  0  0  0  0  0  0
   28.2900   29.1350   46.8510 N   0  0  0  0  0  0  0  0  0  0  0  0
   28.6600   28.2770   47.8130 C   0  0  0  0  0  0  0  0  0  0  0  0
   29.9500   27.9840   47.9740 N   0  0  0  0  0  0  0  0  0  0  0  0
   27.6320   27.7490   48.5860 O   0  0  0  0  0  0  0  0  0  0  0  0
   28.5500   26.8930   50.8670 O   0  0  0  0  0  0  0  0  0  0  0  0
   27.6560   27.9990   50.2970 P   0  0  0  0  0  0  0  0  0  0  0  0
   26.1110   27.9280   50.9430 O   0  0  0  0  0  0  0  0  0  0  0  0
   28.4420   29.4490   50.6230 O   0  0  0  0  0  0  0  0  0  0  0  0
   31.9309   27.8439   49.5048 H   0  0  0  0  0  0  0  0  0  0  0  0
   33.0312   26.6452   48.6150 H   0  0  0  0  0  0  0  0  0  0  0  0
   33.6160   29.3146   49.7384 H   0  0  0  0  0  0  0  0  0  0  0  0
   34.4268   27.6589   49.9245 H   0  0  0  0  0  0  0  0  0  0  0  0
   35.5546   27.8069   48.2110 H   0  0  0  0  0  0  0  0  0  0  0  0
   33.8420   30.0826   46.9628 H   0  0  0  0  0  0  0  0  0  0  0  0
   35.1078   29.1636   46.1177 H   0  0  0  0  0  0  0  0  0  0  0  0
   32.9204   28.1661   45.5380 H   0  0  0  0  0  0  0  0  0  0  0  0
   33.7658   27.0183   46.6188 H   0  0  0  0  0  0  0  0  0  0  0  0
   35.1133   29.8383   50.6655 H   0  0  0  0  0  0  0  0  0  0  0  0
   36.5972   30.0489   46.6178 H   0  0  0  0  0  0  0  0  0  0  0  0
   36.5142   31.8306   51.3062 H   0  0  0  0  0  0  0  0  0  0  0  0
   39.2625   34.0840   47.9538 H   0  0  0  0  0  0  0  0  0  0  0  0
   39.9678   32.5682   48.5096 H   0  0  0  0  0  0  0  0  0  0  0  0
   31.3041   29.8899   45.5236 H   0  0  0  0  0  0  0  0  0  0  0  0
   28.8548   30.4290   45.2434 H   0  0  0  0  0  0  0  0  0  0  0  0
   26.1662   27.9305   51.9315 H   0  0  0  0  0  0  0  0  0  0  0  0
   28.5100   29.5745   51.6027 H   0  0  0  0  0  0  0  0  0  0  0  0
  1  2  1  0
  2  3  1  0
  4  8  1  0
  4  3  1  0
  5  4  1  0
  6  5  1  0
  6  1  1  0
  7 12  2  0
  8  7  1  0
  9 10  1  0
  9  8  2  0
 10 11  2  0
 11 13  1  0
 11 12  1  0
 14 13  1  0
 15 10  1  0
 15 14  1  0
 16  1  1  0
 16 21  1  0
 17 16  2  0
 18 17  1  0
 18 19  2  0
 19 20  1  0
 20 21  2  0
 20 22  1  0
 22 24  1  0
 24 26  1  0
 24 23  2  0
 24 25  1  0
  2 27  1  0
  2 28  1  0
  3 29  1  0
  3 30  1  0
  4 31  1  0
  5 32  1  0
  5 33  1  0
  6 34  1  0
  6 35  1  0
  7 36  1  0
  9 37  1  0
 12 38  1  0
 14 39  1  0
 14 40  1  0
 17 41  1  0
 18 42  1  0
 25 43  1  0
 26 44  1  0
M  ISO  8  27  13  28  13  29  13  30  13  31  13  32  13  33  13  34  13
M  ISO  8  35  13  36  14  37  14  38  14  39  13  40  13  41  14  42  14
M  ISO  2  43   3  44   3
M  END
>  <minimizedAffinity>  (1) 
-7.41543913

>  <minimizedRMSD>  (1) 
0.791101873

$$$$
