
     RDKit          3D

 33 35  0  0  1  0  0  0  0  0999 V2000
   36.2240   30.5390   47.1690 C   0  0  0  0  0  0  0  0  0  0  0  0
   36.7920   30.6240   45.8850 C   0  0  0  0  0  0  0  0  0  0  0  0
   35.9900   30.2020   44.8120 C   0  0  0  0  0  0  0  0  0  0  0  0
   34.7430   29.7460   45.0460 N   0  0  0  0  0  0  0  0  0  0  0  0
   34.2270   29.6790   46.2980 C   0  0  0  0  0  0  0  0  0  0  0  0
   34.9670   30.0760   47.3690 N   0  0  0  0  0  0  0  0  0  0  0  0
   38.1110   31.1200   45.7620 N   0  0  0  0  0  0  0  0  0  0  0  0
   38.4460   32.3560   46.1940 C   0  0  0  0  0  0  0  0  0  0  0  0
   39.7440   32.8210   46.0650 C   0  0  0  0  0  0  0  0  0  0  0  0
   40.5990   31.9050   45.4720 C   0  0  0  0  0  0  0  0  0  0  0  0
   41.8160   32.2910   45.3310 O   0  0  0  0  0  0  0  0  0  0  0  0
   40.3060   30.6780   45.0340 N   0  0  0  0  0  0  0  0  0  0  0  0
   39.0140   30.2980   45.1950 C   0  0  0  0  0  0  0  0  0  0  0  0
   38.7090   29.1350   44.7870 O   0  0  0  0  0  0  0  0  0  0  0  0
   37.3760   29.6940   49.1960 C   0  0  1  0  0  0  0  0  0  0  0  0
   36.9130   30.9250   48.4030 C   0  0  2  0  0  0  0  0  0  0  0  0
   36.1240   31.5620   49.3260 O   0  0  0  0  0  0  0  0  0  0  0  0
   37.0780   31.7510   50.3540 C   0  0  0  0  0  0  0  0  0  0  0  0
   37.7120   30.3660   50.5270 C   0  0  1  0  0  0  0  0  0  0  0  0
   36.3290   28.8080   49.4210 O   0  0  0  0  0  0  0  0  0  0  0  0
   37.1200   29.7240   51.6070 O   0  0  0  0  0  0  0  0  0  0  0  0
   36.3782   30.2434   43.7836 H   0  0  0  0  0  0  0  0  0  0  0  0
   33.2048   29.3018   46.4489 H   0  0  0  0  0  0  0  0  0  0  0  0
   37.6802   32.9989   46.6525 H   0  0  0  0  0  0  0  0  0  0  0  0
   40.0648   33.8184   46.3999 H   0  0  0  0  0  0  0  0  0  0  0  0
   41.0117   30.0632   44.6040 H   0  0  0  0  0  0  0  0  0  0  0  0
   38.1729   29.1177   48.7032 H   0  0  0  0  0  0  0  0  0  0  0  0
   37.7177   31.5743   48.0276 H   0  0  0  0  0  0  0  0  0  0  0  0
   37.8334   32.4928   50.0555 H   0  0  0  0  0  0  0  0  0  0  0  0
   36.6303   32.1320   51.2837 H   0  0  0  0  0  0  0  0  0  0  0  0
   38.7918   30.3644   50.7370 H   0  0  0  0  0  0  0  0  0  0  0  0
   36.1958   28.6952   50.3955 H   0  0  0  0  0  0  0  0  0  0  0  0
   37.4714   30.1050   52.4505 H   0  0  0  0  0  0  0  0  0  0  0  0
  1  6  1  0
  2  1  2  0
  3  4  2  0
  3  2  1  0
  4  5  1  0
  5  6  2  0
  7  2  1  0
  7  8  1  0
  9  8  2  0
 10  9  1  0
 11 10  2  0
 12 13  1  0
 12 10  1  0
 13  7  1  0
 14 13  2  0
 15 20  1  0
 15 19  1  0
 16  1  1  0
 16 15  1  0
 16 17  1  0
 17 18  1  0
 18 19  1  0
 19 21  1  0
  3 22  1  0
  5 23  1  0
  8 24  1  0
  9 25  1  0
 12 26  1  0
 15 27  1  6
 16 28  1  6
 18 29  1  0
 18 30  1  0
 19 31  1  1
 20 32  1  0
 21 33  1  0
M  ISO  8  22  14  23  14  24  14  25  14  26   9  27  13  28  13  29  13
M  ISO  4  30  13  31  13  32   3  33   3
M  END
>  <minimizedAffinity>  (1) 
-5.3753109

>  <minimizedRMSD>  (1) 
3.04909801

$$$$
