
     RDKit          3D

 35 37  0  0  0  0  0  0  0  0999 V2000
   36.5720   30.5950   46.5720 C   0  0  0  0  0  0  0  0  0  0  0  0
   37.5180   31.5840   46.2400 C   0  0  0  0  0  0  0  0  0  0  0  0
   37.8300   31.7460   44.8920 C   0  0  0  0  0  0  0  0  0  0  0  0
   37.2180   30.9550   43.9750 N   0  0  0  0  0  0  0  0  0  0  0  0
   36.3200   30.0170   44.3180 C   0  0  0  0  0  0  0  0  0  0  0  0
   35.9910   29.8310   45.6220 N   0  0  0  0  0  0  0  0  0  0  0  0
   38.0880   32.3470   47.2870 N   0  0  0  0  0  0  0  0  0  0  0  0
   37.4690   32.4890   48.4810 C   0  0  0  0  0  0  0  0  0  0  0  0
   38.0290   33.2360   49.5040 C   0  0  0  0  0  0  0  0  0  0  0  0
   39.2530   33.7970   49.1580 C   0  0  0  0  0  0  0  0  0  0  0  0
   39.8270   34.4980   50.0500 O   0  0  0  0  0  0  0  0  0  0  0  0
   39.8940   33.6800   47.9920 N   0  0  0  0  0  0  0  0  0  0  0  0
   39.2760   32.9310   47.0460 C   0  0  0  0  0  0  0  0  0  0  0  0
   39.8670   32.8090   45.9360 O   0  0  0  0  0  0  0  0  0  0  0  0
   36.1610   30.3200   47.8940 N   0  0  0  0  0  0  0  0  0  0  0  0
   37.0480   29.7870   48.9000 C   0  0  0  0  0  0  0  0  0  0  0  0
   36.4120   28.7400   49.7630 C   0  0  0  0  0  0  0  0  0  0  0  0
   34.9650   28.9820   50.0540 C   0  0  0  0  0  0  0  0  0  0  0  0
   34.5060   30.3640   49.6810 C   0  0  0  0  0  0  0  0  0  0  0  0
   34.7780   30.5980   48.2310 C   0  0  0  0  0  0  0  0  0  0  0  0
   38.5617   32.5040   44.5757 H   0  0  0  0  0  0  0  0  0  0  0  0
   35.8497   29.3976   43.5401 H   0  0  0  0  0  0  0  0  0  0  0  0
   36.4974   31.9995   48.6436 H   0  0  0  0  0  0  0  0  0  0  0  0
   37.5549   33.3712   50.4873 H   0  0  0  0  0  0  0  0  0  0  0  0
   40.8037   34.1320   47.8217 H   0  0  0  0  0  0  0  0  0  0  0  0
   37.9184   29.3414   48.3961 H   0  0  0  0  0  0  0  0  0  0  0  0
   37.3297   30.6219   49.5584 H   0  0  0  0  0  0  0  0  0  0  0  0
   36.5038   27.7698   49.2528 H   0  0  0  0  0  0  0  0  0  0  0  0
   36.9373   28.7645   50.7291 H   0  0  0  0  0  0  0  0  0  0  0  0
   34.3682   28.2514   49.4882 H   0  0  0  0  0  0  0  0  0  0  0  0
   34.8292   28.8760   51.1404 H   0  0  0  0  0  0  0  0  0  0  0  0
   33.4268   30.4573   49.8725 H   0  0  0  0  0  0  0  0  0  0  0  0
   35.0479   31.1082   50.2831 H   0  0  0  0  0  0  0  0  0  0  0  0
   34.5568   31.6486   47.9916 H   0  0  0  0  0  0  0  0  0  0  0  0
   34.1392   29.9184   47.6478 H   0  0  0  0  0  0  0  0  0  0  0  0
  1 15  1  0
  2  1  1  0
  2  7  1  0
  3  2  2  0
  4  5  2  0
  4  3  1  0
  5  6  1  0
  6  1  2  0
  7  8  1  0
  8  9  2  0
 10  9  1  0
 10 11  2  0
 12 10  1  0
 13  7  1  0
 13 12  1  0
 14 13  2  0
 15 20  1  0
 15 16  1  0
 16 17  1  0
 17 18  1  0
 19 18  1  0
 20 19  1  0
  3 21  1  0
  5 22  1  0
  8 23  1  0
  9 24  1  0
 12 25  1  0
 16 26  1  0
 16 27  1  0
 17 28  1  0
 17 29  1  0
 18 30  1  0
 18 31  1  0
 19 32  1  0
 19 33  1  0
 20 34  1  0
 20 35  1  0
M  ISO  8  21  14  22  14  23  14  24  14  25   9  26  13  27  13  28  13
M  ISO  7  29  13  30  13  31  13  32  13  33  13  34  13  35  13
M  END
>  <minimizedAffinity>  (1) 
-5.19950581

>  <minimizedRMSD>  (1) 
3.38740921

$$$$
