
     RDKit          3D

 21 22  0  0  0  0  0  0  0  0999 V2000
   37.0290   31.3920   48.6970 N   0  0  0  0  0  0  0  0  0  0  0  0
   36.9570   32.3680   49.6240 C   0  0  0  0  0  0  0  0  0  0  0  0
   37.9220   33.3750   49.6630 C   0  0  0  0  0  0  0  0  0  0  0  0
   38.8890   33.2490   48.6990 C   0  0  0  0  0  0  0  0  0  0  0  0
   39.7980   34.1560   48.6970 O   0  0  0  0  0  0  0  0  0  0  0  0
   38.9860   32.2950   47.7680 N   0  0  0  0  0  0  0  0  0  0  0  0
   38.0200   31.3520   47.7890 C   0  0  0  0  0  0  0  0  0  0  0  0
   38.0940   30.4350   46.9130 O   0  0  0  0  0  0  0  0  0  0  0  0
   36.1360   29.3070   49.5750 C   0  0  0  0  0  0  0  0  0  0  0  0
   36.0570   30.3540   48.6380 C   0  0  0  0  0  0  0  0  0  0  0  0
   35.0230   30.3010   47.7080 C   0  0  0  0  0  0  0  0  0  0  0  0
   34.1530   29.2650   47.7420 N   0  0  0  0  0  0  0  0  0  0  0  0
   34.2550   28.2790   48.6510 C   0  0  0  0  0  0  0  0  0  0  0  0
   35.2490   28.2890   49.5780 N   0  0  0  0  0  0  0  0  0  0  0  0
   37.4060   29.2370   50.8290 S   0  0  0  0  0  0  0  0  0  0  0  0
   36.1335   32.3706   50.3532 H   0  0  0  0  0  0  0  0  0  0  0  0
   37.9083   34.1932   50.3981 H   0  0  0  0  0  0  0  0  0  0  0  0
   39.7501   32.2801   47.0775 H   0  0  0  0  0  0  0  0  0  0  0  0
   34.9140   31.0933   46.9528 H   0  0  0  0  0  0  0  0  0  0  0  0
   33.5259   27.4554   48.6442 H   0  0  0  0  0  0  0  0  0  0  0  0
   36.8252   29.2690   52.0694 H   0  0  0  0  0  0  0  0  0  0  0  0
  1  2  1  0
  2  3  2  0
  4  3  1  0
  5  4  2  0
  6  7  1  0
  6  4  1  0
  7  1  1  0
  8  7  2  0
  9 14  2  0
  9 15  1  0
 10  1  1  0
 10  9  1  0
 11 12  1  0
 11 10  2  0
 12 13  2  0
 13 14  1  0
  2 16  1  0
  3 17  1  0
  6 18  1  0
 11 19  1  0
 13 20  1  0
 15 21  1  0
M  ISO  6  16  14  17  14  18   9  19  14  20  14  21  11
M  END
>  <minimizedAffinity>  (1) 
-4.99129534

>  <minimizedRMSD>  (1) 
0.351600319

$$$$
