
     RDKit          3D

 32 34  0  0  1  0  0  0  0  0999 V2000
   36.0510   30.2350   47.1310 C   0  0  0  0  0  0  0  0  0  0  0  0
   36.9320   31.0220   46.3700 C   0  0  0  0  0  0  0  0  0  0  0  0
   36.9010   30.8510   44.9900 C   0  0  0  0  0  0  0  0  0  0  0  0
   36.0460   29.9590   44.4490 N   0  0  0  0  0  0  0  0  0  0  0  0
   35.2080   29.2150   45.2140 C   0  0  0  0  0  0  0  0  0  0  0  0
   35.2040   29.3480   46.5720 N   0  0  0  0  0  0  0  0  0  0  0  0
   37.7840   31.9230   47.0500 N   0  0  0  0  0  0  0  0  0  0  0  0
   37.6980   32.1490   48.3630 C   0  0  0  0  0  0  0  0  0  0  0  0
   38.5590   33.0460   48.9970 C   0  0  0  0  0  0  0  0  0  0  0  0
   39.4690   33.6430   48.1380 C   0  0  0  0  0  0  0  0  0  0  0  0
   40.2560   34.4610   48.7110 O   0  0  0  0  0  0  0  0  0  0  0  0
   39.5900   33.4480   46.8220 N   0  0  0  0  0  0  0  0  0  0  0  0
   38.7150   32.5640   46.2960 C   0  0  0  0  0  0  0  0  0  0  0  0
   38.8200   32.3710   45.0430 O   0  0  0  0  0  0  0  0  0  0  0  0
   34.6030   30.6770   49.1130 C   0  0  2  0  0  0  0  0  0  0  0  0
   35.9320   30.2620   48.6080 C   0  0  1  0  0  0  0  0  0  0  0  0
   36.1680   28.9290   49.2360 C   0  0  0  0  0  0  0  0  0  0  0  0
   35.3280   28.7950   50.3180 O   0  0  0  0  0  0  0  0  0  0  0  0
   34.2630   29.6520   50.1580 C   0  0  0  0  0  0  0  0  0  0  0  0
   33.6680   30.6520   48.0910 O   0  0  0  0  0  0  0  0  0  0  0  0
   37.5693   31.4393   44.3441 H   0  0  0  0  0  0  0  0  0  0  0  0
   34.5253   28.4978   44.7349 H   0  0  0  0  0  0  0  0  0  0  0  0
   36.9364   31.6198   48.9545 H   0  0  0  0  0  0  0  0  0  0  0  0
   38.5194   33.2590   50.0754 H   0  0  0  0  0  0  0  0  0  0  0  0
   40.2966   33.9346   46.2521 H   0  0  0  0  0  0  0  0  0  0  0  0
   34.6070   31.7015   49.5135 H   0  0  0  0  0  0  0  0  0  0  0  0
   36.7012   30.9990   48.8821 H   0  0  0  0  0  0  0  0  0  0  0  0
   35.9597   28.1337   48.5052 H   0  0  0  0  0  0  0  0  0  0  0  0
   37.2153   28.8493   49.5630 H   0  0  0  0  0  0  0  0  0  0  0  0
   34.0507   30.1565   51.1122 H   0  0  0  0  0  0  0  0  0  0  0  0
   33.3765   29.0830   49.8413 H   0  0  0  0  0  0  0  0  0  0  0  0
   32.7570   30.6276   48.4777 H   0  0  0  0  0  0  0  0  0  0  0  0
  2  7  1  0
  2  1  1  0
  3  2  2  0
  4  3  1  0
  4  5  2  0
  5  6  1  0
  6  1  2  0
  7  8  1  0
  8  9  2  0
 10 11  2  0
 10  9  1  0
 12 10  1  0
 13 12  1  0
 13  7  1  0
 14 13  2  0
 15 20  1  0
 15 19  1  0
 16  1  1  0
 16 15  1  0
 16 17  1  0
 17 18  1  0
 19 18  1  0
  3 21  1  0
  5 22  1  0
  8 23  1  0
  9 24  1  0
 12 25  1  0
 15 26  1  1
 16 27  1  1
 17 28  1  0
 17 29  1  0
 19 30  1  0
 19 31  1  0
 20 32  1  0
M  ISO  8  21  14  22  14  23  14  24  14  25   9  26  13  27  13  28  13
M  ISO  4  29  13  30  13  31  13  32   3
M  END
>  <minimizedAffinity>  (1) 
-4.91035891

>  <minimizedRMSD>  (1) 
3.04773021

$$$$
