
     RDKit          3D

 27 29  0  0  0  0  0  0  0  0999 V2000
   35.8160   29.3150   49.0000 C   0  0  0  0  0  0  0  0  0  0  0  0
   36.0210   30.2790   47.9990 C   0  0  0  0  0  0  0  0  0  0  0  0
   35.2720   30.1890   46.8120 C   0  0  0  0  0  0  0  0  0  0  0  0
   34.3820   29.1700   46.6940 N   0  0  0  0  0  0  0  0  0  0  0  0
   34.1980   28.2620   47.6540 C   0  0  0  0  0  0  0  0  0  0  0  0
   34.9010   28.3260   48.7960 N   0  0  0  0  0  0  0  0  0  0  0  0
   36.9850   31.3080   48.2350 N   0  0  0  0  0  0  0  0  0  0  0  0
   36.8020   32.2220   49.2220 C   0  0  0  0  0  0  0  0  0  0  0  0
   37.7800   33.1980   49.4330 C   0  0  0  0  0  0  0  0  0  0  0  0
   38.8510   33.1160   48.5820 C   0  0  0  0  0  0  0  0  0  0  0  0
   39.7350   34.0130   48.7900 O   0  0  0  0  0  0  0  0  0  0  0  0
   39.0610   32.2270   47.5940 N   0  0  0  0  0  0  0  0  0  0  0  0
   38.0800   31.3070   47.4400 C   0  0  0  0  0  0  0  0  0  0  0  0
   38.2420   30.4640   46.5300 O   0  0  0  0  0  0  0  0  0  0  0  0
   36.5420   29.3030   50.2620 C   0  0  0  0  0  0  0  0  0  0  0  0
   37.8010   28.7810   50.4550 C   0  0  0  0  0  0  0  0  0  0  0  0
   38.2010   28.9200   51.7280 N   0  0  0  0  0  0  0  0  0  0  0  0
   37.2200   29.5280   52.3730 C   0  0  0  0  0  0  0  0  0  0  0  0
   36.2450   29.7480   51.4920 N   0  0  0  0  0  0  0  0  0  0  0  0
   35.4032   30.9225   46.0029 H   0  0  0  0  0  0  0  0  0  0  0  0
   33.4648   27.4549   47.5088 H   0  0  0  0  0  0  0  0  0  0  0  0
   35.8970   32.1948   49.8467 H   0  0  0  0  0  0  0  0  0  0  0  0
   37.6971   33.9666   50.2156 H   0  0  0  0  0  0  0  0  0  0  0  0
   39.9029   32.2451   47.0009 H   0  0  0  0  0  0  0  0  0  0  0  0
   38.4034   28.3092   49.6648 H   0  0  0  0  0  0  0  0  0  0  0  0
   39.0996   28.6122   52.1263 H   0  0  0  0  0  0  0  0  0  0  0  0
   37.2105   29.8013   53.4385 H   0  0  0  0  0  0  0  0  0  0  0  0
  1 15  1  0
  2  7  1  0
  2  1  1  0
  3  2  2  0
  4  3  1  0
  4  5  2  0
  5  6  1  0
  6  1  2  0
  7  8  1  0
  8  9  2  0
 10 11  2  0
 10  9  1  0
 12 10  1  0
 13 12  1  0
 13  7  1  0
 14 13  2  0
 15 16  2  0
 15 19  1  0
 16 17  1  0
 17 18  1  0
 19 18  2  0
  3 20  1  0
  5 21  1  0
  8 22  1  0
  9 23  1  0
 12 24  1  0
 16 25  1  0
 17 26  1  0
 18 27  1  0
M  ISO  8  20  14  21  14  22  14  23  14  24   9  25  14  26   9  27  14
M  END
>  <minimizedAffinity>  (1) 
-4.74387217

>  <minimizedRMSD>  (1) 
0.873303413

$$$$
