
     RDKit          3D

 37 40  0  0  0  0  0  0  0  0999 V2000
   37.0750   31.3670   48.1320 N   0  0  0  0  0  0  0  0  0  0  0  0
   37.6950   32.1690   48.9900 C   0  0  0  0  0  0  0  0  0  0  0  0
   38.7710   32.9450   48.5540 C   0  0  0  0  0  0  0  0  0  0  0  0
   39.0930   32.7980   47.2340 C   0  0  0  0  0  0  0  0  0  0  0  0
   40.0760   33.5190   46.8740 O   0  0  0  0  0  0  0  0  0  0  0  0
   38.4990   32.0100   46.3480 N   0  0  0  0  0  0  0  0  0  0  0  0
   37.4640   31.2800   46.8230 C   0  0  0  0  0  0  0  0  0  0  0  0
   36.8830   30.5190   45.9840 O   0  0  0  0  0  0  0  0  0  0  0  0
   38.5700   32.7090   43.9080 C   0  0  0  0  0  0  0  0  0  0  0  0
   38.9020   31.9170   44.9800 C   0  0  0  0  0  0  0  0  0  0  0  0
   39.7590   30.8280   44.8060 C   0  0  0  0  0  0  0  0  0  0  0  0
   40.2850   30.5330   43.5540 C   0  0  0  0  0  0  0  0  0  0  0  0
   41.1190   29.5810   43.0550 N   0  0  0  0  0  0  0  0  0  0  0  0
   41.2850   29.7900   41.7290 C   0  0  0  0  0  0  0  0  0  0  0  0
   40.5500   30.8860   41.3800 N   0  0  0  0  0  0  0  0  0  0  0  0
   39.9440   31.3360   42.4870 C   0  0  0  0  0  0  0  0  0  0  0  0
   39.0960   32.4090   42.6680 C   0  0  0  0  0  0  0  0  0  0  0  0
   35.8520   30.1720   49.8610 C   0  0  0  0  0  0  0  0  0  0  0  0
   35.9650   30.5340   48.5030 C   0  0  0  0  0  0  0  0  0  0  0  0
   35.0050   30.0690   47.5890 C   0  0  0  0  0  0  0  0  0  0  0  0
   34.0120   29.2890   48.0720 N   0  0  0  0  0  0  0  0  0  0  0  0
   33.9040   28.9480   49.3460 C   0  0  0  0  0  0  0  0  0  0  0  0
   34.8180   29.3870   50.2320 N   0  0  0  0  0  0  0  0  0  0  0  0
   37.6460   29.8770   51.7340 C   0  0  0  0  0  0  0  0  0  0  0  0
   37.7850   28.6390   51.6570 O   0  0  0  0  0  0  0  0  0  0  0  0
   36.7560   30.5960   50.8570 N   0  0  0  0  0  0  0  0  0  0  0  0
   37.3631   32.2217   50.0374 H   0  0  0  0  0  0  0  0  0  0  0  0
   39.3189   33.6244   49.2235 H   0  0  0  0  0  0  0  0  0  0  0  0
   37.8957   33.5686   44.0359 H   0  0  0  0  0  0  0  0  0  0  0  0
   40.0202   30.1975   45.6687 H   0  0  0  0  0  0  0  0  0  0  0  0
   41.5542   28.8227   43.5996 H   0  0  0  0  0  0  0  0  0  0  0  0
   41.9035   29.1834   41.0511 H   0  0  0  0  0  0  0  0  0  0  0  0
   38.8335   33.0390   41.8053 H   0  0  0  0  0  0  0  0  0  0  0  0
   35.0591   30.3294   46.5216 H   0  0  0  0  0  0  0  0  0  0  0  0
   33.0725   28.3097   49.6793 H   0  0  0  0  0  0  0  0  0  0  0  0
   38.2176   30.4341   52.4909 H   0  0  0  0  0  0  0  0  0  0  0  0
   36.7862   31.6179   50.9821 H   0  0  0  0  0  0  0  0  0  0  0  0
  1 19  1  0
  1  2  1  0
  3  2  2  0
  4  3  1  0
  5  4  2  0
  6  7  1  0
  6  4  1  0
  7  1  1  0
  8  7  2  0
  9 10  2  0
 10  6  1  0
 11 10  1  0
 12 11  2  0
 13 12  1  0
 14 13  1  0
 15 14  2  0
 15 16  1  0
 16 17  2  0
 16 12  1  0
 17  9  1  0
 18 23  2  0
 18 26  1  0
 19 18  1  0
 20 21  1  0
 20 19  2  0
 21 22  2  0
 22 23  1  0
 25 24  2  0
 26 24  1  0
  2 27  1  0
  3 28  1  0
  9 29  1  0
 11 30  1  0
 13 31  1  0
 14 32  1  0
 17 33  1  0
 20 34  1  0
 22 35  1  0
 24 36  1  0
 26 37  1  0
M  ISO  8  27  14  28  14  29  14  30  14  31   9  32  14  33  14  34  14
M  ISO  2  35  14  36   6
M  END
>  <minimizedAffinity>  (1) 
-7.01369381

>  <minimizedRMSD>  (1) 
2.46318936

$$$$
