
     RDKit          3D

 34 36  0  0  0  0  0  0  0  0999 V2000
   36.8970   31.3770   48.4630 N   0  0  0  0  0  0  0  0  0  0  0  0
   37.3540   32.2410   49.3610 C   0  0  0  0  0  0  0  0  0  0  0  0
   38.4160   33.0870   49.0490 C   0  0  0  0  0  0  0  0  0  0  0  0
   38.9060   32.9360   47.7870 C   0  0  0  0  0  0  0  0  0  0  0  0
   39.8740   33.7080   47.5030 O   0  0  0  0  0  0  0  0  0  0  0  0
   38.4810   32.0870   46.8570 N   0  0  0  0  0  0  0  0  0  0  0  0
   37.4500   31.2950   47.2200 C   0  0  0  0  0  0  0  0  0  0  0  0
   37.0330   30.4780   46.3410 O   0  0  0  0  0  0  0  0  0  0  0  0
   40.8570   30.6910   46.2350 F   0  0  0  0  0  0  0  0  0  0  0  0
   40.2100   31.3160   45.2290 C   0  0  0  0  0  0  0  0  0  0  0  0
   39.0520   31.9920   45.5500 C   0  0  0  0  0  0  0  0  0  0  0  0
   38.3060   32.6650   44.6250 C   0  0  0  0  0  0  0  0  0  0  0  0
   38.6970   32.6930   43.2840 C   0  0  0  0  0  0  0  0  0  0  0  0
   39.8660   32.0130   42.9460 C   0  0  0  0  0  0  0  0  0  0  0  0
   40.6050   31.3410   43.8900 C   0  0  0  0  0  0  0  0  0  0  0  0
   35.7030   29.9520   50.0250 C   0  0  0  0  0  0  0  0  0  0  0  0
   35.8080   30.4760   48.7240 C   0  0  0  0  0  0  0  0  0  0  0  0
   34.8620   30.1040   47.7570 C   0  0  0  0  0  0  0  0  0  0  0  0
   33.8880   29.2480   48.1310 N   0  0  0  0  0  0  0  0  0  0  0  0
   33.7890   28.7520   49.3540 C   0  0  0  0  0  0  0  0  0  0  0  0
   34.6880   29.1020   50.2890 N   0  0  0  0  0  0  0  0  0  0  0  0
   37.6440   29.5310   51.7130 C   0  0  0  0  0  0  0  0  0  0  0  0
   37.9320   28.3650   51.3660 O   0  0  0  0  0  0  0  0  0  0  0  0
   36.5890   30.2700   51.0770 N   0  0  0  0  0  0  0  0  0  0  0  0
   36.8913   32.2894   50.3578 H   0  0  0  0  0  0  0  0  0  0  0  0
   38.8252   33.8169   49.7630 H   0  0  0  0  0  0  0  0  0  0  0  0
   37.3907   33.1888   44.9380 H   0  0  0  0  0  0  0  0  0  0  0  0
   38.1069   33.2294   42.5263 H   0  0  0  0  0  0  0  0  0  0  0  0
   40.2048   32.0143   41.8995 H   0  0  0  0  0  0  0  0  0  0  0  0
   41.5218   30.8147   43.5860 H   0  0  0  0  0  0  0  0  0  0  0  0
   34.9124   30.4961   46.7305 H   0  0  0  0  0  0  0  0  0  0  0  0
   32.9743   28.0563   49.6038 H   0  0  0  0  0  0  0  0  0  0  0  0
   38.2135   30.0036   52.5268 H   0  0  0  0  0  0  0  0  0  0  0  0
   36.4526   31.2150   51.4634 H   0  0  0  0  0  0  0  0  0  0  0  0
  1 17  1  0
  1  2  1  0
  3  2  2  0
  4  3  1  0
  5  4  2  0
  6  7  1  0
  6  4  1  0
  7  1  1  0
  8  7  2  0
 10 11  2  0
 10  9  1  0
 11  6  1  0
 12 11  1  0
 13 12  2  0
 14 13  1  0
 14 15  2  0
 15 10  1  0
 16 21  2  0
 16 24  1  0
 17 16  1  0
 18 19  1  0
 18 17  2  0
 19 20  2  0
 20 21  1  0
 23 22  2  0
 24 22  1  0
  2 25  1  0
  3 26  1  0
 12 27  1  0
 13 28  1  0
 14 29  1  0
 15 30  1  0
 18 31  1  0
 20 32  1  0
 22 33  1  0
 24 34  1  0
M  ISO  8  25  14  26  14  27  14  28  14  29  14  30  14  31  14  32  14
M  ISO  1  33   6
M  END
>  <minimizedAffinity>  (1) 
-6.47337103

>  <minimizedRMSD>  (1) 
1.97064614

$$$$
