
     RDKit          3D

 39 41  0  0  0  0  0  0  0  0999 V2000
   36.8790   31.4810   48.6330 N   0  0  0  0  0  0  0  0  0  0  0  0
   37.1280   32.3310   49.6230 C   0  0  0  0  0  0  0  0  0  0  0  0
   38.1690   33.2510   49.5260 C   0  0  0  0  0  0  0  0  0  0  0  0
   38.8630   33.1790   48.3590 C   0  0  0  0  0  0  0  0  0  0  0  0
   39.8240   34.0080   48.2370 O   0  0  0  0  0  0  0  0  0  0  0  0
   38.6580   32.3530   47.3400 N   0  0  0  0  0  0  0  0  0  0  0  0
   37.6310   31.4810   47.4940 C   0  0  0  0  0  0  0  0  0  0  0  0
   37.4060   30.6720   46.5310 O   0  0  0  0  0  0  0  0  0  0  0  0
   35.6240   29.8320   49.9020 C   0  0  0  0  0  0  0  0  0  0  0  0
   35.8230   30.5120   48.6840 C   0  0  0  0  0  0  0  0  0  0  0  0
   34.9900   30.2120   47.5940 C   0  0  0  0  0  0  0  0  0  0  0  0
   34.0300   29.2760   47.7730 N   0  0  0  0  0  0  0  0  0  0  0  0
   33.8450   28.6380   48.9150 C   0  0  0  0  0  0  0  0  0  0  0  0
   34.6340   28.9140   49.9710 N   0  0  0  0  0  0  0  0  0  0  0  0
   37.4940   29.3580   51.6520 C   0  0  0  0  0  0  0  0  0  0  0  0
   37.9830   28.3290   51.1180 O   0  0  0  0  0  0  0  0  0  0  0  0
   36.3920   30.0630   51.0630 N   0  0  0  0  0  0  0  0  0  0  0  0
   40.3440   31.7250   43.6170 N   0  0  0  0  0  0  0  0  0  0  0  0
   40.0790   30.5840   44.4430 C   0  0  0  0  0  0  0  0  0  0  0  0
   40.1910   31.0580   45.8900 C   0  0  0  0  0  0  0  0  0  0  0  0
   39.4420   32.3340   46.1220 C   0  0  0  0  0  0  0  0  0  0  0  0
   38.5520   32.7480   44.9750 C   0  0  0  0  0  0  0  0  0  0  0  0
   39.2330   32.6490   43.6440 C   0  0  0  0  0  0  0  0  0  0  0  0
   36.5051   32.3079   50.5294 H   0  0  0  0  0  0  0  0  0  0  0  0
   38.4083   33.9713   50.3221 H   0  0  0  0  0  0  0  0  0  0  0  0
   35.1140   30.7212   46.6269 H   0  0  0  0  0  0  0  0  0  0  0  0
   33.0491   27.8838   49.0031 H   0  0  0  0  0  0  0  0  0  0  0  0
   37.9228   29.7268   52.5955 H   0  0  0  0  0  0  0  0  0  0  0  0
   36.1059   30.9004   51.5900 H   0  0  0  0  0  0  0  0  0  0  0  0
   40.4987   31.4116   42.6481 H   0  0  0  0  0  0  0  0  0  0  0  0
   39.0671   30.2000   44.2466 H   0  0  0  0  0  0  0  0  0  0  0  0
   40.7897   29.7704   44.2358 H   0  0  0  0  0  0  0  0  0  0  0  0
   39.7810   30.2803   46.5512 H   0  0  0  0  0  0  0  0  0  0  0  0
   41.2536   31.2438   46.1054 H   0  0  0  0  0  0  0  0  0  0  0  0
   40.2584   33.0650   46.2177 H   0  0  0  0  0  0  0  0  0  0  0  0
   37.6659   32.0963   44.9653 H   0  0  0  0  0  0  0  0  0  0  0  0
   38.2823   33.8030   45.1304 H   0  0  0  0  0  0  0  0  0  0  0  0
   39.6071   33.6471   43.3723 H   0  0  0  0  0  0  0  0  0  0  0  0
   38.4856   32.2673   42.9328 H   0  0  0  0  0  0  0  0  0  0  0  0
  1 10  1  0
  1  2  1  0
  3  2  2  0
  4  3  1  0
  5  4  2  0
  6  7  1  0
  6  4  1  0
  7  1  1  0
  8  7  2  0
  9 14  2  0
  9 17  1  0
 10  9  1  0
 11 12  1  0
 11 10  2  0
 12 13  2  0
 13 14  1  0
 16 15  2  0
 17 15  1  0
 18 23  1  0
 18 19  1  0
 19 20  1  0
 20 21  1  0
 21  6  1  0
 22 21  1  0
 23 22  1  0
  2 24  1  0
  3 25  1  0
 11 26  1  0
 13 27  1  0
 15 28  1  0
 17 29  1  0
 18 30  1  0
 19 31  1  0
 19 32  1  0
 20 33  1  0
 20 34  1  0
 21 35  1  0
 22 36  1  0
 22 37  1  0
 23 38  1  0
 23 39  1  0
M  ISO  8  24  14  25  14  26  14  27  14  28   6  30   5  31  13  32  13
M  ISO  7  33  13  34  13  35  13  36  13  37  13  38  13  39  13
M  END
>  <minimizedAffinity>  (1) 
-6.33955574

>  <minimizedRMSD>  (1) 
1.27462924

$$$$
