
     RDKit          3D

 34 36  0  0  0  0  0  0  0  0999 V2000
   36.3420   31.1800   48.8690 N   0  0  0  0  0  0  0  0  0  0  0  0
   36.5050   32.0420   49.8670 C   0  0  0  0  0  0  0  0  0  0  0  0
   37.5820   32.9270   49.8640 C   0  0  0  0  0  0  0  0  0  0  0  0
   38.4070   32.8100   48.7740 C   0  0  0  0  0  0  0  0  0  0  0  0
   39.3830   33.6230   48.7880 O   0  0  0  0  0  0  0  0  0  0  0  0
   38.2790   31.9560   47.7510 N   0  0  0  0  0  0  0  0  0  0  0  0
   37.2140   31.1320   47.8210 C   0  0  0  0  0  0  0  0  0  0  0  0
   37.0780   30.3190   46.8620 O   0  0  0  0  0  0  0  0  0  0  0  0
   39.9150   34.4440   47.1680 Cl  0  0  0  0  0  0  0  0  0  0  0  0
   40.0130   32.9510   46.2590 C   0  0  0  0  0  0  0  0  0  0  0  0
   39.1940   31.9160   46.6630 C   0  0  0  0  0  0  0  0  0  0  0  0
   39.1990   30.7000   46.0110 C   0  0  0  0  0  0  0  0  0  0  0  0
   40.0490   30.5160   44.9240 C   0  0  0  0  0  0  0  0  0  0  0  0
   40.8860   31.5500   44.5000 C   0  0  0  0  0  0  0  0  0  0  0  0
   40.8700   32.7780   45.1700 C   0  0  0  0  0  0  0  0  0  0  0  0
   35.0610   29.4200   49.9450 C   0  0  0  0  0  0  0  0  0  0  0  0
   35.2550   30.2440   48.8240 C   0  0  0  0  0  0  0  0  0  0  0  0
   34.3950   30.1210   47.7190 C   0  0  0  0  0  0  0  0  0  0  0  0
   33.4090   29.1930   47.8070 N   0  0  0  0  0  0  0  0  0  0  0  0
   33.2240   28.4160   48.8600 C   0  0  0  0  0  0  0  0  0  0  0  0
   34.0450   28.5280   49.9220 N   0  0  0  0  0  0  0  0  0  0  0  0
   37.2360   29.1300   51.3570 C   0  0  0  0  0  0  0  0  0  0  0  0
   37.9670   28.6470   50.4600 O   0  0  0  0  0  0  0  0  0  0  0  0
   35.8610   29.4730   51.1070 N   0  0  0  0  0  0  0  0  0  0  0  0
   35.7864   32.0573   50.6997 H   0  0  0  0  0  0  0  0  0  0  0  0
   37.7558   33.6576   50.6678 H   0  0  0  0  0  0  0  0  0  0  0  0
   38.5394   29.8859   46.3460 H   0  0  0  0  0  0  0  0  0  0  0  0
   40.0613   29.5509   44.3963 H   0  0  0  0  0  0  0  0  0  0  0  0
   41.5565   31.3994   43.6411 H   0  0  0  0  0  0  0  0  0  0  0  0
   41.5254   33.5985   44.8426 H   0  0  0  0  0  0  0  0  0  0  0  0
   34.5158   30.7485   46.8237 H   0  0  0  0  0  0  0  0  0  0  0  0
   32.4045   27.6823   48.8691 H   0  0  0  0  0  0  0  0  0  0  0  0
   37.6562   29.2956   52.3600 H   0  0  0  0  0  0  0  0  0  0  0  0
   35.3638   29.8258   51.9372 H   0  0  0  0  0  0  0  0  0  0  0  0
  1  2  1  0
  3  2  2  0
  4  5  2  0
  4  3  1  0
  6  7  1  0
  6  4  1  0
  7  1  1  0
  8  7  2  0
 10 11  2  0
 10  9  1  0
 11  6  1  0
 12 11  1  0
 13 12  2  0
 14 13  1  0
 14 15  2  0
 15 10  1  0
 16 24  1  0
 17  1  1  0
 17 16  2  0
 18 19  2  0
 18 17  1  0
 19 20  1  0
 20 21  2  0
 21 16  1  0
 23 22  2  0
 24 22  1  0
  2 25  1  0
  3 26  1  0
 12 27  1  0
 13 28  1  0
 14 29  1  0
 15 30  1  0
 18 31  1  0
 20 32  1  0
 22 33  1  0
 24 34  1  0
M  ISO  8  25  14  26  14  27  14  28  14  29  14  30  14  31  14  32  14
M  ISO  1  33   6
M  END
>  <minimizedAffinity>  (1) 
-6.11083937

>  <minimizedRMSD>  (1) 
1.15077448

$$$$
