
     RDKit          3D

 30 31  0  0  0  0  0  0  0  0999 V2000
   35.6760   29.9000   49.9700 C   0  0  0  0  0  0  0  0  0  0  0  0
   35.8370   30.5400   48.7180 C   0  0  0  0  0  0  0  0  0  0  0  0
   34.9430   30.2240   47.6760 C   0  0  0  0  0  0  0  0  0  0  0  0
   33.9670   29.3160   47.9260 N   0  0  0  0  0  0  0  0  0  0  0  0
   33.8270   28.7240   49.0990 C   0  0  0  0  0  0  0  0  0  0  0  0
   34.6630   29.0020   50.1160 N   0  0  0  0  0  0  0  0  0  0  0  0
   36.9060   31.4720   48.5800 N   0  0  0  0  0  0  0  0  0  0  0  0
   37.2470   32.3210   49.5420 C   0  0  0  0  0  0  0  0  0  0  0  0
   38.3100   33.2050   49.3430 C   0  0  0  0  0  0  0  0  0  0  0  0
   38.9210   33.1060   48.1310 C   0  0  0  0  0  0  0  0  0  0  0  0
   39.8810   33.9160   47.9770 O   0  0  0  0  0  0  0  0  0  0  0  0
   38.6160   32.2750   47.1420 N   0  0  0  0  0  0  0  0  0  0  0  0
   37.5770   31.4380   47.3840 C   0  0  0  0  0  0  0  0  0  0  0  0
   37.2620   30.6260   46.4450 O   0  0  0  0  0  0  0  0  0  0  0  0
   39.3250   32.2330   45.8670 C   0  0  0  0  0  0  0  0  0  0  0  0
   40.4320   31.2120   45.9090 C   0  0  0  0  0  0  0  0  0  0  0  0
   37.5710   29.4050   51.6820 C   0  0  0  0  0  0  0  0  0  0  0  0
   37.9720   28.3190   51.2150 O   0  0  0  0  0  0  0  0  0  0  0  0
   36.5080   30.1550   51.0770 N   0  0  0  0  0  0  0  0  0  0  0  0
   35.0339   30.6998   46.6884 H   0  0  0  0  0  0  0  0  0  0  0  0
   33.0168   27.9947   49.2459 H   0  0  0  0  0  0  0  0  0  0  0  0
   36.6941   32.3283   50.4929 H   0  0  0  0  0  0  0  0  0  0  0  0
   38.6294   33.9272   50.1087 H   0  0  0  0  0  0  0  0  0  0  0  0
   39.7550   33.2240   45.6597 H   0  0  0  0  0  0  0  0  0  0  0  0
   38.6145   31.9532   45.0753 H   0  0  0  0  0  0  0  0  0  0  0  0
   40.6802   30.9831   46.9559 H   0  0  0  0  0  0  0  0  0  0  0  0
   40.1031   30.2935   45.4009 H   0  0  0  0  0  0  0  0  0  0  0  0
   41.3210   31.6139   45.4009 H   0  0  0  0  0  0  0  0  0  0  0  0
   38.0497   29.8011   52.5897 H   0  0  0  0  0  0  0  0  0  0  0  0
   36.3164   31.0537   51.5424 H   0  0  0  0  0  0  0  0  0  0  0  0
  1  6  2  0
  1 19  1  0
  2  1  1  0
  3  4  1  0
  3  2  2  0
  4  5  2  0
  5  6  1  0
  7  2  1  0
  7  8  1  0
  9  8  2  0
 10  9  1  0
 11 10  2  0
 12 13  1  0
 12 10  1  0
 13  7  1  0
 14 13  2  0
 15 16  1  0
 15 12  1  0
 18 17  2  0
 19 17  1  0
  3 20  1  0
  5 21  1  0
  8 22  1  0
  9 23  1  0
 15 24  1  0
 15 25  1  0
 16 26  1  0
 16 27  1  0
 16 28  1  0
 17 29  1  0
 19 30  1  0
M  ISO  8  20  14  21  14  22  14  23  14  24   8  25   8  26   8  27   8
M  ISO  2  28   8  29   6
M  END
>  <minimizedAffinity>  (1) 
-5.31485462

>  <minimizedRMSD>  (1) 
1.06554854

$$$$
