
     RDKit          3D

 25 26  0  0  0  0  0  0  0  0999 V2000
   35.0600   28.8540   50.0370 C   0  0  0  0  0  0  0  0  0  0  0  0
   36.2410   29.6350   49.8750 C   0  0  0  0  0  0  0  0  0  0  0  0
   36.3000   30.4790   48.7870 C   0  0  0  0  0  0  0  0  0  0  0  0
   35.2270   30.5260   47.9210 N   0  0  0  0  0  0  0  0  0  0  0  0
   34.1250   29.7610   48.1210 C   0  0  0  0  0  0  0  0  0  0  0  0
   34.0450   28.9280   49.1770 N   0  0  0  0  0  0  0  0  0  0  0  0
   33.1400   29.9610   47.1120 N   0  0  0  0  0  0  0  0  0  0  0  0
   36.7620   32.8150   50.1790 F   0  0  0  0  0  0  0  0  0  0  0  0
   37.6120   32.5790   49.1180 C   0  0  0  0  0  0  0  0  0  0  0  0
   37.3830   31.3580   48.4720 C   0  0  0  0  0  0  0  0  0  0  0  0
   38.2150   31.0390   47.4060 C   0  0  0  0  0  0  0  0  0  0  0  0
   39.2190   31.8640   46.9820 C   0  0  0  0  0  0  0  0  0  0  0  0
   39.4140   33.0740   47.6540 C   0  0  0  0  0  0  0  0  0  0  0  0
   38.6270   33.4440   48.7140 C   0  0  0  0  0  0  0  0  0  0  0  0
   37.3460   29.5330   50.8700 C   0  0  0  0  0  0  0  0  0  0  0  0
   38.5750   29.6810   50.2730 F   0  0  0  0  0  0  0  0  0  0  0  0
   37.1680   30.5070   51.8150 F   0  0  0  0  0  0  0  0  0  0  0  0
   37.3300   28.3110   51.5340 F   0  0  0  0  0  0  0  0  0  0  0  0
   34.9843   28.1710   50.8960 H   0  0  0  0  0  0  0  0  0  0  0  0
   32.2530   29.4386   47.1475 H   0  0  0  0  0  0  0  0  0  0  0  0
   33.3146   30.6280   46.3468 H   0  0  0  0  0  0  0  0  0  0  0  0
   38.0595   30.0843   46.8822 H   0  0  0  0  0  0  0  0  0  0  0  0
   39.8582   31.5824   46.1322 H   0  0  0  0  0  0  0  0  0  0  0  0
   40.2194   33.7466   47.3240 H   0  0  0  0  0  0  0  0  0  0  0  0
   38.7927   34.3998   49.2326 H   0  0  0  0  0  0  0  0  0  0  0  0
  2  1  2  0
  2 15  1  0
  3  2  1  0
  4  5  1  0
  4  3  2  0
  5  6  2  0
  6  1  1  0
  7  5  1  0
  9  8  1  0
 10  3  1  0
 10  9  2  0
 11 10  1  0
 12 11  2  0
 12 13  1  0
 13 14  2  0
 14  9  1  0
 15 18  1  0
 15 17  1  0
 16 15  1  0
  1 19  1  0
  7 20  1  0
  7 21  1  0
 11 22  1  0
 12 23  1  0
 13 24  1  0
 14 25  1  0
M  ISO  5  19  14  22  14  23  14  24  14  25  14
M  END
>  <minimizedAffinity>  (1) 
-6.41116714

>  <minimizedRMSD>  (1) 
1.57682252

$$$$
