
     RDKit          3D

 23 24  0  0  0  0  0  0  0  0999 V2000
   35.1890   28.6380   49.9620 C   0  0  0  0  0  0  0  0  0  0  0  0
   36.2220   29.6040   49.8400 C   0  0  0  0  0  0  0  0  0  0  0  0
   36.1250   30.5470   48.8170 C   0  0  0  0  0  0  0  0  0  0  0  0
   35.0480   30.5000   47.9860 N   0  0  0  0  0  0  0  0  0  0  0  0
   34.0740   29.5590   48.1310 C   0  0  0  0  0  0  0  0  0  0  0  0
   34.1390   28.6430   49.1010 N   0  0  0  0  0  0  0  0  0  0  0  0
   33.0430   29.6760   47.1690 N   0  0  0  0  0  0  0  0  0  0  0  0
   37.1670   31.5440   48.6710 C   0  0  0  0  0  0  0  0  0  0  0  0
   37.9530   31.2880   47.5510 C   0  0  0  0  0  0  0  0  0  0  0  0
   39.0230   32.1240   47.2150 C   0  0  0  0  0  0  0  0  0  0  0  0
   39.2500   33.1820   48.0270 N   0  0  0  0  0  0  0  0  0  0  0  0
   38.4820   33.4220   49.1110 C   0  0  0  0  0  0  0  0  0  0  0  0
   37.4560   32.6150   49.4300 N   0  0  0  0  0  0  0  0  0  0  0  0
   37.3550   29.5650   50.8050 C   0  0  0  0  0  0  0  0  0  0  0  0
   38.5610   29.8010   50.1830 F   0  0  0  0  0  0  0  0  0  0  0  0
   37.1370   30.5430   51.7470 F   0  0  0  0  0  0  0  0  0  0  0  0
   37.4410   28.3530   51.4630 F   0  0  0  0  0  0  0  0  0  0  0  0
   35.2394   27.8811   50.7586 H   0  0  0  0  0  0  0  0  0  0  0  0
   32.2511   29.0175   47.1801 H   0  0  0  0  0  0  0  0  0  0  0  0
   33.0844   30.4197   46.4576 H   0  0  0  0  0  0  0  0  0  0  0  0
   37.7292   30.4149   46.9205 H   0  0  0  0  0  0  0  0  0  0  0  0
   39.6502   31.9303   46.3323 H   0  0  0  0  0  0  0  0  0  0  0  0
   38.7001   34.2942   49.7448 H   0  0  0  0  0  0  0  0  0  0  0  0
  2  1  2  0
  2 14  1  0
  3  2  1  0
  4  5  1  0
  4  3  2  0
  5  6  2  0
  6  1  1  0
  7  5  1  0
  8  3  1  0
  8 13  1  0
  9  8  2  0
 10  9  1  0
 10 11  2  0
 11 12  1  0
 12 13  2  0
 14 17  1  0
 14 16  1  0
 15 14  1  0
  1 18  1  0
  7 19  1  0
  7 20  1  0
  9 21  1  0
 10 22  1  0
 12 23  1  0
M  ISO  4  18  14  21  14  22  14  23  14
M  END
>  <minimizedAffinity>  (1) 
-5.84676027

>  <minimizedRMSD>  (1) 
1.39504611

$$$$
