
     RDKit          3D

 21 22  0  0  0  0  0  0  0  0999 V2000
   34.9690   28.8190   50.0490 C   0  0  0  0  0  0  0  0  0  0  0  0
   36.0720   29.6560   49.7520 C   0  0  0  0  0  0  0  0  0  0  0  0
   36.0340   30.3860   48.5670 C   0  0  0  0  0  0  0  0  0  0  0  0
   34.9480   30.2660   47.7510 N   0  0  0  0  0  0  0  0  0  0  0  0
   33.9070   29.4460   48.0770 C   0  0  0  0  0  0  0  0  0  0  0  0
   33.9110   28.7240   49.2200 N   0  0  0  0  0  0  0  0  0  0  0  0
   32.8850   29.4700   47.0930 N   0  0  0  0  0  0  0  0  0  0  0  0
   37.1580   31.2640   48.2270 C   0  0  0  0  0  0  0  0  0  0  0  0
   37.9080   30.9190   47.1080 C   0  0  0  0  0  0  0  0  0  0  0  0
   39.1820   32.2400   47.0340 S   0  0  0  0  0  0  0  0  0  0  0  0
   38.4380   33.0550   48.5980 C   0  0  0  0  0  0  0  0  0  0  0  0
   37.5810   32.3580   48.8320 N   0  0  0  0  0  0  0  0  0  0  0  0
   37.2110   29.7200   50.7050 C   0  0  0  0  0  0  0  0  0  0  0  0
   38.4300   29.6780   50.0380 F   0  0  0  0  0  0  0  0  0  0  0  0
   37.1310   30.9010   51.3930 F   0  0  0  0  0  0  0  0  0  0  0  0
   37.2000   28.6830   51.6160 F   0  0  0  0  0  0  0  0  0  0  0  0
   34.9761   28.2320   50.9793 H   0  0  0  0  0  0  0  0  0  0  0  0
   32.0393   28.8948   47.2147 H   0  0  0  0  0  0  0  0  0  0  0  0
   32.9888   30.0626   46.2570 H   0  0  0  0  0  0  0  0  0  0  0  0
   37.7714   30.0626   46.4313 H   0  0  0  0  0  0  0  0  0  0  0  0
   38.7603   33.9629   49.1288 H   0  0  0  0  0  0  0  0  0  0  0  0
  2  1  2  0
  2 13  1  0
  3  2  1  0
  4  5  1  0
  4  3  2  0
  5  6  2  0
  6  1  1  0
  7  5  1  0
  8  3  1  0
  8 12  1  0
  9  8  2  0
 10  9  1  0
 10 11  1  0
 11 12  2  0
 13 15  1  0
 13 16  1  0
 14 13  1  0
  1 17  1  0
  7 18  1  0
  7 19  1  0
  9 20  1  0
 11 21  1  0
M  ISO  3  17  14  20  14  21  14
M  END
>  <minimizedAffinity>  (1) 
-5.37373543

>  <minimizedRMSD>  (1) 
1.2920928

$$$$
