
     RDKit          3D

 26 27  0  0  1  0  0  0  0  0999 V2000
   35.1810   29.2290   50.5430 C   0  0  0  0  0  0  0  0  0  0  0  0
   36.0950   30.0970   49.9110 C   0  0  0  0  0  0  0  0  0  0  0  0
   35.8760   30.4300   48.5880 C   0  0  0  0  0  0  0  0  0  0  0  0
   34.7860   29.9080   47.9410 N   0  0  0  0  0  0  0  0  0  0  0  0
   33.9270   29.0710   48.5910 C   0  0  0  0  0  0  0  0  0  0  0  0
   34.1180   28.7290   49.8890 N   0  0  0  0  0  0  0  0  0  0  0  0
   32.8550   28.6260   47.7690 N   0  0  0  0  0  0  0  0  0  0  0  0
   36.7740   31.3370   47.8450 C   0  0  2  0  0  0  0  0  0  0  0  0
   37.8360   30.5900   47.0850 C   0  0  0  0  0  0  0  0  0  0  0  0
   39.1000   31.2800   47.4900 C   0  0  0  0  0  0  0  0  0  0  0  0
   38.7380   32.4040   48.2210 O   0  0  0  0  0  0  0  0  0  0  0  0
   37.5520   32.1240   48.8450 C   0  0  0  0  0  0  0  0  0  0  0  0
   37.2550   30.6120   50.6810 C   0  0  0  0  0  0  0  0  0  0  0  0
   38.4660   30.1240   50.1840 F   0  0  0  0  0  0  0  0  0  0  0  0
   37.2700   31.9730   50.6110 F   0  0  0  0  0  0  0  0  0  0  0  0
   37.2090   30.2530   52.0170 F   0  0  0  0  0  0  0  0  0  0  0  0
   35.3415   28.9544   51.5960 H   0  0  0  0  0  0  0  0  0  0  0  0
   32.1423   27.9888   48.1523 H   0  0  0  0  0  0  0  0  0  0  0  0
   32.7914   28.9409   46.7904 H   0  0  0  0  0  0  0  0  0  0  0  0
   36.1441   31.9298   47.1654 H   0  0  0  0  0  0  0  0  0  0  0  0
   37.6738   30.6700   46.0000 H   0  0  0  0  0  0  0  0  0  0  0  0
   37.8448   29.5123   47.3051 H   0  0  0  0  0  0  0  0  0  0  0  0
   39.7138   30.6093   48.1092 H   0  0  0  0  0  0  0  0  0  0  0  0
   39.6912   31.5625   46.6064 H   0  0  0  0  0  0  0  0  0  0  0  0
   37.0221   33.0522   49.1052 H   0  0  0  0  0  0  0  0  0  0  0  0
   37.6970   31.5732   49.7861 H   0  0  0  0  0  0  0  0  0  0  0  0
  2  1  2  0
  2 13  1  0
  3  2  1  0
  4  3  2  0
  4  5  1  0
  5  6  2  0
  6  1  1  0
  7  5  1  0
  8  3  1  0
  8 12  1  0
  9 10  1  0
  9  8  1  0
 10 11  1  0
 11 12  1  0
 13 16  1  0
 14 13  1  0
 15 13  1  0
  1 17  1  0
  7 18  1  0
  7 19  1  0
  8 20  1  6
  9 21  1  0
  9 22  1  0
 10 23  1  0
 10 24  1  0
 12 25  1  0
 12 26  1  0
M  ISO  8  17  14  20  13  21  13  22  13  23  13  24  13  25  13  26  13
M  END
>  <minimizedAffinity>  (1) 
-5.34696674

>  <minimizedRMSD>  (1) 
1.33295381

$$$$
