
     RDKit          3D

 32 33  0  0  1  0  0  0  0  0999 V2000
   35.4900   29.0300   50.2910 C   0  0  0  0  0  0  0  0  0  0  0  0
   36.3070   29.9990   49.6500 C   0  0  0  0  0  0  0  0  0  0  0  0
   36.2720   30.0790   48.2650 C   0  0  0  0  0  0  0  0  0  0  0  0
   35.4500   29.2140   47.5990 N   0  0  0  0  0  0  0  0  0  0  0  0
   34.6830   28.2990   48.2490 C   0  0  0  0  0  0  0  0  0  0  0  0
   34.6980   28.2020   49.5880 N   0  0  0  0  0  0  0  0  0  0  0  0
   33.9340   27.5010   47.3610 N   0  0  0  0  0  0  0  0  0  0  0  0
   36.5720   31.5020   46.2230 C   0  0  1  0  0  0  0  0  0  0  0  0
   37.1080   31.0790   47.5510 C   0  0  2  0  0  0  0  0  0  0  0  0
   38.3320   30.4470   47.3010 O   0  0  0  0  0  0  0  0  0  0  0  0
   39.2870   31.3400   46.8570 C   0  0  0  0  0  0  0  0  0  0  0  0
   38.9550   31.6520   45.4230 C   0  0  1  0  0  0  0  0  0  0  0  0
   37.5390   31.1750   45.0740 C   0  0  1  0  0  0  0  0  0  0  0  0
   35.4040   30.7930   45.8810 O   0  0  0  0  0  0  0  0  0  0  0  0
   39.0450   33.0200   45.1980 O   0  0  0  0  0  0  0  0  0  0  0  0
   37.6110   29.7980   44.9460 O   0  0  0  0  0  0  0  0  0  0  0  0
   37.1640   30.8810   50.4800 C   0  0  0  0  0  0  0  0  0  0  0  0
   38.5040   30.7940   50.1260 F   0  0  0  0  0  0  0  0  0  0  0  0
   36.7410   32.1670   50.3300 F   0  0  0  0  0  0  0  0  0  0  0  0
   37.1070   30.5670   51.8270 F   0  0  0  0  0  0  0  0  0  0  0  0
   35.5057   28.9553   51.3884 H   0  0  0  0  0  0  0  0  0  0  0  0
   33.3108   26.7677   47.7282 H   0  0  0  0  0  0  0  0  0  0  0  0
   34.0098   27.6511   46.3448 H   0  0  0  0  0  0  0  0  0  0  0  0
   36.4002   32.5830   46.3323 H   0  0  0  0  0  0  0  0  0  0  0  0
   37.1586   31.9798   48.1802 H   0  0  0  0  0  0  0  0  0  0  0  0
   39.2570   32.2586   47.4614 H   0  0  0  0  0  0  0  0  0  0  0  0
   40.2975   30.9144   46.9452 H   0  0  0  0  0  0  0  0  0  0  0  0
   39.6776   31.1232   44.7840 H   0  0  0  0  0  0  0  0  0  0  0  0
   37.1797   31.6643   44.1566 H   0  0  0  0  0  0  0  0  0  0  0  0
   34.9366   30.5093   46.7063 H   0  0  0  0  0  0  0  0  0  0  0  0
   39.0763   33.4958   46.0656 H   0  0  0  0  0  0  0  0  0  0  0  0
   37.6327   29.3837   45.8449 H   0  0  0  0  0  0  0  0  0  0  0  0
  2  1  2  0
  2 17  1  0
  3  2  1  0
  4  5  1  0
  4  3  2  0
  5  6  2  0
  6  1  1  0
  7  5  1  0
  8 14  1  0
  8  9  1  0
  9  3  1  0
 10  9  1  0
 11 10  1  0
 12 15  1  0
 12 11  1  0
 13 16  1  0
 13 12  1  0
 13  8  1  0
 17 20  1  0
 18 17  1  0
 19 17  1  0
  1 21  1  0
  7 22  1  0
  7 23  1  0
  8 24  1  1
  9 25  1  1
 11 26  1  0
 11 27  1  0
 12 28  1  6
 13 29  1  6
 14 30  1  0
 15 31  1  0
 16 32  1  0
M  ISO  8  21  14  24  13  25  13  26  13  27  13  28  13  29  13  30   3
M  ISO  2  31   3  32   3
M  END
>  <minimizedAffinity>  (1) 
-5.1795249

>  <minimizedRMSD>  (1) 
1.35098445

$$$$
