
     RDKit          3D

 18 18  0  0  0  0  0  0  0  0999 V2000
   35.3730   29.1740   50.4460 C   0  0  0  0  0  0  0  0  0  0  0  0
   36.2430   30.0600   49.7800 C   0  0  0  0  0  0  0  0  0  0  0  0
   36.1570   30.1440   48.3970 C   0  0  0  0  0  0  0  0  0  0  0  0
   35.2380   29.3680   47.7510 N   0  0  0  0  0  0  0  0  0  0  0  0
   34.4170   28.5260   48.4450 C   0  0  0  0  0  0  0  0  0  0  0  0
   34.4750   28.4220   49.7750 N   0  0  0  0  0  0  0  0  0  0  0  0
   33.5410   27.8180   47.5600 N   0  0  0  0  0  0  0  0  0  0  0  0
   37.2080   30.8530   50.5940 C   0  0  0  0  0  0  0  0  0  0  0  0
   38.5070   30.7020   50.0970 F   0  0  0  0  0  0  0  0  0  0  0  0
   36.8740   32.1750   50.4930 F   0  0  0  0  0  0  0  0  0  0  0  0
   37.2240   30.4860   51.9200 F   0  0  0  0  0  0  0  0  0  0  0  0
   37.0630   31.0680   47.6800 C   0  0  0  0  0  0  0  0  0  0  0  0
   35.4270   29.0930   51.5417 H   0  0  0  0  0  0  0  0  0  0  0  0
   32.8610   27.1436   47.9390 H   0  0  0  0  0  0  0  0  0  0  0  0
   33.5911   27.9833   46.5446 H   0  0  0  0  0  0  0  0  0  0  0  0
   37.6394   31.6559   48.4095 H   0  0  0  0  0  0  0  0  0  0  0  0
   37.7529   30.4888   47.0487 H   0  0  0  0  0  0  0  0  0  0  0  0
   36.4703   31.7464   47.0487 H   0  0  0  0  0  0  0  0  0  0  0  0
  2  1  2  0
  2  8  1  0
  3  2  1  0
  4  3  2  0
  4  5  1  0
  5  6  2  0
  6  1  1  0
  7  5  1  0
  8 11  1  0
  9  8  1  0
 10  8  1  0
 12  3  1  0
  1 13  1  0
  7 14  1  0
  7 15  1  0
 12 16  1  0
 12 17  1  0
 12 18  1  0
M  ISO  4  13  14  16   8  17   8  18   8
M  END
>  <minimizedAffinity>  (1) 
-4.70069265

>  <minimizedRMSD>  (1) 
0.364279866

$$$$
