
     RDKit          3D

 24 25  0  0  0  0  0  0  0  0999 V2000
   35.1680   28.6730   50.0290 C   0  0  0  0  0  0  0  0  0  0  0  0
   36.2390   29.5960   49.8550 C   0  0  0  0  0  0  0  0  0  0  0  0
   36.1570   30.4980   48.8050 C   0  0  0  0  0  0  0  0  0  0  0  0
   35.0580   30.4590   47.9900 N   0  0  0  0  0  0  0  0  0  0  0  0
   34.0580   29.5550   48.1970 C   0  0  0  0  0  0  0  0  0  0  0  0
   34.1060   28.6720   49.1990 N   0  0  0  0  0  0  0  0  0  0  0  0
   33.0230   29.7070   47.2260 N   0  0  0  0  0  0  0  0  0  0  0  0
   37.2320   31.4620   48.5950 C   0  0  0  0  0  0  0  0  0  0  0  0
   37.1980   32.5060   49.5160 C   0  0  0  0  0  0  0  0  0  0  0  0
   38.1530   33.5080   49.4510 C   0  0  0  0  0  0  0  0  0  0  0  0
   39.1280   33.4620   48.4770 C   0  0  0  0  0  0  0  0  0  0  0  0
   39.1380   32.4120   47.5750 C   0  0  0  0  0  0  0  0  0  0  0  0
   38.1990   31.4520   47.6590 N   0  0  0  0  0  0  0  0  0  0  0  0
   37.3840   29.5490   50.8000 C   0  0  0  0  0  0  0  0  0  0  0  0
   38.5850   29.8090   50.1500 F   0  0  0  0  0  0  0  0  0  0  0  0
   37.1910   30.5060   51.7610 F   0  0  0  0  0  0  0  0  0  0  0  0
   37.5120   28.3250   51.4290 F   0  0  0  0  0  0  0  0  0  0  0  0
   35.2084   27.9482   50.8554 H   0  0  0  0  0  0  0  0  0  0  0  0
   32.1970   29.0923   47.2532 H   0  0  0  0  0  0  0  0  0  0  0  0
   33.1021   30.4314   46.4981 H   0  0  0  0  0  0  0  0  0  0  0  0
   36.4175   32.5351   50.2906 H   0  0  0  0  0  0  0  0  0  0  0  0
   38.1334   34.3370   50.1737 H   0  0  0  0  0  0  0  0  0  0  0  0
   39.8908   34.2523   48.4173 H   0  0  0  0  0  0  0  0  0  0  0  0
   39.9101   32.3627   46.7931 H   0  0  0  0  0  0  0  0  0  0  0  0
  2  1  2  0
  2 14  1  0
  3  2  1  0
  4  5  1  0
  4  3  2  0
  5  6  2  0
  6  1  1  0
  7  5  1  0
  8  3  1  0
  8  9  2  0
 10  9  1  0
 11 10  2  0
 12 13  2  0
 12 11  1  0
 13  8  1  0
 14 17  1  0
 14 16  1  0
 15 14  1  0
  1 18  1  0
  7 19  1  0
  7 20  1  0
  9 21  1  0
 10 22  1  0
 11 23  1  0
 12 24  1  0
M  ISO  5  18  14  21  14  22  14  23  14  24  14
M  END
>  <minimizedAffinity>  (1) 
-5.96840763

>  <minimizedRMSD>  (1) 
1.46514618

$$$$
