
     RDKit          3D

 34 36  0  0  0  0  0  0  0  0999 V2000
   36.9050   31.1350   48.2950 C   0  0  0  0  0  0  0  0  0  0  0  0
   37.2790   32.0470   49.2590 C   0  0  0  0  0  0  0  0  0  0  0  0
   38.2390   33.0000   48.9370 C   0  0  0  0  0  0  0  0  0  0  0  0
   38.7950   33.0150   47.6640 C   0  0  0  0  0  0  0  0  0  0  0  0
   38.3940   32.0870   46.7340 C   0  0  0  0  0  0  0  0  0  0  0  0
   37.4700   31.1890   47.0850 N   0  0  0  0  0  0  0  0  0  0  0  0
   35.1190   28.5710   50.3890 C   0  0  0  0  0  0  0  0  0  0  0  0
   36.1280   29.4680   49.9480 C   0  0  0  0  0  0  0  0  0  0  0  0
   35.8900   30.1990   48.7820 C   0  0  0  0  0  0  0  0  0  0  0  0
   34.7000   30.0110   48.1280 N   0  0  0  0  0  0  0  0  0  0  0  0
   33.7670   29.1350   48.5970 C   0  0  0  0  0  0  0  0  0  0  0  0
   33.9740   28.4240   49.7140 N   0  0  0  0  0  0  0  0  0  0  0  0
   32.6230   29.1170   47.7500 N   0  0  0  0  0  0  0  0  0  0  0  0
   37.3780   29.5890   50.7390 C   0  0  0  0  0  0  0  0  0  0  0  0
   38.4820   29.8020   49.9110 F   0  0  0  0  0  0  0  0  0  0  0  0
   37.2700   30.6500   51.5830 F   0  0  0  0  0  0  0  0  0  0  0  0
   37.6500   28.4620   51.4920 F   0  0  0  0  0  0  0  0  0  0  0  0
   40.7020   30.6910   46.1470 F   0  0  0  0  0  0  0  0  0  0  0  0
   40.1030   31.3570   45.1230 C   0  0  0  0  0  0  0  0  0  0  0  0
   38.9490   32.0620   45.3870 C   0  0  0  0  0  0  0  0  0  0  0  0
   38.4020   32.7090   44.3020 C   0  0  0  0  0  0  0  0  0  0  0  0
   38.9660   32.6570   43.0380 C   0  0  0  0  0  0  0  0  0  0  0  0
   40.1180   31.9390   42.8250 C   0  0  0  0  0  0  0  0  0  0  0  0
   40.6670   31.2970   43.8890 C   0  0  0  0  0  0  0  0  0  0  0  0
   36.8275   32.0213   50.2617 H   0  0  0  0  0  0  0  0  0  0  0  0
   38.5569   33.7390   49.6872 H   0  0  0  0  0  0  0  0  0  0  0  0
   39.5535   33.7672   47.4017 H   0  0  0  0  0  0  0  0  0  0  0  0
   35.2829   27.9848   51.3052 H   0  0  0  0  0  0  0  0  0  0  0  0
   31.8273   28.5019   47.9722 H   0  0  0  0  0  0  0  0  0  0  0  0
   32.5910   29.7191   46.9149 H   0  0  0  0  0  0  0  0  0  0  0  0
   37.4795   33.2909   44.4446 H   0  0  0  0  0  0  0  0  0  0  0  0
   38.4905   33.1918   42.2026 H   0  0  0  0  0  0  0  0  0  0  0  0
   40.5795   31.8859   41.8279 H   0  0  0  0  0  0  0  0  0  0  0  0
   41.5897   30.7151   43.7478 H   0  0  0  0  0  0  0  0  0  0  0  0
  1  9  1  0
  1  2  2  0
  3  2  1  0
  4  3  2  0
  5  6  2  0
  5  4  1  0
  6  1  1  0
  8  7  2  0
  8 14  1  0
  9  8  1  0
 10 11  1  0
 10  9  2  0
 11 12  2  0
 12  7  1  0
 13 11  1  0
 14 17  1  0
 14 16  1  0
 15 14  1  0
 19 20  2  0
 19 18  1  0
 20  5  1  0
 21 20  1  0
 22 21  2  0
 23 22  1  0
 23 24  2  0
 24 19  1  0
  2 25  1  0
  3 26  1  0
  4 27  1  0
  7 28  1  0
 13 29  1  0
 13 30  1  0
 21 31  1  0
 22 32  1  0
 23 33  1  0
 24 34  1  0
M  ISO  8  25  14  26  14  27  14  28  14  31  14  32  14  33  14  34  14
M  END
>  <minimizedAffinity>  (1) 
-7.31181669

>  <minimizedRMSD>  (1) 
1.31365526

$$$$
