
     RDKit          3D

 27 28  0  0  0  0  0  0  0  0999 V2000
   35.1750   28.6360   50.1760 C   0  0  0  0  0  0  0  0  0  0  0  0
   36.2290   29.5470   49.9210 C   0  0  0  0  0  0  0  0  0  0  0  0
   36.0870   30.4120   48.8350 C   0  0  0  0  0  0  0  0  0  0  0  0
   34.9550   30.3380   48.0840 N   0  0  0  0  0  0  0  0  0  0  0  0
   33.9700   29.4370   48.3780 C   0  0  0  0  0  0  0  0  0  0  0  0
   34.0740   28.5940   49.4110 N   0  0  0  0  0  0  0  0  0  0  0  0
   32.8890   29.5500   47.4520 N   0  0  0  0  0  0  0  0  0  0  0  0
   37.1500   31.3730   48.5310 C   0  0  0  0  0  0  0  0  0  0  0  0
   37.2320   32.3800   49.4910 C   0  0  0  0  0  0  0  0  0  0  0  0
   38.1950   33.3710   49.3430 C   0  0  0  0  0  0  0  0  0  0  0  0
   39.0480   33.3440   48.2570 C   0  0  0  0  0  0  0  0  0  0  0  0
   38.9320   32.3330   47.3330 C   0  0  0  0  0  0  0  0  0  0  0  0
   38.0000   31.3860   47.4900 N   0  0  0  0  0  0  0  0  0  0  0  0
   39.8150   32.2310   46.1300 C   0  0  0  0  0  0  0  0  0  0  0  0
   39.0990   32.1800   44.9520 F   0  0  0  0  0  0  0  0  0  0  0  0
   40.7200   33.2750   46.0860 F   0  0  0  0  0  0  0  0  0  0  0  0
   40.5680   31.0560   46.1800 F   0  0  0  0  0  0  0  0  0  0  0  0
   37.4320   29.5490   50.8060 C   0  0  0  0  0  0  0  0  0  0  0  0
   38.5810   29.8470   50.1020 F   0  0  0  0  0  0  0  0  0  0  0  0
   37.2480   30.5050   51.7660 F   0  0  0  0  0  0  0  0  0  0  0  0
   37.6180   28.3340   51.4360 F   0  0  0  0  0  0  0  0  0  0  0  0
   35.2618   27.9430   51.0258 H   0  0  0  0  0  0  0  0  0  0  0  0
   32.0674   28.9354   47.5420 H   0  0  0  0  0  0  0  0  0  0  0  0
   32.9308   30.2461   46.6940 H   0  0  0  0  0  0  0  0  0  0  0  0
   36.5463   32.3902   50.3511 H   0  0  0  0  0  0  0  0  0  0  0  0
   38.2777   34.1751   50.0891 H   0  0  0  0  0  0  0  0  0  0  0  0
   39.8132   34.1244   48.1327 H   0  0  0  0  0  0  0  0  0  0  0  0
  2  1  2  0
  2 18  1  0
  3  2  1  0
  4  5  1  0
  4  3  2  0
  5  6  2  0
  6  1  1  0
  7  5  1  0
  8  3  1  0
  8  9  2  0
 10  9  1  0
 11 10  2  0
 12 13  2  0
 12 11  1  0
 13  8  1  0
 14 17  1  0
 14 12  1  0
 15 14  1  0
 16 14  1  0
 18 21  1  0
 18 20  1  0
 19 18  1  0
  1 22  1  0
  7 23  1  0
  7 24  1  0
  9 25  1  0
 10 26  1  0
 11 27  1  0
M  ISO  4  22  14  25  14  26  14  27  14
M  END
>  <minimizedAffinity>  (1) 
-7.07733297

>  <minimizedRMSD>  (1) 
0.303608268

$$$$
