
     RDKit          3D

 30 31  0  0  0  0  0  0  0  0999 V2000
   35.2060   28.5640   49.8790 C   0  0  0  0  0  0  0  0  0  0  0  0
   36.2640   29.5110   49.7170 C   0  0  0  0  0  0  0  0  0  0  0  0
   36.1230   30.4610   48.7060 C   0  0  0  0  0  0  0  0  0  0  0  0
   35.0000   30.4450   47.9300 N   0  0  0  0  0  0  0  0  0  0  0  0
   34.0210   29.5160   48.1320 C   0  0  0  0  0  0  0  0  0  0  0  0
   34.1220   28.5850   49.0950 N   0  0  0  0  0  0  0  0  0  0  0  0
   32.9510   29.6980   47.2050 N   0  0  0  0  0  0  0  0  0  0  0  0
   37.1730   31.4470   48.5020 C   0  0  0  0  0  0  0  0  0  0  0  0
   37.2150   32.3950   49.5320 C   0  0  0  0  0  0  0  0  0  0  0  0
   38.1740   33.4030   49.4700 C   0  0  0  0  0  0  0  0  0  0  0  0
   39.0650   33.4670   48.4160 C   0  0  0  0  0  0  0  0  0  0  0  0
   38.9790   32.5120   47.4350 C   0  0  0  0  0  0  0  0  0  0  0  0
   38.0550   31.5420   47.4960 N   0  0  0  0  0  0  0  0  0  0  0  0
   39.9190   32.5530   46.2910 C   0  0  0  0  0  0  0  0  0  0  0  0
   40.2810   31.1820   45.8050 C   0  0  0  0  0  0  0  0  0  0  0  0
   37.4400   29.4400   50.6140 C   0  0  0  0  0  0  0  0  0  0  0  0
   38.5950   29.8670   49.9720 F   0  0  0  0  0  0  0  0  0  0  0  0
   37.2160   30.2630   51.6870 F   0  0  0  0  0  0  0  0  0  0  0  0
   37.6700   28.1710   51.1020 F   0  0  0  0  0  0  0  0  0  0  0  0
   35.2847   27.8001   50.6666 H   0  0  0  0  0  0  0  0  0  0  0  0
   32.1343   29.0710   47.2316 H   0  0  0  0  0  0  0  0  0  0  0  0
   32.9956   30.4563   46.5094 H   0  0  0  0  0  0  0  0  0  0  0  0
   36.5061   32.3445   50.3716 H   0  0  0  0  0  0  0  0  0  0  0  0
   38.2226   34.1570   50.2695 H   0  0  0  0  0  0  0  0  0  0  0  0
   39.8230   34.2625   48.3649 H   0  0  0  0  0  0  0  0  0  0  0  0
   39.4488   33.1084   45.4661 H   0  0  0  0  0  0  0  0  0  0  0  0
   40.8423   33.0452   46.6306 H   0  0  0  0  0  0  0  0  0  0  0  0
   40.4554   30.5215   46.6672 H   0  0  0  0  0  0  0  0  0  0  0  0
   39.4582   30.7799   45.1956 H   0  0  0  0  0  0  0  0  0  0  0  0
   41.1950   31.2385   45.1956 H   0  0  0  0  0  0  0  0  0  0  0  0
  2  1  2  0
  2 16  1  0
  3  2  1  0
  4  5  1  0
  4  3  2  0
  5  6  2  0
  6  1  1  0
  7  5  1  0
  8  3  1  0
  8  9  2  0
 10  9  1  0
 11 10  2  0
 12 13  2  0
 12 11  1  0
 13  8  1  0
 14 12  1  0
 15 14  1  0
 16 19  1  0
 16 18  1  0
 17 16  1  0
  1 20  1  0
  7 21  1  0
  7 22  1  0
  9 23  1  0
 10 24  1  0
 11 25  1  0
 14 26  1  0
 14 27  1  0
 15 28  1  0
 15 29  1  0
 15 30  1  0
M  ISO  8  20  14  23  14  24  14  25  14  26   8  27   8  28   8  29   8
M  ISO  1  30   8
M  END
>  <minimizedAffinity>  (1) 
-6.60471964

>  <minimizedRMSD>  (1) 
0.374355525

$$$$
