
     RDKit          3D

 26 27  0  0  0  0  0  0  0  0999 V2000
   35.1950   28.6060   50.1330 C   0  0  0  0  0  0  0  0  0  0  0  0
   36.2370   29.5440   49.9030 C   0  0  0  0  0  0  0  0  0  0  0  0
   36.0990   30.4440   48.8470 C   0  0  0  0  0  0  0  0  0  0  0  0
   34.9650   30.3670   48.0950 N   0  0  0  0  0  0  0  0  0  0  0  0
   33.9860   29.4570   48.3410 C   0  0  0  0  0  0  0  0  0  0  0  0
   34.0940   28.5820   49.3470 N   0  0  0  0  0  0  0  0  0  0  0  0
   32.9100   29.5860   47.4110 N   0  0  0  0  0  0  0  0  0  0  0  0
   37.1480   31.4200   48.5820 C   0  0  0  0  0  0  0  0  0  0  0  0
   37.1970   32.4160   49.5500 C   0  0  0  0  0  0  0  0  0  0  0  0
   38.1530   33.4190   49.4270 C   0  0  0  0  0  0  0  0  0  0  0  0
   39.0340   33.4200   48.3620 C   0  0  0  0  0  0  0  0  0  0  0  0
   38.9430   32.4130   47.4310 C   0  0  0  0  0  0  0  0  0  0  0  0
   38.0190   31.4540   47.5600 N   0  0  0  0  0  0  0  0  0  0  0  0
   39.8530   32.3810   46.2950 C   0  0  0  0  0  0  0  0  0  0  0  0
   40.0990   33.3990   45.6100 O   0  0  0  0  0  0  0  0  0  0  0  0
   37.4290   29.5250   50.7990 C   0  0  0  0  0  0  0  0  0  0  0  0
   38.5850   29.8390   50.1030 F   0  0  0  0  0  0  0  0  0  0  0  0
   37.2440   30.4660   51.7840 F   0  0  0  0  0  0  0  0  0  0  0  0
   37.6260   28.3000   51.4030 F   0  0  0  0  0  0  0  0  0  0  0  0
   35.2847   27.8888   50.9622 H   0  0  0  0  0  0  0  0  0  0  0  0
   32.0950   28.9596   47.4763 H   0  0  0  0  0  0  0  0  0  0  0  0
   32.9490   30.3054   46.6749 H   0  0  0  0  0  0  0  0  0  0  0  0
   36.4942   32.4113   50.3962 H   0  0  0  0  0  0  0  0  0  0  0  0
   38.2082   34.2167   50.1824 H   0  0  0  0  0  0  0  0  0  0  0  0
   39.7924   34.2104   48.2616 H   0  0  0  0  0  0  0  0  0  0  0  0
   40.3402   31.4310   46.0302 H   0  0  0  0  0  0  0  0  0  0  0  0
  2  1  2  0
  2 16  1  0
  3  2  1  0
  4  5  1  0
  4  3  2  0
  5  6  2  0
  6  1  1  0
  7  5  1  0
  8  3  1  0
  8  9  2  0
 10  9  1  0
 11 10  2  0
 12 13  2  0
 12 11  1  0
 13  8  1  0
 14 12  1  0
 15 14  2  0
 16 19  1  0
 16 18  1  0
 17 16  1  0
  1 20  1  0
  7 21  1  0
  7 22  1  0
  9 23  1  0
 10 24  1  0
 11 25  1  0
 14 26  1  0
M  ISO  5  20  14  23  14  24  14  25  14  26   6
M  END
>  <minimizedAffinity>  (1) 
-6.36750174

>  <minimizedRMSD>  (1) 
0.195667937

$$$$
