
     RDKit          3D

 26 27  0  0  0  0  0  0  0  0999 V2000
   35.1920   28.6240   50.1450 C   0  0  0  0  0  0  0  0  0  0  0  0
   36.2490   29.5620   49.9180 C   0  0  0  0  0  0  0  0  0  0  0  0
   36.1060   30.4450   48.8570 C   0  0  0  0  0  0  0  0  0  0  0  0
   34.9770   30.3750   48.0920 N   0  0  0  0  0  0  0  0  0  0  0  0
   34.0010   29.4600   48.3540 C   0  0  0  0  0  0  0  0  0  0  0  0
   34.1050   28.5970   49.3660 N   0  0  0  0  0  0  0  0  0  0  0  0
   32.9260   29.5820   47.4210 N   0  0  0  0  0  0  0  0  0  0  0  0
   37.1620   31.4180   48.5900 C   0  0  0  0  0  0  0  0  0  0  0  0
   37.1950   32.4330   49.5490 C   0  0  0  0  0  0  0  0  0  0  0  0
   38.1480   33.4380   49.4310 C   0  0  0  0  0  0  0  0  0  0  0  0
   39.0430   33.4110   48.3690 C   0  0  0  0  0  0  0  0  0  0  0  0
   38.9760   32.3940   47.4470 C   0  0  0  0  0  0  0  0  0  0  0  0
   38.0440   31.4260   47.5760 N   0  0  0  0  0  0  0  0  0  0  0  0
   39.8510   32.2850   46.3280 N   0  0  0  0  0  0  0  0  0  0  0  0
   37.4260   29.5370   50.8220 C   0  0  0  0  0  0  0  0  0  0  0  0
   38.5890   29.8320   50.1210 F   0  0  0  0  0  0  0  0  0  0  0  0
   37.2500   30.4790   51.7860 F   0  0  0  0  0  0  0  0  0  0  0  0
   37.6170   28.3140   51.4340 F   0  0  0  0  0  0  0  0  0  0  0  0
   35.2754   27.9102   50.9778 H   0  0  0  0  0  0  0  0  0  0  0  0
   32.1107   28.9563   47.4900 H   0  0  0  0  0  0  0  0  0  0  0  0
   32.9662   30.2956   46.6794 H   0  0  0  0  0  0  0  0  0  0  0  0
   36.4787   32.4370   50.3838 H   0  0  0  0  0  0  0  0  0  0  0  0
   38.1931   34.2487   50.1731 H   0  0  0  0  0  0  0  0  0  0  0  0
   39.8022   34.2003   48.2664 H   0  0  0  0  0  0  0  0  0  0  0  0
   40.5831   32.9934   46.1757 H   0  0  0  0  0  0  0  0  0  0  0  0
   39.7516   31.4978   45.6712 H   0  0  0  0  0  0  0  0  0  0  0  0
  2  1  2  0
  2 15  1  0
  3  2  1  0
  4  5  1  0
  4  3  2  0
  5  6  2  0
  6  1  1  0
  7  5  1  0
  8  3  1  0
  8  9  2  0
 10  9  1  0
 11 10  2  0
 12 13  2  0
 12 11  1  0
 13  8  1  0
 14 12  1  0
 15 18  1  0
 15 17  1  0
 16 15  1  0
  1 19  1  0
  7 20  1  0
  7 21  1  0
  9 22  1  0
 10 23  1  0
 11 24  1  0
 14 25  1  0
 14 26  1  0
M  ISO  4  19  14  22  14  23  14  24  14
M  END
>  <minimizedAffinity>  (1) 
-6.34085178

>  <minimizedRMSD>  (1) 
0.155449659

$$$$
