
     RDKit          3D

 27 28  0  0  0  0  0  0  0  0999 V2000
   37.8880   30.8610   48.4030 C   0  0  0  0  0  0  0  0  0  0  0  0
   38.3110   32.0870   48.9980 C   0  0  0  0  0  0  0  0  0  0  0  0
   39.0890   32.9480   48.2240 C   0  0  0  0  0  0  0  0  0  0  0  0
   39.4010   32.5730   46.9450 N   0  0  0  0  0  0  0  0  0  0  0  0
   38.9860   31.4060   46.4100 C   0  0  0  0  0  0  0  0  0  0  0  0
   38.2360   30.5650   47.1400 N   0  0  0  0  0  0  0  0  0  0  0  0
   37.0710   29.9670   49.2330 C   0  0  0  0  0  0  0  0  0  0  0  0
   35.7240   29.6570   48.6050 C   0  0  0  0  0  0  0  0  0  0  0  0
   35.1250   28.5610   49.4950 C   0  0  0  0  0  0  0  0  0  0  0  0
   34.9910   29.0160   50.7880 O   0  0  0  0  0  0  0  0  0  0  0  0
   36.1530   29.3890   51.4090 C   0  0  0  0  0  0  0  0  0  0  0  0
   36.7960   30.4990   50.6250 C   0  0  0  0  0  0  0  0  0  0  0  0
   39.5430   34.2300   48.8200 C   0  0  0  0  0  0  0  0  0  0  0  0
   39.9470   33.9340   50.0950 F   0  0  0  0  0  0  0  0  0  0  0  0
   40.6040   34.7870   48.1430 F   0  0  0  0  0  0  0  0  0  0  0  0
   38.5100   35.1610   48.8860 F   0  0  0  0  0  0  0  0  0  0  0  0
   38.0333   32.3441   50.0308 H   0  0  0  0  0  0  0  0  0  0  0  0
   39.2616   31.1441   45.3778 H   0  0  0  0  0  0  0  0  0  0  0  0
   37.6868   29.0584   49.3056 H   0  0  0  0  0  0  0  0  0  0  0  0
   35.0817   30.5500   48.6033 H   0  0  0  0  0  0  0  0  0  0  0  0
   35.8162   29.3385   47.5562 H   0  0  0  0  0  0  0  0  0  0  0  0
   34.1361   28.2774   49.1057 H   0  0  0  0  0  0  0  0  0  0  0  0
   35.7958   27.6892   49.4899 H   0  0  0  0  0  0  0  0  0  0  0  0
   35.9302   29.7389   52.4278 H   0  0  0  0  0  0  0  0  0  0  0  0
   36.8368   28.5291   51.4626 H   0  0  0  0  0  0  0  0  0  0  0  0
   37.7382   30.8021   51.1051 H   0  0  0  0  0  0  0  0  0  0  0  0
   36.1366   31.3784   50.5825 H   0  0  0  0  0  0  0  0  0  0  0  0
  1  2  2  0
  1  7  1  0
  3 13  1  0
  3  2  1  0
  4  3  2  0
  5  4  1  0
  5  6  2  0
  6  1  1  0
  7 12  1  0
  8  7  1  0
  8  9  1  0
  9 10  1  0
 10 11  1  0
 12 11  1  0
 13 16  1  0
 13 14  1  0
 15 13  1  0
  2 17  1  0
  5 18  1  0
  7 19  1  0
  8 20  1  0
  8 21  1  0
  9 22  1  0
  9 23  1  0
 11 24  1  0
 11 25  1  0
 12 26  1  0
 12 27  1  0
M  ISO  8  17  14  18  14  19  13  20  13  21  13  22  13  23  13  24  13
M  ISO  3  25  13  26  13  27  13
M  END
>  <minimizedAffinity>  (1) 
-5.63198137

>  <minimizedRMSD>  (1) 
4.11044931

$$$$
