
     RDKit          3D

 16 16  0  0  0  0  0  0  0  0999 V2000
   37.4180   30.2540   49.9610 C   0  0  0  0  0  0  0  0  0  0  0  0
   38.0570   31.5190   50.0910 C   0  0  0  0  0  0  0  0  0  0  0  0
   38.2830   32.2580   48.9150 C   0  0  0  0  0  0  0  0  0  0  0  0
   37.8780   31.7180   47.7410 N   0  0  0  0  0  0  0  0  0  0  0  0
   37.2720   30.5080   47.6580 C   0  0  0  0  0  0  0  0  0  0  0  0
   37.0520   29.7960   48.7680 N   0  0  0  0  0  0  0  0  0  0  0  0
   38.9470   33.5780   49.0240 C   0  0  0  0  0  0  0  0  0  0  0  0
   39.6540   33.5550   50.2050 F   0  0  0  0  0  0  0  0  0  0  0  0
   39.8340   33.8020   47.9880 F   0  0  0  0  0  0  0  0  0  0  0  0
   38.0240   34.6130   49.0860 F   0  0  0  0  0  0  0  0  0  0  0  0
   37.1800   29.4700   51.2140 C   0  0  0  0  0  0  0  0  0  0  0  0
   37.6240   30.1350   52.3130 F   0  0  0  0  0  0  0  0  0  0  0  0
   35.8500   29.1970   51.3320 F   0  0  0  0  0  0  0  0  0  0  0  0
   37.9130   28.2810   51.1380 F   0  0  0  0  0  0  0  0  0  0  0  0
   38.3630   31.9049   51.0746 H   0  0  0  0  0  0  0  0  0  0  0  0
   36.9620   30.1129   46.6793 H   0  0  0  0  0  0  0  0  0  0  0  0
  1  2  2  0
  1 11  1  0
  3  7  1  0
  3  2  1  0
  4  3  2  0
  5  4  1  0
  5  6  2  0
  6  1  1  0
  7 10  1  0
  7  8  1  0
  9  7  1  0
 11 13  1  0
 11 12  1  0
 14 11  1  0
  2 15  1  0
  5 16  1  0
M  ISO  2  15  14  16  14
M  END
>  <minimizedAffinity>  (1) 
-5.4180851

>  <minimizedRMSD>  (1) 
2.05420065

$$$$
