
     RDKit          3D

 25 26  0  0  0  0  0  0  0  0999 V2000
   37.3050   31.1870   48.8160 C   0  0  0  0  0  0  0  0  0  0  0  0
   37.8980   32.3820   49.2720 C   0  0  0  0  0  0  0  0  0  0  0  0
   38.8790   32.9730   48.4650 C   0  0  0  0  0  0  0  0  0  0  0  0
   39.1950   32.3640   47.3010 N   0  0  0  0  0  0  0  0  0  0  0  0
   38.6130   31.2210   46.8840 C   0  0  0  0  0  0  0  0  0  0  0  0
   37.6670   30.6460   47.6600 N   0  0  0  0  0  0  0  0  0  0  0  0
   36.3150   30.6210   49.6670 N   0  0  0  0  0  0  0  0  0  0  0  0
   36.5800   29.9140   50.9040 C   0  0  0  0  0  0  0  0  0  0  0  0
   35.3320   29.1210   51.2200 C   0  0  0  0  0  0  0  0  0  0  0  0
   34.5810   29.1760   49.9200 C   0  0  0  0  0  0  0  0  0  0  0  0
   34.8730   30.6220   49.4970 C   0  0  0  0  0  0  0  0  0  0  0  0
   39.5260   34.2310   48.9120 C   0  0  0  0  0  0  0  0  0  0  0  0
   39.9700   33.9970   50.1900 F   0  0  0  0  0  0  0  0  0  0  0  0
   40.5840   34.6150   48.1400 F   0  0  0  0  0  0  0  0  0  0  0  0
   38.6080   35.2870   48.9840 F   0  0  0  0  0  0  0  0  0  0  0  0
   37.6005   32.8351   50.2292 H   0  0  0  0  0  0  0  0  0  0  0  0
   38.9037   30.7635   45.9268 H   0  0  0  0  0  0  0  0  0  0  0  0
   37.4386   29.2378   50.7790 H   0  0  0  0  0  0  0  0  0  0  0  0
   36.8243   30.6129   51.7176 H   0  0  0  0  0  0  0  0  0  0  0  0
   35.5774   28.0846   51.4949 H   0  0  0  0  0  0  0  0  0  0  0  0
   34.7633   29.5161   52.0747 H   0  0  0  0  0  0  0  0  0  0  0  0
   34.9741   28.4514   49.1917 H   0  0  0  0  0  0  0  0  0  0  0  0
   33.5128   28.9242   49.9939 H   0  0  0  0  0  0  0  0  0  0  0  0
   34.3804   31.3521   50.1560 H   0  0  0  0  0  0  0  0  0  0  0  0
   34.5147   30.9038   48.4959 H   0  0  0  0  0  0  0  0  0  0  0  0
  1  2  2  0
  1  7  1  0
  3 12  1  0
  3  2  1  0
  4  3  2  0
  5  4  1  0
  5  6  2  0
  6  1  1  0
  7  8  1  0
  8  9  1  0
 10  9  1  0
 11  7  1  0
 11 10  1  0
 12 15  1  0
 12 13  1  0
 14 12  1  0
  2 16  1  0
  5 17  1  0
  8 18  1  0
  8 19  1  0
  9 20  1  0
  9 21  1  0
 10 22  1  0
 10 23  1  0
 11 24  1  0
 11 25  1  0
M  ISO  8  16  14  17  14  18  13  19  13  20  13  21  13  22  13  23  13
M  ISO  2  24  13  25  13
M  END
>  <minimizedAffinity>  (1) 
-5.23550034

>  <minimizedRMSD>  (1) 
3.79855227

$$$$
