
     RDKit          3D

 20 21  0  0  0  0  0  0  0  0999 V2000
   37.9170   30.8720   46.7330 C   0  0  0  0  0  0  0  0  0  0  0  0
   38.0570   31.0380   48.1370 C   0  0  0  0  0  0  0  0  0  0  0  0
   36.9290   30.8170   48.9310 C   0  0  0  0  0  0  0  0  0  0  0  0
   35.7690   30.4560   48.3180 N   0  0  0  0  0  0  0  0  0  0  0  0
   35.6690   30.3060   46.9810 C   0  0  0  0  0  0  0  0  0  0  0  0
   36.7530   30.5190   46.2060 N   0  0  0  0  0  0  0  0  0  0  0  0
   39.0950   31.1040   45.9050 C   0  0  0  0  0  0  0  0  0  0  0  0
   39.9170   32.2000   45.9020 C   0  0  0  0  0  0  0  0  0  0  0  0
   40.9390   32.0340   44.9600 C   0  0  0  0  0  0  0  0  0  0  0  0
   40.6830   30.8080   44.4200 N   0  0  0  0  0  0  0  0  0  0  0  0
   39.6120   30.2790   44.9770 N   0  0  0  0  0  0  0  0  0  0  0  0
   37.0520   30.9860   50.4030 C   0  0  0  0  0  0  0  0  0  0  0  0
   36.5530   32.2400   50.6850 F   0  0  0  0  0  0  0  0  0  0  0  0
   36.3090   30.0520   51.1060 F   0  0  0  0  0  0  0  0  0  0  0  0
   38.3700   30.9430   50.8250 F   0  0  0  0  0  0  0  0  0  0  0  0
   39.0192   31.3301   48.5829 H   0  0  0  0  0  0  0  0  0  0  0  0
   34.7114   30.0124   46.5262 H   0  0  0  0  0  0  0  0  0  0  0  0
   39.7920   33.0826   46.5465 H   0  0  0  0  0  0  0  0  0  0  0  0
   41.7557   32.7284   44.7135 H   0  0  0  0  0  0  0  0  0  0  0  0
   41.2458   30.3599   43.6828 H   0  0  0  0  0  0  0  0  0  0  0  0
  1  2  2  0
  2  3  1  0
  3 12  1  0
  4  3  2  0
  5  4  1  0
  6  1  1  0
  6  5  2  0
  7  1  1  0
  8  7  1  0
  9  8  2  0
 10  9  1  0
 10 11  1  0
 11  7  2  0
 12 13  1  0
 12 15  1  0
 12 14  1  0
  2 16  1  0
  5 17  1  0
  8 18  1  0
  9 19  1  0
 10 20  1  0
M  ISO  5  16  14  17  14  18  14  19  14  20   9
M  END
>  <minimizedAffinity>  (1) 
-5.30306625

>  <minimizedRMSD>  (1) 
6.03944635

$$$$
