
     RDKit          3D

 34 35  0  0  1  0  0  0  0  0999 V2000
   35.5610   30.5900   47.3820 C   0  0  2  0  0  0  0  0  0  0  0  0
   36.3160   30.4800   46.0790 C   0  0  0  0  0  0  0  0  0  0  0  0
   37.7800   30.2740   46.2740 C   0  0  0  0  0  0  0  0  0  0  0  0
   38.4460   31.2540   47.1980 C   0  0  0  0  0  0  0  0  0  0  0  0
   37.5910   31.6610   48.3550 C   0  0  0  0  0  0  0  0  0  0  0  0
   36.4240   30.7050   48.5750 C   0  0  2  0  0  0  0  0  0  0  0  0
   34.6630   29.4260   47.5610 C   0  0  0  0  0  0  0  0  0  0  0  0
   34.4220   28.6310   46.4100 C   0  0  0  0  0  0  0  0  0  0  0  0
   33.5800   27.5250   46.5650 C   0  0  0  0  0  0  0  0  0  0  0  0
   33.0430   27.2770   47.7920 N   0  0  0  0  0  0  0  0  0  0  0  0
   33.3050   28.0760   48.8750 C   0  0  0  0  0  0  0  0  0  0  0  0
   34.0970   29.1220   48.7480 N   0  0  0  0  0  0  0  0  0  0  0  0
   36.9810   29.5460   49.1380 N   0  0  0  0  0  0  0  0  0  0  0  0
   37.0930   29.4770   50.8340 S   0  0  0  0  0  0  0  0  0  0  0  0
   37.6500   30.8290   51.2780 O   0  0  0  0  0  0  0  0  0  0  0  0
   35.7690   29.2550   51.4990 O   0  0  0  0  0  0  0  0  0  0  0  0
   38.1750   28.3440   51.3820 O   0  0  0  0  0  0  0  0  0  0  0  0
   34.9882   31.5258   47.3033 H   0  0  0  0  0  0  0  0  0  0  0  0
   36.1649   31.4068   45.5061 H   0  0  0  0  0  0  0  0  0  0  0  0
   35.9266   29.6011   45.5443 H   0  0  0  0  0  0  0  0  0  0  0  0
   37.9301   29.2641   46.6834 H   0  0  0  0  0  0  0  0  0  0  0  0
   38.2433   30.4212   45.2872 H   0  0  0  0  0  0  0  0  0  0  0  0
   39.3650   30.7936   47.5896 H   0  0  0  0  0  0  0  0  0  0  0  0
   38.6503   32.1624   46.6123 H   0  0  0  0  0  0  0  0  0  0  0  0
   38.2103   31.6786   49.2639 H   0  0  0  0  0  0  0  0  0  0  0  0
   37.1752   32.6551   48.1336 H   0  0  0  0  0  0  0  0  0  0  0  0
   35.6717   31.0649   49.2923 H   0  0  0  0  0  0  0  0  0  0  0  0
   34.8775   28.8741   45.4387 H   0  0  0  0  0  0  0  0  0  0  0  0
   33.3556   26.8677   45.7120 H   0  0  0  0  0  0  0  0  0  0  0  0
   32.8538   27.8439   49.8510 H   0  0  0  0  0  0  0  0  0  0  0  0
   36.4063   28.7474   48.8334 H   0  0  0  0  0  0  0  0  0  0  0  0
   37.6670   30.8702   52.2670 H   0  0  0  0  0  0  0  0  0  0  0  0
   35.8860   29.2746   52.4819 H   0  0  0  0  0  0  0  0  0  0  0  0
   38.1773   28.3416   52.3720 H   0  0  0  0  0  0  0  0  0  0  0  0
  1  7  1  0
  1  6  1  0
  2  3  1  0
  2  1  1  0
  3  4  1  0
  4  5  1  0
  5  6  1  0
  6 13  1  0
  7 12  2  0
  8  9  2  0
  8  7  1  0
  9 10  1  0
 10 11  2  0
 12 11  1  0
 13 14  1  0
 14 15  1  0
 14 17  1  0
 14 16  1  0
  1 18  1  6
  2 19  1  0
  2 20  1  0
  3 21  1  0
  3 22  1  0
  4 23  1  0
  4 24  1  0
  5 25  1  0
  5 26  1  0
  6 27  1  1
  8 28  1  0
  9 29  1  0
 11 30  1  0
 13 31  1  0
 15 32  1  0
 16 33  1  0
 17 34  1  0
M  ISO  8  18  13  19  13  20  13  21  13  22  13  23  13  24  13  25  13
M  ISO  8  26  13  27  13  28  14  29  14  30  14  31   5  32   3  33   3
M  ISO  1  34   3
M  END
>  <minimizedAffinity>  (1) 
-4.44116068

>  <minimizedRMSD>  (1) 
2.56399059

$$$$
