
     RDKit          3D

 30 32  0  0  0  0  0  0  0  0999 V2000
   38.7890   30.8400   45.6620 C   0  0  0  0  0  0  0  0  0  0  0  0
   40.0410   31.3700   45.8820 C   0  0  0  0  0  0  0  0  0  0  0  0
   40.7910   31.2910   44.6940 C   0  0  0  0  0  0  0  0  0  0  0  0
   39.9410   30.7070   43.8010 N   0  0  0  0  0  0  0  0  0  0  0  0
   38.7860   30.4510   44.3700 N   0  0  0  0  0  0  0  0  0  0  0  0
   39.3760   32.3180   41.5460 F   0  0  0  0  0  0  0  0  0  0  0  0
   40.1660   31.2490   41.3590 C   0  0  0  0  0  0  0  0  0  0  0  0
   40.4190   30.4870   42.4790 C   0  0  0  0  0  0  0  0  0  0  0  0
   41.2310   29.3540   42.3830 C   0  0  0  0  0  0  0  0  0  0  0  0
   41.7580   29.0380   41.1360 C   0  0  0  0  0  0  0  0  0  0  0  0
   41.5170   29.7920   39.9850 C   0  0  0  0  0  0  0  0  0  0  0  0
   40.7080   30.9020   40.1360 C   0  0  0  0  0  0  0  0  0  0  0  0
   37.7010   30.7240   46.6150 C   0  0  0  0  0  0  0  0  0  0  0  0
   37.9750   30.9830   47.9760 C   0  0  0  0  0  0  0  0  0  0  0  0
   36.9320   30.8740   48.9060 C   0  0  0  0  0  0  0  0  0  0  0  0
   35.7090   30.5200   48.4250 N   0  0  0  0  0  0  0  0  0  0  0  0
   35.4620   30.2760   47.1250 C   0  0  0  0  0  0  0  0  0  0  0  0
   36.4690   30.3840   46.2420 N   0  0  0  0  0  0  0  0  0  0  0  0
   37.2120   31.1450   50.3380 C   0  0  0  0  0  0  0  0  0  0  0  0
   36.6980   32.3930   50.5860 F   0  0  0  0  0  0  0  0  0  0  0  0
   36.5750   30.2360   51.1750 F   0  0  0  0  0  0  0  0  0  0  0  0
   38.5670   31.1700   50.6090 F   0  0  0  0  0  0  0  0  0  0  0  0
   40.3978   31.7884   46.8347 H   0  0  0  0  0  0  0  0  0  0  0  0
   41.8256   31.6239   44.5243 H   0  0  0  0  0  0  0  0  0  0  0  0
   41.4461   28.7327   43.2649 H   0  0  0  0  0  0  0  0  0  0  0  0
   42.3983   28.1476   41.0512 H   0  0  0  0  0  0  0  0  0  0  0  0
   41.9480   29.5170   39.0110 H   0  0  0  0  0  0  0  0  0  0  0  0
   40.4892   31.5272   39.2578 H   0  0  0  0  0  0  0  0  0  0  0  0
   38.9877   31.2649   48.3001 H   0  0  0  0  0  0  0  0  0  0  0  0
   34.4529   29.9930   46.7908 H   0  0  0  0  0  0  0  0  0  0  0  0
  1  2  1  0
  1 13  1  0
  3  2  2  0
  4  5  1  0
  4  3  1  0
  5  1  2  0
  7  6  1  0
  7  8  2  0
  8  4  1  0
  9  8  1  0
 10  9  2  0
 11 12  2  0
 11 10  1  0
 12  7  1  0
 13 14  2  0
 14 15  1  0
 15 19  1  0
 16 15  2  0
 17 16  1  0
 18 13  1  0
 18 17  2  0
 19 20  1  0
 19 22  1  0
 19 21  1  0
  2 23  1  0
  3 24  1  0
  9 25  1  0
 10 26  1  0
 11 27  1  0
 12 28  1  0
 14 29  1  0
 17 30  1  0
M  ISO  8  23  14  24  14  25  14  26  14  27  14  28  14  29  14  30  14
M  END
>  <minimizedAffinity>  (1) 
-6.31919146

>  <minimizedRMSD>  (1) 
1.24067748

$$$$
