
     RDKit          3D

 26 27  0  0  0  0  0  0  0  0999 V2000
   37.7100   30.7390   46.5300 C   0  0  0  0  0  0  0  0  0  0  0  0
   37.9390   31.0130   47.8960 C   0  0  0  0  0  0  0  0  0  0  0  0
   36.8790   30.8850   48.7840 C   0  0  0  0  0  0  0  0  0  0  0  0
   35.6710   30.5010   48.3010 N   0  0  0  0  0  0  0  0  0  0  0  0
   35.4700   30.2420   46.9870 C   0  0  0  0  0  0  0  0  0  0  0  0
   36.4980   30.3650   46.1150 N   0  0  0  0  0  0  0  0  0  0  0  0
   38.8180   30.8720   45.5980 C   0  0  0  0  0  0  0  0  0  0  0  0
   40.0840   31.3420   45.8760 C   0  0  0  0  0  0  0  0  0  0  0  0
   40.8550   31.3110   44.7030 C   0  0  0  0  0  0  0  0  0  0  0  0
   40.0030   30.8160   43.7560 N   0  0  0  0  0  0  0  0  0  0  0  0
   38.8270   30.5680   44.2970 N   0  0  0  0  0  0  0  0  0  0  0  0
   40.3940   30.6130   42.3680 C   0  0  0  0  0  0  0  0  0  0  0  0
   41.3010   29.4350   42.1810 C   0  0  0  0  0  0  0  0  0  0  0  0
   37.1130   31.1720   50.2240 C   0  0  0  0  0  0  0  0  0  0  0  0
   36.5950   32.4330   50.4530 F   0  0  0  0  0  0  0  0  0  0  0  0
   36.4610   30.2730   51.0580 F   0  0  0  0  0  0  0  0  0  0  0  0
   38.4660   31.1960   50.5400 F   0  0  0  0  0  0  0  0  0  0  0  0
   38.9344   31.3208   48.2488 H   0  0  0  0  0  0  0  0  0  0  0  0
   34.4764   29.9332   46.6301 H   0  0  0  0  0  0  0  0  0  0  0  0
   40.4343   31.6865   46.8602 H   0  0  0  0  0  0  0  0  0  0  0  0
   41.9043   31.6154   44.5755 H   0  0  0  0  0  0  0  0  0  0  0  0
   39.4859   30.4549   41.7677 H   0  0  0  0  0  0  0  0  0  0  0  0
   40.9474   31.5082   42.0480 H   0  0  0  0  0  0  0  0  0  0  0  0
   41.6019   29.0442   43.1642 H   0  0  0  0  0  0  0  0  0  0  0  0
   40.7718   28.6501   41.6207 H   0  0  0  0  0  0  0  0  0  0  0  0
   42.1951   29.7459   41.6207 H   0  0  0  0  0  0  0  0  0  0  0  0
  1  2  2  0
  2  3  1  0
  3 14  1  0
  4  3  2  0
  5  4  1  0
  6  1  1  0
  6  5  2  0
  7  8  1  0
  7  1  1  0
  9  8  2  0
 10 11  1  0
 10  9  1  0
 11  7  2  0
 12 10  1  0
 13 12  1  0
 14 15  1  0
 14 17  1  0
 14 16  1  0
  2 18  1  0
  5 19  1  0
  8 20  1  0
  9 21  1  0
 12 22  1  0
 12 23  1  0
 13 24  1  0
 13 25  1  0
 13 26  1  0
M  ISO  8  18  14  19  14  20  14  21  14  22   8  23   8  24   8  25   8
M  ISO  1  26   8
M  END
>  <minimizedAffinity>  (1) 
-5.40717936

>  <minimizedRMSD>  (1) 
0.852729023

$$$$
