
     RDKit          3D

 39 42  0  0  0  0  0  0  0  0999 V2000
   38.9180   30.9040   45.7800 C   0  0  0  0  0  0  0  0  0  0  0  0
   40.1120   31.5600   46.0250 C   0  0  0  0  0  0  0  0  0  0  0  0
   40.9390   31.4930   44.9150 C   0  0  0  0  0  0  0  0  0  0  0  0
   40.2050   30.7830   44.0140 N   0  0  0  0  0  0  0  0  0  0  0  0
   39.0410   30.4480   44.5220 N   0  0  0  0  0  0  0  0  0  0  0  0
   37.7910   30.7480   46.6790 C   0  0  0  0  0  0  0  0  0  0  0  0
   38.0100   30.9700   48.0620 C   0  0  0  0  0  0  0  0  0  0  0  0
   36.9230   30.8240   48.9210 C   0  0  0  0  0  0  0  0  0  0  0  0
   35.7110   30.4730   48.3800 N   0  0  0  0  0  0  0  0  0  0  0  0
   35.5420   30.2690   47.0610 C   0  0  0  0  0  0  0  0  0  0  0  0
   36.5800   30.4070   46.2150 N   0  0  0  0  0  0  0  0  0  0  0  0
   37.1310   31.0570   50.3820 C   0  0  0  0  0  0  0  0  0  0  0  0
   36.5960   32.3040   50.6290 F   0  0  0  0  0  0  0  0  0  0  0  0
   36.4660   30.1300   51.1630 F   0  0  0  0  0  0  0  0  0  0  0  0
   38.4830   31.0670   50.7120 F   0  0  0  0  0  0  0  0  0  0  0  0
   40.5680   30.4020   42.6590 C   0  0  0  0  0  0  0  0  0  0  0  0
   40.2060   31.1920   41.5590 C   0  0  0  0  0  0  0  0  0  0  0  0
   40.5690   30.8060   40.3080 C   0  0  0  0  0  0  0  0  0  0  0  0
   41.3070   29.6040   40.1470 C   0  0  0  0  0  0  0  0  0  0  0  0
   41.4830   29.0110   41.8990 S   0  0  0  0  0  0  0  0  0  0  0  0
   41.8840   28.7950   39.2510 N   0  0  0  0  0  0  0  0  0  0  0  0
   43.1530   29.1820   38.6130 C   0  0  0  0  0  0  0  0  0  0  0  0
   42.7050   29.1830   37.1620 C   0  0  0  0  0  0  0  0  0  0  0  0
   41.8380   27.9370   37.1310 C   0  0  0  0  0  0  0  0  0  0  0  0
   41.6890   27.5300   38.5900 C   0  0  0  0  0  0  0  0  0  0  0  0
   40.3685   32.0639   46.9686 H   0  0  0  0  0  0  0  0  0  0  0  0
   41.9480   31.9132   44.7912 H   0  0  0  0  0  0  0  0  0  0  0  0
   39.0036   31.2479   48.4435 H   0  0  0  0  0  0  0  0  0  0  0  0
   34.5519   29.9884   46.6724 H   0  0  0  0  0  0  0  0  0  0  0  0
   39.6318   32.1184   41.7078 H   0  0  0  0  0  0  0  0  0  0  0  0
   40.2954   31.4151   39.4338 H   0  0  0  0  0  0  0  0  0  0  0  0
   43.4916   30.1762   38.9399 H   0  0  0  0  0  0  0  0  0  0  0  0
   44.0117   28.5332   38.8404 H   0  0  0  0  0  0  0  0  0  0  0  0
   42.1255   30.0856   36.9179 H   0  0  0  0  0  0  0  0  0  0  0  0
   43.5274   29.1838   36.4315 H   0  0  0  0  0  0  0  0  0  0  0  0
   40.8558   28.1594   36.6886 H   0  0  0  0  0  0  0  0  0  0  0  0
   42.2824   27.1373   36.5204 H   0  0  0  0  0  0  0  0  0  0  0  0
   40.6899   27.1176   38.7941 H   0  0  0  0  0  0  0  0  0  0  0  0
   42.3819   26.7389   38.9125 H   0  0  0  0  0  0  0  0  0  0  0  0
  1  2  1  0
  1  6  1  0
  3  2  2  0
  4  5  1  0
  4  3  1  0
  5  1  2  0
  6  7  2  0
  7  8  1  0
  8 12  1  0
  9  8  2  0
 10  9  1  0
 11  6  1  0
 11 10  2  0
 12 13  1  0
 12 15  1  0
 12 14  1  0
 16  4  1  0
 17 16  2  0
 18 17  1  0
 19 18  2  0
 19 20  1  0
 20 16  1  0
 21 19  1  0
 22 21  1  0
 23 22  1  0
 24 23  1  0
 24 25  1  0
 25 21  1  0
  2 26  1  0
  3 27  1  0
  7 28  1  0
 10 29  1  0
 17 30  1  0
 18 31  1  0
 22 32  1  0
 22 33  1  0
 23 34  1  0
 23 35  1  0
 24 36  1  0
 24 37  1  0
 25 38  1  0
 25 39  1  0
M  ISO  8  26  14  27  14  28  14  29  14  30  14  31  14  32  13  33  13
M  ISO  6  34  13  35  13  36  13  37  13  38  13  39  13
M  END
>  <minimizedAffinity>  (1) 
-6.24878502

>  <minimizedRMSD>  (1) 
0.351871759

$$$$
