
     RDKit          3D

 29 31  0  0  0  0  0  0  0  0999 V2000
   38.9210   30.9060   45.7880 C   0  0  0  0  0  0  0  0  0  0  0  0
   40.1090   31.5370   46.0330 C   0  0  0  0  0  0  0  0  0  0  0  0
   40.9410   31.4720   44.9220 C   0  0  0  0  0  0  0  0  0  0  0  0
   40.1900   30.7800   44.0240 N   0  0  0  0  0  0  0  0  0  0  0  0
   39.0210   30.4480   44.5140 N   0  0  0  0  0  0  0  0  0  0  0  0
   37.7860   30.7490   46.6850 C   0  0  0  0  0  0  0  0  0  0  0  0
   37.9960   30.9680   48.0640 C   0  0  0  0  0  0  0  0  0  0  0  0
   36.9110   30.8170   48.9220 C   0  0  0  0  0  0  0  0  0  0  0  0
   35.7030   30.4660   48.3810 N   0  0  0  0  0  0  0  0  0  0  0  0
   35.5320   30.2640   47.0620 C   0  0  0  0  0  0  0  0  0  0  0  0
   36.5730   30.4070   46.2240 N   0  0  0  0  0  0  0  0  0  0  0  0
   37.1230   31.0460   50.3820 C   0  0  0  0  0  0  0  0  0  0  0  0
   36.6050   32.2940   50.6380 F   0  0  0  0  0  0  0  0  0  0  0  0
   36.4540   30.1160   51.1610 F   0  0  0  0  0  0  0  0  0  0  0  0
   38.4670   31.0540   50.7180 F   0  0  0  0  0  0  0  0  0  0  0  0
   40.5600   30.4100   42.6500 C   0  0  0  0  0  0  0  0  0  0  0  0
   40.1980   31.2020   41.5520 C   0  0  0  0  0  0  0  0  0  0  0  0
   40.5580   30.8280   40.3220 C   0  0  0  0  0  0  0  0  0  0  0  0
   41.3100   29.6260   40.1300 C   0  0  0  0  0  0  0  0  0  0  0  0
   41.4780   29.0320   41.9050 S   0  0  0  0  0  0  0  0  0  0  0  0
   41.8470   28.9260   39.1100 N   0  0  0  0  0  0  0  0  0  0  0  0
   40.3707   32.0294   46.9812 H   0  0  0  0  0  0  0  0  0  0  0  0
   41.9554   31.8793   44.7993 H   0  0  0  0  0  0  0  0  0  0  0  0
   38.9874   31.2495   48.4484 H   0  0  0  0  0  0  0  0  0  0  0  0
   34.5432   29.9827   46.6706 H   0  0  0  0  0  0  0  0  0  0  0  0
   39.6208   32.1262   41.7027 H   0  0  0  0  0  0  0  0  0  0  0  0
   40.2763   31.4444   39.4556 H   0  0  0  0  0  0  0  0  0  0  0  0
   42.3582   28.0518   39.2981 H   0  0  0  0  0  0  0  0  0  0  0  0
   41.7460   29.2656   38.1428 H   0  0  0  0  0  0  0  0  0  0  0  0
  1  2  1  0
  1  6  1  0
  3  2  2  0
  4  5  1  0
  4  3  1  0
  5  1  2  0
  6  7  2  0
  7  8  1  0
  8 12  1  0
  9  8  2  0
 10  9  1  0
 11  6  1  0
 11 10  2  0
 12 13  1  0
 12 15  1  0
 12 14  1  0
 16  4  1  0
 17 16  2  0
 18 17  1  0
 19 18  2  0
 19 20  1  0
 20 16  1  0
 21 19  1  0
  2 22  1  0
  3 23  1  0
  7 24  1  0
 10 25  1  0
 17 26  1  0
 18 27  1  0
 21 28  1  0
 21 29  1  0
M  ISO  6  22  14  23  14  24  14  25  14  26  14  27  14
M  END
>  <minimizedAffinity>  (1) 
-6.12857342

>  <minimizedRMSD>  (1) 
0.0265026055

$$$$
