
     RDKit          3D

 29 31  0  0  0  0  0  0  0  0999 V2000
   40.1240   32.0840   46.4450 O   0  0  0  0  0  0  0  0  0  0  0  0
   39.6260   32.4160   44.2010 N   0  0  0  0  0  0  0  0  0  0  0  0
   40.2600   31.6480   45.1210 C   0  0  0  0  0  0  0  0  0  0  0  0
   40.8690   30.6370   44.4770 N   0  0  0  0  0  0  0  0  0  0  0  0
   40.6230   30.7650   43.1610 C   0  0  0  0  0  0  0  0  0  0  0  0
   41.0440   29.9610   42.1280 C   0  0  0  0  0  0  0  0  0  0  0  0
   40.6710   30.2870   40.8770 N   0  0  0  0  0  0  0  0  0  0  0  0
   39.8990   31.3930   40.7090 C   0  0  0  0  0  0  0  0  0  0  0  0
   39.4840   32.1800   41.7110 N   0  0  0  0  0  0  0  0  0  0  0  0
   39.8390   31.8830   42.9700 C   0  0  0  0  0  0  0  0  0  0  0  0
   41.8530   28.8070   42.3340 N   0  0  0  0  0  0  0  0  0  0  0  0
   38.6340   33.2320   48.1920 O   0  0  0  0  0  0  0  0  0  0  0  0
   38.5970   32.1020   47.2000 P   0  0  1  0  0  0  0  0  0  0  0  0
   37.4640   32.4220   45.9850 O   0  0  0  0  0  0  0  0  0  0  0  0
   38.3300   30.5910   47.8920 O   0  0  0  0  0  0  0  0  0  0  0  0
   37.2970   30.1930   51.4300 C   0  0  0  0  0  0  0  0  0  0  0  0
   38.0860   30.6340   50.3660 C   0  0  0  0  0  0  0  0  0  0  0  0
   37.7180   30.2790   49.0660 C   0  0  0  0  0  0  0  0  0  0  0  0
   36.6050   29.5180   48.9060 N   0  0  0  0  0  0  0  0  0  0  0  0
   35.8600   29.1070   49.9580 C   0  0  0  0  0  0  0  0  0  0  0  0
   36.2060   29.4420   51.2050 N   0  0  0  0  0  0  0  0  0  0  0  0
   39.0747   33.2625   44.4021 H   0  0  0  0  0  0  0  0  0  0  0  0
   39.5957   31.6589   39.6856 H   0  0  0  0  0  0  0  0  0  0  0  0
   42.1455   28.2330   41.5304 H   0  0  0  0  0  0  0  0  0  0  0  0
   42.1455   28.5465   43.2866 H   0  0  0  0  0  0  0  0  0  0  0  0
   36.5979   32.6666   46.3975 H   0  0  0  0  0  0  0  0  0  0  0  0
   37.5708   30.4626   52.4607 H   0  0  0  0  0  0  0  0  0  0  0  0
   38.9798   31.2489   50.5477 H   0  0  0  0  0  0  0  0  0  0  0  0
   34.9636   28.4931   49.7860 H   0  0  0  0  0  0  0  0  0  0  0  0
  1 13  1  0
  2  3  1  0
  3  1  1  0
  4  3  2  0
  5  4  1  0
  6 11  1  0
  6  5  2  0
  7  6  1  0
  8  7  2  0
  8  9  1  0
  9 10  2  0
 10  5  1  0
 10  2  1  0
 13 15  1  0
 13 12  2  0
 14 13  1  0
 15 18  1  0
 17 16  2  0
 18 17  1  0
 19 18  2  0
 19 20  1  0
 20 21  2  0
 21 16  1  0
  2 22  1  0
  8 23  1  0
 11 24  1  0
 11 25  1  0
 14 26  1  0
 16 27  1  0
 17 28  1  0
 20 29  1  0
M  ISO  6  22   9  23  14  26   3  27  14  28  14  29  14
M  END
>  <minimizedAffinity>  (1) 
-6.14314604

>  <minimizedRMSD>  (1) 
2.01419878

$$$$
