
     RDKit          3D

 27 29  0  0  0  0  0  0  0  0999 V2000
   39.0410   32.8980   48.1770 O   0  0  0  0  0  0  0  0  0  0  0  0
   38.7260   31.8500   47.1520 P   0  0  2  0  0  0  0  0  0  0  0  0
   37.6940   32.5100   45.9630 O   0  0  0  0  0  0  0  0  0  0  0  0
   38.1060   30.4210   47.7740 O   0  0  0  0  0  0  0  0  0  0  0  0
   37.3360   30.2380   51.3900 C   0  0  0  0  0  0  0  0  0  0  0  0
   38.0590   30.5970   50.2470 C   0  0  0  0  0  0  0  0  0  0  0  0
   37.5780   30.1920   49.0110 C   0  0  0  0  0  0  0  0  0  0  0  0
   36.4190   29.4590   48.9660 N   0  0  0  0  0  0  0  0  0  0  0  0
   35.7560   29.1370   50.0990 C   0  0  0  0  0  0  0  0  0  0  0  0
   36.2130   29.5240   51.3010 N   0  0  0  0  0  0  0  0  0  0  0  0
   40.1780   31.4980   46.3390 O   0  0  0  0  0  0  0  0  0  0  0  0
   39.9710   29.8890   44.4710 N   0  0  0  0  0  0  0  0  0  0  0  0
   40.1050   31.1350   44.9910 C   0  0  0  0  0  0  0  0  0  0  0  0
   40.1530   31.9290   43.9020 N   0  0  0  0  0  0  0  0  0  0  0  0
   40.0540   31.2340   42.7740 C   0  0  0  0  0  0  0  0  0  0  0  0
   40.0410   31.4770   41.4130 C   0  0  0  0  0  0  0  0  0  0  0  0
   39.9210   30.4920   40.5130 N   0  0  0  0  0  0  0  0  0  0  0  0
   39.8080   29.2070   40.9400 C   0  0  0  0  0  0  0  0  0  0  0  0
   39.8160   28.9170   42.2550 N   0  0  0  0  0  0  0  0  0  0  0  0
   39.9370   29.9170   43.1410 C   0  0  0  0  0  0  0  0  0  0  0  0
   36.9468   32.9878   46.4029 H   0  0  0  0  0  0  0  0  0  0  0  0
   37.7004   30.5503   52.3798 H   0  0  0  0  0  0  0  0  0  0  0  0
   38.9850   31.1853   50.3268 H   0  0  0  0  0  0  0  0  0  0  0  0
   34.8284   28.5492   50.0355 H   0  0  0  0  0  0  0  0  0  0  0  0
   39.9040   29.0296   45.0347 H   0  0  0  0  0  0  0  0  0  0  0  0
   40.1322   32.5139   41.0573 H   0  0  0  0  0  0  0  0  0  0  0  0
   39.7090   28.3954   40.2041 H   0  0  0  0  0  0  0  0  0  0  0  0
  2  4  1  0
  2  1  2  0
  3  2  1  0
  4  7  1  0
  6  5  2  0
  7  6  1  0
  8  7  2  0
  8  9  1  0
  9 10  2  0
 10  5  1  0
 11  2  1  0
 12 13  1  0
 13 11  1  0
 14 13  2  0
 15 20  2  0
 15 14  1  0
 16 15  1  0
 17 18  1  0
 17 16  2  0
 18 19  2  0
 19 20  1  0
 20 12  1  0
  3 21  1  0
  5 22  1  0
  6 23  1  0
  9 24  1  0
 12 25  1  0
 16 26  1  0
 18 27  1  0
M  ISO  7  21   3  22  14  23  14  24  14  25   9  26  14  27  14
M  END
>  <minimizedAffinity>  (1) 
-5.81491709

>  <minimizedRMSD>  (1) 
1.78774226

$$$$
