
     RDKit          3D

 25 26  0  0  0  0  0  0  0  0999 V2000
   39.0230   32.7520   48.1090 O   0  0  0  0  0  0  0  0  0  0  0  0
   38.6360   31.7060   47.1020 P   0  0  2  0  0  0  0  0  0  0  0  0
   37.5870   32.4160   45.9600 O   0  0  0  0  0  0  0  0  0  0  0  0
   37.9690   30.3160   47.7670 O   0  0  0  0  0  0  0  0  0  0  0  0
   37.3190   30.2000   51.4030 C   0  0  0  0  0  0  0  0  0  0  0  0
   38.0190   30.5200   50.2360 C   0  0  0  0  0  0  0  0  0  0  0  0
   37.4790   30.1220   49.0110 C   0  0  0  0  0  0  0  0  0  0  0  0
   36.2950   29.4410   49.0200 N   0  0  0  0  0  0  0  0  0  0  0  0
   35.6540   29.1530   50.1770 C   0  0  0  0  0  0  0  0  0  0  0  0
   36.1580   29.5290   51.3610 N   0  0  0  0  0  0  0  0  0  0  0  0
   40.0600   31.2970   46.2660 O   0  0  0  0  0  0  0  0  0  0  0  0
   39.9510   30.8880   44.9440 C   0  0  0  0  0  0  0  0  0  0  0  0
   40.5700   31.4060   43.8430 C   0  0  0  0  0  0  0  0  0  0  0  0
   40.3550   30.8810   42.5840 C   0  0  0  0  0  0  0  0  0  0  0  0
   39.4820   29.8110   42.5100 C   0  0  0  0  0  0  0  0  0  0  0  0
   38.8510   29.2810   43.6150 C   0  0  0  0  0  0  0  0  0  0  0  0
   39.0940   29.8300   44.8300 N   0  0  0  0  0  0  0  0  0  0  0  0
   36.8664   32.9037   46.4323 H   0  0  0  0  0  0  0  0  0  0  0  0
   37.7291   30.5050   52.3770 H   0  0  0  0  0  0  0  0  0  0  0  0
   38.9701   31.0708   50.2813 H   0  0  0  0  0  0  0  0  0  0  0  0
   34.7031   28.6009   50.1451 H   0  0  0  0  0  0  0  0  0  0  0  0
   41.2542   32.2592   43.9612 H   0  0  0  0  0  0  0  0  0  0  0  0
   40.8499   31.2905   41.6910 H   0  0  0  0  0  0  0  0  0  0  0  0
   39.2822   29.3629   41.5255 H   0  0  0  0  0  0  0  0  0  0  0  0
   38.1633   28.4286   43.5126 H   0  0  0  0  0  0  0  0  0  0  0  0
  2  4  1  0
  2  1  2  0
  3  2  1  0
  4  7  1  0
  6  5  2  0
  7  8  2  0
  7  6  1  0
  8  9  1  0
  9 10  2  0
 10  5  1  0
 11  2  1  0
 12 11  1  0
 13 12  2  0
 14 13  1  0
 15 14  2  0
 15 16  1  0
 16 17  2  0
 17 12  1  0
  3 18  1  0
  5 19  1  0
  6 20  1  0
  9 21  1  0
 13 22  1  0
 14 23  1  0
 15 24  1  0
 16 25  1  0
M  ISO  8  18   3  19  14  20  14  21  14  22  14  23  14  24  14  25  14
M  END
>  <minimizedAffinity>  (1) 
-5.30349922

>  <minimizedRMSD>  (1) 
1.12909186

$$$$
