
     RDKit          3D

 18 18  0  0  0  0  0  0  0  0999 V2000
   37.3730   30.2460   51.2710 C   0  0  0  0  0  0  0  0  0  0  0  0
   38.0520   30.5910   50.1040 C   0  0  0  0  0  0  0  0  0  0  0  0
   37.5160   30.1780   48.8840 C   0  0  0  0  0  0  0  0  0  0  0  0
   36.3590   29.4650   48.9100 N   0  0  0  0  0  0  0  0  0  0  0  0
   35.7310   29.1490   50.0500 C   0  0  0  0  0  0  0  0  0  0  0  0
   36.2340   29.5380   51.2190 N   0  0  0  0  0  0  0  0  0  0  0  0
   37.9960   30.3940   47.6310 O   0  0  0  0  0  0  0  0  0  0  0  0
   39.0840   32.8080   48.0310 O   0  0  0  0  0  0  0  0  0  0  0  0
   38.7400   31.7650   47.0070 P   0  0  2  0  0  0  0  0  0  0  0  0
   37.7760   32.4840   45.7970 O   0  0  0  0  0  0  0  0  0  0  0  0
   40.1950   31.3120   46.2490 O   0  0  0  0  0  0  0  0  0  0  0  0
   40.6070   31.8900   45.0390 C   0  0  0  0  0  0  0  0  0  0  0  0
   40.7890   31.0480   44.0990 O   0  0  0  0  0  0  0  0  0  0  0  0
   37.7753   30.5576   52.2462 H   0  0  0  0  0  0  0  0  0  0  0  0
   38.9847   31.1728   50.1437 H   0  0  0  0  0  0  0  0  0  0  0  0
   34.7980   28.5670   50.0199 H   0  0  0  0  0  0  0  0  0  0  0  0
   37.0589   33.0189   46.2209 H   0  0  0  0  0  0  0  0  0  0  0  0
   40.7593   32.9720   44.9126 H   0  0  0  0  0  0  0  0  0  0  0  0
  2  1  2  0
  3  4  2  0
  3  2  1  0
  4  5  1  0
  5  6  2  0
  6  1  1  0
  7  3  1  0
  9  7  1  0
  9  8  2  0
 10  9  1  0
 11  9  1  0
 12 11  1  0
 13 12  2  0
  1 14  1  0
  2 15  1  0
  5 16  1  0
 10 17  1  0
 12 18  1  0
M  ISO  5  14  14  15  14  16  14  17   3  18   6
M  END
>  <minimizedAffinity>  (1) 
-4.62107325

>  <minimizedRMSD>  (1) 
1.15021968

$$$$
