
     RDKit          3D

 20 20  0  0  0  0  0  0  0  0999 V2000
   38.3530   31.5710   47.9140 O   0  0  0  0  0  0  0  0  0  0  0  0
   37.4860   30.2720   51.2740 C   0  0  0  0  0  0  0  0  0  0  0  0
   38.1190   31.1120   50.3540 C   0  0  0  0  0  0  0  0  0  0  0  0
   37.8670   30.9000   48.9990 C   0  0  0  0  0  0  0  0  0  0  0  0
   37.0190   29.8850   48.6520 N   0  0  0  0  0  0  0  0  0  0  0  0
   36.4320   29.1000   49.5770 C   0  0  0  0  0  0  0  0  0  0  0  0
   36.6710   29.3010   50.8710 N   0  0  0  0  0  0  0  0  0  0  0  0
   38.0620   32.6600   45.4850 O   0  0  0  0  0  0  0  0  0  0  0  0
   37.9160   31.4040   46.2950 P   0  0  2  0  0  0  0  0  0  0  0  0
   36.3390   30.8170   46.1520 O   0  0  0  0  0  0  0  0  0  0  0  0
   38.9190   30.2390   45.5760 O   0  0  0  0  0  0  0  0  0  0  0  0
   40.1400   30.5260   44.9720 C   0  0  0  0  0  0  0  0  0  0  0  0
   40.9640   31.1680   45.6770 O   0  0  0  0  0  0  0  0  0  0  0  0
   40.3250   30.0720   43.6350 N   0  0  0  0  0  0  0  0  0  0  0  0
   37.6647   30.4162   52.3498 H   0  0  0  0  0  0  0  0  0  0  0  0
   38.7938   31.9140   50.6877 H   0  0  0  0  0  0  0  0  0  0  0  0
   35.7547   28.2924   49.2623 H   0  0  0  0  0  0  0  0  0  0  0  0
   35.9568   30.6747   47.0541 H   0  0  0  0  0  0  0  0  0  0  0  0
   41.2115   30.2599   43.1453 H   0  0  0  0  0  0  0  0  0  0  0  0
   39.5724   29.5557   43.1576 H   0  0  0  0  0  0  0  0  0  0  0  0
  1  4  1  0
  3  2  2  0
  4  3  1  0
  5  4  2  0
  5  6  1  0
  6  7  2  0
  7  2  1  0
  9  8  2  0
  9  1  1  0
 10  9  1  0
 11  9  1  0
 12 11  1  0
 12 13  2  0
 14 12  1  0
  2 15  1  0
  3 16  1  0
  6 17  1  0
 10 18  1  0
 14 19  1  0
 14 20  1  0
M  ISO  4  15  14  16  14  17  14  18   3
M  END
>  <minimizedAffinity>  (1) 
-4.3660593

>  <minimizedRMSD>  (1) 
1.85975468

$$$$
