
     RDKit          3D

 28 29  0  0  0  0  0  0  0  0999 V2000
   39.4500   32.4720   47.1010 O   0  0  0  0  0  0  0  0  0  0  0  0
   38.3070   31.8160   46.4010 P   0  0  2  0  0  0  0  0  0  0  0  0
   37.7200   32.8530   45.1680 O   0  0  0  0  0  0  0  0  0  0  0  0
   37.0300   31.3980   47.4240 O   0  0  0  0  0  0  0  0  0  0  0  0
   37.6190   30.5380   50.9720 C   0  0  0  0  0  0  0  0  0  0  0  0
   37.7020   31.2910   49.7970 C   0  0  0  0  0  0  0  0  0  0  0  0
   37.0730   30.8320   48.6480 C   0  0  0  0  0  0  0  0  0  0  0  0
   36.3930   29.6410   48.7310 N   0  0  0  0  0  0  0  0  0  0  0  0
   36.3300   28.9380   49.8710 C   0  0  0  0  0  0  0  0  0  0  0  0
   36.9420   29.3860   50.9910 N   0  0  0  0  0  0  0  0  0  0  0  0
   38.8630   30.4490   45.5960 O   0  0  0  0  0  0  0  0  0  0  0  0
   36.6320   29.4570   44.0150 Cl  0  0  0  0  0  0  0  0  0  0  0  0
   38.2790   29.8480   43.4700 C   0  0  0  0  0  0  0  0  0  0  0  0
   39.2850   30.3210   44.3120 C   0  0  0  0  0  0  0  0  0  0  0  0
   40.5120   30.5780   43.7380 C   0  0  0  0  0  0  0  0  0  0  0  0
   40.7240   30.3740   42.3960 C   0  0  0  0  0  0  0  0  0  0  0  0
   39.7420   29.9080   41.5580 C   0  0  0  0  0  0  0  0  0  0  0  0
   38.5200   29.6480   42.1060 C   0  0  0  0  0  0  0  0  0  0  0  0
   37.4970   29.1630   41.2380 N   0  0  0  0  0  0  0  0  0  0  0  0
   37.2764   33.6367   45.5793 H   0  0  0  0  0  0  0  0  0  0  0  0
   38.1141   30.8961   51.8867 H   0  0  0  0  0  0  0  0  0  0  0  0
   38.2606   32.2385   49.7832 H   0  0  0  0  0  0  0  0  0  0  0  0
   35.7756   27.9883   49.8957 H   0  0  0  0  0  0  0  0  0  0  0  0
   41.3347   30.9525   44.3648 H   0  0  0  0  0  0  0  0  0  0  0  0
   41.7176   30.5922   41.9776 H   0  0  0  0  0  0  0  0  0  0  0  0
   39.9328   29.7503   40.4862 H   0  0  0  0  0  0  0  0  0  0  0  0
   36.5603   28.9544   41.6121 H   0  0  0  0  0  0  0  0  0  0  0  0
   37.6951   29.0214   40.2372 H   0  0  0  0  0  0  0  0  0  0  0  0
  2  1  2  0
  2  4  1  0
  3  2  1  0
  4  7  1  0
  5 10  2  0
  6  5  1  0
  7  8  1  0
  7  6  2  0
  8  9  2  0
  9 10  1  0
 11  2  1  0
 13 12  1  0
 13 14  2  0
 14 11  1  0
 15 14  1  0
 16 15  2  0
 17 18  2  0
 17 16  1  0
 18 13  1  0
 19 18  1  0
  3 20  1  0
  5 21  1  0
  6 22  1  0
  9 23  1  0
 15 24  1  0
 16 25  1  0
 17 26  1  0
 19 27  1  0
 19 28  1  0
M  ISO  7  20   3  21  14  22  14  23  14  24  14  25  14  26  14
M  END
>  <minimizedAffinity>  (1) 
-4.88637924

>  <minimizedRMSD>  (1) 
0.0187692903

$$$$
