
     RDKit          3D

 27 28  0  0  0  0  0  0  0  0999 V2000
   39.4400   32.4750   47.0830 O   0  0  0  0  0  0  0  0  0  0  0  0
   38.3050   31.8230   46.3950 P   0  0  2  0  0  0  0  0  0  0  0  0
   37.7170   32.8540   45.1660 O   0  0  0  0  0  0  0  0  0  0  0  0
   37.0290   31.3860   47.4330 O   0  0  0  0  0  0  0  0  0  0  0  0
   37.6150   30.5360   50.9700 C   0  0  0  0  0  0  0  0  0  0  0  0
   37.7020   31.2910   49.7950 C   0  0  0  0  0  0  0  0  0  0  0  0
   37.0710   30.8250   48.6540 C   0  0  0  0  0  0  0  0  0  0  0  0
   36.3920   29.6470   48.7260 N   0  0  0  0  0  0  0  0  0  0  0  0
   36.3270   28.9420   49.8730 C   0  0  0  0  0  0  0  0  0  0  0  0
   36.9420   29.3920   50.9950 N   0  0  0  0  0  0  0  0  0  0  0  0
   38.8640   30.4500   45.6000 O   0  0  0  0  0  0  0  0  0  0  0  0
   36.6220   29.4520   44.0190 Cl  0  0  0  0  0  0  0  0  0  0  0  0
   38.2650   29.8350   43.4660 C   0  0  0  0  0  0  0  0  0  0  0  0
   39.2740   30.3120   44.3130 C   0  0  0  0  0  0  0  0  0  0  0  0
   40.5030   30.5670   43.7470 C   0  0  0  0  0  0  0  0  0  0  0  0
   40.7270   30.3590   42.3950 C   0  0  0  0  0  0  0  0  0  0  0  0
   39.7430   29.8950   41.5700 C   0  0  0  0  0  0  0  0  0  0  0  0
   38.5170   29.6350   42.1070 C   0  0  0  0  0  0  0  0  0  0  0  0
   37.5150   29.1590   41.2600 O   0  0  0  0  0  0  0  0  0  0  0  0
   37.2708   33.6364   45.5770 H   0  0  0  0  0  0  0  0  0  0  0  0
   38.1104   30.8949   51.8842 H   0  0  0  0  0  0  0  0  0  0  0  0
   38.2617   32.2378   49.7781 H   0  0  0  0  0  0  0  0  0  0  0  0
   35.7704   27.9936   49.8993 H   0  0  0  0  0  0  0  0  0  0  0  0
   41.3215   30.9424   44.3788 H   0  0  0  0  0  0  0  0  0  0  0  0
   41.7216   30.5729   41.9766 H   0  0  0  0  0  0  0  0  0  0  0  0
   39.9346   29.7349   40.4987 H   0  0  0  0  0  0  0  0  0  0  0  0
   36.6145   28.9611   41.6208 H   0  0  0  0  0  0  0  0  0  0  0  0
  2  1  2  0
  2  4  1  0
  3  2  1  0
  4  7  1  0
  5 10  2  0
  6  5  1  0
  7  8  1  0
  7  6  2  0
  8  9  2  0
  9 10  1  0
 11  2  1  0
 13 12  1  0
 13 14  2  0
 14 11  1  0
 15 14  1  0
 16 15  2  0
 17 18  2  0
 17 16  1  0
 18 13  1  0
 19 18  1  0
  3 20  1  0
  5 21  1  0
  6 22  1  0
  9 23  1  0
 15 24  1  0
 16 25  1  0
 17 26  1  0
 19 27  1  0
M  ISO  8  20   3  21  14  22  14  23  14  24  14  25  14  26  14  27   3
M  END
>  <minimizedAffinity>  (1) 
-4.88268137

>  <minimizedRMSD>  (1) 
0.0109302597

$$$$
