
     RDKit          3D

 32 33  0  0  0  0  0  0  0  0999 V2000
   39.4350   32.4860   47.1110 O   0  0  0  0  0  0  0  0  0  0  0  0
   38.2970   31.8260   46.4080 P   0  0  2  0  0  0  0  0  0  0  0  0
   37.7270   32.8590   45.1800 O   0  0  0  0  0  0  0  0  0  0  0  0
   37.0280   31.3790   47.4210 O   0  0  0  0  0  0  0  0  0  0  0  0
   37.6000   30.5290   50.9790 C   0  0  0  0  0  0  0  0  0  0  0  0
   37.6940   31.2910   49.7970 C   0  0  0  0  0  0  0  0  0  0  0  0
   37.0700   30.8220   48.6510 C   0  0  0  0  0  0  0  0  0  0  0  0
   36.3980   29.6450   48.7430 N   0  0  0  0  0  0  0  0  0  0  0  0
   36.3200   28.9320   49.8830 C   0  0  0  0  0  0  0  0  0  0  0  0
   36.9250   29.3850   50.9940 N   0  0  0  0  0  0  0  0  0  0  0  0
   38.8810   30.4610   45.6080 O   0  0  0  0  0  0  0  0  0  0  0  0
   36.6440   29.4760   44.0120 Cl  0  0  0  0  0  0  0  0  0  0  0  0
   38.2940   29.8680   43.4720 C   0  0  0  0  0  0  0  0  0  0  0  0
   39.3070   30.3430   44.3160 C   0  0  0  0  0  0  0  0  0  0  0  0
   40.5340   30.6130   43.7500 C   0  0  0  0  0  0  0  0  0  0  0  0
   40.7380   30.4170   42.4050 C   0  0  0  0  0  0  0  0  0  0  0  0
   39.7800   29.9590   41.5690 C   0  0  0  0  0  0  0  0  0  0  0  0
   38.5570   29.6840   42.1030 C   0  0  0  0  0  0  0  0  0  0  0  0
   37.4720   29.1730   41.1970 C   0  0  0  0  0  0  0  0  0  0  0  0
   38.0870   28.1030   40.2950 C   0  0  0  0  0  0  0  0  0  0  0  0
   37.2914   33.6485   45.5887 H   0  0  0  0  0  0  0  0  0  0  0  0
   38.0900   30.8848   51.8973 H   0  0  0  0  0  0  0  0  0  0  0  0
   38.2515   32.2392   49.7839 H   0  0  0  0  0  0  0  0  0  0  0  0
   35.7636   27.9833   49.9045 H   0  0  0  0  0  0  0  0  0  0  0  0
   41.3553   30.9877   44.3785 H   0  0  0  0  0  0  0  0  0  0  0  0
   41.7303   30.6442   41.9883 H   0  0  0  0  0  0  0  0  0  0  0  0
   39.9802   29.8136   40.4972 H   0  0  0  0  0  0  0  0  0  0  0  0
   36.6586   28.7366   41.7953 H   0  0  0  0  0  0  0  0  0  0  0  0
   37.0551   29.9930   40.5938 H   0  0  0  0  0  0  0  0  0  0  0  0
   38.5395   27.3158   40.9159 H   0  0  0  0  0  0  0  0  0  0  0  0
   37.3034   27.6641   39.6600 H   0  0  0  0  0  0  0  0  0  0  0  0
   38.8607   28.5592   39.6600 H   0  0  0  0  0  0  0  0  0  0  0  0
  2  1  2  0
  2  4  1  0
  3  2  1  0
  4  7  1  0
  5 10  2  0
  6  5  1  0
  7  8  1  0
  7  6  2  0
  8  9  2  0
  9 10  1  0
 11  2  1  0
 13 12  1  0
 13 14  2  0
 14 11  1  0
 15 14  1  0
 16 15  2  0
 17 18  2  0
 17 16  1  0
 18 13  1  0
 19 18  1  0
 20 19  1  0
  3 21  1  0
  5 22  1  0
  6 23  1  0
  9 24  1  0
 15 25  1  0
 16 26  1  0
 17 27  1  0
 19 28  1  0
 19 29  1  0
 20 30  1  0
 20 31  1  0
 20 32  1  0
M  ISO  8  21   3  22  14  23  14  24  14  25  14  26  14  27  14  28   8
M  ISO  4  29   8  30   8  31   8  32   8
M  END
>  <minimizedAffinity>  (1) 
-4.74316883

>  <minimizedRMSD>  (1) 
0.045495633

$$$$
