
     RDKit          3D

 34 35  0  0  0  0  0  0  0  0999 V2000
   36.6930   29.4270   44.0560 Cl  0  0  0  0  0  0  0  0  0  0  0  0
   38.3250   29.8200   43.5220 C   0  0  0  0  0  0  0  0  0  0  0  0
   39.3060   30.3240   44.3500 C   0  0  0  0  0  0  0  0  0  0  0  0
   40.5640   30.5980   43.8180 C   0  0  0  0  0  0  0  0  0  0  0  0
   40.8140   30.3660   42.4880 C   0  0  0  0  0  0  0  0  0  0  0  0
   39.8680   29.8720   41.6560 C   0  0  0  0  0  0  0  0  0  0  0  0
   38.6400   29.6040   42.1720 C   0  0  0  0  0  0  0  0  0  0  0  0
   37.6230   29.0900   41.3220 N   0  0  0  0  0  0  0  0  0  0  0  0
   37.1670   27.5170   40.8850 S   0  0  0  0  0  0  0  0  0  0  0  0
   37.2770   27.3960   39.3690 O   0  0  0  0  0  0  0  0  0  0  0  0
   35.7860   27.2000   41.3230 O   0  0  0  0  0  0  0  0  0  0  0  0
   38.2530   26.3620   41.5000 O   0  0  0  0  0  0  0  0  0  0  0  0
   38.8770   30.4910   45.6440 O   0  0  0  0  0  0  0  0  0  0  0  0
   39.4270   32.5250   47.1170 O   0  0  0  0  0  0  0  0  0  0  0  0
   38.3050   31.8550   46.4190 P   0  0  1  0  0  0  0  0  0  0  0  0
   37.7080   32.8510   45.1620 O   0  0  0  0  0  0  0  0  0  0  0  0
   37.0300   31.4190   47.4530 O   0  0  0  0  0  0  0  0  0  0  0  0
   37.6120   30.5300   50.9830 C   0  0  0  0  0  0  0  0  0  0  0  0
   37.7060   31.3080   49.8230 C   0  0  0  0  0  0  0  0  0  0  0  0
   37.0700   30.8420   48.6670 C   0  0  0  0  0  0  0  0  0  0  0  0
   36.3930   29.6590   48.7310 N   0  0  0  0  0  0  0  0  0  0  0  0
   36.3260   28.9380   49.8700 C   0  0  0  0  0  0  0  0  0  0  0  0
   36.9380   29.3800   50.9920 N   0  0  0  0  0  0  0  0  0  0  0  0
   41.3579   31.0007   44.4642 H   0  0  0  0  0  0  0  0  0  0  0  0
   41.8137   30.5885   42.0866 H   0  0  0  0  0  0  0  0  0  0  0  0
   40.0868   29.6927   40.5930 H   0  0  0  0  0  0  0  0  0  0  0  0
   37.0464   29.8217   40.8827 H   0  0  0  0  0  0  0  0  0  0  0  0
   37.9250   26.6831   39.1410 H   0  0  0  0  0  0  0  0  0  0  0  0
   35.7474   27.1911   42.3122 H   0  0  0  0  0  0  0  0  0  0  0  0
   38.2325   26.3838   42.4895 H   0  0  0  0  0  0  0  0  0  0  0  0
   37.2404   33.6311   45.5530 H   0  0  0  0  0  0  0  0  0  0  0  0
   38.1038   30.8743   51.9048 H   0  0  0  0  0  0  0  0  0  0  0  0
   38.2628   32.2567   49.8203 H   0  0  0  0  0  0  0  0  0  0  0  0
   35.7719   27.9879   49.8857 H   0  0  0  0  0  0  0  0  0  0  0  0
  2  1  1  0
  2  3  2  0
  3 13  1  0
  4  3  1  0
  5  4  2  0
  6  7  2  0
  6  5  1  0
  7  2  1  0
  8  7  1  0
  9  8  1  0
  9 11  1  0
  9 12  1  0
 10  9  1  0
 13 15  1  0
 15 14  2  0
 15 17  1  0
 16 15  1  0
 17 20  1  0
 18 23  2  0
 19 18  1  0
 20 21  1  0
 20 19  2  0
 21 22  2  0
 22 23  1  0
  4 24  1  0
  5 25  1  0
  6 26  1  0
  8 27  1  0
 10 28  1  0
 11 29  1  0
 12 30  1  0
 16 31  1  0
 18 32  1  0
 19 33  1  0
 22 34  1  0
M  ISO  8  24  14  25  14  26  14  28   3  29   3  30   3  31   3  32  14
M  ISO  2  33  14  34  14
M  END
>  <minimizedAffinity>  (1) 
-4.62500477

>  <minimizedRMSD>  (1) 
1.26391554

$$$$
