
     RDKit          3D

 24 25  0  0  0  0  0  0  0  0999 V2000
   38.8180   32.5970   48.4100 Cl  0  0  0  0  0  0  0  0  0  0  0  0
   38.0990   31.9510   46.9580 C   0  0  0  0  0  0  0  0  0  0  0  0
   37.1380   30.9960   47.1950 C   0  0  0  0  0  0  0  0  0  0  0  0
   36.4990   30.4140   46.0840 C   0  0  0  0  0  0  0  0  0  0  0  0
   36.8110   30.7720   44.8140 C   0  0  0  0  0  0  0  0  0  0  0  0
   37.7760   31.7310   44.6010 C   0  0  0  0  0  0  0  0  0  0  0  0
   38.1980   32.2120   42.9800 Cl  0  0  0  0  0  0  0  0  0  0  0  0
   38.4020   32.3010   45.6660 C   0  0  0  0  0  0  0  0  0  0  0  0
   37.5770   29.8370   49.3220 C   0  0  0  0  0  0  0  0  0  0  0  0
   36.6450   30.4610   48.4690 C   0  0  0  0  0  0  0  0  0  0  0  0
   35.3180   30.5330   48.8850 C   0  0  0  0  0  0  0  0  0  0  0  0
   34.9840   30.0000   50.0870 N   0  0  0  0  0  0  0  0  0  0  0  0
   35.9150   29.4030   50.8860 C   0  0  0  0  0  0  0  0  0  0  0  0
   37.2030   29.3260   50.4980 N   0  0  0  0  0  0  0  0  0  0  0  0
   40.7330   32.7650   45.3780 C   0  0  0  0  0  0  0  0  0  0  0  0
   40.9880   31.5300   45.3390 O   0  0  0  0  0  0  0  0  0  0  0  0
   39.4110   33.2970   45.5470 N   0  0  0  0  0  0  0  0  0  0  0  0
   35.7264   29.6489   46.2504 H   0  0  0  0  0  0  0  0  0  0  0  0
   36.2984   30.3011   43.9623 H   0  0  0  0  0  0  0  0  0  0  0  0
   38.6308   29.7696   49.0140 H   0  0  0  0  0  0  0  0  0  0  0  0
   34.5564   31.0121   48.2522 H   0  0  0  0  0  0  0  0  0  0  0  0
   35.6114   28.9809   51.8554 H   0  0  0  0  0  0  0  0  0  0  0  0
   41.5694   33.4723   45.2770 H   0  0  0  0  0  0  0  0  0  0  0  0
   39.2110   34.3069   45.5792 H   0  0  0  0  0  0  0  0  0  0  0  0
  2  3  2  0
  2  1  1  0
  3 10  1  0
  4  3  1  0
  5  4  2  0
  6  5  1  0
  6  8  2  0
  7  6  1  0
  8  2  1  0
  9 14  2  0
 10 11  2  0
 10  9  1  0
 11 12  1  0
 12 13  2  0
 14 13  1  0
 15 17  1  0
 16 15  2  0
 17  8  1  0
  4 18  1  0
  5 19  1  0
  9 20  1  0
 11 21  1  0
 13 22  1  0
 15 23  1  0
 17 24  1  0
M  ISO  6  18  14  19  14  20  14  21  14  22  14  23   6
M  END
>  <minimizedAffinity>  (1) 
-5.58375549

>  <minimizedRMSD>  (1) 
1.81933737

$$$$
