
     RDKit          3D

 23 24  0  0  0  0  0  0  0  0999 V2000
   38.3030   33.3480   49.6790 Cl  0  0  0  0  0  0  0  0  0  0  0  0
   38.6740   32.4580   48.2300 C   0  0  0  0  0  0  0  0  0  0  0  0
   38.0460   31.2450   48.1390 C   0  0  0  0  0  0  0  0  0  0  0  0
   38.2870   30.4600   47.0010 C   0  0  0  0  0  0  0  0  0  0  0  0
   39.1150   30.8690   46.0050 C   0  0  0  0  0  0  0  0  0  0  0  0
   39.7340   32.0880   46.1150 C   0  0  0  0  0  0  0  0  0  0  0  0
   40.8050   32.6460   44.8550 Cl  0  0  0  0  0  0  0  0  0  0  0  0
   39.5120   32.8580   47.2080 C   0  0  0  0  0  0  0  0  0  0  0  0
   37.6610   29.9160   50.1780 C   0  0  0  0  0  0  0  0  0  0  0  0
   37.1170   30.6020   49.0820 C   0  0  0  0  0  0  0  0  0  0  0  0
   35.7190   30.6400   48.9400 C   0  0  0  0  0  0  0  0  0  0  0  0
   34.9700   30.0060   49.8800 N   0  0  0  0  0  0  0  0  0  0  0  0
   35.5330   29.3480   50.9340 C   0  0  0  0  0  0  0  0  0  0  0  0
   36.8850   29.3080   51.0780 N   0  0  0  0  0  0  0  0  0  0  0  0
   40.1440   34.1970   47.4110 C   0  0  0  0  0  0  0  0  0  0  0  0
   37.7897   29.4828   46.9128 H   0  0  0  0  0  0  0  0  0  0  0  0
   39.2864   30.2327   45.1242 H   0  0  0  0  0  0  0  0  0  0  0  0
   38.7537   29.8782   50.2987 H   0  0  0  0  0  0  0  0  0  0  0  0
   35.2473   31.1652   48.0964 H   0  0  0  0  0  0  0  0  0  0  0  0
   34.8896   28.8466   51.6721 H   0  0  0  0  0  0  0  0  0  0  0  0
   40.2389   34.3981   48.4883 H   0  0  0  0  0  0  0  0  0  0  0  0
   41.1413   34.2058   46.9471 H   0  0  0  0  0  0  0  0  0  0  0  0
   39.5169   34.9726   46.9471 H   0  0  0  0  0  0  0  0  0  0  0  0
  2  1  1  0
  3  2  2  0
  3 10  1  0
  4  3  1  0
  5  6  1  0
  5  4  2  0
  6  8  2  0
  7  6  1  0
  8 15  1  0
  8  2  1  0
  9 14  2  0
 10  9  1  0
 11 10  2  0
 11 12  1  0
 12 13  2  0
 13 14  1  0
  4 16  1  0
  5 17  1  0
  9 18  1  0
 11 19  1  0
 13 20  1  0
 15 21  1  0
 15 22  1  0
 15 23  1  0
M  ISO  8  16  14  17  14  18  14  19  14  20  14  21   8  22   8  23   8
M  END
>  <minimizedAffinity>  (1) 
-5.53997946

>  <minimizedRMSD>  (1) 
0.134456605

$$$$
