
     RDKit          3D

 35 37  0  0  0  0  0  0  0  0999 V2000
   39.0810   31.1620   47.1840 Cl  0  0  0  0  0  0  0  0  0  0  0  0
   37.5130   30.7280   46.5390 C   0  0  0  0  0  0  0  0  0  0  0  0
   36.6200   30.3120   47.4950 C   0  0  0  0  0  0  0  0  0  0  0  0
   35.3330   29.9410   47.0770 C   0  0  0  0  0  0  0  0  0  0  0  0
   34.9670   29.9860   45.7680 C   0  0  0  0  0  0  0  0  0  0  0  0
   35.8690   30.4040   44.8240 C   0  0  0  0  0  0  0  0  0  0  0  0
   35.4410   30.4760   43.1420 Cl  0  0  0  0  0  0  0  0  0  0  0  0
   37.1160   30.7660   45.2120 C   0  0  0  0  0  0  0  0  0  0  0  0
   37.8360   30.8990   49.5520 C   0  0  0  0  0  0  0  0  0  0  0  0
   36.7940   30.1850   48.9410 C   0  0  0  0  0  0  0  0  0  0  0  0
   35.9720   29.3840   49.7550 C   0  0  0  0  0  0  0  0  0  0  0  0
   36.2380   29.3500   51.0910 N   0  0  0  0  0  0  0  0  0  0  0  0
   37.2550   30.0550   51.6420 C   0  0  0  0  0  0  0  0  0  0  0  0
   38.0510   30.8280   50.8710 N   0  0  0  0  0  0  0  0  0  0  0  0
   38.1470   31.2200   44.3170 N   0  0  0  0  0  0  0  0  0  0  0  0
   39.0430   30.2470   43.7260 C   0  0  0  0  0  0  0  0  0  0  0  0
   39.1310   30.4880   42.2400 C   0  0  0  0  0  0  0  0  0  0  0  0
   39.5510   31.9270   42.0380 C   0  0  0  0  0  0  0  0  0  0  0  0
   38.3860   32.7840   42.5110 C   0  0  0  0  0  0  0  0  0  0  0  0
   38.2870   32.6240   44.0130 C   0  0  0  0  0  0  0  0  0  0  0  0
   34.6017   29.6053   47.8270 H   0  0  0  0  0  0  0  0  0  0  0  0
   33.9515   29.6883   45.4679 H   0  0  0  0  0  0  0  0  0  0  0  0
   38.4904   31.5308   48.9334 H   0  0  0  0  0  0  0  0  0  0  0  0
   35.1414   28.8039   49.3266 H   0  0  0  0  0  0  0  0  0  0  0  0
   37.4342   29.9977   52.7258 H   0  0  0  0  0  0  0  0  0  0  0  0
   40.0424   30.3480   44.1744 H   0  0  0  0  0  0  0  0  0  0  0  0
   38.6602   29.2328   43.9126 H   0  0  0  0  0  0  0  0  0  0  0  0
   39.8758   29.8129   41.7933 H   0  0  0  0  0  0  0  0  0  0  0  0
   38.1612   30.2956   41.7577 H   0  0  0  0  0  0  0  0  0  0  0  0
   40.4510   32.1476   42.6307 H   0  0  0  0  0  0  0  0  0  0  0  0
   39.7923   32.1282   40.9838 H   0  0  0  0  0  0  0  0  0  0  0  0
   38.5673   33.8386   42.2564 H   0  0  0  0  0  0  0  0  0  0  0  0
   37.4506   32.4706   42.0245 H   0  0  0  0  0  0  0  0  0  0  0  0
   39.1975   33.0174   44.4886 H   0  0  0  0  0  0  0  0  0  0  0  0
   37.4179   33.1801   44.3942 H   0  0  0  0  0  0  0  0  0  0  0  0
  2  1  1  0
  2  3  2  0
  3 10  1  0
  4  3  1  0
  5  4  2  0
  6  8  2  0
  6  5  1  0
  7  6  1  0
  8  2  1  0
  9 14  2  0
 10  9  1  0
 10 11  2  0
 11 12  1  0
 12 13  2  0
 14 13  1  0
 15  8  1  0
 16 15  1  0
 17 16  1  0
 18 17  1  0
 18 19  1  0
 19 20  1  0
 20 15  1  0
  4 21  1  0
  5 22  1  0
  9 23  1  0
 11 24  1  0
 13 25  1  0
 16 26  1  0
 16 27  1  0
 17 28  1  0
 17 29  1  0
 18 30  1  0
 18 31  1  0
 19 32  1  0
 19 33  1  0
 20 34  1  0
 20 35  1  0
M  ISO  8  21  14  22  14  23  14  24  14  25  14  26  13  27  13  28  13
M  ISO  7  29  13  30  13  31  13  32  13  33  13  34  13  35  13
M  END
>  <minimizedAffinity>  (1) 
-5.48848295

>  <minimizedRMSD>  (1) 
4.48305845

$$$$
