
     RDKit          3D

 22 23  0  0  0  0  0  0  0  0999 V2000
   36.7430   31.8030   50.2450 Cl  0  0  0  0  0  0  0  0  0  0  0  0
   37.3890   31.7370   48.6270 C   0  0  0  0  0  0  0  0  0  0  0  0
   36.7440   30.8470   47.8080 C   0  0  0  0  0  0  0  0  0  0  0  0
   37.1870   30.7180   46.4810 C   0  0  0  0  0  0  0  0  0  0  0  0
   38.2350   31.4510   46.0040 C   0  0  0  0  0  0  0  0  0  0  0  0
   38.8640   32.3350   46.8460 C   0  0  0  0  0  0  0  0  0  0  0  0
   40.2060   33.2900   46.2680 Cl  0  0  0  0  0  0  0  0  0  0  0  0
   38.4400   32.4660   48.1290 C   0  0  0  0  0  0  0  0  0  0  0  0
   35.7830   28.9830   49.1120 C   0  0  0  0  0  0  0  0  0  0  0  0
   35.6040   29.9600   48.1020 C   0  0  0  0  0  0  0  0  0  0  0  0
   34.3760   30.0220   47.4540 C   0  0  0  0  0  0  0  0  0  0  0  0
   33.4060   29.1430   47.8210 N   0  0  0  0  0  0  0  0  0  0  0  0
   33.6060   28.2210   48.7890 C   0  0  0  0  0  0  0  0  0  0  0  0
   34.7950   28.1440   49.4330 N   0  0  0  0  0  0  0  0  0  0  0  0
   39.0600   33.3890   49.0900 C   0  0  0  0  0  0  0  0  0  0  0  0
   39.4100   34.5700   48.9490 O   0  0  0  0  0  0  0  0  0  0  0  0
   36.6775   30.0099   45.8109 H   0  0  0  0  0  0  0  0  0  0  0  0
   38.5701   31.3356   44.9627 H   0  0  0  0  0  0  0  0  0  0  0  0
   36.7468   28.9147   49.6378 H   0  0  0  0  0  0  0  0  0  0  0  0
   34.1933   30.7645   46.6632 H   0  0  0  0  0  0  0  0  0  0  0  0
   32.7956   27.5268   49.0562 H   0  0  0  0  0  0  0  0  0  0  0  0
   39.2417   32.9666   50.0893 H   0  0  0  0  0  0  0  0  0  0  0  0
  2  1  1  0
  3 10  1  0
  3  2  2  0
  4  3  1  0
  5  4  2  0
  5  6  1  0
  6  8  2  0
  7  6  1  0
  8  2  1  0
  8 15  1  0
  9 14  2  0
 10  9  1  0
 11 12  1  0
 11 10  2  0
 12 13  2  0
 13 14  1  0
 16 15  2  0
  4 17  1  0
  5 18  1  0
  9 19  1  0
 11 20  1  0
 13 21  1  0
 15 22  1  0
M  ISO  6  17  14  18  14  19  14  20  14  21  14  22   6
M  END
>  <minimizedAffinity>  (1) 
-5.68946314

>  <minimizedRMSD>  (1) 
2.14952183

$$$$
