
     RDKit          3D

 35 37  0  0  1  0  0  0  0  0999 V2000
   35.9750   30.2630   45.7390 Cl  0  0  0  0  0  0  0  0  0  0  0  0
   36.9080   30.7540   47.1080 C   0  0  0  0  0  0  0  0  0  0  0  0
   38.0860   31.3460   46.7640 C   0  0  0  0  0  0  0  0  0  0  0  0
   38.9320   31.7880   47.8140 C   0  0  0  0  0  0  0  0  0  0  0  0
   38.5940   31.6350   49.1200 C   0  0  0  0  0  0  0  0  0  0  0  0
   37.3940   31.0310   49.4340 C   0  0  0  0  0  0  0  0  0  0  0  0
   36.9200   30.8120   51.0900 Cl  0  0  0  0  0  0  0  0  0  0  0  0
   36.5810   30.6060   48.4320 C   0  0  0  0  0  0  0  0  0  0  0  0
   39.7340   30.8180   45.0170 C   0  0  0  0  0  0  0  0  0  0  0  0
   38.6610   31.6190   45.4330 C   0  0  0  0  0  0  0  0  0  0  0  0
   38.1850   32.6290   44.5890 C   0  0  0  0  0  0  0  0  0  0  0  0
   38.8140   32.7670   43.3870 N   0  0  0  0  0  0  0  0  0  0  0  0
   39.8340   31.9940   43.0090 C   0  0  0  0  0  0  0  0  0  0  0  0
   40.3100   31.0000   43.8310 N   0  0  0  0  0  0  0  0  0  0  0  0
   35.2810   29.9520   48.6790 C   0  0  0  0  0  0  0  0  0  0  0  0
   34.2920   30.3620   49.2840 O   0  0  0  0  0  0  0  0  0  0  0  0
   34.9030   28.6650   48.2460 O   0  0  0  0  0  0  0  0  0  0  0  0
   32.5410   28.6670   47.8930 N   0  0  0  0  0  0  0  0  0  0  0  0
   31.5520   27.6070   48.1150 C   0  0  0  0  0  0  0  0  0  0  0  0
   32.2660   26.3270   47.7240 C   0  0  0  0  0  0  0  0  0  0  0  0
   33.7080   26.6890   47.8870 C   0  0  0  0  0  0  0  0  0  0  0  0
   33.6960   28.0650   48.5250 C   0  0  1  0  0  0  0  0  0  0  0  0
   39.8891   32.2684   47.5626 H   0  0  0  0  0  0  0  0  0  0  0  0
   39.2668   31.9873   49.9158 H   0  0  0  0  0  0  0  0  0  0  0  0
   40.1063   30.0252   45.6825 H   0  0  0  0  0  0  0  0  0  0  0  0
   37.3463   33.2783   44.8804 H   0  0  0  0  0  0  0  0  0  0  0  0
   40.3006   32.1544   42.0258 H   0  0  0  0  0  0  0  0  0  0  0  0
   32.6996   28.8386   46.8898 H   0  0  0  0  0  0  0  0  0  0  0  0
   31.2484   27.5747   49.1718 H   0  0  0  0  0  0  0  0  0  0  0  0
   30.6330   27.7661   47.5317 H   0  0  0  0  0  0  0  0  0  0  0  0
   32.0421   26.0505   46.6831 H   0  0  0  0  0  0  0  0  0  0  0  0
   31.9642   25.4582   48.3274 H   0  0  0  0  0  0  0  0  0  0  0  0
   34.2174   25.9645   48.5394 H   0  0  0  0  0  0  0  0  0  0  0  0
   34.2473   26.6821   46.9283 H   0  0  0  0  0  0  0  0  0  0  0  0
   33.6062   28.1223   49.6198 H   0  0  0  0  0  0  0  0  0  0  0  0
  1  2  1  0
  2  8  2  0
  3  2  1  0
  3  4  2  0
  4  5  1  0
  5  6  2  0
  6  7  1  0
  8 15  1  0
  8  6  1  0
  9 10  2  0
 10  3  1  0
 11 10  1  0
 12 11  2  0
 13 12  1  0
 13 14  2  0
 14  9  1  0
 15 16  2  0
 17 15  1  0
 18 19  1  0
 18 22  1  0
 20 21  1  0
 20 19  1  0
 21 22  1  0
 22 17  1  0
  4 23  1  0
  5 24  1  0
  9 25  1  0
 11 26  1  0
 13 27  1  0
 18 28  1  0
 19 29  1  0
 19 30  1  0
 20 31  1  0
 20 32  1  0
 21 33  1  0
 21 34  1  0
 22 35  1  1
M  ISO  8  23  14  24  14  25  14  26  14  27  14  28   5  29  13  30  13
M  ISO  5  31  13  32  13  33  13  34  13  35  13
M  END
>  <minimizedAffinity>  (1) 
-6.01184607

>  <minimizedRMSD>  (1) 
7.47447777

$$$$
