
     RDKit          3D

 23 24  0  0  0  0  0  0  0  0999 V2000
   36.6420   30.4650   48.9860 C   0  0  0  0  0  0  0  0  0  0  0  0
   37.6500   31.1680   48.3020 C   0  0  0  0  0  0  0  0  0  0  0  0
   37.5000   31.2250   46.9270 C   0  0  0  0  0  0  0  0  0  0  0  0
   36.4260   30.6240   46.3250 N   0  0  0  0  0  0  0  0  0  0  0  0
   35.4770   29.9570   47.0250 C   0  0  0  0  0  0  0  0  0  0  0  0
   35.5880   29.8780   48.3630 N   0  0  0  0  0  0  0  0  0  0  0  0
   36.7580   30.4840   50.4940 C   0  0  0  0  0  0  0  0  0  0  0  0
   36.0260   29.5500   51.3070 C   0  0  0  0  0  0  0  0  0  0  0  0
   37.4670   29.2120   51.0000 C   0  0  0  0  0  0  0  0  0  0  0  0
   38.6960   31.7430   48.9940 O   0  0  0  0  0  0  0  0  0  0  0  0
   39.7160   33.8460   47.8130 O   0  0  0  0  0  0  0  0  0  0  0  0
   38.9590   33.4330   49.0560 P   0  0  0  0  0  0  0  0  0  0  0  0
   37.5140   34.3100   49.1080 O   0  0  0  0  0  0  0  0  0  0  0  0
   39.8990   33.8630   50.3910 O   0  0  0  0  0  0  0  0  0  0  0  0
   38.2456   31.7546   46.3157 H   0  0  0  0  0  0  0  0  0  0  0  0
   34.6282   29.4870   46.5067 H   0  0  0  0  0  0  0  0  0  0  0  0
   36.8504   31.5775   50.5702 H   0  0  0  0  0  0  0  0  0  0  0  0
   35.7420   29.8306   52.3320 H   0  0  0  0  0  0  0  0  0  0  0  0
   35.0751   29.0123   51.1778 H   0  0  0  0  0  0  0  0  0  0  0  0
   37.7153   28.3954   50.3061 H   0  0  0  0  0  0  0  0  0  0  0  0
   38.3737   28.9781   51.5772 H   0  0  0  0  0  0  0  0  0  0  0  0
   37.2566   34.4662   50.0511 H   0  0  0  0  0  0  0  0  0  0  0  0
   39.4116   33.6400   51.2234 H   0  0  0  0  0  0  0  0  0  0  0  0
  1  7  1  0
  2  1  2  0
  2 10  1  0
  3  2  1  0
  4  3  2  0
  4  5  1  0
  5  6  2  0
  6  1  1  0
  7  9  1  0
  7  8  1  0
  9  8  1  0
 10 12  1  0
 11 12  2  0
 12 13  1  0
 12 14  1  0
  3 15  1  0
  5 16  1  0
  7 17  1  0
  8 18  1  0
  8 19  1  0
  9 20  1  0
  9 21  1  0
 13 22  1  0
 14 23  1  0
M  ISO  8  15  14  16  14  17  13  18  13  19  13  20  13  21  13  22   3
M  ISO  1  23   3
M  END
>  <minimizedAffinity>  (1) 
-3.72162819

>  <minimizedRMSD>  (1) 
2.91346121

$$$$
