
     RDKit          3D

 37 40  0  0  0  0  0  0  0  0999 V2000
   35.9990   30.6430   47.6020 C   0  0  0  0  0  0  0  0  0  0  0  0
   34.1750   29.0490   46.9320 C   0  0  0  0  0  0  0  0  0  0  0  0
   35.2160   29.9270   46.6100 C   0  0  0  0  0  0  0  0  0  0  0  0
   35.4950   30.0200   45.2540 C   0  0  0  0  0  0  0  0  0  0  0  0
   34.7990   29.3080   44.3410 N   0  0  0  0  0  0  0  0  0  0  0  0
   33.8010   28.4660   44.6840 C   0  0  0  0  0  0  0  0  0  0  0  0
   33.4900   28.3370   45.9830 N   0  0  0  0  0  0  0  0  0  0  0  0
   33.7610   28.9890   48.3850 C   0  0  0  0  0  0  0  0  0  0  0  0
   32.9270   27.9660   48.8930 C   0  0  0  0  0  0  0  0  0  0  0  0
   34.4170   27.7180   49.0310 C   0  0  0  0  0  0  0  0  0  0  0  0
   37.3650   30.1920   47.9100 C   0  0  0  0  0  0  0  0  0  0  0  0
   38.3650   30.9220   47.0950 C   0  0  0  0  0  0  0  0  0  0  0  0
   38.9210   30.7000   45.8990 N   0  0  0  0  0  0  0  0  0  0  0  0
   39.7990   31.4990   45.3020 C   0  0  0  0  0  0  0  0  0  0  0  0
   40.2410   32.6360   45.8300 N   0  0  0  0  0  0  0  0  0  0  0  0
   39.7430   32.9610   47.0470 C   0  0  0  0  0  0  0  0  0  0  0  0
   40.2210   34.1260   47.5820 C   0  0  0  0  0  0  0  0  0  0  0  0
   39.7950   34.5270   48.8080 C   0  0  0  0  0  0  0  0  0  0  0  0
   38.8880   33.7350   49.4690 C   0  0  0  0  0  0  0  0  0  0  0  0
   38.4390   32.5860   48.8990 C   0  0  0  0  0  0  0  0  0  0  0  0
   38.8290   32.1180   47.6560 C   0  0  0  0  0  0  0  0  0  0  0  0
   35.4310   30.6090   48.5434 H   0  0  0  0  0  0  0  0  0  0  0  0
   36.1503   31.6327   47.1465 H   0  0  0  0  0  0  0  0  0  0  0  0
   36.3005   30.6881   44.9150 H   0  0  0  0  0  0  0  0  0  0  0  0
   33.2551   27.8985   43.9160 H   0  0  0  0  0  0  0  0  0  0  0  0
   33.6866   30.0777   48.5236 H   0  0  0  0  0  0  0  0  0  0  0  0
   32.3293   28.1597   49.7959 H   0  0  0  0  0  0  0  0  0  0  0  0
   32.1072   27.3795   48.4526 H   0  0  0  0  0  0  0  0  0  0  0  0
   34.9243   26.9663   48.4084 H   0  0  0  0  0  0  0  0  0  0  0  0
   35.1286   27.4983   49.8406 H   0  0  0  0  0  0  0  0  0  0  0  0
   37.5706   30.3709   48.9757 H   0  0  0  0  0  0  0  0  0  0  0  0
   37.4397   29.1197   47.6763 H   0  0  0  0  0  0  0  0  0  0  0  0
   40.1820   31.2026   44.3143 H   0  0  0  0  0  0  0  0  0  0  0  0
   40.9464   34.7347   47.0223 H   0  0  0  0  0  0  0  0  0  0  0  0
   40.1658   35.4594   49.2586 H   0  0  0  0  0  0  0  0  0  0  0  0
   38.5237   34.0320   50.4635 H   0  0  0  0  0  0  0  0  0  0  0  0
   37.7134   31.9845   49.4662 H   0  0  0  0  0  0  0  0  0  0  0  0
  1 11  1  0
  2  8  1  0
  3  2  1  0
  3  1  1  0
  4  3  2  0
  5  6  2  0
  5  4  1  0
  6  7  1  0
  7  2  2  0
  8  9  1  0
  8 10  1  0
  9 10  1  0
 12 21  1  0
 12 11  1  0
 13 12  2  0
 14 15  2  0
 14 13  1  0
 15 16  1  0
 16 17  1  0
 16 21  2  0
 17 18  2  0
 18 19  1  0
 20 19  2  0
 21 20  1  0
  1 22  1  0
  1 23  1  0
  4 24  1  0
  6 25  1  0
  8 26  1  0
  9 27  1  0
  9 28  1  0
 10 29  1  0
 10 30  1  0
 11 31  1  0
 11 32  1  0
 14 33  1  0
 17 34  1  0
 18 35  1  0
 19 36  1  0
 20 37  1  0
M  ISO  8  22   8  23   8  24  14  25  14  26  13  27  13  28  13  29  13
M  ISO  8  30  13  31   8  32   8  33  14  34  14  35  14  36  14  37  14
M  END
>  <minimizedAffinity>  (1) 
-5.53342485

>  <minimizedRMSD>  (1) 
4.54819107

$$$$
