
     RDKit          3D

 32 34  0  0  0  0  0  0  0  0999 V2000
   37.4110   31.3780   49.4510 C   0  0  0  0  0  0  0  0  0  0  0  0
   36.7430   30.5180   48.5660 C   0  0  0  0  0  0  0  0  0  0  0  0
   36.4600   29.2960   49.1210 C   0  0  0  0  0  0  0  0  0  0  0  0
   36.7940   28.9640   50.3980 N   0  0  0  0  0  0  0  0  0  0  0  0
   37.4330   29.8170   51.2100 C   0  0  0  0  0  0  0  0  0  0  0  0
   37.7450   31.0260   50.7400 N   0  0  0  0  0  0  0  0  0  0  0  0
   37.6740   32.7880   48.9360 C   0  0  0  0  0  0  0  0  0  0  0  0
   38.4960   33.7010   49.6290 C   0  0  0  0  0  0  0  0  0  0  0  0
   39.1900   32.8960   48.5500 C   0  0  0  0  0  0  0  0  0  0  0  0
   36.4240   30.8750   47.1980 C   0  0  0  0  0  0  0  0  0  0  0  0
   37.2900   30.3000   46.1220 C   0  0  0  0  0  0  0  0  0  0  0  0
   38.3320   31.2310   45.6260 C   0  0  0  0  0  0  0  0  0  0  0  0
   39.6080   30.6810   45.7930 C   0  0  0  0  0  0  0  0  0  0  0  0
   40.7470   31.3630   45.4050 C   0  0  0  0  0  0  0  0  0  0  0  0
   40.6540   32.6160   44.8360 C   0  0  0  0  0  0  0  0  0  0  0  0
   39.3810   33.1230   44.6890 C   0  0  0  0  0  0  0  0  0  0  0  0
   38.2650   32.4730   45.0620 N   0  0  0  0  0  0  0  0  0  0  0  0
   35.9384   28.5489   48.5048 H   0  0  0  0  0  0  0  0  0  0  0  0
   37.6939   29.5276   52.2387 H   0  0  0  0  0  0  0  0  0  0  0  0
   36.6708   32.9403   48.5112 H   0  0  0  0  0  0  0  0  0  0  0  0
   38.3442   34.7801   49.4793 H   0  0  0  0  0  0  0  0  0  0  0  0
   38.7054   33.8587   50.6973 H   0  0  0  0  0  0  0  0  0  0  0  0
   39.8975   32.0948   48.8100 H   0  0  0  0  0  0  0  0  0  0  0  0
   39.7821   33.0972   47.6451 H   0  0  0  0  0  0  0  0  0  0  0  0
   35.3921   30.5478   47.0026 H   0  0  0  0  0  0  0  0  0  0  0  0
   36.5869   31.9615   47.1430 H   0  0  0  0  0  0  0  0  0  0  0  0
   37.7880   29.4038   46.5205 H   0  0  0  0  0  0  0  0  0  0  0  0
   36.6321   30.0747   45.2697 H   0  0  0  0  0  0  0  0  0  0  0  0
   39.7075   29.6825   46.2436 H   0  0  0  0  0  0  0  0  0  0  0  0
   41.7351   30.9023   45.5514 H   0  0  0  0  0  0  0  0  0  0  0  0
   41.5444   33.1781   44.5179 H   0  0  0  0  0  0  0  0  0  0  0  0
   39.2714   34.1207   44.2389 H   0  0  0  0  0  0  0  0  0  0  0  0
  1  6  2  0
  2  3  2  0
  2  1  1  0
  3  4  1  0
  4  5  2  0
  6  5  1  0
  7  1  1  0
  7  8  1  0
  9  7  1  0
  9  8  1  0
 10  2  1  0
 11 10  1  0
 12 13  2  0
 12 11  1  0
 14 13  1  0
 15 14  2  0
 16 15  1  0
 16 17  2  0
 17 12  1  0
  3 18  1  0
  5 19  1  0
  7 20  1  0
  8 21  1  0
  8 22  1  0
  9 23  1  0
  9 24  1  0
 10 25  1  0
 10 26  1  0
 11 27  1  0
 11 28  1  0
 13 29  1  0
 14 30  1  0
 15 31  1  0
 16 32  1  0
M  ISO  8  18  14  19  14  20  13  21  13  22  13  23  13  24  13  25   8
M  ISO  7  26   8  27   8  28   8  29  14  30  14  31  14  32  14
M  END
>  <minimizedAffinity>  (1) 
-5.12447357

>  <minimizedRMSD>  (1) 
4.53595734

$$$$
