
     RDKit          3D

 31 33  0  0  0  0  0  0  0  0999 V2000
   37.1060   31.1610   49.9830 C   0  0  0  0  0  0  0  0  0  0  0  0
   35.9140   30.5050   49.6350 C   0  0  0  0  0  0  0  0  0  0  0  0
   35.5690   29.5030   50.5100 C   0  0  0  0  0  0  0  0  0  0  0  0
   36.3090   29.1890   51.5900 N   0  0  0  0  0  0  0  0  0  0  0  0
   37.4510   29.8360   51.8980 C   0  0  0  0  0  0  0  0  0  0  0  0
   37.8490   30.8240   51.0910 N   0  0  0  0  0  0  0  0  0  0  0  0
   37.5000   32.3630   49.1330 C   0  0  0  0  0  0  0  0  0  0  0  0
   38.7370   33.0320   49.2910 C   0  0  0  0  0  0  0  0  0  0  0  0
   38.7080   31.9460   48.2280 C   0  0  0  0  0  0  0  0  0  0  0  0
   35.1770   30.8430   48.4240 C   0  0  0  0  0  0  0  0  0  0  0  0
   35.1340   29.7900   47.3840 C   0  0  0  0  0  0  0  0  0  0  0  0
   33.7410   29.6120   46.9050 C   0  0  0  0  0  0  0  0  0  0  0  0
   32.9260   30.3690   46.0920 C   0  0  0  0  0  0  0  0  0  0  0  0
   31.6590   29.9480   45.7940 C   0  0  0  0  0  0  0  0  0  0  0  0
   31.2060   28.7840   46.2990 N   0  0  0  0  0  0  0  0  0  0  0  0
   31.9830   28.0410   47.0850 C   0  0  0  0  0  0  0  0  0  0  0  0
   33.2300   28.4550   47.3790 N   0  0  0  0  0  0  0  0  0  0  0  0
   34.6479   28.9326   50.3196 H   0  0  0  0  0  0  0  0  0  0  0  0
   38.0373   29.5590   52.7866 H   0  0  0  0  0  0  0  0  0  0  0  0
   36.4876   32.7880   49.0662 H   0  0  0  0  0  0  0  0  0  0  0  0
   38.8222   34.0843   48.9821 H   0  0  0  0  0  0  0  0  0  0  0  0
   39.3861   33.2155   50.1599 H   0  0  0  0  0  0  0  0  0  0  0  0
   39.2267   30.9887   48.3848 H   0  0  0  0  0  0  0  0  0  0  0  0
   38.9208   31.8622   47.1520 H   0  0  0  0  0  0  0  0  0  0  0  0
   34.1413   31.0757   48.7125 H   0  0  0  0  0  0  0  0  0  0  0  0
   35.7148   31.6894   47.9719 H   0  0  0  0  0  0  0  0  0  0  0  0
   35.7754   30.0840   46.5401 H   0  0  0  0  0  0  0  0  0  0  0  0
   35.4944   28.8428   47.8116 H   0  0  0  0  0  0  0  0  0  0  0  0
   33.2968   31.3189   45.6795 H   0  0  0  0  0  0  0  0  0  0  0  0
   31.0128   30.5572   45.1449 H   0  0  0  0  0  0  0  0  0  0  0  0
   31.6069   27.0913   47.4931 H   0  0  0  0  0  0  0  0  0  0  0  0
  1  6  2  0
  2  1  1  0
  2  3  2  0
  3  4  1  0
  4  5  2  0
  6  5  1  0
  7  8  1  0
  7  1  1  0
  9  7  1  0
  9  8  1  0
 10  2  1  0
 11 10  1  0
 12 17  1  0
 12 11  1  0
 13 12  2  0
 14 13  1  0
 14 15  2  0
 15 16  1  0
 16 17  2  0
  3 18  1  0
  5 19  1  0
  7 20  1  0
  8 21  1  0
  8 22  1  0
  9 23  1  0
  9 24  1  0
 10 25  1  0
 10 26  1  0
 11 27  1  0
 11 28  1  0
 13 29  1  0
 14 30  1  0
 16 31  1  0
M  ISO  8  18  14  19  14  20  13  21  13  22  13  23  13  24  13  25   8
M  ISO  6  26   8  27   8  28   8  29  14  30  14  31  14
M  END
>  <minimizedAffinity>  (1) 
-4.65090895

>  <minimizedRMSD>  (1) 
6.59956408

$$$$
