
     RDKit          3D

 36 38  0  0  0  0  0  0  0  0999 V2000
   33.7310   28.5780   46.6050 C   0  0  0  0  0  0  0  0  0  0  0  0
   31.3050   28.5190   47.1350 C   0  0  0  0  0  0  0  0  0  0  0  0
   32.3700   28.9960   46.3870 C   0  0  0  0  0  0  0  0  0  0  0  0
   31.9850   29.8460   45.4000 C   0  0  0  0  0  0  0  0  0  0  0  0
   30.7130   30.1950   45.1620 N   0  0  0  0  0  0  0  0  0  0  0  0
   29.6980   29.7290   45.8860 C   0  0  0  0  0  0  0  0  0  0  0  0
   29.9900   28.8880   46.8760 N   0  0  0  0  0  0  0  0  0  0  0  0
   31.6040   27.6520   48.3580 C   0  0  0  0  0  0  0  0  0  0  0  0
   30.6150   26.9450   49.0500 C   0  0  0  0  0  0  0  0  0  0  0  0
   31.2740   26.1580   47.9340 C   0  0  0  0  0  0  0  0  0  0  0  0
   34.7300   29.6380   46.8470 C   0  0  0  0  0  0  0  0  0  0  0  0
   36.8360   31.3600   47.1710 F   0  0  0  0  0  0  0  0  0  0  0  0
   36.3940   30.6130   48.2410 C   0  0  0  0  0  0  0  0  0  0  0  0
   35.3400   29.7140   48.1650 C   0  0  0  0  0  0  0  0  0  0  0  0
   34.9990   29.0270   49.3100 C   0  0  0  0  0  0  0  0  0  0  0  0
   35.6860   29.2300   50.4900 C   0  0  0  0  0  0  0  0  0  0  0  0
   36.7400   30.1350   50.5450 C   0  0  0  0  0  0  0  0  0  0  0  0
   37.0890   30.8230   49.4180 C   0  0  0  0  0  0  0  0  0  0  0  0
   38.2320   31.8030   49.4810 C   0  0  0  0  0  0  0  0  0  0  0  0
   38.9250   31.4370   50.6440 F   0  0  0  0  0  0  0  0  0  0  0  0
   37.7530   33.0750   49.6720 F   0  0  0  0  0  0  0  0  0  0  0  0
   39.0600   31.6540   48.4100 F   0  0  0  0  0  0  0  0  0  0  0  0
   34.0520   28.0173   45.7147 H   0  0  0  0  0  0  0  0  0  0  0  0
   33.7035   27.9949   47.5373 H   0  0  0  0  0  0  0  0  0  0  0  0
   32.7663   30.2750   44.7554 H   0  0  0  0  0  0  0  0  0  0  0  0
   28.6602   30.0266   45.6750 H   0  0  0  0  0  0  0  0  0  0  0  0
   32.4036   28.2851   48.7702 H   0  0  0  0  0  0  0  0  0  0  0  0
   30.8020   26.6496   50.0930 H   0  0  0  0  0  0  0  0  0  0  0  0
   29.5627   27.1714   49.2767 H   0  0  0  0  0  0  0  0  0  0  0  0
   30.7358   25.9393   46.9999 H   0  0  0  0  0  0  0  0  0  0  0  0
   31.8140   25.2067   47.8179 H   0  0  0  0  0  0  0  0  0  0  0  0
   35.5418   29.4946   46.1187 H   0  0  0  0  0  0  0  0  0  0  0  0
   34.1633   30.5760   46.7523 H   0  0  0  0  0  0  0  0  0  0  0  0
   34.1679   28.3069   49.2833 H   0  0  0  0  0  0  0  0  0  0  0  0
   35.3975   28.6719   51.3930 H   0  0  0  0  0  0  0  0  0  0  0  0
   37.2868   30.2951   51.4859 H   0  0  0  0  0  0  0  0  0  0  0  0
  1 11  1  0
  2  8  1  0
  3  1  1  0
  3  2  1  0
  4  3  2  0
  5  4  1  0
  5  6  2  0
  6  7  1  0
  7  2  2  0
  8  9  1  0
 10  8  1  0
 10  9  1  0
 11 14  1  0
 12 13  1  0
 13 18  2  0
 14 13  1  0
 14 15  2  0
 15 16  1  0
 16 17  2  0
 18 19  1  0
 18 17  1  0
 19 21  1  0
 19 20  1  0
 22 19  1  0
  1 23  1  0
  1 24  1  0
  4 25  1  0
  6 26  1  0
  8 27  1  0
  9 28  1  0
  9 29  1  0
 10 30  1  0
 10 31  1  0
 11 32  1  0
 11 33  1  0
 15 34  1  0
 16 35  1  0
 17 36  1  0
M  ISO  8  23   8  24   8  25  14  26  14  27  13  28  13  29  13  30  13
M  ISO  6  31  13  32   8  33   8  34  14  35  14  36  14
M  END
>  <minimizedAffinity>  (1) 
-6.01946163

>  <minimizedRMSD>  (1) 
4.61746025

$$$$
