
     RDKit          3D

 39 41  0  0  0  0  0  0  0  0999 V2000
   36.2190   29.8880   48.9660 C   0  0  0  0  0  0  0  0  0  0  0  0
   38.1150   29.9320   46.9980 F   0  0  0  0  0  0  0  0  0  0  0  0
   38.0170   30.9820   47.8770 C   0  0  0  0  0  0  0  0  0  0  0  0
   37.0920   31.0510   48.9040 C   0  0  0  0  0  0  0  0  0  0  0  0
   37.0990   32.1630   49.7170 C   0  0  0  0  0  0  0  0  0  0  0  0
   38.0080   33.1850   49.5110 C   0  0  0  0  0  0  0  0  0  0  0  0
   38.9380   33.1070   48.4730 C   0  0  0  0  0  0  0  0  0  0  0  0
   38.9340   32.0060   47.6650 C   0  0  0  0  0  0  0  0  0  0  0  0
   39.8630   31.9050   46.6110 O   0  0  0  0  0  0  0  0  0  0  0  0
   37.9970   32.5780   44.8680 O   0  0  0  0  0  0  0  0  0  0  0  0
   39.4840   32.6420   45.1290 P   0  0  0  0  0  0  0  0  0  0  0  0
   39.9660   34.2770   45.2420 O   0  0  0  0  0  0  0  0  0  0  0  0
   40.3610   31.9910   43.8290 O   0  0  0  0  0  0  0  0  0  0  0  0
   34.8410   30.0400   48.4590 C   0  0  0  0  0  0  0  0  0  0  0  0
   33.9060   28.3630   46.8810 C   0  0  0  0  0  0  0  0  0  0  0  0
   34.5720   29.5500   47.1290 C   0  0  0  0  0  0  0  0  0  0  0  0
   34.9940   30.1680   46.0000 C   0  0  0  0  0  0  0  0  0  0  0  0
   34.7990   29.6940   44.7590 N   0  0  0  0  0  0  0  0  0  0  0  0
   34.1570   28.5470   44.5330 C   0  0  0  0  0  0  0  0  0  0  0  0
   33.7130   27.8860   45.5920 N   0  0  0  0  0  0  0  0  0  0  0  0
   33.2760   27.6210   48.0570 C   0  0  0  0  0  0  0  0  0  0  0  0
   32.2600   26.6740   47.8960 C   0  0  0  0  0  0  0  0  0  0  0  0
   33.6630   26.0870   47.8690 C   0  0  0  0  0  0  0  0  0  0  0  0
   36.6971   29.0862   48.3842 H   0  0  0  0  0  0  0  0  0  0  0  0
   36.1004   29.6847   50.0405 H   0  0  0  0  0  0  0  0  0  0  0  0
   36.3730   32.2391   50.5399 H   0  0  0  0  0  0  0  0  0  0  0  0
   37.9979   34.0657   50.1700 H   0  0  0  0  0  0  0  0  0  0  0  0
   39.6619   33.9187   48.3086 H   0  0  0  0  0  0  0  0  0  0  0  0
   40.0417   34.5336   46.1952 H   0  0  0  0  0  0  0  0  0  0  0  0
   41.1053   31.4385   44.1768 H   0  0  0  0  0  0  0  0  0  0  0  0
   34.1728   29.5057   49.1504 H   0  0  0  0  0  0  0  0  0  0  0  0
   34.6777   31.1262   48.4004 H   0  0  0  0  0  0  0  0  0  0  0  0
   35.5321   31.1214   46.1069 H   0  0  0  0  0  0  0  0  0  0  0  0
   34.0029   28.1666   43.5124 H   0  0  0  0  0  0  0  0  0  0  0  0
   33.3270   28.4502   48.7780 H   0  0  0  0  0  0  0  0  0  0  0  0
   31.6038   26.4466   48.7490 H   0  0  0  0  0  0  0  0  0  0  0  0
   31.4149   26.6060   47.1951 H   0  0  0  0  0  0  0  0  0  0  0  0
   34.0451   25.4907   48.7107 H   0  0  0  0  0  0  0  0  0  0  0  0
   34.2793   25.4792   47.1902 H   0  0  0  0  0  0  0  0  0  0  0  0
  2  3  1  0
  3  4  2  0
  4  1  1  0
  4  5  1  0
  6  5  2  0
  7  6  1  0
  8  3  1  0
  8  7  2  0
  9  8  1  0
 10 11  2  0
 11 12  1  0
 11  9  1  0
 13 11  1  0
 14  1  1  0
 15 16  1  0
 15 21  1  0
 16 14  1  0
 17 16  2  0
 18 17  1  0
 19 18  2  0
 19 20  1  0
 20 15  2  0
 22 21  1  0
 23 22  1  0
 23 21  1  0
  1 24  1  0
  1 25  1  0
  5 26  1  0
  6 27  1  0
  7 28  1  0
 12 29  1  0
 13 30  1  0
 14 31  1  0
 14 32  1  0
 17 33  1  0
 19 34  1  0
 21 35  1  0
 22 36  1  0
 22 37  1  0
 23 38  1  0
 23 39  1  0
M  ISO  8  24   8  25   8  26  14  27  14  28  14  29   3  30   3  31   8
M  ISO  8  32   8  33  14  34  14  35  13  36  13  37  13  38  13  39  13
M  END
>  <minimizedAffinity>  (1) 
-5.91263628

>  <minimizedRMSD>  (1) 
2.88059163

$$$$
