
     RDKit          3D

 47 50  0  0  1  0  0  0  0  0999 V2000
   37.2770   30.8350   46.5240 C   0  0  0  0  0  0  0  0  0  0  0  0
   38.8320   29.3750   44.7520 F   0  0  0  0  0  0  0  0  0  0  0  0
   39.1410   30.6340   45.0930 C   0  0  0  0  0  0  0  0  0  0  0  0
   38.4370   31.4590   45.9730 C   0  0  0  0  0  0  0  0  0  0  0  0
   38.9410   32.6980   46.1940 C   0  0  0  0  0  0  0  0  0  0  0  0
   40.0690   33.1690   45.6070 C   0  0  0  0  0  0  0  0  0  0  0  0
   40.7820   32.3370   44.7170 C   0  0  0  0  0  0  0  0  0  0  0  0
   40.2830   31.0360   44.4750 C   0  0  0  0  0  0  0  0  0  0  0  0
   41.1030   30.3560   43.6100 O   0  0  0  0  0  0  0  0  0  0  0  0
   41.3320   28.8010   41.7780 C   0  0  2  0  0  0  0  0  0  0  0  0
   41.0010   30.2230   42.2640 C   0  0  1  0  0  0  0  0  0  0  0  0
   39.6110   30.2180   41.8790 O   0  0  0  0  0  0  0  0  0  0  0  0
   39.7320   29.9860   40.5120 C   0  0  0  0  0  0  0  0  0  0  0  0
   40.7580   28.8830   40.3680 C   0  0  2  0  0  0  0  0  0  0  0  0
   40.6560   27.8410   42.4910 O   0  0  0  0  0  0  0  0  0  0  0  0
   40.2010   27.7020   39.9400 O   0  0  0  0  0  0  0  0  0  0  0  0
   37.3400   30.4240   47.9470 C   0  0  0  0  0  0  0  0  0  0  0  0
   36.0090   29.7230   49.8880 C   0  0  0  0  0  0  0  0  0  0  0  0
   36.1350   29.9330   48.5430 C   0  0  0  0  0  0  0  0  0  0  0  0
   35.0360   29.5740   47.8340 C   0  0  0  0  0  0  0  0  0  0  0  0
   33.9300   29.0600   48.3920 N   0  0  0  0  0  0  0  0  0  0  0  0
   33.8140   28.8560   49.6890 C   0  0  0  0  0  0  0  0  0  0  0  0
   34.8530   29.1850   50.4580 N   0  0  0  0  0  0  0  0  0  0  0  0
   37.0730   30.2180   50.8630 C   0  0  0  0  0  0  0  0  0  0  0  0
   37.1550   29.8000   52.1830 C   0  0  0  0  0  0  0  0  0  0  0  0
   37.9580   28.9430   51.2200 C   0  0  0  0  0  0  0  0  0  0  0  0
   37.0715   29.9336   45.9280 H   0  0  0  0  0  0  0  0  0  0  0  0
   36.4947   31.6074   46.4864 H   0  0  0  0  0  0  0  0  0  0  0  0
   38.4039   33.3594   46.8897 H   0  0  0  0  0  0  0  0  0  0  0  0
   40.4243   34.1876   45.8219 H   0  0  0  0  0  0  0  0  0  0  0  0
   41.7002   32.6907   44.2253 H   0  0  0  0  0  0  0  0  0  0  0  0
   42.3938   28.5276   41.8662 H   0  0  0  0  0  0  0  0  0  0  0  0
   41.6484   31.0204   41.8703 H   0  0  0  0  0  0  0  0  0  0  0  0
   38.7668   29.6681   40.0909 H   0  0  0  0  0  0  0  0  0  0  0  0
   40.0379   30.8951   39.9735 H   0  0  0  0  0  0  0  0  0  0  0  0
   41.5220   29.0823   39.6021 H   0  0  0  0  0  0  0  0  0  0  0  0
   40.7725   28.0065   43.4601 H   0  0  0  0  0  0  0  0  0  0  0  0
   39.9432   27.1554   40.7242 H   0  0  0  0  0  0  0  0  0  0  0  0
   38.0962   29.6293   48.0281 H   0  0  0  0  0  0  0  0  0  0  0  0
   37.5709   31.3479   48.4975 H   0  0  0  0  0  0  0  0  0  0  0  0
   35.0526   29.7118   46.7428 H   0  0  0  0  0  0  0  0  0  0  0  0
   32.8958   28.4309   50.1206 H   0  0  0  0  0  0  0  0  0  0  0  0
   37.1325   31.2460   50.4761 H   0  0  0  0  0  0  0  0  0  0  0  0
   37.6911   30.4301   52.9080 H   0  0  0  0  0  0  0  0  0  0  0  0
   36.3853   29.5508   52.9283 H   0  0  0  0  0  0  0  0  0  0  0  0
   37.6284   27.9286   50.9511 H   0  0  0  0  0  0  0  0  0  0  0  0
   38.9990   28.6101   51.0956 H   0  0  0  0  0  0  0  0  0  0  0  0
  1 17  1  0
  2  3  1  0
  3  4  2  0
  4  5  1  0
  4  1  1  0
  6  5  2  0
  7  6  1  0
  8  7  2  0
  8  3  1  0
  9  8  1  0
 10 11  1  0
 10 15  1  0
 11  9  1  0
 12 11  1  0
 13 12  1  0
 14 16  1  0
 14 13  1  0
 14 10  1  0
 17 19  1  0
 18 23  1  0
 18 24  1  0
 19 18  2  0
 20 21  2  0
 20 19  1  0
 21 22  1  0
 22 23  2  0
 24 26  1  0
 24 25  1  0
 26 25  1  0
  1 27  1  0
  1 28  1  0
  5 29  1  0
  6 30  1  0
  7 31  1  0
 10 32  1  6
 11 33  1  6
 13 34  1  0
 13 35  1  0
 14 36  1  6
 15 37  1  0
 16 38  1  0
 17 39  1  0
 17 40  1  0
 20 41  1  0
 22 42  1  0
 24 43  1  0
 25 44  1  0
 25 45  1  0
 26 46  1  0
 26 47  1  0
M  ISO  8  27   8  28   8  29  14  30  14  31  14  32  13  33  13  34  13
M  ISO  8  35  13  36  13  37   3  38   3  39   8  40   8  41  14  42  14
M  ISO  5  43  13  44  13  45  13  46  13  47  13
M  END
>  <minimizedAffinity>  (1) 
-6.30304337

>  <minimizedRMSD>  (1) 
4.75591373

$$$$
