
     RDKit          3D

 36 38  0  0  0  0  0  0  0  0999 V2000
   34.2740   28.0840   48.7080 C   0  0  0  0  0  0  0  0  0  0  0  0
   32.7750   26.5110   47.5700 C   0  0  0  0  0  0  0  0  0  0  0  0
   32.9850   27.5200   48.4680 C   0  0  0  0  0  0  0  0  0  0  0  0
   31.8470   27.9700   49.0490 C   0  0  0  0  0  0  0  0  0  0  0  0
   30.6320   27.4860   48.7790 N   0  0  0  0  0  0  0  0  0  0  0  0
   30.4310   26.5110   47.9050 C   0  0  0  0  0  0  0  0  0  0  0  0
   31.5000   26.0110   47.2890 N   0  0  0  0  0  0  0  0  0  0  0  0
   33.9500   25.7620   46.9380 C   0  0  0  0  0  0  0  0  0  0  0  0
   33.8010   24.8340   45.9190 C   0  0  0  0  0  0  0  0  0  0  0  0
   34.0140   26.2620   45.4290 C   0  0  0  0  0  0  0  0  0  0  0  0
   34.3410   29.4030   49.3710 C   0  0  0  0  0  0  0  0  0  0  0  0
   36.0150   31.0440   47.8900 F   0  0  0  0  0  0  0  0  0  0  0  0
   36.3610   30.6210   49.1350 C   0  0  0  0  0  0  0  0  0  0  0  0
   35.5830   29.7900   49.9510 C   0  0  0  0  0  0  0  0  0  0  0  0
   36.1210   29.4680   51.1470 C   0  0  0  0  0  0  0  0  0  0  0  0
   37.3300   29.8990   51.5830 C   0  0  0  0  0  0  0  0  0  0  0  0
   38.1020   30.7290   50.7640 C   0  0  0  0  0  0  0  0  0  0  0  0
   37.5920   31.0800   49.5250 C   0  0  0  0  0  0  0  0  0  0  0  0
   38.4250   31.8990   48.7510 O   0  0  0  0  0  0  0  0  0  0  0  0
   38.5730   33.2520   48.9790 C   0  0  0  0  0  0  0  0  0  0  0  0
   39.4140   34.0170   49.5490 O   0  0  0  0  0  0  0  0  0  0  0  0
   34.7750   28.1817   47.7336 H   0  0  0  0  0  0  0  0  0  0  0  0
   34.7479   27.3934   49.4211 H   0  0  0  0  0  0  0  0  0  0  0  0
   31.9285   28.7819   49.7867 H   0  0  0  0  0  0  0  0  0  0  0  0
   29.4205   26.1296   47.6965 H   0  0  0  0  0  0  0  0  0  0  0  0
   34.5519   25.6652   47.8536 H   0  0  0  0  0  0  0  0  0  0  0  0
   34.5953   24.0909   45.7553 H   0  0  0  0  0  0  0  0  0  0  0  0
   33.0224   24.0866   45.7063 H   0  0  0  0  0  0  0  0  0  0  0  0
   34.9657   26.5706   44.9718 H   0  0  0  0  0  0  0  0  0  0  0  0
   33.4988   26.9915   44.7868 H   0  0  0  0  0  0  0  0  0  0  0  0
   34.0786   30.1622   48.6195 H   0  0  0  0  0  0  0  0  0  0  0  0
   33.6497   29.3215   50.2228 H   0  0  0  0  0  0  0  0  0  0  0  0
   35.5394   28.8123   51.8117 H   0  0  0  0  0  0  0  0  0  0  0  0
   37.7011   29.5981   52.5738 H   0  0  0  0  0  0  0  0  0  0  0  0
   39.0862   31.0927   51.0943 H   0  0  0  0  0  0  0  0  0  0  0  0
   37.7363   33.8242   48.5517 H   0  0  0  0  0  0  0  0  0  0  0  0
  1 11  1  0
  2  3  1  0
  3  1  1  0
  3  4  2  0
  5  4  1  0
  6  5  2  0
  7  2  2  0
  7  6  1  0
  8  2  1  0
  9  8  1  0
 10  9  1  0
 10  8  1  0
 11 14  1  0
 12 13  1  0
 13 18  2  0
 13 14  1  0
 14 15  2  0
 15 16  1  0
 17 16  2  0
 18 17  1  0
 19 20  1  0
 19 18  1  0
 20 21  2  0
  1 22  1  0
  1 23  1  0
  4 24  1  0
  6 25  1  0
  8 26  1  0
  9 27  1  0
  9 28  1  0
 10 29  1  0
 10 30  1  0
 11 31  1  0
 11 32  1  0
 15 33  1  0
 16 34  1  0
 17 35  1  0
 20 36  1  0
M  ISO  8  22   8  23   8  24  14  25  14  26  13  27  13  28  13  29  13
M  ISO  7  30  13  31   8  32   8  33  14  34  14  35  14  36   6
M  END
>  <minimizedAffinity>  (1) 
-5.71183872

>  <minimizedRMSD>  (1) 
4.43372679

$$$$
