
     RDKit          3D

 37 39  0  0  0  0  0  0  0  0999 V2000
   35.3990   29.3670   45.7860 C   0  0  0  0  0  0  0  0  0  0  0  0
   33.0860   29.2670   46.6120 C   0  0  0  0  0  0  0  0  0  0  0  0
   34.0150   29.7120   45.7100 C   0  0  0  0  0  0  0  0  0  0  0  0
   33.4720   30.4600   44.7140 C   0  0  0  0  0  0  0  0  0  0  0  0
   32.1730   30.7390   44.6120 N   0  0  0  0  0  0  0  0  0  0  0  0
   31.2820   30.3050   45.4830 C   0  0  0  0  0  0  0  0  0  0  0  0
   31.7270   29.5620   46.4960 N   0  0  0  0  0  0  0  0  0  0  0  0
   33.5190   28.5490   47.8890 C   0  0  0  0  0  0  0  0  0  0  0  0
   32.6500   27.8300   48.6960 C   0  0  0  0  0  0  0  0  0  0  0  0
   33.3130   26.9990   47.6070 C   0  0  0  0  0  0  0  0  0  0  0  0
   36.3740   30.4790   45.8760 C   0  0  0  0  0  0  0  0  0  0  0  0
   38.0720   32.6580   46.0980 F   0  0  0  0  0  0  0  0  0  0  0  0
   37.8010   31.8570   47.1630 C   0  0  0  0  0  0  0  0  0  0  0  0
   36.9570   30.7430   47.1500 C   0  0  0  0  0  0  0  0  0  0  0  0
   36.8360   30.0730   48.3180 C   0  0  0  0  0  0  0  0  0  0  0  0
   37.4660   30.4210   49.4630 C   0  0  0  0  0  0  0  0  0  0  0  0
   38.3020   31.5220   49.4880 C   0  0  0  0  0  0  0  0  0  0  0  0
   38.4620   32.2370   48.3060 C   0  0  0  0  0  0  0  0  0  0  0  0
   39.3400   33.3380   48.3650 O   0  0  0  0  0  0  0  0  0  0  0  0
   39.3800   34.0860   49.5440 C   0  0  0  0  0  0  0  0  0  0  0  0
   35.6441   28.7851   44.8853 H   0  0  0  0  0  0  0  0  0  0  0  0
   35.5022   28.8241   46.7371 H   0  0  0  0  0  0  0  0  0  0  0  0
   34.1472   30.8604   43.9434 H   0  0  0  0  0  0  0  0  0  0  0  0
   30.2141   30.5468   45.3772 H   0  0  0  0  0  0  0  0  0  0  0  0
   34.2705   29.2892   48.2009 H   0  0  0  0  0  0  0  0  0  0  0  0
   32.9247   27.6489   49.7456 H   0  0  0  0  0  0  0  0  0  0  0  0
   31.5964   27.9844   48.9717 H   0  0  0  0  0  0  0  0  0  0  0  0
   32.7446   26.6509   46.7320 H   0  0  0  0  0  0  0  0  0  0  0  0
   33.9318   26.0926   47.5336 H   0  0  0  0  0  0  0  0  0  0  0  0
   37.1945   30.2548   45.1785 H   0  0  0  0  0  0  0  0  0  0  0  0
   35.7908   31.3820   45.6427 H   0  0  0  0  0  0  0  0  0  0  0  0
   36.1832   29.1879   48.3383 H   0  0  0  0  0  0  0  0  0  0  0  0
   37.3130   29.8270   50.3761 H   0  0  0  0  0  0  0  0  0  0  0  0
   38.8220   31.8217   50.4099 H   0  0  0  0  0  0  0  0  0  0  0  0
   39.3438   33.4082   50.4096 H   0  0  0  0  0  0  0  0  0  0  0  0
   40.3107   34.6714   49.5754 H   0  0  0  0  0  0  0  0  0  0  0  0
   38.5170   34.7674   49.5754 H   0  0  0  0  0  0  0  0  0  0  0  0
  1 11  1  0
  2  8  1  0
  3  1  1  0
  3  2  1  0
  4  3  2  0
  5  4  1  0
  5  6  2  0
  6  7  1  0
  7  2  2  0
  8  9  1  0
 10  8  1  0
 10  9  1  0
 11 14  1  0
 12 13  1  0
 13 18  2  0
 14 13  1  0
 14 15  2  0
 15 16  1  0
 16 17  2  0
 18 19  1  0
 18 17  1  0
 19 20  1  0
  1 21  1  0
  1 22  1  0
  4 23  1  0
  6 24  1  0
  8 25  1  0
  9 26  1  0
  9 27  1  0
 10 28  1  0
 10 29  1  0
 11 30  1  0
 11 31  1  0
 15 32  1  0
 16 33  1  0
 17 34  1  0
 20 35  1  0
 20 36  1  0
 20 37  1  0
M  ISO  8  21   8  22   8  23  14  24  14  25  13  26  13  27  13  28  13
M  ISO  8  29  13  30   8  31   8  32  14  33  14  34  14  35   8  36   8
M  ISO  1  37   8
M  END
>  <minimizedAffinity>  (1) 
-4.7187562

>  <minimizedRMSD>  (1) 
2.17259479

$$$$
