
     RDKit          3D

 44 46  0  0  1  0  0  0  0  0999 V2000
   36.5520   30.6670   45.0340 C   0  0  2  0  0  0  0  0  0  0  0  0
   37.3200   29.9550   44.0220 C   0  0  0  0  0  0  0  0  0  0  0  0
   38.6540   29.4290   44.5450 C   0  0  0  0  0  0  0  0  0  0  0  0
   39.5110   30.5240   45.1170 C   0  0  0  0  0  0  0  0  0  0  0  0
   38.7360   31.5700   45.8670 C   0  0  0  0  0  0  0  0  0  0  0  0
   37.3480   31.0700   46.2480 C   0  0  2  0  0  0  0  0  0  0  0  0
   35.3510   29.9830   45.5190 C   0  0  0  0  0  0  0  0  0  0  0  0
   34.9110   28.9420   44.6910 C   0  0  0  0  0  0  0  0  0  0  0  0
   33.7850   28.2480   45.1090 C   0  0  0  0  0  0  0  0  0  0  0  0
   33.1680   28.5990   46.2760 N   0  0  0  0  0  0  0  0  0  0  0  0
   33.6230   29.6070   47.0390 C   0  0  0  0  0  0  0  0  0  0  0  0
   34.6800   30.2470   46.6340 N   0  0  0  0  0  0  0  0  0  0  0  0
   37.5230   30.1470   47.2780 N   0  0  0  0  0  0  0  0  0  0  0  0
   37.4570   30.7140   48.8660 S   0  0  1  0  0  0  0  0  0  0  0  0
   38.6460   30.1080   49.5880 O   0  0  0  0  0  0  0  0  0  0  0  0
   37.5660   32.2020   48.9710 O   0  0  0  0  0  0  0  0  0  0  0  0
   38.5380   33.1490   49.2410 C   0  0  0  0  0  0  0  0  0  0  0  0
   39.1520   33.7210   48.1230 C   0  0  0  0  0  0  0  0  0  0  0  0
   40.0880   34.6380   48.6110 C   0  0  0  0  0  0  0  0  0  0  0  0
   39.9730   34.5570   49.9710 C   0  0  0  0  0  0  0  0  0  0  0  0
   39.0650   33.6840   50.3020 O   0  0  0  0  0  0  0  0  0  0  0  0
   36.0940   30.1920   49.6980 O   0  0  0  0  0  0  0  0  0  0  0  0
   36.4010   29.5960   50.9090 C   0  0  0  0  0  0  0  0  0  0  0  0
   37.2820   28.5650   50.7060 F   0  0  0  0  0  0  0  0  0  0  0  0
   37.0480   30.5400   51.6850 F   0  0  0  0  0  0  0  0  0  0  0  0
   35.2830   29.2050   51.6290 F   0  0  0  0  0  0  0  0  0  0  0  0
   36.2474   31.5564   44.4629 H   0  0  0  0  0  0  0  0  0  0  0  0
   37.5177   30.6410   43.1852 H   0  0  0  0  0  0  0  0  0  0  0  0
   36.7239   29.0853   43.7085 H   0  0  0  0  0  0  0  0  0  0  0  0
   38.4578   28.6853   45.3314 H   0  0  0  0  0  0  0  0  0  0  0  0
   39.1965   28.9828   43.6985 H   0  0  0  0  0  0  0  0  0  0  0  0
   40.2389   30.0708   45.8061 H   0  0  0  0  0  0  0  0  0  0  0  0
   39.9941   31.0299   44.2681 H   0  0  0  0  0  0  0  0  0  0  0  0
   39.2850   31.8334   46.7831 H   0  0  0  0  0  0  0  0  0  0  0  0
   38.6197   32.4478   45.2143 H   0  0  0  0  0  0  0  0  0  0  0  0
   36.6895   31.8495   46.6588 H   0  0  0  0  0  0  0  0  0  0  0  0
   35.4323   28.6878   43.7563 H   0  0  0  0  0  0  0  0  0  0  0  0
   33.3907   27.4187   44.5034 H   0  0  0  0  0  0  0  0  0  0  0  0
   33.1175   29.8821   47.9764 H   0  0  0  0  0  0  0  0  0  0  0  0
   36.7888   29.4317   47.1769 H   0  0  0  0  0  0  0  0  0  0  0  0
   38.5089   30.1779   50.5660 H   0  0  0  0  0  0  0  0  0  0  0  0
   38.9405   33.4944   47.0676 H   0  0  0  0  0  0  0  0  0  0  0  0
   40.7657   35.2811   48.0303 H   0  0  0  0  0  0  0  0  0  0  0  0
   40.5650   35.1471   50.6861 H   0  0  0  0  0  0  0  0  0  0  0  0
  1  7  1  0
  1  6  1  0
  2  3  1  0
  2  1  1  0
  3  4  1  0
  4  5  1  0
  5  6  1  0
  6 13  1  0
  7 12  2  0
  8  9  2  0
  8  7  1  0
  9 10  1  0
 10 11  2  0
 12 11  1  0
 13 14  1  0
 14 16  1  6
 14 15  1  0
 14 22  1  0
 16 17  1  0
 17 21  1  0
 18 19  1  0
 18 17  2  0
 19 20  2  0
 20 21  1  0
 22 23  1  0
 23 26  1  0
 23 25  1  0
 24 23  1  0
  1 27  1  6
  2 28  1  0
  2 29  1  0
  3 30  1  0
  3 31  1  0
  4 32  1  0
  4 33  1  0
  5 34  1  0
  5 35  1  0
  6 36  1  1
  8 37  1  0
  9 38  1  0
 11 39  1  0
 13 40  1  0
 15 41  1  0
 18 42  1  0
 19 43  1  0
 20 44  1  0
M  ISO  8  27  13  28  13  29  13  30  13  31  13  32  13  33  13  34  13
M  ISO  8  35  13  36  13  37  14  38  14  39  14  40   5  41   3  42  14
M  ISO  2  43  14  44  14
M  END
>  <minimizedAffinity>  (1) 
-5.22338581

>  <minimizedRMSD>  (1) 
1.6226759

$$$$
