
     RDKit          3D

 43 45  0  0  1  0  0  0  0  0999 V2000
   33.9160   28.3930   47.9540 C   0  0  0  0  0  0  0  0  0  0  0  0
   35.2040   30.6210   46.8840 F   0  0  0  0  0  0  0  0  0  0  0  0
   35.5810   30.0900   48.0990 C   0  0  0  0  0  0  0  0  0  0  0  0
   34.9670   28.9800   48.6920 C   0  0  0  0  0  0  0  0  0  0  0  0
   35.4760   28.6260   49.8680 C   0  0  0  0  0  0  0  0  0  0  0  0
   36.5110   29.2580   50.4890 C   0  0  0  0  0  0  0  0  0  0  0  0
   37.1280   30.3630   49.9050 C   0  0  0  0  0  0  0  0  0  0  0  0
   36.6150   30.7280   48.7080 C   0  0  0  0  0  0  0  0  0  0  0  0
   38.2410   31.0390   50.5780 C   0  0  0  0  0  0  0  0  0  0  0  0
   37.2600   31.8630   48.1080 O   0  0  0  0  0  0  0  0  0  0  0  0
   38.3800   31.5630   47.3810 C   0  0  0  0  0  0  0  0  0  0  0  0
   39.2440   32.4980   47.3690 O   0  0  0  0  0  0  0  0  0  0  0  0
   38.8040   30.4590   46.6410 N   0  0  0  0  0  0  0  0  0  0  0  0
   32.7310   27.9070   48.7100 C   0  0  0  0  0  0  0  0  0  0  0  0
   30.4230   27.1940   48.3860 C   0  0  0  0  0  0  0  0  0  0  0  0
   31.7240   27.2320   47.9460 C   0  0  0  0  0  0  0  0  0  0  0  0
   31.9420   26.6020   46.7820 C   0  0  0  0  0  0  0  0  0  0  0  0
   30.9740   25.9830   46.0970 N   0  0  0  0  0  0  0  0  0  0  0  0
   29.6970   25.9340   46.5060 C   0  0  0  0  0  0  0  0  0  0  0  0
   29.4160   26.5410   47.6570 N   0  0  0  0  0  0  0  0  0  0  0  0
   29.9820   27.8260   49.6770 C   0  0  1  0  0  0  0  0  0  0  0  0
   28.9140   28.7610   49.6990 C   0  0  0  0  0  0  0  0  0  0  0  0
   28.6170   27.3080   50.1160 C   0  0  2  0  0  0  0  0  0  0  0  0
   28.3490   27.1400   51.5680 C   0  0  0  0  0  0  0  0  0  0  0  0
   27.2230   26.7030   51.8170 O   0  0  0  0  0  0  0  0  0  0  0  0
   33.5609   29.1439   47.2329 H   0  0  0  0  0  0  0  0  0  0  0  0
   34.3567   27.4867   47.5131 H   0  0  0  0  0  0  0  0  0  0  0  0
   35.0288   27.7594   50.3769 H   0  0  0  0  0  0  0  0  0  0  0  0
   36.8643   28.8914   51.4641 H   0  0  0  0  0  0  0  0  0  0  0  0
   38.1124   30.9609   51.6677 H   0  0  0  0  0  0  0  0  0  0  0  0
   39.1891   30.5640   50.2857 H   0  0  0  0  0  0  0  0  0  0  0  0
   38.2567   32.0993   50.2857 H   0  0  0  0  0  0  0  0  0  0  0  0
   39.7197   30.4758   46.1696 H   0  0  0  0  0  0  0  0  0  0  0  0
   38.2014   29.6271   46.5660 H   0  0  0  0  0  0  0  0  0  0  0  0
   33.0888   27.2104   49.4825 H   0  0  0  0  0  0  0  0  0  0  0  0
   32.2436   28.8108   49.1043 H   0  0  0  0  0  0  0  0  0  0  0  0
   32.9628   26.5940   46.3723 H   0  0  0  0  0  0  0  0  0  0  0  0
   28.9218   25.4185   45.9201 H   0  0  0  0  0  0  0  0  0  0  0  0
   30.9974   27.9021   50.0932 H   0  0  0  0  0  0  0  0  0  0  0  0
   28.9034   29.5583   50.4568 H   0  0  0  0  0  0  0  0  0  0  0  0
   28.4822   29.4496   48.9578 H   0  0  0  0  0  0  0  0  0  0  0  0
   27.9681   26.4717   49.8169 H   0  0  0  0  0  0  0  0  0  0  0  0
   29.0860   27.3827   52.3477 H   0  0  0  0  0  0  0  0  0  0  0  0
  1  4  1  0
  1 14  1  0
  2  3  1  0
  3  4  2  0
  3  8  1  0
  4  5  1  0
  5  6  2  0
  7  6  1  0
  7  9  1  0
  8  7  2  0
 10  8  1  0
 11 10  1  0
 12 11  2  0
 13 11  1  0
 15 21  1  0
 16 15  1  0
 16 14  1  0
 17 16  2  0
 18 19  2  0
 18 17  1  0
 19 20  1  0
 20 15  2  0
 21 22  1  0
 21 23  1  0
 22 23  1  0
 23 24  1  0
 24 25  2  0
  1 26  1  0
  1 27  1  0
  5 28  1  0
  6 29  1  0
  9 30  1  0
  9 31  1  0
  9 32  1  0
 13 33  1  0
 13 34  1  0
 14 35  1  0
 14 36  1  0
 17 37  1  0
 19 38  1  0
 21 39  1  1
 22 40  1  0
 22 41  1  0
 23 42  1  6
 24 43  1  0
M  ISO  8  26   8  27   8  28  14  29  14  30   8  31   8  32   8  35   8
M  ISO  8  36   8  37  14  38  14  39  13  40  13  41  13  42  13  43   6
M  END
>  <minimizedAffinity>  (1) 
-6.31907749

>  <minimizedRMSD>  (1) 
0.605300307

$$$$
