
     RDKit          3D

 27 29  0  0  1  0  0  0  0  0999 V2000
   36.1290   30.4560   49.4190 C   0  0  1  0  0  0  0  0  0  0  0  0
   35.8150   29.1980   48.7530 C   0  0  1  0  0  0  0  0  0  0  0  0
   36.6410   29.1490   50.0120 C   0  0  0  0  0  0  0  0  0  0  0  0
   34.5080   28.6260   48.6970 N   0  0  0  0  0  0  0  0  0  0  0  0
   34.1460   27.7050   47.7600 C   0  0  0  0  0  0  0  0  0  0  0  0
   32.9070   27.1330   47.6690 C   0  0  0  0  0  0  0  0  0  0  0  0
   31.9550   27.5160   48.5960 C   0  0  0  0  0  0  0  0  0  0  0  0
   30.8060   27.0060   48.5390 O   0  0  0  0  0  0  0  0  0  0  0  0
   32.2920   28.4370   49.5460 N   0  0  0  0  0  0  0  0  0  0  0  0
   33.5410   28.9600   49.5710 C   0  0  0  0  0  0  0  0  0  0  0  0
   33.7350   29.7840   50.4720 O   0  0  0  0  0  0  0  0  0  0  0  0
   37.2390   31.3470   48.9190 C   0  0  0  0  0  0  0  0  0  0  0  0
   37.4880   32.5220   49.6510 C   0  0  0  0  0  0  0  0  0  0  0  0
   38.4920   33.3450   49.1710 C   0  0  0  0  0  0  0  0  0  0  0  0
   39.1740   32.9910   48.0480 N   0  0  0  0  0  0  0  0  0  0  0  0
   38.9080   31.8380   47.3580 C   0  0  0  0  0  0  0  0  0  0  0  0
   37.9200   31.0190   47.8220 N   0  0  0  0  0  0  0  0  0  0  0  0
   35.4895   31.2999   49.7171 H   0  0  0  0  0  0  0  0  0  0  0  0
   35.9401   28.8434   47.7193 H   0  0  0  0  0  0  0  0  0  0  0  0
   37.7111   28.8984   49.9665 H   0  0  0  0  0  0  0  0  0  0  0  0
   36.5730   28.6401   50.9848 H   0  0  0  0  0  0  0  0  0  0  0  0
   34.9046   27.3998   47.0242 H   0  0  0  0  0  0  0  0  0  0  0  0
   32.6761   26.3950   46.8867 H   0  0  0  0  0  0  0  0  0  0  0  0
   31.5956   28.7343   50.2443 H   0  0  0  0  0  0  0  0  0  0  0  0
   36.9157   32.7733   50.5561 H   0  0  0  0  0  0  0  0  0  0  0  0
   38.7374   34.2806   49.6948 H   0  0  0  0  0  0  0  0  0  0  0  0
   39.4765   31.5788   46.4527 H   0  0  0  0  0  0  0  0  0  0  0  0
  1  3  1  0
  2  1  1  0
  2  3  1  0
  4  2  1  0
  4 10  1  0
  5  4  1  0
  6  5  2  0
  6  7  1  0
  7  9  1  0
  8  7  2  0
  9 10  1  0
 10 11  2  0
 12  1  1  0
 12 13  2  0
 14 13  1  0
 15 14  2  0
 16 17  2  0
 16 15  1  0
 17 12  1  0
  1 18  1  1
  2 19  1  6
  3 20  1  0
  3 21  1  0
  5 22  1  0
  6 23  1  0
  9 24  1  0
 13 25  1  0
 14 26  1  0
 16 27  1  0
M  ISO  8  18  13  19  13  20  13  21  13  22  14  23  14  24   9  25  14
M  ISO  2  26  14  27  14
M  END
>  <minimizedAffinity>  (1) 
-5.36315441

>  <minimizedRMSD>  (1) 
1.12852764

$$$$
