
     RDKit          3D

 31 33  0  0  1  0  0  0  0  0999 V2000
   36.4200   31.1640   49.5410 C   0  0  1  0  0  0  0  0  0  0  0  0
   36.1780   29.7540   49.2180 C   0  0  1  0  0  0  0  0  0  0  0  0
   36.8270   30.0850   50.5050 C   0  0  0  0  0  0  0  0  0  0  0  0
   34.7230   29.4260   49.0610 C   0  0  0  0  0  0  0  0  0  0  0  0
   34.3060   30.0520   47.7430 C   0  0  0  0  0  0  0  0  0  0  0  0
   33.2710   29.2070   47.0390 C   0  0  0  0  0  0  0  0  0  0  0  0
   33.8720   27.9740   46.8420 O   0  0  0  0  0  0  0  0  0  0  0  0
   33.9950   27.2340   48.0020 C   0  0  0  0  0  0  0  0  0  0  0  0
   34.3680   27.9970   49.2120 C   0  0  0  0  0  0  0  0  0  0  0  0
   37.5580   31.9150   48.9190 C   0  0  0  0  0  0  0  0  0  0  0  0
   37.9980   33.0660   49.5940 C   0  0  0  0  0  0  0  0  0  0  0  0
   39.0450   33.7740   48.9870 C   0  0  0  0  0  0  0  0  0  0  0  0
   39.5590   33.3130   47.8050 N   0  0  0  0  0  0  0  0  0  0  0  0
   39.1010   32.1960   47.1900 C   0  0  0  0  0  0  0  0  0  0  0  0
   38.0870   31.4890   47.7550 N   0  0  0  0  0  0  0  0  0  0  0  0
   35.7689   32.0506   49.5364 H   0  0  0  0  0  0  0  0  0  0  0  0
   36.4601   29.0097   48.4588 H   0  0  0  0  0  0  0  0  0  0  0  0
   37.8915   29.8568   50.6623 H   0  0  0  0  0  0  0  0  0  0  0  0
   36.6273   29.8633   51.5638 H   0  0  0  0  0  0  0  0  0  0  0  0
   34.1472   29.8485   49.8976 H   0  0  0  0  0  0  0  0  0  0  0  0
   33.8833   31.0488   47.9373 H   0  0  0  0  0  0  0  0  0  0  0  0
   35.1931   30.1255   47.0968 H   0  0  0  0  0  0  0  0  0  0  0  0
   32.3717   29.1010   47.6635 H   0  0  0  0  0  0  0  0  0  0  0  0
   32.9501   29.6611   46.0899 H   0  0  0  0  0  0  0  0  0  0  0  0
   33.0287   26.7451   48.1951 H   0  0  0  0  0  0  0  0  0  0  0  0
   34.8223   26.5314   47.8234 H   0  0  0  0  0  0  0  0  0  0  0  0
   35.2362   27.4918   49.6604 H   0  0  0  0  0  0  0  0  0  0  0  0
   33.4501   28.0088   49.8181 H   0  0  0  0  0  0  0  0  0  0  0  0
   37.5475   33.3925   50.5429 H   0  0  0  0  0  0  0  0  0  0  0  0
   39.4470   34.6856   49.4533 H   0  0  0  0  0  0  0  0  0  0  0  0
   39.5464   31.8639   46.2406 H   0  0  0  0  0  0  0  0  0  0  0  0
  1  3  1  0
  2  1  1  0
  2  3  1  0
  4  9  1  0
  4  2  1  0
  5  4  1  0
  6  5  1  0
  7  6  1  0
  7  8  1  0
  8  9  1  0
 10  1  1  0
 10 11  2  0
 12 11  1  0
 13 12  2  0
 14 15  2  0
 14 13  1  0
 15 10  1  0
  1 16  1  1
  2 17  1  6
  3 18  1  0
  3 19  1  0
  4 20  1  0
  5 21  1  0
  5 22  1  0
  6 23  1  0
  6 24  1  0
  8 25  1  0
  8 26  1  0
  9 27  1  0
  9 28  1  0
 11 29  1  0
 12 30  1  0
 14 31  1  0
M  ISO  8  16  13  17  13  18  13  19  13  20  13  21  13  22  13  23  13
M  ISO  8  24  13  25  13  26  13  27  13  28  13  29  14  30  14  31  14
M  END
>  <minimizedAffinity>  (1) 
-5.32236958

>  <minimizedRMSD>  (1) 
1.06174231

$$$$
