
     RDKit          3D

 33 36  0  0  1  0  0  0  0  0999 V2000
   35.9070   30.6570   48.8820 C   0  0  1  0  0  0  0  0  0  0  0  0
   35.6880   29.5330   47.9770 C   0  0  1  0  0  0  0  0  0  0  0  0
   36.3160   29.2660   49.3260 C   0  0  0  0  0  0  0  0  0  0  0  0
   34.3980   28.9000   47.7570 C   0  0  0  0  0  0  0  0  0  0  0  0
   33.7810   28.5740   48.9580 C   0  0  0  0  0  0  0  0  0  0  0  0
   32.5470   27.9150   48.9960 C   0  0  0  0  0  0  0  0  0  0  0  0
   31.9400   27.5880   47.7780 C   0  0  0  0  0  0  0  0  0  0  0  0
   32.5370   27.9040   46.5790 C   0  0  0  0  0  0  0  0  0  0  0  0
   31.9800   27.6180   45.3450 C   0  0  0  0  0  0  0  0  0  0  0  0
   32.6190   27.9710   44.1510 C   0  0  0  0  0  0  0  0  0  0  0  0
   33.8480   28.6300   44.2170 C   0  0  0  0  0  0  0  0  0  0  0  0
   34.3920   28.9090   45.4530 C   0  0  0  0  0  0  0  0  0  0  0  0
   33.7470   28.5510   46.6010 C   0  0  0  0  0  0  0  0  0  0  0  0
   37.0970   31.5600   48.6660 C   0  0  0  0  0  0  0  0  0  0  0  0
   37.3670   32.5030   49.6960 C   0  0  0  0  0  0  0  0  0  0  0  0
   38.4500   33.3330   49.4700 C   0  0  0  0  0  0  0  0  0  0  0  0
   39.1730   33.2180   48.3360 N   0  0  0  0  0  0  0  0  0  0  0  0
   38.8960   32.3150   47.3720 C   0  0  0  0  0  0  0  0  0  0  0  0
   37.8470   31.4810   47.5470 N   0  0  0  0  0  0  0  0  0  0  0  0
   35.2384   31.4589   49.2283 H   0  0  0  0  0  0  0  0  0  0  0  0
   35.9396   29.4095   46.9133 H   0  0  0  0  0  0  0  0  0  0  0  0
   37.3797   28.9961   49.4010 H   0  0  0  0  0  0  0  0  0  0  0  0
   36.0993   28.6136   50.1847 H   0  0  0  0  0  0  0  0  0  0  0  0
   34.2752   28.8408   49.9038 H   0  0  0  0  0  0  0  0  0  0  0  0
   32.0688   27.6618   49.9537 H   0  0  0  0  0  0  0  0  0  0  0  0
   30.9697   27.0698   47.7791 H   0  0  0  0  0  0  0  0  0  0  0  0
   31.0105   27.1001   45.3014 H   0  0  0  0  0  0  0  0  0  0  0  0
   32.1617   27.7338   43.1791 H   0  0  0  0  0  0  0  0  0  0  0  0
   34.3746   28.9224   43.2966 H   0  0  0  0  0  0  0  0  0  0  0  0
   35.3601   29.4277   45.5145 H   0  0  0  0  0  0  0  0  0  0  0  0
   36.7568   32.5677   50.6090 H   0  0  0  0  0  0  0  0  0  0  0  0
   38.7237   34.0911   50.2186 H   0  0  0  0  0  0  0  0  0  0  0  0
   39.5116   32.2589   46.4621 H   0  0  0  0  0  0  0  0  0  0  0  0
  1  3  1  0
  2  1  1  0
  2  3  1  0
  4  2  1  0
  4  5  2  0
  5  6  1  0
  7  6  2  0
  8 13  2  0
  8  7  1  0
  9  8  1  0
 10 11  1  0
 10  9  2  0
 11 12  2  0
 12 13  1  0
 13  4  1  0
 14  1  1  0
 14 15  2  0
 16 15  1  0
 17 16  2  0
 18 19  2  0
 18 17  1  0
 19 14  1  0
  1 20  1  1
  2 21  1  6
  3 22  1  0
  3 23  1  0
  5 24  1  0
  6 25  1  0
  7 26  1  0
  9 27  1  0
 10 28  1  0
 11 29  1  0
 12 30  1  0
 15 31  1  0
 16 32  1  0
 18 33  1  0
M  ISO  8  20  13  21  13  22  13  23  13  24  14  25  14  26  14  27  14
M  ISO  6  28  14  29  14  30  14  31  14  32  14  33  14
M  END
>  <minimizedAffinity>  (1) 
-5.31628418

>  <minimizedRMSD>  (1) 
2.88954091

$$$$
