
     RDKit          3D

 24 26  0  0  1  0  0  0  0  0999 V2000
   36.8050   31.0750   50.2230 C   0  0  1  0  0  0  0  0  0  0  0  0
   36.6710   29.6200   50.2560 C   0  0  1  0  0  0  0  0  0  0  0  0
   37.5310   30.2740   51.2920 C   0  0  0  0  0  0  0  0  0  0  0  0
   37.7540   31.7230   49.2410 C   0  0  0  0  0  0  0  0  0  0  0  0
   38.2120   33.0150   49.5530 C   0  0  0  0  0  0  0  0  0  0  0  0
   39.0610   33.5950   48.6260 C   0  0  0  0  0  0  0  0  0  0  0  0
   39.4090   32.9170   47.4840 N   0  0  0  0  0  0  0  0  0  0  0  0
   38.9420   31.6730   47.2260 C   0  0  0  0  0  0  0  0  0  0  0  0
   38.1070   31.0730   48.1140 N   0  0  0  0  0  0  0  0  0  0  0  0
   35.3460   29.0390   50.6070 C   0  0  0  0  0  0  0  0  0  0  0  0
   34.1150   29.5690   49.8970 C   0  0  0  0  0  0  0  0  0  0  0  0
   34.6590   28.2630   49.4790 C   0  0  0  0  0  0  0  0  0  0  0  0
   36.0582   31.8807   50.1670 H   0  0  0  0  0  0  0  0  0  0  0  0
   36.8470   28.8003   49.5439 H   0  0  0  0  0  0  0  0  0  0  0  0
   38.6249   30.1635   51.2565 H   0  0  0  0  0  0  0  0  0  0  0  0
   37.5754   30.2821   52.3911 H   0  0  0  0  0  0  0  0  0  0  0  0
   37.9142   33.5330   50.4766 H   0  0  0  0  0  0  0  0  0  0  0  0
   39.4590   34.6047   48.8054 H   0  0  0  0  0  0  0  0  0  0  0  0
   39.2366   31.1513   46.3035 H   0  0  0  0  0  0  0  0  0  0  0  0
   35.6165   28.8686   51.6595 H   0  0  0  0  0  0  0  0  0  0  0  0
   33.1543   29.6142   50.4309 H   0  0  0  0  0  0  0  0  0  0  0  0
   33.8742   30.5049   49.3715 H   0  0  0  0  0  0  0  0  0  0  0  0
   34.1053   27.3401   49.7063 H   0  0  0  0  0  0  0  0  0  0  0  0
   34.9894   27.8318   48.5225 H   0  0  0  0  0  0  0  0  0  0  0  0
  1  2  1  0
  1  3  1  0
  2 10  1  0
  2  3  1  0
  4  5  2  0
  4  1  1  0
  6  5  1  0
  7  6  2  0
  8  7  1  0
  8  9  2  0
  9  4  1  0
 11 10  1  0
 12 11  1  0
 12 10  1  0
  1 13  1  1
  2 14  1  6
  3 15  1  0
  3 16  1  0
  5 17  1  0
  6 18  1  0
  8 19  1  0
 10 20  1  0
 11 21  1  0
 11 22  1  0
 12 23  1  0
 12 24  1  0
M  ISO  8  13  13  14  13  15  13  16  13  17  14  18  14  19  14  20  13
M  ISO  4  21  13  22  13  23  13  24  13
M  END
>  <minimizedAffinity>  (1) 
-5.16394186

>  <minimizedRMSD>  (1) 
1.07887506

$$$$
