
     RDKit          3D

 46 49  0  0  1  0  0  0  0  0999 V2000
   33.7900   29.0020   47.3010 C   0  0  2  0  0  0  0  0  0  0  0  0
   34.5870   28.1720   48.2970 C   0  0  2  0  0  0  0  0  0  0  0  0
   33.7420   27.9150   49.3310 O   0  0  0  0  0  0  0  0  0  0  0  0
   32.4460   27.9900   48.9200 C   0  0  0  0  0  0  0  0  0  0  0  0
   32.4360   28.2930   47.4330 C   0  0  1  0  0  0  0  0  0  0  0  0
   35.6790   30.4040   49.0180 C   0  0  1  0  0  0  0  0  0  0  0  0
   35.7620   28.9940   48.7190 C   0  0  1  0  0  0  0  0  0  0  0  0
   35.9640   29.4000   50.1420 C   0  0  0  0  0  0  0  0  0  0  0  0
   36.8600   31.3300   48.7720 C   0  0  0  0  0  0  0  0  0  0  0  0
   37.1000   32.3200   49.7250 C   0  0  0  0  0  0  0  0  0  0  0  0
   38.1730   33.1580   49.4330 C   0  0  0  0  0  0  0  0  0  0  0  0
   38.9080   32.9970   48.2970 N   0  0  0  0  0  0  0  0  0  0  0  0
   38.6350   32.0180   47.4010 C   0  0  0  0  0  0  0  0  0  0  0  0
   37.5990   31.1770   47.6440 N   0  0  0  0  0  0  0  0  0  0  0  0
   34.2650   28.9250   46.0060 O   0  0  0  0  0  0  0  0  0  0  0  0
   31.4050   29.0880   47.0360 O   0  0  0  0  0  0  0  0  0  0  0  0
   29.3990   28.2960   48.1230 C   0  0  2  0  0  0  0  0  0  0  0  0
   30.1960   28.4860   46.8530 C   0  0  1  0  0  0  0  0  0  0  0  0
   29.2890   29.1720   45.8720 C   0  0  0  0  0  0  0  0  0  0  0  0
   28.0920   28.4960   45.8090 O   0  0  0  0  0  0  0  0  0  0  0  0
   28.1160   27.2300   46.3510 C   0  0  0  0  0  0  0  0  0  0  0  0
   28.3910   27.1980   47.8410 C   0  0  2  0  0  0  0  0  0  0  0  0
   28.6380   29.4660   48.3160 O   0  0  0  0  0  0  0  0  0  0  0  0
   27.2270   27.3810   48.5840 O   0  0  0  0  0  0  0  0  0  0  0  0
   33.8053   30.0835   47.5013 H   0  0  0  0  0  0  0  0  0  0  0  0
   34.9634   27.2219   47.8900 H   0  0  0  0  0  0  0  0  0  0  0  0
   31.9398   27.0316   49.1080 H   0  0  0  0  0  0  0  0  0  0  0  0
   31.9178   28.7813   49.4722 H   0  0  0  0  0  0  0  0  0  0  0  0
   32.2976   27.4037   46.8005 H   0  0  0  0  0  0  0  0  0  0  0  0
   34.9257   31.1591   48.7492 H   0  0  0  0  0  0  0  0  0  0  0  0
   36.3493   28.4148   47.9913 H   0  0  0  0  0  0  0  0  0  0  0  0
   36.9617   29.3452   50.6019 H   0  0  0  0  0  0  0  0  0  0  0  0
   35.5150   29.1449   51.1132 H   0  0  0  0  0  0  0  0  0  0  0  0
   36.4906   32.4298   50.6341 H   0  0  0  0  0  0  0  0  0  0  0  0
   38.4324   33.9658   50.1331 H   0  0  0  0  0  0  0  0  0  0  0  0
   39.2436   31.9071   46.4914 H   0  0  0  0  0  0  0  0  0  0  0  0
   35.2421   28.7666   46.0218 H   0  0  0  0  0  0  0  0  0  0  0  0
   30.0515   28.0722   48.9798 H   0  0  0  0  0  0  0  0  0  0  0  0
   30.5041   27.5110   46.4475 H   0  0  0  0  0  0  0  0  0  0  0  0
   29.1097   30.2068   46.1990 H   0  0  0  0  0  0  0  0  0  0  0  0
   29.7602   29.1799   44.8781 H   0  0  0  0  0  0  0  0  0  0  0  0
   27.1387   26.7586   46.1702 H   0  0  0  0  0  0  0  0  0  0  0  0
   28.9440   26.6933   45.8648 H   0  0  0  0  0  0  0  0  0  0  0  0
   28.7865   26.2151   48.1370 H   0  0  0  0  0  0  0  0  0  0  0  0
   28.5295   29.6328   49.2858 H   0  0  0  0  0  0  0  0  0  0  0  0
   27.4431   27.3470   49.5495 H   0  0  0  0  0  0  0  0  0  0  0  0
  1  5  1  0
  1  2  1  0
  2  7  1  0
  2  3  1  0
  4  3  1  0
  5  4  1  0
  6  8  1  0
  7  6  1  0
  7  8  1  0
  9  6  1  0
  9 10  2  0
 11 10  1  0
 12 11  2  0
 13 14  2  0
 13 12  1  0
 14  9  1  0
 15  1  1  0
 16  5  1  0
 17 23  1  0
 18 16  1  0
 18 17  1  0
 19 18  1  0
 20 19  1  0
 20 21  1  0
 21 22  1  0
 22 17  1  0
 22 24  1  0
  1 25  1  1
  2 26  1  6
  4 27  1  0
  4 28  1  0
  5 29  1  6
  6 30  1  1
  7 31  1  6
  8 32  1  0
  8 33  1  0
 10 34  1  0
 11 35  1  0
 13 36  1  0
 15 37  1  0
 17 38  1  1
 18 39  1  6
 19 40  1  0
 19 41  1  0
 21 42  1  0
 21 43  1  0
 22 44  1  1
 23 45  1  0
 24 46  1  0
M  ISO  8  25  13  26  13  27  13  28  13  29  13  30  13  31  13  32  13
M  ISO  8  33  13  34  14  35  14  36  14  37   3  38  13  39  13  40  13
M  ISO  6  41  13  42  13  43  13  44  13  45   3  46   3
M  END
>  <minimizedAffinity>  (1) 
-5.81792164

>  <minimizedRMSD>  (1) 
1.71943462

$$$$
