
     RDKit          3D

 39 42  0  0  1  0  0  0  0  0999 V2000
   32.3940   28.8600   47.0460 C   0  0  2  0  0  0  0  0  0  0  0  0
   33.2990   27.7280   47.5050 C   0  0  2  0  0  0  0  0  0  0  0  0
   32.6050   27.0830   48.4890 O   0  0  0  0  0  0  0  0  0  0  0  0
   31.2690   27.2830   48.3460 C   0  0  0  0  0  0  0  0  0  0  0  0
   31.0440   28.1410   47.1230 C   0  0  1  0  0  0  0  0  0  0  0  0
   34.5920   29.6320   48.6880 C   0  0  1  0  0  0  0  0  0  0  0  0
   34.5550   28.3500   48.0260 C   0  0  1  0  0  0  0  0  0  0  0  0
   34.8850   28.3500   49.4830 C   0  0  0  0  0  0  0  0  0  0  0  0
   35.8160   30.5310   48.5970 C   0  0  0  0  0  0  0  0  0  0  0  0
   36.1640   31.2690   49.7270 C   0  0  0  0  0  0  0  0  0  0  0  0
   37.2690   32.0850   49.5820 C   0  0  0  0  0  0  0  0  0  0  0  0
   37.9550   32.1450   48.4000 N   0  0  0  0  0  0  0  0  0  0  0  0
   37.5810   31.4090   47.3210 C   0  0  0  0  0  0  0  0  0  0  0  0
   36.4970   30.5970   47.4390 N   0  0  0  0  0  0  0  0  0  0  0  0
   32.6610   29.3080   45.7670 O   0  0  0  0  0  0  0  0  0  0  0  0
   29.9990   29.0160   47.2220 O   0  0  0  0  0  0  0  0  0  0  0  0
   28.7910   28.8550   47.8630 C   0  0  0  0  0  0  0  0  0  0  0  0
   27.8910   28.0470   47.2240 C   0  0  0  0  0  0  0  0  0  0  0  0
   26.6280   27.7510   47.6860 C   0  0  0  0  0  0  0  0  0  0  0  0
   26.2450   28.3170   48.8930 C   0  0  0  0  0  0  0  0  0  0  0  0
   27.1620   29.1310   49.5290 C   0  0  0  0  0  0  0  0  0  0  0  0
   28.3940   29.3970   49.0410 N   0  0  0  0  0  0  0  0  0  0  0  0
   32.4902   29.7809   47.6399 H   0  0  0  0  0  0  0  0  0  0  0  0
   33.5714   27.0161   46.7119 H   0  0  0  0  0  0  0  0  0  0  0  0
   30.7599   26.3161   48.2203 H   0  0  0  0  0  0  0  0  0  0  0  0
   30.8638   27.7827   49.2383 H   0  0  0  0  0  0  0  0  0  0  0  0
   30.7595   27.5609   46.2327 H   0  0  0  0  0  0  0  0  0  0  0  0
   33.8763   30.4673   48.6888 H   0  0  0  0  0  0  0  0  0  0  0  0
   35.0480   27.9577   47.1243 H   0  0  0  0  0  0  0  0  0  0  0  0
   35.9064   28.1256   49.8243 H   0  0  0  0  0  0  0  0  0  0  0  0
   34.4891   27.8672   50.3886 H   0  0  0  0  0  0  0  0  0  0  0  0
   35.5983   31.2060   50.6683 H   0  0  0  0  0  0  0  0  0  0  0  0
   37.6034   32.6976   50.4323 H   0  0  0  0  0  0  0  0  0  0  0  0
   38.1409   31.4686   46.3761 H   0  0  0  0  0  0  0  0  0  0  0  0
   33.1673   30.1575   45.8139 H   0  0  0  0  0  0  0  0  0  0  0  0
   28.1998   27.5994   46.2678 H   0  0  0  0  0  0  0  0  0  0  0  0
   25.9510   27.0931   47.1213 H   0  0  0  0  0  0  0  0  0  0  0  0
   25.2520   28.1255   49.3259 H   0  0  0  0  0  0  0  0  0  0  0  0
   26.8733   29.5886   50.4867 H   0  0  0  0  0  0  0  0  0  0  0  0
  1  5  1  0
  1  2  1  0
  2  7  1  0
  2  3  1  0
  4  3  1  0
  5 16  1  0
  5  4  1  0
  6  8  1  0
  7  6  1  0
  7  8  1  0
  9  6  1  0
  9 10  2  0
 11 10  1  0
 12 11  2  0
 13 14  2  0
 13 12  1  0
 14  9  1  0
 15  1  1  0
 16 17  1  0
 17 22  2  0
 18 19  2  0
 18 17  1  0
 19 20  1  0
 20 21  2  0
 22 21  1  0
  1 23  1  1
  2 24  1  6
  4 25  1  0
  4 26  1  0
  5 27  1  6
  6 28  1  1
  7 29  1  6
  8 30  1  0
  8 31  1  0
 10 32  1  0
 11 33  1  0
 13 34  1  0
 15 35  1  0
 18 36  1  0
 19 37  1  0
 20 38  1  0
 21 39  1  0
M  ISO  8  23  13  24  13  25  13  26  13  27  13  28  13  29  13  30  13
M  ISO  8  31  13  32  14  33  14  34  14  35   3  36  14  37  14  38  14
M  ISO  1  39  14
M  END
>  <minimizedAffinity>  (1) 
-5.77511072

>  <minimizedRMSD>  (1) 
2.808357

$$$$
