
     RDKit          3D

 43 47  0  0  1  0  0  0  0  0999 V2000
   33.7250   29.0130   47.1310 C   0  0  2  0  0  0  0  0  0  0  0  0
   34.4280   28.1450   48.1610 C   0  0  2  0  0  0  0  0  0  0  0  0
   33.5280   27.9670   49.1740 O   0  0  0  0  0  0  0  0  0  0  0  0
   32.2530   28.1240   48.7130 C   0  0  0  0  0  0  0  0  0  0  0  0
   32.3180   28.4180   47.2300 C   0  0  1  0  0  0  0  0  0  0  0  0
   35.6110   30.2890   49.0000 C   0  0  1  0  0  0  0  0  0  0  0  0
   35.6350   28.8950   48.6250 C   0  0  1  0  0  0  0  0  0  0  0  0
   35.8560   29.2130   50.0690 C   0  0  0  0  0  0  0  0  0  0  0  0
   36.8300   31.1770   48.8050 C   0  0  0  0  0  0  0  0  0  0  0  0
   37.0120   32.2190   49.7150 C   0  0  0  0  0  0  0  0  0  0  0  0
   38.1270   33.0120   49.4700 C   0  0  0  0  0  0  0  0  0  0  0  0
   38.9600   32.7630   48.4100 N   0  0  0  0  0  0  0  0  0  0  0  0
   38.7370   31.7370   47.5560 C   0  0  0  0  0  0  0  0  0  0  0  0
   37.6610   30.9380   47.7580 N   0  0  0  0  0  0  0  0  0  0  0  0
   34.2420   28.8870   45.8560 O   0  0  0  0  0  0  0  0  0  0  0  0
   31.3610   29.2770   46.7640 O   0  0  0  0  0  0  0  0  0  0  0  0
   30.1400   28.2840   44.8530 N   0  0  0  0  0  0  0  0  0  0  0  0
   30.2450   28.8000   46.0900 C   0  0  0  0  0  0  0  0  0  0  0  0
   28.9890   28.7650   46.5820 N   0  0  0  0  0  0  0  0  0  0  0  0
   28.1310   28.2460   45.6820 C   0  0  0  0  0  0  0  0  0  0  0  0
   26.7740   27.9960   45.6860 C   0  0  0  0  0  0  0  0  0  0  0  0
   26.1410   27.4530   44.6230 N   0  0  0  0  0  0  0  0  0  0  0  0
   26.8940   27.1540   43.5350 C   0  0  0  0  0  0  0  0  0  0  0  0
   28.2230   27.3930   43.5150 N   0  0  0  0  0  0  0  0  0  0  0  0
   28.8800   27.9330   44.5580 C   0  0  0  0  0  0  0  0  0  0  0  0
   26.0130   28.3220   46.8450 N   0  0  0  0  0  0  0  0  0  0  0  0
   33.8095   30.0940   47.3164 H   0  0  0  0  0  0  0  0  0  0  0  0
   34.7531   27.1681   47.7738 H   0  0  0  0  0  0  0  0  0  0  0  0
   31.6789   27.2015   48.8847 H   0  0  0  0  0  0  0  0  0  0  0  0
   31.7572   28.9510   49.2424 H   0  0  0  0  0  0  0  0  0  0  0  0
   32.1274   27.5299   46.6095 H   0  0  0  0  0  0  0  0  0  0  0  0
   34.8894   31.0875   48.7728 H   0  0  0  0  0  0  0  0  0  0  0  0
   36.1969   28.3329   47.8645 H   0  0  0  0  0  0  0  0  0  0  0  0
   36.8512   29.0918   50.5216 H   0  0  0  0  0  0  0  0  0  0  0  0
   35.3984   28.9239   51.0266 H   0  0  0  0  0  0  0  0  0  0  0  0
   36.3285   32.3984   50.5580 H   0  0  0  0  0  0  0  0  0  0  0  0
   38.3454   33.8565   50.1402 H   0  0  0  0  0  0  0  0  0  0  0  0
   39.4180   31.5545   46.7116 H   0  0  0  0  0  0  0  0  0  0  0  0
   35.2024   28.6529   45.9110 H   0  0  0  0  0  0  0  0  0  0  0  0
   30.9346   28.1715   44.2074 H   0  0  0  0  0  0  0  0  0  0  0  0
   26.4128   26.7083   42.6520 H   0  0  0  0  0  0  0  0  0  0  0  0
   24.9991   28.1413   46.8630 H   0  0  0  0  0  0  0  0  0  0  0  0
   26.4765   28.7385   47.6651 H   0  0  0  0  0  0  0  0  0  0  0  0
  1  5  1  0
  1  2  1  0
  2  7  1  0
  2  3  1  0
  4  3  1  0
  5  4  1  0
  6  8  1  0
  7  6  1  0
  7  8  1  0
  9  6  1  0
  9 10  2  0
 11 10  1  0
 12 11  2  0
 13 14  2  0
 13 12  1  0
 14  9  1  0
 15  1  1  0
 16  5  1  0
 17 18  1  0
 18 19  2  0
 18 16  1  0
 20 21  2  0
 20 19  1  0
 21 26  1  0
 22 21  1  0
 23 22  2  0
 24 23  1  0
 24 25  2  0
 25 17  1  0
 25 20  1  0
  1 27  1  1
  2 28  1  6
  4 29  1  0
  4 30  1  0
  5 31  1  6
  6 32  1  1
  7 33  1  6
  8 34  1  0
  8 35  1  0
 10 36  1  0
 11 37  1  0
 13 38  1  0
 15 39  1  0
 17 40  1  0
 23 41  1  0
 26 42  1  0
 26 43  1  0
M  ISO  8  27  13  28  13  29  13  30  13  31  13  32  13  33  13  34  13
M  ISO  7  35  13  36  14  37  14  38  14  39   3  40   9  41  14
M  END
>  <minimizedAffinity>  (1) 
-5.70073128

>  <minimizedRMSD>  (1) 
1.59288657

$$$$
