
     RDKit          3D

 16 16  0  0  0  0  0  0  0  0999 V2000
   35.6460   30.4700   49.7450 C   0  0  0  0  0  0  0  0  0  0  0  0
   35.9710   29.4700   50.6750 C   0  0  0  0  0  0  0  0  0  0  0  0
   37.2350   29.5070   51.2620 C   0  0  0  0  0  0  0  0  0  0  0  0
   38.0960   30.5050   50.9100 N   0  0  0  0  0  0  0  0  0  0  0  0
   37.7490   31.4600   50.0030 C   0  0  0  0  0  0  0  0  0  0  0  0
   36.5250   31.4390   49.4230 N   0  0  0  0  0  0  0  0  0  0  0  0
   34.4400   30.5860   49.0680 O   0  0  0  0  0  0  0  0  0  0  0  0
   35.5020   30.1520   46.6390 O   0  0  0  0  0  0  0  0  0  0  0  0
   34.2340   30.0210   47.4630 P   0  0  0  0  0  0  0  0  0  0  0  0
   33.7520   28.3960   47.5870 O   0  0  0  0  0  0  0  0  0  0  0  0
   33.0520   30.9440   46.6820 O   0  0  0  0  0  0  0  0  0  0  0  0
   35.2497   28.6806   50.9330 H   0  0  0  0  0  0  0  0  0  0  0  0
   37.5331   28.7444   51.9966 H   0  0  0  0  0  0  0  0  0  0  0  0
   38.4659   32.2519   49.7403 H   0  0  0  0  0  0  0  0  0  0  0  0
   33.6778   28.1458   48.5420 H   0  0  0  0  0  0  0  0  0  0  0  0
   32.4815   31.3895   47.3574 H   0  0  0  0  0  0  0  0  0  0  0  0
  1  2  2  0
  2  3  1  0
  4  3  2  0
  5  4  1  0
  6  1  1  0
  6  5  2  0
  7  1  1  0
  8  9  2  0
  9 10  1  0
  9  7  1  0
 11  9  1  0
  2 12  1  0
  3 13  1  0
  5 14  1  0
 10 15  1  0
 11 16  1  0
M  ISO  5  12  14  13  14  14  14  15   3  16   3
M  END
>  <minimizedAffinity>  (1) 
-3.83341861

>  <minimizedRMSD>  (1) 
5.76867676

$$$$
