
     RDKit          3D

 37 40  0  0  1  0  0  0  0  0999 V2000
   32.5110   28.8450   46.9570 C   0  0  2  0  0  0  0  0  0  0  0  0
   33.3160   27.7560   47.6460 C   0  0  2  0  0  0  0  0  0  0  0  0
   32.5360   27.3050   48.6630 O   0  0  0  0  0  0  0  0  0  0  0  0
   31.2200   27.5610   48.4150 C   0  0  0  0  0  0  0  0  0  0  0  0
   31.1150   28.2200   47.0590 C   0  0  1  0  0  0  0  0  0  0  0  0
   34.6260   29.6850   48.7650 C   0  0  1  0  0  0  0  0  0  0  0  0
   34.5780   28.3840   48.1420 C   0  0  1  0  0  0  0  0  0  0  0  0
   34.9170   28.4270   49.5950 C   0  0  0  0  0  0  0  0  0  0  0  0
   35.8540   30.5740   48.6410 C   0  0  0  0  0  0  0  0  0  0  0  0
   36.2240   31.3270   49.7560 C   0  0  0  0  0  0  0  0  0  0  0  0
   37.3320   32.1330   49.5820 C   0  0  0  0  0  0  0  0  0  0  0  0
   38.0010   32.1710   48.3930 N   0  0  0  0  0  0  0  0  0  0  0  0
   37.6080   31.4200   47.3270 C   0  0  0  0  0  0  0  0  0  0  0  0
   36.5220   30.6170   47.4590 N   0  0  0  0  0  0  0  0  0  0  0  0
   32.8750   29.0660   45.6430 O   0  0  0  0  0  0  0  0  0  0  0  0
   30.1220   29.1510   46.9500 O   0  0  0  0  0  0  0  0  0  0  0  0
   28.8530   28.9540   47.4740 C   0  0  0  0  0  0  0  0  0  0  0  0
   27.9560   28.0980   46.8690 C   0  0  0  0  0  0  0  0  0  0  0  0
   26.7880   28.0630   47.5510 N   0  0  0  0  0  0  0  0  0  0  0  0
   26.9550   28.9140   48.6030 C   0  0  0  0  0  0  0  0  0  0  0  0
   28.1780   29.4380   48.5530 N   0  0  0  0  0  0  0  0  0  0  0  0
   32.6324   29.8430   47.4033 H   0  0  0  0  0  0  0  0  0  0  0  0
   33.5870   26.9149   46.9909 H   0  0  0  0  0  0  0  0  0  0  0  0
   30.6507   26.6198   48.4168 H   0  0  0  0  0  0  0  0  0  0  0  0
   30.8083   28.2221   49.1919 H   0  0  0  0  0  0  0  0  0  0  0  0
   30.8441   27.5201   46.2548 H   0  0  0  0  0  0  0  0  0  0  0  0
   33.9147   30.5239   48.7447 H   0  0  0  0  0  0  0  0  0  0  0  0
   35.0633   27.9603   47.2504 H   0  0  0  0  0  0  0  0  0  0  0  0
   35.9393   28.2076   49.9365 H   0  0  0  0  0  0  0  0  0  0  0  0
   34.5242   27.9740   50.5172 H   0  0  0  0  0  0  0  0  0  0  0  0
   35.6722   31.2819   50.7065 H   0  0  0  0  0  0  0  0  0  0  0  0
   37.6821   32.7564   50.4180 H   0  0  0  0  0  0  0  0  0  0  0  0
   38.1605   31.4635   46.3768 H   0  0  0  0  0  0  0  0  0  0  0  0
   33.7209   29.5796   45.6168 H   0  0  0  0  0  0  0  0  0  0  0  0
   28.1626   27.5216   45.9552 H   0  0  0  0  0  0  0  0  0  0  0  0
   25.9494   27.5100   47.3234 H   0  0  0  0  0  0  0  0  0  0  0  0
   26.1990   29.1330   49.3714 H   0  0  0  0  0  0  0  0  0  0  0  0
  1  5  1  0
  1  2  1  0
  2  7  1  0
  2  3  1  0
  4  3  1  0
  5  4  1  0
  6  8  1  0
  7  6  1  0
  7  8  1  0
  9  6  1  0
  9 10  2  0
 11 10  1  0
 12 11  2  0
 13 14  2  0
 13 12  1  0
 14  9  1  0
 15  1  1  0
 16  5  1  0
 16 17  1  0
 17 21  1  0
 18 17  2  0
 18 19  1  0
 19 20  1  0
 21 20  2  0
  1 22  1  1
  2 23  1  6
  4 24  1  0
  4 25  1  0
  5 26  1  6
  6 27  1  1
  7 28  1  6
  8 29  1  0
  8 30  1  0
 10 31  1  0
 11 32  1  0
 13 33  1  0
 15 34  1  0
 18 35  1  0
 19 36  1  0
 20 37  1  0
M  ISO  8  22  13  23  13  24  13  25  13  26  13  27  13  28  13  29  13
M  ISO  8  30  13  31  14  32  14  33  14  34   3  35  14  36   9  37  14
M  END
>  <minimizedAffinity>  (1) 
-5.37070179

>  <minimizedRMSD>  (1) 
2.27955365

$$$$
