
     RDKit          3D

 29 31  0  0  0  0  0  0  0  0999 V2000
   33.9460   27.9540   45.6380 O   0  0  0  0  0  0  0  0  0  0  0  0
   33.3410   27.9490   47.0300 P   0  0  1  0  0  0  0  0  0  0  0  0
   34.0100   26.6760   47.9530 O   0  0  0  0  0  0  0  0  0  0  0  0
   33.6950   29.3800   47.8990 O   0  0  0  0  0  0  0  0  0  0  0  0
   34.7020   29.4470   48.8470 C   0  0  0  0  0  0  0  0  0  0  0  0
   34.5170   29.2780   50.2280 C   0  0  0  0  0  0  0  0  0  0  0  0
   35.6190   29.3720   51.0610 C   0  0  0  0  0  0  0  0  0  0  0  0
   36.8450   29.6280   50.5000 N   0  0  0  0  0  0  0  0  0  0  0  0
   36.9870   29.7870   49.1450 C   0  0  0  0  0  0  0  0  0  0  0  0
   35.9180   29.6960   48.3330 N   0  0  0  0  0  0  0  0  0  0  0  0
   31.6800   27.7630   46.8480 O   0  0  0  0  0  0  0  0  0  0  0  0
   30.7210   27.6060   49.0920 C   0  0  0  0  0  0  0  0  0  0  0  0
   30.7020   28.0210   47.7760 C   0  0  0  0  0  0  0  0  0  0  0  0
   29.6320   28.7670   47.2710 C   0  0  0  0  0  0  0  0  0  0  0  0
   28.5900   29.0790   48.1390 C   0  0  0  0  0  0  0  0  0  0  0  0
   27.4390   29.7570   48.0020 N   0  0  0  0  0  0  0  0  0  0  0  0
   26.7600   29.7750   49.1720 C   0  0  0  0  0  0  0  0  0  0  0  0
   27.5030   29.0850   50.0820 N   0  0  0  0  0  0  0  0  0  0  0  0
   28.6310   28.6540   49.4500 C   0  0  0  0  0  0  0  0  0  0  0  0
   29.6810   27.9110   49.9770 C   0  0  0  0  0  0  0  0  0  0  0  0
   33.9047   26.8764   48.9168 H   0  0  0  0  0  0  0  0  0  0  0  0
   33.5174   29.0751   50.6399 H   0  0  0  0  0  0  0  0  0  0  0  0
   35.5141   29.2443   52.1485 H   0  0  0  0  0  0  0  0  0  0  0  0
   37.9809   29.9901   48.7196 H   0  0  0  0  0  0  0  0  0  0  0  0
   31.5775   27.0191   49.4553 H   0  0  0  0  0  0  0  0  0  0  0  0
   29.6147   29.0964   46.2216 H   0  0  0  0  0  0  0  0  0  0  0  0
   27.1184   30.2006   47.1295 H   0  0  0  0  0  0  0  0  0  0  0  0
   25.7884   30.2572   49.3547 H   0  0  0  0  0  0  0  0  0  0  0  0
   29.6936   27.5825   51.0267 H   0  0  0  0  0  0  0  0  0  0  0  0
  2  1  2  0
  2  4  1  0
  2  3  1  0
  4  5  1  0
  5  6  2  0
  6  7  1  0
  8  7  2  0
  9  8  1  0
 10  5  1  0
 10  9  2  0
 11  2  1  0
 11 13  1  0
 12 20  2  0
 13 12  1  0
 14 13  2  0
 14 15  1  0
 15 19  2  0
 16 15  1  0
 16 17  1  0
 17 18  2  0
 19 20  1  0
 19 18  1  0
  3 21  1  0
  6 22  1  0
  7 23  1  0
  9 24  1  0
 12 25  1  0
 14 26  1  0
 16 27  1  0
 17 28  1  0
 20 29  1  0
M  ISO  8  21   3  22  14  23  14  24  14  25  14  26  14  27   9  28  14
M  ISO  1  29  14
M  END
>  <minimizedAffinity>  (1) 
-5.06759977

>  <minimizedRMSD>  (1) 
2.83030605

$$$$
