
     RDKit          3D

 27 28  0  0  1  0  0  0  0  0999 V2000
   37.6440   31.1620   47.7970 N   0  0  0  0  0  0  0  0  0  0  0  0
   37.0460   30.9590   46.4670 C   0  0  0  0  0  0  0  0  0  0  0  0
   37.9030   31.4680   45.3720 C   0  0  0  0  0  0  0  0  0  0  0  0
   39.2840   31.4670   45.7940 N   0  0  0  0  0  0  0  0  0  0  0  0
   39.3780   32.5390   46.7700 C   0  0  0  0  0  0  0  0  0  0  0  0
   38.8370   31.9400   48.0480 C   0  0  1  0  0  0  0  0  0  0  0  0
   37.7250   29.8380   49.8560 C   0  0  0  0  0  0  0  0  0  0  0  0
   36.9980   30.5440   48.8970 C   0  0  0  0  0  0  0  0  0  0  0  0
   35.6260   30.6090   49.0750 C   0  0  0  0  0  0  0  0  0  0  0  0
   35.0500   29.9980   50.1530 N   0  0  0  0  0  0  0  0  0  0  0  0
   35.8140   29.3270   51.0500 C   0  0  0  0  0  0  0  0  0  0  0  0
   37.1690   29.2310   50.9230 N   0  0  0  0  0  0  0  0  0  0  0  0
   38.6290   33.0250   49.0910 C   0  0  0  0  0  0  0  0  0  0  0  0
   39.1410   32.5180   50.2960 F   0  0  0  0  0  0  0  0  0  0  0  0
   39.4000   34.1150   48.7340 F   0  0  0  0  0  0  0  0  0  0  0  0
   37.3330   33.3790   49.2690 F   0  0  0  0  0  0  0  0  0  0  0  0
   36.8832   29.8818   46.3149 H   0  0  0  0  0  0  0  0  0  0  0  0
   36.1008   31.5210   46.4381 H   0  0  0  0  0  0  0  0  0  0  0  0
   37.5994   32.4940   45.1169 H   0  0  0  0  0  0  0  0  0  0  0  0
   37.7911   30.8196   44.4905 H   0  0  0  0  0  0  0  0  0  0  0  0
   39.5311   30.5638   46.2230 H   0  0  0  0  0  0  0  0  0  0  0  0
   40.4237   32.8541   46.9011 H   0  0  0  0  0  0  0  0  0  0  0  0
   38.8199   33.4349   46.4604 H   0  0  0  0  0  0  0  0  0  0  0  0
   39.5783   31.2373   48.4562 H   0  0  0  0  0  0  0  0  0  0  0  0
   38.8163   29.7730   49.7339 H   0  0  0  0  0  0  0  0  0  0  0  0
   35.0013   31.1514   48.3500 H   0  0  0  0  0  0  0  0  0  0  0  0
   35.3250   28.8439   51.9088 H   0  0  0  0  0  0  0  0  0  0  0  0
  1  6  1  0
  1  8  1  0
  2  1  1  0
  3  4  1  0
  3  2  1  0
  4  5  1  0
  5  6  1  0
  6 13  1  0
  7 12  2  0
  8  9  2  0
  8  7  1  0
  9 10  1  0
 10 11  2  0
 12 11  1  0
 13 16  1  0
 13 14  1  0
 15 13  1  0
  2 17  1  0
  2 18  1  0
  3 19  1  0
  3 20  1  0
  4 21  1  0
  5 22  1  0
  5 23  1  0
  6 24  1  1
  7 25  1  0
  9 26  1  0
 11 27  1  0
M  ISO  8  17  13  18  13  19  13  20  13  21   5  22  13  23  13  24  13
M  ISO  3  25  14  26  14  27  14
M  END
>  <minimizedAffinity>  (1) 
-5.24143648

>  <minimizedRMSD>  (1) 
0.969599426

$$$$
