
     RDKit          3D

 34 36  0  0  1  0  0  0  0  0999 V2000
   36.5520   30.4450   47.2160 N   0  0  0  0  0  0  0  0  0  0  0  0
   35.3490   30.2110   46.4280 C   0  0  0  0  0  0  0  0  0  0  0  0
   35.5870   30.2760   44.9680 C   0  0  0  0  0  0  0  0  0  0  0  0
   36.9720   30.1440   44.6580 N   0  0  0  0  0  0  0  0  0  0  0  0
   37.6490   31.3180   45.2130 C   0  0  0  0  0  0  0  0  0  0  0  0
   37.7760   31.0050   46.6740 C   0  0  1  0  0  0  0  0  0  0  0  0
   37.6970   29.6480   49.2560 C   0  0  0  0  0  0  0  0  0  0  0  0
   36.5530   30.1130   48.6070 C   0  0  0  0  0  0  0  0  0  0  0  0
   35.3820   30.2500   49.3610 C   0  0  0  0  0  0  0  0  0  0  0  0
   35.4290   29.9200   50.6970 N   0  0  0  0  0  0  0  0  0  0  0  0
   36.5740   29.4730   51.2670 C   0  0  0  0  0  0  0  0  0  0  0  0
   37.7160   29.3320   50.5600 N   0  0  0  0  0  0  0  0  0  0  0  0
   40.1690   32.3580   46.0920 F   0  0  0  0  0  0  0  0  0  0  0  0
   39.5080   32.7850   47.2160 C   0  0  0  0  0  0  0  0  0  0  0  0
   38.3300   32.1060   47.4860 C   0  0  0  0  0  0  0  0  0  0  0  0
   37.6170   32.5000   48.6190 C   0  0  0  0  0  0  0  0  0  0  0  0
   38.0630   33.5150   49.4280 C   0  0  0  0  0  0  0  0  0  0  0  0
   39.2470   34.1630   49.1140 C   0  0  0  0  0  0  0  0  0  0  0  0
   39.9780   33.8010   48.0040 C   0  0  0  0  0  0  0  0  0  0  0  0
   34.9581   29.2128   46.6745 H   0  0  0  0  0  0  0  0  0  0  0  0
   34.6335   31.0080   46.6787 H   0  0  0  0  0  0  0  0  0  0  0  0
   35.0321   29.4619   44.4788 H   0  0  0  0  0  0  0  0  0  0  0  0
   35.2442   31.2565   44.6058 H   0  0  0  0  0  0  0  0  0  0  0  0
   37.3491   29.2847   45.0825 H   0  0  0  0  0  0  0  0  0  0  0  0
   38.6397   31.4517   44.7540 H   0  0  0  0  0  0  0  0  0  0  0  0
   37.0993   32.2522   45.0259 H   0  0  0  0  0  0  0  0  0  0  0  0
   38.5412   30.2178   46.7441 H   0  0  0  0  0  0  0  0  0  0  0  0
   38.6234   29.5355   48.6737 H   0  0  0  0  0  0  0  0  0  0  0  0
   34.4509   30.6109   48.8997 H   0  0  0  0  0  0  0  0  0  0  0  0
   36.5734   29.2175   52.3369 H   0  0  0  0  0  0  0  0  0  0  0  0
   36.6772   31.9860   48.8691 H   0  0  0  0  0  0  0  0  0  0  0  0
   37.4864   33.8112   50.3167 H   0  0  0  0  0  0  0  0  0  0  0  0
   39.6079   34.9772   49.7597 H   0  0  0  0  0  0  0  0  0  0  0  0
   40.9177   34.3164   47.7565 H   0  0  0  0  0  0  0  0  0  0  0  0
  1  8  1  0
  2  1  1  0
  3  2  1  0
  4  3  1  0
  4  5  1  0
  5  6  1  0
  6  1  1  0
  6 15  1  0
  7 12  2  0
  8  7  1  0
  8  9  2  0
  9 10  1  0
 10 11  2  0
 12 11  1  0
 13 14  1  0
 14 15  2  0
 14 19  1  0
 15 16  1  0
 16 17  2  0
 18 17  1  0
 19 18  2  0
  2 20  1  0
  2 21  1  0
  3 22  1  0
  3 23  1  0
  4 24  1  0
  5 25  1  0
  5 26  1  0
  6 27  1  6
  7 28  1  0
  9 29  1  0
 11 30  1  0
 16 31  1  0
 17 32  1  0
 18 33  1  0
 19 34  1  0
M  ISO  8  20  13  21  13  22  13  23  13  24   5  25  13  26  13  27  13
M  ISO  7  28  14  29  14  30  14  31  14  32  14  33  14  34  14
M  END
>  <minimizedAffinity>  (1) 
-5.17684984

>  <minimizedRMSD>  (1) 
2.78483438

$$$$
