
     RDKit          3D

 32 34  0  0  1  0  0  0  0  0999 V2000
   38.2250   31.3910   47.4360 N   0  0  0  0  0  0  0  0  0  0  0  0
   38.8160   32.3700   48.3560 C   0  0  0  0  0  0  0  0  0  0  0  0
   38.6520   31.9880   49.7820 C   0  0  0  0  0  0  0  0  0  0  0  0
   38.4310   30.5870   49.9180 N   0  0  0  0  0  0  0  0  0  0  0  0
   37.0950   30.3310   49.3420 C   0  0  0  0  0  0  0  0  0  0  0  0
   37.3280   30.3270   47.8630 C   0  0  1  0  0  0  0  0  0  0  0  0
   39.3230   30.5130   45.4110 C   0  0  0  0  0  0  0  0  0  0  0  0
   38.5320   31.4750   46.0580 C   0  0  0  0  0  0  0  0  0  0  0  0
   38.0490   32.5360   45.2860 C   0  0  0  0  0  0  0  0  0  0  0  0
   38.3880   32.5560   43.9470 N   0  0  0  0  0  0  0  0  0  0  0  0
   39.1450   31.6110   43.3850 C   0  0  0  0  0  0  0  0  0  0  0  0
   39.6300   30.5720   44.1000 N   0  0  0  0  0  0  0  0  0  0  0  0
   36.1060   30.2100   47.0720 C   0  0  0  0  0  0  0  0  0  0  0  0
   34.8790   30.3410   47.6510 C   0  0  0  0  0  0  0  0  0  0  0  0
   33.6930   30.2380   46.9480 C   0  0  0  0  0  0  0  0  0  0  0  0
   33.7760   29.9950   45.6150 N   0  0  0  0  0  0  0  0  0  0  0  0
   34.9860   29.8600   45.0100 C   0  0  0  0  0  0  0  0  0  0  0  0
   36.1230   29.9670   45.7340 N   0  0  0  0  0  0  0  0  0  0  0  0
   39.8903   32.4559   48.1360 H   0  0  0  0  0  0  0  0  0  0  0  0
   38.2924   33.3256   48.2056 H   0  0  0  0  0  0  0  0  0  0  0  0
   39.5629   32.2628   50.3341 H   0  0  0  0  0  0  0  0  0  0  0  0
   37.7780   32.5194   50.1866 H   0  0  0  0  0  0  0  0  0  0  0  0
   39.1503   30.0591   49.4034 H   0  0  0  0  0  0  0  0  0  0  0  0
   36.7048   29.3590   49.6782 H   0  0  0  0  0  0  0  0  0  0  0  0
   36.3523   31.0818   49.6498 H   0  0  0  0  0  0  0  0  0  0  0  0
   37.8659   29.3927   47.6445 H   0  0  0  0  0  0  0  0  0  0  0  0
   39.7110   29.6705   46.0023 H   0  0  0  0  0  0  0  0  0  0  0  0
   37.4228   33.3249   45.7281 H   0  0  0  0  0  0  0  0  0  0  0  0
   39.3800   31.6798   42.3126 H   0  0  0  0  0  0  0  0  0  0  0  0
   34.8300   30.5386   48.7320 H   0  0  0  0  0  0  0  0  0  0  0  0
   32.7201   30.3486   47.4492 H   0  0  0  0  0  0  0  0  0  0  0  0
   35.0402   29.6633   43.9291 H   0  0  0  0  0  0  0  0  0  0  0  0
  1  6  1  0
  1  2  1  0
  2  3  1  0
  3  4  1  0
  5  4  1  0
  6  5  1  0
  7  8  2  0
  8  1  1  0
  9  8  1  0
 10  9  2  0
 11 10  1  0
 11 12  2  0
 12  7  1  0
 13 14  2  0
 13  6  1  0
 15 14  1  0
 16 15  2  0
 17 16  1  0
 17 18  2  0
 18 13  1  0
  2 19  1  0
  2 20  1  0
  3 21  1  0
  3 22  1  0
  4 23  1  0
  5 24  1  0
  5 25  1  0
  6 26  1  1
  7 27  1  0
  9 28  1  0
 11 29  1  0
 14 30  1  0
 15 31  1  0
 17 32  1  0
M  ISO  8  19  13  20  13  21  13  22  13  23   5  24  13  25  13  26  13
M  ISO  6  27  14  28  14  29  14  30  14  31  14  32  14
M  END
>  <minimizedAffinity>  (1) 
-4.78706741

>  <minimizedRMSD>  (1) 
5.87056637

$$$$
