
     RDKit          3D

 28 29  0  0  1  0  0  0  0  0999 V2000
   35.0170   29.6440   46.5410 O   0  0  0  0  0  0  0  0  0  0  0  0
   34.1520   29.2240   47.7020 P   0  0  1  0  0  0  0  0  0  0  0  0
   34.5290   27.6240   48.1710 O   0  0  0  0  0  0  0  0  0  0  0  0
   34.3740   30.1900   49.0980 O   0  0  0  0  0  0  0  0  0  0  0  0
   35.5940   30.2570   49.7550 C   0  0  0  0  0  0  0  0  0  0  0  0
   35.9910   29.4620   50.8330 C   0  0  0  0  0  0  0  0  0  0  0  0
   37.2580   29.6550   51.3860 C   0  0  0  0  0  0  0  0  0  0  0  0
   38.0560   30.6210   50.8370 N   0  0  0  0  0  0  0  0  0  0  0  0
   37.6470   31.3760   49.7920 C   0  0  0  0  0  0  0  0  0  0  0  0
   36.4170   31.2050   49.2400 N   0  0  0  0  0  0  0  0  0  0  0  0
   32.5410   29.3110   47.2000 O   0  0  0  0  0  0  0  0  0  0  0  0
   30.5280   27.9530   47.1800 C   0  0  1  0  0  0  0  0  0  0  0  0
   31.9680   28.0800   47.5550 C   0  0  2  0  0  0  0  0  0  0  0  0
   31.9470   27.8910   49.0520 C   0  0  0  0  0  0  0  0  0  0  0  0
   30.6220   27.8400   49.4510 O   0  0  0  0  0  0  0  0  0  0  0  0
   29.9700   27.1990   48.3830 C   0  0  0  0  0  0  0  0  0  0  0  0
   29.8720   29.1710   47.0330 O   0  0  0  0  0  0  0  0  0  0  0  0
   34.5430   27.5644   49.1591 H   0  0  0  0  0  0  0  0  0  0  0  0
   35.3152   28.6954   51.2399 H   0  0  0  0  0  0  0  0  0  0  0  0
   37.6039   29.0493   52.2366 H   0  0  0  0  0  0  0  0  0  0  0  0
   38.3217   32.1418   49.3818 H   0  0  0  0  0  0  0  0  0  0  0  0
   30.3953   27.4653   46.2030 H   0  0  0  0  0  0  0  0  0  0  0  0
   32.5925   27.3492   47.0202 H   0  0  0  0  0  0  0  0  0  0  0  0
   32.4549   26.9523   49.3183 H   0  0  0  0  0  0  0  0  0  0  0  0
   32.4686   28.7201   49.5525 H   0  0  0  0  0  0  0  0  0  0  0  0
   28.8781   27.3112   48.4549 H   0  0  0  0  0  0  0  0  0  0  0  0
   30.1384   26.1126   48.3454 H   0  0  0  0  0  0  0  0  0  0  0  0
   29.6696   29.5467   47.9263 H   0  0  0  0  0  0  0  0  0  0  0  0
  2  1  2  0
  2  3  1  0
  2  4  1  0
  4  5  1  0
  5  6  2  0
  6  7  1  0
  8  7  2  0
  9  8  1  0
 10  5  1  0
 10  9  2  0
 11  2  1  0
 12 17  1  0
 12 13  1  0
 12 16  1  0
 13 11  1  0
 13 14  1  0
 14 15  1  0
 16 15  1  0
  3 18  1  0
  6 19  1  0
  7 20  1  0
  9 21  1  0
 12 22  1  6
 13 23  1  6
 14 24  1  0
 14 25  1  0
 16 26  1  0
 16 27  1  0
 17 28  1  0
M  ISO  8  18   3  19  14  20  14  21  14  22  13  23  13  24  13  25  13
M  ISO  3  26  13  27  13  28   3
M  END
>  <minimizedAffinity>  (1) 
-4.18127632

>  <minimizedRMSD>  (1) 
1.88619339

$$$$
