
     RDKit          3D

 37 40  0  0  1  0  0  0  0  0999 V2000
   34.6290   29.7310   46.1040 N   0  0  0  0  0  0  0  0  0  0  0  0
   33.3800   29.9110   45.3730 C   0  0  0  0  0  0  0  0  0  0  0  0
   33.5360   29.7880   43.9050 C   0  0  0  0  0  0  0  0  0  0  0  0
   34.7000   29.0000   43.5970 N   0  0  0  0  0  0  0  0  0  0  0  0
   35.8560   29.8000   43.9800 C   0  0  0  0  0  0  0  0  0  0  0  0
   35.9420   29.6730   45.4790 C   0  0  1  0  0  0  0  0  0  0  0  0
   37.5690   31.6120   45.3290 C   0  0  0  0  0  0  0  0  0  0  0  0
   36.8870   30.6630   46.0640 C   0  0  0  0  0  0  0  0  0  0  0  0
   37.0660   30.5930   47.4410 C   0  0  0  0  0  0  0  0  0  0  0  0
   37.9330   31.4890   48.0240 C   0  0  0  0  0  0  0  0  0  0  0  0
   38.6150   32.4450   47.2650 C   0  0  0  0  0  0  0  0  0  0  0  0
   38.4400   32.5200   45.8840 C   0  0  0  0  0  0  0  0  0  0  0  0
   39.4240   33.2170   48.1180 O   0  0  0  0  0  0  0  0  0  0  0  0
   38.9360   33.0060   49.4300 C   0  0  0  0  0  0  0  0  0  0  0  0
   38.3550   31.7170   49.3430 O   0  0  0  0  0  0  0  0  0  0  0  0
   34.7480   28.3650   48.1490 C   0  0  0  0  0  0  0  0  0  0  0  0
   34.5820   29.6010   47.5180 C   0  0  0  0  0  0  0  0  0  0  0  0
   34.3670   30.7030   48.3360 C   0  0  0  0  0  0  0  0  0  0  0  0
   34.3290   30.5390   49.6950 N   0  0  0  0  0  0  0  0  0  0  0  0
   34.4980   29.3120   50.2430 C   0  0  0  0  0  0  0  0  0  0  0  0
   34.7090   28.2100   49.4860 N   0  0  0  0  0  0  0  0  0  0  0  0
   32.6638   29.1484   45.7129 H   0  0  0  0  0  0  0  0  0  0  0  0
   33.0273   30.9325   45.5782 H   0  0  0  0  0  0  0  0  0  0  0  0
   32.6444   29.3005   43.4837 H   0  0  0  0  0  0  0  0  0  0  0  0
   33.6542   30.7912   43.4696 H   0  0  0  0  0  0  0  0  0  0  0  0
   34.6845   28.1192   44.1307 H   0  0  0  0  0  0  0  0  0  0  0  0
   36.7692   29.4105   43.5064 H   0  0  0  0  0  0  0  0  0  0  0  0
   35.7564   30.8478   43.6602 H   0  0  0  0  0  0  0  0  0  0  0  0
   36.3519   28.6757   45.6967 H   0  0  0  0  0  0  0  0  0  0  0  0
   37.4071   31.6435   44.2414 H   0  0  0  0  0  0  0  0  0  0  0  0
   36.5316   29.8452   48.0454 H   0  0  0  0  0  0  0  0  0  0  0  0
   38.9696   33.2647   45.2717 H   0  0  0  0  0  0  0  0  0  0  0  0
   39.7542   33.0234   50.1650 H   0  0  0  0  0  0  0  0  0  0  0  0
   38.2302   33.7812   49.7629 H   0  0  0  0  0  0  0  0  0  0  0  0
   34.9187   27.4764   47.5235 H   0  0  0  0  0  0  0  0  0  0  0  0
   34.2282   31.7011   47.8949 H   0  0  0  0  0  0  0  0  0  0  0  0
   34.4627   29.2078   51.3375 H   0  0  0  0  0  0  0  0  0  0  0  0
  1 17  1  0
  2  1  1  0
  3  2  1  0
  4  3  1  0
  4  5  1  0
  5  6  1  0
  6  8  1  0
  6  1  1  0
  7 12  2  0
  7  8  1  0
  8  9  2  0
  9 10  1  0
 10 15  1  0
 11 10  2  0
 11 13  1  0
 12 11  1  0
 13 14  1  0
 15 14  1  0
 16 21  2  0
 17 16  1  0
 17 18  2  0
 18 19  1  0
 19 20  2  0
 21 20  1  0
  2 22  1  0
  2 23  1  0
  3 24  1  0
  3 25  1  0
  4 26  1  0
  5 27  1  0
  5 28  1  0
  6 29  1  6
  7 30  1  0
  9 31  1  0
 12 32  1  0
 14 33  1  0
 14 34  1  0
 16 35  1  0
 18 36  1  0
 20 37  1  0
M  ISO  8  22  13  23  13  24  13  25  13  26   5  27  13  28  13  29  13
M  ISO  8  30  14  31  14  32  14  33  13  34  13  35  14  36  14  37  14
M  END
>  <minimizedAffinity>  (1) 
-4.59960699

>  <minimizedRMSD>  (1) 
4.75297403

$$$$
