
     RDKit          3D

 43 46  0  0  1  0  0  0  0  0999 V2000
   38.8720   31.0280   42.0260 N   0  0  0  0  0  0  0  0  0  0  0  0
   39.4160   31.3990   40.7360 C   0  0  0  0  0  0  0  0  0  0  0  0
   40.7510   30.8040   40.4750 C   0  0  0  0  0  0  0  0  0  0  0  0
   40.9190   29.6030   41.2590 N   0  0  0  0  0  0  0  0  0  0  0  0
   41.0130   30.0140   42.6560 C   0  0  0  0  0  0  0  0  0  0  0  0
   39.6140   30.3220   43.0860 C   0  0  1  0  0  0  0  0  0  0  0  0
   40.1020   32.3160   44.5790 C   0  0  0  0  0  0  0  0  0  0  0  0
   39.5620   31.0430   44.3780 C   0  0  0  0  0  0  0  0  0  0  0  0
   38.9020   30.3920   45.4030 C   0  0  0  0  0  0  0  0  0  0  0  0
   38.7960   31.0460   46.6100 C   0  0  0  0  0  0  0  0  0  0  0  0
   39.3490   32.3350   46.8040 C   0  0  0  0  0  0  0  0  0  0  0  0
   40.0250   33.0040   45.7710 C   0  0  0  0  0  0  0  0  0  0  0  0
   39.1080   32.7670   48.1210 O   0  0  0  0  0  0  0  0  0  0  0  0
   38.0970   31.9320   48.6250 C   0  0  0  0  0  0  0  0  0  0  0  0
   38.2170   30.7440   47.8440 O   0  0  0  0  0  0  0  0  0  0  0  0
   37.1120   32.7110   42.4030 C   0  0  0  0  0  0  0  0  0  0  0  0
   37.5120   31.3600   42.3040 C   0  0  0  0  0  0  0  0  0  0  0  0
   36.5370   30.4040   42.4700 C   0  0  0  0  0  0  0  0  0  0  0  0
   35.2470   30.8020   42.7170 N   0  0  0  0  0  0  0  0  0  0  0  0
   34.9180   32.0960   42.8000 C   0  0  0  0  0  0  0  0  0  0  0  0
   35.8330   33.0620   42.6470 N   0  0  0  0  0  0  0  0  0  0  0  0
   33.5490   32.2070   43.0550 O   0  0  0  0  0  0  0  0  0  0  0  0
   31.4290   33.5840   42.3180 O   0  0  0  0  0  0  0  0  0  0  0  0
   32.8080   33.7370   42.9100 P   0  0  0  0  0  0  0  0  0  0  0  0
   32.7160   34.4900   44.4200 O   0  0  0  0  0  0  0  0  0  0  0  0
   33.6940   34.7130   41.8430 O   0  0  0  0  0  0  0  0  0  0  0  0
   38.7222   31.0599   39.9526 H   0  0  0  0  0  0  0  0  0  0  0  0
   39.5374   32.4923   40.7329 H   0  0  0  0  0  0  0  0  0  0  0  0
   40.8368   30.5564   39.4067 H   0  0  0  0  0  0  0  0  0  0  0  0
   41.5299   31.5289   40.7540 H   0  0  0  0  0  0  0  0  0  0  0  0
   40.1101   28.9790   41.1277 H   0  0  0  0  0  0  0  0  0  0  0  0
   41.4311   29.2006   43.2671 H   0  0  0  0  0  0  0  0  0  0  0  0
   41.6746   30.8843   42.7780 H   0  0  0  0  0  0  0  0  0  0  0  0
   39.1110   29.3586   43.2558 H   0  0  0  0  0  0  0  0  0  0  0  0
   40.6192   32.7976   43.7361 H   0  0  0  0  0  0  0  0  0  0  0  0
   38.4768   29.3877   45.2597 H   0  0  0  0  0  0  0  0  0  0  0  0
   40.4616   34.0049   45.9034 H   0  0  0  0  0  0  0  0  0  0  0  0
   38.2606   31.7182   49.6915 H   0  0  0  0  0  0  0  0  0  0  0  0
   37.0973   32.3861   48.5584 H   0  0  0  0  0  0  0  0  0  0  0  0
   37.8669   33.5011   42.2772 H   0  0  0  0  0  0  0  0  0  0  0  0
   36.7879   29.3349   42.4056 H   0  0  0  0  0  0  0  0  0  0  0  0
   32.7992   33.8092   45.1339 H   0  0  0  0  0  0  0  0  0  0  0  0
   34.2611   35.3377   42.3609 H   0  0  0  0  0  0  0  0  0  0  0  0
  1 17  1  0
  1  6  1  0
  2  1  1  0
  3  2  1  0
  3  4  1  0
  4  5  1  0
  5  6  1  0
  6  8  1  0
  7 12  2  0
  8  7  1  0
  8  9  2  0
  9 10  1  0
 10 11  2  0
 10 15  1  0
 11 13  1  0
 12 11  1  0
 13 14  1  0
 15 14  1  0
 16 21  2  0
 17 16  1  0
 17 18  2  0
 18 19  1  0
 19 20  2  0
 20 22  1  0
 21 20  1  0
 23 24  2  0
 24 22  1  0
 24 25  1  0
 26 24  1  0
  2 27  1  0
  2 28  1  0
  3 29  1  0
  3 30  1  0
  4 31  1  0
  5 32  1  0
  5 33  1  0
  6 34  1  1
  7 35  1  0
  9 36  1  0
 12 37  1  0
 14 38  1  0
 14 39  1  0
 16 40  1  0
 18 41  1  0
 25 42  1  0
 26 43  1  0
M  ISO  8  27  13  28  13  29  13  30  13  31   5  32  13  33  13  34  13
M  ISO  8  35  14  36  14  37  14  38  13  39  13  40  14  41  14  42   3
M  ISO  1  43   3
M  END
>  <minimizedAffinity>  (1) 
-5.67412901

>  <minimizedRMSD>  (1) 
7.02970457

$$$$
