
     RDKit          3D

 49 53  0  0  1  0  0  0  0  0999 V2000
   38.5450   30.1980   42.3390 N   0  0  0  0  0  0  0  0  0  0  0  0
   38.6550   30.4550   40.9180 C   0  0  0  0  0  0  0  0  0  0  0  0
   40.0270   30.2160   40.3980 C   0  0  0  0  0  0  0  0  0  0  0  0
   40.7470   29.3150   41.2630 N   0  0  0  0  0  0  0  0  0  0  0  0
   40.9760   30.0270   42.5160 C   0  0  0  0  0  0  0  0  0  0  0  0
   39.6770   29.9740   43.2580 C   0  0  1  0  0  0  0  0  0  0  0  0
   40.0560   32.2280   44.3550 C   0  0  0  0  0  0  0  0  0  0  0  0
   39.6440   30.8920   44.4150 C   0  0  0  0  0  0  0  0  0  0  0  0
   39.1270   30.3770   45.5880 C   0  0  0  0  0  0  0  0  0  0  0  0
   39.0310   31.2200   46.6710 C   0  0  0  0  0  0  0  0  0  0  0  0
   39.4520   32.5690   46.5970 C   0  0  0  0  0  0  0  0  0  0  0  0
   39.9830   33.1060   45.4170 C   0  0  0  0  0  0  0  0  0  0  0  0
   39.2470   33.2000   47.8390 O   0  0  0  0  0  0  0  0  0  0  0  0
   38.3490   32.3840   48.5460 C   0  0  0  0  0  0  0  0  0  0  0  0
   38.5680   31.0890   47.9840 O   0  0  0  0  0  0  0  0  0  0  0  0
   36.6820   28.9220   43.3440 C   0  0  0  0  0  0  0  0  0  0  0  0
   37.2350   30.1490   42.9140 C   0  0  0  0  0  0  0  0  0  0  0  0
   36.4680   31.2820   43.0870 C   0  0  0  0  0  0  0  0  0  0  0  0
   35.2260   31.1660   43.6630 N   0  0  0  0  0  0  0  0  0  0  0  0
   34.7480   29.9790   44.0560 C   0  0  0  0  0  0  0  0  0  0  0  0
   35.4570   28.8510   43.9060 N   0  0  0  0  0  0  0  0  0  0  0  0
   33.4600   29.9050   44.6480 N   0  0  0  0  0  0  0  0  0  0  0  0
   32.6420   30.9770   45.1790 C   0  0  0  0  0  0  0  0  0  0  0  0
   31.2350   30.6060   44.7020 C   0  0  0  0  0  0  0  0  0  0  0  0
   31.3280   29.1630   44.2320 C   0  0  0  0  0  0  0  0  0  0  0  0
   32.6440   28.7250   44.8640 C   0  0  0  0  0  0  0  0  0  0  0  0
   37.9562   29.7933   40.3852 H   0  0  0  0  0  0  0  0  0  0  0  0
   38.4161   31.5158   40.7520 H   0  0  0  0  0  0  0  0  0  0  0  0
   39.9609   29.7760   39.3920 H   0  0  0  0  0  0  0  0  0  0  0  0
   40.5638   31.1753   40.3589 H   0  0  0  0  0  0  0  0  0  0  0  0
   40.1892   28.4662   41.4342 H   0  0  0  0  0  0  0  0  0  0  0  0
   41.7695   29.5344   43.0971 H   0  0  0  0  0  0  0  0  0  0  0  0
   41.2997   31.0634   42.3396 H   0  0  0  0  0  0  0  0  0  0  0  0
   39.5793   28.9620   43.6779 H   0  0  0  0  0  0  0  0  0  0  0  0
   40.4628   32.6009   43.4034 H   0  0  0  0  0  0  0  0  0  0  0  0
   38.8029   29.3279   45.6539 H   0  0  0  0  0  0  0  0  0  0  0  0
   40.3173   34.1513   45.3425 H   0  0  0  0  0  0  0  0  0  0  0  0
   38.5754   32.3897   49.6224 H   0  0  0  0  0  0  0  0  0  0  0  0
   37.3047   32.7190   48.4605 H   0  0  0  0  0  0  0  0  0  0  0  0
   37.2663   27.9987   43.2172 H   0  0  0  0  0  0  0  0  0  0  0  0
   36.8453   32.2649   42.7683 H   0  0  0  0  0  0  0  0  0  0  0  0
   32.6922   31.0056   46.2775 H   0  0  0  0  0  0  0  0  0  0  0  0
   32.9640   31.9742   44.8445 H   0  0  0  0  0  0  0  0  0  0  0  0
   30.5140   30.6948   45.5280 H   0  0  0  0  0  0  0  0  0  0  0  0
   30.8890   31.2734   43.8990 H   0  0  0  0  0  0  0  0  0  0  0  0
   30.4840   28.5636   44.6038 H   0  0  0  0  0  0  0  0  0  0  0  0
   31.2920   29.0428   43.1392 H   0  0  0  0  0  0  0  0  0  0  0  0
   33.0636   27.8448   44.3549 H   0  0  0  0  0  0  0  0  0  0  0  0
   32.5615   28.4168   45.9167 H   0  0  0  0  0  0  0  0  0  0  0  0
  1 17  1  0
  1  6  1  0
  2  1  1  0
  3  2  1  0
  3  4  1  0
  4  5  1  0
  5  6  1  0
  6  8  1  0
  7  8  2  0
  7 12  1  0
  8  9  1  0
  9 10  2  0
 10 15  1  0
 11 10  1  0
 11 13  1  0
 12 11  2  0
 13 14  1  0
 15 14  1  0
 16 21  2  0
 17 18  2  0
 17 16  1  0
 18 19  1  0
 19 20  2  0
 20 22  1  0
 21 20  1  0
 22 26  1  0
 22 23  1  0
 24 23  1  0
 25 24  1  0
 25 26  1  0
  2 27  1  0
  2 28  1  0
  3 29  1  0
  3 30  1  0
  4 31  1  0
  5 32  1  0
  5 33  1  0
  6 34  1  1
  7 35  1  0
  9 36  1  0
 12 37  1  0
 14 38  1  0
 14 39  1  0
 16 40  1  0
 18 41  1  0
 23 42  1  0
 23 43  1  0
 24 44  1  0
 24 45  1  0
 25 46  1  0
 25 47  1  0
 26 48  1  0
 26 49  1  0
M  ISO  8  27  13  28  13  29  13  30  13  31   5  32  13  33  13  34  13
M  ISO  8  35  14  36  14  37  14  38  13  39  13  40  14  41  14  42  13
M  ISO  7  43  13  44  13  45  13  46  13  47  13  48  13  49  13
M  END
>  <minimizedAffinity>  (1) 
-5.17387438

>  <minimizedRMSD>  (1) 
5.54771137

$$$$
