
     RDKit          3D

 40 43  0  0  1  0  0  0  0  0999 V2000
   33.7880   29.4910   45.8970 N   0  0  0  0  0  0  0  0  0  0  0  0
   32.3820   29.7020   45.6180 C   0  0  0  0  0  0  0  0  0  0  0  0
   32.0330   29.4790   44.1900 C   0  0  0  0  0  0  0  0  0  0  0  0
   32.9910   28.5830   43.5850 N   0  0  0  0  0  0  0  0  0  0  0  0
   34.2530   29.3120   43.4990 C   0  0  0  0  0  0  0  0  0  0  0  0
   34.8350   29.2860   44.8780 C   0  0  1  0  0  0  0  0  0  0  0  0
   36.2600   31.2440   44.1200 C   0  0  0  0  0  0  0  0  0  0  0  0
   35.9600   30.2320   45.0370 C   0  0  0  0  0  0  0  0  0  0  0  0
   36.7050   30.0990   46.1920 C   0  0  0  0  0  0  0  0  0  0  0  0
   37.7330   30.9920   46.3990 C   0  0  0  0  0  0  0  0  0  0  0  0
   38.0270   32.0100   45.4630 C   0  0  0  0  0  0  0  0  0  0  0  0
   37.2800   32.1560   44.2820 C   0  0  0  0  0  0  0  0  0  0  0  0
   39.1210   32.7730   45.9150 O   0  0  0  0  0  0  0  0  0  0  0  0
   39.2510   32.4910   47.2860 C   0  0  0  0  0  0  0  0  0  0  0  0
   38.6740   31.1890   47.4140 O   0  0  0  0  0  0  0  0  0  0  0  0
   34.5060   28.2400   47.8970 C   0  0  0  0  0  0  0  0  0  0  0  0
   34.2070   29.4670   47.2640 C   0  0  0  0  0  0  0  0  0  0  0  0
   34.3530   30.6160   48.0100 C   0  0  0  0  0  0  0  0  0  0  0  0
   34.7770   30.5120   49.3120 N   0  0  0  0  0  0  0  0  0  0  0  0
   35.0500   29.3260   49.8670 C   0  0  0  0  0  0  0  0  0  0  0  0
   34.9210   28.1830   49.1790 N   0  0  0  0  0  0  0  0  0  0  0  0
   35.5030   29.3500   51.2830 C   0  0  0  0  0  0  0  0  0  0  0  0
   31.7940   29.0068   46.2352 H   0  0  0  0  0  0  0  0  0  0  0  0
   32.1542   30.7524   45.8521 H   0  0  0  0  0  0  0  0  0  0  0  0
   31.0279   29.0368   44.1247 H   0  0  0  0  0  0  0  0  0  0  0  0
   32.0504   30.4416   43.6579 H   0  0  0  0  0  0  0  0  0  0  0  0
   33.1065   27.7413   44.1674 H   0  0  0  0  0  0  0  0  0  0  0  0
   34.9320   28.8194   42.7875 H   0  0  0  0  0  0  0  0  0  0  0  0
   34.1018   30.3418   43.1432 H   0  0  0  0  0  0  0  0  0  0  0  0
   35.2601   28.2833   45.0328 H   0  0  0  0  0  0  0  0  0  0  0  0
   35.6429   31.3166   43.2123 H   0  0  0  0  0  0  0  0  0  0  0  0
   36.4849   29.3064   46.9223 H   0  0  0  0  0  0  0  0  0  0  0  0
   37.4938   32.9406   43.5413 H   0  0  0  0  0  0  0  0  0  0  0  0
   40.3088   32.4839   47.5876 H   0  0  0  0  0  0  0  0  0  0  0  0
   38.7636   33.2410   47.9262 H   0  0  0  0  0  0  0  0  0  0  0  0
   34.3973   27.3047   47.3283 H   0  0  0  0  0  0  0  0  0  0  0  0
   34.1336   31.6001   47.5701 H   0  0  0  0  0  0  0  0  0  0  0  0
   34.6284   29.3037   51.9486 H   0  0  0  0  0  0  0  0  0  0  0  0
   36.1554   28.4852   51.4740 H   0  0  0  0  0  0  0  0  0  0  0  0
   36.0603   30.2789   51.4740 H   0  0  0  0  0  0  0  0  0  0  0  0
  1 17  1  0
  2  1  1  0
  3  2  1  0
  4  3  1  0
  5  4  1  0
  5  6  1  0
  6  8  1  0
  6  1  1  0
  7 12  2  0
  7  8  1  0
  8  9  2  0
  9 10  1  0
 10 15  1  0
 11 13  1  0
 11 10  2  0
 12 11  1  0
 13 14  1  0
 14 15  1  0
 16 21  2  0
 17 16  1  0
 17 18  2  0
 18 19  1  0
 19 20  2  0
 20 22  1  0
 21 20  1  0
  2 23  1  0
  2 24  1  0
  3 25  1  0
  3 26  1  0
  4 27  1  0
  5 28  1  0
  5 29  1  0
  6 30  1  1
  7 31  1  0
  9 32  1  0
 12 33  1  0
 14 34  1  0
 14 35  1  0
 16 36  1  0
 18 37  1  0
 22 38  1  0
 22 39  1  0
 22 40  1  0
M  ISO  8  23  13  24  13  25  13  26  13  27   5  28  13  29  13  30  13
M  ISO  8  31  14  32  14  33  14  34  13  35  13  36  14  37  14  38   8
M  ISO  2  39   8  40   8
M  END
>  <minimizedAffinity>  (1) 
-4.36860609

>  <minimizedRMSD>  (1) 
1.46340048

$$$$
