
     RDKit          3D

 39 42  0  0  1  0  0  0  0  0999 V2000
   34.3420   29.7520   46.0720 N   0  0  0  0  0  0  0  0  0  0  0  0
   33.0170   29.9770   45.5300 C   0  0  0  0  0  0  0  0  0  0  0  0
   32.9690   29.8500   44.0520 C   0  0  0  0  0  0  0  0  0  0  0  0
   34.0520   29.0040   43.5920 N   0  0  0  0  0  0  0  0  0  0  0  0
   35.2880   29.7550   43.8140 C   0  0  0  0  0  0  0  0  0  0  0  0
   35.5790   29.6370   45.2750 C   0  0  1  0  0  0  0  0  0  0  0  0
   37.2720   31.4810   44.8860 C   0  0  0  0  0  0  0  0  0  0  0  0
   36.6270   30.5710   45.7310 C   0  0  0  0  0  0  0  0  0  0  0  0
   36.9220   30.5420   47.0800 C   0  0  0  0  0  0  0  0  0  0  0  0
   37.8580   31.4370   47.5500 C   0  0  0  0  0  0  0  0  0  0  0  0
   38.5020   32.3520   46.6850 C   0  0  0  0  0  0  0  0  0  0  0  0
   38.2150   32.3900   45.3110 C   0  0  0  0  0  0  0  0  0  0  0  0
   39.4090   33.1450   47.4150 O   0  0  0  0  0  0  0  0  0  0  0  0
   39.0560   32.9920   48.7670 C   0  0  0  0  0  0  0  0  0  0  0  0
   38.4060   31.7220   48.8030 O   0  0  0  0  0  0  0  0  0  0  0  0
   34.7370   28.3650   48.0740 C   0  0  0  0  0  0  0  0  0  0  0  0
   34.4770   29.6240   47.4900 C   0  0  0  0  0  0  0  0  0  0  0  0
   34.3760   30.7060   48.3390 C   0  0  0  0  0  0  0  0  0  0  0  0
   34.5350   30.5130   49.6910 N   0  0  0  0  0  0  0  0  0  0  0  0
   34.7820   29.2970   50.1910 C   0  0  0  0  0  0  0  0  0  0  0  0
   34.8870   28.2150   49.4080 N   0  0  0  0  0  0  0  0  0  0  0  0
   34.9340   29.1820   51.6030 N   0  0  0  0  0  0  0  0  0  0  0  0
   32.3285   29.2396   45.9683 H   0  0  0  0  0  0  0  0  0  0  0  0
   32.7274   31.0077   45.7826 H   0  0  0  0  0  0  0  0  0  0  0  0
   32.0078   29.4047   43.7556 H   0  0  0  0  0  0  0  0  0  0  0  0
   33.0730   30.8475   43.6002 H   0  0  0  0  0  0  0  0  0  0  0  0
   33.9384   28.7936   42.5901 H   0  0  0  0  0  0  0  0  0  0  0  0
   36.1097   29.3235   43.2236 H   0  0  0  0  0  0  0  0  0  0  0  0
   35.1844   30.8057   43.5053 H   0  0  0  0  0  0  0  0  0  0  0  0
   35.9905   28.6302   45.4392 H   0  0  0  0  0  0  0  0  0  0  0  0
   37.0099   31.4695   43.8177 H   0  0  0  0  0  0  0  0  0  0  0  0
   36.4268   29.8291   47.7556 H   0  0  0  0  0  0  0  0  0  0  0  0
   38.7074   33.0943   44.6244 H   0  0  0  0  0  0  0  0  0  0  0  0
   39.9494   32.9942   49.4087 H   0  0  0  0  0  0  0  0  0  0  0  0
   38.4188   33.8087   49.1372 H   0  0  0  0  0  0  0  0  0  0  0  0
   34.8197   27.4813   47.4242 H   0  0  0  0  0  0  0  0  0  0  0  0
   34.1709   31.7103   47.9398 H   0  0  0  0  0  0  0  0  0  0  0  0
   35.1250   28.2631   52.0273 H   0  0  0  0  0  0  0  0  0  0  0  0
   34.8529   30.0178   52.1995 H   0  0  0  0  0  0  0  0  0  0  0  0
  1 17  1  0
  2  1  1  0
  3  2  1  0
  4  5  1  0
  4  3  1  0
  5  6  1  0
  6  8  1  0
  6  1  1  0
  7 12  2  0
  7  8  1  0
  8  9  2  0
  9 10  1  0
 10 15  1  0
 11 13  1  0
 11 10  2  0
 12 11  1  0
 13 14  1  0
 14 15  1  0
 16 21  2  0
 17 16  1  0
 17 18  2  0
 18 19  1  0
 19 20  2  0
 20 22  1  0
 21 20  1  0
  2 23  1  0
  2 24  1  0
  3 25  1  0
  3 26  1  0
  4 27  1  0
  5 28  1  0
  5 29  1  0
  6 30  1  6
  7 31  1  0
  9 32  1  0
 12 33  1  0
 14 34  1  0
 14 35  1  0
 16 36  1  0
 18 37  1  0
 22 38  1  0
 22 39  1  0
M  ISO  8  23  13  24  13  25  13  26  13  27   5  28  13  29  13  30  13
M  ISO  7  31  14  32  14  33  14  34  13  35  13  36  14  37  14
M  END
>  <minimizedAffinity>  (1) 
-4.75140667

>  <minimizedRMSD>  (1) 
0.471189439

$$$$
