
     RDKit          3D

 29 30  0  0  1  0  0  0  0  0999 V2000
   35.5150   30.0810   46.5230 O   0  0  0  0  0  0  0  0  0  0  0  0
   34.3130   29.9180   47.4380 P   0  0  1  0  0  0  0  0  0  0  0  0
   34.0080   28.2850   47.7530 O   0  0  0  0  0  0  0  0  0  0  0  0
   34.5530   30.6730   48.9520 O   0  0  0  0  0  0  0  0  0  0  0  0
   35.7340   30.5390   49.6690 C   0  0  0  0  0  0  0  0  0  0  0  0
   35.9730   29.5570   50.6510 C   0  0  0  0  0  0  0  0  0  0  0  0
   37.2090   29.5560   51.2790 C   0  0  0  0  0  0  0  0  0  0  0  0
   38.1370   30.4900   50.9320 N   0  0  0  0  0  0  0  0  0  0  0  0
   37.8670   31.4240   49.9770 C   0  0  0  0  0  0  0  0  0  0  0  0
   36.6700   31.4430   49.3530 N   0  0  0  0  0  0  0  0  0  0  0  0
   33.0110   30.6450   46.6410 O   0  0  0  0  0  0  0  0  0  0  0  0
   31.0750   29.5540   45.7150 C   0  0  1  0  0  0  0  0  0  0  0  0
   32.5310   29.8980   45.5770 C   0  0  2  0  0  0  0  0  0  0  0  0
   33.1520   28.6840   45.4280 O   0  0  0  0  0  0  0  0  0  0  0  0
   32.3740   28.1030   44.3990 C   0  0  0  0  0  0  0  0  0  0  0  0
   30.9520   28.2940   44.8870 C   0  0  2  0  0  0  0  0  0  0  0  0
   30.7150   29.2690   47.0330 O   0  0  0  0  0  0  0  0  0  0  0  0
   30.0390   28.5130   43.8860 O   0  0  0  0  0  0  0  0  0  0  0  0
   33.9804   28.1372   48.7315 H   0  0  0  0  0  0  0  0  0  0  0  0
   35.2036   28.8151   50.9109 H   0  0  0  0  0  0  0  0  0  0  0  0
   37.4381   28.8069   52.0512 H   0  0  0  0  0  0  0  0  0  0  0  0
   38.6315   32.1693   49.7122 H   0  0  0  0  0  0  0  0  0  0  0  0
   30.4269   30.3855   45.4011 H   0  0  0  0  0  0  0  0  0  0  0  0
   32.7256   30.5561   44.7173 H   0  0  0  0  0  0  0  0  0  0  0  0
   32.6102   27.0351   44.2816 H   0  0  0  0  0  0  0  0  0  0  0  0
   32.5556   28.5569   43.4136 H   0  0  0  0  0  0  0  0  0  0  0  0
   30.5854   27.3975   45.4085 H   0  0  0  0  0  0  0  0  0  0  0  0
   31.3210   29.7487   47.6517 H   0  0  0  0  0  0  0  0  0  0  0  0
   29.1575   28.7245   44.2839 H   0  0  0  0  0  0  0  0  0  0  0  0
  2  1  2  0
  2  3  1  0
  2  4  1  0
  4  5  1  0
  5  6  2  0
  6  7  1  0
  8  7  2  0
  9  8  1  0
 10  5  1  0
 10  9  2  0
 11  2  1  0
 12 17  1  0
 13 12  1  0
 13 11  1  0
 14 13  1  0
 15 16  1  0
 15 14  1  0
 16 18  1  0
 16 12  1  0
  3 19  1  0
  6 20  1  0
  7 21  1  0
  9 22  1  0
 12 23  1  6
 13 24  1  6
 15 25  1  0
 15 26  1  0
 16 27  1  1
 17 28  1  0
 18 29  1  0
M  ISO  8  19   3  20  14  21  14  22  14  23  13  24  13  25  13  26  13
M  ISO  3  27  13  28   3  29   3
M  END
>  <minimizedAffinity>  (1) 
-4.03646755

>  <minimizedRMSD>  (1) 
1.44165802

$$$$
