
     RDKit          3D

 20 21  0  0  0  0  0  0  0  0999 V2000
   37.9000   31.2300   48.0030 C   0  0  0  0  0  0  0  0  0  0  0  0
   37.3490   31.0710   46.7470 C   0  0  0  0  0  0  0  0  0  0  0  0
   38.1160   31.7990   45.8440 C   0  0  0  0  0  0  0  0  0  0  0  0
   39.0950   32.3690   46.5730 N   0  0  0  0  0  0  0  0  0  0  0  0
   38.9670   32.0310   47.8570 N   0  0  0  0  0  0  0  0  0  0  0  0
   37.2590   30.0970   51.5300 C   0  0  0  0  0  0  0  0  0  0  0  0
   37.8720   30.7470   50.4620 C   0  0  0  0  0  0  0  0  0  0  0  0
   37.3380   30.5980   49.1780 C   0  0  0  0  0  0  0  0  0  0  0  0
   36.2140   29.8020   49.0440 N   0  0  0  0  0  0  0  0  0  0  0  0
   35.6500   29.1880   50.1180 C   0  0  0  0  0  0  0  0  0  0  0  0
   36.1650   29.3340   51.3360 N   0  0  0  0  0  0  0  0  0  0  0  0
   40.1090   33.2200   45.9700 C   0  0  0  0  0  0  0  0  0  0  0  0
   41.2220   32.4760   45.6140 F   0  0  0  0  0  0  0  0  0  0  0  0
   39.5790   33.7690   44.8080 F   0  0  0  0  0  0  0  0  0  0  0  0
   40.4950   34.2130   46.8560 F   0  0  0  0  0  0  0  0  0  0  0  0
   36.4586   30.4728   46.5032 H   0  0  0  0  0  0  0  0  0  0  0  0
   37.9564   31.8905   44.7595 H   0  0  0  0  0  0  0  0  0  0  0  0
   37.6722   30.2075   52.5434 H   0  0  0  0  0  0  0  0  0  0  0  0
   38.7642   31.3692   50.6260 H   0  0  0  0  0  0  0  0  0  0  0  0
   34.7562   28.5623   49.9780 H   0  0  0  0  0  0  0  0  0  0  0  0
  1  8  1  0
  2  1  1  0
  3  4  1  0
  3  2  2  0
  4  5  1  0
  5  1  2  0
  7  6  2  0
  8  7  1  0
  9  8  2  0
  9 10  1  0
 10 11  2  0
 11  6  1  0
 12  4  1  0
 12 15  1  0
 13 12  1  0
 14 12  1  0
  2 16  1  0
  3 17  1  0
  6 18  1  0
  7 19  1  0
 10 20  1  0
M  ISO  5  16  14  17  14  18  14  19  14  20  14
M  END
>  <minimizedAffinity>  (1) 
-5.62061787

>  <minimizedRMSD>  (1) 
1.44122124

$$$$
