
     RDKit          3D

 33 35  0  0  0  0  0  0  0  0999 V2000
   37.7030   31.0660   48.0710 C   0  0  0  0  0  0  0  0  0  0  0  0
   37.0540   30.8710   46.8740 C   0  0  0  0  0  0  0  0  0  0  0  0
   37.7550   31.5230   45.8670 C   0  0  0  0  0  0  0  0  0  0  0  0
   38.8070   32.0950   46.4910 N   0  0  0  0  0  0  0  0  0  0  0  0
   38.7670   31.8190   47.7930 N   0  0  0  0  0  0  0  0  0  0  0  0
   37.3540   30.0750   51.6870 C   0  0  0  0  0  0  0  0  0  0  0  0
   37.8790   30.6360   50.5310 C   0  0  0  0  0  0  0  0  0  0  0  0
   37.2120   30.5070   49.3050 C   0  0  0  0  0  0  0  0  0  0  0  0
   36.0490   29.8110   49.3360 N   0  0  0  0  0  0  0  0  0  0  0  0
   35.5610   29.2760   50.4770 C   0  0  0  0  0  0  0  0  0  0  0  0
   36.1980   29.4020   51.6370 N   0  0  0  0  0  0  0  0  0  0  0  0
   39.8100   32.8870   45.7970 C   0  0  0  0  0  0  0  0  0  0  0  0
   40.7200   31.9610   44.9960 C   0  0  0  0  0  0  0  0  0  0  0  0
   41.1800   29.9400   43.0230 F   0  0  0  0  0  0  0  0  0  0  0  0
   40.4340   31.0230   42.6440 C   0  0  0  0  0  0  0  0  0  0  0  0
   40.2120   31.9990   43.5940 C   0  0  0  0  0  0  0  0  0  0  0  0
   39.4420   33.0770   43.1460 C   0  0  0  0  0  0  0  0  0  0  0  0
   38.9110   33.2410   41.8920 C   0  0  0  0  0  0  0  0  0  0  0  0
   39.1660   32.2310   40.9770 C   0  0  0  0  0  0  0  0  0  0  0  0
   39.9290   31.1290   41.3700 C   0  0  0  0  0  0  0  0  0  0  0  0
   36.1289   30.2920   46.7362 H   0  0  0  0  0  0  0  0  0  0  0  0
   37.5072   31.5642   44.7961 H   0  0  0  0  0  0  0  0  0  0  0  0
   37.8872   30.1833   52.6430 H   0  0  0  0  0  0  0  0  0  0  0  0
   38.8293   31.1881   50.5776 H   0  0  0  0  0  0  0  0  0  0  0  0
   34.6115   28.7215   50.4451 H   0  0  0  0  0  0  0  0  0  0  0  0
   39.3132   33.5932   45.1155 H   0  0  0  0  0  0  0  0  0  0  0  0
   40.4087   33.4470   46.5304 H   0  0  0  0  0  0  0  0  0  0  0  0
   41.7596   32.3182   45.0358 H   0  0  0  0  0  0  0  0  0  0  0  0
   40.7114   30.9381   45.4005 H   0  0  0  0  0  0  0  0  0  0  0  0
   39.2414   33.8762   43.8747 H   0  0  0  0  0  0  0  0  0  0  0  0
   38.3148   34.1264   41.6265 H   0  0  0  0  0  0  0  0  0  0  0  0
   38.7716   32.2969   39.9523 H   0  0  0  0  0  0  0  0  0  0  0  0
   40.1303   30.3279   40.6436 H   0  0  0  0  0  0  0  0  0  0  0  0
  1  8  1  0
  2  1  1  0
  3  4  1  0
  3  2  2  0
  4  5  1  0
  5  1  2  0
  7  6  2  0
  8  9  2  0
  8  7  1  0
  9 10  1  0
 10 11  2  0
 11  6  1  0
 12  4  1  0
 13 12  1  0
 15 14  1  0
 15 16  2  0
 16 13  1  0
 17 16  1  0
 18 17  2  0
 19 20  2  0
 19 18  1  0
 20 15  1  0
  2 21  1  0
  3 22  1  0
  6 23  1  0
  7 24  1  0
 10 25  1  0
 12 26  1  0
 12 27  1  0
 13 28  1  0
 13 29  1  0
 17 30  1  0
 18 31  1  0
 19 32  1  0
 20 33  1  0
M  ISO  8  21  14  22  14  23  14  24  14  25  14  26   8  27   8  28   8
M  ISO  5  29   8  30  14  31  14  32  14  33  14
M  END
>  <minimizedAffinity>  (1) 
-5.74429035

>  <minimizedRMSD>  (1) 
2.82116365

$$$$
