
     RDKit          3D

 33 35  0  0  0  0  0  0  0  0999 V2000
   37.6530   30.9920   47.8640 C   0  0  0  0  0  0  0  0  0  0  0  0
   36.9850   30.7430   46.7030 C   0  0  0  0  0  0  0  0  0  0  0  0
   37.6390   31.3710   45.6570 C   0  0  0  0  0  0  0  0  0  0  0  0
   38.7010   31.9900   46.2170 N   0  0  0  0  0  0  0  0  0  0  0  0
   38.6950   31.7560   47.5270 N   0  0  0  0  0  0  0  0  0  0  0  0
   37.4390   30.1680   51.5310 C   0  0  0  0  0  0  0  0  0  0  0  0
   37.9180   30.6970   50.3360 C   0  0  0  0  0  0  0  0  0  0  0  0
   37.2270   30.4790   49.1420 C   0  0  0  0  0  0  0  0  0  0  0  0
   36.0960   29.7380   49.2360 N   0  0  0  0  0  0  0  0  0  0  0  0
   35.6530   29.2360   50.4060 C   0  0  0  0  0  0  0  0  0  0  0  0
   36.3210   29.4520   51.5420 N   0  0  0  0  0  0  0  0  0  0  0  0
   39.6610   32.7670   45.4460 C   0  0  0  0  0  0  0  0  0  0  0  0
   40.4970   31.8420   44.5840 C   0  0  0  0  0  0  0  0  0  0  0  0
   41.1240   29.6820   42.4990 Cl  0  0  0  0  0  0  0  0  0  0  0  0
   40.2120   31.1340   42.1570 C   0  0  0  0  0  0  0  0  0  0  0  0
   40.0060   32.0200   43.1930 C   0  0  0  0  0  0  0  0  0  0  0  0
   39.2700   33.1690   42.8770 C   0  0  0  0  0  0  0  0  0  0  0  0
   38.7590   33.4450   41.6140 C   0  0  0  0  0  0  0  0  0  0  0  0
   38.9760   32.5540   40.6090 C   0  0  0  0  0  0  0  0  0  0  0  0
   39.7000   31.4200   40.9110 C   0  0  0  0  0  0  0  0  0  0  0  0
   36.0706   30.1385   46.6113 H   0  0  0  0  0  0  0  0  0  0  0  0
   37.3541   31.3668   44.5945 H   0  0  0  0  0  0  0  0  0  0  0  0
   37.9878   30.3435   52.4681 H   0  0  0  0  0  0  0  0  0  0  0  0
   38.8449   31.2894   50.3320 H   0  0  0  0  0  0  0  0  0  0  0  0
   34.7285   28.6402   50.4253 H   0  0  0  0  0  0  0  0  0  0  0  0
   39.1223   33.4781   44.8024 H   0  0  0  0  0  0  0  0  0  0  0  0
   40.3202   33.3158   46.1346 H   0  0  0  0  0  0  0  0  0  0  0  0
   41.5605   32.1147   44.6514 H   0  0  0  0  0  0  0  0  0  0  0  0
   40.4062   30.7958   44.9116 H   0  0  0  0  0  0  0  0  0  0  0  0
   39.0846   33.8990   43.6787 H   0  0  0  0  0  0  0  0  0  0  0  0
   38.1891   34.3678   41.4303 H   0  0  0  0  0  0  0  0  0  0  0  0
   38.5889   32.7314   39.5948 H   0  0  0  0  0  0  0  0  0  0  0  0
   39.8806   30.6957   40.1030 H   0  0  0  0  0  0  0  0  0  0  0  0
  1  8  1  0
  2  1  1  0
  3  4  1  0
  3  2  2  0
  4  5  1  0
  5  1  2  0
  6 11  2  0
  7  6  1  0
  8  9  1  0
  8  7  2  0
  9 10  2  0
 10 11  1  0
 12  4  1  0
 13 12  1  0
 15 14  1  0
 15 16  2  0
 16 13  1  0
 17 16  1  0
 18 17  2  0
 19 20  2  0
 19 18  1  0
 20 15  1  0
  2 21  1  0
  3 22  1  0
  6 23  1  0
  7 24  1  0
 10 25  1  0
 12 26  1  0
 12 27  1  0
 13 28  1  0
 13 29  1  0
 17 30  1  0
 18 31  1  0
 19 32  1  0
 20 33  1  0
M  ISO  8  21  14  22  14  23  14  24  14  25  14  26   8  27   8  28   8
M  ISO  5  29   8  30  14  31  14  32  14  33  14
M  END
>  <minimizedAffinity>  (1) 
-5.53880358

>  <minimizedRMSD>  (1) 
2.97177219

$$$$
