
     RDKit          3D

 38 40  0  0  0  0  0  0  0  0999 V2000
   37.6180   31.0080   47.9750 C   0  0  0  0  0  0  0  0  0  0  0  0
   36.9570   30.7490   46.8080 C   0  0  0  0  0  0  0  0  0  0  0  0
   37.6010   31.3790   45.7660 C   0  0  0  0  0  0  0  0  0  0  0  0
   38.6480   32.0120   46.3350 N   0  0  0  0  0  0  0  0  0  0  0  0
   38.6660   31.7950   47.6520 N   0  0  0  0  0  0  0  0  0  0  0  0
   37.3900   30.1160   51.6190 C   0  0  0  0  0  0  0  0  0  0  0  0
   37.9060   30.6640   50.4520 C   0  0  0  0  0  0  0  0  0  0  0  0
   37.1890   30.4910   49.2530 C   0  0  0  0  0  0  0  0  0  0  0  0
   36.0340   29.7890   49.3530 N   0  0  0  0  0  0  0  0  0  0  0  0
   35.5560   29.2690   50.5020 C   0  0  0  0  0  0  0  0  0  0  0  0
   36.2490   29.4400   51.6400 N   0  0  0  0  0  0  0  0  0  0  0  0
   39.6210   32.8220   45.5970 C   0  0  0  0  0  0  0  0  0  0  0  0
   40.6310   31.9210   44.9480 C   0  0  0  0  0  0  0  0  0  0  0  0
   40.4160   31.7230   43.5540 N   0  0  0  0  0  0  0  0  0  0  0  0
   40.3580   30.4130   43.0620 C   0  0  0  0  0  0  0  0  0  0  0  0
   39.0180   29.9200   42.6600 C   0  0  0  0  0  0  0  0  0  0  0  0
   38.3680   30.9180   41.7370 C   0  0  0  0  0  0  0  0  0  0  0  0
   38.2630   32.2260   42.5040 C   0  0  0  0  0  0  0  0  0  0  0  0
   39.6330   32.7270   42.9080 C   0  0  0  0  0  0  0  0  0  0  0  0
   36.0507   30.1327   46.7148 H   0  0  0  0  0  0  0  0  0  0  0  0
   37.3224   31.3684   44.7019 H   0  0  0  0  0  0  0  0  0  0  0  0
   37.9468   30.2471   52.5586 H   0  0  0  0  0  0  0  0  0  0  0  0
   38.8544   31.2211   50.4643 H   0  0  0  0  0  0  0  0  0  0  0  0
   34.6083   28.7105   50.5072 H   0  0  0  0  0  0  0  0  0  0  0  0
   39.1006   33.4065   44.8240 H   0  0  0  0  0  0  0  0  0  0  0  0
   40.1315   33.5055   46.2914 H   0  0  0  0  0  0  0  0  0  0  0  0
   41.6287   32.3635   45.0852 H   0  0  0  0  0  0  0  0  0  0  0  0
   40.5362   30.9362   45.4288 H   0  0  0  0  0  0  0  0  0  0  0  0
   41.0139   30.3568   42.1807 H   0  0  0  0  0  0  0  0  0  0  0  0
   40.6670   29.7712   43.9003 H   0  0  0  0  0  0  0  0  0  0  0  0
   39.1232   28.9559   42.1410 H   0  0  0  0  0  0  0  0  0  0  0  0
   38.3929   29.7898   43.5557 H   0  0  0  0  0  0  0  0  0  0  0  0
   37.3663   30.5682   41.4468 H   0  0  0  0  0  0  0  0  0  0  0  0
   38.9585   31.0469   40.8180 H   0  0  0  0  0  0  0  0  0  0  0  0
   37.7777   32.9795   41.8662 H   0  0  0  0  0  0  0  0  0  0  0  0
   37.6697   32.0530   43.4140 H   0  0  0  0  0  0  0  0  0  0  0  0
   40.1655   33.0629   42.0060 H   0  0  0  0  0  0  0  0  0  0  0  0
   39.4893   33.5496   43.6241 H   0  0  0  0  0  0  0  0  0  0  0  0
  1  8  1  0
  2  1  1  0
  3  4  1  0
  3  2  2  0
  4  5  1  0
  5  1  2  0
  6 11  2  0
  7  6  1  0
  8  9  1  0
  8  7  2  0
  9 10  2  0
 10 11  1  0
 12  4  1  0
 13 12  1  0
 14 13  1  0
 15 14  1  0
 16 15  1  0
 17 18  1  0
 17 16  1  0
 18 19  1  0
 19 14  1  0
  2 20  1  0
  3 21  1  0
  6 22  1  0
  7 23  1  0
 10 24  1  0
 12 25  1  0
 12 26  1  0
 13 27  1  0
 13 28  1  0
 15 29  1  0
 15 30  1  0
 16 31  1  0
 16 32  1  0
 17 33  1  0
 17 34  1  0
 18 35  1  0
 18 36  1  0
 19 37  1  0
 19 38  1  0
M  ISO  8  20  14  21  14  22  14  23  14  24  14  25   8  26   8  27   8
M  ISO  8  28   8  29  13  30  13  31  13  32  13  33  13  34  13  35  13
M  ISO  3  36  13  37  13  38  13
M  END
>  <minimizedAffinity>  (1) 
-5.16943884

>  <minimizedRMSD>  (1) 
2.88286519

$$$$
