
     RDKit          3D

 27 28  0  0  0  0  0  0  0  0999 V2000
   37.7890   31.2080   48.0930 C   0  0  0  0  0  0  0  0  0  0  0  0
   37.1930   31.0530   46.8780 C   0  0  0  0  0  0  0  0  0  0  0  0
   37.9210   31.7500   45.9320 C   0  0  0  0  0  0  0  0  0  0  0  0
   38.9450   32.3100   46.6140 N   0  0  0  0  0  0  0  0  0  0  0  0
   38.8650   31.9840   47.9100 N   0  0  0  0  0  0  0  0  0  0  0  0
   37.2800   30.0580   51.6340 C   0  0  0  0  0  0  0  0  0  0  0  0
   37.8860   30.6940   50.5460 C   0  0  0  0  0  0  0  0  0  0  0  0
   37.2540   30.5890   49.3010 C   0  0  0  0  0  0  0  0  0  0  0  0
   36.0980   29.8770   49.2420 N   0  0  0  0  0  0  0  0  0  0  0  0
   35.5460   29.2770   50.3230 C   0  0  0  0  0  0  0  0  0  0  0  0
   36.1470   29.3750   51.5140 N   0  0  0  0  0  0  0  0  0  0  0  0
   39.9780   33.1490   45.9850 C   0  0  0  0  0  0  0  0  0  0  0  0
   40.8280   32.2980   45.0820 C   0  0  0  0  0  0  0  0  0  0  0  0
   40.1400   31.3510   42.8100 C   0  0  0  0  0  0  0  0  0  0  0  0
   40.4870   30.1800   43.1130 O   0  0  0  0  0  0  0  0  0  0  0  0
   40.2890   32.4180   43.7400 N   0  0  0  0  0  0  0  0  0  0  0  0
   36.2818   30.4689   46.6818 H   0  0  0  0  0  0  0  0  0  0  0  0
   37.7119   31.8315   44.8551 H   0  0  0  0  0  0  0  0  0  0  0  0
   37.7576   30.1256   52.6226 H   0  0  0  0  0  0  0  0  0  0  0  0
   38.8243   31.2559   50.6639 H   0  0  0  0  0  0  0  0  0  0  0  0
   34.6078   28.7117   50.2223 H   0  0  0  0  0  0  0  0  0  0  0  0
   39.4972   33.9436   45.3955 H   0  0  0  0  0  0  0  0  0  0  0  0
   40.6082   33.6032   46.7638 H   0  0  0  0  0  0  0  0  0  0  0  0
   41.8693   32.6520   45.1021 H   0  0  0  0  0  0  0  0  0  0  0  0
   40.8171   31.2490   45.4129 H   0  0  0  0  0  0  0  0  0  0  0  0
   39.7166   31.5523   41.8149 H   0  0  0  0  0  0  0  0  0  0  0  0
   39.9888   33.3548   43.4346 H   0  0  0  0  0  0  0  0  0  0  0  0
  1  8  1  0
  2  1  1  0
  3  4  1  0
  3  2  2  0
  4  5  1  0
  5  1  2  0
  7  6  2  0
  8  7  1  0
  9  8  2  0
  9 10  1  0
 10 11  2  0
 11  6  1  0
 12  4  1  0
 13 12  1  0
 14 15  2  0
 14 16  1  0
 16 13  1  0
  2 17  1  0
  3 18  1  0
  6 19  1  0
  7 20  1  0
 10 21  1  0
 12 22  1  0
 12 23  1  0
 13 24  1  0
 13 25  1  0
 14 26  1  0
 16 27  1  0
M  ISO  8  17  14  18  14  19  14  20  14  21  14  22   8  23   8  24   8
M  ISO  2  25   8  26   6
M  END
>  <minimizedAffinity>  (1) 
-4.881845

>  <minimizedRMSD>  (1) 
2.01840806

$$$$
