
     RDKit          3D

 25 26  0  0  0  0  0  0  0  0999 V2000
   37.8650   31.1660   47.9890 C   0  0  0  0  0  0  0  0  0  0  0  0
   37.2710   31.0060   46.7720 C   0  0  0  0  0  0  0  0  0  0  0  0
   37.9950   31.6910   45.8100 C   0  0  0  0  0  0  0  0  0  0  0  0
   39.0220   32.2550   46.4870 N   0  0  0  0  0  0  0  0  0  0  0  0
   38.9350   31.9380   47.7710 N   0  0  0  0  0  0  0  0  0  0  0  0
   37.3430   30.1400   51.5630 C   0  0  0  0  0  0  0  0  0  0  0  0
   37.9260   30.7630   50.4610 C   0  0  0  0  0  0  0  0  0  0  0  0
   37.3440   30.5670   49.2040 C   0  0  0  0  0  0  0  0  0  0  0  0
   36.2360   29.7720   49.1340 N   0  0  0  0  0  0  0  0  0  0  0  0
   35.6960   29.1820   50.2270 C   0  0  0  0  0  0  0  0  0  0  0  0
   36.2600   29.3730   51.4390 N   0  0  0  0  0  0  0  0  0  0  0  0
   40.0550   33.0830   45.8740 C   0  0  0  0  0  0  0  0  0  0  0  0
   40.3900   32.5200   44.4970 C   0  0  0  0  0  0  0  0  0  0  0  0
   39.8070   33.4480   43.5240 N   0  0  0  0  0  0  0  0  0  0  0  0
   36.3576   30.4228   46.5833 H   0  0  0  0  0  0  0  0  0  0  0  0
   37.7820   31.7610   44.7331 H   0  0  0  0  0  0  0  0  0  0  0  0
   37.7872   30.2847   52.5588 H   0  0  0  0  0  0  0  0  0  0  0  0
   38.8206   31.3925   50.5766 H   0  0  0  0  0  0  0  0  0  0  0  0
   34.8014   28.5496   50.1278 H   0  0  0  0  0  0  0  0  0  0  0  0
   39.6879   34.1148   45.7713 H   0  0  0  0  0  0  0  0  0  0  0  0
   40.9558   33.0816   46.5054 H   0  0  0  0  0  0  0  0  0  0  0  0
   41.4803   32.4624   44.3634 H   0  0  0  0  0  0  0  0  0  0  0  0
   39.9900   31.5031   44.3711 H   0  0  0  0  0  0  0  0  0  0  0  0
   39.3274   34.2113   44.0222 H   0  0  0  0  0  0  0  0  0  0  0  0
   40.5540   33.8398   42.9330 H   0  0  0  0  0  0  0  0  0  0  0  0
  1  8  1  0
  2  1  1  0
  3  4  1  0
  3  2  2  0
  4  5  1  0
  5  1  2  0
  7  6  2  0
  8  7  1  0
  9  8  2  0
  9 10  1  0
 10 11  2  0
 11  6  1  0
 12  4  1  0
 13 12  1  0
 14 13  1  0
  2 15  1  0
  3 16  1  0
  6 17  1  0
  7 18  1  0
 10 19  1  0
 12 20  1  0
 12 21  1  0
 13 22  1  0
 13 23  1  0
 14 24  1  0
 14 25  1  0
M  ISO  8  15  14  16  14  17  14  18  14  19  14  20   8  21   8  22   8
M  ISO  3  23   8  24   5  25   5
M  END
>  <minimizedAffinity>  (1) 
-4.58664513

>  <minimizedRMSD>  (1) 
0.499430686

$$$$
