
     RDKit          3D

 25 26  0  0  0  0  0  0  0  0999 V2000
   35.5650   30.0950   46.4000 O   0  0  0  0  0  0  0  0  0  0  0  0
   34.3970   29.8020   47.3140 P   0  0  1  0  0  0  0  0  0  0  0  0
   34.2880   28.1420   47.6820 O   0  0  0  0  0  0  0  0  0  0  0  0
   34.5460   30.5990   48.8320 O   0  0  0  0  0  0  0  0  0  0  0  0
   35.6890   30.4920   49.6090 C   0  0  0  0  0  0  0  0  0  0  0  0
   35.9000   29.5580   50.6300 C   0  0  0  0  0  0  0  0  0  0  0  0
   37.1140   29.5790   51.3250 C   0  0  0  0  0  0  0  0  0  0  0  0
   38.0300   30.5140   50.9680 N   0  0  0  0  0  0  0  0  0  0  0  0
   37.7990   31.4060   49.9770 C   0  0  0  0  0  0  0  0  0  0  0  0
   36.6390   31.4020   49.2950 N   0  0  0  0  0  0  0  0  0  0  0  0
   32.9990   30.3280   46.5440 O   0  0  0  0  0  0  0  0  0  0  0  0
   32.0410   29.4860   46.0120 C   0  0  0  0  0  0  0  0  0  0  0  0
   30.6830   29.7190   46.0310 C   0  0  0  0  0  0  0  0  0  0  0  0
   29.7620   28.8490   45.4860 C   0  0  0  0  0  0  0  0  0  0  0  0
   30.2490   27.6920   44.8950 C   0  0  0  0  0  0  0  0  0  0  0  0
   31.6110   27.5150   44.9060 C   0  0  0  0  0  0  0  0  0  0  0  0
   32.5230   28.3540   45.4340 N   0  0  0  0  0  0  0  0  0  0  0  0
   34.2801   28.0217   48.6646 H   0  0  0  0  0  0  0  0  0  0  0  0
   35.1243   28.8198   50.8817 H   0  0  0  0  0  0  0  0  0  0  0  0
   37.3189   28.8618   52.1335 H   0  0  0  0  0  0  0  0  0  0  0  0
   38.5722   32.1466   49.7248 H   0  0  0  0  0  0  0  0  0  0  0  0
   30.3162   30.6424   46.5031 H   0  0  0  0  0  0  0  0  0  0  0  0
   28.6837   29.0639   45.5186 H   0  0  0  0  0  0  0  0  0  0  0  0
   29.5758   26.9511   44.4390 H   0  0  0  0  0  0  0  0  0  0  0  0
   31.9951   26.5971   44.4371 H   0  0  0  0  0  0  0  0  0  0  0  0
  2  1  2  0
  2  3  1  0
  2  4  1  0
  4  5  1  0
  5  6  2  0
  6  7  1  0
  8  7  2  0
  9  8  1  0
 10  5  1  0
 10  9  2  0
 11  2  1  0
 12 13  2  0
 12 11  1  0
 14 13  1  0
 15 16  1  0
 15 14  2  0
 16 17  2  0
 17 12  1  0
  3 18  1  0
  6 19  1  0
  7 20  1  0
  9 21  1  0
 13 22  1  0
 14 23  1  0
 15 24  1  0
 16 25  1  0
M  ISO  8  18   3  19  14  20  14  21  14  22  14  23  14  24  14  25  14
M  END
>  <minimizedAffinity>  (1) 
-3.80280972

>  <minimizedRMSD>  (1) 
1.9861145

$$$$
