
     RDKit          3D

 49 53  0  0  1  0  0  0  0  0999 V2000
   40.0080   31.6180   43.1630 N   0  0  0  0  0  0  0  0  0  0  0  0
   39.4550   32.8290   42.7080 C   0  0  0  0  0  0  0  0  0  0  0  0
   38.0580   32.7890   42.2510 C   0  0  0  0  0  0  0  0  0  0  0  0
   37.7490   31.6240   41.5320 O   0  0  0  0  0  0  0  0  0  0  0  0
   38.0170   30.5360   42.3070 C   0  0  0  0  0  0  0  0  0  0  0  0
   39.4960   30.4440   42.6030 C   0  0  1  0  0  0  0  0  0  0  0  0
   40.1360   28.4310   41.1600 C   0  0  0  0  0  0  0  0  0  0  0  0
   40.2800   29.7320   41.5870 C   0  0  0  0  0  0  0  0  0  0  0  0
   41.3320   30.3640   40.9070 C   0  0  0  0  0  0  0  0  0  0  0  0
   42.1400   29.8080   39.9370 C   0  0  0  0  0  0  0  0  0  0  0  0
   43.1640   30.3250   39.2330 N   0  0  0  0  0  0  0  0  0  0  0  0
   43.5760   29.3490   38.4420 N   0  0  0  0  0  0  0  0  0  0  0  0
   42.8500   28.2320   38.6190 C   0  0  0  0  0  0  0  0  0  0  0  0
   41.9060   28.4980   39.5870 C   0  0  0  0  0  0  0  0  0  0  0  0
   40.8950   27.7980   40.2010 C   0  0  0  0  0  0  0  0  0  0  0  0
   40.4230   31.6000   44.5090 C   0  0  0  0  0  0  0  0  0  0  0  0
   39.8240   32.5080   45.4670 C   0  0  0  0  0  0  0  0  0  0  0  0
   37.6800   30.9560   47.9000 C   0  0  0  0  0  0  0  0  0  0  0  0
   36.9110   30.8160   46.7620 C   0  0  0  0  0  0  0  0  0  0  0  0
   37.6370   31.3890   45.7090 C   0  0  0  0  0  0  0  0  0  0  0  0
   38.7750   31.8370   46.2350 N   0  0  0  0  0  0  0  0  0  0  0  0
   38.8010   31.5780   47.5490 N   0  0  0  0  0  0  0  0  0  0  0  0
   37.4450   30.1590   51.5580 C   0  0  0  0  0  0  0  0  0  0  0  0
   37.9490   30.6820   50.3770 C   0  0  0  0  0  0  0  0  0  0  0  0
   37.2680   30.4760   49.1890 C   0  0  0  0  0  0  0  0  0  0  0  0
   36.1230   29.7480   49.3060 N   0  0  0  0  0  0  0  0  0  0  0  0
   35.6440   29.2470   50.4540 C   0  0  0  0  0  0  0  0  0  0  0  0
   36.3110   29.4570   51.5760 N   0  0  0  0  0  0  0  0  0  0  0  0
   39.5145   33.5532   43.5339 H   0  0  0  0  0  0  0  0  0  0  0  0
   40.0420   33.0970   41.8171 H   0  0  0  0  0  0  0  0  0  0  0  0
   37.3998   32.8428   43.1307 H   0  0  0  0  0  0  0  0  0  0  0  0
   37.9090   33.6428   41.5736 H   0  0  0  0  0  0  0  0  0  0  0  0
   37.4636   30.6217   43.2538 H   0  0  0  0  0  0  0  0  0  0  0  0
   37.7071   29.6302   41.7652 H   0  0  0  0  0  0  0  0  0  0  0  0
   39.6294   29.7357   43.4340 H   0  0  0  0  0  0  0  0  0  0  0  0
   39.3368   27.8396   41.6307 H   0  0  0  0  0  0  0  0  0  0  0  0
   41.5334   31.4116   41.1752 H   0  0  0  0  0  0  0  0  0  0  0  0
   43.5460   31.2794   39.2970 H   0  0  0  0  0  0  0  0  0  0  0  0
   42.9849   27.2784   38.0876 H   0  0  0  0  0  0  0  0  0  0  0  0
   40.6956   26.7504   39.9311 H   0  0  0  0  0  0  0  0  0  0  0  0
   40.2431   30.5811   44.8826 H   0  0  0  0  0  0  0  0  0  0  0  0
   41.4665   31.9437   44.4551 H   0  0  0  0  0  0  0  0  0  0  0  0
   40.6013   32.8682   46.1569 H   0  0  0  0  0  0  0  0  0  0  0  0
   39.3757   33.3509   44.9205 H   0  0  0  0  0  0  0  0  0  0  0  0
   35.9191   30.3452   46.6947 H   0  0  0  0  0  0  0  0  0  0  0  0
   37.3275   31.4555   44.6555 H   0  0  0  0  0  0  0  0  0  0  0  0
   37.9909   30.3262   52.4983 H   0  0  0  0  0  0  0  0  0  0  0  0
   38.8860   31.2582   50.3837 H   0  0  0  0  0  0  0  0  0  0  0  0
   34.7082   28.6688   50.4620 H   0  0  0  0  0  0  0  0  0  0  0  0
  1 16  1  0
  2  1  1  0
  3  2  1  0
  4  3  1  0
  4  5  1  0
  5  6  1  0
  6  1  1  0
  7  8  2  0
  8  6  1  0
  9  8  1  0
 10  9  2  0
 11 10  1  0
 12 13  2  0
 12 11  1  0
 13 14  1  0
 14 10  1  0
 14 15  2  0
 15  7  1  0
 16 17  1  0
 17 21  1  0
 18 25  1  0
 19 18  1  0
 20 21  1  0
 20 19  2  0
 21 22  1  0
 22 18  2  0
 23 28  2  0
 24 23  1  0
 25 26  1  0
 25 24  2  0
 26 27  2  0
 27 28  1  0
  2 29  1  0
  2 30  1  0
  3 31  1  0
  3 32  1  0
  5 33  1  0
  5 34  1  0
  6 35  1  1
  7 36  1  0
  9 37  1  0
 11 38  1  0
 13 39  1  0
 15 40  1  0
 16 41  1  0
 16 42  1  0
 17 43  1  0
 17 44  1  0
 19 45  1  0
 20 46  1  0
 23 47  1  0
 24 48  1  0
 27 49  1  0
M  ISO  8  29  13  30  13  31  13  32  13  33  13  34  13  35  13  36  14
M  ISO  8  37  14  38   9  39  14  40  14  41   8  42   8  43   8  44   8
M  ISO  5  45  14  46  14  47  14  48  14  49  14
M  END
>  <minimizedAffinity>  (1) 
-6.12515688

>  <minimizedRMSD>  (1) 
1.05424333

$$$$
