
     RDKit          3D

 50 53  0  0  1  0  0  0  0  0999 V2000
   40.6410   31.9830   44.9900 C   0  0  0  0  0  0  0  0  0  0  0  0
   40.2980   31.8780   43.6330 N   0  0  0  0  0  0  0  0  0  0  0  0
   39.5760   32.9600   43.0730 C   0  0  0  0  0  0  0  0  0  0  0  0
   38.2110   32.6720   42.5730 C   0  0  0  0  0  0  0  0  0  0  0  0
   38.2030   31.4550   41.8320 O   0  0  0  0  0  0  0  0  0  0  0  0
   38.5680   30.4590   42.7150 C   0  0  0  0  0  0  0  0  0  0  0  0
   40.0200   30.6380   43.0600 C   0  0  1  0  0  0  0  0  0  0  0  0
   40.8620   30.3640   41.9460 N   0  0  0  0  0  0  0  0  0  0  0  0
   41.5230   29.1210   41.9200 C   0  0  0  0  0  0  0  0  0  0  0  0
   41.4520   28.3360   40.6630 C   0  0  0  0  0  0  0  0  0  0  0  0
   41.1760   29.0870   39.4710 N   0  0  0  0  0  0  0  0  0  0  0  0
   41.5560   30.4600   39.6900 C   0  0  0  0  0  0  0  0  0  0  0  0
   40.5590   31.0010   40.7220 C   0  0  0  0  0  0  0  0  0  0  0  0
   39.8370   32.8370   45.8490 C   0  0  0  0  0  0  0  0  0  0  0  0
   37.7140   31.0270   48.1050 C   0  0  0  0  0  0  0  0  0  0  0  0
   37.0240   30.9160   46.9370 C   0  0  0  0  0  0  0  0  0  0  0  0
   37.7310   31.5760   45.9530 C   0  0  0  0  0  0  0  0  0  0  0  0
   38.8260   32.0610   46.5580 N   0  0  0  0  0  0  0  0  0  0  0  0
   38.8070   31.7270   47.8450 N   0  0  0  0  0  0  0  0  0  0  0  0
   37.3520   30.0510   51.7280 C   0  0  0  0  0  0  0  0  0  0  0  0
   37.9020   30.5980   50.5870 C   0  0  0  0  0  0  0  0  0  0  0  0
   37.2510   30.4830   49.3710 C   0  0  0  0  0  0  0  0  0  0  0  0
   36.0720   29.8070   49.4210 N   0  0  0  0  0  0  0  0  0  0  0  0
   35.5450   29.2770   50.5390 C   0  0  0  0  0  0  0  0  0  0  0  0
   36.1960   29.4060   51.6870 N   0  0  0  0  0  0  0  0  0  0  0  0
   41.6738   32.3590   45.0348 H   0  0  0  0  0  0  0  0  0  0  0  0
   40.4734   30.9709   45.3871 H   0  0  0  0  0  0  0  0  0  0  0  0
   39.4887   33.7365   43.8472 H   0  0  0  0  0  0  0  0  0  0  0  0
   40.1498   33.2552   42.1821 H   0  0  0  0  0  0  0  0  0  0  0  0
   37.5232   32.5817   43.4267 H   0  0  0  0  0  0  0  0  0  0  0  0
   37.8896   33.4935   41.9158 H   0  0  0  0  0  0  0  0  0  0  0  0
   37.9580   30.5300   43.6276 H   0  0  0  0  0  0  0  0  0  0  0  0
   38.4076   29.4716   42.2575 H   0  0  0  0  0  0  0  0  0  0  0  0
   40.2457   29.8920   43.8362 H   0  0  0  0  0  0  0  0  0  0  0  0
   42.5859   29.3081   42.1326 H   0  0  0  0  0  0  0  0  0  0  0  0
   40.9964   28.5068   42.6653 H   0  0  0  0  0  0  0  0  0  0  0  0
   42.4190   27.8298   40.5264 H   0  0  0  0  0  0  0  0  0  0  0  0
   40.6009   27.6502   40.7873 H   0  0  0  0  0  0  0  0  0  0  0  0
   40.1702   29.0362   39.2547 H   0  0  0  0  0  0  0  0  0  0  0  0
   42.5827   30.5172   40.0806 H   0  0  0  0  0  0  0  0  0  0  0  0
   41.5351   31.0431   38.7575 H   0  0  0  0  0  0  0  0  0  0  0  0
   39.5293   30.7647   40.4155 H   0  0  0  0  0  0  0  0  0  0  0  0
   40.6357   32.0945   40.8134 H   0  0  0  0  0  0  0  0  0  0  0  0
   40.4927   33.3291   46.5824 H   0  0  0  0  0  0  0  0  0  0  0  0
   39.3293   33.5856   45.2230 H   0  0  0  0  0  0  0  0  0  0  0  0
   36.0673   30.3905   46.8010 H   0  0  0  0  0  0  0  0  0  0  0  0
   37.4546   31.6824   44.8936 H   0  0  0  0  0  0  0  0  0  0  0  0
   37.8819   30.1522   52.6866 H   0  0  0  0  0  0  0  0  0  0  0  0
   38.8638   31.1288   50.6441 H   0  0  0  0  0  0  0  0  0  0  0  0
   34.5844   28.7423   50.5016 H   0  0  0  0  0  0  0  0  0  0  0  0
  1 14  1  0
  2  1  1  0
  3  2  1  0
  4  3  1  0
  5  4  1  0
  5  6  1  0
  6  7  1  0
  7  2  1  0
  8 13  1  0
  8  7  1  0
  9  8  1  0
 10  9  1  0
 11 12  1  0
 11 10  1  0
 12 13  1  0
 14 18  1  0
 15 22  1  0
 16 15  1  0
 17 18  1  0
 17 16  2  0
 18 19  1  0
 19 15  2  0
 21 20  2  0
 22 23  2  0
 22 21  1  0
 23 24  1  0
 24 25  2  0
 25 20  1  0
  1 26  1  0
  1 27  1  0
  3 28  1  0
  3 29  1  0
  4 30  1  0
  4 31  1  0
  6 32  1  0
  6 33  1  0
  7 34  1  1
  9 35  1  0
  9 36  1  0
 10 37  1  0
 10 38  1  0
 11 39  1  0
 12 40  1  0
 12 41  1  0
 13 42  1  0
 13 43  1  0
 14 44  1  0
 14 45  1  0
 16 46  1  0
 17 47  1  0
 20 48  1  0
 21 49  1  0
 24 50  1  0
M  ISO  8  26   8  27   8  28  13  29  13  30  13  31  13  32  13  33  13
M  ISO  8  34  13  35  13  36  13  37  13  38  13  39   5  40  13  41  13
M  ISO  8  42  13  43  13  44   8  45   8  46  14  47  14  48  14  49  14
M  ISO  1  50  14
M  END
>  <minimizedAffinity>  (1) 
-6.00113201

>  <minimizedRMSD>  (1) 
0.428286195

$$$$
