
     RDKit          3D

 51 54  0  0  1  0  0  0  0  0999 V2000
   40.3160   31.7820   44.2330 C   0  0  0  0  0  0  0  0  0  0  0  0
   39.8510   31.9250   42.9270 N   0  0  0  0  0  0  0  0  0  0  0  0
   39.3150   33.1940   42.5800 C   0  0  0  0  0  0  0  0  0  0  0  0
   37.8960   33.2330   42.1930 C   0  0  0  0  0  0  0  0  0  0  0  0
   37.5720   32.1590   41.3170 O   0  0  0  0  0  0  0  0  0  0  0  0
   37.8030   30.9900   42.0340 C   0  0  0  0  0  0  0  0  0  0  0  0
   39.2810   30.8740   42.2120 C   0  0  2  0  0  0  0  0  0  0  0  0
   39.7980   29.5520   42.4100 N   0  0  0  0  0  0  0  0  0  0  0  0
   39.8420   28.7970   41.1570 C   0  0  0  0  0  0  0  0  0  0  0  0
   40.3560   27.4010   41.3720 C   0  0  0  0  0  0  0  0  0  0  0  0
   39.3780   26.6050   42.1840 C   0  0  0  0  0  0  0  0  0  0  0  0
   38.4190   27.5670   42.8500 C   0  0  0  0  0  0  0  0  0  0  0  0
   39.1040   28.7900   43.4170 C   0  0  0  0  0  0  0  0  0  0  0  0
   39.7630   32.6300   45.2820 C   0  0  0  0  0  0  0  0  0  0  0  0
   37.7620   30.9360   47.7310 C   0  0  0  0  0  0  0  0  0  0  0  0
   36.9800   30.8170   46.6110 C   0  0  0  0  0  0  0  0  0  0  0  0
   37.6390   31.4320   45.5630 C   0  0  0  0  0  0  0  0  0  0  0  0
   38.7830   31.8960   46.0750 N   0  0  0  0  0  0  0  0  0  0  0  0
   38.8530   31.5950   47.3800 N   0  0  0  0  0  0  0  0  0  0  0  0
   37.4980   30.2300   51.4240 C   0  0  0  0  0  0  0  0  0  0  0  0
   37.9960   30.7480   50.2260 C   0  0  0  0  0  0  0  0  0  0  0  0
   37.3610   30.4420   49.0340 C   0  0  0  0  0  0  0  0  0  0  0  0
   36.2700   29.6350   49.1510 N   0  0  0  0  0  0  0  0  0  0  0  0
   35.8080   29.1480   50.3070 C   0  0  0  0  0  0  0  0  0  0  0  0
   36.4260   29.4500   51.4390 N   0  0  0  0  0  0  0  0  0  0  0  0
   41.4004   31.9653   44.2099 H   0  0  0  0  0  0  0  0  0  0  0  0
   39.9916   30.7700   44.5167 H   0  0  0  0  0  0  0  0  0  0  0  0
   39.4411   33.8570   43.4486 H   0  0  0  0  0  0  0  0  0  0  0  0
   39.8668   33.5024   41.6797 H   0  0  0  0  0  0  0  0  0  0  0  0
   37.2751   33.1579   43.0979 H   0  0  0  0  0  0  0  0  0  0  0  0
   37.7038   34.1806   41.6685 H   0  0  0  0  0  0  0  0  0  0  0  0
   37.3072   31.0436   43.0144 H   0  0  0  0  0  0  0  0  0  0  0  0
   37.4013   30.1157   41.5008 H   0  0  0  0  0  0  0  0  0  0  0  0
   39.6961   31.0444   41.2077 H   0  0  0  0  0  0  0  0  0  0  0  0
   40.5049   29.3169   40.4497 H   0  0  0  0  0  0  0  0  0  0  0  0
   38.8189   28.7302   40.7585 H   0  0  0  0  0  0  0  0  0  0  0  0
   40.4997   26.9131   40.3967 H   0  0  0  0  0  0  0  0  0  0  0  0
   41.3125   27.4514   41.9129 H   0  0  0  0  0  0  0  0  0  0  0  0
   38.8214   25.9193   41.5283 H   0  0  0  0  0  0  0  0  0  0  0  0
   39.9095   26.0131   42.9437 H   0  0  0  0  0  0  0  0  0  0  0  0
   37.6781   27.8942   42.1057 H   0  0  0  0  0  0  0  0  0  0  0  0
   37.9507   27.0340   43.6906 H   0  0  0  0  0  0  0  0  0  0  0  0
   39.8303   28.4666   44.1772 H   0  0  0  0  0  0  0  0  0  0  0  0
   38.3268   29.4376   43.8488 H   0  0  0  0  0  0  0  0  0  0  0  0
   40.5775   32.9697   45.9387 H   0  0  0  0  0  0  0  0  0  0  0  0
   39.2653   33.4922   44.8142 H   0  0  0  0  0  0  0  0  0  0  0  0
   36.0004   30.3196   46.5561 H   0  0  0  0  0  0  0  0  0  0  0  0
   37.2933   31.5211   44.5226 H   0  0  0  0  0  0  0  0  0  0  0  0
   38.0035   30.4732   52.3702 H   0  0  0  0  0  0  0  0  0  0  0  0
   38.8861   31.3943   50.2295 H   0  0  0  0  0  0  0  0  0  0  0  0
   34.9193   28.4999   50.3181 H   0  0  0  0  0  0  0  0  0  0  0  0
  1 14  1  0
  2  1  1  0
  3  2  1  0
  4  3  1  0
  5  6  1  0
  5  4  1  0
  6  7  1  0
  7  8  1  0
  7  2  1  0
  8 13  1  0
  9 10  1  0
  9  8  1  0
 10 11  1  0
 11 12  1  0
 12 13  1  0
 14 18  1  0
 15 22  1  0
 16 15  1  0
 17 18  1  0
 17 16  2  0
 18 19  1  0
 19 15  2  0
 20 25  2  0
 21 20  1  0
 22 23  1  0
 22 21  2  0
 23 24  2  0
 24 25  1  0
  1 26  1  0
  1 27  1  0
  3 28  1  0
  3 29  1  0
  4 30  1  0
  4 31  1  0
  6 32  1  0
  6 33  1  0
  7 34  1  6
  9 35  1  0
  9 36  1  0
 10 37  1  0
 10 38  1  0
 11 39  1  0
 11 40  1  0
 12 41  1  0
 12 42  1  0
 13 43  1  0
 13 44  1  0
 14 45  1  0
 14 46  1  0
 16 47  1  0
 17 48  1  0
 20 49  1  0
 21 50  1  0
 24 51  1  0
M  ISO  8  26   8  27   8  28  13  29  13  30  13  31  13  32  13  33  13
M  ISO  8  34  13  35  13  36  13  37  13  38  13  39  13  40  13  41  13
M  ISO  8  42  13  43  13  44  13  45   8  46   8  47  14  48  14  49  14
M  ISO  2  50  14  51  14
M  END
>  <minimizedAffinity>  (1) 
-5.62871838

>  <minimizedRMSD>  (1) 
2.10014033

$$$$
