
     RDKit          3D

 47 50  0  0  1  0  0  0  0  0999 V2000
   40.4060   31.6200   44.1210 C   0  0  0  0  0  0  0  0  0  0  0  0
   39.9140   31.7910   42.8140 N   0  0  0  0  0  0  0  0  0  0  0  0
   39.3140   33.0290   42.5000 C   0  0  0  0  0  0  0  0  0  0  0  0
   37.8860   33.0130   42.1390 C   0  0  0  0  0  0  0  0  0  0  0  0
   37.5960   31.9300   41.2570 O   0  0  0  0  0  0  0  0  0  0  0  0
   37.8880   30.7770   41.9450 C   0  0  0  0  0  0  0  0  0  0  0  0
   39.3820   30.6930   42.1300 C   0  0  1  0  0  0  0  0  0  0  0  0
   38.9170   28.5060   39.4700 O   0  0  0  0  0  0  0  0  0  0  0  0
   39.6370   29.0410   40.3420 C   0  0  0  0  0  0  0  0  0  0  0  0
   40.0630   30.3880   40.8080 C   0  0  2  0  0  0  0  0  0  0  0  0
   41.5260   30.1460   41.1180 C   0  0  0  0  0  0  0  0  0  0  0  0
   41.5430   28.7790   41.7460 C   0  0  0  0  0  0  0  0  0  0  0  0
   40.3200   28.1450   41.2340 N   0  0  0  0  0  0  0  0  0  0  0  0
   39.9040   32.5040   45.1640 C   0  0  0  0  0  0  0  0  0  0  0  0
   37.8470   30.9170   47.6390 C   0  0  0  0  0  0  0  0  0  0  0  0
   37.0600   30.8210   46.5350 C   0  0  0  0  0  0  0  0  0  0  0  0
   37.7300   31.4010   45.4730 C   0  0  0  0  0  0  0  0  0  0  0  0
   38.9000   31.8250   45.9770 N   0  0  0  0  0  0  0  0  0  0  0  0
   38.9610   31.5300   47.2790 N   0  0  0  0  0  0  0  0  0  0  0  0
   37.5500   30.3020   51.3460 C   0  0  0  0  0  0  0  0  0  0  0  0
   38.0300   30.8080   50.1580 C   0  0  0  0  0  0  0  0  0  0  0  0
   37.4500   30.4430   48.9520 C   0  0  0  0  0  0  0  0  0  0  0  0
   36.4130   29.5810   49.0770 N   0  0  0  0  0  0  0  0  0  0  0  0
   35.9510   29.0940   50.2360 C   0  0  0  0  0  0  0  0  0  0  0  0
   36.5240   29.4600   51.3680 N   0  0  0  0  0  0  0  0  0  0  0  0
   41.4973   31.7512   44.0790 H   0  0  0  0  0  0  0  0  0  0  0  0
   40.0549   30.6204   44.4170 H   0  0  0  0  0  0  0  0  0  0  0  0
   39.4262   33.6830   43.3773 H   0  0  0  0  0  0  0  0  0  0  0  0
   39.8319   33.3728   41.5925 H   0  0  0  0  0  0  0  0  0  0  0  0
   37.2845   32.9037   43.0535 H   0  0  0  0  0  0  0  0  0  0  0  0
   37.6418   33.9566   41.6291 H   0  0  0  0  0  0  0  0  0  0  0  0
   37.3934   30.7962   42.9273 H   0  0  0  0  0  0  0  0  0  0  0  0
   37.5290   29.9024   41.3826 H   0  0  0  0  0  0  0  0  0  0  0  0
   39.5964   29.8458   42.7981 H   0  0  0  0  0  0  0  0  0  0  0  0
   39.8470   31.1969   40.0946 H   0  0  0  0  0  0  0  0  0  0  0  0
   42.1285   30.1612   40.1978 H   0  0  0  0  0  0  0  0  0  0  0  0
   41.9536   30.9188   41.7737 H   0  0  0  0  0  0  0  0  0  0  0  0
   42.4358   28.2161   41.4362 H   0  0  0  0  0  0  0  0  0  0  0  0
   41.5764   28.8152   42.8449 H   0  0  0  0  0  0  0  0  0  0  0  0
   39.9994   27.1973   41.4787 H   0  0  0  0  0  0  0  0  0  0  0  0
   40.7403   32.8142   45.8077 H   0  0  0  0  0  0  0  0  0  0  0  0
   39.4406   33.3821   44.6904 H   0  0  0  0  0  0  0  0  0  0  0  0
   36.0617   30.3610   46.4933 H   0  0  0  0  0  0  0  0  0  0  0  0
   37.3786   31.4950   44.4349 H   0  0  0  0  0  0  0  0  0  0  0  0
   38.0249   30.6007   52.2922 H   0  0  0  0  0  0  0  0  0  0  0  0
   38.8796   31.5067   50.1658 H   0  0  0  0  0  0  0  0  0  0  0  0
   35.1016   28.3952   50.2448 H   0  0  0  0  0  0  0  0  0  0  0  0
  1 14  1  0
  2  1  1  0
  3  2  1  0
  4  3  1  0
  5  6  1  0
  5  4  1  0
  6  7  1  0
  7  2  1  0
  8  9  2  0
  9 13  1  0
 10  9  1  0
 10 11  1  0
 10  7  1  0
 11 12  1  0
 13 12  1  0
 14 18  1  0
 15 22  1  0
 16 15  1  0
 17 18  1  0
 17 16  2  0
 18 19  1  0
 19 15  2  0
 20 25  2  0
 21 20  1  0
 22 23  1  0
 22 21  2  0
 23 24  2  0
 24 25  1  0
  1 26  1  0
  1 27  1  0
  3 28  1  0
  3 29  1  0
  4 30  1  0
  4 31  1  0
  6 32  1  0
  6 33  1  0
  7 34  1  1
 10 35  1  6
 11 36  1  0
 11 37  1  0
 12 38  1  0
 12 39  1  0
 13 40  1  0
 14 41  1  0
 14 42  1  0
 16 43  1  0
 17 44  1  0
 20 45  1  0
 21 46  1  0
 24 47  1  0
M  ISO  8  26   8  27   8  28  13  29  13  30  13  31  13  32  13  33  13
M  ISO  8  34  13  35  13  36  13  37  13  38  13  39  13  40  10  41   8
M  ISO  6  42   8  43  14  44  14  45  14  46  14  47  14
M  END
>  <minimizedAffinity>  (1) 
-5.54498911

>  <minimizedRMSD>  (1) 
1.28191268

$$$$
