
     RDKit          3D

 42 44  0  0  1  0  0  0  0  0999 V2000
   39.8460   32.7500   45.7250 C   0  0  0  0  0  0  0  0  0  0  0  0
   37.7120   31.0290   48.0420 C   0  0  0  0  0  0  0  0  0  0  0  0
   36.9890   30.8930   46.8720 C   0  0  0  0  0  0  0  0  0  0  0  0
   37.7270   31.5310   45.8630 C   0  0  0  0  0  0  0  0  0  0  0  0
   38.8240   32.0090   46.4490 N   0  0  0  0  0  0  0  0  0  0  0  0
   38.8190   31.7110   47.7500 N   0  0  0  0  0  0  0  0  0  0  0  0
   37.3670   30.0990   51.6610 C   0  0  0  0  0  0  0  0  0  0  0  0
   37.9130   30.6540   50.5080 C   0  0  0  0  0  0  0  0  0  0  0  0
   37.2560   30.4960   49.2980 C   0  0  0  0  0  0  0  0  0  0  0  0
   36.1010   29.7890   49.3550 N   0  0  0  0  0  0  0  0  0  0  0  0
   35.5800   29.2560   50.4800 C   0  0  0  0  0  0  0  0  0  0  0  0
   36.2170   29.4130   51.6310 N   0  0  0  0  0  0  0  0  0  0  0  0
   40.6080   31.8890   44.8430 C   0  0  0  0  0  0  0  0  0  0  0  0
   40.2500   31.8250   43.4980 N   0  0  0  0  0  0  0  0  0  0  0  0
   39.5850   32.9420   42.9540 C   0  0  0  0  0  0  0  0  0  0  0  0
   38.2070   32.7210   42.4460 C   0  0  0  0  0  0  0  0  0  0  0  0
   38.0810   31.5060   41.7640 O   0  0  0  0  0  0  0  0  0  0  0  0
   38.5050   30.4670   42.5320 C   0  0  0  0  0  0  0  0  0  0  0  0
   39.9300   30.6110   42.9010 C   0  0  1  0  0  0  0  0  0  0  0  0
   40.8520   30.2970   41.7250 C   0  0  0  0  0  0  0  0  0  0  0  0
   41.5770   28.9970   41.9220 C   0  0  0  0  0  0  0  0  0  0  0  0
   39.3605   33.5343   45.1257 H   0  0  0  0  0  0  0  0  0  0  0  0
   40.5381   33.1872   46.4598 H   0  0  0  0  0  0  0  0  0  0  0  0
   36.0215   30.3830   46.7543 H   0  0  0  0  0  0  0  0  0  0  0  0
   37.4543   31.6188   44.8010 H   0  0  0  0  0  0  0  0  0  0  0  0
   37.8918   30.2265   52.6193 H   0  0  0  0  0  0  0  0  0  0  0  0
   38.8587   31.2138   50.5564 H   0  0  0  0  0  0  0  0  0  0  0  0
   34.6341   28.6958   50.4417 H   0  0  0  0  0  0  0  0  0  0  0  0
   41.6539   32.2274   44.8841 H   0  0  0  0  0  0  0  0  0  0  0  0
   40.4090   30.8754   45.2212 H   0  0  0  0  0  0  0  0  0  0  0  0
   39.5308   33.7112   43.7385 H   0  0  0  0  0  0  0  0  0  0  0  0
   40.1750   33.2248   42.0698 H   0  0  0  0  0  0  0  0  0  0  0  0
   37.5114   32.7221   43.2982 H   0  0  0  0  0  0  0  0  0  0  0  0
   37.9757   33.5301   41.7376 H   0  0  0  0  0  0  0  0  0  0  0  0
   37.9001   30.4311   43.4500 H   0  0  0  0  0  0  0  0  0  0  0  0
   38.3912   29.5399   41.9511 H   0  0  0  0  0  0  0  0  0  0  0  0
   40.1014   29.8560   43.6824 H   0  0  0  0  0  0  0  0  0  0  0  0
   41.5907   31.1059   41.6248 H   0  0  0  0  0  0  0  0  0  0  0  0
   40.2356   30.2128   40.8178 H   0  0  0  0  0  0  0  0  0  0  0  0
   41.6878   28.7984   42.9982 H   0  0  0  0  0  0  0  0  0  0  0  0
   41.0028   28.1827   41.4560 H   0  0  0  0  0  0  0  0  0  0  0  0
   42.5716   29.0576   41.4560 H   0  0  0  0  0  0  0  0  0  0  0  0
  1  5  1  0
  2  9  1  0
  3  2  1  0
  4  5  1  0
  4  3  2  0
  5  6  1  0
  6  2  2  0
  8  7  2  0
  9 10  2  0
  9  8  1  0
 10 11  1  0
 11 12  2  0
 12  7  1  0
 13  1  1  0
 14 13  1  0
 15 14  1  0
 16 15  1  0
 17 16  1  0
 17 18  1  0
 18 19  1  0
 19 14  1  0
 20 21  1  0
 20 19  1  0
  1 22  1  0
  1 23  1  0
  3 24  1  0
  4 25  1  0
  7 26  1  0
  8 27  1  0
 11 28  1  0
 13 29  1  0
 13 30  1  0
 15 31  1  0
 15 32  1  0
 16 33  1  0
 16 34  1  0
 18 35  1  0
 18 36  1  0
 19 37  1  1
 20 38  1  0
 20 39  1  0
 21 40  1  0
 21 41  1  0
 21 42  1  0
M  ISO  8  22   8  23   8  24  14  25  14  26  14  27  14  28  14  29   8
M  ISO  8  30   8  31  13  32  13  33  13  34  13  35  13  36  13  37  13
M  ISO  5  38   8  39   8  40   8  41   8  42   8
M  END
>  <minimizedAffinity>  (1) 
-5.46189022

>  <minimizedRMSD>  (1) 
0.643178463

$$$$
