
     RDKit          3D

 27 28  0  0  1  0  0  0  0  0999 V2000
   35.5900   30.1310   46.4400 O   0  0  0  0  0  0  0  0  0  0  0  0
   34.3870   29.8630   47.3220 P   0  0  1  0  0  0  0  0  0  0  0  0
   34.1970   28.1900   47.6120 O   0  0  0  0  0  0  0  0  0  0  0  0
   34.5150   30.5970   48.8680 O   0  0  0  0  0  0  0  0  0  0  0  0
   35.6680   30.4840   49.6330 C   0  0  0  0  0  0  0  0  0  0  0  0
   35.9000   29.5320   50.6300 C   0  0  0  0  0  0  0  0  0  0  0  0
   37.1170   29.5570   51.3070 C   0  0  0  0  0  0  0  0  0  0  0  0
   38.0310   30.5010   50.9770 N   0  0  0  0  0  0  0  0  0  0  0  0
   37.7760   31.4210   49.9970 C   0  0  0  0  0  0  0  0  0  0  0  0
   36.6050   31.4140   49.3280 N   0  0  0  0  0  0  0  0  0  0  0  0
   33.0450   30.4650   46.4940 O   0  0  0  0  0  0  0  0  0  0  0  0
   32.2180   29.4340   46.0420 C   0  0  2  0  0  0  0  0  0  0  0  0
   32.5940   29.1360   44.6050 C   0  0  0  0  0  0  0  0  0  0  0  0
   31.2790   28.7750   43.9980 C   0  0  0  0  0  0  0  0  0  0  0  0
   30.2560   29.1990   44.8160 O   0  0  0  0  0  0  0  0  0  0  0  0
   30.7900   29.9460   45.8380 C   0  0  0  0  0  0  0  0  0  0  0  0
   34.1782   28.0243   48.5879 H   0  0  0  0  0  0  0  0  0  0  0  0
   35.1370   28.7785   50.8749 H   0  0  0  0  0  0  0  0  0  0  0  0
   37.3325   28.8222   52.0967 H   0  0  0  0  0  0  0  0  0  0  0  0
   38.5365   32.1768   49.7514 H   0  0  0  0  0  0  0  0  0  0  0  0
   32.3057   28.6050   46.7597 H   0  0  0  0  0  0  0  0  0  0  0  0
   33.0288   30.0201   44.1159 H   0  0  0  0  0  0  0  0  0  0  0  0
   33.3556   28.3487   44.5041 H   0  0  0  0  0  0  0  0  0  0  0  0
   31.1852   29.2595   43.0149 H   0  0  0  0  0  0  0  0  0  0  0  0
   31.2209   27.6829   43.8799 H   0  0  0  0  0  0  0  0  0  0  0  0
   30.8025   31.0115   45.5650 H   0  0  0  0  0  0  0  0  0  0  0  0
   30.1948   29.8491   46.7580 H   0  0  0  0  0  0  0  0  0  0  0  0
  2  1  2  0
  2  3  1  0
  2  4  1  0
  4  5  1  0
  5  6  2  0
  6  7  1  0
  8  7  2  0
  9  8  1  0
 10  5  1  0
 10  9  2  0
 11  2  1  0
 12 11  1  0
 13 12  1  0
 14 13  1  0
 14 15  1  0
 15 16  1  0
 16 12  1  0
  3 17  1  0
  6 18  1  0
  7 19  1  0
  9 20  1  0
 12 21  1  1
 13 22  1  0
 13 23  1  0
 14 24  1  0
 14 25  1  0
 16 26  1  0
 16 27  1  0
M  ISO  8  17   3  18  14  19  14  20  14  21  13  22  13  23  13  24  13
M  ISO  3  25  13  26  13  27  13
M  END
>  <minimizedAffinity>  (1) 
-3.70260239

>  <minimizedRMSD>  (1) 
1.64891338

$$$$
