
     RDKit          3D

 37 39  0  0  1  0  0  0  0  0999 V2000
   39.8840   32.5220   45.2730 C   0  0  0  0  0  0  0  0  0  0  0  0
   37.7730   30.9240   47.6980 C   0  0  0  0  0  0  0  0  0  0  0  0
   37.0270   30.7440   46.5490 C   0  0  0  0  0  0  0  0  0  0  0  0
   37.7480   31.3290   45.5030 C   0  0  0  0  0  0  0  0  0  0  0  0
   38.8600   31.8230   46.0400 N   0  0  0  0  0  0  0  0  0  0  0  0
   38.8780   31.5820   47.3500 N   0  0  0  0  0  0  0  0  0  0  0  0
   37.4520   30.2240   51.3780 C   0  0  0  0  0  0  0  0  0  0  0  0
   37.9760   30.7490   50.1890 C   0  0  0  0  0  0  0  0  0  0  0  0
   37.3470   30.4500   48.9920 C   0  0  0  0  0  0  0  0  0  0  0  0
   36.2550   29.6550   49.0850 N   0  0  0  0  0  0  0  0  0  0  0  0
   35.7640   29.1580   50.2380 C   0  0  0  0  0  0  0  0  0  0  0  0
   36.3740   29.4520   51.3750 N   0  0  0  0  0  0  0  0  0  0  0  0
   40.4030   31.6870   44.2050 C   0  0  0  0  0  0  0  0  0  0  0  0
   39.9830   31.9320   42.8970 N   0  0  0  0  0  0  0  0  0  0  0  0
   39.3150   33.1530   42.6600 C   0  0  0  0  0  0  0  0  0  0  0  0
   37.9070   33.0720   42.1960 C   0  0  0  0  0  0  0  0  0  0  0  0
   37.7170   32.0560   41.2520 O   0  0  0  0  0  0  0  0  0  0  0  0
   38.1580   30.8600   41.7330 C   0  0  0  0  0  0  0  0  0  0  0  0
   39.6150   30.8990   42.0470 C   0  0  2  0  0  0  0  0  0  0  0  0
   40.0080   29.2550   42.7510 S   0  0  0  0  0  0  0  0  0  0  0  0
   39.4464   33.4319   44.8364 H   0  0  0  0  0  0  0  0  0  0  0  0
   40.7129   32.7760   45.9500 H   0  0  0  0  0  0  0  0  0  0  0  0
   36.0534   30.2380   46.4718 H   0  0  0  0  0  0  0  0  0  0  0  0
   37.4532   31.3721   44.4441 H   0  0  0  0  0  0  0  0  0  0  0  0
   37.9451   30.4571   52.3333 H   0  0  0  0  0  0  0  0  0  0  0  0
   38.8715   31.3876   50.2062 H   0  0  0  0  0  0  0  0  0  0  0  0
   34.8696   28.5176   50.2337 H   0  0  0  0  0  0  0  0  0  0  0  0
   41.4982   31.7892   44.2176 H   0  0  0  0  0  0  0  0  0  0  0  0
   40.0035   30.6872   44.4303 H   0  0  0  0  0  0  0  0  0  0  0  0
   39.3221   33.7232   43.6007 H   0  0  0  0  0  0  0  0  0  0  0  0
   39.8630   33.6219   41.8294 H   0  0  0  0  0  0  0  0  0  0  0  0
   37.2594   32.8750   43.0631 H   0  0  0  0  0  0  0  0  0  0  0  0
   37.6550   34.0291   41.7160 H   0  0  0  0  0  0  0  0  0  0  0  0
   37.6014   30.6168   42.6501 H   0  0  0  0  0  0  0  0  0  0  0  0
   37.9928   30.0957   40.9593 H   0  0  0  0  0  0  0  0  0  0  0  0
   40.1923   31.1073   41.1341 H   0  0  0  0  0  0  0  0  0  0  0  0
   39.9906   29.3280   44.1189 H   0  0  0  0  0  0  0  0  0  0  0  0
  1  5  1  0
  2  9  1  0
  3  2  1  0
  4  5  1  0
  4  3  2  0
  5  6  1  0
  6  2  2  0
  8  7  2  0
  9 10  2  0
  9  8  1  0
 10 11  1  0
 11 12  2  0
 12  7  1  0
 13  1  1  0
 14 13  1  0
 15 14  1  0
 16 15  1  0
 17 18  1  0
 17 16  1  0
 18 19  1  0
 19 20  1  0
 19 14  1  0
  1 21  1  0
  1 22  1  0
  3 23  1  0
  4 24  1  0
  7 25  1  0
  8 26  1  0
 11 27  1  0
 13 28  1  0
 13 29  1  0
 15 30  1  0
 15 31  1  0
 16 32  1  0
 16 33  1  0
 18 34  1  0
 18 35  1  0
 19 36  1  6
 20 37  1  0
M  ISO  8  21   8  22   8  23  14  24  14  25  14  26  14  27  14  28   8
M  ISO  8  29   8  30  13  31  13  32  13  33  13  34  13  35  13  36  13
M  ISO  1  37  11
M  END
>  <minimizedAffinity>  (1) 
-5.12882423

>  <minimizedRMSD>  (1) 
0.777052224

$$$$
