
     RDKit          3D

 32 34  0  0  1  0  0  0  0  0999 V2000
   33.1320   28.4220   47.6510 N   0  0  0  0  0  0  0  0  0  0  0  0
   33.9460   28.9690   48.7300 C   0  0  0  0  0  0  0  0  0  0  0  0
   34.6550   30.2360   48.3840 C   0  0  2  0  0  0  0  0  0  0  0  0
   35.0450   30.4050   47.0460 N   0  0  0  0  0  0  0  0  0  0  0  0
   34.0780   29.9120   46.0800 C   0  0  0  0  0  0  0  0  0  0  0  0
   33.8610   28.4690   46.4250 C   0  0  0  0  0  0  0  0  0  0  0  0
   31.8200   27.9210   47.8270 C   0  0  0  0  0  0  0  0  0  0  0  0
   30.9870   27.5840   46.7650 C   0  0  0  0  0  0  0  0  0  0  0  0
   29.7040   27.0910   47.0520 C   0  0  0  0  0  0  0  0  0  0  0  0
   29.3390   26.9680   48.3670 N   0  0  0  0  0  0  0  0  0  0  0  0
   30.1900   27.3110   49.3770 C   0  0  0  0  0  0  0  0  0  0  0  0
   31.4140   27.7810   49.1140 N   0  0  0  0  0  0  0  0  0  0  0  0
   35.8350   30.3630   49.2630 C   0  0  0  0  0  0  0  0  0  0  0  0
   36.1390   29.8110   50.4880 C   0  0  0  0  0  0  0  0  0  0  0  0
   37.3250   30.0720   51.1350 C   0  0  0  0  0  0  0  0  0  0  0  0
   38.2160   30.9070   50.5280 N   0  0  0  0  0  0  0  0  0  0  0  0
   37.9460   31.4590   49.3350 C   0  0  0  0  0  0  0  0  0  0  0  0
   36.7810   31.1890   48.7250 N   0  0  0  0  0  0  0  0  0  0  0  0
   33.2898   29.1656   49.5907 H   0  0  0  0  0  0  0  0  0  0  0  0
   34.7240   28.2222   48.9468 H   0  0  0  0  0  0  0  0  0  0  0  0
   33.9107   31.0308   48.5399 H   0  0  0  0  0  0  0  0  0  0  0  0
   35.1889   31.4105   46.8755 H   0  0  0  0  0  0  0  0  0  0  0  0
   34.4739   30.0069   45.0581 H   0  0  0  0  0  0  0  0  0  0  0  0
   33.1392   30.4842   46.1163 H   0  0  0  0  0  0  0  0  0  0  0  0
   33.2859   27.9754   45.6278 H   0  0  0  0  0  0  0  0  0  0  0  0
   34.8243   27.9481   46.5288 H   0  0  0  0  0  0  0  0  0  0  0  0
   31.3255   27.7010   45.7249 H   0  0  0  0  0  0  0  0  0  0  0  0
   29.0116   26.8115   46.2442 H   0  0  0  0  0  0  0  0  0  0  0  0
   29.8647   27.1994   50.4219 H   0  0  0  0  0  0  0  0  0  0  0  0
   35.4096   29.1395   50.9646 H   0  0  0  0  0  0  0  0  0  0  0  0
   37.5478   29.6204   52.1130 H   0  0  0  0  0  0  0  0  0  0  0  0
   38.6762   32.1299   48.8589 H   0  0  0  0  0  0  0  0  0  0  0  0
  1  7  1  0
  1  2  1  0
  3  2  1  0
  3 13  1  0
  4  3  1  0
  5  6  1  0
  5  4  1  0
  6  1  1  0
  7 12  2  0
  8  9  2  0
  8  7  1  0
  9 10  1  0
 10 11  2  0
 12 11  1  0
 13 14  2  0
 14 15  1  0
 16 15  2  0
 17 16  1  0
 18 13  1  0
 18 17  2  0
  2 19  1  0
  2 20  1  0
  3 21  1  1
  4 22  1  0
  5 23  1  0
  5 24  1  0
  6 25  1  0
  6 26  1  0
  8 27  1  0
  9 28  1  0
 11 29  1  0
 14 30  1  0
 15 31  1  0
 17 32  1  0
M  ISO  8  19  13  20  13  21  13  22   5  23  13  24  13  25  13  26  13
M  ISO  6  27  14  28  14  29  14  30  14  31  14  32  14
M  END
>  <minimizedAffinity>  (1) 
-4.99891615

>  <minimizedRMSD>  (1) 
4.38739109

$$$$
