
     RDKit          3D

 35 37  0  0  1  0  0  0  0  0999 V2000
   37.7190   31.2080   45.0620 N   0  0  0  0  0  0  0  0  0  0  0  0
   37.3070   30.4700   46.2500 C   0  0  0  0  0  0  0  0  0  0  0  0
   37.8540   31.0270   47.5220 C   0  0  2  0  0  0  0  0  0  0  0  0
   39.2080   31.4580   47.4530 N   0  0  0  0  0  0  0  0  0  0  0  0
   39.3900   32.3340   46.3020 C   0  0  0  0  0  0  0  0  0  0  0  0
   39.1330   31.4400   45.1150 C   0  0  0  0  0  0  0  0  0  0  0  0
   36.8340   31.6180   44.0340 C   0  0  0  0  0  0  0  0  0  0  0  0
   37.1460   32.6630   43.1520 C   0  0  0  0  0  0  0  0  0  0  0  0
   36.2060   32.9950   42.1680 C   0  0  0  0  0  0  0  0  0  0  0  0
   35.0340   32.2860   42.1180 N   0  0  0  0  0  0  0  0  0  0  0  0
   34.7760   31.2740   43.0020 C   0  0  0  0  0  0  0  0  0  0  0  0
   35.6600   30.9430   43.9470 N   0  0  0  0  0  0  0  0  0  0  0  0
   38.7040   31.3260   50.5870 O   0  0  0  0  0  0  0  0  0  0  0  0
   37.8650   30.5740   49.9850 C   0  0  0  0  0  0  0  0  0  0  0  0
   37.5710   30.0910   48.6360 C   0  0  1  0  0  0  0  0  0  0  0  0
   36.0690   29.8170   48.7220 C   0  0  0  0  0  0  0  0  0  0  0  0
   35.9770   29.2130   50.1100 C   0  0  0  0  0  0  0  0  0  0  0  0
   36.9030   30.0230   50.9090 N   0  0  0  0  0  0  0  0  0  0  0  0
   36.2086   30.4885   46.3068 H   0  0  0  0  0  0  0  0  0  0  0  0
   37.7049   29.4495   46.1486 H   0  0  0  0  0  0  0  0  0  0  0  0
   37.3241   31.9699   47.7225 H   0  0  0  0  0  0  0  0  0  0  0  0
   39.4480   31.9703   48.3138 H   0  0  0  0  0  0  0  0  0  0  0  0
   38.6710   33.1661   46.3270 H   0  0  0  0  0  0  0  0  0  0  0  0
   40.3888   32.7942   46.2755 H   0  0  0  0  0  0  0  0  0  0  0  0
   39.6677   30.4866   45.2376 H   0  0  0  0  0  0  0  0  0  0  0  0
   39.4884   31.9098   44.1860 H   0  0  0  0  0  0  0  0  0  0  0  0
   38.0998   33.2053   43.2306 H   0  0  0  0  0  0  0  0  0  0  0  0
   36.4038   33.8061   41.4518 H   0  0  0  0  0  0  0  0  0  0  0  0
   33.8256   30.7244   42.9333 H   0  0  0  0  0  0  0  0  0  0  0  0
   38.2164   29.2355   48.3879 H   0  0  0  0  0  0  0  0  0  0  0  0
   35.4820   30.7439   48.6428 H   0  0  0  0  0  0  0  0  0  0  0  0
   35.6726   29.1798   47.9177 H   0  0  0  0  0  0  0  0  0  0  0  0
   34.9522   29.2884   50.5026 H   0  0  0  0  0  0  0  0  0  0  0  0
   36.2289   28.1423   50.1244 H   0  0  0  0  0  0  0  0  0  0  0  0
   36.8726   30.1695   51.9281 H   0  0  0  0  0  0  0  0  0  0  0  0
  1  6  1  0
  1  2  1  0
  2  3  1  0
  3 15  1  0
  4  3  1  0
  5  4  1  0
  6  5  1  0
  7  1  1  0
  8  7  2  0
  9  8  1  0
 10  9  2  0
 10 11  1  0
 11 12  2  0
 12  7  1  0
 14 13  2  0
 14 18  1  0
 15 16  1  0
 15 14  1  0
 16 17  1  0
 17 18  1  0
  2 19  1  0
  2 20  1  0
  3 21  1  1
  4 22  1  0
  5 23  1  0
  5 24  1  0
  6 25  1  0
  6 26  1  0
  8 27  1  0
  9 28  1  0
 11 29  1  0
 15 30  1  6
 16 31  1  0
 16 32  1  0
 17 33  1  0
 17 34  1  0
 18 35  1  0
M  ISO  8  19  13  20  13  21  13  22   5  23  13  24  13  25  13  26  13
M  ISO  8  27  14  28  14  29  14  30  13  31  13  32  13  33  13  34  13
M  ISO  1  35  10
M  END
>  <minimizedAffinity>  (1) 
-4.80684996

>  <minimizedRMSD>  (1) 
4.84446239

$$$$
