
     RDKit          3D

 30 31  0  0  1  0  0  0  0  0999 V2000
   36.2870   30.3230   48.4250 N   0  0  0  0  0  0  0  0  0  0  0  0
   35.3820   30.0870   47.3250 C   0  0  0  0  0  0  0  0  0  0  0  0
   33.9740   29.8510   47.7280 C   0  0  2  0  0  0  0  0  0  0  0  0
   33.7650   29.1780   48.9600 N   0  0  0  0  0  0  0  0  0  0  0  0
   34.6670   29.6480   50.0030 C   0  0  0  0  0  0  0  0  0  0  0  0
   36.0550   29.3810   49.4750 C   0  0  0  0  0  0  0  0  0  0  0  0
   37.2660   31.3560   48.4410 C   0  0  0  0  0  0  0  0  0  0  0  0
   37.4320   32.2390   49.5090 C   0  0  0  0  0  0  0  0  0  0  0  0
   38.4110   33.2210   49.4510 C   0  0  0  0  0  0  0  0  0  0  0  0
   39.1800   33.2800   48.3290 N   0  0  0  0  0  0  0  0  0  0  0  0
   38.9920   32.3980   47.2980 C   0  0  0  0  0  0  0  0  0  0  0  0
   38.0480   31.4370   47.3330 N   0  0  0  0  0  0  0  0  0  0  0  0
   33.2510   29.0740   46.6500 C   0  0  0  0  0  0  0  0  0  0  0  0
   32.2140   28.1370   47.1890 C   0  0  0  0  0  0  0  0  0  0  0  0
   35.7345   29.2030   46.7734 H   0  0  0  0  0  0  0  0  0  0  0  0
   35.3842   31.0027   46.7155 H   0  0  0  0  0  0  0  0  0  0  0  0
   33.5769   30.8669   47.8705 H   0  0  0  0  0  0  0  0  0  0  0  0
   32.7940   29.3372   49.2645 H   0  0  0  0  0  0  0  0  0  0  0  0
   34.5226   30.7237   50.1820 H   0  0  0  0  0  0  0  0  0  0  0  0
   34.4870   29.1401   50.9620 H   0  0  0  0  0  0  0  0  0  0  0  0
   36.1204   28.3549   49.0841 H   0  0  0  0  0  0  0  0  0  0  0  0
   36.8066   29.4854   50.2714 H   0  0  0  0  0  0  0  0  0  0  0  0
   36.7872   32.1567   50.3964 H   0  0  0  0  0  0  0  0  0  0  0  0
   38.5603   33.9264   50.2817 H   0  0  0  0  0  0  0  0  0  0  0  0
   39.6351   32.4770   46.4091 H   0  0  0  0  0  0  0  0  0  0  0  0
   33.9915   28.4880   46.0858 H   0  0  0  0  0  0  0  0  0  0  0  0
   32.7302   29.8057   46.0149 H   0  0  0  0  0  0  0  0  0  0  0  0
   32.2371   28.1578   48.2886 H   0  0  0  0  0  0  0  0  0  0  0  0
   31.2196   28.4490   46.8371 H   0  0  0  0  0  0  0  0  0  0  0  0
   32.4239   27.1161   46.8371 H   0  0  0  0  0  0  0  0  0  0  0  0
  1  7  1  0
  1  6  1  0
  2  3  1  0
  2  1  1  0
  3  4  1  0
  4  5  1  0
  6  5  1  0
  7  8  2  0
  9  8  1  0
 10  9  2  0
 11 12  2  0
 11 10  1  0
 12  7  1  0
 13 14  1  0
 13  3  1  0
  2 15  1  0
  2 16  1  0
  3 17  1  1
  4 18  1  0
  5 19  1  0
  5 20  1  0
  6 21  1  0
  6 22  1  0
  8 23  1  0
  9 24  1  0
 11 25  1  0
 13 26  1  0
 13 27  1  0
 14 28  1  0
 14 29  1  0
 14 30  1  0
M  ISO  8  15  13  16  13  17  13  18   5  19  13  20  13  21  13  22  13
M  ISO  8  23  14  24  14  25  14  26   8  27   8  28   8  29   8  30   8
M  END
>  <minimizedAffinity>  (1) 
-4.40279484

>  <minimizedRMSD>  (1) 
5.63740063

$$$$
