
     RDKit          3D

 28 29  0  0  1  0  0  0  0  0999 V2000
   36.9250   30.4340   47.2770 N   0  0  0  0  0  0  0  0  0  0  0  0
   37.0350   29.9860   48.6530 C   0  0  0  0  0  0  0  0  0  0  0  0
   37.7220   30.9470   49.5490 C   0  0  2  0  0  0  0  0  0  0  0  0
   38.7320   31.7740   48.9700 N   0  0  0  0  0  0  0  0  0  0  0  0
   38.3560   32.2750   47.6410 C   0  0  0  0  0  0  0  0  0  0  0  0
   38.1460   31.0330   46.8150 C   0  0  0  0  0  0  0  0  0  0  0  0
   35.7480   30.2830   46.5080 C   0  0  0  0  0  0  0  0  0  0  0  0
   35.7450   30.1750   45.1160 C   0  0  0  0  0  0  0  0  0  0  0  0
   34.5530   30.0210   44.4190 C   0  0  0  0  0  0  0  0  0  0  0  0
   33.4030   29.9830   45.1570 N   0  0  0  0  0  0  0  0  0  0  0  0
   33.4320   30.0900   46.5240 C   0  0  0  0  0  0  0  0  0  0  0  0
   34.5850   30.2390   47.1880 N   0  0  0  0  0  0  0  0  0  0  0  0
   37.6480   29.5790   51.7370 C   0  0  0  0  0  0  0  0  0  0  0  0
   36.4150   29.8090   51.6370 O   0  0  0  0  0  0  0  0  0  0  0  0
   38.3530   30.1790   50.6310 N   0  0  0  0  0  0  0  0  0  0  0  0
   36.0207   29.8146   49.0427 H   0  0  0  0  0  0  0  0  0  0  0  0
   37.6455   29.0710   48.6410 H   0  0  0  0  0  0  0  0  0  0  0  0
   36.9316   31.6415   49.8698 H   0  0  0  0  0  0  0  0  0  0  0  0
   38.8966   32.5785   49.5918 H   0  0  0  0  0  0  0  0  0  0  0  0
   37.4301   32.8664   47.6961 H   0  0  0  0  0  0  0  0  0  0  0  0
   39.1217   32.9380   47.2120 H   0  0  0  0  0  0  0  0  0  0  0  0
   38.9866   30.3375   46.9551 H   0  0  0  0  0  0  0  0  0  0  0  0
   38.0885   31.2745   45.7434 H   0  0  0  0  0  0  0  0  0  0  0  0
   36.6965   30.2122   44.5653 H   0  0  0  0  0  0  0  0  0  0  0  0
   34.5355   29.9336   43.3226 H   0  0  0  0  0  0  0  0  0  0  0  0
   32.4877   30.0526   47.0869 H   0  0  0  0  0  0  0  0  0  0  0  0
   38.1189   29.0048   52.5485 H   0  0  0  0  0  0  0  0  0  0  0  0
   39.3756   30.0602   50.5972 H   0  0  0  0  0  0  0  0  0  0  0  0
  1  2  1  0
  2  3  1  0
  3 15  1  0
  4  3  1  0
  5  4  1  0
  6  1  1  0
  6  5  1  0
  7 12  1  0
  7  1  1  0
  8  7  2  0
  9  8  1  0
  9 10  2  0
 10 11  1  0
 11 12  2  0
 14 13  2  0
 15 13  1  0
  2 16  1  0
  2 17  1  0
  3 18  1  1
  4 19  1  0
  5 20  1  0
  5 21  1  0
  6 22  1  0
  6 23  1  0
  8 24  1  0
  9 25  1  0
 11 26  1  0
 13 27  1  0
 15 28  1  0
M  ISO  8  16  13  17  13  18  13  19   5  20  13  21  13  22  13  23  13
M  ISO  4  24  14  25  14  26  14  27   6
M  END
>  <minimizedAffinity>  (1) 
-4.35796165

>  <minimizedRMSD>  (1) 
2.22266221

$$$$
