
     RDKit          3D

 27 28  0  0  1  0  0  0  0  0999 V2000
   36.3830   29.6160   48.9160 N   0  0  0  0  0  0  0  0  0  0  0  0
   36.4650   29.2770   50.3190 C   0  0  0  0  0  0  0  0  0  0  0  0
   37.1920   30.2710   51.1550 C   0  0  2  0  0  0  0  0  0  0  0  0
   38.2200   31.0070   50.5440 N   0  0  0  0  0  0  0  0  0  0  0  0
   37.8780   31.4190   49.1780 C   0  0  0  0  0  0  0  0  0  0  0  0
   37.6390   30.1030   48.4390 C   0  0  0  0  0  0  0  0  0  0  0  0
   35.1840   29.4630   48.1550 C   0  0  0  0  0  0  0  0  0  0  0  0
   34.9420   30.1620   46.9750 C   0  0  0  0  0  0  0  0  0  0  0  0
   33.7480   29.9520   46.3000 C   0  0  0  0  0  0  0  0  0  0  0  0
   32.8640   29.0610   46.8350 N   0  0  0  0  0  0  0  0  0  0  0  0
   33.1260   28.3990   47.9800 C   0  0  0  0  0  0  0  0  0  0  0  0
   34.2690   28.5980   48.6280 N   0  0  0  0  0  0  0  0  0  0  0  0
   37.8330   29.4960   52.3160 C   0  0  0  0  0  0  0  0  0  0  0  0
   35.4410   29.1834   50.7098 H   0  0  0  0  0  0  0  0  0  0  0  0
   37.0375   28.3397   50.3804 H   0  0  0  0  0  0  0  0  0  0  0  0
   36.4320   31.0164   51.4321 H   0  0  0  0  0  0  0  0  0  0  0  0
   38.4033   31.8496   51.1074 H   0  0  0  0  0  0  0  0  0  0  0  0
   36.9698   32.0396   49.1734 H   0  0  0  0  0  0  0  0  0  0  0  0
   38.6666   32.0274   48.7112 H   0  0  0  0  0  0  0  0  0  0  0  0
   38.4404   29.3845   48.6657 H   0  0  0  0  0  0  0  0  0  0  0  0
   37.6325   30.2445   47.3482 H   0  0  0  0  0  0  0  0  0  0  0  0
   35.6869   30.8705   46.5836 H   0  0  0  0  0  0  0  0  0  0  0  0
   33.5218   30.4858   45.3652 H   0  0  0  0  0  0  0  0  0  0  0  0
   32.3879   27.6887   48.3809 H   0  0  0  0  0  0  0  0  0  0  0  0
   37.4864   29.9150   53.2722 H   0  0  0  0  0  0  0  0  0  0  0  0
   37.5437   28.4366   52.2536 H   0  0  0  0  0  0  0  0  0  0  0  0
   38.9279   29.5814   52.2536 H   0  0  0  0  0  0  0  0  0  0  0  0
  1  2  1  0
  2  3  1  0
  3 13  1  0
  4  3  1  0
  5  4  1  0
  6  1  1  0
  6  5  1  0
  7 12  1  0
  7  1  1  0
  8  7  2  0
  9 10  2  0
  9  8  1  0
 10 11  1  0
 11 12  2  0
  2 14  1  0
  2 15  1  0
  3 16  1  1
  4 17  1  0
  5 18  1  0
  5 19  1  0
  6 20  1  0
  6 21  1  0
  8 22  1  0
  9 23  1  0
 11 24  1  0
 13 25  1  0
 13 26  1  0
 13 27  1  0
M  ISO  8  14  13  15  13  16  13  17   5  18  13  19  13  20  13  21  13
M  ISO  6  22  14  23  14  24  14  25   8  26   8  27   8
M  END
>  <minimizedAffinity>  (1) 
-3.85589695

>  <minimizedRMSD>  (1) 
0.628972828

$$$$
