
     RDKit          3D

 34 36  0  0  1  0  0  0  0  0999 V2000
   34.6290   30.0270   45.6800 N   0  0  0  0  0  0  0  0  0  0  0  0
   35.0280   30.0520   47.0680 C   0  0  0  0  0  0  0  0  0  0  0  0
   36.3150   30.7880   47.2990 C   0  0  2  0  0  0  0  0  0  0  0  0
   37.3210   30.5770   46.3170 N   0  0  0  0  0  0  0  0  0  0  0  0
   36.7560   30.7600   44.9830 C   0  0  0  0  0  0  0  0  0  0  0  0
   35.7210   29.6460   44.8490 C   0  0  0  0  0  0  0  0  0  0  0  0
   33.3080   30.3470   45.2400 C   0  0  0  0  0  0  0  0  0  0  0  0
   33.0390   31.0480   44.0680 C   0  0  0  0  0  0  0  0  0  0  0  0
   31.7210   31.3130   43.7220 C   0  0  0  0  0  0  0  0  0  0  0  0
   30.7260   30.8630   44.5630 N   0  0  0  0  0  0  0  0  0  0  0  0
   31.0300   30.1840   45.6900 C   0  0  0  0  0  0  0  0  0  0  0  0
   32.2930   29.9300   46.0250 N   0  0  0  0  0  0  0  0  0  0  0  0
   38.2470   32.7330   48.4480 Cl  0  0  0  0  0  0  0  0  0  0  0  0
   37.6680   31.3140   49.3020 C   0  0  0  0  0  0  0  0  0  0  0  0
   36.7700   30.4860   48.6580 C   0  0  0  0  0  0  0  0  0  0  0  0
   36.2370   29.3390   49.2180 C   0  0  0  0  0  0  0  0  0  0  0  0
   36.6350   29.0010   50.5110 C   0  0  0  0  0  0  0  0  0  0  0  0
   37.5380   29.8160   51.1830 C   0  0  0  0  0  0  0  0  0  0  0  0
   38.0360   30.9460   50.5790 C   0  0  0  0  0  0  0  0  0  0  0  0
   34.2349   30.5428   47.6511 H   0  0  0  0  0  0  0  0  0  0  0  0
   35.1862   29.0097   47.3819 H   0  0  0  0  0  0  0  0  0  0  0  0
   36.1106   31.8636   47.1932 H   0  0  0  0  0  0  0  0  0  0  0  0
   38.0856   31.2522   46.4601 H   0  0  0  0  0  0  0  0  0  0  0  0
   36.2782   31.7469   44.8953 H   0  0  0  0  0  0  0  0  0  0  0  0
   37.5222   30.7155   44.1950 H   0  0  0  0  0  0  0  0  0  0  0  0
   35.3921   29.5528   43.8035 H   0  0  0  0  0  0  0  0  0  0  0  0
   36.1351   28.6715   45.1471 H   0  0  0  0  0  0  0  0  0  0  0  0
   33.8622   31.3885   43.4227 H   0  0  0  0  0  0  0  0  0  0  0  0
   31.4777   31.8663   42.8029 H   0  0  0  0  0  0  0  0  0  0  0  0
   30.2179   29.8339   46.3441 H   0  0  0  0  0  0  0  0  0  0  0  0
   35.5228   28.7141   48.6617 H   0  0  0  0  0  0  0  0  0  0  0  0
   36.2375   28.0967   50.9950 H   0  0  0  0  0  0  0  0  0  0  0  0
   37.8559   29.5556   52.2034 H   0  0  0  0  0  0  0  0  0  0  0  0
   38.7495   31.5756   51.1309 H   0  0  0  0  0  0  0  0  0  0  0  0
  1  2  1  0
  2  3  1  0
  3 15  1  0
  4  3  1  0
  5  4  1  0
  6  5  1  0
  6  1  1  0
  7  1  1  0
  7 12  1  0
  8  7  2  0
  9  8  1  0
  9 10  2  0
 10 11  1  0
 11 12  2  0
 13 14  1  0
 14 19  2  0
 15 16  2  0
 15 14  1  0
 16 17  1  0
 17 18  2  0
 19 18  1  0
  2 20  1  0
  2 21  1  0
  3 22  1  1
  4 23  1  0
  5 24  1  0
  5 25  1  0
  6 26  1  0
  6 27  1  0
  8 28  1  0
  9 29  1  0
 11 30  1  0
 16 31  1  0
 17 32  1  0
 18 33  1  0
 19 34  1  0
M  ISO  8  20  13  21  13  22  13  23   5  24  13  25  13  26  13  27  13
M  ISO  7  28  14  29  14  30  14  31  14  32  14  33  14  34  14
M  END
>  <minimizedAffinity>  (1) 
-5.23484278

>  <minimizedRMSD>  (1) 
4.14717054

$$$$
