
     RDKit          3D

 48 51  0  0  1  0  0  0  0  0999 V2000
   32.1820   30.8900   44.1130 N   0  0  0  0  0  0  0  0  0  0  0  0
   32.6440   30.6650   45.4780 C   0  0  0  0  0  0  0  0  0  0  0  0
   33.6690   29.6310   45.6140 C   0  0  2  0  0  0  0  0  0  0  0  0
   33.3390   28.4190   44.8130 N   0  0  0  0  0  0  0  0  0  0  0  0
   33.1510   28.8720   43.4210 C   0  0  0  0  0  0  0  0  0  0  0  0
   31.8540   29.6490   43.5010 C   0  0  0  0  0  0  0  0  0  0  0  0
   36.0250   30.7810   47.0130 Cl  0  0  0  0  0  0  0  0  0  0  0  0
   34.8380   29.7310   47.7840 C   0  0  0  0  0  0  0  0  0  0  0  0
   33.8200   29.2480   47.0070 C   0  0  0  0  0  0  0  0  0  0  0  0
   32.8020   28.4030   47.4790 C   0  0  0  0  0  0  0  0  0  0  0  0
   32.8890   28.0640   48.8380 C   0  0  0  0  0  0  0  0  0  0  0  0
   33.9280   28.5510   49.6370 C   0  0  0  0  0  0  0  0  0  0  0  0
   34.8780   29.3720   49.1020 C   0  0  0  0  0  0  0  0  0  0  0  0
   35.9390   29.8760   49.9060 N   0  0  0  0  0  0  0  0  0  0  0  0
   36.1370   29.3060   51.1980 C   0  0  0  0  0  0  0  0  0  0  0  0
   37.6170   29.2580   51.5030 C   0  0  0  0  0  0  0  0  0  0  0  0
   38.2680   30.4910   51.1270 N   0  0  0  0  0  0  0  0  0  0  0  0
   38.1670   30.7300   49.6920 C   0  0  0  0  0  0  0  0  0  0  0  0
   36.7170   30.9310   49.3180 C   0  0  0  0  0  0  0  0  0  0  0  0
   32.0820   32.1790   43.5400 C   0  0  0  0  0  0  0  0  0  0  0  0
   32.3480   32.4170   42.1920 C   0  0  0  0  0  0  0  0  0  0  0  0
   32.2220   33.7180   41.6990 C   0  0  0  0  0  0  0  0  0  0  0  0
   31.8370   34.7060   42.5890 N   0  0  0  0  0  0  0  0  0  0  0  0
   31.5920   34.4260   43.8850 C   0  0  0  0  0  0  0  0  0  0  0  0
   31.7070   33.1960   44.3620 N   0  0  0  0  0  0  0  0  0  0  0  0
   33.0579   31.6100   45.8597 H   0  0  0  0  0  0  0  0  0  0  0  0
   31.7709   30.3134   46.0473 H   0  0  0  0  0  0  0  0  0  0  0  0
   34.6104   30.0567   45.2364 H   0  0  0  0  0  0  0  0  0  0  0  0
   34.1103   27.7383   44.8641 H   0  0  0  0  0  0  0  0  0  0  0  0
   33.0608   28.0178   42.7338 H   0  0  0  0  0  0  0  0  0  0  0  0
   33.9938   29.4644   43.0353 H   0  0  0  0  0  0  0  0  0  0  0  0
   31.4445   29.8152   42.4937 H   0  0  0  0  0  0  0  0  0  0  0  0
   31.0907   29.1039   44.0756 H   0  0  0  0  0  0  0  0  0  0  0  0
   31.9945   28.0335   46.8299 H   0  0  0  0  0  0  0  0  0  0  0  0
   32.1281   27.4050   49.2815 H   0  0  0  0  0  0  0  0  0  0  0  0
   33.9799   28.2717   50.6997 H   0  0  0  0  0  0  0  0  0  0  0  0
   35.6262   29.9216   51.9531 H   0  0  0  0  0  0  0  0  0  0  0  0
   35.7241   28.2866   51.2176 H   0  0  0  0  0  0  0  0  0  0  0  0
   37.7559   29.0934   52.5817 H   0  0  0  0  0  0  0  0  0  0  0  0
   38.0654   28.4369   50.9244 H   0  0  0  0  0  0  0  0  0  0  0  0
   37.8220   31.2720   51.6290 H   0  0  0  0  0  0  0  0  0  0  0  0
   38.7422   31.6298   49.4283 H   0  0  0  0  0  0  0  0  0  0  0  0
   38.5710   29.8648   49.1459 H   0  0  0  0  0  0  0  0  0  0  0  0
   36.3684   31.9032   49.6967 H   0  0  0  0  0  0  0  0  0  0  0  0
   36.6063   30.9131   48.2237 H   0  0  0  0  0  0  0  0  0  0  0  0
   32.6519   31.5943   41.5281 H   0  0  0  0  0  0  0  0  0  0  0  0
   32.4214   33.9490   40.6422 H   0  0  0  0  0  0  0  0  0  0  0  0
   31.2895   35.2385   44.5620 H   0  0  0  0  0  0  0  0  0  0  0  0
  1  2  1  0
  2  3  1  0
  3  9  1  0
  4  3  1  0
  5  6  1  0
  5  4  1  0
  6  1  1  0
  7  8  1  0
  8 13  2  0
  9 10  2  0
  9  8  1  0
 10 11  1  0
 11 12  2  0
 13 12  1  0
 13 14  1  0
 14 15  1  0
 15 16  1  0
 17 16  1  0
 18 17  1  0
 19 18  1  0
 19 14  1  0
 20  1  1  0
 20 25  1  0
 21 20  2  0
 22 21  1  0
 22 23  2  0
 23 24  1  0
 24 25  2  0
  2 26  1  0
  2 27  1  0
  3 28  1  6
  4 29  1  0
  5 30  1  0
  5 31  1  0
  6 32  1  0
  6 33  1  0
 10 34  1  0
 11 35  1  0
 12 36  1  0
 15 37  1  0
 15 38  1  0
 16 39  1  0
 16 40  1  0
 17 41  1  0
 18 42  1  0
 18 43  1  0
 19 44  1  0
 19 45  1  0
 21 46  1  0
 22 47  1  0
 24 48  1  0
M  ISO  8  26  13  27  13  28  13  29   5  30  13  31  13  32  13  33  13
M  ISO  8  34  14  35  14  36  14  37  13  38  13  39  13  40  13  41   5
M  ISO  7  42  13  43  13  44  13  45  13  46  14  47  14  48  14
M  END
>  <minimizedAffinity>  (1) 
-5.39642429

>  <minimizedRMSD>  (1) 
3.82295871

$$$$
