
     RDKit          3D

 36 38  0  0  1  0  0  0  0  0999 V2000
   34.1180   30.1330   45.1590 N   0  0  0  0  0  0  0  0  0  0  0  0
   34.5030   30.0470   46.5660 C   0  0  0  0  0  0  0  0  0  0  0  0
   35.8220   30.5970   46.8720 C   0  0  2  0  0  0  0  0  0  0  0  0
   36.8470   30.1960   45.8660 N   0  0  0  0  0  0  0  0  0  0  0  0
   36.3280   30.5930   44.5440 C   0  0  0  0  0  0  0  0  0  0  0  0
   35.1690   29.6470   44.3310 C   0  0  0  0  0  0  0  0  0  0  0  0
   38.2210   31.9790   47.9480 Cl  0  0  0  0  0  0  0  0  0  0  0  0
   37.3320   30.7320   48.8200 C   0  0  0  0  0  0  0  0  0  0  0  0
   36.2570   30.1640   48.1880 C   0  0  0  0  0  0  0  0  0  0  0  0
   35.4490   29.1650   48.7550 C   0  0  0  0  0  0  0  0  0  0  0  0
   35.8130   28.7570   50.0460 C   0  0  0  0  0  0  0  0  0  0  0  0
   36.9130   29.3320   50.6960 C   0  0  0  0  0  0  0  0  0  0  0  0
   37.6470   30.3030   50.0770 C   0  0  0  0  0  0  0  0  0  0  0  0
   38.7700   30.9210   50.6890 N   0  0  0  0  0  0  0  0  0  0  0  0
   32.8560   30.6230   44.7400 C   0  0  0  0  0  0  0  0  0  0  0  0
   32.7000   31.3880   43.5940 C   0  0  0  0  0  0  0  0  0  0  0  0
   31.4290   31.8250   43.2450 C   0  0  0  0  0  0  0  0  0  0  0  0
   30.3650   31.4750   44.0630 N   0  0  0  0  0  0  0  0  0  0  0  0
   30.5760   30.7220   45.1780 C   0  0  0  0  0  0  0  0  0  0  0  0
   31.7810   30.3050   45.5120 N   0  0  0  0  0  0  0  0  0  0  0  0
   33.7568   30.5953   47.1597 H   0  0  0  0  0  0  0  0  0  0  0  0
   34.5481   28.9756   46.8113 H   0  0  0  0  0  0  0  0  0  0  0  0
   35.7240   31.6923   46.8462 H   0  0  0  0  0  0  0  0  0  0  0  0
   37.7374   30.6776   46.0562 H   0  0  0  0  0  0  0  0  0  0  0  0
   35.9874   31.6389   44.5516 H   0  0  0  0  0  0  0  0  0  0  0  0
   37.0847   30.5349   43.7478 H   0  0  0  0  0  0  0  0  0  0  0  0
   34.8591   29.6516   43.2756 H   0  0  0  0  0  0  0  0  0  0  0  0
   35.4388   28.6110   44.5836 H   0  0  0  0  0  0  0  0  0  0  0  0
   34.5892   28.7322   48.2226 H   0  0  0  0  0  0  0  0  0  0  0  0
   35.2282   27.9764   50.5545 H   0  0  0  0  0  0  0  0  0  0  0  0
   37.1863   29.0001   51.7085 H   0  0  0  0  0  0  0  0  0  0  0  0
   39.0587   30.6410   51.6372 H   0  0  0  0  0  0  0  0  0  0  0  0
   39.2956   31.6492   50.1846 H   0  0  0  0  0  0  0  0  0  0  0  0
   33.5695   31.6447   42.9711 H   0  0  0  0  0  0  0  0  0  0  0  0
   31.2700   32.4334   42.3425 H   0  0  0  0  0  0  0  0  0  0  0  0
   29.7200   30.4553   45.8153 H   0  0  0  0  0  0  0  0  0  0  0  0
  1  2  1  0
  2  3  1  0
  3  9  1  0
  4  3  1  0
  5  4  1  0
  6  5  1  0
  6  1  1  0
  7  8  1  0
  8 13  2  0
  9 10  2  0
  9  8  1  0
 10 11  1  0
 11 12  2  0
 13 14  1  0
 13 12  1  0
 15  1  1  0
 15 20  1  0
 16 15  2  0
 17 16  1  0
 17 18  2  0
 18 19  1  0
 19 20  2  0
  2 21  1  0
  2 22  1  0
  3 23  1  1
  4 24  1  0
  5 25  1  0
  5 26  1  0
  6 27  1  0
  6 28  1  0
 10 29  1  0
 11 30  1  0
 12 31  1  0
 14 32  1  0
 14 33  1  0
 16 34  1  0
 17 35  1  0
 19 36  1  0
M  ISO  8  21  13  22  13  23  13  24   5  25  13  26  13  27  13  28  13
M  ISO  6  29  14  30  14  31  14  34  14  35  14  36  14
M  END
>  <minimizedAffinity>  (1) 
-4.9750061

>  <minimizedRMSD>  (1) 
0.821151674

$$$$
