
     RDKit          3D

 35 37  0  0  1  0  0  0  0  0999 V2000
   32.5660   30.6840   45.0370 N   0  0  0  0  0  0  0  0  0  0  0  0
   33.3410   30.6730   46.2750 C   0  0  0  0  0  0  0  0  0  0  0  0
   34.4020   29.6670   46.3190 C   0  0  2  0  0  0  0  0  0  0  0  0
   33.9640   28.3500   45.7830 N   0  0  0  0  0  0  0  0  0  0  0  0
   33.4130   28.5820   44.4390 C   0  0  0  0  0  0  0  0  0  0  0  0
   32.1470   29.3660   44.7070 C   0  0  0  0  0  0  0  0  0  0  0  0
   36.9990   30.9670   46.9520 Cl  0  0  0  0  0  0  0  0  0  0  0  0
   36.0390   30.0650   48.1240 C   0  0  0  0  0  0  0  0  0  0  0  0
   34.8760   29.4920   47.6820 C   0  0  0  0  0  0  0  0  0  0  0  0
   34.0080   28.7430   48.4930 C   0  0  0  0  0  0  0  0  0  0  0  0
   34.4100   28.6020   49.8300 C   0  0  0  0  0  0  0  0  0  0  0  0
   35.5960   29.1780   50.2900 C   0  0  0  0  0  0  0  0  0  0  0  0
   36.3910   29.9000   49.4310 C   0  0  0  0  0  0  0  0  0  0  0  0
   37.9170   30.6670   49.9520 S   0  0  0  0  0  0  0  0  0  0  0  0
   32.2900   31.8710   44.3190 C   0  0  0  0  0  0  0  0  0  0  0  0
   32.6450   32.0350   42.9790 C   0  0  0  0  0  0  0  0  0  0  0  0
   32.3270   33.2320   42.3500 C   0  0  0  0  0  0  0  0  0  0  0  0
   31.6740   34.2060   43.0800 N   0  0  0  0  0  0  0  0  0  0  0  0
   31.3500   33.9980   44.3840 C   0  0  0  0  0  0  0  0  0  0  0  0
   31.6460   32.8610   44.9960 N   0  0  0  0  0  0  0  0  0  0  0  0
   33.8020   31.6639   46.4003 H   0  0  0  0  0  0  0  0  0  0  0  0
   32.6373   30.4201   47.0817 H   0  0  0  0  0  0  0  0  0  0  0  0
   35.2146   30.0393   45.6778 H   0  0  0  0  0  0  0  0  0  0  0  0
   34.7674   27.7078   45.7279 H   0  0  0  0  0  0  0  0  0  0  0  0
   33.1869   27.6297   43.9369 H   0  0  0  0  0  0  0  0  0  0  0  0
   34.1121   29.1111   43.7747 H   0  0  0  0  0  0  0  0  0  0  0  0
   31.5093   29.3806   43.8108 H   0  0  0  0  0  0  0  0  0  0  0  0
   31.5575   28.9150   45.5188 H   0  0  0  0  0  0  0  0  0  0  0  0
   33.0787   28.2983   48.1074 H   0  0  0  0  0  0  0  0  0  0  0  0
   33.7809   28.0286   50.5268 H   0  0  0  0  0  0  0  0  0  0  0  0
   35.8949   29.0540   51.3413 H   0  0  0  0  0  0  0  0  0  0  0  0
   37.9705   30.6939   51.3207 H   0  0  0  0  0  0  0  0  0  0  0  0
   33.1651   31.2340   42.4332 H   0  0  0  0  0  0  0  0  0  0  0  0
   32.5891   33.4003   41.2950 H   0  0  0  0  0  0  0  0  0  0  0  0
   30.8310   34.7908   44.9427 H   0  0  0  0  0  0  0  0  0  0  0  0
  1  2  1  0
  2  3  1  0
  3  9  1  0
  4  3  1  0
  5  6  1  0
  5  4  1  0
  6  1  1  0
  7  8  1  0
  8 13  2  0
  9  8  1  0
  9 10  2  0
 10 11  1  0
 11 12  2  0
 13 14  1  0
 13 12  1  0
 15 20  1  0
 15  1  1  0
 16 15  2  0
 17 16  1  0
 17 18  2  0
 18 19  1  0
 19 20  2  0
  2 21  1  0
  2 22  1  0
  3 23  1  6
  4 24  1  0
  5 25  1  0
  5 26  1  0
  6 27  1  0
  6 28  1  0
 10 29  1  0
 11 30  1  0
 12 31  1  0
 14 32  1  0
 16 33  1  0
 17 34  1  0
 19 35  1  0
M  ISO  8  21  13  22  13  23  13  24   5  25  13  26  13  27  13  28  13
M  ISO  7  29  14  30  14  31  14  32  11  33  14  34  14  35  14
M  END
>  <minimizedAffinity>  (1) 
-4.76926899

>  <minimizedRMSD>  (1) 
2.81643057

$$$$
