
     RDKit          3D

 28 29  0  0  0  0  0  0  0  0999 V2000
   37.6000   29.5570   50.0670 C   0  0  0  0  0  0  0  0  0  0  0  0
   37.2730   30.6510   50.9120 C   0  0  0  0  0  0  0  0  0  0  0  0
   36.9350   31.8870   50.3190 C   0  0  0  0  0  0  0  0  0  0  0  0
   36.9450   31.9540   48.9720 N   0  0  0  0  0  0  0  0  0  0  0  0
   37.2570   30.9070   48.2000 C   0  0  0  0  0  0  0  0  0  0  0  0
   37.5800   29.7280   48.7220 N   0  0  0  0  0  0  0  0  0  0  0  0
   37.2760   30.9590   46.7430 C   0  0  0  0  0  0  0  0  0  0  0  0
   36.3680   30.5000   46.0160 O   0  0  0  0  0  0  0  0  0  0  0  0
   38.4540   31.6000   46.1090 C   0  0  0  0  0  0  0  0  0  0  0  0
   39.2020   32.4940   47.0600 C   0  0  0  0  0  0  0  0  0  0  0  0
   40.0750   33.4060   46.2360 C   0  0  0  0  0  0  0  0  0  0  0  0
   40.6650   32.6980   45.0640 C   0  0  0  0  0  0  0  0  0  0  0  0
   40.7310   31.2070   45.2180 C   0  0  0  0  0  0  0  0  0  0  0  0
   39.4490   30.5680   45.6100 C   0  0  0  0  0  0  0  0  0  0  0  0
   37.8667   28.5813   50.4992 H   0  0  0  0  0  0  0  0  0  0  0  0
   37.2829   30.5376   52.0061 H   0  0  0  0  0  0  0  0  0  0  0  0
   36.6735   32.7619   50.9323 H   0  0  0  0  0  0  0  0  0  0  0  0
   38.0451   32.1903   45.2757 H   0  0  0  0  0  0  0  0  0  0  0  0
   38.4917   33.0892   47.6527 H   0  0  0  0  0  0  0  0  0  0  0  0
   39.8126   31.8965   47.7530 H   0  0  0  0  0  0  0  0  0  0  0  0
   39.4678   34.2488   45.8741 H   0  0  0  0  0  0  0  0  0  0  0  0
   40.8996   33.7577   46.8735 H   0  0  0  0  0  0  0  0  0  0  0  0
   41.6871   33.0750   44.9114 H   0  0  0  0  0  0  0  0  0  0  0  0
   40.0053   32.8993   44.2071 H   0  0  0  0  0  0  0  0  0  0  0  0
   41.0489   30.7767   44.2569 H   0  0  0  0  0  0  0  0  0  0  0  0
   41.4402   31.0094   46.0353 H   0  0  0  0  0  0  0  0  0  0  0  0
   39.0234   30.0514   44.7371 H   0  0  0  0  0  0  0  0  0  0  0  0
   39.6487   29.8539   46.4225 H   0  0  0  0  0  0  0  0  0  0  0  0
  1  2  2  0
  3  2  1  0
  4  3  2  0
  5  6  2  0
  5  4  1  0
  6  1  1  0
  7  5  1  0
  8  7  2  0
  9  7  1  0
  9 10  1  0
 11 10  1  0
 12 13  1  0
 12 11  1  0
 13 14  1  0
 14  9  1  0
  1 15  1  0
  2 16  1  0
  3 17  1  0
  9 18  1  0
 10 19  1  0
 10 20  1  0
 11 21  1  0
 11 22  1  0
 12 23  1  0
 12 24  1  0
 13 25  1  0
 13 26  1  0
 14 27  1  0
 14 28  1  0
M  ISO  8  15  14  16  14  17  14  18  13  19  13  20  13  21  13  22  13
M  ISO  6  23  13  24  13  25  13  26  13  27  13  28  13
M  END
>  <minimizedAffinity>  (1) 
-4.66375923

>  <minimizedRMSD>  (1) 
5.87499666

$$$$
