
     RDKit          3D

 19 20  0  0  0  0  0  0  0  0999 V2000
   35.4700   29.6340   50.0510 C   0  0  0  0  0  0  0  0  0  0  0  0
   35.3310   29.2600   51.2400 O   0  0  0  0  0  0  0  0  0  0  0  0
   32.7610   27.8610   48.3780 C   0  0  0  0  0  0  0  0  0  0  0  0
   32.6390   28.5510   47.1650 C   0  0  0  0  0  0  0  0  0  0  0  0
   33.4770   29.6320   46.9000 C   0  0  0  0  0  0  0  0  0  0  0  0
   34.3880   29.9680   47.8450 N   0  0  0  0  0  0  0  0  0  0  0  0
   34.4950   29.2970   49.0030 C   0  0  0  0  0  0  0  0  0  0  0  0
   33.6850   28.2600   49.2520 N   0  0  0  0  0  0  0  0  0  0  0  0
   36.6520   30.4280   49.7320 C   0  0  0  0  0  0  0  0  0  0  0  0
   36.7450   31.7820   49.9810 C   0  0  0  0  0  0  0  0  0  0  0  0
   37.9980   32.2300   49.5600 C   0  0  0  0  0  0  0  0  0  0  0  0
   38.6150   31.1280   49.0700 N   0  0  0  0  0  0  0  0  0  0  0  0
   37.8180   30.0570   49.1720 N   0  0  0  0  0  0  0  0  0  0  0  0
   32.1068   27.0063   48.6049 H   0  0  0  0  0  0  0  0  0  0  0  0
   31.8857   28.2410   46.4258 H   0  0  0  0  0  0  0  0  0  0  0  0
   33.4017   30.1930   45.9568 H   0  0  0  0  0  0  0  0  0  0  0  0
   35.9612   32.4053   50.4361 H   0  0  0  0  0  0  0  0  0  0  0  0
   38.3971   33.2536   49.6142 H   0  0  0  0  0  0  0  0  0  0  0  0
   39.5657   31.1157   48.6738 H   0  0  0  0  0  0  0  0  0  0  0  0
  1  2  2  0
  3  8  2  0
  4  3  1  0
  5  4  2  0
  5  6  1  0
  6  7  2  0
  7  8  1  0
  7  1  1  0
  9 10  1  0
  9  1  1  0
 11 10  2  0
 12 13  1  0
 12 11  1  0
 13  9  2  0
  3 14  1  0
  4 15  1  0
  5 16  1  0
 10 17  1  0
 11 18  1  0
 12 19  1  0
M  ISO  6  14  14  15  14  16  14  17  14  18  14  19   9
M  END
>  <minimizedAffinity>  (1) 
-4.251297

>  <minimizedRMSD>  (1) 
4.97930717

$$$$
