
     RDKit          3D

 24 25  0  0  0  0  0  0  0  0999 V2000
   37.7270   30.1560   51.1900 C   0  0  0  0  0  0  0  0  0  0  0  0
   38.2740   31.1220   50.3290 C   0  0  0  0  0  0  0  0  0  0  0  0
   37.4800   31.6000   49.2900 C   0  0  0  0  0  0  0  0  0  0  0  0
   36.2230   31.0940   49.1800 N   0  0  0  0  0  0  0  0  0  0  0  0
   35.7320   30.1750   50.0150 C   0  0  0  0  0  0  0  0  0  0  0  0
   36.4850   29.7030   51.0250 N   0  0  0  0  0  0  0  0  0  0  0  0
   34.3680   29.6420   49.8750 C   0  0  0  0  0  0  0  0  0  0  0  0
   33.5200   29.7170   50.8180 O   0  0  0  0  0  0  0  0  0  0  0  0
   34.1210   29.0470   48.5900 N   0  0  0  0  0  0  0  0  0  0  0  0
   33.8910   29.6240   47.2770 C   0  0  0  0  0  0  0  0  0  0  0  0
   32.9730   28.5970   46.6460 C   0  0  0  0  0  0  0  0  0  0  0  0
   33.7210   27.3190   47.0320 C   0  0  0  0  0  0  0  0  0  0  0  0
   34.0670   27.5900   48.4580 C   0  0  0  0  0  0  0  0  0  0  0  0
   38.3370   29.7654   52.0178 H   0  0  0  0  0  0  0  0  0  0  0  0
   39.3006   31.4903   50.4717 H   0  0  0  0  0  0  0  0  0  0  0  0
   37.8550   32.3573   48.5858 H   0  0  0  0  0  0  0  0  0  0  0  0
   33.4024   30.6067   47.3510 H   0  0  0  0  0  0  0  0  0  0  0  0
   34.8114   29.8115   46.7045 H   0  0  0  0  0  0  0  0  0  0  0  0
   32.9075   28.7205   45.5549 H   0  0  0  0  0  0  0  0  0  0  0  0
   31.9239   28.6426   46.9736 H   0  0  0  0  0  0  0  0  0  0  0  0
   33.0762   26.4329   46.9373 H   0  0  0  0  0  0  0  0  0  0  0  0
   34.5910   27.1011   46.3951 H   0  0  0  0  0  0  0  0  0  0  0  0
   33.2966   27.1741   49.1240 H   0  0  0  0  0  0  0  0  0  0  0  0
   35.0241   27.1244   48.7360 H   0  0  0  0  0  0  0  0  0  0  0  0
  2  1  2  0
  3  2  1  0
  4  3  2  0
  4  5  1  0
  5  6  2  0
  6  1  1  0
  7  5  1  0
  7  8  2  0
  9  7  1  0
 10  9  1  0
 11 12  1  0
 11 10  1  0
 12 13  1  0
 13  9  1  0
  1 14  1  0
  2 15  1  0
  3 16  1  0
 10 17  1  0
 10 18  1  0
 11 19  1  0
 11 20  1  0
 12 21  1  0
 12 22  1  0
 13 23  1  0
 13 24  1  0
M  ISO  8  14  14  15  14  16  14  17  13  18  13  19  13  20  13  21  13
M  ISO  3  22  13  23  13  24  13
M  END
>  <minimizedAffinity>  (1) 
-4.1435318

>  <minimizedRMSD>  (1) 
2.31952262

$$$$
