
     RDKit          3D

 26 27  0  0  0  0  0  0  0  0999 V2000
   34.1650   28.9280   47.5000 C   0  0  0  0  0  0  0  0  0  0  0  0
   34.2200   27.6750   47.7000 O   0  0  0  0  0  0  0  0  0  0  0  0
   34.9250   29.6870   48.4370 N   0  0  0  0  0  0  0  0  0  0  0  0
   36.1830   30.2510   47.9860 C   0  0  0  0  0  0  0  0  0  0  0  0
   37.1720   30.0710   49.1300 C   0  0  0  0  0  0  0  0  0  0  0  0
   36.7350   29.0160   50.0030 N   0  0  0  0  0  0  0  0  0  0  0  0
   35.5280   29.3300   50.7250 C   0  0  0  0  0  0  0  0  0  0  0  0
   34.5120   29.9230   49.8100 C   0  0  0  0  0  0  0  0  0  0  0  0
   31.3090   30.0780   45.5750 C   0  0  0  0  0  0  0  0  0  0  0  0
   31.8810   30.6470   44.4310 C   0  0  0  0  0  0  0  0  0  0  0  0
   33.2830   30.6320   44.3260 C   0  0  0  0  0  0  0  0  0  0  0  0
   33.9750   30.0670   45.3410 N   0  0  0  0  0  0  0  0  0  0  0  0
   33.4030   29.5300   46.4230 C   0  0  0  0  0  0  0  0  0  0  0  0
   32.0670   29.5310   46.5480 N   0  0  0  0  0  0  0  0  0  0  0  0
   36.5377   29.7207   47.0899 H   0  0  0  0  0  0  0  0  0  0  0  0
   36.0707   31.3125   47.7204 H   0  0  0  0  0  0  0  0  0  0  0  0
   38.1603   29.8167   48.7193 H   0  0  0  0  0  0  0  0  0  0  0  0
   37.2329   31.0083   49.7025 H   0  0  0  0  0  0  0  0  0  0  0  0
   36.5658   28.1729   49.4361 H   0  0  0  0  0  0  0  0  0  0  0  0
   35.1218   28.4092   51.1690 H   0  0  0  0  0  0  0  0  0  0  0  0
   35.7648   30.0589   51.5141 H   0  0  0  0  0  0  0  0  0  0  0  0
   34.4365   31.0051   49.9927 H   0  0  0  0  0  0  0  0  0  0  0  0
   33.5306   29.4599   49.9903 H   0  0  0  0  0  0  0  0  0  0  0  0
   30.2144   30.0768   45.6834 H   0  0  0  0  0  0  0  0  0  0  0  0
   31.2556   31.0902   43.6420 H   0  0  0  0  0  0  0  0  0  0  0  0
   33.7961   31.0625   43.4534 H   0  0  0  0  0  0  0  0  0  0  0  0
  1  2  2  0
  1  3  1  0
  3  8  1  0
  4  3  1  0
  4  5  1  0
  5  6  1  0
  6  7  1  0
  8  7  1  0
  9 14  2  0
 10  9  1  0
 11 10  2  0
 11 12  1  0
 12 13  2  0
 13 14  1  0
 13  1  1  0
  4 15  1  0
  4 16  1  0
  5 17  1  0
  5 18  1  0
  6 19  1  0
  7 20  1  0
  7 21  1  0
  8 22  1  0
  8 23  1  0
  9 24  1  0
 10 25  1  0
 11 26  1  0
M  ISO  8  15  13  16  13  17  13  18  13  19   5  20  13  21  13  22  13
M  ISO  4  23  13  24  14  25  14  26  14
M  END
>  <minimizedAffinity>  (1) 
-3.37393045

>  <minimizedRMSD>  (1) 
5.31306124

$$$$
