
     RDKit          3D

 26 28  0  0  0  0  0  0  0  0999 V2000
   35.8320   30.1840   49.9450 C   0  0  0  0  0  0  0  0  0  0  0  0
   36.7400   29.8220   50.9150 C   0  0  0  0  0  0  0  0  0  0  0  0
   37.8400   30.6570   50.6530 C   0  0  0  0  0  0  0  0  0  0  0  0
   37.5360   31.4440   49.5740 C   0  0  0  0  0  0  0  0  0  0  0  0
   36.3380   31.1460   49.1700 O   0  0  0  0  0  0  0  0  0  0  0  0
   38.3630   32.4620   48.9360 C   0  0  0  0  0  0  0  0  0  0  0  0
   38.9080   33.5560   49.5730 C   0  0  0  0  0  0  0  0  0  0  0  0
   39.6270   34.2970   48.6570 C   0  0  0  0  0  0  0  0  0  0  0  0
   39.5030   33.6350   47.4800 N   0  0  0  0  0  0  0  0  0  0  0  0
   38.7570   32.5490   47.6400 N   0  0  0  0  0  0  0  0  0  0  0  0
   34.5000   29.5830   49.7980 C   0  0  0  0  0  0  0  0  0  0  0  0
   33.7010   29.7020   50.7500 O   0  0  0  0  0  0  0  0  0  0  0  0
   33.8320   26.8380   47.5110 C   0  0  0  0  0  0  0  0  0  0  0  0
   33.5380   27.4750   46.3090 C   0  0  0  0  0  0  0  0  0  0  0  0
   33.5640   28.8710   46.2630 C   0  0  0  0  0  0  0  0  0  0  0  0
   33.8780   29.5240   47.4060 N   0  0  0  0  0  0  0  0  0  0  0  0
   34.1600   28.8830   48.5640 C   0  0  0  0  0  0  0  0  0  0  0  0
   34.1340   27.5330   48.6050 N   0  0  0  0  0  0  0  0  0  0  0  0
   36.6309   29.0632   51.7038 H   0  0  0  0  0  0  0  0  0  0  0  0
   38.7837   30.6753   51.2180 H   0  0  0  0  0  0  0  0  0  0  0  0
   38.7892   33.7993   50.6392 H   0  0  0  0  0  0  0  0  0  0  0  0
   40.1831   35.2278   48.8425 H   0  0  0  0  0  0  0  0  0  0  0  0
   39.9269   33.9323   46.5896 H   0  0  0  0  0  0  0  0  0  0  0  0
   33.8144   25.7391   47.5576 H   0  0  0  0  0  0  0  0  0  0  0  0
   33.2896   26.8898   45.4113 H   0  0  0  0  0  0  0  0  0  0  0  0
   33.3384   29.4173   45.3353 H   0  0  0  0  0  0  0  0  0  0  0  0
  1  2  2  0
  3  2  1  0
  4  3  2  0
  5  4  1  0
  5  1  1  0
  6  7  1  0
  6  4  1  0
  8  7  2  0
  9 10  1  0
  9  8  1  0
 10  6  2  0
 11  1  1  0
 11 12  2  0
 13 18  2  0
 14 13  1  0
 15 14  2  0
 15 16  1  0
 16 17  2  0
 17 18  1  0
 17 11  1  0
  2 19  1  0
  3 20  1  0
  7 21  1  0
  8 22  1  0
  9 23  1  0
 13 24  1  0
 14 25  1  0
 15 26  1  0
M  ISO  8  19  14  20  14  21  14  22  14  23   9  24  14  25  14  26  14
M  END
>  <minimizedAffinity>  (1) 
-5.73072338

>  <minimizedRMSD>  (1) 
1.97364509

$$$$
