
     RDKit          3D

 33 35  0  0  0  0  0  0  0  0999 V2000
   34.9640   28.7890   48.6760 C   0  0  0  0  0  0  0  0  0  0  0  0
   35.0520   28.8110   50.0470 C   0  0  0  0  0  0  0  0  0  0  0  0
   36.1830   29.6040   50.2880 C   0  0  0  0  0  0  0  0  0  0  0  0
   36.7030   30.0090   49.0790 C   0  0  0  0  0  0  0  0  0  0  0  0
   35.9440   29.5010   48.1500 O   0  0  0  0  0  0  0  0  0  0  0  0
   37.8780   30.8510   48.7970 C   0  0  0  0  0  0  0  0  0  0  0  0
   38.0700   31.9490   49.7890 C   0  0  0  0  0  0  0  0  0  0  0  0
   38.3890   33.2800   49.1460 C   0  0  0  0  0  0  0  0  0  0  0  0
   39.3420   33.1900   48.1380 O   0  0  0  0  0  0  0  0  0  0  0  0
   39.0990   32.1940   47.2110 C   0  0  0  0  0  0  0  0  0  0  0  0
   37.7390   31.5160   47.4210 C   0  0  0  0  0  0  0  0  0  0  0  0
   33.9200   28.0730   47.9290 C   0  0  0  0  0  0  0  0  0  0  0  0
   33.9210   26.8130   47.9870 O   0  0  0  0  0  0  0  0  0  0  0  0
   30.7610   28.9440   46.3720 C   0  0  0  0  0  0  0  0  0  0  0  0
   31.0280   30.1550   45.7450 C   0  0  0  0  0  0  0  0  0  0  0  0
   32.3010   30.6910   45.8500 C   0  0  0  0  0  0  0  0  0  0  0  0
   33.2260   29.9920   46.5680 N   0  0  0  0  0  0  0  0  0  0  0  0
   32.9390   28.8240   47.1620 C   0  0  0  0  0  0  0  0  0  0  0  0
   31.7010   28.2950   47.0650 N   0  0  0  0  0  0  0  0  0  0  0  0
   34.3928   28.3232   50.7802 H   0  0  0  0  0  0  0  0  0  0  0  0
   36.5876   29.8600   51.2783 H   0  0  0  0  0  0  0  0  0  0  0  0
   38.7419   30.1716   48.8429 H   0  0  0  0  0  0  0  0  0  0  0  0
   37.1458   32.0562   50.3759 H   0  0  0  0  0  0  0  0  0  0  0  0
   38.9287   31.6750   50.4195 H   0  0  0  0  0  0  0  0  0  0  0  0
   37.4636   33.6905   48.7158 H   0  0  0  0  0  0  0  0  0  0  0  0
   38.8053   33.9291   49.9305 H   0  0  0  0  0  0  0  0  0  0  0  0
   39.8892   31.4334   47.2949 H   0  0  0  0  0  0  0  0  0  0  0  0
   39.0904   32.6595   46.2144 H   0  0  0  0  0  0  0  0  0  0  0  0
   36.9264   32.2574   47.4230 H   0  0  0  0  0  0  0  0  0  0  0  0
   37.4893   30.8010   46.6232 H   0  0  0  0  0  0  0  0  0  0  0  0
   29.7531   28.5100   46.2961 H   0  0  0  0  0  0  0  0  0  0  0  0
   30.2443   30.6774   45.1768 H   0  0  0  0  0  0  0  0  0  0  0  0
   32.5569   31.6475   45.3708 H   0  0  0  0  0  0  0  0  0  0  0  0
  1  2  2  0
  2  3  1  0
  4  3  2  0
  5  1  1  0
  5  4  1  0
  6  4  1  0
  6  7  1  0
  8  7  1  0
  9  8  1  0
 10 11  1  0
 10  9  1  0
 11  6  1  0
 12 13  2  0
 12  1  1  0
 14 19  2  0
 15 16  2  0
 15 14  1  0
 16 17  1  0
 17 18  2  0
 18 12  1  0
 19 18  1  0
  2 20  1  0
  3 21  1  0
  6 22  1  0
  7 23  1  0
  7 24  1  0
  8 25  1  0
  8 26  1  0
 10 27  1  0
 10 28  1  0
 11 29  1  0
 11 30  1  0
 14 31  1  0
 15 32  1  0
 16 33  1  0
M  ISO  8  20  14  21  14  22  13  23  13  24  13  25  13  26  13  27  13
M  ISO  6  28  13  29  13  30  13  31  14  32  14  33  14
M  END
>  <minimizedAffinity>  (1) 
-5.58150578

>  <minimizedRMSD>  (1) 
2.87239718

$$$$
