
     RDKit          3D

 26 28  0  0  0  0  0  0  0  0999 V2000
   35.8330   30.1860   49.9370 C   0  0  0  0  0  0  0  0  0  0  0  0
   36.7450   29.8450   50.9310 C   0  0  0  0  0  0  0  0  0  0  0  0
   37.8310   30.6710   50.6410 C   0  0  0  0  0  0  0  0  0  0  0  0
   37.5400   31.4360   49.5390 C   0  0  0  0  0  0  0  0  0  0  0  0
   36.3410   31.1310   49.1330 O   0  0  0  0  0  0  0  0  0  0  0  0
   38.4240   32.4230   48.9280 C   0  0  0  0  0  0  0  0  0  0  0  0
   38.8850   33.5920   49.4960 C   0  0  0  0  0  0  0  0  0  0  0  0
   39.7030   34.2510   48.5830 C   0  0  0  0  0  0  0  0  0  0  0  0
   39.6870   33.4190   47.4920 C   0  0  0  0  0  0  0  0  0  0  0  0
   38.9400   32.3610   47.7050 O   0  0  0  0  0  0  0  0  0  0  0  0
   34.4940   29.5820   49.7960 C   0  0  0  0  0  0  0  0  0  0  0  0
   33.7060   29.7050   50.7580 O   0  0  0  0  0  0  0  0  0  0  0  0
   33.8340   26.8320   47.5230 C   0  0  0  0  0  0  0  0  0  0  0  0
   33.5280   27.4780   46.3150 C   0  0  0  0  0  0  0  0  0  0  0  0
   33.5440   28.8620   46.2670 C   0  0  0  0  0  0  0  0  0  0  0  0
   33.8620   29.5200   47.4120 N   0  0  0  0  0  0  0  0  0  0  0  0
   34.1510   28.8790   48.5580 C   0  0  0  0  0  0  0  0  0  0  0  0
   34.1410   27.5390   48.6250 N   0  0  0  0  0  0  0  0  0  0  0  0
   36.6368   29.1092   51.7415 H   0  0  0  0  0  0  0  0  0  0  0  0
   38.7736   30.7042   51.2071 H   0  0  0  0  0  0  0  0  0  0  0  0
   38.6446   33.9470   50.5090 H   0  0  0  0  0  0  0  0  0  0  0  0
   40.2335   35.2067   48.7061 H   0  0  0  0  0  0  0  0  0  0  0  0
   40.2317   33.6142   46.5565 H   0  0  0  0  0  0  0  0  0  0  0  0
   33.8225   25.7330   47.5689 H   0  0  0  0  0  0  0  0  0  0  0  0
   33.2787   26.8924   45.4178 H   0  0  0  0  0  0  0  0  0  0  0  0
   33.3090   29.4058   45.3402 H   0  0  0  0  0  0  0  0  0  0  0  0
  1  2  2  0
  3  2  1  0
  4  3  2  0
  5  4  1  0
  5  1  1  0
  6  7  2  0
  6  4  1  0
  8  7  1  0
  9 10  1  0
  9  8  2  0
 10  6  1  0
 11  1  1  0
 11 12  2  0
 13 18  2  0
 14 13  1  0
 15 14  2  0
 15 16  1  0
 16 17  2  0
 17 18  1  0
 17 11  1  0
  2 19  1  0
  3 20  1  0
  7 21  1  0
  8 22  1  0
  9 23  1  0
 13 24  1  0
 14 25  1  0
 15 26  1  0
M  ISO  8  19  14  20  14  21  14  22  14  23  14  24  14  25  14  26  14
M  END
>  <minimizedAffinity>  (1) 
-5.4056263

>  <minimizedRMSD>  (1) 
1.98356616

$$$$
