
     RDKit          3D

 22 23  0  0  0  0  0  0  0  0999 V2000
   35.1190   29.6620   49.9350 C   0  0  0  0  0  0  0  0  0  0  0  0
   34.6000   29.3330   51.0240 O   0  0  0  0  0  0  0  0  0  0  0  0
   32.8840   28.1440   47.5090 C   0  0  0  0  0  0  0  0  0  0  0  0
   33.3000   28.6710   46.2920 C   0  0  0  0  0  0  0  0  0  0  0  0
   34.3690   29.5680   46.2900 C   0  0  0  0  0  0  0  0  0  0  0  0
   34.9300   29.8620   47.4920 N   0  0  0  0  0  0  0  0  0  0  0  0
   34.5110   29.3390   48.6580 C   0  0  0  0  0  0  0  0  0  0  0  0
   33.4760   28.4720   48.6540 N   0  0  0  0  0  0  0  0  0  0  0  0
   36.3920   30.4030   49.9650 C   0  0  0  0  0  0  0  0  0  0  0  0
   37.5260   29.9410   50.6170 C   0  0  0  0  0  0  0  0  0  0  0  0
   38.4420   30.9650   50.3660 C   0  0  0  0  0  0  0  0  0  0  0  0
   37.8420   31.9610   49.6020 C   0  0  0  0  0  0  0  0  0  0  0  0
   36.6150   31.5740   49.3910 O   0  0  0  0  0  0  0  0  0  0  0  0
   38.5600   33.1880   49.1660 C   0  0  0  0  0  0  0  0  0  0  0  0
   39.4920   33.5600   50.1250 F   0  0  0  0  0  0  0  0  0  0  0  0
   39.2680   32.9270   47.9930 F   0  0  0  0  0  0  0  0  0  0  0  0
   37.7130   34.2640   49.0030 F   0  0  0  0  0  0  0  0  0  0  0  0
   32.0421   27.4363   47.5257 H   0  0  0  0  0  0  0  0  0  0  0  0
   32.7993   28.3882   45.3543 H   0  0  0  0  0  0  0  0  0  0  0  0
   34.7408   30.0169   45.3571 H   0  0  0  0  0  0  0  0  0  0  0  0
   37.6672   29.0094   51.1847 H   0  0  0  0  0  0  0  0  0  0  0  0
   39.4834   30.9816   50.7199 H   0  0  0  0  0  0  0  0  0  0  0  0
  1  9  1  0
  1  2  2  0
  3  8  2  0
  4  3  1  0
  5  4  2  0
  5  6  1  0
  6  7  2  0
  7  1  1  0
  8  7  1  0
  9 10  2  0
 11 10  1  0
 12 11  2  0
 13 12  1  0
 13  9  1  0
 14 12  1  0
 14 15  1  0
 16 14  1  0
 17 14  1  0
  3 18  1  0
  4 19  1  0
  5 20  1  0
 10 21  1  0
 11 22  1  0
M  ISO  5  18  14  19  14  20  14  21  14  22  14
M  END
>  <minimizedAffinity>  (1) 
-5.27068281

>  <minimizedRMSD>  (1) 
1.40878999

$$$$
