
     RDKit          3D

 25 26  0  0  0  0  0  0  0  0999 V2000
   35.2140   29.6110   50.2490 C   0  0  0  0  0  0  0  0  0  0  0  0
   34.9120   29.1930   51.3780 O   0  0  0  0  0  0  0  0  0  0  0  0
   32.8260   28.0100   48.0120 C   0  0  0  0  0  0  0  0  0  0  0  0
   32.8290   28.8530   46.8920 C   0  0  0  0  0  0  0  0  0  0  0  0
   33.6400   29.9720   46.8860 C   0  0  0  0  0  0  0  0  0  0  0  0
   34.3930   30.1790   47.9880 N   0  0  0  0  0  0  0  0  0  0  0  0
   34.3940   29.3700   49.0680 C   0  0  0  0  0  0  0  0  0  0  0  0
   33.6030   28.2790   49.0750 N   0  0  0  0  0  0  0  0  0  0  0  0
   36.4570   30.3790   50.1180 C   0  0  0  0  0  0  0  0  0  0  0  0
   37.6070   30.1480   50.8470 C   0  0  0  0  0  0  0  0  0  0  0  0
   38.4870   31.1340   50.3570 C   0  0  0  0  0  0  0  0  0  0  0  0
   37.8520   31.8790   49.3970 C   0  0  0  0  0  0  0  0  0  0  0  0
   36.6470   31.4070   49.2790 O   0  0  0  0  0  0  0  0  0  0  0  0
   38.3620   33.0230   48.5960 C   0  0  0  0  0  0  0  0  0  0  0  0
   39.2420   33.8830   49.4780 C   0  0  0  0  0  0  0  0  0  0  0  0
   32.1809   27.1190   48.0209 H   0  0  0  0  0  0  0  0  0  0  0  0
   32.1911   28.6257   46.0251 H   0  0  0  0  0  0  0  0  0  0  0  0
   33.6707   30.6591   46.0275 H   0  0  0  0  0  0  0  0  0  0  0  0
   37.7904   29.3849   51.6177 H   0  0  0  0  0  0  0  0  0  0  0  0
   39.5238   31.2829   50.6931 H   0  0  0  0  0  0  0  0  0  0  0  0
   38.9478   32.6461   47.7446 H   0  0  0  0  0  0  0  0  0  0  0  0
   37.5187   33.6182   48.2159 H   0  0  0  0  0  0  0  0  0  0  0  0
   39.0230   33.6690   50.5345 H   0  0  0  0  0  0  0  0  0  0  0  0
   40.2989   33.6601   49.2702 H   0  0  0  0  0  0  0  0  0  0  0  0
   39.0435   34.9448   49.2702 H   0  0  0  0  0  0  0  0  0  0  0  0
  1  2  2  0
  3  8  2  0
  4  3  1  0
  5  4  2  0
  5  6  1  0
  6  7  2  0
  7  8  1  0
  7  1  1  0
  9  1  1  0
  9 10  2  0
 11 10  1  0
 12 11  2  0
 13 12  1  0
 13  9  1  0
 14 12  1  0
 14 15  1  0
  3 16  1  0
  4 17  1  0
  5 18  1  0
 10 19  1  0
 11 20  1  0
 14 21  1  0
 14 22  1  0
 15 23  1  0
 15 24  1  0
 15 25  1  0
M  ISO  8  16  14  17  14  18  14  19  14  20  14  21   8  22   8  23   8
M  ISO  2  24   8  25   8
M  END
>  <minimizedAffinity>  (1) 
-5.00974894

>  <minimizedRMSD>  (1) 
1.82700229

$$$$
