
     RDKit          3D

 21 22  0  0  0  0  0  0  0  0999 V2000
   35.2260   29.5680   50.2740 C   0  0  0  0  0  0  0  0  0  0  0  0
   34.9790   29.1320   51.4220 O   0  0  0  0  0  0  0  0  0  0  0  0
   32.7220   27.8970   48.2310 C   0  0  0  0  0  0  0  0  0  0  0  0
   32.7570   28.6070   47.0340 C   0  0  0  0  0  0  0  0  0  0  0  0
   33.6410   29.6780   46.9020 C   0  0  0  0  0  0  0  0  0  0  0  0
   34.4290   29.9680   47.9670 N   0  0  0  0  0  0  0  0  0  0  0  0
   34.3760   29.2610   49.1170 C   0  0  0  0  0  0  0  0  0  0  0  0
   33.5270   28.2340   49.2430 N   0  0  0  0  0  0  0  0  0  0  0  0
   36.4080   30.4140   50.1000 C   0  0  0  0  0  0  0  0  0  0  0  0
   37.7040   29.9970   50.3400 C   0  0  0  0  0  0  0  0  0  0  0  0
   38.4570   31.1380   50.0350 C   0  0  0  0  0  0  0  0  0  0  0  0
   37.6010   32.1580   49.6380 C   0  0  0  0  0  0  0  0  0  0  0  0
   36.3940   31.6770   49.6940 O   0  0  0  0  0  0  0  0  0  0  0  0
   38.0950   33.4770   49.2550 C   0  0  0  0  0  0  0  0  0  0  0  0
   39.2690   33.7800   49.5950 O   0  0  0  0  0  0  0  0  0  0  0  0
   32.0266   27.0523   48.3446 H   0  0  0  0  0  0  0  0  0  0  0  0
   32.0949   28.3266   46.2015 H   0  0  0  0  0  0  0  0  0  0  0  0
   33.6967   30.2633   45.9723 H   0  0  0  0  0  0  0  0  0  0  0  0
   38.0563   29.0136   50.6848 H   0  0  0  0  0  0  0  0  0  0  0  0
   39.5524   31.2145   50.0995 H   0  0  0  0  0  0  0  0  0  0  0  0
   37.4652   34.1802   48.6904 H   0  0  0  0  0  0  0  0  0  0  0  0
  1  2  2  0
  3  8  2  0
  4  3  1  0
  5  4  2  0
  5  6  1  0
  6  7  2  0
  7  8  1  0
  7  1  1  0
  9  1  1  0
  9 10  2  0
 11 10  1  0
 12 13  1  0
 12 11  2  0
 13  9  1  0
 14 15  2  0
 14 12  1  0
  3 16  1  0
  4 17  1  0
  5 18  1  0
 10 19  1  0
 11 20  1  0
 14 21  1  0
M  ISO  6  16  14  17  14  18  14  19  14  20  14  21   6
M  END
>  <minimizedAffinity>  (1) 
-4.81501818

>  <minimizedRMSD>  (1) 
1.91761398

$$$$
