
     RDKit          3D

 21 22  0  0  0  0  0  0  0  0999 V2000
   35.2200   30.4360   48.9800 C   0  0  0  0  0  0  0  0  0  0  0  0
   34.3810   30.1470   49.8650 O   0  0  0  0  0  0  0  0  0  0  0  0
   33.3140   30.0780   45.8970 C   0  0  0  0  0  0  0  0  0  0  0  0
   34.3210   30.0050   44.9170 C   0  0  0  0  0  0  0  0  0  0  0  0
   35.6660   30.0770   45.2950 C   0  0  0  0  0  0  0  0  0  0  0  0
   35.9040   30.2170   46.6260 N   0  0  0  0  0  0  0  0  0  0  0  0
   34.9360   30.2860   47.5540 C   0  0  0  0  0  0  0  0  0  0  0  0
   33.6480   30.2160   47.1820 N   0  0  0  0  0  0  0  0  0  0  0  0
   36.5260   30.9400   49.4090 C   0  0  0  0  0  0  0  0  0  0  0  0
   37.3830   30.2590   50.2370 C   0  0  0  0  0  0  0  0  0  0  0  0
   38.4700   31.1160   50.3590 C   0  0  0  0  0  0  0  0  0  0  0  0
   38.2330   32.2480   49.6200 C   0  0  0  0  0  0  0  0  0  0  0  0
   37.0640   32.1020   49.0700 O   0  0  0  0  0  0  0  0  0  0  0  0
   38.9400   33.4540   49.3490 N   0  0  0  0  0  0  0  0  0  0  0  0
   32.2549   30.0215   45.6052 H   0  0  0  0  0  0  0  0  0  0  0  0
   34.0514   29.8916   43.8566 H   0  0  0  0  0  0  0  0  0  0  0  0
   36.4820   30.0235   44.5593 H   0  0  0  0  0  0  0  0  0  0  0  0
   37.2426   29.2690   50.6955 H   0  0  0  0  0  0  0  0  0  0  0  0
   39.3750   30.9188   50.9525 H   0  0  0  0  0  0  0  0  0  0  0  0
   38.5220   34.1697   48.7375 H   0  0  0  0  0  0  0  0  0  0  0  0
   39.8694   33.6106   49.7645 H   0  0  0  0  0  0  0  0  0  0  0  0
  1  9  1  0
  1  2  2  0
  3  8  2  0
  4  5  2  0
  4  3  1  0
  5  6  1  0
  6  7  2  0
  7  1  1  0
  8  7  1  0
  9 10  2  0
 10 11  1  0
 12 11  2  0
 13  9  1  0
 13 12  1  0
 14 12  1  0
  3 15  1  0
  4 16  1  0
  5 17  1  0
 10 18  1  0
 11 19  1  0
 14 20  1  0
 14 21  1  0
M  ISO  5  15  14  16  14  17  14  18  14  19  14
M  END
>  <minimizedAffinity>  (1) 
-4.3265028

>  <minimizedRMSD>  (1) 
0.098699823

$$$$
