
     RDKit          3D

 46 50  0  0  0  0  0  0  0  0999 V2000
   35.5270   29.5920   49.7210 C   0  0  0  0  0  0  0  0  0  0  0  0
   36.5460   29.2530   50.5880 C   0  0  0  0  0  0  0  0  0  0  0  0
   37.6790   29.7780   49.9740 C   0  0  0  0  0  0  0  0  0  0  0  0
   37.3060   30.3880   48.8020 C   0  0  0  0  0  0  0  0  0  0  0  0
   36.0080   30.2580   48.6820 O   0  0  0  0  0  0  0  0  0  0  0  0
   38.5890   32.3560   48.0880 C   0  0  0  0  0  0  0  0  0  0  0  0
   38.1730   31.0640   47.8490 C   0  0  0  0  0  0  0  0  0  0  0  0
   38.5690   30.3780   46.6980 C   0  0  0  0  0  0  0  0  0  0  0  0
   39.3980   31.0110   45.7750 C   0  0  0  0  0  0  0  0  0  0  0  0
   39.9430   30.6280   44.5950 N   0  0  0  0  0  0  0  0  0  0  0  0
   40.6550   31.6520   44.1500 N   0  0  0  0  0  0  0  0  0  0  0  0
   40.5770   32.6740   45.0150 C   0  0  0  0  0  0  0  0  0  0  0  0
   39.7700   32.2940   46.0830 C   0  0  0  0  0  0  0  0  0  0  0  0
   39.4230   33.0230   47.1850 C   0  0  0  0  0  0  0  0  0  0  0  0
   34.1190   29.2490   49.9430 C   0  0  0  0  0  0  0  0  0  0  0  0
   33.5150   29.8300   50.8590 O   0  0  0  0  0  0  0  0  0  0  0  0
   31.4950   27.2230   48.4330 C   0  0  0  0  0  0  0  0  0  0  0  0
   32.2010   26.4110   47.5400 C   0  0  0  0  0  0  0  0  0  0  0  0
   33.5820   26.5480   47.4460 C   0  0  0  0  0  0  0  0  0  0  0  0
   34.1740   27.4650   48.2270 N   0  0  0  0  0  0  0  0  0  0  0  0
   33.4830   28.2500   49.0910 C   0  0  0  0  0  0  0  0  0  0  0  0
   32.1440   28.1110   49.1760 N   0  0  0  0  0  0  0  0  0  0  0  0
   34.3420   25.6890   46.4990 C   0  0  0  0  0  0  0  0  0  0  0  0
   33.9030   26.0170   45.1050 C   0  0  0  0  0  0  0  0  0  0  0  0
   33.7940   24.8770   44.1630 C   0  0  0  0  0  0  0  0  0  0  0  0
   34.5110   23.7780   44.6400 O   0  0  0  0  0  0  0  0  0  0  0  0
   33.7980   23.3460   45.7750 C   0  0  0  0  0  0  0  0  0  0  0  0
   34.1860   24.2740   46.9000 C   0  0  0  0  0  0  0  0  0  0  0  0
   36.4786   28.7004   51.5367 H   0  0  0  0  0  0  0  0  0  0  0  0
   38.7056   29.7146   50.3639 H   0  0  0  0  0  0  0  0  0  0  0  0
   38.2600   32.8704   49.0030 H   0  0  0  0  0  0  0  0  0  0  0  0
   38.2289   29.3468   46.5223 H   0  0  0  0  0  0  0  0  0  0  0  0
   39.8259   29.7151   44.1327 H   0  0  0  0  0  0  0  0  0  0  0  0
   41.0694   33.6508   44.8993 H   0  0  0  0  0  0  0  0  0  0  0  0
   39.7720   34.0532   47.3491 H   0  0  0  0  0  0  0  0  0  0  0  0
   30.4027   27.1259   48.5197 H   0  0  0  0  0  0  0  0  0  0  0  0
   31.6710   25.6732   46.9197 H   0  0  0  0  0  0  0  0  0  0  0  0
   35.4250   25.8798   46.5262 H   0  0  0  0  0  0  0  0  0  0  0  0
   32.9139   26.4940   45.1691 H   0  0  0  0  0  0  0  0  0  0  0  0
   34.6937   26.6617   44.6936 H   0  0  0  0  0  0  0  0  0  0  0  0
   34.1983   25.1760   43.1846 H   0  0  0  0  0  0  0  0  0  0  0  0
   32.7350   24.5958   44.0659 H   0  0  0  0  0  0  0  0  0  0  0  0
   32.7154   23.4048   45.5894 H   0  0  0  0  0  0  0  0  0  0  0  0
   34.0348   22.3003   46.0208 H   0  0  0  0  0  0  0  0  0  0  0  0
   35.1429   23.9273   47.3174 H   0  0  0  0  0  0  0  0  0  0  0  0
   33.3634   24.2435   47.6297 H   0  0  0  0  0  0  0  0  0  0  0  0
  1 15  1  0
  1  2  2  0
  3  2  1  0
  4  3  2  0
  5  4  1  0
  5  1  1  0
  7  6  2  0
  7  4  1  0
  8  7  1  0
  9 13  1  0
  9  8  2  0
 10  9  1  0
 11 10  1  0
 11 12  2  0
 12 13  1  0
 13 14  2  0
 14  6  1  0
 15 16  2  0
 17 22  2  0
 18 17  1  0
 19 18  2  0
 19 20  1  0
 20 21  2  0
 21 22  1  0
 21 15  1  0
 23 28  1  0
 23 19  1  0
 24 23  1  0
 25 26  1  0
 25 24  1  0
 26 27  1  0
 27 28  1  0
  2 29  1  0
  3 30  1  0
  6 31  1  0
  8 32  1  0
 10 33  1  0
 12 34  1  0
 14 35  1  0
 17 36  1  0
 18 37  1  0
 23 38  1  0
 24 39  1  0
 24 40  1  0
 25 41  1  0
 25 42  1  0
 27 43  1  0
 27 44  1  0
 28 45  1  0
 28 46  1  0
M  ISO  8  29  14  30  14  31  14  32  14  33   9  34  14  35  14  36  14
M  ISO  8  37  14  38  13  39  13  40  13  41  13  42  13  43  13  44  13
M  ISO  2  45  13  46  13
M  END
>  <minimizedAffinity>  (1) 
-6.67396164

>  <minimizedRMSD>  (1) 
0.636085153

$$$$
