
     RDKit          3D

 33 36  0  0  0  0  0  0  0  0999 V2000
   35.5470   29.6000   49.6950 C   0  0  0  0  0  0  0  0  0  0  0  0
   36.5770   29.2980   50.5880 C   0  0  0  0  0  0  0  0  0  0  0  0
   37.7130   29.8120   49.9580 C   0  0  0  0  0  0  0  0  0  0  0  0
   37.3260   30.3790   48.7580 C   0  0  0  0  0  0  0  0  0  0  0  0
   36.0200   30.2340   48.6310 O   0  0  0  0  0  0  0  0  0  0  0  0
   38.6330   32.3230   48.0210 C   0  0  0  0  0  0  0  0  0  0  0  0
   38.1940   31.0290   47.7860 C   0  0  0  0  0  0  0  0  0  0  0  0
   38.5650   30.3400   46.6420 C   0  0  0  0  0  0  0  0  0  0  0  0
   39.3900   30.9430   45.7050 C   0  0  0  0  0  0  0  0  0  0  0  0
   39.9080   30.5360   44.5240 N   0  0  0  0  0  0  0  0  0  0  0  0
   40.6370   31.5490   44.0560 N   0  0  0  0  0  0  0  0  0  0  0  0
   40.5890   32.5910   44.9250 C   0  0  0  0  0  0  0  0  0  0  0  0
   39.7930   32.2320   45.9960 C   0  0  0  0  0  0  0  0  0  0  0  0
   39.4650   32.9640   47.1010 C   0  0  0  0  0  0  0  0  0  0  0  0
   34.1490   29.2530   49.9260 C   0  0  0  0  0  0  0  0  0  0  0  0
   33.5400   29.8340   50.8480 O   0  0  0  0  0  0  0  0  0  0  0  0
   31.5500   27.2070   48.4180 C   0  0  0  0  0  0  0  0  0  0  0  0
   32.2500   26.3940   47.5350 C   0  0  0  0  0  0  0  0  0  0  0  0
   33.6270   26.5280   47.4370 C   0  0  0  0  0  0  0  0  0  0  0  0
   34.2130   27.4600   48.2240 N   0  0  0  0  0  0  0  0  0  0  0  0
   33.5170   28.2510   49.0830 C   0  0  0  0  0  0  0  0  0  0  0  0
   32.1890   28.1090   49.1660 N   0  0  0  0  0  0  0  0  0  0  0  0
   34.4140   25.7800   46.6030 O   0  0  0  0  0  0  0  0  0  0  0  0
   36.5100   28.7795   51.5558 H   0  0  0  0  0  0  0  0  0  0  0  0
   38.7401   29.7724   50.3498 H   0  0  0  0  0  0  0  0  0  0  0  0
   38.3241   32.8475   48.9372 H   0  0  0  0  0  0  0  0  0  0  0  0
   38.2046   29.3139   46.4774 H   0  0  0  0  0  0  0  0  0  0  0  0
   39.7666   29.6206   44.0734 H   0  0  0  0  0  0  0  0  0  0  0  0
   41.0979   33.5579   44.7980 H   0  0  0  0  0  0  0  0  0  0  0  0
   39.8315   33.9895   47.2559 H   0  0  0  0  0  0  0  0  0  0  0  0
   30.4578   27.1062   48.5014 H   0  0  0  0  0  0  0  0  0  0  0  0
   31.7181   25.6526   46.9207 H   0  0  0  0  0  0  0  0  0  0  0  0
   35.3928   25.9270   46.5822 H   0  0  0  0  0  0  0  0  0  0  0  0
  1 15  1  0
  1  2  2  0
  3  2  1  0
  4  3  2  0
  5  4  1  0
  5  1  1  0
  7  6  2  0
  7  4  1  0
  8  7  1  0
  9 13  1  0
  9  8  2  0
 10  9  1  0
 11 10  1  0
 11 12  2  0
 12 13  1  0
 13 14  2  0
 14  6  1  0
 15 16  2  0
 17 22  2  0
 18 17  1  0
 19 18  2  0
 19 20  1  0
 20 21  2  0
 21 22  1  0
 21 15  1  0
 23 19  1  0
  2 24  1  0
  3 25  1  0
  6 26  1  0
  8 27  1  0
 10 28  1  0
 12 29  1  0
 14 30  1  0
 17 31  1  0
 18 32  1  0
 23 33  1  0
M  ISO  8  24  14  25  14  26  14  27  14  28   9  29  14  30  14  31  14
M  ISO  2  32  14  33   3
M  END
>  <minimizedAffinity>  (1) 
-6.54851675

>  <minimizedRMSD>  (1) 
0.186534762

$$$$
