
     RDKit          3D

 39 43  0  0  0  0  0  0  0  0999 V2000
   35.5200   29.5870   49.6930 C   0  0  0  0  0  0  0  0  0  0  0  0
   36.5380   29.2490   50.5650 C   0  0  0  0  0  0  0  0  0  0  0  0
   37.6800   29.7710   49.9530 C   0  0  0  0  0  0  0  0  0  0  0  0
   37.3150   30.3780   48.7820 C   0  0  0  0  0  0  0  0  0  0  0  0
   36.0130   30.2490   48.6560 O   0  0  0  0  0  0  0  0  0  0  0  0
   38.6010   32.3490   48.0720 C   0  0  0  0  0  0  0  0  0  0  0  0
   38.1860   31.0560   47.8220 C   0  0  0  0  0  0  0  0  0  0  0  0
   38.5730   30.3720   46.6730 C   0  0  0  0  0  0  0  0  0  0  0  0
   39.4030   31.0060   45.7480 C   0  0  0  0  0  0  0  0  0  0  0  0
   39.9400   30.6240   44.5690 N   0  0  0  0  0  0  0  0  0  0  0  0
   40.6560   31.6530   44.1220 N   0  0  0  0  0  0  0  0  0  0  0  0
   40.5830   32.6850   44.9990 C   0  0  0  0  0  0  0  0  0  0  0  0
   39.7800   32.2860   46.0530 C   0  0  0  0  0  0  0  0  0  0  0  0
   39.4320   33.0140   47.1680 C   0  0  0  0  0  0  0  0  0  0  0  0
   34.1220   29.2450   49.9150 C   0  0  0  0  0  0  0  0  0  0  0  0
   33.5160   29.8110   50.8480 O   0  0  0  0  0  0  0  0  0  0  0  0
   31.5020   27.1930   48.4210 C   0  0  0  0  0  0  0  0  0  0  0  0
   32.1810   26.4480   47.4750 C   0  0  0  0  0  0  0  0  0  0  0  0
   33.5500   26.6320   47.3270 C   0  0  0  0  0  0  0  0  0  0  0  0
   34.1520   27.5420   48.1290 N   0  0  0  0  0  0  0  0  0  0  0  0
   33.4720   28.2660   49.0530 C   0  0  0  0  0  0  0  0  0  0  0  0
   32.1420   28.0870   49.1950 N   0  0  0  0  0  0  0  0  0  0  0  0
   34.3680   25.8780   46.3400 C   0  0  0  0  0  0  0  0  0  0  0  0
   33.6040   25.0770   45.3330 C   0  0  0  0  0  0  0  0  0  0  0  0
   34.4610   24.4030   46.3660 C   0  0  0  0  0  0  0  0  0  0  0  0
   36.4659   28.6995   51.5152 H   0  0  0  0  0  0  0  0  0  0  0  0
   38.7047   29.7050   50.3476 H   0  0  0  0  0  0  0  0  0  0  0  0
   38.2745   32.8591   48.9903 H   0  0  0  0  0  0  0  0  0  0  0  0
   38.2281   29.3425   46.4962 H   0  0  0  0  0  0  0  0  0  0  0  0
   39.8188   29.7123   44.1053 H   0  0  0  0  0  0  0  0  0  0  0  0
   41.0740   33.6635   44.8917 H   0  0  0  0  0  0  0  0  0  0  0  0
   39.7825   34.0433   47.3347 H   0  0  0  0  0  0  0  0  0  0  0  0
   30.4179   27.0518   48.5428 H   0  0  0  0  0  0  0  0  0  0  0  0
   31.6450   25.7199   46.8484 H   0  0  0  0  0  0  0  0  0  0  0  0
   35.1348   26.6667   46.3336 H   0  0  0  0  0  0  0  0  0  0  0  0
   32.5078   25.0111   45.3960 H   0  0  0  0  0  0  0  0  0  0  0  0
   33.5385   25.0564   44.2351 H   0  0  0  0  0  0  0  0  0  0  0  0
   35.3952   23.9062   46.0653 H   0  0  0  0  0  0  0  0  0  0  0  0
   34.2929   23.6280   47.1283 H   0  0  0  0  0  0  0  0  0  0  0  0
  1 15  1  0
  1  2  2  0
  3  2  1  0
  4  3  2  0
  5  4  1  0
  5  1  1  0
  7  6  2  0
  7  4  1  0
  8  7  1  0
  9 13  1  0
  9  8  2  0
 10  9  1  0
 11 10  1  0
 11 12  2  0
 12 13  1  0
 13 14  2  0
 14  6  1  0
 15 16  2  0
 17 22  2  0
 18 17  1  0
 19 18  2  0
 19 20  1  0
 20 21  2  0
 21 22  1  0
 21 15  1  0
 23 25  1  0
 23 19  1  0
 24 23  1  0
 24 25  1  0
  2 26  1  0
  3 27  1  0
  6 28  1  0
  8 29  1  0
 10 30  1  0
 12 31  1  0
 14 32  1  0
 17 33  1  0
 18 34  1  0
 23 35  1  0
 24 36  1  0
 24 37  1  0
 25 38  1  0
 25 39  1  0
M  ISO  8  26  14  27  14  28  14  29  14  30   9  31  14  32  14  33  14
M  ISO  6  34  14  35  13  36  13  37  13  38  13  39  13
M  END
>  <minimizedAffinity>  (1) 
-6.45236731

>  <minimizedRMSD>  (1) 
0.53281939

$$$$
