
     RDKit          3D

 21 22  0  0  1  0  0  0  0  0999 V2000
   38.3520   30.5530   47.0780 C   0  0  2  0  0  0  0  0  0  0  0  0
   36.9490   30.6100   47.5310 C   0  0  0  0  0  0  0  0  0  0  0  0
   38.0700   31.0990   48.4180 C   0  0  1  0  0  0  0  0  0  0  0  0
   40.6050   32.7000   45.0210 C   0  0  0  0  0  0  0  0  0  0  0  0
   39.7250   33.1820   44.0360 C   0  0  0  0  0  0  0  0  0  0  0  0
   38.3630   32.7690   44.0990 C   0  0  0  0  0  0  0  0  0  0  0  0
   37.9890   31.9350   45.1030 N   0  0  0  0  0  0  0  0  0  0  0  0
   38.8650   31.4940   46.0300 C   0  0  0  0  0  0  0  0  0  0  0  0
   40.1720   31.8640   46.0050 N   0  0  0  0  0  0  0  0  0  0  0  0
   37.7000   30.5090   50.7790 C   0  0  0  0  0  0  0  0  0  0  0  0
   36.7340   31.3300   50.8110 O   0  0  0  0  0  0  0  0  0  0  0  0
   38.4500   30.3250   49.5810 N   0  0  0  0  0  0  0  0  0  0  0  0
   38.9771   29.7429   46.6742 H   0  0  0  0  0  0  0  0  0  0  0  0
   36.2507   31.3283   47.0768 H   0  0  0  0  0  0  0  0  0  0  0  0
   36.1295   29.8835   47.6339 H   0  0  0  0  0  0  0  0  0  0  0  0
   38.2902   32.0378   48.9473 H   0  0  0  0  0  0  0  0  0  0  0  0
   41.6620   33.0036   44.9964 H   0  0  0  0  0  0  0  0  0  0  0  0
   40.0771   33.8567   43.2418 H   0  0  0  0  0  0  0  0  0  0  0  0
   37.6330   33.1169   43.3533 H   0  0  0  0  0  0  0  0  0  0  0  0
   37.9606   29.9356   51.6809 H   0  0  0  0  0  0  0  0  0  0  0  0
   39.2376   29.6622   49.5438 H   0  0  0  0  0  0  0  0  0  0  0  0
  1  2  1  0
  1  3  1  0
  2  3  1  0
  3 12  1  0
  4  9  2  0
  5  6  2  0
  5  4  1  0
  6  7  1  0
  7  8  2  0
  8  1  1  0
  9  8  1  0
 10 11  2  0
 12 10  1  0
  1 13  1  1
  2 14  1  0
  2 15  1  0
  3 16  1  1
  4 17  1  0
  5 18  1  0
  6 19  1  0
 10 20  1  0
 12 21  1  0
M  ISO  8  13  13  14  13  15  13  16  13  17  14  18  14  19  14  20   6
M  END
>  <minimizedAffinity>  (1) 
-4.17477608

>  <minimizedRMSD>  (1) 
3.91820693

$$$$
