
     RDKit          3D

 36 38  0  0  1  0  0  0  0  0999 V2000
   31.8730   29.8100   46.0430 C   0  0  0  0  0  0  0  0  0  0  0  0
   30.6720   30.2120   45.5150 C   0  0  0  0  0  0  0  0  0  0  0  0
   29.6840   29.5730   46.1590 N   0  0  0  0  0  0  0  0  0  0  0  0
   30.2150   28.7720   47.0870 C   0  0  0  0  0  0  0  0  0  0  0  0
   31.5510   28.9250   47.0050 N   0  0  0  0  0  0  0  0  0  0  0  0
   28.2050   28.4890   48.5490 C   0  0  1  0  0  0  0  0  0  0  0  0
   29.4860   27.8850   48.0240 C   0  0  1  0  0  0  0  0  0  0  0  0
   29.2100   26.6350   47.5140 O   0  0  0  0  0  0  0  0  0  0  0  0
   27.8390   26.4930   47.4350 C   0  0  0  0  0  0  0  0  0  0  0  0
   27.3710   27.2120   48.6930 C   0  0  2  0  0  0  0  0  0  0  0  0
   28.3970   29.0860   49.7960 O   0  0  0  0  0  0  0  0  0  0  0  0
   26.0170   27.4900   48.6850 O   0  0  0  0  0  0  0  0  0  0  0  0
   33.1840   30.1790   45.7190 O   0  0  0  0  0  0  0  0  0  0  0  0
   35.7240   29.9420   46.0530 O   0  0  0  0  0  0  0  0  0  0  0  0
   34.4130   29.6910   46.7640 P   0  0  2  0  0  0  0  0  0  0  0  0
   34.2320   28.0390   47.1590 O   0  0  0  0  0  0  0  0  0  0  0  0
   34.3110   30.5420   48.2390 O   0  0  0  0  0  0  0  0  0  0  0  0
   35.2600   30.4010   49.2440 C   0  0  0  0  0  0  0  0  0  0  0  0
   35.2290   29.4650   50.2830 C   0  0  0  0  0  0  0  0  0  0  0  0
   36.2670   29.4680   51.2030 C   0  0  0  0  0  0  0  0  0  0  0  0
   37.2660   30.3640   51.0730 N   0  0  0  0  0  0  0  0  0  0  0  0
   37.2690   31.2680   50.0470 C   0  0  0  0  0  0  0  0  0  0  0  0
   36.2680   31.2900   49.1310 N   0  0  0  0  0  0  0  0  0  0  0  0
   30.5411   30.9379   44.6989 H   0  0  0  0  0  0  0  0  0  0  0  0
   28.6777   29.6823   45.9686 H   0  0  0  0  0  0  0  0  0  0  0  0
   27.7714   29.2807   47.9203 H   0  0  0  0  0  0  0  0  0  0  0  0
   30.1944   27.7688   48.8575 H   0  0  0  0  0  0  0  0  0  0  0  0
   27.4395   26.9723   46.5291 H   0  0  0  0  0  0  0  0  0  0  0  0
   27.5052   25.4467   47.3730 H   0  0  0  0  0  0  0  0  0  0  0  0
   27.4999   26.6448   49.6267 H   0  0  0  0  0  0  0  0  0  0  0  0
   28.1871   28.4333   50.5102 H   0  0  0  0  0  0  0  0  0  0  0  0
   25.6885   27.5575   49.6165 H   0  0  0  0  0  0  0  0  0  0  0  0
   34.2205   27.9344   48.1434 H   0  0  0  0  0  0  0  0  0  0  0  0
   34.4021   28.7446   50.3683 H   0  0  0  0  0  0  0  0  0  0  0  0
   36.2751   28.7451   52.0321 H   0  0  0  0  0  0  0  0  0  0  0  0
   38.0958   31.9887   49.9628 H   0  0  0  0  0  0  0  0  0  0  0  0
  1  5  1  0
  2  1  2  0
  2  3  1  0
  3  4  1  0
  5  4  2  0
  6 10  1  0
  6 11  1  0
  7  4  1  0
  7  6  1  0
  8  7  1  0
  9  8  1  0
  9 10  1  0
 10 12  1  0
 13  1  1  0
 13 15  1  0
 15 14  2  0
 15 16  1  0
 15 17  1  0
 17 18  1  0
 18 19  2  0
 19 20  1  0
 21 20  2  0
 22 21  1  0
 23 18  1  0
 23 22  2  0
  2 24  1  0
  3 25  1  0
  6 26  1  6
  7 27  1  1
  9 28  1  0
  9 29  1  0
 10 30  1  1
 11 31  1  0
 12 32  1  0
 16 33  1  0
 19 34  1  0
 20 35  1  0
 22 36  1  0
M  ISO  8  24  14  25   9  26  13  27  13  28  13  29  13  30  13  31   3
M  ISO  5  32   3  33   3  34  14  35  14  36  14
M  END
>  <minimizedAffinity>  (1) 
-5.3439784

>  <minimizedRMSD>  (1) 
1.36769688

$$$$
