
     RDKit          3D

 25 26  0  0  1  0  0  0  0  0999 V2000
   38.2420   30.7600   46.4940 C   0  0  2  0  0  0  0  0  0  0  0  0
   36.8370   30.6480   46.8720 C   0  0  0  0  0  0  0  0  0  0  0  0
   37.8600   31.4150   47.7340 C   0  0  1  0  0  0  0  0  0  0  0  0
   40.4100   32.7550   44.2420 C   0  0  0  0  0  0  0  0  0  0  0  0
   39.5020   33.0990   43.2090 C   0  0  0  0  0  0  0  0  0  0  0  0
   38.1690   32.6380   43.3090 C   0  0  0  0  0  0  0  0  0  0  0  0
   37.8270   31.8840   44.3960 N   0  0  0  0  0  0  0  0  0  0  0  0
   38.7200   31.5830   45.3470 C   0  0  0  0  0  0  0  0  0  0  0  0
   40.0080   31.9990   45.3020 N   0  0  0  0  0  0  0  0  0  0  0  0
   37.5100   31.1840   50.1670 C   0  0  0  0  0  0  0  0  0  0  0  0
   36.5990   32.0200   50.1180 O   0  0  0  0  0  0  0  0  0  0  0  0
   38.2160   30.7180   48.9780 N   0  0  0  0  0  0  0  0  0  0  0  0
   37.3140   29.4580   51.7350 C   0  0  0  0  0  0  0  0  0  0  0  0
   36.0490   29.4680   51.5320 O   0  0  0  0  0  0  0  0  0  0  0  0
   38.2800   30.3550   51.0500 N   0  0  0  0  0  0  0  0  0  0  0  0
   38.9852   29.9994   46.2126 H   0  0  0  0  0  0  0  0  0  0  0  0
   36.0648   31.1929   46.3092 H   0  0  0  0  0  0  0  0  0  0  0  0
   36.1257   29.8249   47.0349 H   0  0  0  0  0  0  0  0  0  0  0  0
   37.9732   32.4317   48.1384 H   0  0  0  0  0  0  0  0  0  0  0  0
   41.4521   33.1028   44.1871 H   0  0  0  0  0  0  0  0  0  0  0  0
   39.8259   33.7084   42.3524 H   0  0  0  0  0  0  0  0  0  0  0  0
   37.4277   32.8797   42.5331 H   0  0  0  0  0  0  0  0  0  0  0  0
   38.9110   29.9584   49.0082 H   0  0  0  0  0  0  0  0  0  0  0  0
   37.7112   28.7373   52.4650 H   0  0  0  0  0  0  0  0  0  0  0  0
   39.3012   30.3775   51.1826 H   0  0  0  0  0  0  0  0  0  0  0  0
  1  2  1  0
  1  3  1  0
  2  3  1  0
  3 12  1  0
  4  9  2  0
  5  6  2  0
  5  4  1  0
  6  7  1  0
  7  8  2  0
  8  1  1  0
  9  8  1  0
 10 15  1  0
 11 10  2  0
 12 10  1  0
 14 13  2  0
 15 13  1  0
  1 16  1  1
  2 17  1  0
  2 18  1  0
  3 19  1  1
  4 20  1  0
  5 21  1  0
  6 22  1  0
 12 23  1  0
 13 24  1  0
 15 25  1  0
M  ISO  8  16  13  17  13  18  13  19  13  20  14  21  14  22  14  24   6
M  END
>  <minimizedAffinity>  (1) 
-5.02628231

>  <minimizedRMSD>  (1) 
0.820256889

$$$$
