
     RDKit          3D

 22 23  0  0  1  0  0  0  0  0999 V2000
   38.3020   30.5020   47.1760 C   0  0  2  0  0  0  0  0  0  0  0  0
   36.9110   30.6130   47.5970 C   0  0  0  0  0  0  0  0  0  0  0  0
   38.0790   31.0150   48.5180 C   0  0  1  0  0  0  0  0  0  0  0  0
   40.7980   32.3210   45.1250 C   0  0  0  0  0  0  0  0  0  0  0  0
   39.9670   33.0240   44.2130 C   0  0  0  0  0  0  0  0  0  0  0  0
   38.5440   32.8580   44.3200 C   0  0  0  0  0  0  0  0  0  0  0  0
   38.0730   32.0330   45.2940 N   0  0  0  0  0  0  0  0  0  0  0  0
   38.9170   31.3830   46.1390 C   0  0  0  0  0  0  0  0  0  0  0  0
   40.2610   31.5090   46.0780 N   0  0  0  0  0  0  0  0  0  0  0  0
   37.6020   30.4150   50.8610 C   0  0  0  0  0  0  0  0  0  0  0  0
   36.6760   31.2640   50.8730 O   0  0  0  0  0  0  0  0  0  0  0  0
   38.2830   30.0950   49.6340 N   0  0  0  0  0  0  0  0  0  0  0  0
   37.9160   29.8190   52.0910 O   0  0  0  0  0  0  0  0  0  0  0  0
   38.8741   29.6643   46.7506 H   0  0  0  0  0  0  0  0  0  0  0  0
   36.2579   31.3826   47.1598 H   0  0  0  0  0  0  0  0  0  0  0  0
   36.0498   29.9321   47.6652 H   0  0  0  0  0  0  0  0  0  0  0  0
   38.4137   31.9101   49.0627 H   0  0  0  0  0  0  0  0  0  0  0  0
   41.8903   32.4336   45.0611 H   0  0  0  0  0  0  0  0  0  0  0  0
   40.4019   33.6792   43.4439 H   0  0  0  0  0  0  0  0  0  0  0  0
   37.8580   33.3806   43.6371 H   0  0  0  0  0  0  0  0  0  0  0  0
   38.8822   29.2617   49.5475 H   0  0  0  0  0  0  0  0  0  0  0  0
   38.6369   29.1426   52.1436 H   0  0  0  0  0  0  0  0  0  0  0  0
  1  2  1  0
  1  3  1  0
  2  3  1  0
  3 12  1  0
  4  9  2  0
  5  6  2  0
  5  4  1  0
  6  7  1  0
  7  8  2  0
  8  1  1  0
  9  8  1  0
 10 11  2  0
 10 13  1  0
 12 10  1  0
  1 14  1  1
  2 15  1  0
  2 16  1  0
  3 17  1  1
  4 18  1  0
  5 19  1  0
  6 20  1  0
 12 21  1  0
 13 22  1  0
M  ISO  8  14  13  15  13  16  13  17  13  18  14  19  14  20  14  22   3
M  END
>  <minimizedAffinity>  (1) 
-4.80936813

>  <minimizedRMSD>  (1) 
0.255506307

$$$$
