
     RDKit          3D

 34 36  0  0  1  0  0  0  0  0999 V2000
   37.9090   31.6000   45.3950 C   0  0  0  0  0  0  0  0  0  0  0  0
   36.8930   30.8760   45.6230 O   0  0  0  0  0  0  0  0  0  0  0  0
   38.3940   32.5120   46.3870 N   0  0  0  0  0  0  0  0  0  0  0  0
   38.6120   31.5180   44.1070 C   0  0  0  0  0  0  0  0  0  0  0  0
   39.8850   31.0160   44.0970 C   0  0  0  0  0  0  0  0  0  0  0  0
   40.5550   30.9270   42.8890 C   0  0  0  0  0  0  0  0  0  0  0  0
   39.9010   31.3510   41.7610 C   0  0  0  0  0  0  0  0  0  0  0  0
   38.6140   31.8610   41.7630 C   0  0  0  0  0  0  0  0  0  0  0  0
   38.0350   31.9150   42.9640 N   0  0  0  0  0  0  0  0  0  0  0  0
   38.1710   33.6680   40.3670 C   0  0  0  0  0  0  0  0  0  0  0  0
   38.9320   34.2500   41.2110 O   0  0  0  0  0  0  0  0  0  0  0  0
   37.9300   32.3020   40.5970 N   0  0  0  0  0  0  0  0  0  0  0  0
   38.4430   31.4930   48.6600 C   0  0  2  0  0  0  0  0  0  0  0  0
   38.7790   32.9130   48.8360 C   0  0  0  0  0  0  0  0  0  0  0  0
   37.8300   32.4030   47.7240 C   0  0  1  0  0  0  0  0  0  0  0  0
   35.6650   29.5080   50.0610 C   0  0  0  0  0  0  0  0  0  0  0  0
   36.0650   29.3470   51.4270 C   0  0  0  0  0  0  0  0  0  0  0  0
   37.3110   29.9530   51.8300 C   0  0  0  0  0  0  0  0  0  0  0  0
   38.0380   30.6390   50.9120 N   0  0  0  0  0  0  0  0  0  0  0  0
   37.5960   30.7530   49.6300 C   0  0  0  0  0  0  0  0  0  0  0  0
   36.4150   30.1990   49.1750 N   0  0  0  0  0  0  0  0  0  0  0  0
   39.1121   33.2157   46.1634 H   0  0  0  0  0  0  0  0  0  0  0  0
   40.3664   30.6896   45.0306 H   0  0  0  0  0  0  0  0  0  0  0  0
   41.5791   30.5290   42.8357 H   0  0  0  0  0  0  0  0  0  0  0  0
   40.4295   31.2819   40.7988 H   0  0  0  0  0  0  0  0  0  0  0  0
   37.7309   34.2025   39.5123 H   0  0  0  0  0  0  0  0  0  0  0  0
   37.3392   31.7031   40.0026 H   0  0  0  0  0  0  0  0  0  0  0  0
   39.0698   30.5947   48.5588 H   0  0  0  0  0  0  0  0  0  0  0  0
   38.3824   33.4784   49.6922 H   0  0  0  0  0  0  0  0  0  0  0  0
   39.7004   33.5121   48.8817 H   0  0  0  0  0  0  0  0  0  0  0  0
   36.7926   32.5680   47.3977 H   0  0  0  0  0  0  0  0  0  0  0  0
   34.7204   29.0562   49.7239 H   0  0  0  0  0  0  0  0  0  0  0  0
   35.4464   28.7834   52.1409 H   0  0  0  0  0  0  0  0  0  0  0  0
   37.6666   29.8602   52.8668 H   0  0  0  0  0  0  0  0  0  0  0  0
  1  2  2  0
  1  3  1  0
  3 15  1  0
  4  1  1  0
  5  4  2  0
  6  5  1  0
  7  8  1  0
  7  6  2  0
  8  9  2  0
  9  4  1  0
 10 12  1  0
 10 11  2  0
 12  8  1  0
 13 14  1  0
 13 20  1  0
 15 13  1  0
 15 14  1  0
 16 17  2  0
 17 18  1  0
 19 18  2  0
 20 19  1  0
 21 20  2  0
 21 16  1  0
  3 22  1  0
  5 23  1  0
  6 24  1  0
  7 25  1  0
 10 26  1  0
 12 27  1  0
 13 28  1  6
 14 29  1  0
 14 30  1  0
 15 31  1  6
 16 32  1  0
 17 33  1  0
 18 34  1  0
M  ISO  8  23  14  24  14  25  14  26   6  28  13  29  13  30  13  31  13
M  ISO  3  32  14  33  14  34  14
M  END
>  <minimizedAffinity>  (1) 
-5.67096806

>  <minimizedRMSD>  (1) 
1.23764622

$$$$
