
     RDKit          3D

 36 38  0  0  1  0  0  0  0  0999 V2000
   38.4670   31.5040   48.7340 C   0  0  2  0  0  0  0  0  0  0  0  0
   38.8210   32.9060   49.0050 C   0  0  0  0  0  0  0  0  0  0  0  0
   37.8680   32.4850   47.8610 C   0  0  1  0  0  0  0  0  0  0  0  0
   35.6420   29.4670   50.0010 C   0  0  0  0  0  0  0  0  0  0  0  0
   35.9930   29.2840   51.3760 C   0  0  0  0  0  0  0  0  0  0  0  0
   37.2230   29.8900   51.8330 C   0  0  0  0  0  0  0  0  0  0  0  0
   37.9900   30.6010   50.9580 N   0  0  0  0  0  0  0  0  0  0  0  0
   37.5770   30.7260   49.6570 C   0  0  0  0  0  0  0  0  0  0  0  0
   36.4160   30.1770   49.1490 N   0  0  0  0  0  0  0  0  0  0  0  0
   37.9750   31.7940   45.4980 C   0  0  0  0  0  0  0  0  0  0  0  0
   36.9650   31.0500   45.6820 O   0  0  0  0  0  0  0  0  0  0  0  0
   38.4400   32.6640   46.5350 N   0  0  0  0  0  0  0  0  0  0  0  0
   38.6900   31.7760   44.2120 C   0  0  0  0  0  0  0  0  0  0  0  0
   39.6270   30.7980   44.0100 C   0  0  0  0  0  0  0  0  0  0  0  0
   40.3050   30.7590   42.8020 C   0  0  0  0  0  0  0  0  0  0  0  0
   39.9890   31.7240   41.8660 C   0  0  0  0  0  0  0  0  0  0  0  0
   39.0420   32.7160   42.0660 C   0  0  0  0  0  0  0  0  0  0  0  0
   38.4340   32.6850   43.2530 N   0  0  0  0  0  0  0  0  0  0  0  0
   38.6830   33.7520   41.0970 C   0  0  0  0  0  0  0  0  0  0  0  0
   37.1940   33.9390   40.9330 C   0  0  0  0  0  0  0  0  0  0  0  0
   39.0849   30.6076   48.5772 H   0  0  0  0  0  0  0  0  0  0  0  0
   38.4302   33.4178   49.8969 H   0  0  0  0  0  0  0  0  0  0  0  0
   39.7501   33.4886   49.0915 H   0  0  0  0  0  0  0  0  0  0  0  0
   36.8343   32.6916   47.5467 H   0  0  0  0  0  0  0  0  0  0  0  0
   34.7122   29.0155   49.6246 H   0  0  0  0  0  0  0  0  0  0  0  0
   35.3525   28.7054   52.0578 H   0  0  0  0  0  0  0  0  0  0  0  0
   37.5386   29.7783   52.8808 H   0  0  0  0  0  0  0  0  0  0  0  0
   39.1501   33.3869   46.3503 H   0  0  0  0  0  0  0  0  0  0  0  0
   39.8380   30.0555   44.7937 H   0  0  0  0  0  0  0  0  0  0  0  0
   41.0645   29.9902   42.5969 H   0  0  0  0  0  0  0  0  0  0  0  0
   40.5211   31.7041   40.9035 H   0  0  0  0  0  0  0  0  0  0  0  0
   39.1182   34.7056   41.4307 H   0  0  0  0  0  0  0  0  0  0  0  0
   39.0762   33.4301   40.1214 H   0  0  0  0  0  0  0  0  0  0  0  0
   36.7206   33.9985   41.9241 H   0  0  0  0  0  0  0  0  0  0  0  0
   37.0002   34.8685   40.3777 H   0  0  0  0  0  0  0  0  0  0  0  0
   36.7763   33.0863   40.3777 H   0  0  0  0  0  0  0  0  0  0  0  0
  1  2  1  0
  1  8  1  0
  3  1  1  0
  3  2  1  0
  4  5  2  0
  5  6  1  0
  7  6  2  0
  8  7  1  0
  9  8  2  0
  9  4  1  0
 10 11  2  0
 10 12  1  0
 12  3  1  0
 13 10  1  0
 14 13  2  0
 15 14  1  0
 16 17  1  0
 16 15  2  0
 17 18  2  0
 18 13  1  0
 19 17  1  0
 20 19  1  0
  1 21  1  6
  2 22  1  0
  2 23  1  0
  3 24  1  6
  4 25  1  0
  5 26  1  0
  6 27  1  0
 12 28  1  0
 14 29  1  0
 15 30  1  0
 16 31  1  0
 19 32  1  0
 19 33  1  0
 20 34  1  0
 20 35  1  0
 20 36  1  0
M  ISO  8  21  13  22  13  23  13  24  13  25  14  26  14  27  14  29  14
M  ISO  7  30  14  31  14  32   8  33   8  34   8  35   8  36   8
M  END
>  <minimizedAffinity>  (1) 
-5.49713469

>  <minimizedRMSD>  (1) 
1.24717569

$$$$
