
     RDKit          3D

 45 49  0  0  1  0  0  0  0  0999 V2000
   39.1680   31.4460   43.3550 C   0  0  0  0  0  0  0  0  0  0  0  0
   40.1460   30.5000   43.5040 C   0  0  0  0  0  0  0  0  0  0  0  0
   40.8720   30.1120   42.3860 C   0  0  0  0  0  0  0  0  0  0  0  0
   40.5650   30.7040   41.2000 C   0  0  0  0  0  0  0  0  0  0  0  0
   39.5820   31.6620   41.0320 C   0  0  0  0  0  0  0  0  0  0  0  0
   38.9240   31.9820   42.1600 N   0  0  0  0  0  0  0  0  0  0  0  0
   39.2510   32.2980   39.7660 C   0  0  0  0  0  0  0  0  0  0  0  0
   39.8960   31.9970   38.5870 C   0  0  0  0  0  0  0  0  0  0  0  0
   39.6070   32.5790   37.3720 C   0  0  0  0  0  0  0  0  0  0  0  0
   38.5860   33.5340   37.3760 C   0  0  0  0  0  0  0  0  0  0  0  0
   38.2070   34.1800   36.2470 N   0  0  0  0  0  0  0  0  0  0  0  0
   37.2310   35.1000   36.2230 C   0  0  0  0  0  0  0  0  0  0  0  0
   36.5420   35.4460   37.3820 C   0  0  0  0  0  0  0  0  0  0  0  0
   36.9020   34.8090   38.5530 C   0  0  0  0  0  0  0  0  0  0  0  0
   37.9080   33.8690   38.5430 C   0  0  0  0  0  0  0  0  0  0  0  0
   38.2480   33.2420   39.7420 C   0  0  0  0  0  0  0  0  0  0  0  0
   38.3970   31.8380   44.5430 C   0  0  0  0  0  0  0  0  0  0  0  0
   37.2890   32.4440   44.4340 O   0  0  0  0  0  0  0  0  0  0  0  0
   38.9250   31.5200   45.8400 N   0  0  0  0  0  0  0  0  0  0  0  0
   38.4140   31.1070   48.2440 C   0  0  2  0  0  0  0  0  0  0  0  0
   38.6820   32.5470   48.1180 C   0  0  0  0  0  0  0  0  0  0  0  0
   38.0470   31.6990   46.9850 C   0  0  1  0  0  0  0  0  0  0  0  0
   35.0950   30.1750   49.5600 C   0  0  0  0  0  0  0  0  0  0  0  0
   35.4230   29.5370   50.8000 C   0  0  0  0  0  0  0  0  0  0  0  0
   36.8240   29.4550   51.1510 C   0  0  0  0  0  0  0  0  0  0  0  0
   37.7540   29.9760   50.3080 N   0  0  0  0  0  0  0  0  0  0  0  0
   37.3570   30.5700   49.1420 C   0  0  0  0  0  0  0  0  0  0  0  0
   36.0420   30.6850   48.7400 N   0  0  0  0  0  0  0  0  0  0  0  0
   40.3525   30.0564   44.4892 H   0  0  0  0  0  0  0  0  0  0  0  0
   41.6660   29.3540   42.4564 H   0  0  0  0  0  0  0  0  0  0  0  0
   41.1390   30.3992   40.3125 H   0  0  0  0  0  0  0  0  0  0  0  0
   40.6951   31.2417   38.6173 H   0  0  0  0  0  0  0  0  0  0  0  0
   40.1477   32.3082   36.4531 H   0  0  0  0  0  0  0  0  0  0  0  0
   36.9710   35.5887   35.2724 H   0  0  0  0  0  0  0  0  0  0  0  0
   35.7404   36.1991   37.3656 H   0  0  0  0  0  0  0  0  0  0  0  0
   36.3854   35.0524   39.4932 H   0  0  0  0  0  0  0  0  0  0  0  0
   37.7150   33.5015   40.6686 H   0  0  0  0  0  0  0  0  0  0  0  0
   39.8897   31.1779   45.9549 H   0  0  0  0  0  0  0  0  0  0  0  0
   39.0560   30.2630   48.5365 H   0  0  0  0  0  0  0  0  0  0  0  0
   38.0774   33.2785   48.6742 H   0  0  0  0  0  0  0  0  0  0  0  0
   39.5560   33.2064   48.2245 H   0  0  0  0  0  0  0  0  0  0  0  0
   37.1226   31.6902   46.3889 H   0  0  0  0  0  0  0  0  0  0  0  0
   34.0381   30.2527   49.2650 H   0  0  0  0  0  0  0  0  0  0  0  0
   34.6424   29.1267   51.4576 H   0  0  0  0  0  0  0  0  0  0  0  0
   37.1336   28.9755   52.0913 H   0  0  0  0  0  0  0  0  0  0  0  0
  1  2  2  0
  1 17  1  0
  3  2  1  0
  4  3  2  0
  5  4  1  0
  5  6  2  0
  6  1  1  0
  7  5  1  0
  8  7  2  0
  9 10  2  0
  9  8  1  0
 10 15  1  0
 11 10  1  0
 12 11  2  0
 12 13  1  0
 13 14  2  0
 15 14  1  0
 15 16  2  0
 16  7  1  0
 17 19  1  0
 18 17  2  0
 19 22  1  0
 20 27  1  0
 21 20  1  0
 22 21  1  0
 22 20  1  0
 23 24  2  0
 24 25  1  0
 26 25  2  0
 27 26  1  0
 28 27  2  0
 28 23  1  0
  2 29  1  0
  3 30  1  0
  4 31  1  0
  8 32  1  0
  9 33  1  0
 12 34  1  0
 13 35  1  0
 14 36  1  0
 16 37  1  0
 19 38  1  0
 20 39  1  6
 21 40  1  0
 21 41  1  0
 22 42  1  6
 23 43  1  0
 24 44  1  0
 25 45  1  0
M  ISO  8  29  14  30  14  31  14  32  14  33  14  34  14  35  14  36  14
M  ISO  8  37  14  39  13  40  13  41  13  42  13  43  14  44  14  45  14
M  END
>  <minimizedAffinity>  (1) 
-5.45199728

>  <minimizedRMSD>  (1) 
1.37062407

$$$$
