
     RDKit          3D

 44 48  0  0  1  0  0  0  0  0999 V2000
   39.1550   31.4670   43.3370 C   0  0  0  0  0  0  0  0  0  0  0  0
   40.1300   30.5190   43.4800 C   0  0  0  0  0  0  0  0  0  0  0  0
   40.8490   30.1600   42.3500 C   0  0  0  0  0  0  0  0  0  0  0  0
   40.5450   30.7720   41.1600 C   0  0  0  0  0  0  0  0  0  0  0  0
   39.5590   31.7320   41.0100 C   0  0  0  0  0  0  0  0  0  0  0  0
   38.8960   32.0380   42.1410 N   0  0  0  0  0  0  0  0  0  0  0  0
   39.8290   31.9410   38.6330 C   0  0  0  0  0  0  0  0  0  0  0  0
   39.2160   32.3920   39.7770 C   0  0  0  0  0  0  0  0  0  0  0  0
   38.3210   33.4280   39.7130 C   0  0  0  0  0  0  0  0  0  0  0  0
   37.9940   34.0610   38.5140 C   0  0  0  0  0  0  0  0  0  0  0  0
   37.1760   35.0610   38.2100 N   0  0  0  0  0  0  0  0  0  0  0  0
   37.2000   35.3240   36.8790 C   0  0  0  0  0  0  0  0  0  0  0  0
   38.1090   34.4030   36.3450 C   0  0  0  0  0  0  0  0  0  0  0  0
   38.6130   33.6050   37.3640 C   0  0  0  0  0  0  0  0  0  0  0  0
   39.5000   32.5780   37.4390 C   0  0  0  0  0  0  0  0  0  0  0  0
   38.3790   31.8660   44.5250 C   0  0  0  0  0  0  0  0  0  0  0  0
   37.2650   32.4420   44.4180 O   0  0  0  0  0  0  0  0  0  0  0  0
   38.9300   31.5800   45.8300 N   0  0  0  0  0  0  0  0  0  0  0  0
   38.4300   31.1110   48.2180 C   0  0  2  0  0  0  0  0  0  0  0  0
   38.6760   32.5590   48.1170 C   0  0  0  0  0  0  0  0  0  0  0  0
   38.0470   31.7250   46.9710 C   0  0  1  0  0  0  0  0  0  0  0  0
   35.0810   30.2080   49.5470 C   0  0  0  0  0  0  0  0  0  0  0  0
   35.4160   29.5410   50.7690 C   0  0  0  0  0  0  0  0  0  0  0  0
   36.8170   29.4280   51.1060 C   0  0  0  0  0  0  0  0  0  0  0  0
   37.7400   29.9500   50.2640 N   0  0  0  0  0  0  0  0  0  0  0  0
   37.3570   30.5710   49.1200 C   0  0  0  0  0  0  0  0  0  0  0  0
   36.0390   30.7130   48.7400 N   0  0  0  0  0  0  0  0  0  0  0  0
   40.3366   30.0575   44.4569 H   0  0  0  0  0  0  0  0  0  0  0  0
   41.6445   29.4023   42.4062 H   0  0  0  0  0  0  0  0  0  0  0  0
   41.1211   30.4814   40.2691 H   0  0  0  0  0  0  0  0  0  0  0  0
   40.5501   31.1108   38.6591 H   0  0  0  0  0  0  0  0  0  0  0  0
   37.8429   33.7730   40.6416 H   0  0  0  0  0  0  0  0  0  0  0  0
   36.5989   35.5704   38.8944 H   0  0  0  0  0  0  0  0  0  0  0  0
   36.6296   36.0932   36.3377 H   0  0  0  0  0  0  0  0  0  0  0  0
   38.3820   34.3235   35.2824 H   0  0  0  0  0  0  0  0  0  0  0  0
   39.9813   32.2333   36.5119 H   0  0  0  0  0  0  0  0  0  0  0  0
   39.9102   31.2851   45.9450 H   0  0  0  0  0  0  0  0  0  0  0  0
   39.0832   30.2673   48.4856 H   0  0  0  0  0  0  0  0  0  0  0  0
   38.0640   33.2707   48.6905 H   0  0  0  0  0  0  0  0  0  0  0  0
   39.5410   33.2289   48.2312 H   0  0  0  0  0  0  0  0  0  0  0  0
   37.1198   31.7163   46.3792 H   0  0  0  0  0  0  0  0  0  0  0  0
   34.0240   30.3110   49.2603 H   0  0  0  0  0  0  0  0  0  0  0  0
   34.6361   29.1299   51.4268 H   0  0  0  0  0  0  0  0  0  0  0  0
   37.1289   28.9251   52.0333 H   0  0  0  0  0  0  0  0  0  0  0  0
  1  2  2  0
  1 16  1  0
  3  2  1  0
  4  3  2  0
  5  4  1  0
  5  6  2  0
  6  1  1  0
  7  8  2  0
  8  5  1  0
  9  8  1  0
 10  9  2  0
 11 10  1  0
 12 11  1  0
 13 12  2  0
 13 14  1  0
 14 15  2  0
 14 10  1  0
 15  7  1  0
 16 18  1  0
 17 16  2  0
 18 21  1  0
 19 26  1  0
 20 19  1  0
 21 20  1  0
 21 19  1  0
 22 23  2  0
 23 24  1  0
 25 24  2  0
 26 25  1  0
 27 26  2  0
 27 22  1  0
  2 28  1  0
  3 29  1  0
  4 30  1  0
  7 31  1  0
  9 32  1  0
 11 33  1  0
 12 34  1  0
 13 35  1  0
 15 36  1  0
 18 37  1  0
 19 38  1  6
 20 39  1  0
 20 40  1  0
 21 41  1  6
 22 42  1  0
 23 43  1  0
 24 44  1  0
M  ISO  8  28  14  29  14  30  14  31  14  32  14  33   9  34  14  35  14
M  ISO  8  36  14  38  13  39  13  40  13  41  13  42  14  43  14  44  14
M  END
>  <minimizedAffinity>  (1) 
-5.42966032

>  <minimizedRMSD>  (1) 
0.308724761

$$$$
