
     RDKit          3D

 36 38  0  0  1  0  0  0  0  0999 V2000
   38.1520   31.1720   44.8760 C   0  0  0  0  0  0  0  0  0  0  0  0
   37.1210   30.4710   45.1010 O   0  0  0  0  0  0  0  0  0  0  0  0
   38.6020   32.1350   45.8350 N   0  0  0  0  0  0  0  0  0  0  0  0
   38.9070   31.0130   43.6250 C   0  0  0  0  0  0  0  0  0  0  0  0
   40.0660   30.2840   43.6580 C   0  0  0  0  0  0  0  0  0  0  0  0
   40.7800   30.1270   42.4860 C   0  0  0  0  0  0  0  0  0  0  0  0
   40.2810   30.7170   41.3420 C   0  0  0  0  0  0  0  0  0  0  0  0
   39.1050   31.4610   41.2990 C   0  0  0  0  0  0  0  0  0  0  0  0
   38.4660   31.5700   42.4760 N   0  0  0  0  0  0  0  0  0  0  0  0
   38.6570   32.0280   40.1210 O   0  0  0  0  0  0  0  0  0  0  0  0
   37.9390   34.3080   38.9330 O   0  0  0  0  0  0  0  0  0  0  0  0
   37.9180   33.5860   40.2610 P   0  0  0  0  0  0  0  0  0  0  0  0
   36.3520   33.4610   40.8390 O   0  0  0  0  0  0  0  0  0  0  0  0
   38.9080   34.4510   41.3520 O   0  0  0  0  0  0  0  0  0  0  0  0
   38.6210   31.3540   48.1980 C   0  0  2  0  0  0  0  0  0  0  0  0
   38.8390   32.8060   48.2430 C   0  0  0  0  0  0  0  0  0  0  0  0
   37.9820   32.1120   47.1500 C   0  0  1  0  0  0  0  0  0  0  0  0
   36.0390   29.1690   49.6760 C   0  0  0  0  0  0  0  0  0  0  0  0
   36.2730   29.3260   51.0800 C   0  0  0  0  0  0  0  0  0  0  0  0
   37.3330   30.2040   51.4760 C   0  0  0  0  0  0  0  0  0  0  0  0
   38.0600   30.8400   50.5220 N   0  0  0  0  0  0  0  0  0  0  0  0
   37.7790   30.6430   49.2020 C   0  0  0  0  0  0  0  0  0  0  0  0
   36.7760   29.8140   48.7430 N   0  0  0  0  0  0  0  0  0  0  0  0
   39.3369   32.8181   45.6023 H   0  0  0  0  0  0  0  0  0  0  0  0
   40.4204   29.8336   44.5969 H   0  0  0  0  0  0  0  0  0  0  0  0
   41.7164   29.5502   42.4649 H   0  0  0  0  0  0  0  0  0  0  0  0
   40.8472   30.5916   40.4073 H   0  0  0  0  0  0  0  0  0  0  0  0
   36.3646   33.4620   41.8289 H   0  0  0  0  0  0  0  0  0  0  0  0
   38.6504   34.2259   42.2810 H   0  0  0  0  0  0  0  0  0  0  0  0
   39.3228   30.5071   48.2163 H   0  0  0  0  0  0  0  0  0  0  0  0
   38.3611   33.4184   49.0219 H   0  0  0  0  0  0  0  0  0  0  0  0
   39.7086   33.4794   48.2633 H   0  0  0  0  0  0  0  0  0  0  0  0
   36.9513   32.1574   46.7685 H   0  0  0  0  0  0  0  0  0  0  0  0
   35.2312   28.5001   49.3444 H   0  0  0  0  0  0  0  0  0  0  0  0
   35.6630   28.7936   51.8246 H   0  0  0  0  0  0  0  0  0  0  0  0
   37.5557   30.3613   52.5417 H   0  0  0  0  0  0  0  0  0  0  0  0
  1  2  2  0
  1  3  1  0
  3 17  1  0
  4  5  2  0
  4  1  1  0
  6  5  1  0
  7  6  2  0
  8  7  1  0
  8  9  2  0
  9  4  1  0
 10 12  1  0
 10  8  1  0
 11 12  2  0
 12 13  1  0
 12 14  1  0
 15 16  1  0
 15 22  1  0
 17 15  1  0
 17 16  1  0
 18 19  2  0
 19 20  1  0
 21 20  2  0
 22 21  1  0
 23 22  2  0
 23 18  1  0
  3 24  1  0
  5 25  1  0
  6 26  1  0
  7 27  1  0
 13 28  1  0
 14 29  1  0
 15 30  1  6
 16 31  1  0
 16 32  1  0
 17 33  1  6
 18 34  1  0
 19 35  1  0
 20 36  1  0
M  ISO  8  25  14  26  14  27  14  28   3  29   3  30  13  31  13  32  13
M  ISO  4  33  13  34  14  35  14  36  14
M  END
>  <minimizedAffinity>  (1) 
-5.2361455

>  <minimizedRMSD>  (1) 
1.68755245

$$$$
