
     RDKit          3D

 33 35  0  0  1  0  0  0  0  0999 V2000
   38.4010   31.8510   44.5290 C   0  0  0  0  0  0  0  0  0  0  0  0
   37.2910   32.4500   44.4180 O   0  0  0  0  0  0  0  0  0  0  0  0
   38.9350   31.5470   45.8260 N   0  0  0  0  0  0  0  0  0  0  0  0
   39.1650   31.4580   43.3370 C   0  0  0  0  0  0  0  0  0  0  0  0
   40.1660   30.5370   43.4890 C   0  0  0  0  0  0  0  0  0  0  0  0
   40.8860   30.1590   42.3650 C   0  0  0  0  0  0  0  0  0  0  0  0
   40.5570   30.7300   41.1670 C   0  0  0  0  0  0  0  0  0  0  0  0
   39.5470   31.6600   41.0080 C   0  0  0  0  0  0  0  0  0  0  0  0
   38.8980   31.9750   42.1320 N   0  0  0  0  0  0  0  0  0  0  0  0
   39.1680   32.2900   39.7400 C   0  0  0  0  0  0  0  0  0  0  0  0
   40.1460   32.2080   38.7800 F   0  0  0  0  0  0  0  0  0  0  0  0
   37.9530   31.8060   39.2710 F   0  0  0  0  0  0  0  0  0  0  0  0
   38.9600   33.6350   40.0080 F   0  0  0  0  0  0  0  0  0  0  0  0
   38.4330   31.1170   48.2210 C   0  0  2  0  0  0  0  0  0  0  0  0
   38.6930   32.5600   48.1100 C   0  0  0  0  0  0  0  0  0  0  0  0
   38.0540   31.7280   46.9690 C   0  0  1  0  0  0  0  0  0  0  0  0
   35.0890   30.2160   49.5390 C   0  0  0  0  0  0  0  0  0  0  0  0
   35.4180   29.5450   50.7610 C   0  0  0  0  0  0  0  0  0  0  0  0
   36.8190   29.4300   51.1020 C   0  0  0  0  0  0  0  0  0  0  0  0
   37.7510   29.9540   50.2630 N   0  0  0  0  0  0  0  0  0  0  0  0
   37.3510   30.5800   49.1130 C   0  0  0  0  0  0  0  0  0  0  0  0
   36.0360   30.7300   48.7200 N   0  0  0  0  0  0  0  0  0  0  0  0
   39.9027   31.2142   45.9426 H   0  0  0  0  0  0  0  0  0  0  0  0
   40.3935   30.1080   44.4760 H   0  0  0  0  0  0  0  0  0  0  0  0
   41.6985   29.4209   42.4356 H   0  0  0  0  0  0  0  0  0  0  0  0
   41.1302   30.4315   40.2769 H   0  0  0  0  0  0  0  0  0  0  0  0
   39.0820   30.2743   48.5016 H   0  0  0  0  0  0  0  0  0  0  0  0
   38.0892   33.2813   48.6802 H   0  0  0  0  0  0  0  0  0  0  0  0
   39.5654   33.2211   48.2191 H   0  0  0  0  0  0  0  0  0  0  0  0
   37.1268   31.7359   46.3771 H   0  0  0  0  0  0  0  0  0  0  0  0
   34.0307   30.3170   49.2566 H   0  0  0  0  0  0  0  0  0  0  0  0
   34.6353   29.1330   51.4150 H   0  0  0  0  0  0  0  0  0  0  0  0
   37.1264   28.9245   52.0293 H   0  0  0  0  0  0  0  0  0  0  0  0
  1  3  1  0
  2  1  2  0
  3 16  1  0
  4  5  2  0
  4  1  1  0
  6  5  1  0
  7  6  2  0
  8  7  1  0
  8  9  2  0
  9  4  1  0
 10 13  1  0
 10  8  1  0
 11 10  1  0
 12 10  1  0
 14 21  1  0
 15 14  1  0
 16 15  1  0
 16 14  1  0
 17 18  2  0
 18 19  1  0
 20 19  2  0
 21 20  1  0
 22 21  2  0
 22 17  1  0
  3 23  1  0
  5 24  1  0
  6 25  1  0
  7 26  1  0
 14 27  1  6
 15 28  1  0
 15 29  1  0
 16 30  1  6
 17 31  1  0
 18 32  1  0
 19 33  1  0
M  ISO  8  24  14  25  14  26  14  27  13  28  13  29  13  30  13  31  14
M  ISO  2  32  14  33  14
M  END
>  <minimizedAffinity>  (1) 
-5.13284206

>  <minimizedRMSD>  (1) 
0.0917745754

$$$$
