
     RDKit          3D

 38 41  0  0  1  0  0  0  0  0999 V2000
   37.9590   31.5620   45.0710 C   0  0  0  0  0  0  0  0  0  0  0  0
   36.9490   30.8690   45.2640 O   0  0  0  0  0  0  0  0  0  0  0  0
   38.4550   32.4660   46.1020 N   0  0  0  0  0  0  0  0  0  0  0  0
   38.7160   31.5170   43.7930 C   0  0  0  0  0  0  0  0  0  0  0  0
   39.7760   30.6590   43.6830 C   0  0  0  0  0  0  0  0  0  0  0  0
   40.4590   30.6470   42.4760 C   0  0  0  0  0  0  0  0  0  0  0  0
   40.0230   31.4960   41.4750 C   0  0  0  0  0  0  0  0  0  0  0  0
   38.9510   32.3600   41.5930 C   0  0  0  0  0  0  0  0  0  0  0  0
   38.3120   32.3410   42.7890 N   0  0  0  0  0  0  0  0  0  0  0  0
   38.5380   33.2230   40.5000 C   0  0  0  0  0  0  0  0  0  0  0  0
   38.0140   34.3330   40.7560 O   0  0  0  0  0  0  0  0  0  0  0  0
   38.7310   32.8080   39.1140 C   0  0  0  0  0  0  0  0  0  0  0  0
   39.6340   33.3090   38.2560 N   0  0  0  0  0  0  0  0  0  0  0  0
   39.5130   32.6710   37.0550 C   0  0  0  0  0  0  0  0  0  0  0  0
   38.5090   31.7650   37.2050 N   0  0  0  0  0  0  0  0  0  0  0  0
   38.0410   31.8570   38.4600 N   0  0  0  0  0  0  0  0  0  0  0  0
   38.5560   31.4230   48.3570 C   0  0  2  0  0  0  0  0  0  0  0  0
   38.8360   32.8710   48.5410 C   0  0  0  0  0  0  0  0  0  0  0  0
   37.9230   32.3060   47.4320 C   0  0  1  0  0  0  0  0  0  0  0  0
   35.9320   29.2370   49.8290 C   0  0  0  0  0  0  0  0  0  0  0  0
   36.2280   29.3180   51.2150 C   0  0  0  0  0  0  0  0  0  0  0  0
   37.3400   30.1460   51.6280 C   0  0  0  0  0  0  0  0  0  0  0  0
   38.0660   30.8200   50.6770 N   0  0  0  0  0  0  0  0  0  0  0  0
   37.7110   30.6840   49.3720 C   0  0  0  0  0  0  0  0  0  0  0  0
   36.6570   29.9070   48.9070 N   0  0  0  0  0  0  0  0  0  0  0  0
   39.1567   33.1892   45.8886 H   0  0  0  0  0  0  0  0  0  0  0  0
   40.0740   30.0062   44.5167 H   0  0  0  0  0  0  0  0  0  0  0  0
   41.3214   29.9823   42.3195 H   0  0  0  0  0  0  0  0  0  0  0  0
   40.5671   31.4826   40.5191 H   0  0  0  0  0  0  0  0  0  0  0  0
   40.1080   32.8530   36.1479 H   0  0  0  0  0  0  0  0  0  0  0  0
   38.1665   31.1189   36.4796 H   0  0  0  0  0  0  0  0  0  0  0  0
   39.2046   30.5422   48.2404 H   0  0  0  0  0  0  0  0  0  0  0  0
   38.4087   33.4205   49.3927 H   0  0  0  0  0  0  0  0  0  0  0  0
   39.7279   33.5128   48.5929 H   0  0  0  0  0  0  0  0  0  0  0  0
   36.8790   32.4114   47.1019 H   0  0  0  0  0  0  0  0  0  0  0  0
   35.0899   28.6120   49.4970 H   0  0  0  0  0  0  0  0  0  0  0  0
   35.6285   28.7666   51.9543 H   0  0  0  0  0  0  0  0  0  0  0  0
   37.6013   30.2348   52.6928 H   0  0  0  0  0  0  0  0  0  0  0  0
  1  2  2  0
  1  3  1  0
  3 19  1  0
  4  1  1  0
  5  4  2  0
  6  5  1  0
  7  8  1  0
  7  6  2  0
  8  9  2  0
  9  4  1  0
 10 11  2  0
 10  8  1  0
 12 10  1  0
 13 12  1  0
 14 15  1  0
 14 13  2  0
 15 16  1  0
 16 12  2  0
 17 18  1  0
 17 24  1  0
 19 17  1  0
 19 18  1  0
 20 21  2  0
 21 22  1  0
 23 22  2  0
 24 23  1  0
 25 24  2  0
 25 20  1  0
  3 26  1  0
  5 27  1  0
  6 28  1  0
  7 29  1  0
 14 30  1  0
 15 31  1  0
 17 32  1  6
 18 33  1  0
 18 34  1  0
 19 35  1  6
 20 36  1  0
 21 37  1  0
 22 38  1  0
M  ISO  8  27  14  28  14  29  14  30  14  31   9  32  13  33  13  34  13
M  ISO  4  35  13  36  14  37  14  38  14
M  END
>  <minimizedAffinity>  (1) 
-5.39456701

>  <minimizedRMSD>  (1) 
1.25799966

$$$$
