
     RDKit          3D

 23 24  0  0  0  0  0  0  0  0999 V2000
   38.8140   31.0310   49.7280 Cl  0  0  0  0  0  0  0  0  0  0  0  0
   37.4080   30.5430   48.8410 C   0  0  0  0  0  0  0  0  0  0  0  0
   37.3410   30.7670   47.4830 C   0  0  0  0  0  0  0  0  0  0  0  0
   36.2430   30.4000   46.7380 C   0  0  0  0  0  0  0  0  0  0  0  0
   35.1610   29.7870   47.3410 C   0  0  0  0  0  0  0  0  0  0  0  0
   35.2000   29.5460   48.7140 C   0  0  0  0  0  0  0  0  0  0  0  0
   33.8960   28.7780   49.6000 Cl  0  0  0  0  0  0  0  0  0  0  0  0
   36.3180   29.9310   49.4110 C   0  0  0  0  0  0  0  0  0  0  0  0
   39.7730   33.2820   46.3710 C   0  0  0  0  0  0  0  0  0  0  0  0
   40.6090   32.5550   45.5240 C   0  0  0  0  0  0  0  0  0  0  0  0
   40.3240   31.1750   45.3380 C   0  0  0  0  0  0  0  0  0  0  0  0
   39.2570   30.6540   45.9950 N   0  0  0  0  0  0  0  0  0  0  0  0
   38.4690   31.4140   46.8150 C   0  0  0  0  0  0  0  0  0  0  0  0
   38.7340   32.7150   46.9930 N   0  0  0  0  0  0  0  0  0  0  0  0
   36.3890   29.6860   50.8900 C   0  0  0  0  0  0  0  0  0  0  0  0
   35.1940   29.2040   51.3790 F   0  0  0  0  0  0  0  0  0  0  0  0
   37.3090   28.6500   51.0790 F   0  0  0  0  0  0  0  0  0  0  0  0
   36.8660   30.7770   51.5520 F   0  0  0  0  0  0  0  0  0  0  0  0
   36.2268   30.5959   45.6557 H   0  0  0  0  0  0  0  0  0  0  0  0
   34.2827   29.4938   46.7472 H   0  0  0  0  0  0  0  0  0  0  0  0
   39.9739   34.3515   46.5318 H   0  0  0  0  0  0  0  0  0  0  0  0
   41.4600   33.0333   45.0171 H   0  0  0  0  0  0  0  0  0  0  0  0
   40.9481   30.5496   44.6827 H   0  0  0  0  0  0  0  0  0  0  0  0
  2  8  2  0
  2  1  1  0
  3  2  1  0
  4  5  1  0
  4  3  2  0
  5  6  2  0
  6  8  1  0
  6  7  1  0
  8 15  1  0
  9 14  2  0
 10  9  1  0
 11 10  2  0
 11 12  1  0
 12 13  2  0
 13 14  1  0
 13  3  1  0
 15 17  1  0
 15 16  1  0
 15 18  1  0
  4 19  1  0
  5 20  1  0
  9 21  1  0
 10 22  1  0
 11 23  1  0
M  ISO  5  19  14  20  14  21  14  22  14  23  14
M  END
>  <minimizedAffinity>  (1) 
-6.16446447

>  <minimizedRMSD>  (1) 
2.66320968

$$$$
