
     RDKit          3D

 22 23  0  0  0  0  0  0  0  0999 V2000
   38.8850   32.5210   48.8080 Cl  0  0  0  0  0  0  0  0  0  0  0  0
   37.5480   31.5460   48.3090 C   0  0  0  0  0  0  0  0  0  0  0  0
   37.4460   31.1520   46.9880 C   0  0  0  0  0  0  0  0  0  0  0  0
   36.4040   30.3800   46.5490 C   0  0  0  0  0  0  0  0  0  0  0  0
   35.4090   29.9640   47.4180 C   0  0  0  0  0  0  0  0  0  0  0  0
   35.4800   30.3430   48.7540 C   0  0  0  0  0  0  0  0  0  0  0  0
   34.3000   29.8970   49.9690 Cl  0  0  0  0  0  0  0  0  0  0  0  0
   36.5590   31.1290   49.1550 C   0  0  0  0  0  0  0  0  0  0  0  0
   39.1740   32.9280   44.2850 C   0  0  0  0  0  0  0  0  0  0  0  0
   40.4420   32.3110   44.2540 C   0  0  0  0  0  0  0  0  0  0  0  0
   40.6640   31.2820   45.1830 C   0  0  0  0  0  0  0  0  0  0  0  0
   39.6690   30.9490   46.0380 N   0  0  0  0  0  0  0  0  0  0  0  0
   38.4680   31.5650   46.0380 C   0  0  0  0  0  0  0  0  0  0  0  0
   38.2350   32.5520   45.1570 N   0  0  0  0  0  0  0  0  0  0  0  0
   36.7060   31.5710   50.5520 C   0  0  0  0  0  0  0  0  0  0  0  0
   37.3710   30.5930   51.0360 O   0  0  0  0  0  0  0  0  0  0  0  0
   36.3563   30.0857   45.4902 H   0  0  0  0  0  0  0  0  0  0  0  0
   34.5756   29.3435   47.0569 H   0  0  0  0  0  0  0  0  0  0  0  0
   38.9534   33.7380   43.5742 H   0  0  0  0  0  0  0  0  0  0  0  0
   41.2178   32.6204   43.5381 H   0  0  0  0  0  0  0  0  0  0  0  0
   41.6294   30.7558   45.2154 H   0  0  0  0  0  0  0  0  0  0  0  0
   36.3444   32.4871   51.0420 H   0  0  0  0  0  0  0  0  0  0  0  0
  2  1  1  0
  2  8  2  0
  3  2  1  0
  4  3  2  0
  4  5  1  0
  5  6  2  0
  6  8  1  0
  6  7  1  0
  8 15  1  0
  9 14  2  0
 10  9  1  0
 10 11  2  0
 11 12  1  0
 12 13  2  0
 13  3  1  0
 14 13  1  0
 15 16  2  0
  4 17  1  0
  5 18  1  0
  9 19  1  0
 10 20  1  0
 11 21  1  0
 15 22  1  0
M  ISO  6  17  14  18  14  19  14  20  14  21  14  22   6
M  END
>  <minimizedAffinity>  (1) 
-5.40584564

>  <minimizedRMSD>  (1) 
3.65045452

$$$$
