
     RDKit          3D

 23 24  0  0  0  0  0  0  0  0999 V2000
   38.4670   30.8000   49.8540 Cl  0  0  0  0  0  0  0  0  0  0  0  0
   37.0880   30.3550   48.8850 C   0  0  0  0  0  0  0  0  0  0  0  0
   37.0920   30.6290   47.5320 C   0  0  0  0  0  0  0  0  0  0  0  0
   36.0330   30.2990   46.7320 C   0  0  0  0  0  0  0  0  0  0  0  0
   34.9220   29.6770   47.2610 C   0  0  0  0  0  0  0  0  0  0  0  0
   34.8820   29.3890   48.6110 C   0  0  0  0  0  0  0  0  0  0  0  0
   33.5350   28.6040   49.4100 Cl  0  0  0  0  0  0  0  0  0  0  0  0
   35.9770   29.7400   49.3830 C   0  0  0  0  0  0  0  0  0  0  0  0
   39.6000   33.1630   46.6440 C   0  0  0  0  0  0  0  0  0  0  0  0
   40.4640   32.4720   45.7970 C   0  0  0  0  0  0  0  0  0  0  0  0
   40.1700   31.1110   45.5320 C   0  0  0  0  0  0  0  0  0  0  0  0
   39.0690   30.5810   46.1240 N   0  0  0  0  0  0  0  0  0  0  0  0
   38.2500   31.2840   46.9440 C   0  0  0  0  0  0  0  0  0  0  0  0
   38.5390   32.5680   47.1850 N   0  0  0  0  0  0  0  0  0  0  0  0
   35.9610   29.4380   50.8580 C   0  0  0  0  0  0  0  0  0  0  0  0
   36.0679   30.5318   45.6575 H   0  0  0  0  0  0  0  0  0  0  0  0
   34.0738   29.4122   46.6125 H   0  0  0  0  0  0  0  0  0  0  0  0
   39.7985   34.2210   46.8702 H   0  0  0  0  0  0  0  0  0  0  0  0
   41.3409   32.9640   45.3509 H   0  0  0  0  0  0  0  0  0  0  0  0
   40.8096   30.5070   44.8717 H   0  0  0  0  0  0  0  0  0  0  0  0
   36.0109   30.3790   51.4255 H   0  0  0  0  0  0  0  0  0  0  0  0
   35.0333   28.9047   51.1130 H   0  0  0  0  0  0  0  0  0  0  0  0
   36.8271   28.8097   51.1130 H   0  0  0  0  0  0  0  0  0  0  0  0
  2  8  2  0
  2  1  1  0
  3  2  1  0
  4  5  1  0
  4  3  2  0
  5  6  2  0
  6  8  1  0
  6  7  1  0
  8 15  1  0
  9 14  2  0
 10  9  1  0
 11 10  2  0
 11 12  1  0
 12 13  2  0
 13 14  1  0
 13  3  1  0
  4 16  1  0
  5 17  1  0
  9 18  1  0
 10 19  1  0
 11 20  1  0
 15 21  1  0
 15 22  1  0
 15 23  1  0
M  ISO  8  16  14  17  14  18  14  19  14  20  14  21   8  22   8  23   8
M  END
>  <minimizedAffinity>  (1) 
-5.42950916

>  <minimizedRMSD>  (1) 
2.19572902

$$$$
