
     RDKit          3D

 25 26  0  0  0  0  0  0  0  0999 V2000
   38.9880   31.5800   49.7890 Cl  0  0  0  0  0  0  0  0  0  0  0  0
   37.5810   30.9170   48.9940 C   0  0  0  0  0  0  0  0  0  0  0  0
   37.5200   30.9310   47.6060 C   0  0  0  0  0  0  0  0  0  0  0  0
   36.4450   30.4260   46.9500 C   0  0  0  0  0  0  0  0  0  0  0  0
   35.3810   29.8860   47.6340 C   0  0  0  0  0  0  0  0  0  0  0  0
   35.4060   29.8540   49.0040 C   0  0  0  0  0  0  0  0  0  0  0  0
   34.1260   29.1990   50.0090 Cl  0  0  0  0  0  0  0  0  0  0  0  0
   36.5260   30.3810   49.6520 C   0  0  0  0  0  0  0  0  0  0  0  0
   39.9340   33.3300   46.2230 C   0  0  0  0  0  0  0  0  0  0  0  0
   40.7160   32.5400   45.3940 C   0  0  0  0  0  0  0  0  0  0  0  0
   40.4060   31.1550   45.3110 C   0  0  0  0  0  0  0  0  0  0  0  0
   39.3650   30.7120   46.0530 N   0  0  0  0  0  0  0  0  0  0  0  0
   38.6210   31.4970   46.8500 C   0  0  0  0  0  0  0  0  0  0  0  0
   38.9280   32.8100   46.9190 N   0  0  0  0  0  0  0  0  0  0  0  0
   36.5720   30.3560   51.1470 C   0  0  0  0  0  0  0  0  0  0  0  0
   37.4620   29.3260   51.5690 N   0  0  0  0  0  0  0  0  0  0  0  0
   36.4241   30.4489   45.8504 H   0  0  0  0  0  0  0  0  0  0  0  0
   34.5167   29.4829   47.0858 H   0  0  0  0  0  0  0  0  0  0  0  0
   40.1499   34.4054   46.3061 H   0  0  0  0  0  0  0  0  0  0  0  0
   41.5491   32.9709   44.8193 H   0  0  0  0  0  0  0  0  0  0  0  0
   40.9868   30.4737   44.6718 H   0  0  0  0  0  0  0  0  0  0  0  0
   36.9287   31.3271   51.5208 H   0  0  0  0  0  0  0  0  0  0  0  0
   35.5652   30.1621   51.5456 H   0  0  0  0  0  0  0  0  0  0  0  0
   37.4884   29.2954   52.5982 H   0  0  0  0  0  0  0  0  0  0  0  0
   37.1341   28.4192   51.2069 H   0  0  0  0  0  0  0  0  0  0  0  0
  2  8  2  0
  2  1  1  0
  3  2  1  0
  4  3  2  0
  4  5  1  0
  5  6  2  0
  6  8  1  0
  6  7  1  0
  8 15  1  0
  9 14  2  0
 10  9  1  0
 11 10  2  0
 11 12  1  0
 12 13  2  0
 13 14  1  0
 13  3  1  0
 15 16  1  0
  4 17  1  0
  5 18  1  0
  9 19  1  0
 10 20  1  0
 11 21  1  0
 15 22  1  0
 15 23  1  0
 16 24  1  0
 16 25  1  0
M  ISO  8  17  14  18  14  19  14  20  14  21  14  22   8  23   8  24   5
M  ISO  1  25   5
M  END
>  <minimizedAffinity>  (1) 
-5.24496412

>  <minimizedRMSD>  (1) 
0.756228507

$$$$
