
     RDKit          3D

 31 32  0  0  0  0  0  0  0  0999 V2000
   37.6550   31.6200   47.1440 Cl  0  0  0  0  0  0  0  0  0  0  0  0
   36.4770   30.6380   46.3070 C   0  0  0  0  0  0  0  0  0  0  0  0
   36.6310   30.3920   44.9520 C   0  0  0  0  0  0  0  0  0  0  0  0
   35.7310   29.6290   44.2620 C   0  0  0  0  0  0  0  0  0  0  0  0
   34.6350   29.0790   44.8940 C   0  0  0  0  0  0  0  0  0  0  0  0
   34.4460   29.3040   46.2510 C   0  0  0  0  0  0  0  0  0  0  0  0
   33.1100   28.6810   47.1860 Cl  0  0  0  0  0  0  0  0  0  0  0  0
   35.3860   30.0840   46.9120 C   0  0  0  0  0  0  0  0  0  0  0  0
   38.7750   32.6910   43.0700 C   0  0  0  0  0  0  0  0  0  0  0  0
   39.9710   31.9880   42.9460 C   0  0  0  0  0  0  0  0  0  0  0  0
   40.0270   30.6900   43.5300 C   0  0  0  0  0  0  0  0  0  0  0  0
   38.9180   30.2290   44.1640 N   0  0  0  0  0  0  0  0  0  0  0  0
   37.7700   30.9570   44.2580 C   0  0  0  0  0  0  0  0  0  0  0  0
   37.7200   32.1800   43.7060 N   0  0  0  0  0  0  0  0  0  0  0  0
   35.2110   30.3430   48.3870 C   0  0  0  0  0  0  0  0  0  0  0  0
   36.0160   29.4230   49.1530 N   0  0  0  0  0  0  0  0  0  0  0  0
   36.9920   30.1890   50.3310 S   0  0  0  0  0  0  0  0  0  0  0  0
   36.7040   31.6580   50.4320 O   0  0  0  0  0  0  0  0  0  0  0  0
   36.5630   29.6040   51.6710 O   0  0  0  0  0  0  0  0  0  0  0  0
   38.6100   29.9230   50.1950 O   0  0  0  0  0  0  0  0  0  0  0  0
   35.8828   29.4509   43.1872 H   0  0  0  0  0  0  0  0  0  0  0  0
   33.9171   28.4675   44.3278 H   0  0  0  0  0  0  0  0  0  0  0  0
   38.6984   33.6966   42.6307 H   0  0  0  0  0  0  0  0  0  0  0  0
   40.8360   32.4172   42.4192 H   0  0  0  0  0  0  0  0  0  0  0  0
   40.9403   30.0799   43.4693 H   0  0  0  0  0  0  0  0  0  0  0  0
   35.5212   31.3736   48.6143 H   0  0  0  0  0  0  0  0  0  0  0  0
   34.1531   30.2020   48.6533 H   0  0  0  0  0  0  0  0  0  0  0  0
   35.3887   28.7600   49.6302 H   0  0  0  0  0  0  0  0  0  0  0  0
   36.6527   31.9194   51.3855 H   0  0  0  0  0  0  0  0  0  0  0  0
   36.9555   30.1392   52.4056 H   0  0  0  0  0  0  0  0  0  0  0  0
   39.0106   29.8571   51.0979 H   0  0  0  0  0  0  0  0  0  0  0  0
  2  8  2  0
  2  1  1  0
  3  2  1  0
  4  5  1  0
  4  3  2  0
  5  6  2  0
  6  8  1  0
  6  7  1  0
  8 15  1  0
  9 14  2  0
 10  9  1  0
 10 11  2  0
 11 12  1  0
 12 13  2  0
 13  3  1  0
 14 13  1  0
 15 16  1  0
 16 17  1  0
 17 18  1  0
 17 19  1  0
 20 17  1  0
  4 21  1  0
  5 22  1  0
  9 23  1  0
 10 24  1  0
 11 25  1  0
 15 26  1  0
 15 27  1  0
 16 28  1  0
 18 29  1  0
 19 30  1  0
 20 31  1  0
M  ISO  8  21  14  22  14  23  14  24  14  25  14  26   8  27   8  28   5
M  ISO  3  29   3  30   3  31   3
M  END
>  <minimizedAffinity>  (1) 
-4.98921585

>  <minimizedRMSD>  (1) 
2.74175978

$$$$
