
     RDKit          3D

 29 30  0  0  0  0  0  0  0  0999 V2000
   32.8370   29.7900   46.2620 O   0  0  0  0  0  0  0  0  0  0  0  0
   31.7860   28.8670   46.4260 C   0  0  0  0  0  0  0  0  0  0  0  0
   31.0040   28.2310   45.4820 C   0  0  0  0  0  0  0  0  0  0  0  0
   30.1360   27.4460   46.1090 N   0  0  0  0  0  0  0  0  0  0  0  0
   30.3300   27.5500   47.4470 C   0  0  0  0  0  0  0  0  0  0  0  0
   31.3440   28.4250   47.6260 N   0  0  0  0  0  0  0  0  0  0  0  0
   29.6540   26.9120   48.4790 O   0  0  0  0  0  0  0  0  0  0  0  0
   28.0220   28.6890   49.6540 O   0  0  0  0  0  0  0  0  0  0  0  0
   29.2100   27.7650   49.9130 P   0  0  0  0  0  0  0  0  0  0  0  0
   30.5480   28.7180   50.3360 O   0  0  0  0  0  0  0  0  0  0  0  0
   28.7580   26.7170   51.1340 O   0  0  0  0  0  0  0  0  0  0  0  0
   35.4170   29.8200   46.1790 O   0  0  0  0  0  0  0  0  0  0  0  0
   34.2720   29.4740   47.1140 P   0  0  2  0  0  0  0  0  0  0  0  0
   34.3440   27.8410   47.5840 O   0  0  0  0  0  0  0  0  0  0  0  0
   34.3090   30.4050   48.5400 O   0  0  0  0  0  0  0  0  0  0  0  0
   35.3460   30.3300   49.4540 C   0  0  0  0  0  0  0  0  0  0  0  0
   35.4540   29.4160   50.5120 C   0  0  0  0  0  0  0  0  0  0  0  0
   36.5810   29.5180   51.3140 C   0  0  0  0  0  0  0  0  0  0  0  0
   37.5200   30.4510   51.0760 N   0  0  0  0  0  0  0  0  0  0  0  0
   37.3800   31.3300   50.0280 C   0  0  0  0  0  0  0  0  0  0  0  0
   36.2900   31.2690   49.2160 N   0  0  0  0  0  0  0  0  0  0  0  0
   31.0865   28.3543   44.3920 H   0  0  0  0  0  0  0  0  0  0  0  0
   29.4285   26.8530   45.6522 H   0  0  0  0  0  0  0  0  0  0  0  0
   30.6187   28.7684   51.3222 H   0  0  0  0  0  0  0  0  0  0  0  0
   28.9388   27.1362   52.0125 H   0  0  0  0  0  0  0  0  0  0  0  0
   34.3466   27.7818   48.5722 H   0  0  0  0  0  0  0  0  0  0  0  0
   34.6819   28.6546   50.6970 H   0  0  0  0  0  0  0  0  0  0  0  0
   36.7089   28.8246   52.1583 H   0  0  0  0  0  0  0  0  0  0  0  0
   38.1553   32.0885   49.8446 H   0  0  0  0  0  0  0  0  0  0  0  0
  1  2  1  0
  1 13  1  0
  2  6  1  0
  3  4  1  0
  3  2  2  0
  4  5  1  0
  5  6  2  0
  5  7  1  0
  7  9  1  0
  8  9  2  0
  9 10  1  0
  9 11  1  0
 13 12  2  0
 13 14  1  0
 13 15  1  0
 15 16  1  0
 16 17  2  0
 17 18  1  0
 19 18  2  0
 20 19  1  0
 21 16  1  0
 21 20  2  0
  3 22  1  0
  4 23  1  0
 10 24  1  0
 11 25  1  0
 14 26  1  0
 17 27  1  0
 18 28  1  0
 20 29  1  0
M  ISO  8  22  14  23   9  24   3  25   3  26   3  27  14  28  14  29  14
M  END
>  <minimizedAffinity>  (1) 
-4.85440731

>  <minimizedRMSD>  (1) 
1.22520339

$$$$
