
     RDKit          3D

 27 28  0  0  0  0  0  0  0  0999 V2000
   33.2810   27.2940   47.9830 C   0  0  0  0  0  0  0  0  0  0  0  0
   33.7050   26.2150   47.0440 C   0  0  0  0  0  0  0  0  0  0  0  0
   33.9200   24.8930   47.3700 C   0  0  0  0  0  0  0  0  0  0  0  0
   34.3110   23.9850   46.4090 C   0  0  0  0  0  0  0  0  0  0  0  0
   34.5020   24.3740   45.0800 C   0  0  0  0  0  0  0  0  0  0  0  0
   34.2930   25.6880   44.7390 C   0  0  0  0  0  0  0  0  0  0  0  0
   33.8990   26.5920   45.7100 C   0  0  0  0  0  0  0  0  0  0  0  0
   34.6940   28.3820   49.7530 C   0  0  0  0  0  0  0  0  0  0  0  0
   34.3880   28.0740   48.5350 C   0  0  0  0  0  0  0  0  0  0  0  0
   37.3740   30.2390   51.4280 C   0  0  0  0  0  0  0  0  0  0  0  0
   38.1190   30.7060   50.3110 C   0  0  0  0  0  0  0  0  0  0  0  0
   37.6750   30.3660   49.0050 C   0  0  0  0  0  0  0  0  0  0  0  0
   36.5440   29.6020   48.9230 N   0  0  0  0  0  0  0  0  0  0  0  0
   35.8740   29.1850   50.0020 C   0  0  0  0  0  0  0  0  0  0  0  0
   36.2860   29.5000   51.2370 N   0  0  0  0  0  0  0  0  0  0  0  0
   32.7349   26.8305   48.8178 H   0  0  0  0  0  0  0  0  0  0  0  0
   32.6588   27.9922   47.4038 H   0  0  0  0  0  0  0  0  0  0  0  0
   33.7780   24.5588   48.4083 H   0  0  0  0  0  0  0  0  0  0  0  0
   34.4757   22.9352   46.6933 H   0  0  0  0  0  0  0  0  0  0  0  0
   34.8140   23.6412   44.3212 H   0  0  0  0  0  0  0  0  0  0  0  0
   34.4379   26.0198   43.7003 H   0  0  0  0  0  0  0  0  0  0  0  0
   33.7329   27.6411   45.4241 H   0  0  0  0  0  0  0  0  0  0  0  0
   34.0668   28.0389   50.5890 H   0  0  0  0  0  0  0  0  0  0  0  0
   35.0839   28.4688   47.7801 H   0  0  0  0  0  0  0  0  0  0  0  0
   37.6976   30.4890   52.4492 H   0  0  0  0  0  0  0  0  0  0  0  0
   39.0213   31.3184   50.4550 H   0  0  0  0  0  0  0  0  0  0  0  0
   38.2135   30.7002   48.1059 H   0  0  0  0  0  0  0  0  0  0  0  0
  1  9  1  0
  2  3  2  0
  2  1  1  0
  4  3  1  0
  5  4  2  0
  6  5  1  0
  6  7  2  0
  7  2  1  0
  8 14  1  0
  9  8  2  0
 11 10  2  0
 12 11  1  0
 13 12  2  0
 13 14  1  0
 14 15  2  0
 15 10  1  0
  1 16  1  0
  1 17  1  0
  3 18  1  0
  4 19  1  0
  5 20  1  0
  6 21  1  0
  7 22  1  0
  8 23  1  0
  9 24  1  0
 10 25  1  0
 11 26  1  0
 12 27  1  0
M  ISO  8  16   8  17   8  18  14  19  14  20  14  21  14  22  14  25  14
M  ISO  2  26  14  27  14
M  END
>  <minimizedAffinity>  (1) 
-4.6130352

>  <minimizedRMSD>  (1) 
0.75401181

$$$$
