
     RDKit          3D

 30 32  0  0  0  0  0  0  0  0999 V2000
   35.5890   29.9320   46.2080 O   0  0  0  0  0  0  0  0  0  0  0  0
   34.3450   29.6730   47.0260 P   0  0  1  0  0  0  0  0  0  0  0  0
   34.1940   28.0310   47.4310 O   0  0  0  0  0  0  0  0  0  0  0  0
   34.3530   30.5410   48.5050 O   0  0  0  0  0  0  0  0  0  0  0  0
   35.3850   30.4100   49.4300 C   0  0  0  0  0  0  0  0  0  0  0  0
   35.4610   29.4650   50.4510 C   0  0  0  0  0  0  0  0  0  0  0  0
   36.5660   29.4840   51.2790 C   0  0  0  0  0  0  0  0  0  0  0  0
   37.5350   30.4100   51.0810 N   0  0  0  0  0  0  0  0  0  0  0  0
   37.4310   31.3240   50.0710 C   0  0  0  0  0  0  0  0  0  0  0  0
   36.3550   31.3270   49.2410 N   0  0  0  0  0  0  0  0  0  0  0  0
   33.0240   30.1830   46.0800 O   0  0  0  0  0  0  0  0  0  0  0  0
   31.8990   29.3570   46.0970 C   0  0  0  0  0  0  0  0  0  0  0  0
   31.2600   28.7050   45.0630 C   0  0  0  0  0  0  0  0  0  0  0  0
   30.2190   28.0170   45.5340 N   0  0  0  0  0  0  0  0  0  0  0  0
   30.1660   28.2070   46.8530 C   0  0  0  0  0  0  0  0  0  0  0  0
   31.1860   29.0190   47.1920 N   0  0  0  0  0  0  0  0  0  0  0  0
   29.1970   27.6450   47.7460 C   0  0  0  0  0  0  0  0  0  0  0  0
   28.0250   27.0440   47.5160 C   0  0  0  0  0  0  0  0  0  0  0  0
   27.2470   26.5760   48.5390 C   0  0  0  0  0  0  0  0  0  0  0  0
   27.8330   26.8070   49.8740 C   0  0  0  0  0  0  0  0  0  0  0  0
   29.3760   27.6370   49.5200 S   0  0  0  0  0  0  0  0  0  0  0  0
   34.1850   27.9336   48.4162 H   0  0  0  0  0  0  0  0  0  0  0  0
   34.6616   28.7230   50.5938 H   0  0  0  0  0  0  0  0  0  0  0  0
   36.6589   28.7516   52.0945 H   0  0  0  0  0  0  0  0  0  0  0  0
   38.2289   32.0675   49.9277 H   0  0  0  0  0  0  0  0  0  0  0  0
   31.5639   28.7463   44.0066 H   0  0  0  0  0  0  0  0  0  0  0  0
   29.5710   27.4411   44.9778 H   0  0  0  0  0  0  0  0  0  0  0  0
   27.6781   26.9230   46.4792 H   0  0  0  0  0  0  0  0  0  0  0  0
   26.2796   26.0765   48.3823 H   0  0  0  0  0  0  0  0  0  0  0  0
   27.4180   26.5330   50.8552 H   0  0  0  0  0  0  0  0  0  0  0  0
  2  1  2  0
  2  3  1  0
  2  4  1  0
  4  5  1  0
  5  6  2  0
  6  7  1  0
  8  7  2  0
  9  8  1  0
 10  5  1  0
 10  9  2  0
 11 12  1  0
 11  2  1  0
 12 16  1  0
 13 14  1  0
 13 12  2  0
 14 15  1  0
 15 16  2  0
 15 17  1  0
 17 21  1  0
 18 17  2  0
 18 19  1  0
 19 20  2  0
 21 20  1  0
  3 22  1  0
  6 23  1  0
  7 24  1  0
  9 25  1  0
 13 26  1  0
 14 27  1  0
 18 28  1  0
 19 29  1  0
 20 30  1  0
M  ISO  8  22   3  23  14  24  14  25  14  26  14  27   9  28  14  29  14
M  ISO  1  30  14
M  END
>  <minimizedAffinity>  (1) 
-4.58133745

>  <minimizedRMSD>  (1) 
1.11055672

$$$$
