
     RDKit          3D

 42 44  0  0  0  0  0  0  0  0999 V2000
   36.9060   29.4710   49.3120 C   0  0  0  0  0  0  0  0  0  0  0  0
   35.6170   29.4400   49.1640 C   0  0  0  0  0  0  0  0  0  0  0  0
   38.5620   32.7000   49.7660 C   0  0  0  0  0  0  0  0  0  0  0  0
   38.9080   33.0350   48.4380 C   0  0  0  0  0  0  0  0  0  0  0  0
   38.5530   32.1310   47.4170 C   0  0  0  0  0  0  0  0  0  0  0  0
   37.8920   30.9770   47.7610 N   0  0  0  0  0  0  0  0  0  0  0  0
   37.5960   30.7230   49.0510 C   0  0  0  0  0  0  0  0  0  0  0  0
   37.9180   31.5610   50.0590 N   0  0  0  0  0  0  0  0  0  0  0  0
   38.8780   32.4260   46.0740 N   0  0  0  0  0  0  0  0  0  0  0  0
   37.9030   32.2310   45.0570 C   0  0  0  0  0  0  0  0  0  0  0  0
   38.3880   32.3760   43.6590 C   0  0  0  0  0  0  0  0  0  0  0  0
   39.8450   32.1870   43.4400 C   0  0  0  0  0  0  0  0  0  0  0  0
   40.7090   32.0610   44.6380 C   0  0  0  0  0  0  0  0  0  0  0  0
   40.2080   32.9200   45.7830 C   0  0  0  0  0  0  0  0  0  0  0  0
   34.6830   28.3170   49.3440 C   0  0  0  0  0  0  0  0  0  0  0  0
   34.1640   27.7620   48.0700 C   0  0  0  0  0  0  0  0  0  0  0  0
   33.7370   26.4770   47.8410 C   0  0  0  0  0  0  0  0  0  0  0  0
   33.2720   26.1070   46.5880 C   0  0  0  0  0  0  0  0  0  0  0  0
   33.2240   27.0110   45.5360 C   0  0  0  0  0  0  0  0  0  0  0  0
   33.6450   28.3020   45.7390 C   0  0  0  0  0  0  0  0  0  0  0  0
   34.1100   28.6690   46.9960 C   0  0  0  0  0  0  0  0  0  0  0  0
   37.4607   28.5746   49.6262 H   0  0  0  0  0  0  0  0  0  0  0  0
   35.1556   30.3911   48.8599 H   0  0  0  0  0  0  0  0  0  0  0  0
   38.8275   33.3907   50.5799 H   0  0  0  0  0  0  0  0  0  0  0  0
   39.4375   33.9714   48.2083 H   0  0  0  0  0  0  0  0  0  0  0  0
   37.4966   31.2151   45.1695 H   0  0  0  0  0  0  0  0  0  0  0  0
   37.1593   33.0289   45.1994 H   0  0  0  0  0  0  0  0  0  0  0  0
   37.8585   31.6343   43.0429 H   0  0  0  0  0  0  0  0  0  0  0  0
   38.1862   33.4228   43.3880 H   0  0  0  0  0  0  0  0  0  0  0  0
   39.9721   31.2707   42.8449 H   0  0  0  0  0  0  0  0  0  0  0  0
   40.1768   33.1159   42.9531 H   0  0  0  0  0  0  0  0  0  0  0  0
   40.7210   31.0092   44.9600 H   0  0  0  0  0  0  0  0  0  0  0  0
   41.7197   32.4023   44.3696 H   0  0  0  0  0  0  0  0  0  0  0  0
   40.8609   32.8109   46.6615 H   0  0  0  0  0  0  0  0  0  0  0  0
   40.2021   33.9889   45.5233 H   0  0  0  0  0  0  0  0  0  0  0  0
   35.2054   27.5143   49.8850 H   0  0  0  0  0  0  0  0  0  0  0  0
   33.8177   28.7052   49.9013 H   0  0  0  0  0  0  0  0  0  0  0  0
   33.7639   25.7378   48.6552 H   0  0  0  0  0  0  0  0  0  0  0  0
   32.9334   25.0733   46.4241 H   0  0  0  0  0  0  0  0  0  0  0  0
   32.8524   26.6964   44.5496 H   0  0  0  0  0  0  0  0  0  0  0  0
   33.6147   29.0347   44.9191 H   0  0  0  0  0  0  0  0  0  0  0  0
   34.4472   29.7036   47.1567 H   0  0  0  0  0  0  0  0  0  0  0  0
  2  1  2  0
  2 15  1  0
  3  8  2  0
  4  3  1  0
  5  6  1  0
  5  4  2  0
  6  7  2  0
  7  1  1  0
  7  8  1  0
  9  5  1  0
 10  9  1  0
 11 10  1  0
 12 11  1  0
 12 13  1  0
 13 14  1  0
 14  9  1  0
 16 15  1  0
 17 16  2  0
 18 17  1  0
 19 20  1  0
 19 18  2  0
 20 21  2  0
 21 16  1  0
  1 22  1  0
  2 23  1  0
  3 24  1  0
  4 25  1  0
 10 26  1  0
 10 27  1  0
 11 28  1  0
 11 29  1  0
 12 30  1  0
 12 31  1  0
 13 32  1  0
 13 33  1  0
 14 34  1  0
 14 35  1  0
 15 36  1  0
 15 37  1  0
 17 38  1  0
 18 39  1  0
 19 40  1  0
 20 41  1  0
 21 42  1  0
M  ISO  8  24  14  25  14  26  13  27  13  28  13  29  13  30  13  31  13
M  ISO  8  32  13  33  13  34  13  35  13  36   8  37   8  38  14  39  14
M  ISO  3  40  14  41  14  42  14
M  END
>  <minimizedAffinity>  (1) 
-6.46848726

>  <minimizedRMSD>  (1) 
2.52830076

$$$$
