
     RDKit          3D

 26 27  0  0  0  0  0  0  0  0999 V2000
   35.6450   30.0210   46.1030 O   0  0  0  0  0  0  0  0  0  0  0  0
   34.4380   29.6250   46.9470 P   0  0  1  0  0  0  0  0  0  0  0  0
   34.4850   27.9650   47.3290 O   0  0  0  0  0  0  0  0  0  0  0  0
   34.3660   30.4730   48.4260 O   0  0  0  0  0  0  0  0  0  0  0  0
   35.3760   30.3810   49.3740 C   0  0  0  0  0  0  0  0  0  0  0  0
   35.4430   29.4470   50.4210 C   0  0  0  0  0  0  0  0  0  0  0  0
   36.5270   29.5110   51.2660 C   0  0  0  0  0  0  0  0  0  0  0  0
   37.4860   30.4480   51.0800 N   0  0  0  0  0  0  0  0  0  0  0  0
   37.3930   31.3540   50.0410 C   0  0  0  0  0  0  0  0  0  0  0  0
   36.3390   31.3060   49.2060 N   0  0  0  0  0  0  0  0  0  0  0  0
   33.0720   29.9770   46.0090 O   0  0  0  0  0  0  0  0  0  0  0  0
   31.8560   29.4330   46.4340 C   0  0  0  0  0  0  0  0  0  0  0  0
   30.5650   29.6930   46.0240 C   0  0  0  0  0  0  0  0  0  0  0  0
   29.7300   28.9320   46.7130 N   0  0  0  0  0  0  0  0  0  0  0  0
   30.4170   28.1680   47.5730 C   0  0  0  0  0  0  0  0  0  0  0  0
   31.7310   28.4860   47.3930 N   0  0  0  0  0  0  0  0  0  0  0  0
   29.7800   27.2070   48.4900 C   0  0  0  0  0  0  0  0  0  0  0  0
   29.3740   27.9310   49.6020 F   0  0  0  0  0  0  0  0  0  0  0  0
   28.7630   26.5010   47.9070 F   0  0  0  0  0  0  0  0  0  0  0  0
   30.7700   26.3270   48.9470 F   0  0  0  0  0  0  0  0  0  0  0  0
   34.4882   27.8527   48.3126 H   0  0  0  0  0  0  0  0  0  0  0  0
   34.6564   28.6909   50.5605 H   0  0  0  0  0  0  0  0  0  0  0  0
   36.6148   28.7964   52.0977 H   0  0  0  0  0  0  0  0  0  0  0  0
   38.1775   32.1115   49.8970 H   0  0  0  0  0  0  0  0  0  0  0  0
   30.2757   30.4172   45.2482 H   0  0  0  0  0  0  0  0  0  0  0  0
   28.7057   28.9276   46.6045 H   0  0  0  0  0  0  0  0  0  0  0  0
  2  1  2  0
  2  3  1  0
  2  4  1  0
  4  5  1  0
  5  6  2  0
  6  7  1  0
  8  7  2  0
  9  8  1  0
 10  5  1  0
 10  9  2  0
 11 12  1  0
 11  2  1  0
 12 16  1  0
 13 12  2  0
 13 14  1  0
 14 15  1  0
 15 17  1  0
 16 15  2  0
 17 20  1  0
 17 18  1  0
 19 17  1  0
  3 21  1  0
  6 22  1  0
  7 23  1  0
  9 24  1  0
 13 25  1  0
 14 26  1  0
M  ISO  6  21   3  22  14  23  14  24  14  25  14  26   9
M  END
>  <minimizedAffinity>  (1) 
-4.39217663

>  <minimizedRMSD>  (1) 
1.22097552

$$$$
