
     RDKit          3D

 35 36  0  0  0  0  0  0  0  0999 V2000
   34.6840   28.4170   49.7410 C   0  0  0  0  0  0  0  0  0  0  0  0
   34.4120   28.0990   48.5240 C   0  0  0  0  0  0  0  0  0  0  0  0
   37.3370   30.2270   51.4920 C   0  0  0  0  0  0  0  0  0  0  0  0
   38.1430   30.6380   50.4080 C   0  0  0  0  0  0  0  0  0  0  0  0
   37.7450   30.2800   49.1030 C   0  0  0  0  0  0  0  0  0  0  0  0
   36.6010   29.5560   48.9600 N   0  0  0  0  0  0  0  0  0  0  0  0
   35.8700   29.1890   50.0310 C   0  0  0  0  0  0  0  0  0  0  0  0
   36.2200   29.5140   51.2880 N   0  0  0  0  0  0  0  0  0  0  0  0
   38.5480   30.6900   48.0200 N   0  0  0  0  0  0  0  0  0  0  0  0
   38.6040   32.2940   47.4180 S   0  0  0  0  0  0  0  0  0  0  0  0
   39.9920   32.5740   46.8580 O   0  0  0  0  0  0  0  0  0  0  0  0
   38.3580   33.3110   48.4650 O   0  0  0  0  0  0  0  0  0  0  0  0
   37.5400   32.4040   46.1150 O   0  0  0  0  0  0  0  0  0  0  0  0
   33.2970   27.3210   47.9700 C   0  0  0  0  0  0  0  0  0  0  0  0
   33.7230   26.2270   47.0470 C   0  0  0  0  0  0  0  0  0  0  0  0
   33.9530   24.9190   47.3700 C   0  0  0  0  0  0  0  0  0  0  0  0
   34.3420   24.0210   46.4060 C   0  0  0  0  0  0  0  0  0  0  0  0
   34.5140   24.4040   45.0790 C   0  0  0  0  0  0  0  0  0  0  0  0
   34.2880   25.7200   44.7230 C   0  0  0  0  0  0  0  0  0  0  0  0
   33.8960   26.6130   45.7130 C   0  0  0  0  0  0  0  0  0  0  0  0
   34.0164   28.1024   50.5567 H   0  0  0  0  0  0  0  0  0  0  0  0
   35.1309   28.4699   47.7786 H   0  0  0  0  0  0  0  0  0  0  0  0
   37.6295   30.4954   52.5179 H   0  0  0  0  0  0  0  0  0  0  0  0
   39.0590   31.2231   50.5771 H   0  0  0  0  0  0  0  0  0  0  0  0
   39.1383   29.9814   47.5614 H   0  0  0  0  0  0  0  0  0  0  0  0
   40.6293   32.7026   47.6046 H   0  0  0  0  0  0  0  0  0  0  0  0
   38.4584   32.8960   49.3582 H   0  0  0  0  0  0  0  0  0  0  0  0
   36.6141   32.4997   46.4522 H   0  0  0  0  0  0  0  0  0  0  0  0
   32.7391   26.8722   48.8050 H   0  0  0  0  0  0  0  0  0  0  0  0
   32.6841   28.0173   47.3788 H   0  0  0  0  0  0  0  0  0  0  0  0
   33.8257   24.5829   48.4096 H   0  0  0  0  0  0  0  0  0  0  0  0
   34.5220   22.9736   46.6898 H   0  0  0  0  0  0  0  0  0  0  0  0
   34.8259   23.6683   44.3230 H   0  0  0  0  0  0  0  0  0  0  0  0
   34.4152   26.0523   43.6821 H   0  0  0  0  0  0  0  0  0  0  0  0
   33.7149   27.6625   45.4378 H   0  0  0  0  0  0  0  0  0  0  0  0
  1  7  1  0
  2  1  2  0
  4  3  2  0
  5  4  1  0
  6  5  2  0
  6  7  1  0
  7  8  2  0
  8  3  1  0
  9  5  1  0
 10  9  1  0
 10 12  1  0
 11 10  1  0
 13 10  1  0
 14  2  1  0
 15 16  2  0
 15 14  1  0
 17 16  1  0
 18 17  2  0
 19 18  1  0
 19 20  2  0
 20 15  1  0
  1 21  1  0
  2 22  1  0
  3 23  1  0
  4 24  1  0
  9 25  1  0
 11 26  1  0
 12 27  1  0
 13 28  1  0
 14 29  1  0
 14 30  1  0
 16 31  1  0
 17 32  1  0
 18 33  1  0
 19 34  1  0
 20 35  1  0
M  ISO  8  23  14  24  14  26   3  27   3  28   3  29   8  30   8  31  14
M  ISO  4  32  14  33  14  34  14  35  14
M  END
>  <minimizedAffinity>  (1) 
-5.97876978

>  <minimizedRMSD>  (1) 
0.25877583

$$$$
