
     RDKit          3D

 29 30  0  0  0  0  0  0  0  0999 V2000
   33.2070   27.6490   47.9210 C   0  0  0  0  0  0  0  0  0  0  0  0
   33.6410   26.5520   47.0030 C   0  0  0  0  0  0  0  0  0  0  0  0
   33.8560   25.2430   47.3680 C   0  0  0  0  0  0  0  0  0  0  0  0
   34.2580   24.3150   46.4280 C   0  0  0  0  0  0  0  0  0  0  0  0
   34.4590   24.6560   45.0930 C   0  0  0  0  0  0  0  0  0  0  0  0
   34.2450   25.9540   44.7290 C   0  0  0  0  0  0  0  0  0  0  0  0
   33.8410   26.8990   45.6670 C   0  0  0  0  0  0  0  0  0  0  0  0
   34.8820   28.3020   49.6360 C   0  0  0  0  0  0  0  0  0  0  0  0
   34.3430   28.4090   48.4590 C   0  0  0  0  0  0  0  0  0  0  0  0
   37.3480   30.2910   51.4690 C   0  0  0  0  0  0  0  0  0  0  0  0
   38.1530   30.7860   50.4190 C   0  0  0  0  0  0  0  0  0  0  0  0
   37.8080   30.4080   49.0930 C   0  0  0  0  0  0  0  0  0  0  0  0
   36.7300   29.5980   48.9250 N   0  0  0  0  0  0  0  0  0  0  0  0
   36.0000   29.1570   49.9580 C   0  0  0  0  0  0  0  0  0  0  0  0
   36.3160   29.5050   51.2030 N   0  0  0  0  0  0  0  0  0  0  0  0
   38.5460   30.8460   47.9590 N   0  0  0  0  0  0  0  0  0  0  0  0
   32.6478   27.2080   48.7594 H   0  0  0  0  0  0  0  0  0  0  0  0
   32.5816   28.3442   47.3418 H   0  0  0  0  0  0  0  0  0  0  0  0
   33.7070   24.9344   48.4133 H   0  0  0  0  0  0  0  0  0  0  0  0
   34.4246   23.2744   46.7434 H   0  0  0  0  0  0  0  0  0  0  0  0
   34.7795   23.9045   44.3564 H   0  0  0  0  0  0  0  0  0  0  0  0
   34.3937   26.2565   43.6819 H   0  0  0  0  0  0  0  0  0  0  0  0
   33.6763   27.9391   45.3490 H   0  0  0  0  0  0  0  0  0  0  0  0
   34.4963   27.5781   50.3690 H   0  0  0  0  0  0  0  0  0  0  0  0
   34.7895   29.1562   47.7865 H   0  0  0  0  0  0  0  0  0  0  0  0
   37.5791   30.5592   52.5105 H   0  0  0  0  0  0  0  0  0  0  0  0
   39.0146   31.4396   50.6201 H   0  0  0  0  0  0  0  0  0  0  0  0
   38.2628   30.5492   47.0142 H   0  0  0  0  0  0  0  0  0  0  0  0
   39.3637   31.4601   48.0825 H   0  0  0  0  0  0  0  0  0  0  0  0
  1  9  1  0
  2  3  2  0
  2  1  1  0
  4  3  1  0
  5  4  2  0
  6  5  1  0
  6  7  2  0
  7  2  1  0
  8 14  1  0
  9  8  2  0
 11 10  2  0
 12 11  1  0
 13 12  2  0
 13 14  1  0
 14 15  2  0
 15 10  1  0
 16 12  1  0
  1 17  1  0
  1 18  1  0
  3 19  1  0
  4 20  1  0
  5 21  1  0
  6 22  1  0
  7 23  1  0
  8 24  1  0
  9 25  1  0
 10 26  1  0
 11 27  1  0
 16 28  1  0
 16 29  1  0
M  ISO  8  17   8  18   8  19  14  20  14  21  14  22  14  23  14  26  14
M  ISO  1  27  14
M  END
>  <minimizedAffinity>  (1) 
-5.10127497

>  <minimizedRMSD>  (1) 
0.262500733

$$$$
