
     RDKit          3D

 28 29  0  0  0  0  0  0  0  0999 V2000
   33.2850   27.3120   48.0340 C   0  0  0  0  0  0  0  0  0  0  0  0
   33.6980   26.2480   47.0770 C   0  0  0  0  0  0  0  0  0  0  0  0
   33.9120   24.9200   47.3660 C   0  0  0  0  0  0  0  0  0  0  0  0
   34.2920   24.0420   46.3800 C   0  0  0  0  0  0  0  0  0  0  0  0
   34.4740   24.4570   45.0680 C   0  0  0  0  0  0  0  0  0  0  0  0
   34.2670   25.7780   44.7520 C   0  0  0  0  0  0  0  0  0  0  0  0
   33.8840   26.6430   45.7620 C   0  0  0  0  0  0  0  0  0  0  0  0
   34.8200   28.3370   49.7280 C   0  0  0  0  0  0  0  0  0  0  0  0
   34.4040   28.1470   48.5010 C   0  0  0  0  0  0  0  0  0  0  0  0
   37.4660   30.3070   51.3040 C   0  0  0  0  0  0  0  0  0  0  0  0
   38.1140   30.8550   50.1700 C   0  0  0  0  0  0  0  0  0  0  0  0
   37.6170   30.5300   48.8730 C   0  0  0  0  0  0  0  0  0  0  0  0
   36.5380   29.7020   48.8040 N   0  0  0  0  0  0  0  0  0  0  0  0
   35.9580   29.2080   49.9160 C   0  0  0  0  0  0  0  0  0  0  0  0
   36.4080   29.5000   51.1540 N   0  0  0  0  0  0  0  0  0  0  0  0
   38.3950   31.1920   47.4120 S   0  0  0  0  0  0  0  0  0  0  0  0
   32.8194   26.8329   48.9079 H   0  0  0  0  0  0  0  0  0  0  0  0
   32.5871   27.9743   47.5008 H   0  0  0  0  0  0  0  0  0  0  0  0
   33.7776   24.5579   48.3960 H   0  0  0  0  0  0  0  0  0  0  0  0
   34.4559   22.9849   46.6364 H   0  0  0  0  0  0  0  0  0  0  0  0
   34.7794   23.7389   44.2927 H   0  0  0  0  0  0  0  0  0  0  0  0
   34.4023   26.1390   43.7218 H   0  0  0  0  0  0  0  0  0  0  0  0
   33.7184   27.7002   45.5074 H   0  0  0  0  0  0  0  0  0  0  0  0
   34.3231   27.8530   50.5817 H   0  0  0  0  0  0  0  0  0  0  0  0
   34.9629   28.6803   47.7179 H   0  0  0  0  0  0  0  0  0  0  0  0
   37.8337   30.5455   52.3129 H   0  0  0  0  0  0  0  0  0  0  0  0
   38.9836   31.5183   50.2872 H   0  0  0  0  0  0  0  0  0  0  0  0
   39.4005   32.0476   47.7779 H   0  0  0  0  0  0  0  0  0  0  0  0
  1  9  1  0
  2  3  2  0
  2  1  1  0
  4  3  1  0
  5  4  2  0
  6  5  1  0
  6  7  2  0
  7  2  1  0
  8 14  1  0
  9  8  2  0
 11 10  2  0
 12 11  1  0
 13 12  2  0
 13 14  1  0
 14 15  2  0
 15 10  1  0
 16 12  1  0
  1 17  1  0
  1 18  1  0
  3 19  1  0
  4 20  1  0
  5 21  1  0
  6 22  1  0
  7 23  1  0
  8 24  1  0
  9 25  1  0
 10 26  1  0
 11 27  1  0
 16 28  1  0
M  ISO  8  17   8  18   8  19  14  20  14  21  14  22  14  23  14  26  14
M  ISO  2  27  14  28  11
M  END
>  <minimizedAffinity>  (1) 
-4.87029886

>  <minimizedRMSD>  (1) 
0.149744123

$$$$
