
     RDKit          3D

 44 47  0  0  0  0  0  0  0  0999 V2000
   32.8660   27.8170   48.5790 C   0  0  0  0  0  0  0  0  0  0  0  0
   33.2270   26.9390   47.4410 C   0  0  0  0  0  0  0  0  0  0  0  0
   33.7630   25.6810   47.5720 C   0  0  0  0  0  0  0  0  0  0  0  0
   34.0740   24.9210   46.4630 C   0  0  0  0  0  0  0  0  0  0  0  0
   33.8590   25.3930   45.1850 C   0  0  0  0  0  0  0  0  0  0  0  0
   33.3290   26.6360   45.0480 C   0  0  0  0  0  0  0  0  0  0  0  0
   33.0220   27.3880   46.1530 C   0  0  0  0  0  0  0  0  0  0  0  0
   34.8530   29.8140   45.8510 Cl  0  0  0  0  0  0  0  0  0  0  0  0
   33.1140   29.9120   45.6760 C   0  0  0  0  0  0  0  0  0  0  0  0
   32.4550   28.7120   45.8480 C   0  0  0  0  0  0  0  0  0  0  0  0
   31.0780   28.6490   45.7370 C   0  0  0  0  0  0  0  0  0  0  0  0
   30.3030   29.7730   45.4510 C   0  0  0  0  0  0  0  0  0  0  0  0
   31.0050   30.9710   45.2830 C   0  0  0  0  0  0  0  0  0  0  0  0
   32.3780   31.0390   45.3940 C   0  0  0  0  0  0  0  0  0  0  0  0
   35.2550   28.2390   49.1500 C   0  0  0  0  0  0  0  0  0  0  0  0
   34.0070   28.6050   49.0960 C   0  0  0  0  0  0  0  0  0  0  0  0
   37.3110   30.1500   51.4920 C   0  0  0  0  0  0  0  0  0  0  0  0
   38.0240   31.0080   50.6260 C   0  0  0  0  0  0  0  0  0  0  0  0
   37.7700   30.8990   49.2340 C   0  0  0  0  0  0  0  0  0  0  0  0
   36.8450   29.9660   48.8110 N   0  0  0  0  0  0  0  0  0  0  0  0
   36.2110   29.1900   49.7040 C   0  0  0  0  0  0  0  0  0  0  0  0
   36.4360   29.2750   51.0190 N   0  0  0  0  0  0  0  0  0  0  0  0
   38.4460   31.7300   48.2480 C   0  0  0  0  0  0  0  0  0  0  0  0
   38.7470   31.2790   46.9730 C   0  0  0  0  0  0  0  0  0  0  0  0
   39.3850   32.3150   46.2970 C   0  0  0  0  0  0  0  0  0  0  0  0
   39.4480   33.3520   47.1800 N   0  0  0  0  0  0  0  0  0  0  0  0
   38.8900   32.9940   48.3270 N   0  0  0  0  0  0  0  0  0  0  0  0
   32.4773   27.1894   49.3945 H   0  0  0  0  0  0  0  0  0  0  0  0
   32.1154   28.5328   48.2126 H   0  0  0  0  0  0  0  0  0  0  0  0
   33.9472   25.2730   48.5768 H   0  0  0  0  0  0  0  0  0  0  0  0
   34.5025   23.9174   46.6012 H   0  0  0  0  0  0  0  0  0  0  0  0
   34.1088   24.7823   44.3049 H   0  0  0  0  0  0  0  0  0  0  0  0
   33.1445   27.0428   44.0428 H   0  0  0  0  0  0  0  0  0  0  0  0
   30.5770   27.6800   45.8790 H   0  0  0  0  0  0  0  0  0  0  0  0
   29.2078   29.7204   45.3631 H   0  0  0  0  0  0  0  0  0  0  0  0
   30.4436   31.8890   45.0549 H   0  0  0  0  0  0  0  0  0  0  0  0
   32.8890   32.0033   45.2557 H   0  0  0  0  0  0  0  0  0  0  0  0
   35.5760   27.2499   48.7913 H   0  0  0  0  0  0  0  0  0  0  0  0
   33.7749   29.6107   49.4765 H   0  0  0  0  0  0  0  0  0  0  0  0
   37.4850   30.2092   52.5765 H   0  0  0  0  0  0  0  0  0  0  0  0
   38.7508   31.7354   51.0168 H   0  0  0  0  0  0  0  0  0  0  0  0
   38.5222   30.2814   46.5678 H   0  0  0  0  0  0  0  0  0  0  0  0
   39.7609   32.3002   45.2633 H   0  0  0  0  0  0  0  0  0  0  0  0
   39.8657   34.2731   46.9850 H   0  0  0  0  0  0  0  0  0  0  0  0
  1 16  1  0
  2  3  2  0
  2  1  1  0
  4  3  1  0
  5  4  2  0
  6  5  1  0
  6  7  2  0
  7  2  1  0
  9 10  2  0
  9  8  1  0
 10  7  1  0
 11 10  1  0
 12 11  2  0
 13 14  2  0
 13 12  1  0
 14  9  1  0
 15 21  1  0
 16 15  2  0
 18 17  2  0
 19 18  1  0
 20 19  2  0
 20 21  1  0
 21 22  2  0
 22 17  1  0
 23 27  2  0
 23 19  1  0
 24 23  1  0
 25 24  2  0
 25 26  1  0
 26 27  1  0
  1 28  1  0
  1 29  1  0
  3 30  1  0
  4 31  1  0
  5 32  1  0
  6 33  1  0
 11 34  1  0
 12 35  1  0
 13 36  1  0
 14 37  1  0
 15 38  1  0
 16 39  1  0
 17 40  1  0
 18 41  1  0
 24 42  1  0
 25 43  1  0
 26 44  1  0
M  ISO  8  28   8  29   8  30  14  31  14  32  14  33  14  34  14  35  14
M  ISO  7  36  14  37  14  40  14  41  14  42  14  43  14  44   9
M  END
>  <minimizedAffinity>  (1) 
-6.53855085

>  <minimizedRMSD>  (1) 
1.13456094

$$$$
