
     RDKit          3D

 25 26  0  0  0  0  0  0  0  0999 V2000
   35.5540   30.0740   46.3720 O   0  0  0  0  0  0  0  0  0  0  0  0
   34.3790   29.7630   47.2960 P   0  0  1  0  0  0  0  0  0  0  0  0
   34.2910   28.0880   47.6270 O   0  0  0  0  0  0  0  0  0  0  0  0
   34.5020   30.5540   48.7990 O   0  0  0  0  0  0  0  0  0  0  0  0
   35.6430   30.4600   49.5880 C   0  0  0  0  0  0  0  0  0  0  0  0
   35.8500   29.5170   50.6170 C   0  0  0  0  0  0  0  0  0  0  0  0
   37.0520   29.5820   51.2900 C   0  0  0  0  0  0  0  0  0  0  0  0
   37.9760   30.5050   50.9740 N   0  0  0  0  0  0  0  0  0  0  0  0
   37.7410   31.4110   49.9650 C   0  0  0  0  0  0  0  0  0  0  0  0
   36.5770   31.3830   49.2790 N   0  0  0  0  0  0  0  0  0  0  0  0
   32.9860   30.2790   46.4890 O   0  0  0  0  0  0  0  0  0  0  0  0
   31.9760   29.3240   46.2790 C   0  0  0  0  0  0  0  0  0  0  0  0
   31.2680   29.0290   45.1390 C   0  0  0  0  0  0  0  0  0  0  0  0
   30.4160   28.0510   45.4170 N   0  0  0  0  0  0  0  0  0  0  0  0
   30.5390   27.6860   46.7150 C   0  0  0  0  0  0  0  0  0  0  0  0
   31.5070   28.4890   47.2200 N   0  0  0  0  0  0  0  0  0  0  0  0
   29.8010   26.6470   47.4650 C   0  0  0  0  0  0  0  0  0  0  0  0
   29.1650   26.9790   48.4980 O   0  0  0  0  0  0  0  0  0  0  0  0
   34.2835   27.9452   48.6066 H   0  0  0  0  0  0  0  0  0  0  0  0
   35.0882   28.7651   50.8706 H   0  0  0  0  0  0  0  0  0  0  0  0
   37.2578   28.8660   52.0993 H   0  0  0  0  0  0  0  0  0  0  0  0
   38.5049   32.1621   49.7155 H   0  0  0  0  0  0  0  0  0  0  0  0
   31.3874   29.5202   44.1620 H   0  0  0  0  0  0  0  0  0  0  0  0
   29.7581   27.6313   44.7447 H   0  0  0  0  0  0  0  0  0  0  0  0
   29.8082   25.6009   47.1250 H   0  0  0  0  0  0  0  0  0  0  0  0
  2  1  2  0
  2  3  1  0
  2  4  1  0
  4  5  1  0
  5  6  2  0
  6  7  1  0
  8  7  2  0
  9  8  1  0
 10  5  1  0
 10  9  2  0
 11  2  1  0
 12 11  1  0
 12 16  1  0
 13 14  1  0
 13 12  2  0
 14 15  1  0
 15 16  2  0
 15 17  1  0
 17 18  2  0
  3 19  1  0
  6 20  1  0
  7 21  1  0
  9 22  1  0
 13 23  1  0
 14 24  1  0
 17 25  1  0
M  ISO  7  19   3  20  14  21  14  22  14  23  14  24   9  25   6
M  END
>  <minimizedAffinity>  (1) 
-3.9218564

>  <minimizedRMSD>  (1) 
0.388030529

$$$$
