
     RDKit          3D

 37 39  0  0  0  0  0  0  0  0999 V2000
   34.9630   28.4060   49.4540 C   0  0  0  0  0  0  0  0  0  0  0  0
   34.3230   28.7490   48.3730 C   0  0  0  0  0  0  0  0  0  0  0  0
   37.3820   30.1350   51.5750 C   0  0  0  0  0  0  0  0  0  0  0  0
   38.0910   30.9090   50.6280 C   0  0  0  0  0  0  0  0  0  0  0  0
   37.7080   30.8120   49.2630 C   0  0  0  0  0  0  0  0  0  0  0  0
   36.6740   29.9730   48.9370 N   0  0  0  0  0  0  0  0  0  0  0  0
   36.0450   29.2650   49.9060 C   0  0  0  0  0  0  0  0  0  0  0  0
   36.3940   29.3440   51.2020 N   0  0  0  0  0  0  0  0  0  0  0  0
   38.3710   31.5660   48.2050 C   0  0  0  0  0  0  0  0  0  0  0  0
   38.5900   31.0350   46.9600 C   0  0  0  0  0  0  0  0  0  0  0  0
   39.2410   32.0140   46.1940 C   0  0  0  0  0  0  0  0  0  0  0  0
   39.3850   33.0930   47.0140 N   0  0  0  0  0  0  0  0  0  0  0  0
   38.8630   32.8150   48.2100 N   0  0  0  0  0  0  0  0  0  0  0  0
   33.2030   28.0250   47.7470 C   0  0  0  0  0  0  0  0  0  0  0  0
   33.6360   26.8970   46.8910 C   0  0  0  0  0  0  0  0  0  0  0  0
   33.8630   25.6070   47.3620 C   0  0  0  0  0  0  0  0  0  0  0  0
   34.2660   24.5970   46.5150 C   0  0  0  0  0  0  0  0  0  0  0  0
   34.4560   24.8450   45.1620 C   0  0  0  0  0  0  0  0  0  0  0  0
   34.2380   26.0990   44.6990 C   0  0  0  0  0  0  0  0  0  0  0  0
   33.8380   27.0980   45.5450 C   0  0  0  0  0  0  0  0  0  0  0  0
   33.6030   28.4720   45.0080 C   0  0  0  0  0  0  0  0  0  0  0  0
   34.6932   27.4947   50.0078 H   0  0  0  0  0  0  0  0  0  0  0  0
   34.6523   29.6737   47.8766 H   0  0  0  0  0  0  0  0  0  0  0  0
   37.6580   30.1930   52.6382 H   0  0  0  0  0  0  0  0  0  0  0  0
   38.9155   31.5675   50.9389 H   0  0  0  0  0  0  0  0  0  0  0  0
   38.3073   30.0266   46.6234 H   0  0  0  0  0  0  0  0  0  0  0  0
   39.5678   31.9282   45.1472 H   0  0  0  0  0  0  0  0  0  0  0  0
   39.8281   33.9849   46.7512 H   0  0  0  0  0  0  0  0  0  0  0  0
   32.5551   27.6296   48.5432 H   0  0  0  0  0  0  0  0  0  0  0  0
   32.6762   28.7406   47.0986 H   0  0  0  0  0  0  0  0  0  0  0  0
   33.7180   25.3894   48.4305 H   0  0  0  0  0  0  0  0  0  0  0  0
   34.4385   23.5865   46.9140 H   0  0  0  0  0  0  0  0  0  0  0  0
   34.7761   24.0417   44.4821 H   0  0  0  0  0  0  0  0  0  0  0  0
   34.3841   26.3172   43.6308 H   0  0  0  0  0  0  0  0  0  0  0  0
   33.4825   29.1767   45.8440 H   0  0  0  0  0  0  0  0  0  0  0  0
   34.4620   28.7769   44.3923 H   0  0  0  0  0  0  0  0  0  0  0  0
   32.6915   28.4741   44.3923 H   0  0  0  0  0  0  0  0  0  0  0  0
  1  7  1  0
  2  1  2  0
  4  3  2  0
  5  4  1  0
  6  5  2  0
  6  7  1  0
  7  8  2  0
  8  3  1  0
  9 13  2  0
  9  5  1  0
 10  9  1  0
 11 10  2  0
 11 12  1  0
 12 13  1  0
 14  2  1  0
 15 16  2  0
 15 14  1  0
 17 16  1  0
 18 17  2  0
 19 18  1  0
 19 20  2  0
 20 15  1  0
 21 20  1  0
  1 22  1  0
  2 23  1  0
  3 24  1  0
  4 25  1  0
 10 26  1  0
 11 27  1  0
 12 28  1  0
 14 29  1  0
 14 30  1  0
 16 31  1  0
 17 32  1  0
 18 33  1  0
 19 34  1  0
 21 35  1  0
 21 36  1  0
 21 37  1  0
M  ISO  8  24  14  25  14  26  14  27  14  28   9  29   8  30   8  31  14
M  ISO  6  32  14  33  14  34  14  35   8  36   8  37   8
M  END
>  <minimizedAffinity>  (1) 
-6.1300025

>  <minimizedRMSD>  (1) 
0.0754226893

$$$$
