
     RDKit          3D

 35 37  0  0  0  0  0  0  0  0999 V2000
   34.9830   28.3960   49.4620 C   0  0  0  0  0  0  0  0  0  0  0  0
   34.2890   28.7720   48.4270 C   0  0  0  0  0  0  0  0  0  0  0  0
   37.3920   30.1560   51.5730 C   0  0  0  0  0  0  0  0  0  0  0  0
   38.0920   30.9220   50.6290 C   0  0  0  0  0  0  0  0  0  0  0  0
   37.7190   30.8180   49.2770 C   0  0  0  0  0  0  0  0  0  0  0  0
   36.6850   29.9690   48.9410 N   0  0  0  0  0  0  0  0  0  0  0  0
   36.0580   29.2610   49.9210 C   0  0  0  0  0  0  0  0  0  0  0  0
   36.4040   29.3520   51.2100 N   0  0  0  0  0  0  0  0  0  0  0  0
   38.3800   31.5720   48.2040 C   0  0  0  0  0  0  0  0  0  0  0  0
   38.6050   31.0470   46.9590 C   0  0  0  0  0  0  0  0  0  0  0  0
   39.2450   32.0200   46.1970 C   0  0  0  0  0  0  0  0  0  0  0  0
   39.3830   33.1030   47.0160 N   0  0  0  0  0  0  0  0  0  0  0  0
   38.8630   32.8180   48.2040 N   0  0  0  0  0  0  0  0  0  0  0  0
   33.1690   28.0460   47.8090 C   0  0  0  0  0  0  0  0  0  0  0  0
   33.6040   26.9210   46.9190 C   0  0  0  0  0  0  0  0  0  0  0  0
   33.8140   25.6320   47.3520 C   0  0  0  0  0  0  0  0  0  0  0  0
   34.2120   24.6570   46.4720 C   0  0  0  0  0  0  0  0  0  0  0  0
   34.4120   24.9400   45.1290 C   0  0  0  0  0  0  0  0  0  0  0  0
   34.2050   26.2070   44.7020 C   0  0  0  0  0  0  0  0  0  0  0  0
   33.8060   27.1970   45.5730 C   0  0  0  0  0  0  0  0  0  0  0  0
   33.6100   28.4760   45.0720 O   0  0  0  0  0  0  0  0  0  0  0  0
   34.7621   27.4488   49.9759 H   0  0  0  0  0  0  0  0  0  0  0  0
   34.5689   29.7313   47.9672 H   0  0  0  0  0  0  0  0  0  0  0  0
   37.6690   30.2244   52.6353 H   0  0  0  0  0  0  0  0  0  0  0  0
   38.9118   31.5870   50.9384 H   0  0  0  0  0  0  0  0  0  0  0  0
   38.3292   30.0370   46.6218 H   0  0  0  0  0  0  0  0  0  0  0  0
   39.5722   31.9339   45.1503 H   0  0  0  0  0  0  0  0  0  0  0  0
   39.8205   33.9980   46.7544 H   0  0  0  0  0  0  0  0  0  0  0  0
   32.5380   27.6326   48.6096 H   0  0  0  0  0  0  0  0  0  0  0  0
   32.6255   28.7654   47.1789 H   0  0  0  0  0  0  0  0  0  0  0  0
   33.6617   25.3809   48.4121 H   0  0  0  0  0  0  0  0  0  0  0  0
   34.3753   23.6327   46.8383 H   0  0  0  0  0  0  0  0  0  0  0  0
   34.7309   24.1540   44.4286 H   0  0  0  0  0  0  0  0  0  0  0  0
   34.3580   26.4510   43.6404 H   0  0  0  0  0  0  0  0  0  0  0  0
   33.3233   29.2058   45.6764 H   0  0  0  0  0  0  0  0  0  0  0  0
  1  7  1  0
  2  1  2  0
  4  3  2  0
  5  4  1  0
  6  5  2  0
  6  7  1  0
  7  8  2  0
  8  3  1  0
  9  5  1  0
 10  9  1  0
 11 10  2  0
 11 12  1  0
 12 13  1  0
 13  9  2  0
 14  2  1  0
 15 16  2  0
 15 14  1  0
 17 16  1  0
 18 17  2  0
 19 18  1  0
 19 20  2  0
 20 15  1  0
 21 20  1  0
  1 22  1  0
  2 23  1  0
  3 24  1  0
  4 25  1  0
 10 26  1  0
 11 27  1  0
 12 28  1  0
 14 29  1  0
 14 30  1  0
 16 31  1  0
 17 32  1  0
 18 33  1  0
 19 34  1  0
 21 35  1  0
M  ISO  8  24  14  25  14  26  14  27  14  28   9  29   8  30   8  31  14
M  ISO  4  32  14  33  14  34  14  35   3
M  END
>  <minimizedAffinity>  (1) 
-6.05542374

>  <minimizedRMSD>  (1) 
0.0288487542

$$$$
