
     RDKit          3D

 35 37  0  0  0  0  0  0  0  0999 V2000
   34.9710   28.3950   49.4650 C   0  0  0  0  0  0  0  0  0  0  0  0
   34.3050   28.7600   48.4020 C   0  0  0  0  0  0  0  0  0  0  0  0
   37.3930   30.1500   51.5760 C   0  0  0  0  0  0  0  0  0  0  0  0
   38.0960   30.9200   50.6270 C   0  0  0  0  0  0  0  0  0  0  0  0
   37.7120   30.8100   49.2760 C   0  0  0  0  0  0  0  0  0  0  0  0
   36.6800   29.9690   48.9390 N   0  0  0  0  0  0  0  0  0  0  0  0
   36.0520   29.2600   49.9150 C   0  0  0  0  0  0  0  0  0  0  0  0
   36.4030   29.3500   51.2040 N   0  0  0  0  0  0  0  0  0  0  0  0
   38.3740   31.5640   48.2060 C   0  0  0  0  0  0  0  0  0  0  0  0
   38.5970   31.0420   46.9550 C   0  0  0  0  0  0  0  0  0  0  0  0
   39.2420   32.0160   46.1870 C   0  0  0  0  0  0  0  0  0  0  0  0
   39.3810   33.0930   47.0110 N   0  0  0  0  0  0  0  0  0  0  0  0
   38.8640   32.8080   48.1920 N   0  0  0  0  0  0  0  0  0  0  0  0
   33.1820   28.0400   47.7780 C   0  0  0  0  0  0  0  0  0  0  0  0
   33.6150   26.9060   46.9130 C   0  0  0  0  0  0  0  0  0  0  0  0
   33.8340   25.6250   47.3570 C   0  0  0  0  0  0  0  0  0  0  0  0
   34.2350   24.6310   46.4960 C   0  0  0  0  0  0  0  0  0  0  0  0
   34.4320   24.8840   45.1480 C   0  0  0  0  0  0  0  0  0  0  0  0
   34.2190   26.1510   44.6910 C   0  0  0  0  0  0  0  0  0  0  0  0
   33.8200   27.1390   45.5580 C   0  0  0  0  0  0  0  0  0  0  0  0
   33.5790   28.7530   44.8150 S   0  0  0  0  0  0  0  0  0  0  0  0
   34.7237   27.4669   50.0011 H   0  0  0  0  0  0  0  0  0  0  0  0
   34.6146   29.7012   47.9243 H   0  0  0  0  0  0  0  0  0  0  0  0
   37.6693   30.2137   52.6388 H   0  0  0  0  0  0  0  0  0  0  0  0
   38.9176   31.5850   50.9315 H   0  0  0  0  0  0  0  0  0  0  0  0
   38.3169   30.0335   46.6166 H   0  0  0  0  0  0  0  0  0  0  0  0
   39.5682   31.9313   45.1399 H   0  0  0  0  0  0  0  0  0  0  0  0
   39.8202   33.9882   46.7529 H   0  0  0  0  0  0  0  0  0  0  0  0
   32.5356   27.6439   48.5750 H   0  0  0  0  0  0  0  0  0  0  0  0
   32.6536   28.7576   47.1332 H   0  0  0  0  0  0  0  0  0  0  0  0
   33.6858   25.3899   48.4213 H   0  0  0  0  0  0  0  0  0  0  0  0
   34.4026   23.6157   46.8846 H   0  0  0  0  0  0  0  0  0  0  0  0
   34.7518   24.0838   44.4644 H   0  0  0  0  0  0  0  0  0  0  0  0
   34.3670   26.3824   43.6258 H   0  0  0  0  0  0  0  0  0  0  0  0
   33.4386   29.6934   45.8013 H   0  0  0  0  0  0  0  0  0  0  0  0
  1  7  1  0
  2  1  2  0
  4  3  2  0
  5  4  1  0
  6  5  2  0
  6  7  1  0
  7  8  2  0
  8  3  1  0
  9  5  1  0
 10  9  1  0
 11 10  2  0
 11 12  1  0
 12 13  1  0
 13  9  2  0
 14  2  1  0
 15 16  2  0
 15 14  1  0
 17 16  1  0
 18 17  2  0
 19 18  1  0
 19 20  2  0
 20 15  1  0
 21 20  1  0
  1 22  1  0
  2 23  1  0
  3 24  1  0
  4 25  1  0
 10 26  1  0
 11 27  1  0
 12 28  1  0
 14 29  1  0
 14 30  1  0
 16 31  1  0
 17 32  1  0
 18 33  1  0
 19 34  1  0
 21 35  1  0
M  ISO  8  24  14  25  14  26  14  27  14  28   9  29   8  30   8  31  14
M  ISO  4  32  14  33  14  34  14  35  11
M  END
>  <minimizedAffinity>  (1) 
-6.04912281

>  <minimizedRMSD>  (1) 
0.054849159

$$$$
