
     RDKit          3D

 22 23  0  0  0  0  0  0  0  0999 V2000
   36.0890   29.5600   50.2890 C   0  0  0  0  0  0  0  0  0  0  0  0
   37.2270   30.0810   49.5920 C   0  0  0  0  0  0  0  0  0  0  0  0
   36.9820   30.6020   48.3220 C   0  0  0  0  0  0  0  0  0  0  0  0
   35.7130   30.5900   47.8150 N   0  0  0  0  0  0  0  0  0  0  0  0
   34.6730   30.0830   48.5200 C   0  0  0  0  0  0  0  0  0  0  0  0
   34.8740   29.5710   49.7530 N   0  0  0  0  0  0  0  0  0  0  0  0
   38.0380   31.1590   47.5060 C   0  0  0  0  0  0  0  0  0  0  0  0
   38.4660   32.4310   47.7820 C   0  0  0  0  0  0  0  0  0  0  0  0
   39.4830   33.0420   47.0420 C   0  0  0  0  0  0  0  0  0  0  0  0
   40.0460   32.3000   46.0070 C   0  0  0  0  0  0  0  0  0  0  0  0
   39.6520   31.0020   45.6780 C   0  0  0  0  0  0  0  0  0  0  0  0
   38.6410   30.4880   46.4680 C   0  0  0  0  0  0  0  0  0  0  0  0
   38.4950   30.0380   50.1920 N   0  0  0  0  0  0  0  0  0  0  0  0
   36.2254   29.1392   51.2961 H   0  0  0  0  0  0  0  0  0  0  0  0
   33.6620   30.0885   48.0866 H   0  0  0  0  0  0  0  0  0  0  0  0
   37.9971   32.9863   48.6077 H   0  0  0  0  0  0  0  0  0  0  0  0
   39.8232   34.0635   47.2675 H   0  0  0  0  0  0  0  0  0  0  0  0
   40.8481   32.7638   45.4140 H   0  0  0  0  0  0  0  0  0  0  0  0
   40.1098   30.4332   44.8552 H   0  0  0  0  0  0  0  0  0  0  0  0
   38.2932   29.4673   46.2505 H   0  0  0  0  0  0  0  0  0  0  0  0
   39.3142   30.4122   49.6922 H   0  0  0  0  0  0  0  0  0  0  0  0
   38.6064   29.6323   51.1321 H   0  0  0  0  0  0  0  0  0  0  0  0
  2 13  1  0
  2  1  2  0
  3  2  1  0
  4  3  2  0
  4  5  1  0
  5  6  2  0
  6  1  1  0
  7  8  2  0
  7  3  1  0
  9  8  1  0
 10  9  2  0
 11 10  1  0
 11 12  2  0
 12  7  1  0
  1 14  1  0
  5 15  1  0
  8 16  1  0
  9 17  1  0
 10 18  1  0
 11 19  1  0
 12 20  1  0
 13 21  1  0
 13 22  1  0
M  ISO  7  14  14  15  14  16  14  17  14  18  14  19  14  20  14
M  END
>  <minimizedAffinity>  (1) 
-5.10836077

>  <minimizedRMSD>  (1) 
1.31164396

$$$$
