
     RDKit          3D

 33 35  0  0  0  0  0  0  0  0999 V2000
   36.3280   29.3460   49.1480 C   0  0  0  0  0  0  0  0  0  0  0  0
   35.8150   29.8390   47.9070 C   0  0  0  0  0  0  0  0  0  0  0  0
   34.5170   29.4510   47.5660 C   0  0  0  0  0  0  0  0  0  0  0  0
   33.8120   28.6380   48.4080 N   0  0  0  0  0  0  0  0  0  0  0  0
   34.3370   28.1920   49.5740 C   0  0  0  0  0  0  0  0  0  0  0  0
   35.5870   28.5460   49.9380 N   0  0  0  0  0  0  0  0  0  0  0  0
   33.8930   29.8830   46.3370 C   0  0  0  0  0  0  0  0  0  0  0  0
   34.1580   29.1880   45.1900 C   0  0  0  0  0  0  0  0  0  0  0  0
   33.5940   29.5340   43.9650 C   0  0  0  0  0  0  0  0  0  0  0  0
   32.7370   30.6340   43.9520 C   0  0  0  0  0  0  0  0  0  0  0  0
   32.4270   31.3870   45.0890 C   0  0  0  0  0  0  0  0  0  0  0  0
   33.0370   30.9620   46.2600 C   0  0  0  0  0  0  0  0  0  0  0  0
   37.5340   31.6640   47.6940 C   0  0  0  0  0  0  0  0  0  0  0  0
   36.7170   30.6700   47.1370 C   0  0  0  0  0  0  0  0  0  0  0  0
   36.7290   30.4030   45.7600 C   0  0  0  0  0  0  0  0  0  0  0  0
   37.5650   31.1400   44.9620 C   0  0  0  0  0  0  0  0  0  0  0  0
   38.3570   32.1100   45.5410 C   0  0  0  0  0  0  0  0  0  0  0  0
   38.3740   32.4040   46.8880 C   0  0  0  0  0  0  0  0  0  0  0  0
   37.4600   31.9330   49.4130 S   0  0  0  0  0  0  0  0  0  0  0  0
   37.3450   33.4190   49.7150 O   0  0  0  0  0  0  0  0  0  0  0  0
   38.6790   31.3830   50.1310 O   0  0  0  0  0  0  0  0  0  0  0  0
   37.3446   29.6250   49.4621 H   0  0  0  0  0  0  0  0  0  0  0  0
   33.7413   27.5378   50.2276 H   0  0  0  0  0  0  0  0  0  0  0  0
   34.8400   28.3262   45.2365 H   0  0  0  0  0  0  0  0  0  0  0  0
   33.8143   28.9657   43.0493 H   0  0  0  0  0  0  0  0  0  0  0  0
   32.2797   30.9254   42.9949 H   0  0  0  0  0  0  0  0  0  0  0  0
   31.7492   32.2528   45.0570 H   0  0  0  0  0  0  0  0  0  0  0  0
   32.8251   31.5197   47.1842 H   0  0  0  0  0  0  0  0  0  0  0  0
   36.0838   29.6219   45.3314 H   0  0  0  0  0  0  0  0  0  0  0  0
   37.6038   30.9609   43.8774 H   0  0  0  0  0  0  0  0  0  0  0  0
   39.0210   32.6890   44.8823 H   0  0  0  0  0  0  0  0  0  0  0  0
   39.0250   33.1895   47.2994 H   0  0  0  0  0  0  0  0  0  0  0  0
   36.3507   31.2698   49.8675 H   0  0  0  0  0  0  0  0  0  0  0  0
  1  6  2  0
  2  1  1  0
  3  2  2  0
  3  4  1  0
  4  5  2  0
  5  6  1  0
  7  3  1  0
  8  7  2  0
  9  8  1  0
 10  9  2  0
 10 11  1  0
 11 12  2  0
 12  7  1  0
 13 19  1  0
 14 13  2  0
 14  2  1  0
 15 14  1  0
 16 17  1  0
 16 15  2  0
 17 18  2  0
 18 13  1  0
 19 20  2  0
 19 21  2  0
  1 22  1  0
  5 23  1  0
  8 24  1  0
  9 25  1  0
 10 26  1  0
 11 27  1  0
 12 28  1  0
 15 29  1  0
 16 30  1  0
 17 31  1  0
 18 32  1  0
 19 33  1  0
M  ISO  8  22  14  23  14  24  14  25  14  26  14  27  14  28  14  29  14
M  ISO  4  30  14  31  14  32  14  33  11
M  END
>  <minimizedAffinity>  (1) 
-4.98874378

>  <minimizedRMSD>  (1) 
5.16361427

$$$$
