
     RDKit          3D

 23 24  0  0  0  0  0  0  0  0999 V2000
   37.8830   31.2270   47.6430 C   0  0  0  0  0  0  0  0  0  0  0  0
   38.3100   32.4870   48.0500 C   0  0  0  0  0  0  0  0  0  0  0  0
   39.3760   33.1140   47.3880 C   0  0  0  0  0  0  0  0  0  0  0  0
   39.9830   32.4480   46.3260 C   0  0  0  0  0  0  0  0  0  0  0  0
   39.5800   31.1820   45.8910 C   0  0  0  0  0  0  0  0  0  0  0  0
   38.5180   30.6060   46.5850 C   0  0  0  0  0  0  0  0  0  0  0  0
   35.7110   29.7270   50.3130 C   0  0  0  0  0  0  0  0  0  0  0  0
   36.8580   30.2630   49.6960 C   0  0  0  0  0  0  0  0  0  0  0  0
   36.7780   30.6530   48.3730 C   0  0  0  0  0  0  0  0  0  0  0  0
   35.5920   30.5080   47.7000 N   0  0  0  0  0  0  0  0  0  0  0  0
   34.4940   29.9840   48.3220 C   0  0  0  0  0  0  0  0  0  0  0  0
   34.5640   29.6010   49.6190 N   0  0  0  0  0  0  0  0  0  0  0  0
   38.0460   30.3070   50.5420 C   0  0  0  0  0  0  0  0  0  0  0  0
   37.8117   32.9915   48.8909 H   0  0  0  0  0  0  0  0  0  0  0  0
   39.7247   34.1093   47.7006 H   0  0  0  0  0  0  0  0  0  0  0  0
   40.8176   32.9407   45.8057 H   0  0  0  0  0  0  0  0  0  0  0  0
   40.0722   30.6708   45.0505 H   0  0  0  0  0  0  0  0  0  0  0  0
   38.1687   29.6098   46.2759 H   0  0  0  0  0  0  0  0  0  0  0  0
   35.7523   29.4102   51.3656 H   0  0  0  0  0  0  0  0  0  0  0  0
   33.5505   29.8730   47.7676 H   0  0  0  0  0  0  0  0  0  0  0  0
   37.7436   30.2958   51.5996 H   0  0  0  0  0  0  0  0  0  0  0  0
   38.6782   29.4317   50.3321 H   0  0  0  0  0  0  0  0  0  0  0  0
   38.6117   31.2267   50.3321 H   0  0  0  0  0  0  0  0  0  0  0  0
  1  2  2  0
  1  9  1  0
  3  2  1  0
  4  3  2  0
  5  4  1  0
  5  6  2  0
  6  1  1  0
  8  7  2  0
  8 13  1  0
  9  8  1  0
 10 11  1  0
 10  9  2  0
 11 12  2  0
 12  7  1  0
  2 14  1  0
  3 15  1  0
  4 16  1  0
  5 17  1  0
  6 18  1  0
  7 19  1  0
 11 20  1  0
 13 21  1  0
 13 22  1  0
 13 23  1  0
M  ISO  8  14  14  15  14  16  14  17  14  18  14  19  14  20  14  21   8
M  ISO  2  22   8  23   8
M  END
>  <minimizedAffinity>  (1) 
-4.91451931

>  <minimizedRMSD>  (1) 
1.38673878

$$$$
