
     RDKit          3D

 29 31  0  0  0  0  0  0  0  0999 V2000
   35.6720   30.7200   48.5560 C   0  0  0  0  0  0  0  0  0  0  0  0
   34.7410   29.7750   48.0750 C   0  0  0  0  0  0  0  0  0  0  0  0
   34.4260   28.6790   48.8700 C   0  0  0  0  0  0  0  0  0  0  0  0
   35.0280   28.5510   50.0920 N   0  0  0  0  0  0  0  0  0  0  0  0
   35.9230   29.4820   50.5260 C   0  0  0  0  0  0  0  0  0  0  0  0
   36.2370   30.5540   49.7620 N   0  0  0  0  0  0  0  0  0  0  0  0
   33.4830   27.6700   48.4480 C   0  0  0  0  0  0  0  0  0  0  0  0
   32.1700   27.8150   48.7940 C   0  0  0  0  0  0  0  0  0  0  0  0
   31.2090   26.8780   48.4140 C   0  0  0  0  0  0  0  0  0  0  0  0
   31.6410   25.7810   47.6680 C   0  0  0  0  0  0  0  0  0  0  0  0
   32.9710   25.5810   47.2870 C   0  0  0  0  0  0  0  0  0  0  0  0
   33.8440   26.5650   47.7100 C   0  0  0  0  0  0  0  0  0  0  0  0
   34.2500   30.0840   46.7710 C   0  0  0  0  0  0  0  0  0  0  0  0
   35.2000   29.8910   45.7560 C   0  0  0  0  0  0  0  0  0  0  0  0
   34.9280   30.1250   44.4250 C   0  0  0  0  0  0  0  0  0  0  0  0
   33.6830   30.5640   44.0330 C   0  0  0  0  0  0  0  0  0  0  0  0
   32.7720   30.7420   45.0680 C   0  0  0  0  0  0  0  0  0  0  0  0
   33.0260   30.5160   46.3810 N   0  0  0  0  0  0  0  0  0  0  0  0
   35.9350   31.5938   47.9417 H   0  0  0  0  0  0  0  0  0  0  0  0
   36.3970   29.3607   51.5112 H   0  0  0  0  0  0  0  0  0  0  0  0
   31.8633   28.6902   49.3856 H   0  0  0  0  0  0  0  0  0  0  0  0
   30.1516   26.9993   48.6917 H   0  0  0  0  0  0  0  0  0  0  0  0
   30.8945   25.0329   47.3631 H   0  0  0  0  0  0  0  0  0  0  0  0
   33.2963   24.7107   46.6981 H   0  0  0  0  0  0  0  0  0  0  0  0
   34.9043   26.4578   47.4374 H   0  0  0  0  0  0  0  0  0  0  0  0
   36.2040   29.5381   46.0344 H   0  0  0  0  0  0  0  0  0  0  0  0
   35.7112   29.9598   43.6705 H   0  0  0  0  0  0  0  0  0  0  0  0
   33.4286   30.7590   42.9807 H   0  0  0  0  0  0  0  0  0  0  0  0
   31.7648   31.0942   44.8007 H   0  0  0  0  0  0  0  0  0  0  0  0
  1  6  2  0
  2  1  1  0
  2  3  2  0
  3  4  1  0
  4  5  2  0
  6  5  1  0
  7  8  2  0
  7  3  1  0
  9  8  1  0
 10  9  2  0
 11 10  1  0
 11 12  2  0
 12  7  1  0
 13  2  1  0
 14 13  2  0
 15 14  1  0
 16 15  2  0
 16 17  1  0
 17 18  2  0
 18 13  1  0
  1 19  1  0
  5 20  1  0
  8 21  1  0
  9 22  1  0
 10 23  1  0
 11 24  1  0
 12 25  1  0
 14 26  1  0
 15 27  1  0
 16 28  1  0
 17 29  1  0
M  ISO  8  19  14  20  14  21  14  22  14  23  14  24  14  25  14  26  14
M  ISO  3  27  14  28  14  29  14
M  END
>  <minimizedAffinity>  (1) 
-4.65090656

>  <minimizedRMSD>  (1) 
7.4918108

$$$$
