
     RDKit          3D

 21 22  0  0  0  0  0  0  0  0999 V2000
   38.1040   31.2390   46.9630 C   0  0  0  0  0  0  0  0  0  0  0  0
   38.5730   32.5060   47.1780 C   0  0  0  0  0  0  0  0  0  0  0  0
   39.7060   32.9730   46.5420 C   0  0  0  0  0  0  0  0  0  0  0  0
   40.3630   32.1030   45.6650 C   0  0  0  0  0  0  0  0  0  0  0  0
   39.9270   30.7970   45.4060 C   0  0  0  0  0  0  0  0  0  0  0  0
   38.7760   30.4050   46.0890 C   0  0  0  0  0  0  0  0  0  0  0  0
   35.6770   30.3190   49.6870 C   0  0  0  0  0  0  0  0  0  0  0  0
   36.8960   30.7420   49.0740 C   0  0  0  0  0  0  0  0  0  0  0  0
   36.9180   30.8200   47.6750 C   0  0  0  0  0  0  0  0  0  0  0  0
   35.7920   30.4910   46.9670 N   0  0  0  0  0  0  0  0  0  0  0  0
   34.6600   30.0940   47.5890 C   0  0  0  0  0  0  0  0  0  0  0  0
   34.6000   30.0080   48.9370 N   0  0  0  0  0  0  0  0  0  0  0  0
   38.2210   31.0740   50.1640 S   0  0  0  0  0  0  0  0  0  0  0  0
   38.0354   33.1676   47.8732 H   0  0  0  0  0  0  0  0  0  0  0  0
   40.0789   33.9927   46.7185 H   0  0  0  0  0  0  0  0  0  0  0  0
   41.2677   32.4627   45.1529 H   0  0  0  0  0  0  0  0  0  0  0  0
   40.4559   30.1272   44.7120 H   0  0  0  0  0  0  0  0  0  0  0  0
   38.3865   29.3894   45.9254 H   0  0  0  0  0  0  0  0  0  0  0  0
   35.6160   30.2461   50.7829 H   0  0  0  0  0  0  0  0  0  0  0  0
   33.7741   29.8370   46.9897 H   0  0  0  0  0  0  0  0  0  0  0  0
   37.7858   30.9649   51.4584 H   0  0  0  0  0  0  0  0  0  0  0  0
  1  2  2  0
  1  9  1  0
  3  2  1  0
  4  3  2  0
  5  4  1  0
  5  6  2  0
  6  1  1  0
  8  7  2  0
  8 13  1  0
  9  8  1  0
 10 11  1  0
 10  9  2  0
 11 12  2  0
 12  7  1  0
  2 14  1  0
  3 15  1  0
  4 16  1  0
  5 17  1  0
  6 18  1  0
  7 19  1  0
 11 20  1  0
 13 21  1  0
M  ISO  8  14  14  15  14  16  14  17  14  18  14  19  14  20  14  21  11
M  END
>  <minimizedAffinity>  (1) 
-4.55320024

>  <minimizedRMSD>  (1) 
1.78701282

$$$$
