
     RDKit          3D

 32 34  0  0  0  0  0  0  0  0999 V2000
   34.9330   30.1440   47.5930 C   0  0  0  0  0  0  0  0  0  0  0  0
   36.2230   30.7420   47.4110 C   0  0  0  0  0  0  0  0  0  0  0  0
   36.7670   30.6780   46.1270 C   0  0  0  0  0  0  0  0  0  0  0  0
   36.0670   30.0660   45.1260 N   0  0  0  0  0  0  0  0  0  0  0  0
   34.8560   29.5150   45.3410 C   0  0  0  0  0  0  0  0  0  0  0  0
   34.2950   29.5540   46.5640 N   0  0  0  0  0  0  0  0  0  0  0  0
   38.0600   31.2450   45.8230 C   0  0  0  0  0  0  0  0  0  0  0  0
   38.1180   32.4550   45.1930 C   0  0  0  0  0  0  0  0  0  0  0  0
   39.3090   33.0780   44.8670 C   0  0  0  0  0  0  0  0  0  0  0  0
   40.4840   32.4070   45.2130 C   0  0  0  0  0  0  0  0  0  0  0  0
   40.5010   31.1660   45.8580 C   0  0  0  0  0  0  0  0  0  0  0  0
   39.2490   30.6150   46.1470 C   0  0  0  0  0  0  0  0  0  0  0  0
   36.7960   31.2900   48.5750 N   0  0  0  0  0  0  0  0  0  0  0  0
   37.5760   32.4790   48.9470 C   0  0  0  0  0  0  0  0  0  0  0  0
   38.7470   31.8690   49.7080 C   0  0  0  0  0  0  0  0  0  0  0  0
   38.1330   30.6740   50.4230 C   0  0  0  0  0  0  0  0  0  0  0  0
   36.7210   30.6110   49.8740 C   0  0  0  0  0  0  0  0  0  0  0  0
   34.4584   30.1673   48.5851 H   0  0  0  0  0  0  0  0  0  0  0  0
   34.3220   29.0297   44.5108 H   0  0  0  0  0  0  0  0  0  0  0  0
   37.1745   32.9572   44.9329 H   0  0  0  0  0  0  0  0  0  0  0  0
   39.3298   34.0540   44.3601 H   0  0  0  0  0  0  0  0  0  0  0  0
   41.4462   32.8791   44.9654 H   0  0  0  0  0  0  0  0  0  0  0  0
   41.4395   30.6561   46.1211 H   0  0  0  0  0  0  0  0  0  0  0  0
   39.2071   29.6394   46.6534 H   0  0  0  0  0  0  0  0  0  0  0  0
   37.9200   33.0253   48.0564 H   0  0  0  0  0  0  0  0  0  0  0  0
   37.0059   33.2169   49.5305 H   0  0  0  0  0  0  0  0  0  0  0  0
   39.5389   31.5469   49.0158 H   0  0  0  0  0  0  0  0  0  0  0  0
   39.2215   32.5806   50.3997 H   0  0  0  0  0  0  0  0  0  0  0  0
   38.6855   29.7517   50.1903 H   0  0  0  0  0  0  0  0  0  0  0  0
   38.1598   30.7735   51.5182 H   0  0  0  0  0  0  0  0  0  0  0  0
   36.0207   31.1314   50.5439 H   0  0  0  0  0  0  0  0  0  0  0  0
   36.3554   29.5775   49.7830 H   0  0  0  0  0  0  0  0  0  0  0  0
  2  1  2  0
  2 13  1  0
  3  2  1  0
  4  5  1  0
  4  3  2  0
  5  6  2  0
  6  1  1  0
  7  3  1  0
  7 12  1  0
  8  7  2  0
  9  8  1  0
  9 10  2  0
 10 11  1  0
 11 12  2  0
 13 14  1  0
 13 17  1  0
 14 15  1  0
 15 16  1  0
 17 16  1  0
  1 18  1  0
  5 19  1  0
  8 20  1  0
  9 21  1  0
 10 22  1  0
 11 23  1  0
 12 24  1  0
 14 25  1  0
 14 26  1  0
 15 27  1  0
 15 28  1  0
 16 29  1  0
 16 30  1  0
 17 31  1  0
 17 32  1  0
M  ISO  8  18  14  19  14  20  14  21  14  22  14  23  14  24  14  25  13
M  ISO  7  26  13  27  13  28  13  29  13  30  13  31  13  32  13
M  END
>  <minimizedAffinity>  (1) 
-5.31126642

>  <minimizedRMSD>  (1) 
3.29317808

$$$$
