
     RDKit          3D

 39 42  0  0  1  0  0  0  0  0999 V2000
   36.9710   31.5220   48.2780 N   0  0  0  0  0  0  0  0  0  0  0  0
   38.0850   32.4030   48.6820 C   0  0  0  0  0  0  0  0  0  0  0  0
   38.6980   31.6190   49.8350 C   0  0  0  0  0  0  0  0  0  0  0  0
   37.4980   31.0120   50.5100 C   0  0  0  0  0  0  0  0  0  0  0  0
   36.3420   31.2950   49.5750 C   0  0  2  0  0  0  0  0  0  0  0  0
   35.1490   30.4120   47.1990 C   0  0  0  0  0  0  0  0  0  0  0  0
   36.4680   30.9400   47.0870 C   0  0  0  0  0  0  0  0  0  0  0  0
   37.1150   30.8190   45.8560 C   0  0  0  0  0  0  0  0  0  0  0  0
   36.4580   30.2060   44.8320 N   0  0  0  0  0  0  0  0  0  0  0  0
   35.2110   29.7190   44.9760 C   0  0  0  0  0  0  0  0  0  0  0  0
   34.5650   29.8230   46.1490 N   0  0  0  0  0  0  0  0  0  0  0  0
   38.4440   31.3240   45.6480 C   0  0  0  0  0  0  0  0  0  0  0  0
   38.5880   32.6080   45.1730 C   0  0  0  0  0  0  0  0  0  0  0  0
   39.8270   33.1790   44.9430 C   0  0  0  0  0  0  0  0  0  0  0  0
   40.9450   32.4030   45.2120 C   0  0  0  0  0  0  0  0  0  0  0  0
   40.8630   31.1000   45.6930 C   0  0  0  0  0  0  0  0  0  0  0  0
   39.5760   30.5910   45.9000 C   0  0  0  0  0  0  0  0  0  0  0  0
   35.5730   30.0090   49.5450 C   0  0  0  0  0  0  0  0  0  0  0  0
   35.8110   28.6940   49.3280 C   0  0  0  0  0  0  0  0  0  0  0  0
   34.6400   27.9720   49.4460 C   0  0  0  0  0  0  0  0  0  0  0  0
   33.7060   28.8960   49.7400 N   0  0  0  0  0  0  0  0  0  0  0  0
   34.2350   30.1060   49.8040 N   0  0  0  0  0  0  0  0  0  0  0  0
   38.8057   32.5394   47.8622 H   0  0  0  0  0  0  0  0  0  0  0  0
   37.7720   33.4223   48.9523 H   0  0  0  0  0  0  0  0  0  0  0  0
   39.3793   30.8390   49.4642 H   0  0  0  0  0  0  0  0  0  0  0  0
   39.3039   32.2428   50.5086 H   0  0  0  0  0  0  0  0  0  0  0  0
   37.6341   29.9283   50.6405 H   0  0  0  0  0  0  0  0  0  0  0  0
   37.3313   31.4301   51.5137 H   0  0  0  0  0  0  0  0  0  0  0  0
   35.6944   32.1400   49.8515 H   0  0  0  0  0  0  0  0  0  0  0  0
   34.6081   30.4891   48.1537 H   0  0  0  0  0  0  0  0  0  0  0  0
   34.7159   29.2306   44.1237 H   0  0  0  0  0  0  0  0  0  0  0  0
   37.6848   33.2018   44.9688 H   0  0  0  0  0  0  0  0  0  0  0  0
   39.9218   34.2066   44.5623 H   0  0  0  0  0  0  0  0  0  0  0  0
   41.9405   32.8371   45.0373 H   0  0  0  0  0  0  0  0  0  0  0  0
   41.7625   30.5015   45.8997 H   0  0  0  0  0  0  0  0  0  0  0  0
   39.4679   29.5641   46.2792 H   0  0  0  0  0  0  0  0  0  0  0  0
   36.7951   28.2630   49.0918 H   0  0  0  0  0  0  0  0  0  0  0  0
   34.5015   26.8873   49.3268 H   0  0  0  0  0  0  0  0  0  0  0  0
   32.7093   28.6875   49.8949 H   0  0  0  0  0  0  0  0  0  0  0  0
  1  2  1  0
  1  5  1  0
  2  3  1  0
  3  4  1  0
  5  4  1  0
  7  6  2  0
  7  1  1  0
  8  7  1  0
  9 10  1  0
  9  8  2  0
 10 11  2  0
 11  6  1  0
 12  8  1  0
 12 17  1  0
 13 12  2  0
 14 13  1  0
 14 15  2  0
 15 16  1  0
 16 17  2  0
 18  5  1  0
 18 22  2  0
 19 20  2  0
 19 18  1  0
 20 21  1  0
 21 22  1  0
  2 23  1  0
  2 24  1  0
  3 25  1  0
  3 26  1  0
  4 27  1  0
  4 28  1  0
  5 29  1  1
  6 30  1  0
 10 31  1  0
 13 32  1  0
 14 33  1  0
 15 34  1  0
 16 35  1  0
 17 36  1  0
 19 37  1  0
 20 38  1  0
 21 39  1  0
M  ISO  8  23  13  24  13  25  13  26  13  27  13  28  13  29  13  30  14
M  ISO  8  31  14  32  14  33  14  34  14  35  14  36  14  37  14  38  14
M  ISO  1  39   9
M  END
>  <minimizedAffinity>  (1) 
-6.46016693

>  <minimizedRMSD>  (1) 
1.10025454

$$$$
