
     RDKit          3D

 11 11  0  0  0  0  0  0  0  0999 V2000
   37.3000   29.9920   51.1820 C   0  0  0  0  0  0  0  0  0  0  0  0
   37.9550   30.9180   50.3540 C   0  0  0  0  0  0  0  0  0  0  0  0
   37.2780   31.3910   49.2310 C   0  0  0  0  0  0  0  0  0  0  0  0
   36.0150   30.9280   48.9970 N   0  0  0  0  0  0  0  0  0  0  0  0
   35.4040   30.0300   49.8160 C   0  0  0  0  0  0  0  0  0  0  0  0
   36.0510   29.5750   50.8930 N   0  0  0  0  0  0  0  0  0  0  0  0
   38.0910   29.6100   52.2590 O   0  0  0  0  0  0  0  0  0  0  0  0
   38.9744   31.2607   50.5853 H   0  0  0  0  0  0  0  0  0  0  0  0
   37.7484   32.1174   48.5519 H   0  0  0  0  0  0  0  0  0  0  0  0
   34.3849   29.6810   49.5933 H   0  0  0  0  0  0  0  0  0  0  0  0
   37.7458   28.9594   52.9205 H   0  0  0  0  0  0  0  0  0  0  0  0
  1  7  1  0
  2  1  2  0
  3  2  1  0
  4  3  2  0
  4  5  1  0
  5  6  2  0
  6  1  1  0
  2  8  1  0
  3  9  1  0
  5 10  1  0
  7 11  1  0
M  ISO  4   8  14   9  14  10  14  11   3
M  END
>  <minimizedAffinity>  (1) 
-3.25489616

>  <minimizedRMSD>  (1) 
0.934880793

$$$$
