
     RDKit          3D

 25 26  0  0  0  0  0  0  0  0999 V2000
   38.0690   31.4810   47.6810 C   0  0  0  0  0  0  0  0  0  0  0  0
   37.1640   31.4840   48.7220 C   0  0  0  0  0  0  0  0  0  0  0  0
   37.3060   32.5770   49.5630 C   0  0  0  0  0  0  0  0  0  0  0  0
   38.2630   33.5650   49.3750 C   0  0  0  0  0  0  0  0  0  0  0  0
   39.1320   33.4660   48.2870 C   0  0  0  0  0  0  0  0  0  0  0  0
   39.0340   32.4040   47.4240 C   0  0  0  0  0  0  0  0  0  0  0  0
   35.0570   30.4210   48.0820 C   0  0  0  0  0  0  0  0  0  0  0  0
   36.1840   30.4820   48.9340 C   0  0  0  0  0  0  0  0  0  0  0  0
   36.2850   29.5350   49.9690 C   0  0  0  0  0  0  0  0  0  0  0  0
   35.2740   28.6110   50.0850 N   0  0  0  0  0  0  0  0  0  0  0  0
   34.2150   28.5900   49.2490 C   0  0  0  0  0  0  0  0  0  0  0  0
   34.0950   29.4950   48.2380 N   0  0  0  0  0  0  0  0  0  0  0  0
   37.4100   29.5060   50.8910 C   0  0  0  0  0  0  0  0  0  0  0  0
   38.5900   29.7650   50.1760 F   0  0  0  0  0  0  0  0  0  0  0  0
   37.5600   28.2270   51.3790 F   0  0  0  0  0  0  0  0  0  0  0  0
   37.3540   30.4580   51.8790 F   0  0  0  0  0  0  0  0  0  0  0  0
   38.0180   30.4110   46.7510 O   0  0  0  0  0  0  0  0  0  0  0  0
   39.9060   32.3150   46.3430 O   0  0  0  0  0  0  0  0  0  0  0  0
   36.6258   32.6659   50.4229 H   0  0  0  0  0  0  0  0  0  0  0  0
   38.3354   34.4126   50.0724 H   0  0  0  0  0  0  0  0  0  0  0  0
   39.8959   34.2400   48.1215 H   0  0  0  0  0  0  0  0  0  0  0  0
   34.9647   31.1536   47.2667 H   0  0  0  0  0  0  0  0  0  0  0  0
   33.4339   27.8277   49.3865 H   0  0  0  0  0  0  0  0  0  0  0  0
   38.6551   30.3825   45.9938 H   0  0  0  0  0  0  0  0  0  0  0  0
   40.5916   33.0150   46.2011 H   0  0  0  0  0  0  0  0  0  0  0  0
  1  2  2  0
  2  8  1  0
  2  3  1  0
  4  3  2  0
  5  4  1  0
  6  1  1  0
  6  5  2  0
  7 12  2  0
  7  8  1  0
  8  9  2  0
  9 10  1  0
  9 13  1  0
 11 10  2  0
 12 11  1  0
 13 15  1  0
 13 16  1  0
 14 13  1  0
 17  1  1  0
 18  6  1  0
  3 19  1  0
  4 20  1  0
  5 21  1  0
  7 22  1  0
 11 23  1  0
 17 24  1  0
 18 25  1  0
M  ISO  7  19  14  20  14  21  14  22  14  23  14  24   3  25   3
M  END
>  <minimizedAffinity>  (1) 
-6.21763945

>  <minimizedRMSD>  (1) 
1.86661017

$$$$
