
     RDKit          3D

 38 40  0  0  1  0  0  0  0  0999 V2000
   37.2450   31.3820   46.9310 C   0  0  0  0  0  0  0  0  0  0  0  0
   36.9690   30.9680   48.2370 C   0  0  0  0  0  0  0  0  0  0  0  0
   37.7810   31.5500   49.2070 C   0  0  0  0  0  0  0  0  0  0  0  0
   38.7790   32.4670   48.8590 C   0  0  0  0  0  0  0  0  0  0  0  0
   38.9700   32.8090   47.5280 C   0  0  0  0  0  0  0  0  0  0  0  0
   38.1920   32.2580   46.5450 C   0  0  0  0  0  0  0  0  0  0  0  0
   34.7540   29.9890   47.8690 C   0  0  0  0  0  0  0  0  0  0  0  0
   35.9440   30.0290   48.5810 C   0  0  0  0  0  0  0  0  0  0  0  0
   36.0860   29.1180   49.6340 C   0  0  0  0  0  0  0  0  0  0  0  0
   35.0610   28.2600   49.8930 N   0  0  0  0  0  0  0  0  0  0  0  0
   33.9250   28.2610   49.1720 C   0  0  0  0  0  0  0  0  0  0  0  0
   33.7730   29.1210   48.1650 N   0  0  0  0  0  0  0  0  0  0  0  0
   37.3340   29.1010   50.4450 C   0  0  0  0  0  0  0  0  0  0  0  0
   36.4610   30.8310   45.8950 O   0  0  0  0  0  0  0  0  0  0  0  0
   38.3990   32.6110   45.2360 O   0  0  0  0  0  0  0  0  0  0  0  0
   39.7940   30.7670   44.6550 C   0  0  1  0  0  0  0  0  0  0  0  0
   39.4800   32.2370   44.4380 C   0  0  1  0  0  0  0  0  0  0  0  0
   39.0000   32.2730   43.1040 O   0  0  0  0  0  0  0  0  0  0  0  0
   40.0580   31.6070   42.4670 C   0  0  0  0  0  0  0  0  0  0  0  0
   40.0900   30.2990   43.2550 C   0  0  1  0  0  0  0  0  0  0  0  0
   40.8620   30.5510   45.5000 O   0  0  0  0  0  0  0  0  0  0  0  0
   41.3360   29.6800   43.1580 O   0  0  0  0  0  0  0  0  0  0  0  0
   37.6355   31.2845   50.2645 H   0  0  0  0  0  0  0  0  0  0  0  0
   39.4110   32.9160   49.6394 H   0  0  0  0  0  0  0  0  0  0  0  0
   39.7553   33.5309   47.2593 H   0  0  0  0  0  0  0  0  0  0  0  0
   34.6093   30.6912   47.0348 H   0  0  0  0  0  0  0  0  0  0  0  0
   33.1204   27.5510   49.4139 H   0  0  0  0  0  0  0  0  0  0  0  0
   37.0764   29.1045   51.5144 H   0  0  0  0  0  0  0  0  0  0  0  0
   37.9117   28.1949   50.2100 H   0  0  0  0  0  0  0  0  0  0  0  0
   37.9362   29.9910   50.2100 H   0  0  0  0  0  0  0  0  0  0  0  0
   36.6240   31.0976   44.9556 H   0  0  0  0  0  0  0  0  0  0  0  0
   38.9720   30.2289   45.1496 H   0  0  0  0  0  0  0  0  0  0  0  0
   40.3456   32.8807   44.6534 H   0  0  0  0  0  0  0  0  0  0  0  0
   39.8439   31.4328   41.4022 H   0  0  0  0  0  0  0  0  0  0  0  0
   41.0086   32.1604   42.4650 H   0  0  0  0  0  0  0  0  0  0  0  0
   39.3807   29.5398   42.8935 H   0  0  0  0  0  0  0  0  0  0  0  0
   40.5570   30.6127   46.4398 H   0  0  0  0  0  0  0  0  0  0  0  0
   41.6890   29.5047   44.0662 H   0  0  0  0  0  0  0  0  0  0  0  0
  1  2  2  0
  2  8  1  0
  2  3  1  0
  4  3  2  0
  5  4  1  0
  6  1  1  0
  6  5  2  0
  7 12  2  0
  7  8  1  0
  8  9  2  0
  9 10  1  0
  9 13  1  0
 11 10  2  0
 12 11  1  0
 14  1  1  0
 15  6  1  0
 16 21  1  0
 17 16  1  0
 17 15  1  0
 18 17  1  0
 19 18  1  0
 19 20  1  0
 20 22  1  0
 20 16  1  0
  3 23  1  0
  4 24  1  0
  5 25  1  0
  7 26  1  0
 11 27  1  0
 13 28  1  0
 13 29  1  0
 13 30  1  0
 14 31  1  0
 16 32  1  1
 17 33  1  6
 19 34  1  0
 19 35  1  0
 20 36  1  6
 21 37  1  0
 22 38  1  0
M  ISO  8  23  14  24  14  25  14  26  14  27  14  28   8  29   8  30   8
M  ISO  8  31   3  32  13  33  13  34  13  35  13  36  13  37   3  38   3
M  END
>  <minimizedAffinity>  (1) 
-6.98751402

>  <minimizedRMSD>  (1) 
3.01288104

$$$$
