
     RDKit          3D

 35 37  0  0  0  0  0  0  0  0999 V2000
   37.8890   31.2890   48.0320 C   0  0  0  0  0  0  0  0  0  0  0  0
   36.8080   31.2510   48.8990 C   0  0  0  0  0  0  0  0  0  0  0  0
   36.7280   32.3390   49.7700 C   0  0  0  0  0  0  0  0  0  0  0  0
   37.6790   33.3710   49.7440 C   0  0  0  0  0  0  0  0  0  0  0  0
   38.7320   33.3090   48.8270 C   0  0  0  0  0  0  0  0  0  0  0  0
   38.8370   32.2480   47.9560 C   0  0  0  0  0  0  0  0  0  0  0  0
   34.7640   30.2110   48.0270 C   0  0  0  0  0  0  0  0  0  0  0  0
   35.8400   30.1950   48.9190 C   0  0  0  0  0  0  0  0  0  0  0  0
   35.9330   29.1290   49.8160 C   0  0  0  0  0  0  0  0  0  0  0  0
   34.9630   28.1690   49.7630 N   0  0  0  0  0  0  0  0  0  0  0  0
   33.9380   28.2230   48.8820 C   0  0  0  0  0  0  0  0  0  0  0  0
   33.8360   29.2440   48.0130 N   0  0  0  0  0  0  0  0  0  0  0  0
   37.0390   29.0540   50.7790 C   0  0  0  0  0  0  0  0  0  0  0  0
   38.0510   30.2190   47.1110 O   0  0  0  0  0  0  0  0  0  0  0  0
   39.8910   32.2390   47.0760 O   0  0  0  0  0  0  0  0  0  0  0  0
   38.7550   32.6960   43.5930 N   0  0  0  0  0  0  0  0  0  0  0  0
   38.7150   32.8630   44.9220 C   0  0  0  0  0  0  0  0  0  0  0  0
   39.6600   32.2660   45.7190 C   0  0  0  0  0  0  0  0  0  0  0  0
   40.6340   31.4990   45.0820 C   0  0  0  0  0  0  0  0  0  0  0  0
   41.5920   30.8640   45.5960 O   0  0  0  0  0  0  0  0  0  0  0  0
   40.6530   31.3440   43.7260 N   0  0  0  0  0  0  0  0  0  0  0  0
   39.6890   31.9590   42.9800 C   0  0  0  0  0  0  0  0  0  0  0  0
   39.5640   31.9190   41.7380 O   0  0  0  0  0  0  0  0  0  0  0  0
   35.9007   32.3887   50.4933 H   0  0  0  0  0  0  0  0  0  0  0  0
   37.5964   34.2201   50.4384 H   0  0  0  0  0  0  0  0  0  0  0  0
   39.4819   34.1134   48.8011 H   0  0  0  0  0  0  0  0  0  0  0  0
   34.6760   31.0438   47.3137 H   0  0  0  0  0  0  0  0  0  0  0  0
   33.1813   27.4247   48.8764 H   0  0  0  0  0  0  0  0  0  0  0  0
   36.6366   29.0813   51.8024 H   0  0  0  0  0  0  0  0  0  0  0  0
   37.5937   28.1162   50.6280 H   0  0  0  0  0  0  0  0  0  0  0  0
   37.7152   29.9084   50.6280 H   0  0  0  0  0  0  0  0  0  0  0  0
   38.8140   30.2201   46.4802 H   0  0  0  0  0  0  0  0  0  0  0  0
   38.0348   33.1553   43.0175 H   0  0  0  0  0  0  0  0  0  0  0  0
   37.9242   33.4791   45.3748 H   0  0  0  0  0  0  0  0  0  0  0  0
   41.3815   30.7733   43.2737 H   0  0  0  0  0  0  0  0  0  0  0  0
  1  2  2  0
  2  8  1  0
  2  3  1  0
  4  3  2  0
  5  4  1  0
  6  1  1  0
  6  5  2  0
  7  8  2  0
  8  9  1  0
  9 13  1  0
 10  9  2  0
 11 10  1  0
 12  7  1  0
 12 11  2  0
 14  1  1  0
 15  6  1  0
 16 17  1  0
 17 18  2  0
 18 15  1  0
 19 20  2  0
 19 18  1  0
 21 19  1  0
 22 16  1  0
 22 21  1  0
 23 22  2  0
  3 24  1  0
  4 25  1  0
  5 26  1  0
  7 27  1  0
 11 28  1  0
 13 29  1  0
 13 30  1  0
 13 31  1  0
 14 32  1  0
 16 33  1  0
 17 34  1  0
 21 35  1  0
M  ISO  8  24  14  25  14  26  14  27  14  28  14  29   8  30   8  31   8
M  ISO  4  32   3  33   9  34  14  35   9
M  END
>  <minimizedAffinity>  (1) 
-6.68224859

>  <minimizedRMSD>  (1) 
0.687202811

$$$$
