
     RDKit          3D

 38 40  0  0  1  0  0  0  0  0999 V2000
   38.1410   31.3550   47.8950 C   0  0  0  0  0  0  0  0  0  0  0  0
   37.2830   31.5910   48.9750 C   0  0  0  0  0  0  0  0  0  0  0  0
   37.4920   32.7980   49.6440 C   0  0  0  0  0  0  0  0  0  0  0  0
   38.5020   33.6780   49.2270 C   0  0  0  0  0  0  0  0  0  0  0  0
   39.3050   33.3550   48.1420 C   0  0  0  0  0  0  0  0  0  0  0  0
   39.1210   32.1750   47.4630 C   0  0  0  0  0  0  0  0  0  0  0  0
   35.1230   30.4880   48.5740 C   0  0  0  0  0  0  0  0  0  0  0  0
   36.2560   30.6780   49.3850 C   0  0  0  0  0  0  0  0  0  0  0  0
   36.3300   29.9550   50.5730 C   0  0  0  0  0  0  0  0  0  0  0  0
   35.3090   29.1070   50.8880 N   0  0  0  0  0  0  0  0  0  0  0  0
   34.2300   28.9570   50.0670 C   0  0  0  0  0  0  0  0  0  0  0  0
   34.1430   29.6390   48.9280 N   0  0  0  0  0  0  0  0  0  0  0  0
   37.4970   30.1150   51.4680 C   0  0  0  0  0  0  0  0  0  0  0  0
   37.9870   30.1630   47.1790 O   0  0  0  0  0  0  0  0  0  0  0  0
   39.9300   31.8890   46.3950 O   0  0  0  0  0  0  0  0  0  0  0  0
   40.4290   31.4310   44.2160 N   0  0  0  0  0  0  0  0  0  0  0  0
   39.8120   32.3960   45.1060 C   0  0  1  0  0  0  0  0  0  0  0  0
   38.3470   32.5990   44.7920 C   0  0  0  0  0  0  0  0  0  0  0  0
   38.0690   32.6410   43.4450 O   0  0  0  0  0  0  0  0  0  0  0  0
   38.5830   31.5680   42.7380 C   0  0  0  0  0  0  0  0  0  0  0  0
   40.1000   31.6790   42.8300 C   0  0  0  0  0  0  0  0  0  0  0  0
   36.8599   33.0613   50.5049 H   0  0  0  0  0  0  0  0  0  0  0  0
   38.6579   34.6267   49.7615 H   0  0  0  0  0  0  0  0  0  0  0  0
   40.0957   34.0500   47.8230 H   0  0  0  0  0  0  0  0  0  0  0  0
   35.0370   31.0460   47.6299 H   0  0  0  0  0  0  0  0  0  0  0  0
   33.4232   28.2648   50.3497 H   0  0  0  0  0  0  0  0  0  0  0  0
   37.1646   30.0694   52.5156 H   0  0  0  0  0  0  0  0  0  0  0  0
   38.2191   29.3074   51.2769 H   0  0  0  0  0  0  0  0  0  0  0  0
   37.9751   31.0871   51.2769 H   0  0  0  0  0  0  0  0  0  0  0  0
   38.5789   29.9676   46.4099 H   0  0  0  0  0  0  0  0  0  0  0  0
   41.4515   31.4821   44.3286 H   0  0  0  0  0  0  0  0  0  0  0  0
   40.3106   33.3697   44.9908 H   0  0  0  0  0  0  0  0  0  0  0  0
   37.7784   31.7696   45.2379 H   0  0  0  0  0  0  0  0  0  0  0  0
   38.0621   33.5763   45.2089 H   0  0  0  0  0  0  0  0  0  0  0  0
   38.2611   31.6155   41.6872 H   0  0  0  0  0  0  0  0  0  0  0  0
   38.2274   30.6120   43.1499 H   0  0  0  0  0  0  0  0  0  0  0  0
   40.5790   30.9298   42.1825 H   0  0  0  0  0  0  0  0  0  0  0  0
   40.4548   32.6664   42.4997 H   0  0  0  0  0  0  0  0  0  0  0  0
  1  2  2  0
  2  8  1  0
  2  3  1  0
  4  3  2  0
  5  4  1  0
  6  1  1  0
  6  5  2  0
  7 12  2  0
  7  8  1  0
  8  9  2  0
  9 10  1  0
  9 13  1  0
 11 10  2  0
 12 11  1  0
 14  1  1  0
 15  6  1  0
 16 17  1  0
 17 15  1  0
 18 17  1  0
 19 18  1  0
 20 21  1  0
 20 19  1  0
 21 16  1  0
  3 22  1  0
  4 23  1  0
  5 24  1  0
  7 25  1  0
 11 26  1  0
 13 27  1  0
 13 28  1  0
 13 29  1  0
 14 30  1  0
 16 31  1  0
 17 32  1  1
 18 33  1  0
 18 34  1  0
 20 35  1  0
 20 36  1  0
 21 37  1  0
 21 38  1  0
M  ISO  8  22  14  23  14  24  14  25  14  26  14  27   8  28   8  29   8
M  ISO  8  30   3  31   5  32  13  33  13  34  13  35  13  36  13  37  13
M  ISO  1  38  13
M  END
>  <minimizedAffinity>  (1) 
-6.55011654

>  <minimizedRMSD>  (1) 
2.68003893

$$$$
