
     RDKit          3D

 40 42  0  0  0  0  0  0  0  0999 V2000
   38.0730   31.4170   47.8930 C   0  0  0  0  0  0  0  0  0  0  0  0
   37.2390   31.5870   48.9920 C   0  0  0  0  0  0  0  0  0  0  0  0
   37.4540   32.7720   49.7180 C   0  0  0  0  0  0  0  0  0  0  0  0
   38.4510   33.6760   49.3160 C   0  0  0  0  0  0  0  0  0  0  0  0
   39.2300   33.4080   48.1990 C   0  0  0  0  0  0  0  0  0  0  0  0
   39.0400   32.2600   47.4740 C   0  0  0  0  0  0  0  0  0  0  0  0
   35.1040   30.4460   48.5690 C   0  0  0  0  0  0  0  0  0  0  0  0
   36.2270   30.6510   49.3840 C   0  0  0  0  0  0  0  0  0  0  0  0
   36.3090   29.9200   50.5660 C   0  0  0  0  0  0  0  0  0  0  0  0
   35.2960   29.0540   50.8570 N   0  0  0  0  0  0  0  0  0  0  0  0
   34.2330   28.8820   50.0510 C   0  0  0  0  0  0  0  0  0  0  0  0
   34.1350   29.5810   48.9030 N   0  0  0  0  0  0  0  0  0  0  0  0
   37.4640   30.0890   51.4650 C   0  0  0  0  0  0  0  0  0  0  0  0
   37.9150   30.2530   47.1180 O   0  0  0  0  0  0  0  0  0  0  0  0
   39.8240   32.0270   46.3740 O   0  0  0  0  0  0  0  0  0  0  0  0
   38.7780   30.3230   44.1020 N   0  0  0  0  0  0  0  0  0  0  0  0
   38.0980   31.5370   43.7490 C   0  0  0  0  0  0  0  0  0  0  0  0
   38.2840   32.6630   44.7330 C   0  0  0  0  0  0  0  0  0  0  0  0
   39.7280   32.7700   45.2080 C   0  0  0  0  0  0  0  0  0  0  0  0
   40.5420   31.9800   44.1560 C   0  0  0  0  0  0  0  0  0  0  0  0
   40.1790   30.5280   44.4130 C   0  0  0  0  0  0  0  0  0  0  0  0
   36.8395   32.9916   50.6035 H   0  0  0  0  0  0  0  0  0  0  0  0
   38.6151   34.6005   49.8890 H   0  0  0  0  0  0  0  0  0  0  0  0
   40.0072   34.1235   47.8925 H   0  0  0  0  0  0  0  0  0  0  0  0
   35.0155   31.0107   47.6292 H   0  0  0  0  0  0  0  0  0  0  0  0
   33.4424   28.1696   50.3293 H   0  0  0  0  0  0  0  0  0  0  0  0
   37.1253   30.0394   52.5104 H   0  0  0  0  0  0  0  0  0  0  0  0
   38.1945   29.2882   51.2779 H   0  0  0  0  0  0  0  0  0  0  0  0
   37.9345   31.0655   51.2779 H   0  0  0  0  0  0  0  0  0  0  0  0
   38.4931   30.1016   46.3287 H   0  0  0  0  0  0  0  0  0  0  0  0
   38.7100   29.6669   43.3109 H   0  0  0  0  0  0  0  0  0  0  0  0
   38.4738   31.8698   42.7702 H   0  0  0  0  0  0  0  0  0  0  0  0
   37.0232   31.3033   43.7386 H   0  0  0  0  0  0  0  0  0  0  0  0
   37.9977   33.6087   44.2495 H   0  0  0  0  0  0  0  0  0  0  0  0
   37.6513   32.4580   45.6092 H   0  0  0  0  0  0  0  0  0  0  0  0
   40.0561   33.8105   45.3481 H   0  0  0  0  0  0  0  0  0  0  0  0
   41.6209   32.1425   44.2959 H   0  0  0  0  0  0  0  0  0  0  0  0
   40.3147   32.2940   43.1266 H   0  0  0  0  0  0  0  0  0  0  0  0
   40.3601   30.2854   45.4705 H   0  0  0  0  0  0  0  0  0  0  0  0
   40.7970   29.8755   43.7787 H   0  0  0  0  0  0  0  0  0  0  0  0
  1  2  2  0
  2  8  1  0
  2  3  1  0
  4  3  2  0
  5  4  1  0
  6  1  1  0
  6  5  2  0
  7 12  2  0
  7  8  1  0
  8  9  2  0
  9 10  1  0
  9 13  1  0
 11 10  2  0
 12 11  1  0
 14  1  1  0
 15  6  1  0
 16 21  1  0
 17 16  1  0
 17 18  1  0
 18 19  1  0
 19 15  1  0
 20 21  1  0
 20 19  1  0
  3 22  1  0
  4 23  1  0
  5 24  1  0
  7 25  1  0
 11 26  1  0
 13 27  1  0
 13 28  1  0
 13 29  1  0
 14 30  1  0
 16 31  1  0
 17 32  1  0
 17 33  1  0
 18 34  1  0
 18 35  1  0
 19 36  1  0
 20 37  1  0
 20 38  1  0
 21 39  1  0
 21 40  1  0
M  ISO  8  22  14  23  14  24  14  25  14  26  14  27   8  28   8  29   8
M  ISO  8  30   3  31   5  32  13  33  13  34  13  35  13  36  13  37  13
M  ISO  3  38  13  39  13  40  13
M  END
>  <minimizedAffinity>  (1) 
-6.54227257

>  <minimizedRMSD>  (1) 
2.4636085

$$$$
