
     RDKit          3D

 41 44  0  0  0  0  0  0  0  0999 V2000
   38.1600   31.3990   47.9600 C   0  0  0  0  0  0  0  0  0  0  0  0
   37.2580   31.5880   49.0030 C   0  0  0  0  0  0  0  0  0  0  0  0
   37.4270   32.8130   49.6700 C   0  0  0  0  0  0  0  0  0  0  0  0
   38.4080   33.7350   49.3080 C   0  0  0  0  0  0  0  0  0  0  0  0
   39.2670   33.4390   48.2350 C   0  0  0  0  0  0  0  0  0  0  0  0
   39.1240   32.2320   47.5540 C   0  0  0  0  0  0  0  0  0  0  0  0
   35.1600   30.4420   48.5310 C   0  0  0  0  0  0  0  0  0  0  0  0
   36.2620   30.6560   49.3720 C   0  0  0  0  0  0  0  0  0  0  0  0
   36.3220   29.9240   50.5560 C   0  0  0  0  0  0  0  0  0  0  0  0
   35.3190   29.0460   50.8360 N   0  0  0  0  0  0  0  0  0  0  0  0
   34.2650   28.8740   49.9810 C   0  0  0  0  0  0  0  0  0  0  0  0
   34.1920   29.5620   48.8510 N   0  0  0  0  0  0  0  0  0  0  0  0
   37.4620   30.1090   51.4830 C   0  0  0  0  0  0  0  0  0  0  0  0
   38.0850   30.2160   47.2250 O   0  0  0  0  0  0  0  0  0  0  0  0
   40.0040   32.0150   46.5150 O   0  0  0  0  0  0  0  0  0  0  0  0
   40.3320   31.1300   44.2180 C   0  0  0  0  0  0  0  0  0  0  0  0
   39.6840   31.8580   45.2000 C   0  0  0  0  0  0  0  0  0  0  0  0
   38.5230   32.5610   44.8610 C   0  0  0  0  0  0  0  0  0  0  0  0
   38.0330   32.5230   43.5550 C   0  0  0  0  0  0  0  0  0  0  0  0
   36.9830   33.0670   42.9260 N   0  0  0  0  0  0  0  0  0  0  0  0
   36.9650   32.7090   41.6360 C   0  0  0  0  0  0  0  0  0  0  0  0
   38.0470   31.9060   41.4350 N   0  0  0  0  0  0  0  0  0  0  0  0
   38.7230   31.7770   42.6100 C   0  0  0  0  0  0  0  0  0  0  0  0
   39.8600   31.0860   42.9330 C   0  0  0  0  0  0  0  0  0  0  0  0
   40.5780   30.2970   41.9090 C   0  0  0  0  0  0  0  0  0  0  0  0
   39.7700   29.2900   41.3900 F   0  0  0  0  0  0  0  0  0  0  0  0
   40.9860   31.0800   40.8570 F   0  0  0  0  0  0  0  0  0  0  0  0
   41.6480   29.6280   42.4960 F   0  0  0  0  0  0  0  0  0  0  0  0
   36.7594   33.0539   50.5104 H   0  0  0  0  0  0  0  0  0  0  0  0
   38.5089   34.6836   49.8558 H   0  0  0  0  0  0  0  0  0  0  0  0
   40.0463   34.1552   47.9354 H   0  0  0  0  0  0  0  0  0  0  0  0
   35.0847   31.0054   47.5892 H   0  0  0  0  0  0  0  0  0  0  0  0
   33.4700   28.1572   50.2342 H   0  0  0  0  0  0  0  0  0  0  0  0
   37.1035   30.0508   52.5213 H   0  0  0  0  0  0  0  0  0  0  0  0
   38.2085   29.3203   51.3081 H   0  0  0  0  0  0  0  0  0  0  0  0
   37.9208   31.0933   51.3081 H   0  0  0  0  0  0  0  0  0  0  0  0
   38.7148   30.0566   46.4780 H   0  0  0  0  0  0  0  0  0  0  0  0
   41.2460   30.5745   44.4748 H   0  0  0  0  0  0  0  0  0  0  0  0
   37.9940   33.1464   45.6274 H   0  0  0  0  0  0  0  0  0  0  0  0
   36.2846   33.6775   43.3737 H   0  0  0  0  0  0  0  0  0  0  0  0
   36.2199   33.0061   40.8833 H   0  0  0  0  0  0  0  0  0  0  0  0
  1  2  2  0
  2  8  1  0
  2  3  1  0
  4  3  2  0
  5  4  1  0
  6  1  1  0
  6  5  2  0
  7 12  2  0
  7  8  1  0
  8  9  2  0
  9 10  1  0
  9 13  1  0
 11 10  2  0
 12 11  1  0
 14  1  1  0
 15  6  1  0
 16 17  2  0
 17 15  1  0
 18 17  1  0
 19 18  2  0
 20 19  1  0
 21 20  1  0
 22 21  2  0
 22 23  1  0
 23 24  2  0
 23 19  1  0
 24 16  1  0
 25 28  1  0
 25 24  1  0
 26 25  1  0
 27 25  1  0
  3 29  1  0
  4 30  1  0
  5 31  1  0
  7 32  1  0
 11 33  1  0
 13 34  1  0
 13 35  1  0
 13 36  1  0
 14 37  1  0
 16 38  1  0
 18 39  1  0
 20 40  1  0
 21 41  1  0
M  ISO  8  29  14  30  14  31  14  32  14  33  14  34   8  35   8  36   8
M  ISO  5  37   3  38  14  39  14  40   9  41  14
M  END
>  <minimizedAffinity>  (1) 
-7.57417154

>  <minimizedRMSD>  (1) 
0.788009405

$$$$
