
     RDKit          3D

 41 44  0  0  0  0  0  0  0  0999 V2000
   38.0890   31.3290   47.8100 C   0  0  0  0  0  0  0  0  0  0  0  0
   37.1080   31.3250   48.7770 C   0  0  0  0  0  0  0  0  0  0  0  0
   37.1460   32.4440   49.6330 C   0  0  0  0  0  0  0  0  0  0  0  0
   38.1050   33.4540   49.4920 C   0  0  0  0  0  0  0  0  0  0  0  0
   39.0620   33.3490   48.4630 C   0  0  0  0  0  0  0  0  0  0  0  0
   39.0360   32.2540   47.6130 C   0  0  0  0  0  0  0  0  0  0  0  0
   34.9860   30.3070   48.1060 C   0  0  0  0  0  0  0  0  0  0  0  0
   36.1240   30.2990   48.9290 C   0  0  0  0  0  0  0  0  0  0  0  0
   36.2490   29.2770   49.8730 C   0  0  0  0  0  0  0  0  0  0  0  0
   35.2680   28.3450   49.9480 N   0  0  0  0  0  0  0  0  0  0  0  0
   34.1730   28.3810   49.1320 C   0  0  0  0  0  0  0  0  0  0  0  0
   34.0390   29.3510   48.2250 N   0  0  0  0  0  0  0  0  0  0  0  0
   37.4270   29.2240   50.7630 C   0  0  0  0  0  0  0  0  0  0  0  0
   38.1310   30.2550   46.9110 O   0  0  0  0  0  0  0  0  0  0  0  0
   40.0040   32.2320   46.6380 O   0  0  0  0  0  0  0  0  0  0  0  0
   40.4970   31.0900   44.4700 C   0  0  0  0  0  0  0  0  0  0  0  0
   39.8360   31.9670   45.3040 C   0  0  0  0  0  0  0  0  0  0  0  0
   38.8060   32.7550   44.7750 C   0  0  0  0  0  0  0  0  0  0  0  0
   38.4430   32.6620   43.4160 C   0  0  0  0  0  0  0  0  0  0  0  0
   37.5370   33.2520   42.6280 N   0  0  0  0  0  0  0  0  0  0  0  0
   37.6290   32.7730   41.3780 C   0  0  0  0  0  0  0  0  0  0  0  0
   38.6280   31.8480   41.3810 N   0  0  0  0  0  0  0  0  0  0  0  0
   39.1410   31.7680   42.6350 C   0  0  0  0  0  0  0  0  0  0  0  0
   40.1610   30.9810   43.1400 C   0  0  0  0  0  0  0  0  0  0  0  0
   40.9310   30.0100   42.3250 C   0  0  0  0  0  0  0  0  0  0  0  0
   36.3992   32.5262   50.4365 H   0  0  0  0  0  0  0  0  0  0  0  0
   38.1114   34.3168   50.1743 H   0  0  0  0  0  0  0  0  0  0  0  0
   39.8250   34.1310   48.3349 H   0  0  0  0  0  0  0  0  0  0  0  0
   34.8643   31.1016   47.3551 H   0  0  0  0  0  0  0  0  0  0  0  0
   33.3974   27.6063   49.2229 H   0  0  0  0  0  0  0  0  0  0  0  0
   37.0952   29.2389   51.8117 H   0  0  0  0  0  0  0  0  0  0  0  0
   37.9911   28.2996   50.5700 H   0  0  0  0  0  0  0  0  0  0  0  0
   38.0718   30.0940   50.5700 H   0  0  0  0  0  0  0  0  0  0  0  0
   38.8237   30.2279   46.2042 H   0  0  0  0  0  0  0  0  0  0  0  0
   41.3075   30.4663   44.8752 H   0  0  0  0  0  0  0  0  0  0  0  0
   38.2715   33.4580   45.4308 H   0  0  0  0  0  0  0  0  0  0  0  0
   36.8660   33.9700   42.9363 H   0  0  0  0  0  0  0  0  0  0  0  0
   37.0146   33.0708   40.5155 H   0  0  0  0  0  0  0  0  0  0  0  0
   41.4754   29.3235   42.9900 H   0  0  0  0  0  0  0  0  0  0  0  0
   40.2406   29.4352   41.6903 H   0  0  0  0  0  0  0  0  0  0  0  0
   41.6480   30.5513   41.6903 H   0  0  0  0  0  0  0  0  0  0  0  0
  1  2  2  0
  2  8  1  0
  2  3  1  0
  4  3  2  0
  5  4  1  0
  6  1  1  0
  6  5  2  0
  7 12  2  0
  7  8  1  0
  8  9  2  0
  9 10  1  0
  9 13  1  0
 11 10  2  0
 12 11  1  0
 14  1  1  0
 15  6  1  0
 16 17  2  0
 17 15  1  0
 18 17  1  0
 19 18  2  0
 20 19  1  0
 21 22  2  0
 21 20  1  0
 22 23  1  0
 23 24  2  0
 23 19  1  0
 24 16  1  0
 25 24  1  0
  3 26  1  0
  4 27  1  0
  5 28  1  0
  7 29  1  0
 11 30  1  0
 13 31  1  0
 13 32  1  0
 13 33  1  0
 14 34  1  0
 16 35  1  0
 18 36  1  0
 20 37  1  0
 21 38  1  0
 25 39  1  0
 25 40  1  0
 25 41  1  0
M  ISO  8  26  14  27  14  28  14  29  14  30  14  31   8  32   8  33   8
M  ISO  8  34   3  35  14  36  14  37   9  38  14  39   8  40   8  41   8
M  END
>  <minimizedAffinity>  (1) 
-7.29453421

>  <minimizedRMSD>  (1) 
0.0981213301

$$$$
