
     RDKit          3D

 13 13  0  0  0  0  0  0  0  0999 V2000
   37.1870   31.0910   49.2390 C   0  0  0  0  0  0  0  0  0  0  0  0
   37.4160   32.4070   49.6860 C   0  0  0  0  0  0  0  0  0  0  0  0
   38.3230   33.1800   48.9600 C   0  0  0  0  0  0  0  0  0  0  0  0
   38.9270   32.6250   47.8760 N   0  0  0  0  0  0  0  0  0  0  0  0
   38.6900   31.3570   47.4660 C   0  0  0  0  0  0  0  0  0  0  0  0
   37.8210   30.6120   48.1600 N   0  0  0  0  0  0  0  0  0  0  0  0
   36.2690   30.4180   50.0340 O   0  0  0  0  0  0  0  0  0  0  0  0
   36.6920   29.7160   51.1640 C   0  0  0  0  0  0  0  0  0  0  0  0
   37.4700   29.9370   52.1480 O   0  0  0  0  0  0  0  0  0  0  0  0
   36.9010   32.8089   50.5710 H   0  0  0  0  0  0  0  0  0  0  0  0
   38.5443   34.2154   49.2582 H   0  0  0  0  0  0  0  0  0  0  0  0
   39.2004   30.9476   46.5817 H   0  0  0  0  0  0  0  0  0  0  0  0
   36.2370   28.7160   51.2186 H   0  0  0  0  0  0  0  0  0  0  0  0
  1  2  2  0
  1  7  1  0
  3  2  1  0
  4  3  2  0
  5  4  1  0
  5  6  2  0
  6  1  1  0
  7  8  1  0
  8  9  2  0
  2 10  1  0
  3 11  1  0
  5 12  1  0
  8 13  1  0
M  ISO  4  10  14  11  14  12  14  13   6
M  END
>  <minimizedAffinity>  (1) 
-3.46830559

>  <minimizedRMSD>  (1) 
2.98462224

$$$$
