
     RDKit          3D

 39 42  0  0  0  0  0  0  0  0999 V2000
   38.0850   31.3190   47.7930 C   0  0  0  0  0  0  0  0  0  0  0  0
   37.1030   31.3170   48.7550 C   0  0  0  0  0  0  0  0  0  0  0  0
   37.1430   32.4360   49.6190 C   0  0  0  0  0  0  0  0  0  0  0  0
   38.1150   33.4450   49.4780 C   0  0  0  0  0  0  0  0  0  0  0  0
   39.0770   33.3350   48.4470 C   0  0  0  0  0  0  0  0  0  0  0  0
   39.0460   32.2410   47.5940 C   0  0  0  0  0  0  0  0  0  0  0  0
   34.9810   30.3040   48.0890 C   0  0  0  0  0  0  0  0  0  0  0  0
   36.1180   30.3040   48.9050 C   0  0  0  0  0  0  0  0  0  0  0  0
   36.2440   29.2800   49.8580 C   0  0  0  0  0  0  0  0  0  0  0  0
   35.2550   28.3460   49.9360 N   0  0  0  0  0  0  0  0  0  0  0  0
   34.1660   28.3900   49.1200 C   0  0  0  0  0  0  0  0  0  0  0  0
   34.0320   29.3560   48.2100 N   0  0  0  0  0  0  0  0  0  0  0  0
   37.4310   29.2320   50.7470 C   0  0  0  0  0  0  0  0  0  0  0  0
   38.1230   30.2510   46.8950 O   0  0  0  0  0  0  0  0  0  0  0  0
   40.0110   32.2150   46.6260 O   0  0  0  0  0  0  0  0  0  0  0  0
   40.4800   31.0580   44.4490 C   0  0  0  0  0  0  0  0  0  0  0  0
   39.8380   31.9470   45.2880 C   0  0  0  0  0  0  0  0  0  0  0  0
   38.8260   32.7500   44.7640 C   0  0  0  0  0  0  0  0  0  0  0  0
   38.4690   32.6550   43.4130 C   0  0  0  0  0  0  0  0  0  0  0  0
   37.5720   33.2600   42.6190 N   0  0  0  0  0  0  0  0  0  0  0  0
   37.6390   32.7870   41.3610 C   0  0  0  0  0  0  0  0  0  0  0  0
   38.6200   31.8480   41.3720 N   0  0  0  0  0  0  0  0  0  0  0  0
   39.1440   31.7460   42.6120 C   0  0  0  0  0  0  0  0  0  0  0  0
   40.1450   30.9500   43.1240 C   0  0  0  0  0  0  0  0  0  0  0  0
   41.0300   29.7800   42.1360 S   0  0  0  0  0  0  0  0  0  0  0  0
   36.3956   32.5203   50.4217 H   0  0  0  0  0  0  0  0  0  0  0  0
   38.1260   34.3074   50.1607 H   0  0  0  0  0  0  0  0  0  0  0  0
   39.8453   34.1122   48.3221 H   0  0  0  0  0  0  0  0  0  0  0  0
   34.8600   31.0943   47.3335 H   0  0  0  0  0  0  0  0  0  0  0  0
   33.3868   27.6191   49.2124 H   0  0  0  0  0  0  0  0  0  0  0  0
   37.1035   29.2452   51.7970 H   0  0  0  0  0  0  0  0  0  0  0  0
   37.9985   28.3102   50.5515 H   0  0  0  0  0  0  0  0  0  0  0  0
   38.0711   30.1050   50.5515 H   0  0  0  0  0  0  0  0  0  0  0  0
   38.8173   30.2216   46.1899 H   0  0  0  0  0  0  0  0  0  0  0  0
   41.2800   30.4207   44.8537 H   0  0  0  0  0  0  0  0  0  0  0  0
   38.3034   33.4643   45.4172 H   0  0  0  0  0  0  0  0  0  0  0  0
   36.9175   33.9912   42.9318 H   0  0  0  0  0  0  0  0  0  0  0  0
   37.0261   33.0968   40.5017 H   0  0  0  0  0  0  0  0  0  0  0  0
   41.6938   28.9025   42.9522 H   0  0  0  0  0  0  0  0  0  0  0  0
  1  2  2  0
  2  8  1  0
  2  3  1  0
  4  3  2  0
  5  4  1  0
  6  1  1  0
  6  5  2  0
  7 12  2  0
  7  8  1  0
  8  9  2  0
  9 10  1  0
  9 13  1  0
 11 10  2  0
 12 11  1  0
 14  1  1  0
 15  6  1  0
 16 17  2  0
 17 15  1  0
 18 17  1  0
 19 18  2  0
 20 19  1  0
 21 22  2  0
 21 20  1  0
 22 23  1  0
 23 24  2  0
 23 19  1  0
 24 16  1  0
 25 24  1  0
  3 26  1  0
  4 27  1  0
  5 28  1  0
  7 29  1  0
 11 30  1  0
 13 31  1  0
 13 32  1  0
 13 33  1  0
 14 34  1  0
 16 35  1  0
 18 36  1  0
 20 37  1  0
 21 38  1  0
 25 39  1  0
M  ISO  8  26  14  27  14  28  14  29  14  30  14  31   8  32   8  33   8
M  ISO  6  34   3  35  14  36  14  37   9  38  14  39  11
M  END
>  <minimizedAffinity>  (1) 
-7.22479343

>  <minimizedRMSD>  (1) 
0.103033647

$$$$
