
     RDKit          3D

 16 16  0  0  0  0  0  0  0  0999 V2000
   37.3870   30.2420   51.4090 C   0  0  0  0  0  0  0  0  0  0  0  0
   38.0720   30.8950   50.3740 C   0  0  0  0  0  0  0  0  0  0  0  0
   37.7170   30.5980   49.0580 C   0  0  0  0  0  0  0  0  0  0  0  0
   36.7230   29.6890   48.8410 N   0  0  0  0  0  0  0  0  0  0  0  0
   36.0820   29.0760   49.8600 C   0  0  0  0  0  0  0  0  0  0  0  0
   36.4150   29.3550   51.1450 N   0  0  0  0  0  0  0  0  0  0  0  0
   38.3730   31.2250   47.8690 C   0  0  0  0  0  0  0  0  0  0  0  0
   38.7570   32.6700   48.2060 C   0  0  0  0  0  0  0  0  0  0  0  0
   37.6507   30.4604   52.4543 H   0  0  0  0  0  0  0  0  0  0  0  0
   38.8678   31.6218   50.5940 H   0  0  0  0  0  0  0  0  0  0  0  0
   35.2862   28.3471   49.6467 H   0  0  0  0  0  0  0  0  0  0  0  0
   37.6753   31.2189   47.0186 H   0  0  0  0  0  0  0  0  0  0  0  0
   39.2762   30.6559   47.6035 H   0  0  0  0  0  0  0  0  0  0  0  0
   38.7903   32.7953   49.2983 H   0  0  0  0  0  0  0  0  0  0  0  0
   39.7462   32.8952   47.7808 H   0  0  0  0  0  0  0  0  0  0  0  0
   38.0101   33.3566   47.7808 H   0  0  0  0  0  0  0  0  0  0  0  0
  2  1  2  0
  3  2  1  0
  4  3  2  0
  4  5  1  0
  5  6  2  0
  6  1  1  0
  7  8  1  0
  7  3  1  0
  1  9  1  0
  2 10  1  0
  5 11  1  0
  7 12  1  0
  7 13  1  0
  8 14  1  0
  8 15  1  0
  8 16  1  0
M  ISO  8   9  14  10  14  11  14  12   8  13   8  14   8  15   8  16   8
M  END
>  <minimizedAffinity>  (1) 
-3.63788152

>  <minimizedRMSD>  (1) 
0.75687784

$$$$
