
     RDKit          3D

 32 34  0  0  0  0  0  0  0  0999 V2000
   38.0490   30.5990   47.2960 C   0  0  0  0  0  0  0  0  0  0  0  0
   38.9420   31.3880   46.3850 C   0  0  0  0  0  0  0  0  0  0  0  0
   39.4540   32.6410   46.7220 C   0  0  0  0  0  0  0  0  0  0  0  0
   40.2840   33.2900   45.8370 C   0  0  0  0  0  0  0  0  0  0  0  0
   40.6500   32.7700   44.6140 C   0  0  0  0  0  0  0  0  0  0  0  0
   40.1420   31.5310   44.2800 C   0  0  0  0  0  0  0  0  0  0  0  0
   40.4930   31.0010   43.0560 C   0  0  0  0  0  0  0  0  0  0  0  0
   40.0070   29.7610   42.6620 C   0  0  0  0  0  0  0  0  0  0  0  0
   39.1650   29.0550   43.5100 C   0  0  0  0  0  0  0  0  0  0  0  0
   38.8400   29.6390   44.7390 C   0  0  0  0  0  0  0  0  0  0  0  0
   39.3100   30.8770   45.1610 C   0  0  0  0  0  0  0  0  0  0  0  0
   37.5450   31.5690   48.3640 C   0  0  0  0  0  0  0  0  0  0  0  0
   37.0500   29.8070   51.6890 C   0  0  0  0  0  0  0  0  0  0  0  0
   37.6970   30.5720   50.7010 C   0  0  0  0  0  0  0  0  0  0  0  0
   37.0120   30.7810   49.5190 C   0  0  0  0  0  0  0  0  0  0  0  0
   35.7610   30.2400   49.3800 N   0  0  0  0  0  0  0  0  0  0  0  0
   35.1740   29.5150   50.3450 C   0  0  0  0  0  0  0  0  0  0  0  0
   35.8200   29.2970   51.5060 N   0  0  0  0  0  0  0  0  0  0  0  0
   38.6138   29.7794   47.7643 H   0  0  0  0  0  0  0  0  0  0  0  0
   37.2116   30.1522   46.7401 H   0  0  0  0  0  0  0  0  0  0  0  0
   39.1969   33.1055   47.6854 H   0  0  0  0  0  0  0  0  0  0  0  0
   40.6768   34.2775   46.1209 H   0  0  0  0  0  0  0  0  0  0  0  0
   41.3180   33.3187   43.9338 H   0  0  0  0  0  0  0  0  0  0  0  0
   41.1617   31.5636   42.3880 H   0  0  0  0  0  0  0  0  0  0  0  0
   40.2875   29.3413   41.6846 H   0  0  0  0  0  0  0  0  0  0  0  0
   38.7668   28.0699   43.2254 H   0  0  0  0  0  0  0  0  0  0  0  0
   38.1710   29.0840   45.4131 H   0  0  0  0  0  0  0  0  0  0  0  0
   38.3735   32.2080   48.7035 H   0  0  0  0  0  0  0  0  0  0  0  0
   36.7498   32.2040   47.9464 H   0  0  0  0  0  0  0  0  0  0  0  0
   37.5674   29.6204   52.6416 H   0  0  0  0  0  0  0  0  0  0  0  0
   38.7035   30.9854   50.8623 H   0  0  0  0  0  0  0  0  0  0  0  0
   34.1675   29.0999   50.1877 H   0  0  0  0  0  0  0  0  0  0  0  0
  1 12  1  0
  2  3  2  0
  2  1  1  0
  4  3  1  0
  5  4  2  0
  6  5  1  0
  6 11  2  0
  7  6  1  0
  8  7  2  0
  8  9  1  0
  9 10  2  0
 10 11  1  0
 11  2  1  0
 12 15  1  0
 14 13  2  0
 15 14  1  0
 16 15  2  0
 16 17  1  0
 17 18  2  0
 18 13  1  0
  1 19  1  0
  1 20  1  0
  3 21  1  0
  4 22  1  0
  5 23  1  0
  7 24  1  0
  8 25  1  0
  9 26  1  0
 10 27  1  0
 12 28  1  0
 12 29  1  0
 13 30  1  0
 14 31  1  0
 17 32  1  0
M  ISO  8  19   8  20   8  21  14  22  14  23  14  24  14  25  14  26  14
M  ISO  6  27  14  28   8  29   8  30  14  31  14  32  14
M  END
>  <minimizedAffinity>  (1) 
-6.02770901

>  <minimizedRMSD>  (1) 
2.61485147

$$$$
