
     RDKit          3D

 30 32  0  0  0  0  0  0  0  0999 V2000
   38.7640   32.2410   48.2690 C   0  0  0  0  0  0  0  0  0  0  0  0
   39.9870   32.9800   46.1590 C   0  0  0  0  0  0  0  0  0  0  0  0
   39.2790   32.0190   46.8660 C   0  0  0  0  0  0  0  0  0  0  0  0
   39.0420   30.8030   46.2450 C   0  0  0  0  0  0  0  0  0  0  0  0
   39.4840   30.5290   44.9640 C   0  0  0  0  0  0  0  0  0  0  0  0
   39.3880   29.4570   44.1560 N   0  0  0  0  0  0  0  0  0  0  0  0
   39.9940   29.7010   42.9940 C   0  0  0  0  0  0  0  0  0  0  0  0
   40.5090   30.9770   43.0340 C   0  0  0  0  0  0  0  0  0  0  0  0
   40.1860   31.4990   44.2780 C   0  0  0  0  0  0  0  0  0  0  0  0
   40.4300   32.7170   44.8840 C   0  0  0  0  0  0  0  0  0  0  0  0
   37.3060   31.8160   48.2100 C   0  0  0  0  0  0  0  0  0  0  0  0
   37.3810   30.0180   51.5460 C   0  0  0  0  0  0  0  0  0  0  0  0
   37.8050   30.8370   50.4790 C   0  0  0  0  0  0  0  0  0  0  0  0
   36.9680   30.9800   49.3880 C   0  0  0  0  0  0  0  0  0  0  0  0
   35.7620   30.3230   49.3820 N   0  0  0  0  0  0  0  0  0  0  0  0
   35.3910   29.5430   50.4280 C   0  0  0  0  0  0  0  0  0  0  0  0
   36.1860   29.3860   51.5050 N   0  0  0  0  0  0  0  0  0  0  0  0
   39.3202   31.6236   48.9897 H   0  0  0  0  0  0  0  0  0  0  0  0
   38.8831   33.2837   48.5985 H   0  0  0  0  0  0  0  0  0  0  0  0
   40.1949   33.9567   46.6204 H   0  0  0  0  0  0  0  0  0  0  0  0
   38.4826   30.0287   46.7904 H   0  0  0  0  0  0  0  0  0  0  0  0
   38.9147   28.5754   44.4002 H   0  0  0  0  0  0  0  0  0  0  0  0
   40.0696   29.0022   42.1479 H   0  0  0  0  0  0  0  0  0  0  0  0
   41.0684   31.4845   42.2343 H   0  0  0  0  0  0  0  0  0  0  0  0
   40.9888   33.4902   44.3364 H   0  0  0  0  0  0  0  0  0  0  0  0
   36.6666   32.7110   48.2041 H   0  0  0  0  0  0  0  0  0  0  0  0
   37.1398   31.2297   47.2942 H   0  0  0  0  0  0  0  0  0  0  0  0
   38.0315   29.8914   52.4240 H   0  0  0  0  0  0  0  0  0  0  0  0
   38.7777   31.3494   50.5140 H   0  0  0  0  0  0  0  0  0  0  0  0
   34.4199   29.0273   50.3965 H   0  0  0  0  0  0  0  0  0  0  0  0
  2  3  2  0
  3  1  1  0
  4  3  1  0
  5  4  2  0
  6  5  1  0
  7  8  2  0
  7  6  1  0
  8  9  1  0
  9 10  2  0
  9  5  1  0
 10  2  1  0
 11  1  1  0
 11 14  1  0
 13 12  2  0
 14 13  1  0
 15 14  2  0
 15 16  1  0
 16 17  2  0
 17 12  1  0
  1 18  1  0
  1 19  1  0
  2 20  1  0
  4 21  1  0
  6 22  1  0
  7 23  1  0
  8 24  1  0
 10 25  1  0
 11 26  1  0
 11 27  1  0
 12 28  1  0
 13 29  1  0
 16 30  1  0
M  ISO  8  18   8  19   8  20  14  21  14  22   9  23  14  24  14  25  14
M  ISO  5  26   8  27   8  28  14  29  14  30  14
M  END
>  <minimizedAffinity>  (1) 
-5.99701738

>  <minimizedRMSD>  (1) 
2.68793678

$$$$
