
     RDKit          3D

 29 30  0  0  0  0  0  0  0  0999 V2000
   37.4840   31.2240   46.8530 C   0  0  0  0  0  0  0  0  0  0  0  0
   37.8060   31.8420   44.4640 C   0  0  0  0  0  0  0  0  0  0  0  0
   38.2580   31.9420   45.7790 C   0  0  0  0  0  0  0  0  0  0  0  0
   39.3870   32.6950   46.0060 C   0  0  0  0  0  0  0  0  0  0  0  0
   40.0700   33.3340   45.0180 C   0  0  0  0  0  0  0  0  0  0  0  0
   39.6240   33.2350   43.7210 C   0  0  0  0  0  0  0  0  0  0  0  0
   38.4890   32.4890   43.4320 C   0  0  0  0  0  0  0  0  0  0  0  0
   36.3630   30.8840   44.1480 S   0  0  0  0  0  0  0  0  0  0  0  0
   36.8280   29.5220   43.6630 O   0  0  0  0  0  0  0  0  0  0  0  0
   35.5510   31.5700   43.0870 O   0  0  0  0  0  0  0  0  0  0  0  0
   38.4400   30.9520   48.0040 C   0  0  0  0  0  0  0  0  0  0  0  0
   37.2040   30.1420   51.4920 C   0  0  0  0  0  0  0  0  0  0  0  0
   38.0130   30.7200   50.4890 C   0  0  0  0  0  0  0  0  0  0  0  0
   37.6910   30.4270   49.1740 C   0  0  0  0  0  0  0  0  0  0  0  0
   36.6220   29.6060   48.9090 N   0  0  0  0  0  0  0  0  0  0  0  0
   35.8740   29.0740   49.9060 C   0  0  0  0  0  0  0  0  0  0  0  0
   36.1650   29.3420   51.1930 N   0  0  0  0  0  0  0  0  0  0  0  0
   37.0897   30.2751   46.4605 H   0  0  0  0  0  0  0  0  0  0  0  0
   36.6349   31.8356   47.1920 H   0  0  0  0  0  0  0  0  0  0  0  0
   39.7560   32.7849   47.0384 H   0  0  0  0  0  0  0  0  0  0  0  0
   40.9686   33.9230   45.2540 H   0  0  0  0  0  0  0  0  0  0  0  0
   40.1664   33.7468   42.9124 H   0  0  0  0  0  0  0  0  0  0  0  0
   38.1297   32.4081   42.3955 H   0  0  0  0  0  0  0  0  0  0  0  0
   35.5879   30.7461   45.2692 H   0  0  0  0  0  0  0  0  0  0  0  0
   39.1885   30.2104   47.6882 H   0  0  0  0  0  0  0  0  0  0  0  0
   38.9400   31.8900   48.2870 H   0  0  0  0  0  0  0  0  0  0  0  0
   37.4301   30.3521   52.5478 H   0  0  0  0  0  0  0  0  0  0  0  0
   38.8610   31.3738   50.7408 H   0  0  0  0  0  0  0  0  0  0  0  0
   35.0242   28.4194   49.6624 H   0  0  0  0  0  0  0  0  0  0  0  0
  1 11  1  0
  2  3  2  0
  3  4  1  0
  3  1  1  0
  5  4  2  0
  6  5  1  0
  7  6  2  0
  7  2  1  0
  8  2  1  0
  9  8  2  0
 10  8  2  0
 11 14  1  0
 13 12  2  0
 14 13  1  0
 15 14  2  0
 15 16  1  0
 16 17  2  0
 17 12  1  0
  1 18  1  0
  1 19  1  0
  4 20  1  0
  5 21  1  0
  6 22  1  0
  7 23  1  0
  8 24  1  0
 11 25  1  0
 11 26  1  0
 12 27  1  0
 13 28  1  0
 16 29  1  0
M  ISO  8  18   8  19   8  20  14  21  14  22  14  23  14  24  11  25   8
M  ISO  4  26   8  27  14  28  14  29  14
M  END
>  <minimizedAffinity>  (1) 
-5.05913925

>  <minimizedRMSD>  (1) 
2.38962936

$$$$
