
     RDKit          3D

 18 18  0  0  0  0  0  0  0  0999 V2000
   37.3580   30.0290   51.4180 C   0  0  0  0  0  0  0  0  0  0  0  0
   37.9240   30.7570   50.3640 C   0  0  0  0  0  0  0  0  0  0  0  0
   37.1620   30.9050   49.1960 C   0  0  0  0  0  0  0  0  0  0  0  0
   35.9340   30.3350   49.1700 N   0  0  0  0  0  0  0  0  0  0  0  0
   35.4170   29.6410   50.1970 C   0  0  0  0  0  0  0  0  0  0  0  0
   36.1410   29.4870   51.3370 N   0  0  0  0  0  0  0  0  0  0  0  0
   37.6330   31.6490   48.0030 C   0  0  0  0  0  0  0  0  0  0  0  0
   38.8570   32.5030   48.3990 C   0  0  0  0  0  0  0  0  0  0  0  0
   38.4230   33.8410   48.6360 N   0  0  0  0  0  0  0  0  0  0  0  0
   37.9364   29.8994   52.3446 H   0  0  0  0  0  0  0  0  0  0  0  0
   38.9288   31.1964   50.4491 H   0  0  0  0  0  0  0  0  0  0  0  0
   34.4128   29.1995   50.1160 H   0  0  0  0  0  0  0  0  0  0  0  0
   36.8293   32.3036   47.6347 H   0  0  0  0  0  0  0  0  0  0  0  0
   37.9127   30.9417   47.2083 H   0  0  0  0  0  0  0  0  0  0  0  0
   39.3135   32.0945   49.3126 H   0  0  0  0  0  0  0  0  0  0  0  0
   39.6022   32.4882   47.5900 H   0  0  0  0  0  0  0  0  0  0  0  0
   38.3683   34.0096   49.6506 H   0  0  0  0  0  0  0  0  0  0  0  0
   39.0936   34.4993   48.2142 H   0  0  0  0  0  0  0  0  0  0  0  0
  2  1  2  0
  3  2  1  0
  4  3  2  0
  4  5  1  0
  5  6  2  0
  6  1  1  0
  7  8  1  0
  7  3  1  0
  8  9  1  0
  1 10  1  0
  2 11  1  0
  5 12  1  0
  7 13  1  0
  7 14  1  0
  8 15  1  0
  8 16  1  0
  9 17  1  0
  9 18  1  0
M  ISO  8  10  14  11  14  12  14  13   8  14   8  15   8  16   8  17   5
M  ISO  1  18   5
M  END
>  <minimizedAffinity>  (1) 
-3.67776442

>  <minimizedRMSD>  (1) 
0.707456887

$$$$
