
     RDKit          3D

 23 24  0  0  0  0  0  0  0  0999 V2000
   36.6130   30.6170   47.5710 C   0  0  0  0  0  0  0  0  0  0  0  0
   36.6070   29.5530   51.1870 C   0  0  0  0  0  0  0  0  0  0  0  0
   37.0790   30.0080   49.9680 C   0  0  0  0  0  0  0  0  0  0  0  0
   36.2180   30.1480   48.9070 C   0  0  0  0  0  0  0  0  0  0  0  0
   34.9090   29.8210   49.1220 N   0  0  0  0  0  0  0  0  0  0  0  0
   34.4710   29.3810   50.3140 C   0  0  0  0  0  0  0  0  0  0  0  0
   35.3070   29.2410   51.3570 N   0  0  0  0  0  0  0  0  0  0  0  0
   38.1110   30.5700   47.3930 C   0  0  0  0  0  0  0  0  0  0  0  0
   38.7870   32.2580   47.2770 S   0  0  0  0  0  0  0  0  0  0  0  0
   39.0460   32.6580   45.5310 C   0  0  0  0  0  0  0  0  0  0  0  0
   38.2420   32.0940   44.5980 C   0  0  0  0  0  0  0  0  0  0  0  0
   38.8940   32.8010   43.0160 S   0  0  0  0  0  0  0  0  0  0  0  0
   40.2130   33.7840   44.0020 C   0  0  0  0  0  0  0  0  0  0  0  0
   39.9660   33.4690   45.0550 N   0  0  0  0  0  0  0  0  0  0  0  0
   36.1419   29.9749   46.8122 H   0  0  0  0  0  0  0  0  0  0  0  0
   36.2829   31.6602   47.4581 H   0  0  0  0  0  0  0  0  0  0  0  0
   37.3043   29.4443   52.0308 H   0  0  0  0  0  0  0  0  0  0  0  0
   38.1437   30.2575   49.8489 H   0  0  0  0  0  0  0  0  0  0  0  0
   33.4072   29.1305   50.4384 H   0  0  0  0  0  0  0  0  0  0  0  0
   38.5629   30.0565   48.2545 H   0  0  0  0  0  0  0  0  0  0  0  0
   38.3444   30.0265   46.4656 H   0  0  0  0  0  0  0  0  0  0  0  0
   37.4088   31.3908   44.7440 H   0  0  0  0  0  0  0  0  0  0  0  0
   40.9952   34.4671   43.6393 H   0  0  0  0  0  0  0  0  0  0  0  0
  1  4  1  0
  2  7  2  0
  3  2  1  0
  4  5  1  0
  4  3  2  0
  5  6  2  0
  6  7  1  0
  8  1  1  0
  9  8  1  0
 10  9  1  0
 11 10  2  0
 12 13  1  0
 12 11  1  0
 13 14  2  0
 14 10  1  0
  1 15  1  0
  1 16  1  0
  2 17  1  0
  3 18  1  0
  6 19  1  0
  8 20  1  0
  8 21  1  0
 11 22  1  0
 13 23  1  0
M  ISO  8  15   8  16   8  17  14  18  14  19  14  20   8  21   8  22  14
M  ISO  1  23  14
M  END
>  <minimizedAffinity>  (1) 
-3.97163844

>  <minimizedRMSD>  (1) 
3.72985244

$$$$
