
     RDKit          3D

 20 20  0  0  0  0  0  0  0  0999 V2000
   37.0520   29.4190   51.2980 C   0  0  0  0  0  0  0  0  0  0  0  0
   37.7640   29.8210   50.1810 C   0  0  0  0  0  0  0  0  0  0  0  0
   37.0790   30.1260   49.0230 C   0  0  0  0  0  0  0  0  0  0  0  0
   35.7170   30.0030   49.0680 N   0  0  0  0  0  0  0  0  0  0  0  0
   35.0330   29.6160   50.1430 C   0  0  0  0  0  0  0  0  0  0  0  0
   35.7080   29.3160   51.2830 N   0  0  0  0  0  0  0  0  0  0  0  0
   37.7200   30.5670   47.7720 C   0  0  0  0  0  0  0  0  0  0  0  0
   38.7550   31.6280   48.0340 C   0  0  0  0  0  0  0  0  0  0  0  0
   38.0860   33.0140   48.9690 S   0  0  0  0  0  0  0  0  0  0  0  0
   39.4490   34.1650   49.3180 C   0  0  0  0  0  0  0  0  0  0  0  0
   37.5973   29.1772   52.2222 H   0  0  0  0  0  0  0  0  0  0  0  0
   38.8609   29.8962   50.2162 H   0  0  0  0  0  0  0  0  0  0  0  0
   33.9362   29.5403   50.1083 H   0  0  0  0  0  0  0  0  0  0  0  0
   36.9510   30.9746   47.0993 H   0  0  0  0  0  0  0  0  0  0  0  0
   38.2185   29.7008   47.3125 H   0  0  0  0  0  0  0  0  0  0  0  0
   39.5829   31.1821   48.6048 H   0  0  0  0  0  0  0  0  0  0  0  0
   39.0997   32.0110   47.0622 H   0  0  0  0  0  0  0  0  0  0  0  0
   39.5718   34.2687   50.4062 H   0  0  0  0  0  0  0  0  0  0  0  0
   40.3795   33.7752   48.8795 H   0  0  0  0  0  0  0  0  0  0  0  0
   39.2205   35.1476   48.8795 H   0  0  0  0  0  0  0  0  0  0  0  0
  2  1  2  0
  3  4  2  0
  3  2  1  0
  4  5  1  0
  5  6  2  0
  6  1  1  0
  7  8  1  0
  7  3  1  0
  8  9  1  0
  9 10  1  0
  1 11  1  0
  2 12  1  0
  5 13  1  0
  7 14  1  0
  7 15  1  0
  8 16  1  0
  8 17  1  0
 10 18  1  0
 10 19  1  0
 10 20  1  0
M  ISO  8  11  14  12  14  13  14  14   8  15   8  16   8  17   8  18   8
M  ISO  2  19   8  20   8
M  END
>  <minimizedAffinity>  (1) 
-3.56376529

>  <minimizedRMSD>  (1) 
0.398987979

$$$$
