
     RDKit          3D

 33 34  0  0  0  0  0  0  0  0999 V2000
   35.5280   30.2960   47.6540 C   0  0  0  0  0  0  0  0  0  0  0  0
   32.8700   27.8810   48.7860 C   0  0  0  0  0  0  0  0  0  0  0  0
   34.0490   28.6250   48.8000 C   0  0  0  0  0  0  0  0  0  0  0  0
   34.3220   29.4690   47.7430 C   0  0  0  0  0  0  0  0  0  0  0  0
   33.3930   29.5250   46.7220 N   0  0  0  0  0  0  0  0  0  0  0  0
   32.2790   28.7960   46.7490 C   0  0  0  0  0  0  0  0  0  0  0  0
   31.9900   27.9680   47.7620 N   0  0  0  0  0  0  0  0  0  0  0  0
   36.5370   29.8880   48.7260 C   0  0  0  0  0  0  0  0  0  0  0  0
   37.1430   31.3180   49.6110 S   0  0  0  0  0  0  0  0  0  0  0  0
   38.5860   32.0870   48.8550 C   0  0  0  0  0  0  0  0  0  0  0  0
   38.8420   33.4090   49.5370 C   0  0  0  0  0  0  0  0  0  0  0  0
   39.4160   34.4140   48.5480 C   0  0  0  0  0  0  0  0  0  0  0  0
   40.2880   33.6910   47.5490 C   0  0  0  0  0  0  0  0  0  0  0  0
   39.4790   32.8070   46.6340 C   0  0  0  0  0  0  0  0  0  0  0  0
   38.2640   32.3320   47.3970 C   0  0  0  0  0  0  0  0  0  0  0  0
   35.9829   30.1669   46.6608 H   0  0  0  0  0  0  0  0  0  0  0  0
   35.2497   31.3487   47.8098 H   0  0  0  0  0  0  0  0  0  0  0  0
   32.6501   27.2074   49.6273 H   0  0  0  0  0  0  0  0  0  0  0  0
   34.7518   28.5404   49.6419 H   0  0  0  0  0  0  0  0  0  0  0  0
   31.5715   28.8763   45.9106 H   0  0  0  0  0  0  0  0  0  0  0  0
   36.0501   29.2044   49.4370 H   0  0  0  0  0  0  0  0  0  0  0  0
   37.3879   29.3918   48.2363 H   0  0  0  0  0  0  0  0  0  0  0  0
   39.4737   31.4447   48.9518 H   0  0  0  0  0  0  0  0  0  0  0  0
   37.8955   33.7978   49.9407 H   0  0  0  0  0  0  0  0  0  0  0  0
   39.5658   33.2562   50.3511 H   0  0  0  0  0  0  0  0  0  0  0  0
   38.5943   34.9198   48.0198 H   0  0  0  0  0  0  0  0  0  0  0  0
   40.0168   35.1602   49.0886 H   0  0  0  0  0  0  0  0  0  0  0  0
   40.8252   34.4345   46.9419 H   0  0  0  0  0  0  0  0  0  0  0  0
   40.9897   33.0535   48.1069 H   0  0  0  0  0  0  0  0  0  0  0  0
   40.0832   31.9434   46.3192 H   0  0  0  0  0  0  0  0  0  0  0  0
   39.1726   33.3647   45.7367 H   0  0  0  0  0  0  0  0  0  0  0  0
   37.4770   33.0975   47.3284 H   0  0  0  0  0  0  0  0  0  0  0  0
   37.9270   31.3833   46.9537 H   0  0  0  0  0  0  0  0  0  0  0  0
  1  4  1  0
  1  8  1  0
  2  3  2  0
  4  3  1  0
  5  6  1  0
  5  4  2  0
  6  7  2  0
  7  2  1  0
  8  9  1  0
 10 11  1  0
 10  9  1  0
 12 11  1  0
 13 12  1  0
 14 15  1  0
 14 13  1  0
 15 10  1  0
  1 16  1  0
  1 17  1  0
  2 18  1  0
  3 19  1  0
  6 20  1  0
  8 21  1  0
  8 22  1  0
 10 23  1  0
 11 24  1  0
 11 25  1  0
 12 26  1  0
 12 27  1  0
 13 28  1  0
 13 29  1  0
 14 30  1  0
 14 31  1  0
 15 32  1  0
 15 33  1  0
M  ISO  8  16   8  17   8  18  14  19  14  20  14  21   8  22   8  23  13
M  ISO  8  24  13  25  13  26  13  27  13  28  13  29  13  30  13  31  13
M  ISO  2  32  13  33  13
M  END
>  <minimizedAffinity>  (1) 
-3.98621988

>  <minimizedRMSD>  (1) 
3.53541279

$$$$
