
     RDKit          3D

 36 37  0  0  1  0  0  0  0  0999 V2000
   38.6590   32.2370   48.6230 C   0  0  2  0  0  0  0  0  0  0  0  0
   38.9280   33.4800   49.3760 C   0  0  0  0  0  0  0  0  0  0  0  0
   39.6130   34.4860   48.4950 C   0  0  0  0  0  0  0  0  0  0  0  0
   40.4950   33.8160   47.4680 C   0  0  0  0  0  0  0  0  0  0  0  0
   39.4650   33.3430   46.4720 C   0  0  0  0  0  0  0  0  0  0  0  0
   38.6300   32.3310   47.1700 C   0  0  1  0  0  0  0  0  0  0  0  0
   39.1270   30.9920   46.6120 C   0  0  0  0  0  0  0  0  0  0  0  0
   37.0940   31.5680   49.2300 S   0  0  0  0  0  0  0  0  0  0  0  0
   36.5920   30.0510   48.4900 C   0  0  0  0  0  0  0  0  0  0  0  0
   35.6120   30.2230   47.3560 C   0  0  0  0  0  0  0  0  0  0  0  0
   33.0520   27.9720   48.8600 C   0  0  0  0  0  0  0  0  0  0  0  0
   34.2170   28.7020   48.6750 C   0  0  0  0  0  0  0  0  0  0  0  0
   34.3970   29.4460   47.5460 C   0  0  0  0  0  0  0  0  0  0  0  0
   33.3720   29.4290   46.6120 N   0  0  0  0  0  0  0  0  0  0  0  0
   32.2630   28.7220   46.8080 C   0  0  0  0  0  0  0  0  0  0  0  0
   32.0760   27.9940   47.9060 N   0  0  0  0  0  0  0  0  0  0  0  0
   39.5219   31.5808   48.8097 H   0  0  0  0  0  0  0  0  0  0  0  0
   37.9767   33.9000   49.7346 H   0  0  0  0  0  0  0  0  0  0  0  0
   39.5826   33.2470   50.2288 H   0  0  0  0  0  0  0  0  0  0  0  0
   38.8498   35.0834   47.9749 H   0  0  0  0  0  0  0  0  0  0  0  0
   40.2463   35.1240   49.1289 H   0  0  0  0  0  0  0  0  0  0  0  0
   41.1995   34.5282   47.0137 H   0  0  0  0  0  0  0  0  0  0  0  0
   41.1369   33.0188   47.8711 H   0  0  0  0  0  0  0  0  0  0  0  0
   39.9603   32.8901   45.6005 H   0  0  0  0  0  0  0  0  0  0  0  0
   38.8512   34.1806   46.1092 H   0  0  0  0  0  0  0  0  0  0  0  0
   37.5874   32.6266   46.9811 H   0  0  0  0  0  0  0  0  0  0  0  0
   39.3772   30.3180   47.4446 H   0  0  0  0  0  0  0  0  0  0  0  0
   38.3382   30.5362   45.9956 H   0  0  0  0  0  0  0  0  0  0  0  0
   40.0222   31.1613   45.9956 H   0  0  0  0  0  0  0  0  0  0  0  0
   37.4863   29.5417   48.1016 H   0  0  0  0  0  0  0  0  0  0  0  0
   36.0811   29.4672   49.2698 H   0  0  0  0  0  0  0  0  0  0  0  0
   36.0942   29.9006   46.4213 H   0  0  0  0  0  0  0  0  0  0  0  0
   35.3270   31.2848   47.3192 H   0  0  0  0  0  0  0  0  0  0  0  0
   32.9149   27.3761   49.7744 H   0  0  0  0  0  0  0  0  0  0  0  0
   35.0021   28.6807   49.4451 H   0  0  0  0  0  0  0  0  0  0  0  0
   31.4764   28.7395   46.0392 H   0  0  0  0  0  0  0  0  0  0  0  0
  1  8  1  0
  1  2  1  0
  3  2  1  0
  4  3  1  0
  5  6  1  0
  5  4  1  0
  6  1  1  0
  7  6  1  0
  9  8  1  0
 10 13  1  0
 10  9  1  0
 12 11  2  0
 13 12  1  0
 14 15  1  0
 14 13  2  0
 15 16  2  0
 16 11  1  0
  1 17  1  6
  2 18  1  0
  2 19  1  0
  3 20  1  0
  3 21  1  0
  4 22  1  0
  4 23  1  0
  5 24  1  0
  5 25  1  0
  6 26  1  6
  7 27  1  0
  7 28  1  0
  7 29  1  0
  9 30  1  0
  9 31  1  0
 10 32  1  0
 10 33  1  0
 11 34  1  0
 12 35  1  0
 15 36  1  0
M  ISO  8  17  13  18  13  19  13  20  13  21  13  22  13  23  13  24  13
M  ISO  8  25  13  26  13  27   8  28   8  29   8  30   8  31   8  32   8
M  ISO  4  33   8  34  14  35  14  36  14
M  END
>  <minimizedAffinity>  (1) 
-4.04690027

>  <minimizedRMSD>  (1) 
0.332069218

$$$$
