
     RDKit          3D

 33 35  0  0  1  0  0  0  0  0999 V2000
   35.5140   30.4750   49.0990 C   0  0  2  0  0  0  0  0  0  0  0  0
   36.3380   31.6690   49.5200 C   0  0  0  0  0  0  0  0  0  0  0  0
   37.6630   31.2660   50.1010 C   0  0  0  0  0  0  0  0  0  0  0  0
   37.5230   30.3230   51.2700 C   0  0  0  0  0  0  0  0  0  0  0  0
   36.5330   29.2380   51.0200 C   0  0  0  0  0  0  0  0  0  0  0  0
   36.0260   29.1750   49.5950 C   0  0  1  0  0  0  0  0  0  0  0  0
   35.4330   30.4180   47.6060 C   0  0  0  0  0  0  0  0  0  0  0  0
   34.1430   30.3990   47.0430 C   0  0  0  0  0  0  0  0  0  0  0  0
   34.0700   30.3290   45.6590 C   0  0  0  0  0  0  0  0  0  0  0  0
   35.2280   30.2830   44.9080 N   0  0  0  0  0  0  0  0  0  0  0  0
   36.4590   30.3030   45.5060 C   0  0  0  0  0  0  0  0  0  0  0  0
   36.5330   30.3710   46.8570 N   0  0  0  0  0  0  0  0  0  0  0  0
   34.9620   28.1030   49.6140 C   0  0  0  0  0  0  0  0  0  0  0  0
   33.5110   28.4810   49.4510 C   0  0  0  0  0  0  0  0  0  0  0  0
   34.2640   27.6320   48.4200 C   0  0  0  0  0  0  0  0  0  0  0  0
   34.5235   30.6224   49.5542 H   0  0  0  0  0  0  0  0  0  0  0  0
   36.5154   32.3052   48.6403 H   0  0  0  0  0  0  0  0  0  0  0  0
   35.7780   32.2092   50.2976 H   0  0  0  0  0  0  0  0  0  0  0  0
   38.2546   30.7699   49.3175 H   0  0  0  0  0  0  0  0  0  0  0  0
   38.1567   32.1783   50.4671 H   0  0  0  0  0  0  0  0  0  0  0  0
   38.5027   29.8654   51.4719 H   0  0  0  0  0  0  0  0  0  0  0  0
   37.1625   30.9096   52.1279 H   0  0  0  0  0  0  0  0  0  0  0  0
   37.0086   28.2755   51.2595 H   0  0  0  0  0  0  0  0  0  0  0  0
   35.6615   29.4535   51.6557 H   0  0  0  0  0  0  0  0  0  0  0  0
   36.8378   28.9379   48.8916 H   0  0  0  0  0  0  0  0  0  0  0  0
   33.2388   30.4377   47.6683 H   0  0  0  0  0  0  0  0  0  0  0  0
   33.0898   30.3102   45.1602 H   0  0  0  0  0  0  0  0  0  0  0  0
   37.3751   30.2644   44.8983 H   0  0  0  0  0  0  0  0  0  0  0  0
   35.5604   27.5839   50.3772 H   0  0  0  0  0  0  0  0  0  0  0  0
   32.7415   28.0261   50.0920 H   0  0  0  0  0  0  0  0  0  0  0  0
   32.9323   29.4163   49.4369 H   0  0  0  0  0  0  0  0  0  0  0  0
   34.0255   26.5639   48.3092 H   0  0  0  0  0  0  0  0  0  0  0  0
   34.4435   27.7060   47.3373 H   0  0  0  0  0  0  0  0  0  0  0  0
  1  2  1  0
  1  6  1  0
  2  3  1  0
  3  4  1  0
  5  4  1  0
  6 13  1  0
  6  5  1  0
  7  1  1  0
  8  7  2  0
  9  8  1  0
 10 11  1  0
 10  9  2  0
 11 12  2  0
 12  7  1  0
 14 13  1  0
 15 14  1  0
 15 13  1  0
  1 16  1  1
  2 17  1  0
  2 18  1  0
  3 19  1  0
  3 20  1  0
  4 21  1  0
  4 22  1  0
  5 23  1  0
  5 24  1  0
  6 25  1  6
  8 26  1  0
  9 27  1  0
 11 28  1  0
 13 29  1  0
 14 30  1  0
 14 31  1  0
 15 32  1  0
 15 33  1  0
M  ISO  8  16  13  17  13  18  13  19  13  20  13  21  13  22  13  23  13
M  ISO  8  24  13  25  13  26  14  27  14  28  14  29  13  30  13  31  13
M  ISO  2  32  13  33  13
M  END
>  <minimizedAffinity>  (1) 
-5.0827117

>  <minimizedRMSD>  (1) 
2.37690878

$$$$
