
     RDKit          3D

 33 34  0  0  1  0  0  0  0  0999 V2000
   35.5430   30.4750   48.8680 C   0  0  2  0  0  0  0  0  0  0  0  0
   36.6550   31.4790   49.0590 C   0  0  0  0  0  0  0  0  0  0  0  0
   37.9440   30.8420   49.4750 C   0  0  0  0  0  0  0  0  0  0  0  0
   37.8250   29.9930   50.7010 C   0  0  0  0  0  0  0  0  0  0  0  0
   36.6200   29.1090   50.6890 C   0  0  0  0  0  0  0  0  0  0  0  0
   35.8830   29.1180   49.3570 C   0  0  1  0  0  0  0  0  0  0  0  0
   35.2060   30.3710   47.4180 C   0  0  0  0  0  0  0  0  0  0  0  0
   33.8390   30.4200   47.0870 C   0  0  0  0  0  0  0  0  0  0  0  0
   33.5170   30.3060   45.7420 C   0  0  0  0  0  0  0  0  0  0  0  0
   34.5210   30.1510   44.8090 N   0  0  0  0  0  0  0  0  0  0  0  0
   35.8310   30.1090   45.1720 C   0  0  0  0  0  0  0  0  0  0  0  0
   36.1320   30.2220   46.4750 N   0  0  0  0  0  0  0  0  0  0  0  0
   34.6670   28.2570   49.4980 C   0  0  0  0  0  0  0  0  0  0  0  0
   34.0010   27.3900   48.7010 C   0  0  0  0  0  0  0  0  0  0  0  0
   33.9340   26.7400   47.3720 C   0  0  0  0  0  0  0  0  0  0  0  0
   34.6925   30.8436   49.4603 H   0  0  0  0  0  0  0  0  0  0  0  0
   36.8157   32.0108   48.1096 H   0  0  0  0  0  0  0  0  0  0  0  0
   36.3488   32.1646   49.8629 H   0  0  0  0  0  0  0  0  0  0  0  0
   38.3025   30.2108   48.6485 H   0  0  0  0  0  0  0  0  0  0  0  0
   38.6437   31.6565   49.7137 H   0  0  0  0  0  0  0  0  0  0  0  0
   38.7219   29.3608   50.7771 H   0  0  0  0  0  0  0  0  0  0  0  0
   37.7245   30.6718   51.5607 H   0  0  0  0  0  0  0  0  0  0  0  0
   36.9399   28.0789   50.9046 H   0  0  0  0  0  0  0  0  0  0  0  0
   35.9249   29.4935   51.4499 H   0  0  0  0  0  0  0  0  0  0  0  0
   36.5558   28.7145   48.5860 H   0  0  0  0  0  0  0  0  0  0  0  0
   33.0633   30.5427   47.8572 H   0  0  0  0  0  0  0  0  0  0  0  0
   32.4653   30.3391   45.4212 H   0  0  0  0  0  0  0  0  0  0  0  0
   36.6224   29.9857   44.4180 H   0  0  0  0  0  0  0  0  0  0  0  0
   34.2019   28.3522   50.4903 H   0  0  0  0  0  0  0  0  0  0  0  0
   33.1523   27.0066   49.2864 H   0  0  0  0  0  0  0  0  0  0  0  0
   33.8220   25.6533   47.5006 H   0  0  0  0  0  0  0  0  0  0  0  0
   33.0717   27.1340   46.8142 H   0  0  0  0  0  0  0  0  0  0  0  0
   34.8585   26.9499   46.8142 H   0  0  0  0  0  0  0  0  0  0  0  0
  1  2  1  0
  1  6  1  0
  2  3  1  0
  3  4  1  0
  5  4  1  0
  6 13  1  0
  6  5  1  0
  7  1  1  0
  8  7  2  0
  9  8  1  0
 10 11  1  0
 10  9  2  0
 11 12  2  0
 12  7  1  0
 14 13  2  0
 15 14  1  0
  1 16  1  1
  2 17  1  0
  2 18  1  0
  3 19  1  0
  3 20  1  0
  4 21  1  0
  4 22  1  0
  5 23  1  0
  5 24  1  0
  6 25  1  6
  8 26  1  0
  9 27  1  0
 11 28  1  0
 13 29  1  0
 14 30  1  0
 15 31  1  0
 15 32  1  0
 15 33  1  0
M  ISO  8  16  13  17  13  18  13  19  13  20  13  21  13  22  13  23  13
M  ISO  8  24  13  25  13  26  14  27  14  28  14  31   8  32   8  33   8
M  END
>  <minimizedAffinity>  (1) 
-4.98691177

>  <minimizedRMSD>  (1) 
2.39184141

$$$$
