
     RDKit          3D

 40 42  0  0  1  0  0  0  0  0999 V2000
   36.1490   30.6990   48.9860 C   0  0  2  0  0  0  0  0  0  0  0  0
   37.0140   31.5930   49.8220 C   0  0  0  0  0  0  0  0  0  0  0  0
   37.9240   30.8250   50.7590 C   0  0  0  0  0  0  0  0  0  0  0  0
   37.1050   29.9190   51.6730 C   0  0  0  0  0  0  0  0  0  0  0  0
   35.9160   29.2810   50.9870 C   0  0  0  0  0  0  0  0  0  0  0  0
   36.1660   29.2880   49.4700 C   0  0  1  0  0  0  0  0  0  0  0  0
   36.5730   30.7230   47.5610 C   0  0  0  0  0  0  0  0  0  0  0  0
   37.8740   31.1820   47.3210 C   0  0  0  0  0  0  0  0  0  0  0  0
   38.2930   31.2110   45.9850 C   0  0  0  0  0  0  0  0  0  0  0  0
   37.4250   30.7950   45.0060 N   0  0  0  0  0  0  0  0  0  0  0  0
   36.1570   30.3520   45.2970 C   0  0  0  0  0  0  0  0  0  0  0  0
   35.7530   30.3250   46.5770 N   0  0  0  0  0  0  0  0  0  0  0  0
   33.9800   28.1470   48.8900 C   0  0  0  0  0  0  0  0  0  0  0  0
   33.1090   28.6980   49.6240 O   0  0  0  0  0  0  0  0  0  0  0  0
   35.3720   28.3810   48.7270 N   0  0  0  0  0  0  0  0  0  0  0  0
   31.0750   28.1040   49.5200 Cl  0  0  0  0  0  0  0  0  0  0  0  0
   31.8370   26.9950   48.3730 C   0  0  0  0  0  0  0  0  0  0  0  0
   33.2050   27.1160   48.1620 C   0  0  0  0  0  0  0  0  0  0  0  0
   33.8460   26.2660   47.2690 C   0  0  0  0  0  0  0  0  0  0  0  0
   33.1200   25.2930   46.5840 C   0  0  0  0  0  0  0  0  0  0  0  0
   31.7430   25.1660   46.7920 C   0  0  0  0  0  0  0  0  0  0  0  0
   31.1180   26.0250   47.6900 C   0  0  0  0  0  0  0  0  0  0  0  0
   35.1246   31.0897   49.0753 H   0  0  0  0  0  0  0  0  0  0  0  0
   37.6358   32.2056   49.1527 H   0  0  0  0  0  0  0  0  0  0  0  0
   36.3479   32.2112   50.4418 H   0  0  0  0  0  0  0  0  0  0  0  0
   38.6181   30.2104   50.1670 H   0  0  0  0  0  0  0  0  0  0  0  0
   38.4855   31.5411   51.3770 H   0  0  0  0  0  0  0  0  0  0  0  0
   37.7605   29.1192   52.0479 H   0  0  0  0  0  0  0  0  0  0  0  0
   36.7098   30.5501   52.4826 H   0  0  0  0  0  0  0  0  0  0  0  0
   35.7965   28.2456   51.3385 H   0  0  0  0  0  0  0  0  0  0  0  0
   34.9999   29.8434   51.2205 H   0  0  0  0  0  0  0  0  0  0  0  0
   37.1691   28.8774   49.2822 H   0  0  0  0  0  0  0  0  0  0  0  0
   38.5336   31.5036   48.1405 H   0  0  0  0  0  0  0  0  0  0  0  0
   39.3024   31.5618   45.7239 H   0  0  0  0  0  0  0  0  0  0  0  0
   35.4825   30.0241   44.4923 H   0  0  0  0  0  0  0  0  0  0  0  0
   35.8512   27.8367   47.9956 H   0  0  0  0  0  0  0  0  0  0  0  0
   34.9291   26.3612   47.1022 H   0  0  0  0  0  0  0  0  0  0  0  0
   33.6319   24.6229   45.8776 H   0  0  0  0  0  0  0  0  0  0  0  0
   31.1642   24.4002   46.2549 H   0  0  0  0  0  0  0  0  0  0  0  0
   30.0353   25.9336   47.8614 H   0  0  0  0  0  0  0  0  0  0  0  0
  1  6  1  0
  1  2  1  0
  2  3  1  0
  3  4  1  0
  5  4  1  0
  6  5  1  0
  7  1  1  0
  8  7  2  0
  9  8  1  0
 10 11  1  0
 10  9  2  0
 11 12  2  0
 12  7  1  0
 13 14  2  0
 15 13  1  0
 15  6  1  0
 17 16  1  0
 18 17  2  0
 18 13  1  0
 19 18  1  0
 20 21  1  0
 20 19  2  0
 21 22  2  0
 22 17  1  0
  1 23  1  6
  2 24  1  0
  2 25  1  0
  3 26  1  0
  3 27  1  0
  4 28  1  0
  4 29  1  0
  5 30  1  0
  5 31  1  0
  6 32  1  1
  8 33  1  0
  9 34  1  0
 11 35  1  0
 15 36  1  0
 19 37  1  0
 20 38  1  0
 21 39  1  0
 22 40  1  0
M  ISO  8  23  13  24  13  25  13  26  13  27  13  28  13  29  13  30  13
M  ISO  8  31  13  32  13  33  14  34  14  35  14  37  14  38  14  39  14
M  ISO  1  40  14
M  END
>  <minimizedAffinity>  (1) 
-6.21284866

>  <minimizedRMSD>  (1) 
0.507059336

$$$$
