
     RDKit          3D

 42 44  0  0  1  0  0  0  0  0999 V2000
   36.4460   30.7620   48.8800 C   0  0  2  0  0  0  0  0  0  0  0  0
   37.3520   31.5230   49.7950 C   0  0  0  0  0  0  0  0  0  0  0  0
   38.0580   30.6390   50.8000 C   0  0  0  0  0  0  0  0  0  0  0  0
   37.0550   29.8310   51.6150 C   0  0  0  0  0  0  0  0  0  0  0  0
   35.8460   29.3860   50.8340 C   0  0  0  0  0  0  0  0  0  0  0  0
   36.2300   29.3570   49.3420 C   0  0  1  0  0  0  0  0  0  0  0  0
   34.0140   28.2610   48.7710 C   0  0  0  0  0  0  0  0  0  0  0  0
   33.1900   28.6800   49.6400 O   0  0  0  0  0  0  0  0  0  0  0  0
   35.3750   28.5820   48.5210 N   0  0  0  0  0  0  0  0  0  0  0  0
   33.3730   27.2960   47.9310 N   0  0  0  0  0  0  0  0  0  0  0  0
   33.8600   26.3150   46.9910 C   0  0  0  0  0  0  0  0  0  0  0  0
   33.2050   24.9940   47.3100 C   0  0  0  0  0  0  0  0  0  0  0  0
   31.8760   25.4540   47.8650 C   0  0  0  0  0  0  0  0  0  0  0  0
   31.9920   26.9350   47.7040 C   0  0  0  0  0  0  0  0  0  0  0  0
   36.9800   30.7310   47.4950 C   0  0  0  0  0  0  0  0  0  0  0  0
   38.3560   30.9460   47.3710 C   0  0  0  0  0  0  0  0  0  0  0  0
   38.8930   30.9200   46.0800 C   0  0  0  0  0  0  0  0  0  0  0  0
   38.0440   30.6850   45.0200 N   0  0  0  0  0  0  0  0  0  0  0  0
   36.7020   30.4790   45.1930 C   0  0  0  0  0  0  0  0  0  0  0  0
   36.1920   30.5070   46.4350 N   0  0  0  0  0  0  0  0  0  0  0  0
   35.4825   31.2926   48.8941 H   0  0  0  0  0  0  0  0  0  0  0  0
   38.1108   32.0382   49.1877 H   0  0  0  0  0  0  0  0  0  0  0  0
   36.7283   32.2305   50.3610 H   0  0  0  0  0  0  0  0  0  0  0  0
   38.7264   29.9484   50.2649 H   0  0  0  0  0  0  0  0  0  0  0  0
   38.6337   31.2779   51.4858 H   0  0  0  0  0  0  0  0  0  0  0  0
   37.5649   28.9365   52.0022 H   0  0  0  0  0  0  0  0  0  0  0  0
   36.6906   30.4915   52.4156 H   0  0  0  0  0  0  0  0  0  0  0  0
   35.5392   28.3814   51.1605 H   0  0  0  0  0  0  0  0  0  0  0  0
   35.0068   30.0775   51.0002 H   0  0  0  0  0  0  0  0  0  0  0  0
   37.1767   28.8070   49.2358 H   0  0  0  0  0  0  0  0  0  0  0  0
   35.7831   28.2120   47.6507 H   0  0  0  0  0  0  0  0  0  0  0  0
   34.9522   26.2212   47.0823 H   0  0  0  0  0  0  0  0  0  0  0  0
   33.6193   26.6209   45.9622 H   0  0  0  0  0  0  0  0  0  0  0  0
   33.0742   24.3800   46.4067 H   0  0  0  0  0  0  0  0  0  0  0  0
   33.7839   24.3555   47.9935 H   0  0  0  0  0  0  0  0  0  0  0  0
   31.0344   25.0498   47.2832 H   0  0  0  0  0  0  0  0  0  0  0  0
   31.6791   25.1258   48.8963 H   0  0  0  0  0  0  0  0  0  0  0  0
   31.6914   27.2257   46.6866 H   0  0  0  0  0  0  0  0  0  0  0  0
   31.3364   27.4524   48.4199 H   0  0  0  0  0  0  0  0  0  0  0  0
   38.9894   31.1279   48.2517 H   0  0  0  0  0  0  0  0  0  0  0  0
   39.9681   31.0833   45.9144 H   0  0  0  0  0  0  0  0  0  0  0  0
   36.0502   30.2931   44.3266 H   0  0  0  0  0  0  0  0  0  0  0  0
  1  6  1  0
  1  2  1  0
  2  3  1  0
  3  4  1  0
  5  4  1  0
  6  5  1  0
  7  8  2  0
  9  7  1  0
  9  6  1  0
 10  7  1  0
 11 12  1  0
 11 10  1  0
 12 13  1  0
 14 13  1  0
 14 10  1  0
 15  1  1  0
 16 15  2  0
 17 16  1  0
 18 19  1  0
 18 17  2  0
 19 20  2  0
 20 15  1  0
  1 21  1  6
  2 22  1  0
  2 23  1  0
  3 24  1  0
  3 25  1  0
  4 26  1  0
  4 27  1  0
  5 28  1  0
  5 29  1  0
  6 30  1  1
  9 31  1  0
 11 32  1  0
 11 33  1  0
 12 34  1  0
 12 35  1  0
 13 36  1  0
 13 37  1  0
 14 38  1  0
 14 39  1  0
 16 40  1  0
 17 41  1  0
 19 42  1  0
M  ISO  8  21  13  22  13  23  13  24  13  25  13  26  13  27  13  28  13
M  ISO  8  29  13  30  13  32  13  33  13  34  13  35  13  36  13  37  13
M  ISO  5  38  13  39  13  40  14  41  14  42  14
M  END
>  <minimizedAffinity>  (1) 
-6.12449455

>  <minimizedRMSD>  (1) 
0.859655321

$$$$
