
     RDKit          3D

 41 43  0  0  1  0  0  0  0  0999 V2000
   35.9740   30.5610   48.9430 C   0  0  2  0  0  0  0  0  0  0  0  0
   36.7740   31.4510   49.8420 C   0  0  0  0  0  0  0  0  0  0  0  0
   37.6130   30.6860   50.8410 C   0  0  0  0  0  0  0  0  0  0  0  0
   36.7600   29.7330   51.6710 C   0  0  0  0  0  0  0  0  0  0  0  0
   35.6040   29.1270   50.9070 C   0  0  0  0  0  0  0  0  0  0  0  0
   35.9700   29.1460   49.4110 C   0  0  1  0  0  0  0  0  0  0  0  0
   36.4900   30.6020   47.5480 C   0  0  0  0  0  0  0  0  0  0  0  0
   37.8320   30.9700   47.4100 C   0  0  0  0  0  0  0  0  0  0  0  0
   38.3410   31.0150   46.1070 C   0  0  0  0  0  0  0  0  0  0  0  0
   37.5090   30.7010   45.0550 N   0  0  0  0  0  0  0  0  0  0  0  0
   36.1970   30.3460   45.2510 C   0  0  0  0  0  0  0  0  0  0  0  0
   35.7110   30.3040   46.5020 N   0  0  0  0  0  0  0  0  0  0  0  0
   33.8310   27.9790   48.6900 C   0  0  0  0  0  0  0  0  0  0  0  0
   32.9140   28.4640   49.4050 O   0  0  0  0  0  0  0  0  0  0  0  0
   35.2220   28.2490   48.6040 N   0  0  0  0  0  0  0  0  0  0  0  0
   31.7620   26.7870   48.0900 C   0  0  0  0  0  0  0  0  0  0  0  0
   33.1300   26.9660   47.8640 C   0  0  0  0  0  0  0  0  0  0  0  0
   33.7600   26.1940   46.8930 C   0  0  0  0  0  0  0  0  0  0  0  0
   33.0040   25.2690   46.1780 C   0  0  0  0  0  0  0  0  0  0  0  0
   31.6520   25.1040   46.4140 C   0  0  0  0  0  0  0  0  0  0  0  0
   30.9950   25.8630   47.3800 C   0  0  0  0  0  0  0  0  0  0  0  0
   30.5130   28.1880   49.8950 N   0  0  0  0  0  0  0  0  0  0  0  0
   31.0680   27.5630   49.0840 C   0  0  0  0  0  0  0  0  0  0  0  0
   34.9435   30.9448   48.9699 H   0  0  0  0  0  0  0  0  0  0  0  0
   37.4426   32.0657   49.2213 H   0  0  0  0  0  0  0  0  0  0  0  0
   36.0623   32.0649   50.4135 H   0  0  0  0  0  0  0  0  0  0  0  0
   38.3738   30.1052   50.2989 H   0  0  0  0  0  0  0  0  0  0  0  0
   38.0854   31.4094   51.5218 H   0  0  0  0  0  0  0  0  0  0  0  0
   37.4030   28.9169   52.0322 H   0  0  0  0  0  0  0  0  0  0  0  0
   36.3274   30.3227   52.4927 H   0  0  0  0  0  0  0  0  0  0  0  0
   35.4374   28.0915   51.2388 H   0  0  0  0  0  0  0  0  0  0  0  0
   34.6819   29.6997   51.0853 H   0  0  0  0  0  0  0  0  0  0  0  0
   36.9852   28.7393   49.2927 H   0  0  0  0  0  0  0  0  0  0  0  0
   38.4567   31.2121   48.2824 H   0  0  0  0  0  0  0  0  0  0  0  0
   39.3888   31.2966   45.9259 H   0  0  0  0  0  0  0  0  0  0  0  0
   35.5526   30.0993   44.3943 H   0  0  0  0  0  0  0  0  0  0  0  0
   35.7450   27.7391   47.8778 H   0  0  0  0  0  0  0  0  0  0  0  0
   34.8354   26.3123   46.6939 H   0  0  0  0  0  0  0  0  0  0  0  0
   33.4938   24.6554   45.4076 H   0  0  0  0  0  0  0  0  0  0  0  0
   31.0866   24.3625   45.8305 H   0  0  0  0  0  0  0  0  0  0  0  0
   29.9194   25.7392   47.5742 H   0  0  0  0  0  0  0  0  0  0  0  0
  1  6  1  0
  1  2  1  0
  2  3  1  0
  3  4  1  0
  5  4  1  0
  6  5  1  0
  7  1  1  0
  8  7  2  0
  9  8  1  0
 10 11  1  0
 10  9  2  0
 11 12  2  0
 12  7  1  0
 13 14  2  0
 15 13  1  0
 15  6  1  0
 16 23  1  0
 17 16  2  0
 17 13  1  0
 18 17  1  0
 19 20  1  0
 19 18  2  0
 20 21  2  0
 21 16  1  0
 23 22  3  0
  1 24  1  6
  2 25  1  0
  2 26  1  0
  3 27  1  0
  3 28  1  0
  4 29  1  0
  4 30  1  0
  5 31  1  0
  5 32  1  0
  6 33  1  1
  8 34  1  0
  9 35  1  0
 11 36  1  0
 15 37  1  0
 18 38  1  0
 19 39  1  0
 20 40  1  0
 21 41  1  0
M  ISO  8  24  13  25  13  26  13  27  13  28  13  29  13  30  13  31  13
M  ISO  8  32  13  33  13  34  14  35  14  36  14  38  14  39  14  40  14
M  ISO  1  41  14
M  END
>  <minimizedAffinity>  (1) 
-6.00030422

>  <minimizedRMSD>  (1) 
0.77451247

$$$$
