
     RDKit          3D

 37 39  0  0  1  0  0  0  0  0999 V2000
   36.3690   30.7340   48.9580 C   0  0  2  0  0  0  0  0  0  0  0  0
   37.3560   31.6130   49.6650 C   0  0  0  0  0  0  0  0  0  0  0  0
   38.2570   30.8460   50.6080 C   0  0  0  0  0  0  0  0  0  0  0  0
   37.4240   30.0760   51.6320 C   0  0  0  0  0  0  0  0  0  0  0  0
   36.1550   29.4910   51.0730 C   0  0  0  0  0  0  0  0  0  0  0  0
   36.3110   29.3630   49.5460 C   0  0  1  0  0  0  0  0  0  0  0  0
   36.6930   30.6200   47.5110 C   0  0  0  0  0  0  0  0  0  0  0  0
   38.0480   30.7910   47.1790 C   0  0  0  0  0  0  0  0  0  0  0  0
   38.3800   30.6860   45.8230 C   0  0  0  0  0  0  0  0  0  0  0  0
   37.3770   30.4270   44.9140 N   0  0  0  0  0  0  0  0  0  0  0  0
   36.0730   30.2690   45.2920 C   0  0  0  0  0  0  0  0  0  0  0  0
   35.7500   30.3690   46.5970 N   0  0  0  0  0  0  0  0  0  0  0  0
   33.9910   28.4060   49.1470 C   0  0  0  0  0  0  0  0  0  0  0  0
   33.2170   29.1060   49.8650 O   0  0  0  0  0  0  0  0  0  0  0  0
   35.3930   28.4800   48.9240 N   0  0  0  0  0  0  0  0  0  0  0  0
   33.1920   27.3550   48.4640 C   0  0  0  0  0  0  0  0  0  0  0  0
   33.6270   26.3810   47.5950 C   0  0  0  0  0  0  0  0  0  0  0  0
   32.5360   25.5990   47.1870 C   0  0  0  0  0  0  0  0  0  0  0  0
   31.4720   26.1670   47.8560 C   0  0  0  0  0  0  0  0  0  0  0  0
   31.8990   27.1590   48.5660 O   0  0  0  0  0  0  0  0  0  0  0  0
   35.3869   31.2131   49.0840 H   0  0  0  0  0  0  0  0  0  0  0  0
   37.9816   32.1148   48.9121 H   0  0  0  0  0  0  0  0  0  0  0  0
   36.7840   32.3337   50.2678 H   0  0  0  0  0  0  0  0  0  0  0  0
   38.8670   30.1364   50.0297 H   0  0  0  0  0  0  0  0  0  0  0  0
   38.9066   31.5576   51.1388 H   0  0  0  0  0  0  0  0  0  0  0  0
   38.0378   29.2544   52.0298 H   0  0  0  0  0  0  0  0  0  0  0  0
   37.1274   30.7970   52.4080 H   0  0  0  0  0  0  0  0  0  0  0  0
   35.9780   28.4985   51.5130 H   0  0  0  0  0  0  0  0  0  0  0  0
   35.3009   30.1414   51.3128 H   0  0  0  0  0  0  0  0  0  0  0  0
   37.2633   28.8553   49.3331 H   0  0  0  0  0  0  0  0  0  0  0  0
   38.8092   30.9969   47.9459 H   0  0  0  0  0  0  0  0  0  0  0  0
   39.4211   30.8079   45.4896 H   0  0  0  0  0  0  0  0  0  0  0  0
   35.2966   30.0628   44.5405 H   0  0  0  0  0  0  0  0  0  0  0  0
   35.7841   27.8207   48.2361 H   0  0  0  0  0  0  0  0  0  0  0  0
   34.6683   26.2377   47.2706 H   0  0  0  0  0  0  0  0  0  0  0  0
   32.5305   24.7403   46.4996 H   0  0  0  0  0  0  0  0  0  0  0  0
   30.4268   25.8296   47.7950 H   0  0  0  0  0  0  0  0  0  0  0  0
  1  6  1  0
  1  2  1  0
  2  3  1  0
  3  4  1  0
  5  4  1  0
  6  5  1  0
  7  1  1  0
  8  7  2  0
  9  8  1  0
 10 11  1  0
 10  9  2  0
 11 12  2  0
 12  7  1  0
 13 14  2  0
 15 13  1  0
 15  6  1  0
 16 20  1  0
 16 13  1  0
 17 16  2  0
 18 17  1  0
 18 19  2  0
 19 20  1  0
  1 21  1  6
  2 22  1  0
  2 23  1  0
  3 24  1  0
  3 25  1  0
  4 26  1  0
  4 27  1  0
  5 28  1  0
  5 29  1  0
  6 30  1  1
  8 31  1  0
  9 32  1  0
 11 33  1  0
 15 34  1  0
 17 35  1  0
 18 36  1  0
 19 37  1  0
M  ISO  8  21  13  22  13  23  13  24  13  25  13  26  13  27  13  28  13
M  ISO  8  29  13  30  13  31  14  32  14  33  14  35  14  36  14  37  14
M  END
>  <minimizedAffinity>  (1) 
-5.91449594

>  <minimizedRMSD>  (1) 
0.675128222

$$$$
