
     RDKit          3D

 40 44  0  0  1  0  0  0  0  0999 V2000
   36.9600   31.3450   48.1280 C   0  0  1  0  0  0  0  0  0  0  0  0
   38.2610   31.5320   48.7940 C   0  0  0  0  0  0  0  0  0  0  0  0
   38.2480   30.6910   47.5670 C   0  0  2  0  0  0  0  0  0  0  0  0
   38.9820   31.3620   46.4650 C   0  0  0  0  0  0  0  0  0  0  0  0
   39.4460   32.6150   46.8810 C   0  0  0  0  0  0  0  0  0  0  0  0
   40.2340   33.3900   46.0510 C   0  0  0  0  0  0  0  0  0  0  0  0
   40.5850   32.9430   44.7770 C   0  0  0  0  0  0  0  0  0  0  0  0
   40.1130   31.7070   44.4000 C   0  0  0  0  0  0  0  0  0  0  0  0
   40.3710   31.1440   43.1670 C   0  0  0  0  0  0  0  0  0  0  0  0
   39.8980   29.9130   42.7620 C   0  0  0  0  0  0  0  0  0  0  0  0
   39.1160   29.1850   43.6390 C   0  0  0  0  0  0  0  0  0  0  0  0
   38.8470   29.7300   44.8750 C   0  0  0  0  0  0  0  0  0  0  0  0
   39.3390   30.9560   45.2290 C   0  0  0  0  0  0  0  0  0  0  0  0
   35.0680   29.1750   50.5600 C   0  0  0  0  0  0  0  0  0  0  0  0
   35.9880   30.1320   50.0460 C   0  0  0  0  0  0  0  0  0  0  0  0
   36.0090   30.3640   48.6900 C   0  0  0  0  0  0  0  0  0  0  0  0
   35.1250   29.6410   47.9190 N   0  0  0  0  0  0  0  0  0  0  0  0
   34.2670   28.7450   48.4210 C   0  0  0  0  0  0  0  0  0  0  0  0
   34.2250   28.4960   49.7480 N   0  0  0  0  0  0  0  0  0  0  0  0
   33.3320   27.9930   47.5440 C   0  0  0  0  0  0  0  0  0  0  0  0
   32.4980   26.8880   48.1230 C   0  0  0  0  0  0  0  0  0  0  0  0
   33.7310   26.5420   47.3230 C   0  0  0  0  0  0  0  0  0  0  0  0
   36.1814   32.0427   47.7859 H   0  0  0  0  0  0  0  0  0  0  0  0
   38.7452   32.5194   48.7682 H   0  0  0  0  0  0  0  0  0  0  0  0
   38.6179   31.3697   49.8218 H   0  0  0  0  0  0  0  0  0  0  0  0
   38.4820   29.6640   47.2499 H   0  0  0  0  0  0  0  0  0  0  0  0
   39.1802   32.9879   47.8812 H   0  0  0  0  0  0  0  0  0  0  0  0
   40.5887   34.3713   46.3993 H   0  0  0  0  0  0  0  0  0  0  0  0
   41.2098   33.5502   44.1055 H   0  0  0  0  0  0  0  0  0  0  0  0
   40.9940   31.7134   42.4615 H   0  0  0  0  0  0  0  0  0  0  0  0
   40.1379   29.5195   41.7632 H   0  0  0  0  0  0  0  0  0  0  0  0
   38.7197   28.1982   43.3577 H   0  0  0  0  0  0  0  0  0  0  0  0
   38.2260   29.1697   45.5894 H   0  0  0  0  0  0  0  0  0  0  0  0
   35.0418   28.9829   51.6428 H   0  0  0  0  0  0  0  0  0  0  0  0
   36.6680   30.6748   50.7190 H   0  0  0  0  0  0  0  0  0  0  0  0
   33.0834   28.8703   46.9287 H   0  0  0  0  0  0  0  0  0  0  0  0
   32.4859   26.7226   49.2104 H   0  0  0  0  0  0  0  0  0  0  0  0
   31.4354   26.6095   48.0661 H   0  0  0  0  0  0  0  0  0  0  0  0
   33.6324   26.0884   46.3258 H   0  0  0  0  0  0  0  0  0  0  0  0
   34.6369   25.9445   47.5025 H   0  0  0  0  0  0  0  0  0  0  0  0
  1 16  1  0
  1  2  1  0
  3  1  1  0
  3  2  1  0
  4  5  2  0
  4  3  1  0
  6  5  1  0
  7  6  2  0
  8  7  1  0
  8 13  2  0
  9  8  1  0
 10  9  2  0
 10 11  1  0
 11 12  2  0
 12 13  1  0
 13  4  1  0
 15 14  2  0
 16 15  1  0
 17 18  1  0
 17 16  2  0
 18 19  2  0
 19 14  1  0
 20 21  1  0
 20 18  1  0
 22 20  1  0
 22 21  1  0
  1 23  1  6
  2 24  1  0
  2 25  1  0
  3 26  1  1
  5 27  1  0
  6 28  1  0
  7 29  1  0
  9 30  1  0
 10 31  1  0
 11 32  1  0
 12 33  1  0
 14 34  1  0
 15 35  1  0
 20 36  1  0
 21 37  1  0
 21 38  1  0
 22 39  1  0
 22 40  1  0
M  ISO  8  23  13  24  13  25  13  26  13  27  14  28  14  29  14  30  14
M  ISO  8  31  14  32  14  33  14  34  14  35  14  36  13  37  13  38  13
M  ISO  2  39  13  40  13
M  END
>  <minimizedAffinity>  (1) 
-6.82020998

>  <minimizedRMSD>  (1) 
3.37612724

$$$$
