
     RDKit          3D

 46 50  0  0  1  0  0  0  0  0999 V2000
   36.9130   31.0150   45.1800 C   0  0  1  0  0  0  0  0  0  0  0  0
   37.9850   32.0420   45.2420 C   0  0  0  0  0  0  0  0  0  0  0  0
   38.4700   30.6850   45.1110 C   0  0  2  0  0  0  0  0  0  0  0  0
   39.0380   30.4460   43.7390 C   0  0  0  0  0  0  0  0  0  0  0  0
   39.4480   31.6500   43.1650 C   0  0  0  0  0  0  0  0  0  0  0  0
   40.0890   31.6520   41.9530 C   0  0  0  0  0  0  0  0  0  0  0  0
   40.3480   30.4580   41.2650 C   0  0  0  0  0  0  0  0  0  0  0  0
   39.9280   29.2790   41.8630 C   0  0  0  0  0  0  0  0  0  0  0  0
   40.1070   28.0490   41.2930 C   0  0  0  0  0  0  0  0  0  0  0  0
   39.6850   26.8770   41.8680 C   0  0  0  0  0  0  0  0  0  0  0  0
   39.0460   26.9290   43.0870 C   0  0  0  0  0  0  0  0  0  0  0  0
   38.8610   28.1660   43.6700 C   0  0  0  0  0  0  0  0  0  0  0  0
   39.3020   29.3200   43.0550 C   0  0  0  0  0  0  0  0  0  0  0  0
   34.6820   29.3500   47.7260 C   0  0  0  0  0  0  0  0  0  0  0  0
   35.2400   29.7410   46.4690 C   0  0  0  0  0  0  0  0  0  0  0  0
   36.3160   30.5800   46.4680 C   0  0  0  0  0  0  0  0  0  0  0  0
   36.7840   30.9880   47.7030 N   0  0  0  0  0  0  0  0  0  0  0  0
   36.2520   30.6150   48.8700 C   0  0  0  0  0  0  0  0  0  0  0  0
   35.1890   29.7870   48.8970 N   0  0  0  0  0  0  0  0  0  0  0  0
   36.8790   31.1390   50.1280 C   0  0  0  0  0  0  0  0  0  0  0  0
   38.3080   31.5950   49.7610 C   0  0  0  0  0  0  0  0  0  0  0  0
   38.2730   33.0670   49.4200 C   0  0  0  0  0  0  0  0  0  0  0  0
   39.1880   33.6300   48.4090 C   0  0  0  0  0  0  0  0  0  0  0  0
   39.4580   33.9380   49.8380 C   0  0  0  0  0  0  0  0  0  0  0  0
   36.0050   30.8812   44.5737 H   0  0  0  0  0  0  0  0  0  0  0  0
   38.1080   32.7361   44.3976 H   0  0  0  0  0  0  0  0  0  0  0  0
   38.2051   32.8424   45.9638 H   0  0  0  0  0  0  0  0  0  0  0  0
   39.1267   29.9923   45.6578 H   0  0  0  0  0  0  0  0  0  0  0  0
   39.2565   32.5996   43.6861 H   0  0  0  0  0  0  0  0  0  0  0  0
   40.4061   32.6085   41.5120 H   0  0  0  0  0  0  0  0  0  0  0  0
   40.8623   30.4563   40.2926 H   0  0  0  0  0  0  0  0  0  0  0  0
   40.6174   27.9963   40.3200 H   0  0  0  0  0  0  0  0  0  0  0  0
   39.8539   25.9136   41.3647 H   0  0  0  0  0  0  0  0  0  0  0  0
   38.6936   26.0116   43.5812 H   0  0  0  0  0  0  0  0  0  0  0  0
   38.3525   28.2335   44.6431 H   0  0  0  0  0  0  0  0  0  0  0  0
   33.8146   28.6736   47.7384 H   0  0  0  0  0  0  0  0  0  0  0  0
   34.8118   29.3739   45.5246 H   0  0  0  0  0  0  0  0  0  0  0  0
   36.2981   31.9895   50.5143 H   0  0  0  0  0  0  0  0  0  0  0  0
   36.9013   30.3646   50.9089 H   0  0  0  0  0  0  0  0  0  0  0  0
   38.9807   31.4286   50.6153 H   0  0  0  0  0  0  0  0  0  0  0  0
   38.6762   31.0188   48.8994 H   0  0  0  0  0  0  0  0  0  0  0  0
   37.1825   33.0844   49.5632 H   0  0  0  0  0  0  0  0  0  0  0  0
   39.8675   32.9626   47.8586 H   0  0  0  0  0  0  0  0  0  0  0  0
   39.0471   34.2444   47.5075 H   0  0  0  0  0  0  0  0  0  0  0  0
   39.2894   34.9529   50.2274 H   0  0  0  0  0  0  0  0  0  0  0  0
   40.3152   33.8255   50.5181 H   0  0  0  0  0  0  0  0  0  0  0  0
  1  2  1  0
  1 16  1  0
  3  1  1  0
  3  2  1  0
  4  3  1  0
  5  4  2  0
  6  5  1  0
  7  8  1  0
  7  6  2  0
  8 13  2  0
  9  8  1  0
  9 10  2  0
 10 11  1  0
 11 12  2  0
 13 12  1  0
 13  4  1  0
 14 19  2  0
 15 14  1  0
 16 15  2  0
 16 17  1  0
 17 18  2  0
 18 19  1  0
 18 20  1  0
 21 20  1  0
 22 21  1  0
 22 24  1  0
 23 22  1  0
 23 24  1  0
  1 25  1  6
  2 26  1  0
  2 27  1  0
  3 28  1  1
  5 29  1  0
  6 30  1  0
  7 31  1  0
  9 32  1  0
 10 33  1  0
 11 34  1  0
 12 35  1  0
 14 36  1  0
 15 37  1  0
 20 38  1  0
 20 39  1  0
 21 40  1  0
 21 41  1  0
 22 42  1  0
 23 43  1  0
 23 44  1  0
 24 45  1  0
 24 46  1  0
M  ISO  8  25  13  26  13  27  13  28  13  29  14  30  14  31  14  32  14
M  ISO  8  33  14  34  14  35  14  36  14  37  14  38   8  39   8  40   8
M  ISO  6  41   8  42  13  43  13  44  13  45  13  46  13
M  END
>  <minimizedAffinity>  (1) 
-5.93269014

>  <minimizedRMSD>  (1) 
3.17943263

$$$$
