
     RDKit          3D

 27 28  0  0  0  0  0  0  0  0999 V2000
   34.8030   28.3480   49.5260 C   0  0  0  0  0  0  0  0  0  0  0  0
   34.3890   28.1870   48.2580 C   0  0  0  0  0  0  0  0  0  0  0  0
   33.8310   29.4260   48.0640 O   0  0  0  0  0  0  0  0  0  0  0  0
   33.7220   29.8750   46.7580 C   0  0  0  0  0  0  0  0  0  0  0  0
   34.9260   29.7470   46.0390 C   0  0  0  0  0  0  0  0  0  0  0  0
   34.9550   30.1600   44.7180 C   0  0  0  0  0  0  0  0  0  0  0  0
   33.8040   30.6700   44.1850 N   0  0  0  0  0  0  0  0  0  0  0  0
   32.6590   30.7860   44.8850 C   0  0  0  0  0  0  0  0  0  0  0  0
   32.6250   30.3950   46.1480 N   0  0  0  0  0  0  0  0  0  0  0  0
   34.8390   29.6900   50.1810 C   0  0  0  0  0  0  0  0  0  0  0  0
   36.2540   30.1190   50.3450 C   0  0  0  0  0  0  0  0  0  0  0  0
   36.9180   31.0360   49.5300 C   0  0  0  0  0  0  0  0  0  0  0  0
   38.2070   31.1830   49.9850 C   0  0  0  0  0  0  0  0  0  0  0  0
   38.2820   30.3610   51.0480 N   0  0  0  0  0  0  0  0  0  0  0  0
   37.1500   29.7380   51.2640 N   0  0  0  0  0  0  0  0  0  0  0  0
   35.8305   27.9575   49.5667 H   0  0  0  0  0  0  0  0  0  0  0  0
   34.0139   27.8339   50.0944 H   0  0  0  0  0  0  0  0  0  0  0  0
   35.2262   27.9978   47.5701 H   0  0  0  0  0  0  0  0  0  0  0  0
   33.7218   27.3308   48.0798 H   0  0  0  0  0  0  0  0  0  0  0  0
   35.8239   29.3280   46.5166 H   0  0  0  0  0  0  0  0  0  0  0  0
   35.8732   30.0805   44.1175 H   0  0  0  0  0  0  0  0  0  0  0  0
   31.7588   31.2029   44.4097 H   0  0  0  0  0  0  0  0  0  0  0  0
   34.3042   30.4191   49.5546 H   0  0  0  0  0  0  0  0  0  0  0  0
   34.3548   29.6320   51.1670 H   0  0  0  0  0  0  0  0  0  0  0  0
   36.4816   31.5564   48.6647 H   0  0  0  0  0  0  0  0  0  0  0  0
   38.9982   31.8269   49.5733 H   0  0  0  0  0  0  0  0  0  0  0  0
   39.1277   30.2367   51.6226 H   0  0  0  0  0  0  0  0  0  0  0  0
  1 10  1  0
  2  1  1  0
  3  2  1  0
  4  3  1  0
  5  4  2  0
  6  5  1  0
  7  6  2  0
  7  8  1  0
  8  9  2  0
  9  4  1  0
 10 11  1  0
 11 15  2  0
 12 13  2  0
 12 11  1  0
 13 14  1  0
 14 15  1  0
  1 16  1  0
  1 17  1  0
  2 18  1  0
  2 19  1  0
  5 20  1  0
  6 21  1  0
  8 22  1  0
 10 23  1  0
 10 24  1  0
 12 25  1  0
 13 26  1  0
 14 27  1  0
M  ISO  8  16   8  17   8  18   8  19   8  20  14  21  14  22  14  23   8
M  ISO  4  24   8  25  14  26  14  27   9
M  END
>  <minimizedAffinity>  (1) 
-4.15877247

>  <minimizedRMSD>  (1) 
4.49721766

$$$$
