
     RDKit          3D

 26 26  0  0  0  0  0  0  0  0999 V2000
   36.6840   30.6070   46.8980 C   0  0  0  0  0  0  0  0  0  0  0  0
   36.3820   30.9260   48.1580 C   0  0  0  0  0  0  0  0  0  0  0  0
   37.3820   31.3810   49.1590 C   0  0  0  0  0  0  0  0  0  0  0  0
   36.8090   31.3100   50.4350 O   0  0  0  0  0  0  0  0  0  0  0  0
   37.5880   28.8100   50.1060 O   0  0  0  0  0  0  0  0  0  0  0  0
   36.8960   29.7540   51.0760 P   0  0  0  0  0  0  0  0  0  0  0  0
   35.3280   29.1760   51.4240 O   0  0  0  0  0  0  0  0  0  0  0  0
   37.8480   29.8070   52.4620 O   0  0  0  0  0  0  0  0  0  0  0  0
   38.0630   30.6830   47.0300 O   0  0  0  0  0  0  0  0  0  0  0  0
   38.7380   31.3920   46.0550 C   0  0  0  0  0  0  0  0  0  0  0  0
   40.0920   31.0300   45.9680 C   0  0  0  0  0  0  0  0  0  0  0  0
   40.8890   31.6780   45.0160 C   0  0  0  0  0  0  0  0  0  0  0  0
   40.3000   32.6340   44.2200 N   0  0  0  0  0  0  0  0  0  0  0  0
   38.9830   32.9480   44.3420 C   0  0  0  0  0  0  0  0  0  0  0  0
   38.2310   32.3320   45.2450 N   0  0  0  0  0  0  0  0  0  0  0  0
   36.2899   31.3350   46.1736 H   0  0  0  0  0  0  0  0  0  0  0  0
   36.2773   29.6576   46.5196 H   0  0  0  0  0  0  0  0  0  0  0  0
   35.6370   31.7326   48.0918 H   0  0  0  0  0  0  0  0  0  0  0  0
   36.1090   29.9413   48.5652 H   0  0  0  0  0  0  0  0  0  0  0  0
   38.2695   30.7326   49.1158 H   0  0  0  0  0  0  0  0  0  0  0  0
   37.6831   32.4165   48.9420 H   0  0  0  0  0  0  0  0  0  0  0  0
   35.2034   29.1301   52.4051 H   0  0  0  0  0  0  0  0  0  0  0  0
   37.2669   29.7747   53.2629 H   0  0  0  0  0  0  0  0  0  0  0  0
   40.5148   30.2591   46.6290 H   0  0  0  0  0  0  0  0  0  0  0  0
   41.9552   31.4300   44.9075 H   0  0  0  0  0  0  0  0  0  0  0  0
   38.5395   33.7150   43.6901 H   0  0  0  0  0  0  0  0  0  0  0  0
  1  9  1  0
  1  2  1  0
  2  3  1  0
  3  4  1  0
  4  6  1  0
  5  6  2  0
  6  7  1  0
  6  8  1  0
 10  9  1  0
 11 10  2  0
 12 11  1  0
 13 14  1  0
 13 12  2  0
 14 15  2  0
 15 10  1  0
  1 16  1  0
  1 17  1  0
  2 18  1  0
  2 19  1  0
  3 20  1  0
  3 21  1  0
  7 22  1  0
  8 23  1  0
 11 24  1  0
 12 25  1  0
 14 26  1  0
M  ISO  8  16   8  17   8  18   8  19   8  20   8  21   8  22   3  23   3
M  ISO  3  24  14  25  14  26  14
M  END
>  <minimizedAffinity>  (1) 
-4.14463854

>  <minimizedRMSD>  (1) 
3.17561722

$$$$
