
     RDKit          3D

 32 33  0  0  1  0  0  0  0  0999 V2000
   35.9380   29.5850   48.9590 C   0  0  0  0  0  0  0  0  0  0  0  0
   36.2660   29.3030   50.2780 C   0  0  0  0  0  0  0  0  0  0  0  0
   37.2880   29.9170   50.9870 C   0  0  0  0  0  0  0  0  0  0  0  0
   38.0390   30.8860   50.3270 C   0  0  0  0  0  0  0  0  0  0  0  0
   37.7200   31.1770   49.0050 C   0  0  0  0  0  0  0  0  0  0  0  0
   36.6950   30.5380   48.3490 C   0  0  0  0  0  0  0  0  0  0  0  0
   34.8450   28.8700   48.3360 C   0  0  0  0  0  0  0  0  0  0  0  0
   34.4480   27.8440   49.0010 O   0  0  0  0  0  0  0  0  0  0  0  0
   32.7360   30.7310   46.0520 C   0  0  0  0  0  0  0  0  0  0  0  0
   32.9170   30.1110   44.8240 C   0  0  0  0  0  0  0  0  0  0  0  0
   33.7770   29.0350   44.7810 C   0  0  0  0  0  0  0  0  0  0  0  0
   34.4230   28.6040   45.9200 N   0  0  0  0  0  0  0  0  0  0  0  0
   34.2170   29.2310   47.0770 C   0  0  0  0  0  0  0  0  0  0  0  0
   33.3820   30.2790   47.1310 N   0  0  0  0  0  0  0  0  0  0  0  0
   36.4920   30.9300   47.0020 N   0  0  0  0  0  0  0  0  0  0  0  0
   37.5290   31.0740   45.6370 S   0  0  0  0  0  0  0  0  0  0  0  0
   38.8940   30.5250   46.0340 O   0  0  0  0  0  0  0  0  0  0  0  0
   37.0470   30.3660   44.4250 O   0  0  0  0  0  0  0  0  0  0  0  0
   37.7810   32.7280   45.3290 O   0  0  0  0  0  0  0  0  0  0  0  0
   35.6725   28.5371   50.7987 H   0  0  0  0  0  0  0  0  0  0  0  0
   37.4975   29.6481   52.0328 H   0  0  0  0  0  0  0  0  0  0  0  0
   38.8623   31.4072   50.8374 H   0  0  0  0  0  0  0  0  0  0  0  0
   38.3042   31.9398   48.4694 H   0  0  0  0  0  0  0  0  0  0  0  0
   35.5659   28.2400   47.7943 H   0  0  0  0  0  0  0  0  0  0  0  0
   34.5203   28.0309   49.9705 H   0  0  0  0  0  0  0  0  0  0  0  0
   32.0605   31.5949   46.1374 H   0  0  0  0  0  0  0  0  0  0  0  0
   32.3956   30.4638   43.9220 H   0  0  0  0  0  0  0  0  0  0  0  0
   33.9498   28.5144   43.8275 H   0  0  0  0  0  0  0  0  0  0  0  0
   35.5148   31.1826   46.7966 H   0  0  0  0  0  0  0  0  0  0  0  0
   38.9640   30.4969   47.0211 H   0  0  0  0  0  0  0  0  0  0  0  0
   36.5109   29.5785   44.6942 H   0  0  0  0  0  0  0  0  0  0  0  0
   37.8553   33.2159   46.1872 H   0  0  0  0  0  0  0  0  0  0  0  0
  1  2  2  0
  2  3  1  0
  4  3  2  0
  5  4  1  0
  6  1  1  0
  6  5  2  0
  7  1  1  0
  7  8  1  0
  9 14  2  0
 10  9  1  0
 11 10  2  0
 11 12  1  0
 12 13  2  0
 13 14  1  0
 13  7  1  0
 15  6  1  0
 16 17  1  0
 16 15  1  0
 18 16  1  0
 19 16  1  0
  2 20  1  0
  3 21  1  0
  4 22  1  0
  5 23  1  0
  7 24  1  0
  8 25  1  0
  9 26  1  0
 10 27  1  0
 11 28  1  0
 15 29  1  0
 17 30  1  0
 18 31  1  0
 19 32  1  0
M  ISO  8  20  14  21  14  22  14  23  14  24   8  25   3  26  14  27  14
M  ISO  4  28  14  30   3  31   3  32   3
M  END
>  <minimizedAffinity>  (1) 
-5.45906067

>  <minimizedRMSD>  (1) 
1.1664933

$$$$
