
     RDKit          3D

 34 36  0  0  1  0  0  0  0  0999 V2000
   34.9140   29.3160   47.1070 C   0  0  0  0  0  0  0  0  0  0  0  0
   33.9070   28.4910   47.6470 C   0  0  0  0  0  0  0  0  0  0  0  0
   33.9450   28.0810   48.9910 C   0  0  0  0  0  0  0  0  0  0  0  0
   35.0140   28.5070   49.8060 C   0  0  0  0  0  0  0  0  0  0  0  0
   35.9940   29.3230   49.2430 C   0  0  0  0  0  0  0  0  0  0  0  0
   35.9350   29.7140   47.9170 C   0  0  0  0  0  0  0  0  0  0  0  0
   36.2090   31.7860   49.9640 Cl  0  0  0  0  0  0  0  0  0  0  0  0
   37.1920   31.5500   48.5140 C   0  0  0  0  0  0  0  0  0  0  0  0
   37.0590   30.5460   47.5440 C   0  0  0  0  0  0  0  0  0  0  0  0
   37.9550   30.5750   46.4960 C   0  0  0  0  0  0  0  0  0  0  0  0
   38.9350   31.5300   46.3910 C   0  0  0  0  0  0  0  0  0  0  0  0
   39.0630   32.5150   47.3450 C   0  0  0  0  0  0  0  0  0  0  0  0
   38.1910   32.5280   48.4110 C   0  0  0  0  0  0  0  0  0  0  0  0
   34.8000   29.6860   45.7110 C   0  0  0  0  0  0  0  0  0  0  0  0
   35.6970   29.1700   44.9480 O   0  0  0  0  0  0  0  0  0  0  0  0
   31.7640   31.6650   45.6220 C   0  0  0  0  0  0  0  0  0  0  0  0
   31.7550   32.2240   44.3300 C   0  0  0  0  0  0  0  0  0  0  0  0
   32.8040   31.9110   43.4770 C   0  0  0  0  0  0  0  0  0  0  0  0
   33.8070   31.0770   43.9100 N   0  0  0  0  0  0  0  0  0  0  0  0
   33.7710   30.5710   45.1480 C   0  0  0  0  0  0  0  0  0  0  0  0
   32.7550   30.8660   45.9910 N   0  0  0  0  0  0  0  0  0  0  0  0
   33.0764   28.1620   47.0052 H   0  0  0  0  0  0  0  0  0  0  0  0
   33.1526   27.4374   49.4009 H   0  0  0  0  0  0  0  0  0  0  0  0
   35.0732   28.2025   50.8614 H   0  0  0  0  0  0  0  0  0  0  0  0
   36.8333   29.6638   49.8670 H   0  0  0  0  0  0  0  0  0  0  0  0
   37.8814   29.8038   45.7150 H   0  0  0  0  0  0  0  0  0  0  0  0
   39.6259   31.5085   45.5354 H   0  0  0  0  0  0  0  0  0  0  0  0
   39.8492   33.2793   47.2570 H   0  0  0  0  0  0  0  0  0  0  0  0
   38.2786   33.3070   49.1827 H   0  0  0  0  0  0  0  0  0  0  0  0
   34.1493   28.8169   45.5338 H   0  0  0  0  0  0  0  0  0  0  0  0
   36.4074   28.7614   45.5034 H   0  0  0  0  0  0  0  0  0  0  0  0
   30.9488   31.8913   46.3251 H   0  0  0  0  0  0  0  0  0  0  0  0
   30.9408   32.8890   44.0062 H   0  0  0  0  0  0  0  0  0  0  0  0
   32.8326   32.3282   42.4596 H   0  0  0  0  0  0  0  0  0  0  0  0
  1  2  2  0
  1  6  1  0
  2  3  1  0
  3  4  2  0
  5  4  1  0
  6  5  2  0
  8  7  1  0
  9  6  1  0
  9  8  2  0
 10  9  1  0
 11 10  2  0
 11 12  1  0
 12 13  2  0
 13  8  1  0
 14 15  1  0
 14  1  1  0
 16 21  2  0
 17 16  1  0
 18 19  1  0
 18 17  2  0
 19 20  2  0
 20 14  1  0
 20 21  1  0
  2 22  1  0
  3 23  1  0
  4 24  1  0
  5 25  1  0
 10 26  1  0
 11 27  1  0
 12 28  1  0
 13 29  1  0
 14 30  1  0
 15 31  1  0
 16 32  1  0
 17 33  1  0
 18 34  1  0
M  ISO  8  22  14  23  14  24  14  25  14  26  14  27  14  28  14  29  14
M  ISO  5  30   8  31   3  32  14  33  14  34  14
M  END
>  <minimizedAffinity>  (1) 
-5.42329979

>  <minimizedRMSD>  (1) 
3.25501776

$$$$
