
     RDKit          3D

 31 33  0  0  1  0  0  0  0  0999 V2000
   36.8620   31.1530   48.3400 C   0  0  0  0  0  0  0  0  0  0  0  0
   36.6720   31.7150   49.6270 C   0  0  0  0  0  0  0  0  0  0  0  0
   37.4980   32.7620   50.0700 C   0  0  0  0  0  0  0  0  0  0  0  0
   38.4960   33.2470   49.2520 C   0  0  0  0  0  0  0  0  0  0  0  0
   38.6360   32.6690   48.0220 C   0  0  0  0  0  0  0  0  0  0  0  0
   37.8430   31.6290   47.5420 C   0  0  0  0  0  0  0  0  0  0  0  0
   38.2300   31.2840   46.2030 C   0  0  0  0  0  0  0  0  0  0  0  0
   37.9730   32.3460   45.1810 C   0  0  0  0  0  0  0  0  0  0  0  0
   38.3750   32.2620   43.9060 C   0  0  0  0  0  0  0  0  0  0  0  0
   39.0720   31.0690   43.5950 C   0  0  0  0  0  0  0  0  0  0  0  0
   39.1160   30.1820   45.0470 S   0  0  0  0  0  0  0  0  0  0  0  0
   35.9710   30.0610   47.9490 C   0  0  0  0  0  0  0  0  0  0  0  0
   36.0790   29.0030   48.6940 O   0  0  0  0  0  0  0  0  0  0  0  0
   32.7900   30.5520   46.2850 C   0  0  0  0  0  0  0  0  0  0  0  0
   33.0540   30.2560   44.9570 C   0  0  0  0  0  0  0  0  0  0  0  0
   34.3530   29.8690   44.6130 C   0  0  0  0  0  0  0  0  0  0  0  0
   35.3290   29.7930   45.5860 N   0  0  0  0  0  0  0  0  0  0  0  0
   35.0250   30.0890   46.8460 C   0  0  0  0  0  0  0  0  0  0  0  0
   33.7660   30.4620   47.1770 N   0  0  0  0  0  0  0  0  0  0  0  0
   35.8756   31.3305   50.2811 H   0  0  0  0  0  0  0  0  0  0  0  0
   37.3481   33.1948   51.0701 H   0  0  0  0  0  0  0  0  0  0  0  0
   39.1536   34.0669   49.5767 H   0  0  0  0  0  0  0  0  0  0  0  0
   39.4306   33.0516   47.3646 H   0  0  0  0  0  0  0  0  0  0  0  0
   37.4233   33.2459   45.4940 H   0  0  0  0  0  0  0  0  0  0  0  0
   38.1806   33.0512   43.1648 H   0  0  0  0  0  0  0  0  0  0  0  0
   39.4949   30.7777   42.6222 H   0  0  0  0  0  0  0  0  0  0  0  0
   36.7481   29.6674   47.2774 H   0  0  0  0  0  0  0  0  0  0  0  0
   36.0521   29.2669   49.6478 H   0  0  0  0  0  0  0  0  0  0  0  0
   31.7803   30.8586   46.5956 H   0  0  0  0  0  0  0  0  0  0  0  0
   32.2637   30.3236   44.1948 H   0  0  0  0  0  0  0  0  0  0  0  0
   34.5967   29.6255   43.5683 H   0  0  0  0  0  0  0  0  0  0  0  0
  1  2  2  0
  2  3  1  0
  4  3  2  0
  5  4  1  0
  6  5  2  0
  6  1  1  0
  7  6  1  0
  8  7  2  0
  9  8  1  0
 10  9  2  0
 10 11  1  0
 11  7  1  0
 12  1  1  0
 12 13  1  0
 14 19  2  0
 15 14  1  0
 16 15  2  0
 16 17  1  0
 17 18  2  0
 18 19  1  0
 18 12  1  0
  2 20  1  0
  3 21  1  0
  4 22  1  0
  5 23  1  0
  8 24  1  0
  9 25  1  0
 10 26  1  0
 12 27  1  0
 13 28  1  0
 14 29  1  0
 15 30  1  0
 16 31  1  0
M  ISO  8  20  14  21  14  22  14  23  14  24  14  25  14  26  14  27   8
M  ISO  4  28   3  29  14  30  14  31  14
M  END
>  <minimizedAffinity>  (1) 
-5.26272726

>  <minimizedRMSD>  (1) 
2.12039757

$$$$
