
     RDKit          3D

 28 29  0  0  0  0  0  0  0  0999 V2000
   36.8410   30.4570   48.8440 C   0  0  0  0  0  0  0  0  0  0  0  0
   36.6660   29.1720   49.3940 C   0  0  0  0  0  0  0  0  0  0  0  0
   36.8800   28.8980   50.7480 C   0  0  0  0  0  0  0  0  0  0  0  0
   37.2830   29.9590   51.5860 C   0  0  0  0  0  0  0  0  0  0  0  0
   37.4500   31.2240   51.0190 C   0  0  0  0  0  0  0  0  0  0  0  0
   37.2360   31.4720   49.6800 C   0  0  0  0  0  0  0  0  0  0  0  0
   36.5700   30.6220   47.4170 C   0  0  0  0  0  0  0  0  0  0  0  0
   35.3370   30.5860   47.1170 O   0  0  0  0  0  0  0  0  0  0  0  0
   37.9500   31.2720   44.1200 C   0  0  0  0  0  0  0  0  0  0  0  0
   39.3260   31.2280   44.3160 C   0  0  0  0  0  0  0  0  0  0  0  0
   39.7870   30.9690   45.5910 C   0  0  0  0  0  0  0  0  0  0  0  0
   38.9010   30.7660   46.6090 N   0  0  0  0  0  0  0  0  0  0  0  0
   37.5900   30.8130   46.3950 C   0  0  0  0  0  0  0  0  0  0  0  0
   37.1460   31.0650   45.1600 N   0  0  0  0  0  0  0  0  0  0  0  0
   37.4710   32.8420   49.1840 C   0  0  0  0  0  0  0  0  0  0  0  0
   38.9510   33.2180   49.4090 C   0  0  0  0  0  0  0  0  0  0  0  0
   36.3487   28.3525   48.7324 H   0  0  0  0  0  0  0  0  0  0  0  0
   36.7381   27.8835   51.1488 H   0  0  0  0  0  0  0  0  0  0  0  0
   37.4611   29.7939   52.6588 H   0  0  0  0  0  0  0  0  0  0  0  0
   37.7648   32.0557   51.6665 H   0  0  0  0  0  0  0  0  0  0  0  0
   37.5333   31.4745   43.1223 H   0  0  0  0  0  0  0  0  0  0  0  0
   40.0241   31.3941   43.4823 H   0  0  0  0  0  0  0  0  0  0  0  0
   40.8686   30.9262   45.7866 H   0  0  0  0  0  0  0  0  0  0  0  0
   36.8257   33.5462   49.7296 H   0  0  0  0  0  0  0  0  0  0  0  0
   37.2371   32.8908   48.1103 H   0  0  0  0  0  0  0  0  0  0  0  0
   39.1561   33.2701   50.4885 H   0  0  0  0  0  0  0  0  0  0  0  0
   39.5970   32.4554   48.9494 H   0  0  0  0  0  0  0  0  0  0  0  0
   39.1547   34.1964   48.9494 H   0  0  0  0  0  0  0  0  0  0  0  0
  1  2  2  0
  1  6  1  0
  2  3  1  0
  3  4  2  0
  5  4  1  0
  6  5  2  0
  7  1  1  0
  8  7  2  0
  9 10  2  0
  9 14  1  0
 10 11  1  0
 11 12  2  0
 13 12  1  0
 13  7  1  0
 14 13  2  0
 15 16  1  0
 15  6  1  0
  2 17  1  0
  3 18  1  0
  4 19  1  0
  5 20  1  0
  9 21  1  0
 10 22  1  0
 11 23  1  0
 15 24  1  0
 15 25  1  0
 16 26  1  0
 16 27  1  0
 16 28  1  0
M  ISO  8  17  14  18  14  19  14  20  14  21  14  22  14  23  14  24   8
M  ISO  4  25   8  26   8  27   8  28   8
M  END
>  <minimizedAffinity>  (1) 
-5.11460972

>  <minimizedRMSD>  (1) 
4.12418747

$$$$
