
     RDKit          3D

 26 27  0  0  0  0  0  0  0  0999 V2000
   35.9380   29.5920   48.9880 C   0  0  0  0  0  0  0  0  0  0  0  0
   36.2290   29.2910   50.3150 C   0  0  0  0  0  0  0  0  0  0  0  0
   37.2610   29.9340   51.0050 C   0  0  0  0  0  0  0  0  0  0  0  0
   38.0320   30.9050   50.3700 C   0  0  0  0  0  0  0  0  0  0  0  0
   37.7290   31.1950   49.0410 C   0  0  0  0  0  0  0  0  0  0  0  0
   36.7160   30.5600   48.3710 C   0  0  0  0  0  0  0  0  0  0  0  0
   37.5620   30.7560   46.1200 C   0  0  0  0  0  0  0  0  0  0  0  0
   38.7650   30.4510   45.9890 O   0  0  0  0  0  0  0  0  0  0  0  0
   36.4460   30.8920   47.0130 N   0  0  0  0  0  0  0  0  0  0  0  0
   34.8540   28.8850   48.3330 C   0  0  0  0  0  0  0  0  0  0  0  0
   34.4700   27.8420   48.9590 O   0  0  0  0  0  0  0  0  0  0  0  0
   32.7450   30.8010   46.0740 C   0  0  0  0  0  0  0  0  0  0  0  0
   32.9710   30.2200   44.8340 C   0  0  0  0  0  0  0  0  0  0  0  0
   33.8530   29.1550   44.7490 C   0  0  0  0  0  0  0  0  0  0  0  0
   34.4770   28.7070   45.8840 N   0  0  0  0  0  0  0  0  0  0  0  0
   34.2290   29.3000   47.0660 C   0  0  0  0  0  0  0  0  0  0  0  0
   33.3760   30.3310   47.1550 N   0  0  0  0  0  0  0  0  0  0  0  0
   35.6316   28.5274   50.8346 H   0  0  0  0  0  0  0  0  0  0  0  0
   37.4650   29.6721   52.0537 H   0  0  0  0  0  0  0  0  0  0  0  0
   38.8475   31.4223   50.8966 H   0  0  0  0  0  0  0  0  0  0  0  0
   38.3212   31.9572   48.5134 H   0  0  0  0  0  0  0  0  0  0  0  0
   37.2015   31.0450   45.1217 H   0  0  0  0  0  0  0  0  0  0  0  0
   35.5183   31.2066   46.6947 H   0  0  0  0  0  0  0  0  0  0  0  0
   32.0479   31.6468   46.1673 H   0  0  0  0  0  0  0  0  0  0  0  0
   32.4598   30.5977   43.9362 H   0  0  0  0  0  0  0  0  0  0  0  0
   34.0506   28.6736   43.7799 H   0  0  0  0  0  0  0  0  0  0  0  0
  1  2  2  0
  2  3  1  0
  4  3  2  0
  5  4  1  0
  6  1  1  0
  6  5  2  0
  7  9  1  0
  8  7  2  0
  9  6  1  0
 10 11  2  0
 10  1  1  0
 12 17  2  0
 13 12  1  0
 14 13  2  0
 14 15  1  0
 15 16  2  0
 16 17  1  0
 16 10  1  0
  2 18  1  0
  3 19  1  0
  4 20  1  0
  5 21  1  0
  7 22  1  0
  9 23  1  0
 12 24  1  0
 13 25  1  0
 14 26  1  0
M  ISO  8  18  14  19  14  20  14  21  14  22   6  24  14  25  14  26  14
M  END
>  <minimizedAffinity>  (1) 
-4.98573399

>  <minimizedRMSD>  (1) 
0.742896497

$$$$
