
     RDKit          3D

 24 24  0  0  0  0  0  0  0  0999 V2000
   35.4240   30.3880   47.8490 C   0  0  0  0  0  0  0  0  0  0  0  0
   35.1930   29.6670   48.9350 C   0  0  0  0  0  0  0  0  0  0  0  0
   36.2550   28.9400   49.6880 C   0  0  0  0  0  0  0  0  0  0  0  0
   37.2900   30.2270   51.6220 C   0  0  0  0  0  0  0  0  0  0  0  0
   38.1770   30.5990   50.7850 O   0  0  0  0  0  0  0  0  0  0  0  0
   36.2790   29.3670   51.0830 N   0  0  0  0  0  0  0  0  0  0  0  0
   36.8130   30.3320   47.8870 O   0  0  0  0  0  0  0  0  0  0  0  0
   37.5080   31.0940   46.9800 C   0  0  0  0  0  0  0  0  0  0  0  0
   38.6070   31.7480   47.5320 C   0  0  0  0  0  0  0  0  0  0  0  0
   39.3980   32.5580   46.7110 C   0  0  0  0  0  0  0  0  0  0  0  0
   39.0370   32.6600   45.3910 N   0  0  0  0  0  0  0  0  0  0  0  0
   37.9660   32.0150   44.8840 C   0  0  0  0  0  0  0  0  0  0  0  0
   37.2240   31.2470   45.6810 N   0  0  0  0  0  0  0  0  0  0  0  0
   35.0436   31.4161   47.9400 H   0  0  0  0  0  0  0  0  0  0  0  0
   34.9469   30.0392   46.9212 H   0  0  0  0  0  0  0  0  0  0  0  0
   34.7307   30.3548   49.6583 H   0  0  0  0  0  0  0  0  0  0  0  0
   34.6195   28.8279   48.5142 H   0  0  0  0  0  0  0  0  0  0  0  0
   36.0540   27.8594   49.6441 H   0  0  0  0  0  0  0  0  0  0  0  0
   37.2303   29.1644   49.2315 H   0  0  0  0  0  0  0  0  0  0  0  0
   37.3003   30.5419   52.6759 H   0  0  0  0  0  0  0  0  0  0  0  0
   35.5331   29.0341   51.7105 H   0  0  0  0  0  0  0  0  0  0  0  0
   38.8493   31.6291   48.5984 H   0  0  0  0  0  0  0  0  0  0  0  0
   40.2743   33.0919   47.1074 H   0  0  0  0  0  0  0  0  0  0  0  0
   37.7071   32.1223   43.8203 H   0  0  0  0  0  0  0  0  0  0  0  0
  1  7  1  0
  1  2  1  0
  2  3  1  0
  3  6  1  0
  5  4  2  0
  6  4  1  0
  8  9  2  0
  8  7  1  0
 10  9  1  0
 11 10  2  0
 12 11  1  0
 12 13  2  0
 13  8  1  0
  1 14  1  0
  1 15  1  0
  2 16  1  0
  2 17  1  0
  3 18  1  0
  3 19  1  0
  4 20  1  0
  6 21  1  0
  9 22  1  0
 10 23  1  0
 12 24  1  0
M  ISO  8  14   8  15   8  16   8  17   8  18   8  19   8  20   6  22  14
M  ISO  2  23  14  24  14
M  END
>  <minimizedAffinity>  (1) 
-3.77466035

>  <minimizedRMSD>  (1) 
2.19067883

$$$$
