
     RDKit          3D

 27 28  0  0  1  0  0  0  0  0999 V2000
   37.1750   31.3490   48.4040 C   0  0  0  0  0  0  0  0  0  0  0  0
   36.8530   31.9920   49.6260 C   0  0  0  0  0  0  0  0  0  0  0  0
   37.5560   33.1070   50.0990 C   0  0  0  0  0  0  0  0  0  0  0  0
   38.6210   33.5800   49.2930 C   0  0  0  0  0  0  0  0  0  0  0  0
   38.9100   32.9180   48.0890 C   0  0  0  0  0  0  0  0  0  0  0  0
   38.2050   31.8220   47.6520 C   0  0  0  0  0  0  0  0  0  0  0  0
   38.7710   31.2920   46.4040 C   0  0  0  0  0  0  0  0  0  0  0  0
   38.2280   31.6380   45.2270 F   0  0  0  0  0  0  0  0  0  0  0  0
   38.8000   29.8740   46.4620 F   0  0  0  0  0  0  0  0  0  0  0  0
   40.1320   31.5800   46.2540 F   0  0  0  0  0  0  0  0  0  0  0  0
   36.3510   30.2050   48.0250 C   0  0  0  0  0  0  0  0  0  0  0  0
   36.5660   29.1450   48.7240 O   0  0  0  0  0  0  0  0  0  0  0  0
   33.0660   30.4610   46.5150 C   0  0  0  0  0  0  0  0  0  0  0  0
   33.3060   30.2990   45.1580 C   0  0  0  0  0  0  0  0  0  0  0  0
   34.6200   30.0810   44.7260 C   0  0  0  0  0  0  0  0  0  0  0  0
   35.6360   30.0340   45.6590 N   0  0  0  0  0  0  0  0  0  0  0  0
   35.3550   30.1970   46.9660 C   0  0  0  0  0  0  0  0  0  0  0  0
   34.0790   30.4050   47.3740 N   0  0  0  0  0  0  0  0  0  0  0  0
   36.0185   31.5998   50.2258 H   0  0  0  0  0  0  0  0  0  0  0  0
   37.2939   33.5924   51.0507 H   0  0  0  0  0  0  0  0  0  0  0  0
   39.2126   34.4529   49.6059 H   0  0  0  0  0  0  0  0  0  0  0  0
   39.7370   33.2930   47.4682 H   0  0  0  0  0  0  0  0  0  0  0  0
   37.1216   29.8878   47.3070 H   0  0  0  0  0  0  0  0  0  0  0  0
   36.5204   29.3699   49.6870 H   0  0  0  0  0  0  0  0  0  0  0  0
   32.0424   30.6349   46.8783 H   0  0  0  0  0  0  0  0  0  0  0  0
   32.4786   30.3411   44.4343 H   0  0  0  0  0  0  0  0  0  0  0  0
   34.8398   29.9488   43.6563 H   0  0  0  0  0  0  0  0  0  0  0  0
  1  2  2  0
  2  3  1  0
  4  3  2  0
  5  4  1  0
  6  5  2  0
  6  1  1  0
  7  9  1  0
  7  6  1  0
  8  7  1  0
 10  7  1  0
 11  1  1  0
 11 12  1  0
 13 18  2  0
 14 13  1  0
 15 14  2  0
 15 16  1  0
 16 17  2  0
 17 18  1  0
 17 11  1  0
  2 19  1  0
  3 20  1  0
  4 21  1  0
  5 22  1  0
 11 23  1  0
 12 24  1  0
 13 25  1  0
 14 26  1  0
 15 27  1  0
M  ISO  8  19  14  20  14  21  14  22  14  23   8  24   3  25  14  26  14
M  ISO  1  27  14
M  END
>  <minimizedAffinity>  (1) 
-4.83767462

>  <minimizedRMSD>  (1) 
2.22184563

$$$$
