
     RDKit          3D

 39 41  0  0  0  0  0  0  0  0999 V2000
   38.1500   31.4060   48.8890 C   0  0  0  0  0  0  0  0  0  0  0  0
   38.2700   32.4650   49.7950 C   0  0  0  0  0  0  0  0  0  0  0  0
   38.8850   33.6530   49.4620 C   0  0  0  0  0  0  0  0  0  0  0  0
   39.4150   33.8190   48.1750 C   0  0  0  0  0  0  0  0  0  0  0  0
   39.2870   32.7710   47.3030 C   0  0  0  0  0  0  0  0  0  0  0  0
   38.6700   31.5980   47.6540 C   0  0  0  0  0  0  0  0  0  0  0  0
   37.4800   30.1970   49.3420 C   0  0  0  0  0  0  0  0  0  0  0  0
   38.1310   29.5280   50.2210 O   0  0  0  0  0  0  0  0  0  0  0  0
   34.3310   30.2860   47.5410 C   0  0  0  0  0  0  0  0  0  0  0  0
   33.7250   29.0820   47.8600 C   0  0  0  0  0  0  0  0  0  0  0  0
   34.3950   28.2180   48.7040 C   0  0  0  0  0  0  0  0  0  0  0  0
   35.6070   28.5860   49.1770 N   0  0  0  0  0  0  0  0  0  0  0  0
   36.1710   29.7360   48.8650 C   0  0  0  0  0  0  0  0  0  0  0  0
   35.5250   30.5830   48.0430 N   0  0  0  0  0  0  0  0  0  0  0  0
   38.6120   30.5880   46.6300 C   0  0  0  0  0  0  0  0  0  0  0  0
   38.1860   30.7620   45.3840 C   0  0  0  0  0  0  0  0  0  0  0  0
   38.0680   29.8530   44.2450 C   0  0  0  0  0  0  0  0  0  0  0  0
   37.3950   31.9340   42.5250 F   0  0  0  0  0  0  0  0  0  0  0  0
   38.5500   31.2200   42.3140 C   0  0  0  0  0  0  0  0  0  0  0  0
   38.9690   30.1690   43.1140 C   0  0  0  0  0  0  0  0  0  0  0  0
   40.1500   29.5150   42.8140 C   0  0  0  0  0  0  0  0  0  0  0  0
   40.9240   29.8910   41.7270 C   0  0  0  0  0  0  0  0  0  0  0  0
   40.5240   30.9360   40.9180 C   0  0  0  0  0  0  0  0  0  0  0  0
   39.3280   31.5860   41.2350 C   0  0  0  0  0  0  0  0  0  0  0  0
   37.8593   32.3457   50.8085 H   0  0  0  0  0  0  0  0  0  0  0  0
   38.9593   34.4646   50.2008 H   0  0  0  0  0  0  0  0  0  0  0  0
   39.9136   34.7533   47.8776 H   0  0  0  0  0  0  0  0  0  0  0  0
   39.6932   32.8738   46.2859 H   0  0  0  0  0  0  0  0  0  0  0  0
   33.8237   30.9966   46.8719 H   0  0  0  0  0  0  0  0  0  0  0  0
   32.7372   28.8211   47.4523 H   0  0  0  0  0  0  0  0  0  0  0  0
   33.9520   27.2512   48.9853 H   0  0  0  0  0  0  0  0  0  0  0  0
   38.9520   29.5786   46.9048 H   0  0  0  0  0  0  0  0  0  0  0  0
   37.8584   31.7894   45.1670 H   0  0  0  0  0  0  0  0  0  0  0  0
   38.2964   28.8347   44.5926 H   0  0  0  0  0  0  0  0  0  0  0  0
   37.0406   29.9567   43.8660 H   0  0  0  0  0  0  0  0  0  0  0  0
   40.4815   28.6808   43.4498 H   0  0  0  0  0  0  0  0  0  0  0  0
   41.8595   29.3553   41.5084 H   0  0  0  0  0  0  0  0  0  0  0  0
   41.1270   31.2468   40.0521 H   0  0  0  0  0  0  0  0  0  0  0  0
   38.9946   32.4205   40.6006 H   0  0  0  0  0  0  0  0  0  0  0  0
  1  7  1  0
  1  2  2  0
  3  2  1  0
  4  3  2  0
  5  6  2  0
  5  4  1  0
  6  1  1  0
  7  8  2  0
  9 10  2  0
  9 14  1  0
 10 11  1  0
 11 12  2  0
 13 12  1  0
 13  7  1  0
 14 13  2  0
 15  6  1  0
 16 15  2  0
 17 16  1  0
 19 18  1  0
 19 20  2  0
 20 17  1  0
 21 20  1  0
 22 21  2  0
 23 24  2  0
 23 22  1  0
 24 19  1  0
  2 25  1  0
  3 26  1  0
  4 27  1  0
  5 28  1  0
  9 29  1  0
 10 30  1  0
 11 31  1  0
 15 32  1  0
 16 33  1  0
 17 34  1  0
 17 35  1  0
 21 36  1  0
 22 37  1  0
 23 38  1  0
 24 39  1  0
M  ISO  8  25  14  26  14  27  14  28  14  29  14  30  14  31  14  34   8
M  ISO  5  35   8  36  14  37  14  38  14  39  14
M  END
>  <minimizedAffinity>  (1) 
-6.05342579

>  <minimizedRMSD>  (1) 
1.81561518

$$$$
