
     RDKit          3D

 36 38  0  0  0  0  0  0  0  0999 V2000
   37.0350   30.9540   49.0630 C   0  0  0  0  0  0  0  0  0  0  0  0
   36.7200   31.8510   50.0970 C   0  0  0  0  0  0  0  0  0  0  0  0
   37.3000   33.1130   50.1690 C   0  0  0  0  0  0  0  0  0  0  0  0
   38.2200   33.5210   49.2020 C   0  0  0  0  0  0  0  0  0  0  0  0
   38.5110   32.6260   48.2020 C   0  0  0  0  0  0  0  0  0  0  0  0
   37.9260   31.3730   48.1450 C   0  0  0  0  0  0  0  0  0  0  0  0
   36.3850   29.6580   49.0650 C   0  0  0  0  0  0  0  0  0  0  0  0
   36.9590   28.7730   49.7960 O   0  0  0  0  0  0  0  0  0  0  0  0
   33.6140   30.1620   46.7720 C   0  0  0  0  0  0  0  0  0  0  0  0
   32.9310   28.9460   46.8100 C   0  0  0  0  0  0  0  0  0  0  0  0
   33.4190   27.9470   47.6260 C   0  0  0  0  0  0  0  0  0  0  0  0
   34.5380   28.1650   48.3630 N   0  0  0  0  0  0  0  0  0  0  0  0
   35.1770   29.3260   48.3140 C   0  0  0  0  0  0  0  0  0  0  0  0
   34.6990   30.3120   47.5130 N   0  0  0  0  0  0  0  0  0  0  0  0
   38.3560   30.5730   47.0320 C   0  0  0  0  0  0  0  0  0  0  0  0
   39.1170   30.9150   46.0170 C   0  0  0  0  0  0  0  0  0  0  0  0
   39.6390   30.2170   44.8520 C   0  0  0  0  0  0  0  0  0  0  0  0
   38.5070   29.5990   44.0750 C   0  0  0  0  0  0  0  0  0  0  0  0
   38.8620   28.3520   43.2590 C   0  0  0  0  0  0  0  0  0  0  0  0
   38.4570   29.6140   42.5940 C   0  0  0  0  0  0  0  0  0  0  0  0
   35.9970   31.5479   50.8686 H   0  0  0  0  0  0  0  0  0  0  0  0
   37.0325   33.7925   50.9916 H   0  0  0  0  0  0  0  0  0  0  0  0
   38.6907   34.5145   49.2392 H   0  0  0  0  0  0  0  0  0  0  0  0
   39.2314   32.9139   47.4221 H   0  0  0  0  0  0  0  0  0  0  0  0
   33.2552   30.9839   46.1350 H   0  0  0  0  0  0  0  0  0  0  0  0
   32.0263   28.7881   46.2045 H   0  0  0  0  0  0  0  0  0  0  0  0
   32.9033   26.9769   47.6795 H   0  0  0  0  0  0  0  0  0  0  0  0
   37.9996   29.5323   47.0291 H   0  0  0  0  0  0  0  0  0  0  0  0
   39.4308   31.9685   46.0571 H   0  0  0  0  0  0  0  0  0  0  0  0
   40.1756   30.9305   44.2094 H   0  0  0  0  0  0  0  0  0  0  0  0
   40.3264   29.4245   45.1826 H   0  0  0  0  0  0  0  0  0  0  0  0
   37.7842   29.8984   44.8482 H   0  0  0  0  0  0  0  0  0  0  0  0
   39.9048   28.0067   43.2020 H   0  0  0  0  0  0  0  0  0  0  0  0
   38.5192   27.3071   43.2340 H   0  0  0  0  0  0  0  0  0  0  0  0
   39.2020   30.1951   42.0307 H   0  0  0  0  0  0  0  0  0  0  0  0
   37.6828   29.8759   41.8578 H   0  0  0  0  0  0  0  0  0  0  0  0
  1  7  1  0
  1  2  2  0
  2  3  1  0
  4  3  2  0
  5  4  1  0
  6  5  2  0
  6  1  1  0
  7  8  2  0
  9 10  2  0
  9 14  1  0
 10 11  1  0
 11 12  2  0
 13 12  1  0
 13  7  1  0
 14 13  2  0
 15  6  1  0
 16 15  2  0
 17 16  1  0
 18 17  1  0
 19 18  1  0
 20 19  1  0
 20 18  1  0
  2 21  1  0
  3 22  1  0
  4 23  1  0
  5 24  1  0
  9 25  1  0
 10 26  1  0
 11 27  1  0
 15 28  1  0
 16 29  1  0
 17 30  1  0
 17 31  1  0
 18 32  1  0
 19 33  1  0
 19 34  1  0
 20 35  1  0
 20 36  1  0
M  ISO  8  21  14  22  14  23  14  24  14  25  14  26  14  27  14  30   8
M  ISO  6  31   8  32  13  33  13  34  13  35  13  36  13
M  END
>  <minimizedAffinity>  (1) 
-5.4030242

>  <minimizedRMSD>  (1) 
0.758980811

$$$$
