
     RDKit          3D

 32 33  0  0  1  0  0  0  0  0999 V2000
   37.0700   30.9660   49.0540 C   0  0  0  0  0  0  0  0  0  0  0  0
   36.8180   31.9150   50.0500 C   0  0  0  0  0  0  0  0  0  0  0  0
   37.4420   33.1510   50.0560 C   0  0  0  0  0  0  0  0  0  0  0  0
   38.3520   33.4720   49.0410 C   0  0  0  0  0  0  0  0  0  0  0  0
   38.5870   32.5350   48.0760 C   0  0  0  0  0  0  0  0  0  0  0  0
   37.9510   31.3060   48.0920 C   0  0  0  0  0  0  0  0  0  0  0  0
   36.3730   29.6920   49.1220 C   0  0  0  0  0  0  0  0  0  0  0  0
   36.9020   28.8420   49.9310 O   0  0  0  0  0  0  0  0  0  0  0  0
   33.6120   30.1560   46.8290 C   0  0  0  0  0  0  0  0  0  0  0  0
   32.9530   28.9360   46.8380 C   0  0  0  0  0  0  0  0  0  0  0  0
   33.4570   27.9220   47.6480 C   0  0  0  0  0  0  0  0  0  0  0  0
   34.5710   28.1650   48.3990 N   0  0  0  0  0  0  0  0  0  0  0  0
   35.1730   29.3520   48.3620 C   0  0  0  0  0  0  0  0  0  0  0  0
   34.6870   30.3380   47.5760 N   0  0  0  0  0  0  0  0  0  0  0  0
   38.3150   30.4240   46.9970 C   0  0  0  0  0  0  0  0  0  0  0  0
   38.8610   30.7780   45.8460 C   0  0  0  0  0  0  0  0  0  0  0  0
   39.2930   30.0100   44.6760 C   0  0  0  0  0  0  0  0  0  0  0  0
   39.1760   31.0260   43.1810 S   0  0  0  0  0  0  0  0  0  0  0  0
   36.1041   31.6727   50.8510 H   0  0  0  0  0  0  0  0  0  0  0  0
   37.2242   33.8767   50.8535 H   0  0  0  0  0  0  0  0  0  0  0  0
   38.8608   34.4471   49.0218 H   0  0  0  0  0  0  0  0  0  0  0  0
   39.2978   32.7621   47.2678 H   0  0  0  0  0  0  0  0  0  0  0  0
   37.0003   29.3052   48.3054 H   0  0  0  0  0  0  0  0  0  0  0  0
   36.7277   29.1221   50.8644 H   0  0  0  0  0  0  0  0  0  0  0  0
   33.2385   30.9757   46.1976 H   0  0  0  0  0  0  0  0  0  0  0  0
   32.0563   28.7737   46.2219 H   0  0  0  0  0  0  0  0  0  0  0  0
   32.9646   26.9389   47.6824 H   0  0  0  0  0  0  0  0  0  0  0  0
   38.1161   29.3516   47.1399 H   0  0  0  0  0  0  0  0  0  0  0  0
   39.0224   31.8617   45.7479 H   0  0  0  0  0  0  0  0  0  0  0  0
   40.3359   29.6897   44.8167 H   0  0  0  0  0  0  0  0  0  0  0  0
   38.6414   29.1309   44.5638 H   0  0  0  0  0  0  0  0  0  0  0  0
   39.0245   32.3412   43.5334 H   0  0  0  0  0  0  0  0  0  0  0  0
  1  7  1  0
  1  2  2  0
  2  3  1  0
  4  3  2  0
  5  6  2  0
  5  4  1  0
  6  1  1  0
  7  8  1  0
  9 10  2  0
  9 14  1  0
 10 11  1  0
 11 12  2  0
 13 12  1  0
 13  7  1  0
 14 13  2  0
 15  6  1  0
 16 15  2  0
 17 16  1  0
 18 17  1  0
  2 19  1  0
  3 20  1  0
  4 21  1  0
  5 22  1  0
  7 23  1  0
  8 24  1  0
  9 25  1  0
 10 26  1  0
 11 27  1  0
 15 28  1  0
 16 29  1  0
 17 30  1  0
 17 31  1  0
 18 32  1  0
M  ISO  8  19  14  20  14  21  14  22  14  23   8  24   3  25  14  26  14
M  ISO  4  27  14  30   8  31   8  32  11
M  END
>  <minimizedAffinity>  (1) 
-5.29272842

>  <minimizedRMSD>  (1) 
0.289837927

$$$$
