
     RDKit          3D

 42 44  0  0  1  0  0  0  0  0999 V2000
   38.3810   31.5030   48.8040 C   0  0  0  0  0  0  0  0  0  0  0  0
   38.5580   32.6050   49.6430 C   0  0  0  0  0  0  0  0  0  0  0  0
   39.1080   33.7930   49.1930 C   0  0  0  0  0  0  0  0  0  0  0  0
   39.5030   33.8970   47.8510 C   0  0  0  0  0  0  0  0  0  0  0  0
   39.3240   32.8090   47.0400 C   0  0  0  0  0  0  0  0  0  0  0  0
   38.7670   31.6360   47.5310 C   0  0  0  0  0  0  0  0  0  0  0  0
   37.8360   30.2550   49.2920 C   0  0  2  0  0  0  0  0  0  0  0  0
   34.4790   30.3040   47.9030 C   0  0  0  0  0  0  0  0  0  0  0  0
   33.9110   29.1300   48.3590 C   0  0  0  0  0  0  0  0  0  0  0  0
   34.6580   28.3290   49.2110 C   0  0  0  0  0  0  0  0  0  0  0  0
   35.9280   28.7280   49.5640 N   0  0  0  0  0  0  0  0  0  0  0  0
   36.4140   29.8590   49.0920 C   0  0  0  0  0  0  0  0  0  0  0  0
   35.7020   30.6490   48.2670 N   0  0  0  0  0  0  0  0  0  0  0  0
   38.5000   29.7820   50.2880 O   0  0  0  0  0  0  0  0  0  0  0  0
   38.6620   30.5590   46.5740 C   0  0  0  0  0  0  0  0  0  0  0  0
   39.2590   30.5680   45.3770 C   0  0  0  0  0  0  0  0  0  0  0  0
   39.2520   29.5100   44.3410 C   0  0  0  0  0  0  0  0  0  0  0  0
   38.8030   30.2220   42.7540 S   0  0  0  0  0  0  0  0  0  0  0  0
   34.9490   31.0570   42.5290 N   0  0  0  0  0  0  0  0  0  0  0  0
   36.1620   30.4430   42.5120 C   0  0  0  0  0  0  0  0  0  0  0  0
   37.3050   31.1650   42.8180 C   0  0  0  0  0  0  0  0  0  0  0  0
   37.1660   32.5010   43.1330 C   0  0  0  0  0  0  0  0  0  0  0  0
   38.2450   33.0840   43.3980 O   0  0  0  0  0  0  0  0  0  0  0  0
   35.9700   33.1150   43.1500 N   0  0  0  0  0  0  0  0  0  0  0  0
   34.8880   32.3670   42.8450 C   0  0  0  0  0  0  0  0  0  0  0  0
   33.7380   32.9180   42.8530 O   0  0  0  0  0  0  0  0  0  0  0  0
   38.2503   32.5266   50.6962 H   0  0  0  0  0  0  0  0  0  0  0  0
   39.2336   34.6440   49.8786 H   0  0  0  0  0  0  0  0  0  0  0  0
   39.9440   34.8264   47.4615 H   0  0  0  0  0  0  0  0  0  0  0  0
   39.6259   32.8649   45.9837 H   0  0  0  0  0  0  0  0  0  0  0  0
   38.0134   29.5987   48.4272 H   0  0  0  0  0  0  0  0  0  0  0  0
   33.9070   30.9590   47.2294 H   0  0  0  0  0  0  0  0  0  0  0  0
   32.8948   28.8384   48.0551 H   0  0  0  0  0  0  0  0  0  0  0  0
   34.2414   27.3879   49.5993 H   0  0  0  0  0  0  0  0  0  0  0  0
   38.0820   30.0798   51.1346 H   0  0  0  0  0  0  0  0  0  0  0  0
   38.0566   29.6815   46.8451 H   0  0  0  0  0  0  0  0  0  0  0  0
   39.8275   31.4770   45.1309 H   0  0  0  0  0  0  0  0  0  0  0  0
   40.2535   29.0606   44.2702 H   0  0  0  0  0  0  0  0  0  0  0  0
   38.5192   28.7365   44.6143 H   0  0  0  0  0  0  0  0  0  0  0  0
   34.0921   30.5313   42.3046 H   0  0  0  0  0  0  0  0  0  0  0  0
   36.2361   29.3758   42.2560 H   0  0  0  0  0  0  0  0  0  0  0  0
   35.8828   34.1139   43.3857 H   0  0  0  0  0  0  0  0  0  0  0  0
  1  7  1  0
  1  2  2  0
  3  2  1  0
  4  3  2  0
  5  6  2  0
  5  4  1  0
  6  1  1  0
  7 14  1  0
  8 13  2  0
  8  9  1  0
  9 10  2  0
 10 11  1  0
 12  7  1  0
 12 11  2  0
 13 12  1  0
 15  6  1  0
 16 15  2  0
 17 16  1  0
 18 21  1  0
 18 17  1  0
 19 25  1  0
 20 19  1  0
 20 21  2  0
 21 22  1  0
 22 24  1  0
 22 23  2  0
 25 26  2  0
 25 24  1  0
  2 27  1  0
  3 28  1  0
  4 29  1  0
  5 30  1  0
  7 31  1  6
  8 32  1  0
  9 33  1  0
 10 34  1  0
 14 35  1  0
 15 36  1  0
 16 37  1  0
 17 38  1  0
 17 39  1  0
 19 40  1  0
 20 41  1  0
 24 42  1  0
M  ISO  8  27  14  28  14  29  14  30  14  31   8  32  14  33  14  34  14
M  ISO  6  35   3  38   8  39   8  40   9  41  14  42   9
M  END
>  <minimizedAffinity>  (1) 
-6.67800283

>  <minimizedRMSD>  (1) 
1.40498805

$$$$
