
     RDKit          3D

 39 41  0  0  1  0  0  0  0  0999 V2000
   37.1250   30.9470   49.0190 C   0  0  0  0  0  0  0  0  0  0  0  0
   36.8600   31.8760   50.0290 C   0  0  0  0  0  0  0  0  0  0  0  0
   37.4550   33.1270   50.0420 C   0  0  0  0  0  0  0  0  0  0  0  0
   38.3430   33.4800   49.0240 C   0  0  0  0  0  0  0  0  0  0  0  0
   38.5910   32.5580   48.0420 C   0  0  0  0  0  0  0  0  0  0  0  0
   37.9810   31.3150   48.0590 C   0  0  0  0  0  0  0  0  0  0  0  0
   36.5300   29.6290   49.0210 C   0  0  2  0  0  0  0  0  0  0  0  0
   33.6350   29.9950   46.8570 C   0  0  0  0  0  0  0  0  0  0  0  0
   32.9060   28.8400   47.0750 C   0  0  0  0  0  0  0  0  0  0  0  0
   33.3710   27.9450   48.0200 C   0  0  0  0  0  0  0  0  0  0  0  0
   34.5320   28.2280   48.7040 N   0  0  0  0  0  0  0  0  0  0  0  0
   35.1840   29.3430   48.4520 C   0  0  0  0  0  0  0  0  0  0  0  0
   34.7430   30.2340   47.5320 N   0  0  0  0  0  0  0  0  0  0  0  0
   37.0010   28.8750   49.9520 O   0  0  0  0  0  0  0  0  0  0  0  0
   38.3550   30.4330   46.9780 C   0  0  0  0  0  0  0  0  0  0  0  0
   38.8720   30.8550   45.8180 C   0  0  0  0  0  0  0  0  0  0  0  0
   39.3260   30.0470   44.6610 C   0  0  0  0  0  0  0  0  0  0  0  0
   39.4010   31.0800   43.1950 S   0  0  0  0  0  0  0  0  0  0  0  0
   40.5370   30.4140   41.9740 C   0  0  0  0  0  0  0  0  0  0  0  0
   41.3790   29.3390   42.2400 C   0  0  0  0  0  0  0  0  0  0  0  0
   42.0720   29.1260   41.1090 N   0  0  0  0  0  0  0  0  0  0  0  0
   41.7140   30.0010   40.1520 C   0  0  0  0  0  0  0  0  0  0  0  0
   40.7640   30.7940   40.6960 N   0  0  0  0  0  0  0  0  0  0  0  0
   36.1609   31.6069   50.8345 H   0  0  0  0  0  0  0  0  0  0  0  0
   37.2291   33.8384   50.8500 H   0  0  0  0  0  0  0  0  0  0  0  0
   38.8280   34.4672   49.0111 H   0  0  0  0  0  0  0  0  0  0  0  0
   39.2858   32.8089   47.2269 H   0  0  0  0  0  0  0  0  0  0  0  0
   36.8904   29.2486   48.0538 H   0  0  0  0  0  0  0  0  0  0  0  0
   33.2862   30.7241   46.1108 H   0  0  0  0  0  0  0  0  0  0  0  0
   31.9824   28.6394   46.5123 H   0  0  0  0  0  0  0  0  0  0  0  0
   32.8189   27.0156   48.2237 H   0  0  0  0  0  0  0  0  0  0  0  0
   36.7641   29.2542   50.8353 H   0  0  0  0  0  0  0  0  0  0  0  0
   38.2063   29.3519   47.1162 H   0  0  0  0  0  0  0  0  0  0  0  0
   38.9734   31.9448   45.7087 H   0  0  0  0  0  0  0  0  0  0  0  0
   40.3248   29.6367   44.8708 H   0  0  0  0  0  0  0  0  0  0  0  0
   38.6170   29.2234   44.4908 H   0  0  0  0  0  0  0  0  0  0  0  0
   41.4606   28.7784   43.1829 H   0  0  0  0  0  0  0  0  0  0  0  0
   42.7831   28.3903   40.9904 H   0  0  0  0  0  0  0  0  0  0  0  0
   42.1149   30.0596   39.1293 H   0  0  0  0  0  0  0  0  0  0  0  0
  1  7  1  0
  1  2  2  0
  2  3  1  0
  4  3  2  0
  5  6  2  0
  5  4  1  0
  6  1  1  0
  7 14  1  0
  8  9  2  0
  8 13  1  0
  9 10  1  0
 10 11  2  0
 12 11  1  0
 12  7  1  0
 13 12  2  0
 15  6  1  0
 16 15  2  0
 17 16  1  0
 18 17  1  0
 19 20  2  0
 19 18  1  0
 21 20  1  0
 22 23  2  0
 22 21  1  0
 23 19  1  0
  2 24  1  0
  3 25  1  0
  4 26  1  0
  5 27  1  0
  7 28  1  6
  8 29  1  0
  9 30  1  0
 10 31  1  0
 14 32  1  0
 15 33  1  0
 16 34  1  0
 17 35  1  0
 17 36  1  0
 20 37  1  0
 21 38  1  0
 22 39  1  0
M  ISO  8  24  14  25  14  26  14  27  14  28   8  29  14  30  14  31  14
M  ISO  6  32   3  35   8  36   8  37  14  38   9  39  14
M  END
>  <minimizedAffinity>  (1) 
-6.05016756

>  <minimizedRMSD>  (1) 
0.758954227

$$$$
