
     RDKit          3D

 47 49  0  0  1  0  0  0  0  0999 V2000
   37.0240   30.9060   49.0910 C   0  0  0  0  0  0  0  0  0  0  0  0
   36.7310   31.8120   50.1110 C   0  0  0  0  0  0  0  0  0  0  0  0
   37.3090   33.0690   50.1640 C   0  0  0  0  0  0  0  0  0  0  0  0
   38.2130   33.4510   49.1710 C   0  0  0  0  0  0  0  0  0  0  0  0
   38.4920   32.5580   48.1780 C   0  0  0  0  0  0  0  0  0  0  0  0
   37.8960   31.3070   48.1590 C   0  0  0  0  0  0  0  0  0  0  0  0
   36.4470   29.5790   49.0550 C   0  0  2  0  0  0  0  0  0  0  0  0
   33.5870   29.9200   46.8420 C   0  0  0  0  0  0  0  0  0  0  0  0
   32.8420   28.7840   47.0720 C   0  0  0  0  0  0  0  0  0  0  0  0
   33.2830   27.9080   48.0450 C   0  0  0  0  0  0  0  0  0  0  0  0
   34.4370   28.1940   48.7430 N   0  0  0  0  0  0  0  0  0  0  0  0
   35.1050   29.2960   48.4720 C   0  0  0  0  0  0  0  0  0  0  0  0
   34.6870   30.1660   47.5250 N   0  0  0  0  0  0  0  0  0  0  0  0
   36.9290   28.8100   49.9660 O   0  0  0  0  0  0  0  0  0  0  0  0
   38.3050   30.4520   47.0700 C   0  0  0  0  0  0  0  0  0  0  0  0
   38.8060   30.8980   45.9140 C   0  0  0  0  0  0  0  0  0  0  0  0
   39.2930   30.1150   44.7530 C   0  0  0  0  0  0  0  0  0  0  0  0
   39.2700   31.1440   43.2820 S   0  0  0  0  0  0  0  0  0  0  0  0
   42.2270   29.8210   40.3660 N   0  0  0  0  0  0  0  0  0  0  0  0
   41.1910   30.5950   39.7080 C   0  0  0  0  0  0  0  0  0  0  0  0
   40.1220   31.0750   40.6700 C   0  0  0  0  0  0  0  0  0  0  0  0
   40.5410   30.6910   42.0730 C   0  0  0  0  0  0  0  0  0  0  0  0
   40.6700   29.1770   42.1130 C   0  0  0  0  0  0  0  0  0  0  0  0
   41.6410   28.6920   41.0730 C   0  0  0  0  0  0  0  0  0  0  0  0
   36.0193   31.5187   50.8967 H   0  0  0  0  0  0  0  0  0  0  0  0
   37.0581   33.7608   50.9816 H   0  0  0  0  0  0  0  0  0  0  0  0
   38.6868   34.4436   49.1887 H   0  0  0  0  0  0  0  0  0  0  0  0
   39.1992   32.8346   47.3821 H   0  0  0  0  0  0  0  0  0  0  0  0
   36.8081   29.2127   48.0827 H   0  0  0  0  0  0  0  0  0  0  0  0
   33.2575   30.6351   46.0738 H   0  0  0  0  0  0  0  0  0  0  0  0
   31.9252   28.5810   46.4991 H   0  0  0  0  0  0  0  0  0  0  0  0
   32.7178   26.9894   48.2611 H   0  0  0  0  0  0  0  0  0  0  0  0
   36.7015   29.1729   50.8585 H   0  0  0  0  0  0  0  0  0  0  0  0
   38.1975   29.3650   47.1999 H   0  0  0  0  0  0  0  0  0  0  0  0
   38.8649   31.9915   45.8101 H   0  0  0  0  0  0  0  0  0  0  0  0
   40.3211   29.7748   44.9460 H   0  0  0  0  0  0  0  0  0  0  0  0
   38.6399   29.2433   44.5998 H   0  0  0  0  0  0  0  0  0  0  0  0
   42.7248   30.4218   41.0384 H   0  0  0  0  0  0  0  0  0  0  0  0
   41.6549   31.4710   39.2312 H   0  0  0  0  0  0  0  0  0  0  0  0
   40.7049   29.9408   38.9692 H   0  0  0  0  0  0  0  0  0  0  0  0
   40.0198   32.1679   40.5979 H   0  0  0  0  0  0  0  0  0  0  0  0
   39.1542   30.6142   40.4231 H   0  0  0  0  0  0  0  0  0  0  0  0
   41.4802   31.2085   42.3181 H   0  0  0  0  0  0  0  0  0  0  0  0
   41.0266   28.8724   43.1080 H   0  0  0  0  0  0  0  0  0  0  0  0
   39.6841   28.7354   41.9054 H   0  0  0  0  0  0  0  0  0  0  0  0
   41.1123   28.0484   40.3545 H   0  0  0  0  0  0  0  0  0  0  0  0
   42.4424   28.1238   41.5679 H   0  0  0  0  0  0  0  0  0  0  0  0
  1  2  2  0
  2  3  1  0
  4  3  2  0
  5  4  1  0
  6  5  2  0
  6  1  1  0
  7  1  1  0
  7 14  1  0
  8  9  2  0
  8 13  1  0
  9 10  1  0
 10 11  2  0
 12 11  1  0
 12  7  1  0
 13 12  2  0
 15  6  1  0
 16 15  2  0
 17 16  1  0
 18 17  1  0
 19 24  1  0
 20 19  1  0
 20 21  1  0
 21 22  1  0
 22 23  1  0
 22 18  1  0
 24 23  1  0
  2 25  1  0
  3 26  1  0
  4 27  1  0
  5 28  1  0
  7 29  1  6
  8 30  1  0
  9 31  1  0
 10 32  1  0
 14 33  1  0
 15 34  1  0
 16 35  1  0
 17 36  1  0
 17 37  1  0
 19 38  1  0
 20 39  1  0
 20 40  1  0
 21 41  1  0
 21 42  1  0
 22 43  1  0
 23 44  1  0
 23 45  1  0
 24 46  1  0
 24 47  1  0
M  ISO  8  25  14  26  14  27  14  28  14  29   8  30  14  31  14  32  14
M  ISO  8  33   3  36   8  37   8  38   5  39  13  40  13  41  13  42  13
M  ISO  5  43  13  44  13  45  13  46  13  47  13
M  END
>  <minimizedAffinity>  (1) 
-5.99213266

>  <minimizedRMSD>  (1) 
0.924973667

$$$$
