
     RDKit          3D

 43 45  0  0  1  0  0  0  0  0999 V2000
   37.0780   30.9380   49.0500 C   0  0  0  0  0  0  0  0  0  0  0  0
   36.8040   31.8700   50.0530 C   0  0  0  0  0  0  0  0  0  0  0  0
   37.4050   33.1210   50.0710 C   0  0  0  0  0  0  0  0  0  0  0  0
   38.3070   33.4640   49.0610 C   0  0  0  0  0  0  0  0  0  0  0  0
   38.5660   32.5430   48.0860 C   0  0  0  0  0  0  0  0  0  0  0  0
   37.9480   31.3010   48.1020 C   0  0  0  0  0  0  0  0  0  0  0  0
   36.4800   29.6210   49.0500 C   0  0  2  0  0  0  0  0  0  0  0  0
   33.6160   29.9790   46.8440 C   0  0  0  0  0  0  0  0  0  0  0  0
   32.8760   28.8330   47.0660 C   0  0  0  0  0  0  0  0  0  0  0  0
   33.3230   27.9480   48.0280 C   0  0  0  0  0  0  0  0  0  0  0  0
   34.4760   28.2310   48.7260 N   0  0  0  0  0  0  0  0  0  0  0  0
   35.1390   29.3410   48.4650 C   0  0  0  0  0  0  0  0  0  0  0  0
   34.7160   30.2210   47.5300 N   0  0  0  0  0  0  0  0  0  0  0  0
   36.9400   28.8710   49.9890 O   0  0  0  0  0  0  0  0  0  0  0  0
   38.3340   30.4140   47.0280 C   0  0  0  0  0  0  0  0  0  0  0  0
   38.8430   30.8290   45.8630 C   0  0  0  0  0  0  0  0  0  0  0  0
   39.3090   30.0150   44.7180 C   0  0  0  0  0  0  0  0  0  0  0  0
   40.4790   30.9640   43.7380 S   0  0  0  0  0  0  0  0  0  0  0  0
   39.5850   31.6580   42.3250 C   0  0  1  0  0  0  0  0  0  0  0  0
   38.3180   30.9200   41.9990 C   0  0  0  0  0  0  0  0  0  0  0  0
   37.3830   32.0240   41.6290 C   0  0  0  0  0  0  0  0  0  0  0  0
   37.8360   33.2110   42.1370 O   0  0  0  0  0  0  0  0  0  0  0  0
   39.0590   33.0170   42.7220 C   0  0  0  0  0  0  0  0  0  0  0  0
   36.0932   31.6058   50.8498 H   0  0  0  0  0  0  0  0  0  0  0  0
   37.1730   33.8363   50.8738 H   0  0  0  0  0  0  0  0  0  0  0  0
   38.7957   34.4494   49.0511 H   0  0  0  0  0  0  0  0  0  0  0  0
   39.2723   32.7888   47.2793 H   0  0  0  0  0  0  0  0  0  0  0  0
   36.8475   29.2239   48.0923 H   0  0  0  0  0  0  0  0  0  0  0  0
   33.2823   30.7003   46.0835 H   0  0  0  0  0  0  0  0  0  0  0  0
   31.9584   28.6316   46.4937 H   0  0  0  0  0  0  0  0  0  0  0  0
   32.7624   27.0245   48.2349 H   0  0  0  0  0  0  0  0  0  0  0  0
   36.7019   29.2593   50.8680 H   0  0  0  0  0  0  0  0  0  0  0  0
   38.2011   29.3324   47.1779 H   0  0  0  0  0  0  0  0  0  0  0  0
   38.9263   31.9189   45.7394 H   0  0  0  0  0  0  0  0  0  0  0  0
   39.7993   29.1042   45.0922 H   0  0  0  0  0  0  0  0  0  0  0  0
   38.4476   29.7396   44.0918 H   0  0  0  0  0  0  0  0  0  0  0  0
   40.2946   31.6325   41.4849 H   0  0  0  0  0  0  0  0  0  0  0  0
   38.4673   30.2275   41.1575 H   0  0  0  0  0  0  0  0  0  0  0  0
   37.9509   30.2950   42.8264 H   0  0  0  0  0  0  0  0  0  0  0  0
   37.3208   32.0968   40.5332 H   0  0  0  0  0  0  0  0  0  0  0  0
   36.3879   31.8092   42.0457 H   0  0  0  0  0  0  0  0  0  0  0  0
   38.9565   33.0674   43.8161 H   0  0  0  0  0  0  0  0  0  0  0  0
   39.7583   33.7978   42.3882 H   0  0  0  0  0  0  0  0  0  0  0  0
  1  2  2  0
  2  3  1  0
  4  3  2  0
  5  6  2  0
  5  4  1  0
  6  1  1  0
  7  1  1  0
  7 14  1  0
  8  9  2  0
  8 13  1  0
  9 10  1  0
 10 11  2  0
 12 11  1  0
 12  7  1  0
 13 12  2  0
 15  6  1  0
 16 15  2  0
 17 16  1  0
 18 17  1  0
 19 23  1  0
 19 18  1  0
 20 19  1  0
 21 20  1  0
 21 22  1  0
 22 23  1  0
  2 24  1  0
  3 25  1  0
  4 26  1  0
  5 27  1  0
  7 28  1  6
  8 29  1  0
  9 30  1  0
 10 31  1  0
 14 32  1  0
 15 33  1  0
 16 34  1  0
 17 35  1  0
 17 36  1  0
 19 37  1  6
 20 38  1  0
 20 39  1  0
 21 40  1  0
 21 41  1  0
 23 42  1  0
 23 43  1  0
M  ISO  8  24  14  25  14  26  14  27  14  28   8  29  14  30  14  31  14
M  ISO  8  32   3  35   8  36   8  37  13  38  13  39  13  40  13  41  13
M  ISO  2  42  13  43  13
M  END
>  <minimizedAffinity>  (1) 
-5.71120548

>  <minimizedRMSD>  (1) 
1.13314676

$$$$
