
     RDKit          3D

 13 13  0  0  0  0  0  0  0  0999 V2000
   37.3450   30.2330   51.4240 C   0  0  0  0  0  0  0  0  0  0  0  0
   38.0450   30.6690   50.2750 C   0  0  0  0  0  0  0  0  0  0  0  0
   37.5850   30.2730   49.0120 C   0  0  0  0  0  0  0  0  0  0  0  0
   36.4680   29.4760   48.9630 N   0  0  0  0  0  0  0  0  0  0  0  0
   35.8260   29.0800   50.0960 C   0  0  0  0  0  0  0  0  0  0  0  0
   36.2710   29.4620   51.3050 N   0  0  0  0  0  0  0  0  0  0  0  0
   34.7320   28.2870   49.8250 O   0  0  0  0  0  0  0  0  0  0  0  0
   34.2080   28.2370   48.5450 C   0  0  0  0  0  0  0  0  0  0  0  0
   33.0510   28.1140   49.0670 O   0  0  0  0  0  0  0  0  0  0  0  0
   37.6929   30.5348   52.4229 H   0  0  0  0  0  0  0  0  0  0  0  0
   38.9352   31.3080   50.3712 H   0  0  0  0  0  0  0  0  0  0  0  0
   38.1002   30.5892   48.0930 H   0  0  0  0  0  0  0  0  0  0  0  0
   34.6129   28.2832   47.5233 H   0  0  0  0  0  0  0  0  0  0  0  0
  2  1  2  0
  3  2  1  0
  4  3  2  0
  4  5  1  0
  5  6  2  0
  6  1  1  0
  7  5  1  0
  8  9  2  0
  8  7  1  0
  1 10  1  0
  2 11  1  0
  3 12  1  0
  8 13  1  0
M  ISO  4  10  14  11  14  12  14  13   6
M  END
>  <minimizedAffinity>  (1) 
-3.39800167

>  <minimizedRMSD>  (1) 
0.802607656

$$$$
