
     RDKit          3D

 17 17  0  0  0  0  0  0  0  0999 V2000
   37.3280   30.2190   51.4210 C   0  0  0  0  0  0  0  0  0  0  0  0
   38.0520   30.6660   50.3100 C   0  0  0  0  0  0  0  0  0  0  0  0
   37.6170   30.2840   49.0370 C   0  0  0  0  0  0  0  0  0  0  0  0
   36.5000   29.4930   48.9710 N   0  0  0  0  0  0  0  0  0  0  0  0
   35.8310   29.0830   50.0610 C   0  0  0  0  0  0  0  0  0  0  0  0
   36.2560   29.4550   51.2840 N   0  0  0  0  0  0  0  0  0  0  0  0
   34.7420   28.2970   49.7520 O   0  0  0  0  0  0  0  0  0  0  0  0
   34.1920   28.3960   48.4510 C   0  0  0  0  0  0  0  0  0  0  0  0
   33.8370   27.0380   47.9150 C   0  0  0  0  0  0  0  0  0  0  0  0
   37.6569   30.5088   52.4299 H   0  0  0  0  0  0  0  0  0  0  0  0
   38.9409   31.3018   50.4349 H   0  0  0  0  0  0  0  0  0  0  0  0
   38.1482   30.6044   48.1286 H   0  0  0  0  0  0  0  0  0  0  0  0
   33.2846   29.0165   48.4897 H   0  0  0  0  0  0  0  0  0  0  0  0
   34.9406   28.8518   47.7864 H   0  0  0  0  0  0  0  0  0  0  0  0
   33.6568   26.3487   48.7531 H   0  0  0  0  0  0  0  0  0  0  0  0
   32.9282   27.1127   47.2998 H   0  0  0  0  0  0  0  0  0  0  0  0
   34.6661   26.6584   47.2998 H   0  0  0  0  0  0  0  0  0  0  0  0
  2  1  2  0
  3  2  1  0
  4  3  2  0
  4  5  1  0
  5  6  2  0
  6  1  1  0
  7  5  1  0
  8  7  1  0
  9  8  1  0
  1 10  1  0
  2 11  1  0
  3 12  1  0
  8 13  1  0
  8 14  1  0
  9 15  1  0
  9 16  1  0
  9 17  1  0
M  ISO  8  10  14  11  14  12  14  13   8  14   8  15   8  16   8  17   8
M  END
>  <minimizedAffinity>  (1) 
-3.4835856

>  <minimizedRMSD>  (1) 
1.26507199

$$$$
