
     RDKit          3D

 24 25  0  0  0  0  0  0  0  0999 V2000
   33.8350   28.6580   48.7730 C   0  0  0  0  0  0  0  0  0  0  0  0
   33.0880   27.4610   48.2340 C   0  0  0  0  0  0  0  0  0  0  0  0
   31.6310   27.7400   48.3280 C   0  0  0  0  0  0  0  0  0  0  0  0
   30.7210   27.6370   49.3290 C   0  0  0  0  0  0  0  0  0  0  0  0
   29.4290   27.9670   49.1310 C   0  0  0  0  0  0  0  0  0  0  0  0
   29.0950   28.4070   47.8720 C   0  0  0  0  0  0  0  0  0  0  0  0
   30.7440   28.3350   46.9420 S   0  0  0  0  0  0  0  0  0  0  0  0
   34.7120   28.2390   49.8170 O   0  0  0  0  0  0  0  0  0  0  0  0
   37.3190   30.2320   51.3720 C   0  0  0  0  0  0  0  0  0  0  0  0
   38.0080   30.6660   50.2440 C   0  0  0  0  0  0  0  0  0  0  0  0
   37.5500   30.2550   48.9970 C   0  0  0  0  0  0  0  0  0  0  0  0
   36.4400   29.4460   48.9790 N   0  0  0  0  0  0  0  0  0  0  0  0
   35.8000   29.0490   50.0970 C   0  0  0  0  0  0  0  0  0  0  0  0
   36.2560   29.4530   51.2900 N   0  0  0  0  0  0  0  0  0  0  0  0
   33.1167   29.3908   49.1692 H   0  0  0  0  0  0  0  0  0  0  0  0
   34.4208   29.1198   47.9646 H   0  0  0  0  0  0  0  0  0  0  0  0
   33.3352   26.5693   48.8288 H   0  0  0  0  0  0  0  0  0  0  0  0
   33.3721   27.2763   47.1875 H   0  0  0  0  0  0  0  0  0  0  0  0
   31.0426   27.2785   50.3180 H   0  0  0  0  0  0  0  0  0  0  0  0
   28.6816   27.8884   49.9342 H   0  0  0  0  0  0  0  0  0  0  0  0
   28.1108   28.7235   47.4964 H   0  0  0  0  0  0  0  0  0  0  0  0
   37.6714   30.5482   52.3649 H   0  0  0  0  0  0  0  0  0  0  0  0
   38.8905   31.3162   50.3360 H   0  0  0  0  0  0  0  0  0  0  0  0
   38.0530   30.5633   48.0686 H   0  0  0  0  0  0  0  0  0  0  0  0
  1  8  1  0
  2  3  1  0
  2  1  1  0
  3  4  2  0
  5  4  1  0
  6  5  2  0
  7  6  1  0
  7  3  1  0
  8 13  1  0
 10  9  2  0
 11 10  1  0
 12 11  2  0
 12 13  1  0
 13 14  2  0
 14  9  1  0
  1 15  1  0
  1 16  1  0
  2 17  1  0
  2 18  1  0
  4 19  1  0
  5 20  1  0
  6 21  1  0
  9 22  1  0
 10 23  1  0
 11 24  1  0
M  ISO  8  15   8  16   8  17   8  18   8  19  14  20  14  21  14  22  14
M  ISO  2  23  14  24  14
M  END
>  <minimizedAffinity>  (1) 
-4.2424674

>  <minimizedRMSD>  (1) 
2.57277083

$$$$
