
     RDKit          3D

 21 21  0  0  0  0  0  0  0  0999 V2000
   37.1690   31.1110   47.8200 C   0  0  0  0  0  0  0  0  0  0  0  0
   37.7940   30.4030   48.7510 C   0  0  0  0  0  0  0  0  0  0  0  0
   38.1390   30.9560   50.0960 C   0  0  0  0  0  0  0  0  0  0  0  0
   37.2870   30.0140   51.3880 S   0  0  0  0  0  0  0  0  0  0  0  0
   38.1340   32.0950   47.6360 O   0  0  0  0  0  0  0  0  0  0  0  0
   38.5030   32.3620   46.3300 C   0  0  0  0  0  0  0  0  0  0  0  0
   39.8170   32.8100   46.2330 C   0  0  0  0  0  0  0  0  0  0  0  0
   40.3510   33.1260   44.9790 C   0  0  0  0  0  0  0  0  0  0  0  0
   39.5120   32.9650   43.9000 N   0  0  0  0  0  0  0  0  0  0  0  0
   38.2320   32.5240   44.0290 C   0  0  0  0  0  0  0  0  0  0  0  0
   37.7480   32.2310   45.2220 N   0  0  0  0  0  0  0  0  0  0  0  0
   36.9903   30.5279   46.9046 H   0  0  0  0  0  0  0  0  0  0  0  0
   36.1626   31.4686   48.0834 H   0  0  0  0  0  0  0  0  0  0  0  0
   37.1621   29.5223   48.9379 H   0  0  0  0  0  0  0  0  0  0  0  0
   38.7900   30.2769   48.3015 H   0  0  0  0  0  0  0  0  0  0  0  0
   39.2258   30.8867   50.2509 H   0  0  0  0  0  0  0  0  0  0  0  0
   37.8222   32.0082   50.1468 H   0  0  0  0  0  0  0  0  0  0  0  0
   37.6901   30.4597   52.6192 H   0  0  0  0  0  0  0  0  0  0  0  0
   40.4330   32.9152   47.1382 H   0  0  0  0  0  0  0  0  0  0  0  0
   41.3847   33.4835   44.8619 H   0  0  0  0  0  0  0  0  0  0  0  0
   37.5982   32.4111   43.1371 H   0  0  0  0  0  0  0  0  0  0  0  0
  1  2  1  0
  2  3  1  0
  3  4  1  0
  5  1  1  0
  6  5  1  0
  7  6  2  0
  8  7  1  0
  9 10  1  0
  9  8  2  0
 10 11  2  0
 11  6  1  0
  1 12  1  0
  1 13  1  0
  2 14  1  0
  2 15  1  0
  3 16  1  0
  3 17  1  0
  4 18  1  0
  7 19  1  0
  8 20  1  0
 10 21  1  0
M  ISO  8  12   8  13   8  14   8  15   8  16   8  17   8  18  11  19  14
M  ISO  2  20  14  21  14
M  END
>  <minimizedAffinity>  (1) 
-3.61988878

>  <minimizedRMSD>  (1) 
2.90015841

$$$$
