
     RDKit          3D

 32 33  0  0  0  0  0  0  0  0999 V2000
   33.6090   28.6870   49.1790 C   0  0  0  0  0  0  0  0  0  0  0  0
   32.9030   27.6250   48.3730 C   0  0  0  0  0  0  0  0  0  0  0  0
   31.5190   27.8560   48.2130 N   0  0  0  0  0  0  0  0  0  0  0  0
   30.6590   27.5460   49.2920 C   0  0  0  0  0  0  0  0  0  0  0  0
   29.2210   27.7200   48.9060 C   0  0  0  0  0  0  0  0  0  0  0  0
   28.9970   28.8970   47.9890 C   0  0  0  0  0  0  0  0  0  0  0  0
   29.8670   28.8430   46.7690 C   0  0  0  0  0  0  0  0  0  0  0  0
   30.9730   27.7880   46.9060 C   0  0  0  0  0  0  0  0  0  0  0  0
   34.8070   28.1490   49.7170 O   0  0  0  0  0  0  0  0  0  0  0  0
   37.2580   30.2400   51.3750 C   0  0  0  0  0  0  0  0  0  0  0  0
   37.9690   30.7120   50.2640 C   0  0  0  0  0  0  0  0  0  0  0  0
   37.5630   30.2820   49.0030 C   0  0  0  0  0  0  0  0  0  0  0  0
   36.4870   29.4220   48.9600 N   0  0  0  0  0  0  0  0  0  0  0  0
   35.8340   28.9940   50.0390 C   0  0  0  0  0  0  0  0  0  0  0  0
   36.2250   29.4090   51.2680 N   0  0  0  0  0  0  0  0  0  0  0  0
   32.9558   29.0211   49.9986 H   0  0  0  0  0  0  0  0  0  0  0  0
   33.8481   29.5431   48.5310 H   0  0  0  0  0  0  0  0  0  0  0  0
   33.3650   27.5824   47.3756 H   0  0  0  0  0  0  0  0  0  0  0  0
   33.0079   26.6803   48.9267 H   0  0  0  0  0  0  0  0  0  0  0  0
   30.8254   26.5017   49.5949 H   0  0  0  0  0  0  0  0  0  0  0  0
   30.8820   28.2311   50.1232 H   0  0  0  0  0  0  0  0  0  0  0  0
   28.8821   26.8071   48.3944 H   0  0  0  0  0  0  0  0  0  0  0  0
   28.6522   27.9077   49.8286 H   0  0  0  0  0  0  0  0  0  0  0  0
   27.9437   28.9028   47.6721 H   0  0  0  0  0  0  0  0  0  0  0  0
   29.2548   29.8102   48.5454 H   0  0  0  0  0  0  0  0  0  0  0  0
   30.3314   29.8287   46.6186 H   0  0  0  0  0  0  0  0  0  0  0  0
   29.2364   28.5688   45.9104 H   0  0  0  0  0  0  0  0  0  0  0  0
   30.5505   26.7869   46.7348 H   0  0  0  0  0  0  0  0  0  0  0  0
   31.7622   27.9795   46.1640 H   0  0  0  0  0  0  0  0  0  0  0  0
   37.5669   30.5704   52.3777 H   0  0  0  0  0  0  0  0  0  0  0  0
   38.8195   31.3993   50.3836 H   0  0  0  0  0  0  0  0  0  0  0  0
   38.0755   30.6122   48.0874 H   0  0  0  0  0  0  0  0  0  0  0  0
  1  9  1  0
  2  1  1  0
  3  2  1  0
  3  4  1  0
  5  4  1  0
  6  5  1  0
  7  8  1  0
  7  6  1  0
  8  3  1  0
  9 14  1  0
 11 10  2  0
 12 11  1  0
 13 12  2  0
 13 14  1  0
 14 15  2  0
 15 10  1  0
  1 16  1  0
  1 17  1  0
  2 18  1  0
  2 19  1  0
  4 20  1  0
  4 21  1  0
  5 22  1  0
  5 23  1  0
  6 24  1  0
  6 25  1  0
  7 26  1  0
  7 27  1  0
  8 28  1  0
  8 29  1  0
 10 30  1  0
 11 31  1  0
 12 32  1  0
M  ISO  8  16   8  17   8  18   8  19   8  20  13  21  13  22  13  23  13
M  ISO  8  24  13  25  13  26  13  27  13  28  13  29  13  30  14  31  14
M  ISO  1  32  14
M  END
>  <minimizedAffinity>  (1) 
-4.19795465

>  <minimizedRMSD>  (1) 
2.53796911

$$$$
