
     RDKit          3D

 33 34  0  0  0  0  0  0  0  0999 V2000
   34.6730   28.2810   49.8040 O   0  0  0  0  0  0  0  0  0  0  0  0
   37.2880   30.2480   51.3670 C   0  0  0  0  0  0  0  0  0  0  0  0
   38.0130   30.6130   50.2120 C   0  0  0  0  0  0  0  0  0  0  0  0
   37.5710   30.1700   48.9870 C   0  0  0  0  0  0  0  0  0  0  0  0
   36.4420   29.3960   48.9700 N   0  0  0  0  0  0  0  0  0  0  0  0
   35.7780   29.0670   50.0690 C   0  0  0  0  0  0  0  0  0  0  0  0
   36.2020   29.4960   51.2820 N   0  0  0  0  0  0  0  0  0  0  0  0
   38.1990   30.4580   47.7500 N   0  0  0  0  0  0  0  0  0  0  0  0
   38.8360   31.8710   47.0580 S   0  0  0  0  0  0  0  0  0  0  0  0
   39.0790   32.8940   48.1160 O   0  0  0  0  0  0  0  0  0  0  0  0
   40.1320   31.5690   46.3620 O   0  0  0  0  0  0  0  0  0  0  0  0
   37.6850   32.4570   45.9690 O   0  0  0  0  0  0  0  0  0  0  0  0
   33.8140   28.6520   48.7440 C   0  0  0  0  0  0  0  0  0  0  0  0
   32.9290   27.5110   48.3660 C   0  0  0  0  0  0  0  0  0  0  0  0
   31.4900   27.8940   48.2910 C   0  0  0  0  0  0  0  0  0  0  0  0
   30.7280   27.7280   49.4190 C   0  0  0  0  0  0  0  0  0  0  0  0
   29.3860   28.0520   49.4580 C   0  0  0  0  0  0  0  0  0  0  0  0
   28.8090   28.5460   48.3500 N   0  0  0  0  0  0  0  0  0  0  0  0
   29.5730   28.7040   47.2470 C   0  0  0  0  0  0  0  0  0  0  0  0
   30.8760   28.3990   47.1830 N   0  0  0  0  0  0  0  0  0  0  0  0
   37.6310   30.5940   52.3532 H   0  0  0  0  0  0  0  0  0  0  0  0
   38.9138   31.2394   50.2901 H   0  0  0  0  0  0  0  0  0  0  0  0
   38.2881   29.6330   47.1398 H   0  0  0  0  0  0  0  0  0  0  0  0
   38.9798   32.4762   49.0080 H   0  0  0  0  0  0  0  0  0  0  0  0
   40.8381   31.4045   47.0361 H   0  0  0  0  0  0  0  0  0  0  0  0
   36.9240   32.8444   46.4699 H   0  0  0  0  0  0  0  0  0  0  0  0
   33.1928   29.5023   49.0619 H   0  0  0  0  0  0  0  0  0  0  0  0
   34.4240   28.9334   47.8730 H   0  0  0  0  0  0  0  0  0  0  0  0
   33.2437   27.1336   47.3818 H   0  0  0  0  0  0  0  0  0  0  0  0
   33.0264   26.7439   49.1484 H   0  0  0  0  0  0  0  0  0  0  0  0
   31.2024   27.3224   50.3248 H   0  0  0  0  0  0  0  0  0  0  0  0
   28.8010   27.9083   50.3784 H   0  0  0  0  0  0  0  0  0  0  0  0
   29.0944   29.1092   46.3433 H   0  0  0  0  0  0  0  0  0  0  0  0
  1  6  1  0
  3  2  2  0
  4  3  1  0
  5  4  2  0
  5  6  1  0
  6  7  2  0
  7  2  1  0
  8  4  1  0
  9  8  1  0
  9 10  1  0
 11  9  1  0
 12  9  1  0
 13  1  1  0
 14 13  1  0
 15 14  1  0
 15 16  2  0
 16 17  1  0
 18 17  2  0
 19 18  1  0
 20 19  2  0
 20 15  1  0
  2 21  1  0
  3 22  1  0
  8 23  1  0
 10 24  1  0
 11 25  1  0
 12 26  1  0
 13 27  1  0
 13 28  1  0
 14 29  1  0
 14 30  1  0
 16 31  1  0
 17 32  1  0
 19 33  1  0
M  ISO  8  21  14  22  14  24   3  25   3  26   3  27   8  28   8  29   8
M  ISO  4  30   8  31  14  32  14  33  14
M  END
>  <minimizedAffinity>  (1) 
-5.83857775

>  <minimizedRMSD>  (1) 
0.28222242

$$$$
