
     RDKit          3D

 32 34  0  0  0  0  0  0  0  0999 V2000
   35.0860   28.3190   49.4370 O   0  0  0  0  0  0  0  0  0  0  0  0
   37.3910   30.1900   51.4970 C   0  0  0  0  0  0  0  0  0  0  0  0
   38.0710   30.9290   50.5160 C   0  0  0  0  0  0  0  0  0  0  0  0
   37.6940   30.7390   49.1890 C   0  0  0  0  0  0  0  0  0  0  0  0
   36.6870   29.8470   48.9360 N   0  0  0  0  0  0  0  0  0  0  0  0
   36.0640   29.1610   49.9070 C   0  0  0  0  0  0  0  0  0  0  0  0
   36.4200   29.3330   51.2060 N   0  0  0  0  0  0  0  0  0  0  0  0
   38.3480   31.4630   48.1340 C   0  0  0  0  0  0  0  0  0  0  0  0
   38.7050   31.0300   46.8940 C   0  0  0  0  0  0  0  0  0  0  0  0
   39.3120   32.0460   46.1920 C   0  0  0  0  0  0  0  0  0  0  0  0
   39.2960   33.0880   47.0720 N   0  0  0  0  0  0  0  0  0  0  0  0
   38.7190   32.7310   48.2280 N   0  0  0  0  0  0  0  0  0  0  0  0
   34.4660   28.6520   48.1980 C   0  0  0  0  0  0  0  0  0  0  0  0
   33.5920   27.5400   47.7210 C   0  0  0  0  0  0  0  0  0  0  0  0
   32.1520   27.9070   47.6860 C   0  0  0  0  0  0  0  0  0  0  0  0
   31.3850   27.4860   48.7490 C   0  0  0  0  0  0  0  0  0  0  0  0
   30.0310   27.7690   48.8240 C   0  0  0  0  0  0  0  0  0  0  0  0
   29.4580   28.4640   47.8420 N   0  0  0  0  0  0  0  0  0  0  0  0
   30.2150   28.8720   46.8060 C   0  0  0  0  0  0  0  0  0  0  0  0
   31.5220   28.6080   46.7170 N   0  0  0  0  0  0  0  0  0  0  0  0
   37.6747   30.3269   52.5509 H   0  0  0  0  0  0  0  0  0  0  0  0
   38.8724   31.6325   50.7858 H   0  0  0  0  0  0  0  0  0  0  0  0
   38.5331   30.0142   46.5085 H   0  0  0  0  0  0  0  0  0  0  0  0
   39.7133   32.0233   45.1681 H   0  0  0  0  0  0  0  0  0  0  0  0
   39.6766   34.0245   46.8745 H   0  0  0  0  0  0  0  0  0  0  0  0
   33.8553   29.5568   48.3332 H   0  0  0  0  0  0  0  0  0  0  0  0
   35.2521   28.8259   47.4485 H   0  0  0  0  0  0  0  0  0  0  0  0
   33.9066   27.2579   46.7054 H   0  0  0  0  0  0  0  0  0  0  0  0
   33.7021   26.7073   48.4312 H   0  0  0  0  0  0  0  0  0  0  0  0
   31.8588   26.9110   49.5583 H   0  0  0  0  0  0  0  0  0  0  0  0
   29.4366   27.4245   49.6830 H   0  0  0  0  0  0  0  0  0  0  0  0
   29.7375   29.4469   45.9988 H   0  0  0  0  0  0  0  0  0  0  0  0
  1  6  1  0
  3  2  2  0
  4  3  1  0
  5  4  2  0
  5  6  1  0
  6  7  2  0
  7  2  1  0
  8 12  2  0
  8  4  1  0
  9  8  1  0
 10  9  2  0
 10 11  1  0
 11 12  1  0
 13  1  1  0
 14 13  1  0
 15 14  1  0
 15 16  2  0
 16 17  1  0
 18 17  2  0
 19 18  1  0
 20 19  2  0
 20 15  1  0
  2 21  1  0
  3 22  1  0
  9 23  1  0
 10 24  1  0
 11 25  1  0
 13 26  1  0
 13 27  1  0
 14 28  1  0
 14 29  1  0
 16 30  1  0
 17 31  1  0
 19 32  1  0
M  ISO  8  21  14  22  14  23  14  24  14  25   9  26   8  27   8  28   8
M  ISO  4  29   8  30  14  31  14  32  14
M  END
>  <minimizedAffinity>  (1) 
-5.69367647

>  <minimizedRMSD>  (1) 
0.968737364

$$$$
