
     RDKit          3D

 37 39  0  0  0  0  0  0  0  0999 V2000
   38.8540   31.2510   46.5180 C   0  0  0  0  0  0  0  0  0  0  0  0
   39.2640   32.4130   47.1210 C   0  0  0  0  0  0  0  0  0  0  0  0
   40.0640   33.2930   46.3630 C   0  0  0  0  0  0  0  0  0  0  0  0
   40.3790   32.9380   45.0880 N   0  0  0  0  0  0  0  0  0  0  0  0
   39.9640   31.7910   44.5210 C   0  0  0  0  0  0  0  0  0  0  0  0
   39.2280   31.0180   45.2710 N   0  0  0  0  0  0  0  0  0  0  0  0
   40.2000   31.2500   43.1980 C   0  0  0  0  0  0  0  0  0  0  0  0
   40.9330   30.0810   42.9630 C   0  0  0  0  0  0  0  0  0  0  0  0
   41.1720   29.5470   41.7260 C   0  0  0  0  0  0  0  0  0  0  0  0
   40.6750   30.1700   40.6090 C   0  0  0  0  0  0  0  0  0  0  0  0
   39.9440   31.3220   40.7610 C   0  0  0  0  0  0  0  0  0  0  0  0
   39.4710   31.9060   39.6080 C   0  0  0  0  0  0  0  0  0  0  0  0
   38.7320   33.0660   39.6860 C   0  0  0  0  0  0  0  0  0  0  0  0
   38.4960   33.6010   40.9550 C   0  0  0  0  0  0  0  0  0  0  0  0
   39.0020   32.9600   42.0620 C   0  0  0  0  0  0  0  0  0  0  0  0
   39.7400   31.8070   42.0290 C   0  0  0  0  0  0  0  0  0  0  0  0
   38.0790   30.4530   47.3290 O   0  0  0  0  0  0  0  0  0  0  0  0
   36.7390   30.7690   47.4710 C   0  0  0  0  0  0  0  0  0  0  0  0
   36.5510   30.2000   48.6800 C   0  0  0  0  0  0  0  0  0  0  0  0
   36.8120   31.0150   49.9020 C   0  0  0  0  0  0  0  0  0  0  0  0
   37.2620   30.0300   51.3260 S   0  0  0  0  0  0  0  0  0  0  0  0
   38.9794   32.6495   48.1569 H   0  0  0  0  0  0  0  0  0  0  0  0
   40.4234   34.2405   46.7910 H   0  0  0  0  0  0  0  0  0  0  0  0
   41.3466   29.5537   43.8353 H   0  0  0  0  0  0  0  0  0  0  0  0
   41.7599   28.6225   41.6275 H   0  0  0  0  0  0  0  0  0  0  0  0
   40.8593   29.7531   39.6079 H   0  0  0  0  0  0  0  0  0  0  0  0
   39.6818   31.4491   38.6298 H   0  0  0  0  0  0  0  0  0  0  0  0
   38.3414   33.5540   38.7809 H   0  0  0  0  0  0  0  0  0  0  0  0
   37.9112   34.5258   41.0678 H   0  0  0  0  0  0  0  0  0  0  0  0
   38.7988   33.4067   43.0465 H   0  0  0  0  0  0  0  0  0  0  0  0
   36.5643   31.8549   47.4876 H   0  0  0  0  0  0  0  0  0  0  0  0
   36.0707   30.4327   46.6646 H   0  0  0  0  0  0  0  0  0  0  0  0
   35.5011   29.8748   48.7254 H   0  0  0  0  0  0  0  0  0  0  0  0
   37.3089   29.4039   48.7221 H   0  0  0  0  0  0  0  0  0  0  0  0
   37.6339   31.7137   49.6868 H   0  0  0  0  0  0  0  0  0  0  0  0
   35.8772   31.5389   50.1502 H   0  0  0  0  0  0  0  0  0  0  0  0
   36.9496   30.7137   52.4714 H   0  0  0  0  0  0  0  0  0  0  0  0
  1  2  2  0
  1 17  1  0
  3  2  1  0
  4  3  2  0
  5  4  1  0
  5  6  2  0
  6  1  1  0
  7  5  1  0
  8  7  2  0
  9  8  1  0
 10 11  1  0
 10  9  2  0
 11 16  2  0
 12 13  2  0
 12 11  1  0
 13 14  1  0
 14 15  2  0
 16 15  1  0
 16  7  1  0
 17 18  1  0
 18 19  1  0
 19 20  1  0
 20 21  1  0
  2 22  1  0
  3 23  1  0
  8 24  1  0
  9 25  1  0
 10 26  1  0
 12 27  1  0
 13 28  1  0
 14 29  1  0
 15 30  1  0
 18 31  1  0
 18 32  1  0
 19 33  1  0
 19 34  1  0
 20 35  1  0
 20 36  1  0
 21 37  1  0
M  ISO  8  22  14  23  14  24  14  25  14  26  14  27  14  28  14  29  14
M  ISO  8  30  14  31   8  32   8  33   8  34   8  35   8  36   8  37  11
M  END
>  <minimizedAffinity>  (1) 
-4.92872095

>  <minimizedRMSD>  (1) 
3.70152617

$$$$
