
     RDKit          3D

 50 53  0  0  0  0  0  0  0  0999 V2000
   34.4540   28.7770   48.0230 C   0  0  0  0  0  0  0  0  0  0  0  0
   33.6320   27.6560   47.4740 C   0  0  0  0  0  0  0  0  0  0  0  0
   32.1780   27.8350   47.7210 C   0  0  0  0  0  0  0  0  0  0  0  0
   31.7090   27.6160   49.0140 C   0  0  0  0  0  0  0  0  0  0  0  0
   30.3810   27.7550   49.3410 C   0  0  0  0  0  0  0  0  0  0  0  0
   29.5280   28.1070   48.4020 N   0  0  0  0  0  0  0  0  0  0  0  0
   29.9860   28.3210   47.1380 C   0  0  0  0  0  0  0  0  0  0  0  0
   31.2720   28.1980   46.7660 N   0  0  0  0  0  0  0  0  0  0  0  0
   29.0450   28.7020   46.1360 N   0  0  0  0  0  0  0  0  0  0  0  0
   28.7960   27.9270   44.9300 C   0  0  0  0  0  0  0  0  0  0  0  0
   27.4200   27.3710   45.1250 C   0  0  0  0  0  0  0  0  0  0  0  0
   26.4010   28.2800   45.6760 C   0  0  0  0  0  0  0  0  0  0  0  0
   26.7850   29.6540   46.0660 C   0  0  0  0  0  0  0  0  0  0  0  0
   28.2480   29.9120   46.2430 C   0  0  0  0  0  0  0  0  0  0  0  0
   35.1420   28.3590   49.1950 O   0  0  0  0  0  0  0  0  0  0  0  0
   37.3810   30.1980   51.3510 C   0  0  0  0  0  0  0  0  0  0  0  0
   38.1270   30.9090   50.3870 C   0  0  0  0  0  0  0  0  0  0  0  0
   37.8110   30.7100   49.0530 C   0  0  0  0  0  0  0  0  0  0  0  0
   36.7900   29.8280   48.7970 N   0  0  0  0  0  0  0  0  0  0  0  0
   36.1040   29.1730   49.7170 C   0  0  0  0  0  0  0  0  0  0  0  0
   36.4050   29.3630   51.0080 N   0  0  0  0  0  0  0  0  0  0  0  0
   38.9730   33.3610   48.9250 F   0  0  0  0  0  0  0  0  0  0  0  0
   39.0120   32.5790   47.8500 C   0  0  0  0  0  0  0  0  0  0  0  0
   38.4650   31.3480   47.9310 C   0  0  0  0  0  0  0  0  0  0  0  0
   38.5570   30.6070   46.7490 C   0  0  0  0  0  0  0  0  0  0  0  0
   39.1550   31.1000   45.6120 C   0  0  0  0  0  0  0  0  0  0  0  0
   39.6950   32.3540   45.5770 C   0  0  0  0  0  0  0  0  0  0  0  0
   39.6130   33.0930   46.7250 C   0  0  0  0  0  0  0  0  0  0  0  0
   33.7949   29.6219   48.2715 H   0  0  0  0  0  0  0  0  0  0  0  0
   35.1914   29.0828   47.2662 H   0  0  0  0  0  0  0  0  0  0  0  0
   33.9562   26.7175   47.9475 H   0  0  0  0  0  0  0  0  0  0  0  0
   33.7834   27.6363   46.3846 H   0  0  0  0  0  0  0  0  0  0  0  0
   32.4231   27.3228   49.7976 H   0  0  0  0  0  0  0  0  0  0  0  0
   30.0368   27.5751   50.3702 H   0  0  0  0  0  0  0  0  0  0  0  0
   29.5329   27.1167   44.8285 H   0  0  0  0  0  0  0  0  0  0  0  0
   28.8785   28.5337   44.0161 H   0  0  0  0  0  0  0  0  0  0  0  0
   27.0603   27.0253   44.1446 H   0  0  0  0  0  0  0  0  0  0  0  0
   27.5367   26.5818   45.8824 H   0  0  0  0  0  0  0  0  0  0  0  0
   25.6103   28.3721   44.9168 H   0  0  0  0  0  0  0  0  0  0  0  0
   26.1234   27.8087   46.6304 H   0  0  0  0  0  0  0  0  0  0  0  0
   26.4166   30.3380   45.2873 H   0  0  0  0  0  0  0  0  0  0  0  0
   26.3389   29.8108   47.0592 H   0  0  0  0  0  0  0  0  0  0  0  0
   28.4102   30.3541   47.2371 H   0  0  0  0  0  0  0  0  0  0  0  0
   28.5661   30.5929   45.4398 H   0  0  0  0  0  0  0  0  0  0  0  0
   37.6137   30.3387   52.4169 H   0  0  0  0  0  0  0  0  0  0  0  0
   38.9317   31.5975   50.6846 H   0  0  0  0  0  0  0  0  0  0  0  0
   38.1353   29.5913   46.7271 H   0  0  0  0  0  0  0  0  0  0  0  0
   39.1991   30.4701   44.7113 H   0  0  0  0  0  0  0  0  0  0  0  0
   40.1729   32.7506   44.6691 H   0  0  0  0  0  0  0  0  0  0  0  0
   40.0324   34.1096   46.7486 H   0  0  0  0  0  0  0  0  0  0  0  0
  1 15  1  0
  2  3  1  0
  2  1  1  0
  3  4  2  0
  4  5  1  0
  6  5  2  0
  7  6  1  0
  8  7  2  0
  8  3  1  0
  9 14  1  0
  9  7  1  0
 10 11  1  0
 10  9  1  0
 11 12  1  0
 12 13  1  0
 13 14  1  0
 15 20  1  0
 17 16  2  0
 18 17  1  0
 19 18  2  0
 19 20  1  0
 20 21  2  0
 21 16  1  0
 23 24  2  0
 23 22  1  0
 24 18  1  0
 25 24  1  0
 26 25  2  0
 27 26  1  0
 27 28  2  0
 28 23  1  0
  1 29  1  0
  1 30  1  0
  2 31  1  0
  2 32  1  0
  4 33  1  0
  5 34  1  0
 10 35  1  0
 10 36  1  0
 11 37  1  0
 11 38  1  0
 12 39  1  0
 12 40  1  0
 13 41  1  0
 13 42  1  0
 14 43  1  0
 14 44  1  0
 16 45  1  0
 17 46  1  0
 25 47  1  0
 26 48  1  0
 27 49  1  0
 28 50  1  0
M  ISO  8  29   8  30   8  31   8  32   8  33  14  34  14  35  13  36  13
M  ISO  8  37  13  38  13  39  13  40  13  41  13  42  13  43  13  44  13
M  ISO  6  45  14  46  14  47  14  48  14  49  14  50  14
M  END
>  <minimizedAffinity>  (1) 
-7.10119867

>  <minimizedRMSD>  (1) 
0.762833416

$$$$
