
     RDKit          3D

 41 44  0  0  0  0  0  0  0  0999 V2000
   34.3700   29.1560   47.7760 C   0  0  0  0  0  0  0  0  0  0  0  0
   33.6260   28.1310   46.9870 C   0  0  0  0  0  0  0  0  0  0  0  0
   32.2070   27.9990   47.3810 C   0  0  0  0  0  0  0  0  0  0  0  0
   31.8780   27.0070   48.2920 C   0  0  0  0  0  0  0  0  0  0  0  0
   30.6050   26.7870   48.7320 C   0  0  0  0  0  0  0  0  0  0  0  0
   29.6320   27.5660   48.2620 N   0  0  0  0  0  0  0  0  0  0  0  0
   29.9420   28.5400   47.3700 C   0  0  0  0  0  0  0  0  0  0  0  0
   31.2010   28.7750   46.9190 N   0  0  0  0  0  0  0  0  0  0  0  0
   28.8480   29.3940   46.8580 C   0  0  0  0  0  0  0  0  0  0  0  0
   28.8000   29.9620   45.5120 C   0  0  0  0  0  0  0  0  0  0  0  0
   27.1430   30.8740   45.6920 S   0  0  0  0  0  0  0  0  0  0  0  0
   26.9080   30.3000   47.4710 C   0  0  0  0  0  0  0  0  0  0  0  0
   27.8870   29.6100   47.7430 N   0  0  0  0  0  0  0  0  0  0  0  0
   35.0970   28.5380   48.8390 O   0  0  0  0  0  0  0  0  0  0  0  0
   37.2690   30.0610   51.2860 C   0  0  0  0  0  0  0  0  0  0  0  0
   38.0770   30.8520   50.4400 C   0  0  0  0  0  0  0  0  0  0  0  0
   37.8220   30.8090   49.0720 C   0  0  0  0  0  0  0  0  0  0  0  0
   36.7940   29.9910   48.6800 N   0  0  0  0  0  0  0  0  0  0  0  0
   36.0420   29.2540   49.4920 C   0  0  0  0  0  0  0  0  0  0  0  0
   36.2930   29.2980   50.8070 N   0  0  0  0  0  0  0  0  0  0  0  0
   38.8450   33.5070   49.2060 F   0  0  0  0  0  0  0  0  0  0  0  0
   39.0230   32.8030   48.1020 C   0  0  0  0  0  0  0  0  0  0  0  0
   38.5330   31.5370   48.0630 C   0  0  0  0  0  0  0  0  0  0  0  0
   38.7770   30.8850   46.8490 C   0  0  0  0  0  0  0  0  0  0  0  0
   39.4500   31.4830   45.8050 C   0  0  0  0  0  0  0  0  0  0  0  0
   39.9250   32.7690   45.9010 C   0  0  0  0  0  0  0  0  0  0  0  0
   39.6970   33.4230   47.0750 C   0  0  0  0  0  0  0  0  0  0  0  0
   33.6548   29.8774   48.1980 H   0  0  0  0  0  0  0  0  0  0  0  0
   35.0797   29.6704   47.1115 H   0  0  0  0  0  0  0  0  0  0  0  0
   34.1186   27.1577   47.1285 H   0  0  0  0  0  0  0  0  0  0  0  0
   33.6411   28.4575   45.9367 H   0  0  0  0  0  0  0  0  0  0  0  0
   32.6831   26.3653   48.6794 H   0  0  0  0  0  0  0  0  0  0  0  0
   30.3881   25.9875   49.4557 H   0  0  0  0  0  0  0  0  0  0  0  0
   29.4991   29.8858   44.6661 H   0  0  0  0  0  0  0  0  0  0  0  0
   26.0625   30.5358   48.1340 H   0  0  0  0  0  0  0  0  0  0  0  0
   37.4528   30.0772   52.3704 H   0  0  0  0  0  0  0  0  0  0  0  0
   38.8814   31.4814   50.8484 H   0  0  0  0  0  0  0  0  0  0  0  0
   38.4171   29.8533   46.7226 H   0  0  0  0  0  0  0  0  0  0  0  0
   39.6103   30.9184   44.8747 H   0  0  0  0  0  0  0  0  0  0  0  0
   40.4636   33.2478   45.0699 H   0  0  0  0  0  0  0  0  0  0  0  0
   40.0549   34.4553   47.2025 H   0  0  0  0  0  0  0  0  0  0  0  0
  1 14  1  0
  2  3  1  0
  2  1  1  0
  3  4  2  0
  4  5  1  0
  6  5  2  0
  7  6  1  0
  8  7  2  0
  8  3  1  0
  9  7  1  0
  9 13  1  0
 10 11  1  0
 10  9  2  0
 11 12  1  0
 12 13  2  0
 14 19  1  0
 16 15  2  0
 17 16  1  0
 18 17  2  0
 18 19  1  0
 19 20  2  0
 20 15  1  0
 22 21  1  0
 23 22  2  0
 23 17  1  0
 24 23  1  0
 25 26  1  0
 25 24  2  0
 26 27  2  0
 27 22  1  0
  1 28  1  0
  1 29  1  0
  2 30  1  0
  2 31  1  0
  4 32  1  0
  5 33  1  0
 10 34  1  0
 12 35  1  0
 15 36  1  0
 16 37  1  0
 24 38  1  0
 25 39  1  0
 26 40  1  0
 27 41  1  0
M  ISO  8  28   8  29   8  30   8  31   8  32  14  33  14  34  14  35  14
M  ISO  6  36  14  37  14  38  14  39  14  40  14  41  14
M  END
>  <minimizedAffinity>  (1) 
-6.74436617

>  <minimizedRMSD>  (1) 
1.11796069

$$$$
