
     RDKit          3D

 42 45  0  0  0  0  0  0  0  0999 V2000
   37.0860   30.0180   51.2920 C   0  0  0  0  0  0  0  0  0  0  0  0
   37.9050   30.7770   50.4210 C   0  0  0  0  0  0  0  0  0  0  0  0
   37.6760   30.6920   49.0680 C   0  0  0  0  0  0  0  0  0  0  0  0
   36.6570   29.8650   48.6840 N   0  0  0  0  0  0  0  0  0  0  0  0
   35.8870   29.1530   49.5050 C   0  0  0  0  0  0  0  0  0  0  0  0
   36.1180   29.2420   50.8210 N   0  0  0  0  0  0  0  0  0  0  0  0
   38.7820   33.3600   49.1690 F   0  0  0  0  0  0  0  0  0  0  0  0
   38.9320   32.6380   48.0710 C   0  0  0  0  0  0  0  0  0  0  0  0
   38.4080   31.3910   48.0400 C   0  0  0  0  0  0  0  0  0  0  0  0
   38.6260   30.7220   46.8350 C   0  0  0  0  0  0  0  0  0  0  0  0
   39.3100   31.2870   45.7840 C   0  0  0  0  0  0  0  0  0  0  0  0
   39.8210   32.5570   45.8680 C   0  0  0  0  0  0  0  0  0  0  0  0
   39.6240   33.2410   47.0380 C   0  0  0  0  0  0  0  0  0  0  0  0
   34.9450   28.4120   48.8570 O   0  0  0  0  0  0  0  0  0  0  0  0
   34.0230   29.0720   47.9980 C   0  0  0  0  0  0  0  0  0  0  0  0
   33.1610   28.0670   47.2980 C   0  0  0  0  0  0  0  0  0  0  0  0
   31.7560   28.0980   47.7530 C   0  0  0  0  0  0  0  0  0  0  0  0
   31.4680   27.6350   49.0220 C   0  0  0  0  0  0  0  0  0  0  0  0
   30.2040   27.6200   49.5420 C   0  0  0  0  0  0  0  0  0  0  0  0
   29.2050   28.0700   48.7920 N   0  0  0  0  0  0  0  0  0  0  0  0
   29.4760   28.5310   47.5330 C   0  0  0  0  0  0  0  0  0  0  0  0
   30.7200   28.5520   47.0080 N   0  0  0  0  0  0  0  0  0  0  0  0
   28.3310   29.0360   46.7010 C   0  0  0  0  0  0  0  0  0  0  0  0
   26.9800   28.4670   46.9050 C   0  0  0  0  0  0  0  0  0  0  0  0
   27.2770   29.8920   47.3340 C   0  0  0  0  0  0  0  0  0  0  0  0
   37.2551   30.0726   52.3775 H   0  0  0  0  0  0  0  0  0  0  0  0
   38.7052   31.4192   50.8175 H   0  0  0  0  0  0  0  0  0  0  0  0
   38.2346   29.7004   46.7209 H   0  0  0  0  0  0  0  0  0  0  0  0
   39.4499   30.7093   44.8584 H   0  0  0  0  0  0  0  0  0  0  0  0
   40.3682   33.0090   45.0276 H   0  0  0  0  0  0  0  0  0  0  0  0
   40.0138   34.2630   47.1546 H   0  0  0  0  0  0  0  0  0  0  0  0
   33.3878   29.7440   48.5938 H   0  0  0  0  0  0  0  0  0  0  0  0
   34.5814   29.6516   47.2481 H   0  0  0  0  0  0  0  0  0  0  0  0
   33.5688   27.0629   47.4865 H   0  0  0  0  0  0  0  0  0  0  0  0
   33.1665   28.3168   46.2267 H   0  0  0  0  0  0  0  0  0  0  0  0
   32.2948   27.2607   49.6435 H   0  0  0  0  0  0  0  0  0  0  0  0
   30.0186   27.2436   50.5588 H   0  0  0  0  0  0  0  0  0  0  0  0
   28.9967   29.1522   45.8330 H   0  0  0  0  0  0  0  0  0  0  0  0
   26.3266   28.2776   46.0406 H   0  0  0  0  0  0  0  0  0  0  0  0
   26.5799   27.5717   47.4034 H   0  0  0  0  0  0  0  0  0  0  0  0
   27.3390   30.1467   48.4023 H   0  0  0  0  0  0  0  0  0  0  0  0
   26.8408   30.8807   47.1284 H   0  0  0  0  0  0  0  0  0  0  0  0
  2  1  2  0
  3  2  1  0
  4  3  2  0
  4  5  1  0
  5  6  2  0
  6  1  1  0
  8  7  1  0
  9  8  2  0
  9  3  1  0
 10  9  1  0
 11 12  1  0
 11 10  2  0
 12 13  2  0
 13  8  1  0
 14  5  1  0
 15 14  1  0
 16 17  1  0
 16 15  1  0
 17 18  2  0
 18 19  1  0
 20 19  2  0
 21 20  1  0
 22 21  2  0
 22 17  1  0
 23 24  1  0
 23 25  1  0
 23 21  1  0
 24 25  1  0
  1 26  1  0
  2 27  1  0
 10 28  1  0
 11 29  1  0
 12 30  1  0
 13 31  1  0
 15 32  1  0
 15 33  1  0
 16 34  1  0
 16 35  1  0
 18 36  1  0
 19 37  1  0
 23 38  1  0
 24 39  1  0
 24 40  1  0
 25 41  1  0
 25 42  1  0
M  ISO  8  26  14  27  14  28  14  29  14  30  14  31  14  32   8  33   8
M  ISO  8  34   8  35   8  36  14  37  14  38  13  39  13  40  13  41  13
M  ISO  1  42  13
M  END
>  <minimizedAffinity>  (1) 
-6.47282457

>  <minimizedRMSD>  (1) 
0.884259939

$$$$
