
     RDKit          3D

 42 44  0  0  0  0  0  0  0  0999 V2000
   37.2630   30.1230   51.4730 C   0  0  0  0  0  0  0  0  0  0  0  0
   38.0260   30.8290   50.5110 C   0  0  0  0  0  0  0  0  0  0  0  0
   37.6800   30.6560   49.1800 C   0  0  0  0  0  0  0  0  0  0  0  0
   36.6280   29.8170   48.9110 N   0  0  0  0  0  0  0  0  0  0  0  0
   35.9300   29.1690   49.8420 C   0  0  0  0  0  0  0  0  0  0  0  0
   36.2620   29.3320   51.1410 N   0  0  0  0  0  0  0  0  0  0  0  0
   38.8850   33.2850   49.0630 F   0  0  0  0  0  0  0  0  0  0  0  0
   38.9010   32.5080   47.9830 C   0  0  0  0  0  0  0  0  0  0  0  0
   38.3340   31.2850   48.0570 C   0  0  0  0  0  0  0  0  0  0  0  0
   38.4080   30.5650   46.8730 C   0  0  0  0  0  0  0  0  0  0  0  0
   39.0050   31.0550   45.7390 C   0  0  0  0  0  0  0  0  0  0  0  0
   39.5650   32.2980   45.7090 C   0  0  0  0  0  0  0  0  0  0  0  0
   39.5070   33.0350   46.8640 C   0  0  0  0  0  0  0  0  0  0  0  0
   34.9400   28.4000   49.3300 O   0  0  0  0  0  0  0  0  0  0  0  0
   34.3320   28.7920   48.0980 C   0  0  0  0  0  0  0  0  0  0  0  0
   33.4640   27.6980   47.5670 C   0  0  0  0  0  0  0  0  0  0  0  0
   32.0140   27.9500   47.7760 C   0  0  0  0  0  0  0  0  0  0  0  0
   31.4350   27.4830   48.9600 C   0  0  0  0  0  0  0  0  0  0  0  0
   30.1080   27.6750   49.2260 C   0  0  0  0  0  0  0  0  0  0  0  0
   29.3510   28.3100   48.3560 N   0  0  0  0  0  0  0  0  0  0  0  0
   29.9190   28.7660   47.1980 C   0  0  0  0  0  0  0  0  0  0  0  0
   31.2180   28.6010   46.8920 N   0  0  0  0  0  0  0  0  0  0  0  0
   29.0370   29.4630   46.2660 C   0  0  0  0  0  0  0  0  0  0  0  0
   27.8630   29.9050   46.6100 C   0  0  0  0  0  0  0  0  0  0  0  0
   26.9480   30.6210   45.6660 C   0  0  0  0  0  0  0  0  0  0  0  0
   37.5152   30.2391   52.5374 H   0  0  0  0  0  0  0  0  0  0  0  0
   38.8570   31.4860   50.8073 H   0  0  0  0  0  0  0  0  0  0  0  0
   37.9687   29.5570   46.8423 H   0  0  0  0  0  0  0  0  0  0  0  0
   39.0325   30.4310   44.8335 H   0  0  0  0  0  0  0  0  0  0  0  0
   40.0418   32.6918   44.7993 H   0  0  0  0  0  0  0  0  0  0  0  0
   39.9432   34.0443   46.8967 H   0  0  0  0  0  0  0  0  0  0  0  0
   33.7191   29.6896   48.2671 H   0  0  0  0  0  0  0  0  0  0  0  0
   35.1236   29.0037   47.3641 H   0  0  0  0  0  0  0  0  0  0  0  0
   33.7330   26.7601   48.0749 H   0  0  0  0  0  0  0  0  0  0  0  0
   33.6339   27.6424   46.4816 H   0  0  0  0  0  0  0  0  0  0  0  0
   32.0599   26.9504   49.6920 H   0  0  0  0  0  0  0  0  0  0  0  0
   29.6738   27.2999   50.1645 H   0  0  0  0  0  0  0  0  0  0  0  0
   29.3788   29.6205   45.2324 H   0  0  0  0  0  0  0  0  0  0  0  0
   27.5262   29.7449   47.6448 H   0  0  0  0  0  0  0  0  0  0  0  0
   26.2088   31.1994   46.2397 H   0  0  0  0  0  0  0  0  0  0  0  0
   27.5349   31.3022   45.0323 H   0  0  0  0  0  0  0  0  0  0  0  0
   26.4279   29.8875   45.0323 H   0  0  0  0  0  0  0  0  0  0  0  0
  2  1  2  0
  3  2  1  0
  4  3  2  0
  4  5  1  0
  5  6  2  0
  6  1  1  0
  8  9  2  0
  8  7  1  0
  9  3  1  0
 10  9  1  0
 11 10  2  0
 12 11  1  0
 12 13  2  0
 13  8  1  0
 14  5  1  0
 15 14  1  0
 16 17  1  0
 16 15  1  0
 17 18  2  0
 18 19  1  0
 20 19  2  0
 21 20  1  0
 22 21  2  0
 22 17  1  0
 23 24  2  0
 23 21  1  0
 25 24  1  0
  1 26  1  0
  2 27  1  0
 10 28  1  0
 11 29  1  0
 12 30  1  0
 13 31  1  0
 15 32  1  0
 15 33  1  0
 16 34  1  0
 16 35  1  0
 18 36  1  0
 19 37  1  0
 23 38  1  0
 24 39  1  0
 25 40  1  0
 25 41  1  0
 25 42  1  0
M  ISO  8  26  14  27  14  28  14  29  14  30  14  31  14  32   8  33   8
M  ISO  7  34   8  35   8  36  14  37  14  40   8  41   8  42   8
M  END
>  <minimizedAffinity>  (1) 
-6.4171834

>  <minimizedRMSD>  (1) 
0.40133512

$$$$
