
     RDKit          3D

 41 43  0  0  0  0  0  0  0  0999 V2000
   37.2370   30.0960   51.5110 C   0  0  0  0  0  0  0  0  0  0  0  0
   38.0070   30.8290   50.5640 C   0  0  0  0  0  0  0  0  0  0  0  0
   37.7000   30.6750   49.2350 C   0  0  0  0  0  0  0  0  0  0  0  0
   36.6620   29.8160   48.9280 N   0  0  0  0  0  0  0  0  0  0  0  0
   35.9590   29.1440   49.8300 C   0  0  0  0  0  0  0  0  0  0  0  0
   36.2530   29.2890   51.1350 N   0  0  0  0  0  0  0  0  0  0  0  0
   38.8220   33.3420   49.1570 F   0  0  0  0  0  0  0  0  0  0  0  0
   38.9000   32.5780   48.0760 C   0  0  0  0  0  0  0  0  0  0  0  0
   38.3690   31.3350   48.1340 C   0  0  0  0  0  0  0  0  0  0  0  0
   38.5050   30.6150   46.9430 C   0  0  0  0  0  0  0  0  0  0  0  0
   39.1160   31.1190   45.8250 C   0  0  0  0  0  0  0  0  0  0  0  0
   39.6390   32.3930   45.8240 C   0  0  0  0  0  0  0  0  0  0  0  0
   39.5200   33.1150   46.9730 C   0  0  0  0  0  0  0  0  0  0  0  0
   34.9910   28.3650   49.2740 O   0  0  0  0  0  0  0  0  0  0  0  0
   34.3350   28.8290   48.0990 C   0  0  0  0  0  0  0  0  0  0  0  0
   33.4750   27.7420   47.5320 C   0  0  0  0  0  0  0  0  0  0  0  0
   32.0270   27.9610   47.7790 C   0  0  0  0  0  0  0  0  0  0  0  0
   31.5020   27.5430   48.9880 C   0  0  0  0  0  0  0  0  0  0  0  0
   30.1870   27.7000   49.3050 C   0  0  0  0  0  0  0  0  0  0  0  0
   29.3760   28.2700   48.4360 N   0  0  0  0  0  0  0  0  0  0  0  0
   29.8860   28.6880   47.2340 C   0  0  0  0  0  0  0  0  0  0  0  0
   31.1840   28.5400   46.9060 N   0  0  0  0  0  0  0  0  0  0  0  0
   29.1050   29.3550   46.1300 C   0  0  0  0  0  0  0  0  0  0  0  0
   27.7880   29.8800   46.6000 C   0  0  0  0  0  0  0  0  0  0  0  0
   37.4637   30.2014   52.5822 H   0  0  0  0  0  0  0  0  0  0  0  0
   38.8202   31.4960   50.8863 H   0  0  0  0  0  0  0  0  0  0  0  0
   38.1012   29.5926   46.9016 H   0  0  0  0  0  0  0  0  0  0  0  0
   39.1896   30.4997   44.9189 H   0  0  0  0  0  0  0  0  0  0  0  0
   40.1319   32.8098   44.9333 H   0  0  0  0  0  0  0  0  0  0  0  0
   39.9238   34.1372   47.0186 H   0  0  0  0  0  0  0  0  0  0  0  0
   33.7075   29.6968   48.3503 H   0  0  0  0  0  0  0  0  0  0  0  0
   35.0900   29.1192   47.3535 H   0  0  0  0  0  0  0  0  0  0  0  0
   33.7687   26.7867   47.9915 H   0  0  0  0  0  0  0  0  0  0  0  0
   33.6264   27.7365   46.4425 H   0  0  0  0  0  0  0  0  0  0  0  0
   32.1706   27.0665   49.7200 H   0  0  0  0  0  0  0  0  0  0  0  0
   29.8051   27.3545   50.2770 H   0  0  0  0  0  0  0  0  0  0  0  0
   28.9274   28.6212   45.3300 H   0  0  0  0  0  0  0  0  0  0  0  0
   29.6970   30.2093   45.7698 H   0  0  0  0  0  0  0  0  0  0  0  0
   27.7678   29.8880   47.6998 H   0  0  0  0  0  0  0  0  0  0  0  0
   27.6457   30.9036   46.2232 H   0  0  0  0  0  0  0  0  0  0  0  0
   26.9805   29.2350   46.2232 H   0  0  0  0  0  0  0  0  0  0  0  0
  2  1  2  0
  3  2  1  0
  4  3  2  0
  4  5  1  0
  5  6  2  0
  6  1  1  0
  8  9  2  0
  8  7  1  0
  9  3  1  0
 10  9  1  0
 11 10  2  0
 12 11  1  0
 12 13  2  0
 13  8  1  0
 14  5  1  0
 15 14  1  0
 16 17  1  0
 16 15  1  0
 17 18  2  0
 18 19  1  0
 20 19  2  0
 21 20  1  0
 22 21  2  0
 22 17  1  0
 23 24  1  0
 23 21  1  0
  1 25  1  0
  2 26  1  0
 10 27  1  0
 11 28  1  0
 12 29  1  0
 13 30  1  0
 15 31  1  0
 15 32  1  0
 16 33  1  0
 16 34  1  0
 18 35  1  0
 19 36  1  0
 23 37  1  0
 23 38  1  0
 24 39  1  0
 24 40  1  0
 24 41  1  0
M  ISO  8  25  14  26  14  27  14  28  14  29  14  30  14  31   8  32   8
M  ISO  8  33   8  34   8  35  14  36  14  37   8  38   8  39   8  40   8
M  ISO  1  41   8
M  END
>  <minimizedAffinity>  (1) 
-6.22811699

>  <minimizedRMSD>  (1) 
0.437162906

$$$$
