
     RDKit          3D

 52 55  0  0  0  0  0  0  0  0999 V2000
   34.4860   28.6230   48.1870 C   0  0  0  0  0  0  0  0  0  0  0  0
   33.4260   27.6340   47.8170 C   0  0  0  0  0  0  0  0  0  0  0  0
   32.2300   28.2810   47.2020 C   0  0  0  0  0  0  0  0  0  0  0  0
   30.9730   27.9450   47.7110 C   0  0  0  0  0  0  0  0  0  0  0  0
   29.8250   28.4940   47.2040 C   0  0  0  0  0  0  0  0  0  0  0  0
   29.8970   29.3640   46.2100 N   0  0  0  0  0  0  0  0  0  0  0  0
   31.1310   29.6830   45.7240 C   0  0  0  0  0  0  0  0  0  0  0  0
   32.2740   29.1660   46.1940 N   0  0  0  0  0  0  0  0  0  0  0  0
   31.1700   30.6730   44.5960 C   0  0  0  0  0  0  0  0  0  0  0  0
   30.8430   32.0030   44.9750 N   0  0  0  0  0  0  0  0  0  0  0  0
   31.8910   32.8970   44.5460 C   0  0  0  0  0  0  0  0  0  0  0  0
   31.4050   34.2860   44.2010 C   0  0  0  0  0  0  0  0  0  0  0  0
   30.4100   34.2620   43.1460 N   0  0  0  0  0  0  0  0  0  0  0  0
   29.7840   32.9550   43.0670 C   0  0  0  0  0  0  0  0  0  0  0  0
   29.5900   32.4830   44.4930 C   0  0  0  0  0  0  0  0  0  0  0  0
   35.0050   28.3670   49.4880 O   0  0  0  0  0  0  0  0  0  0  0  0
   37.3600   30.1810   51.5370 C   0  0  0  0  0  0  0  0  0  0  0  0
   38.0940   30.8770   50.5390 C   0  0  0  0  0  0  0  0  0  0  0  0
   37.7170   30.6680   49.2180 C   0  0  0  0  0  0  0  0  0  0  0  0
   36.6710   29.8060   49.0080 N   0  0  0  0  0  0  0  0  0  0  0  0
   36.0000   29.1640   49.9620 C   0  0  0  0  0  0  0  0  0  0  0  0
   36.3640   29.3670   51.2500 N   0  0  0  0  0  0  0  0  0  0  0  0
   38.9440   33.2780   49.0250 F   0  0  0  0  0  0  0  0  0  0  0  0
   38.9090   32.4890   47.9550 C   0  0  0  0  0  0  0  0  0  0  0  0
   38.3360   31.2810   48.0620 C   0  0  0  0  0  0  0  0  0  0  0  0
   38.3540   30.5360   46.8810 C   0  0  0  0  0  0  0  0  0  0  0  0
   38.9100   31.0050   45.7180 C   0  0  0  0  0  0  0  0  0  0  0  0
   39.4880   32.2540   45.6580 C   0  0  0  0  0  0  0  0  0  0  0  0
   39.4740   32.9860   46.8050 C   0  0  0  0  0  0  0  0  0  0  0  0
   34.0543   29.6345   48.1667 H   0  0  0  0  0  0  0  0  0  0  0  0
   35.3092   28.5349   47.4627 H   0  0  0  0  0  0  0  0  0  0  0  0
   33.8482   26.9170   47.0975 H   0  0  0  0  0  0  0  0  0  0  0  0
   33.0979   27.1347   48.7406 H   0  0  0  0  0  0  0  0  0  0  0  0
   30.9036   27.2230   48.5379 H   0  0  0  0  0  0  0  0  0  0  0  0
   28.8471   28.2126   47.6217 H   0  0  0  0  0  0  0  0  0  0  0  0
   30.4539   30.3478   43.8270 H   0  0  0  0  0  0  0  0  0  0  0  0
   32.2075   30.6949   44.2312 H   0  0  0  0  0  0  0  0  0  0  0  0
   32.6298   32.9795   45.3567 H   0  0  0  0  0  0  0  0  0  0  0  0
   32.3198   32.4703   43.6273 H   0  0  0  0  0  0  0  0  0  0  0  0
   30.9612   34.7411   45.0987 H   0  0  0  0  0  0  0  0  0  0  0  0
   32.2661   34.8710   43.8456 H   0  0  0  0  0  0  0  0  0  0  0  0
   29.6897   34.9714   43.3432 H   0  0  0  0  0  0  0  0  0  0  0  0
   28.8127   33.0293   42.5561 H   0  0  0  0  0  0  0  0  0  0  0  0
   30.4065   32.2501   42.4964 H   0  0  0  0  0  0  0  0  0  0  0  0
   29.2453   33.3193   45.1189 H   0  0  0  0  0  0  0  0  0  0  0  0
   28.8356   31.6833   44.5304 H   0  0  0  0  0  0  0  0  0  0  0  0
   37.6343   30.3276   52.5921 H   0  0  0  0  0  0  0  0  0  0  0  0
   38.9232   31.5508   50.8004 H   0  0  0  0  0  0  0  0  0  0  0  0
   37.9040   29.5322   46.8834 H   0  0  0  0  0  0  0  0  0  0  0  0
   38.8940   30.3729   44.8179 H   0  0  0  0  0  0  0  0  0  0  0  0
   39.9375   32.6396   44.7310 H   0  0  0  0  0  0  0  0  0  0  0  0
   39.9217   33.9908   46.8119 H   0  0  0  0  0  0  0  0  0  0  0  0
  1 16  1  0
  2  1  1  0
  3  4  2  0
  3  2  1  0
  5  4  1  0
  6  5  2  0
  7  8  2  0
  7  6  1  0
  8  3  1  0
  9 10  1  0
  9  7  1  0
 11 10  1  0
 12 11  1  0
 13 12  1  0
 14 13  1  0
 14 15  1  0
 15 10  1  0
 16 21  1  0
 18 17  2  0
 19 18  1  0
 20 19  2  0
 20 21  1  0
 21 22  2  0
 22 17  1  0
 24 25  2  0
 24 23  1  0
 25 19  1  0
 26 25  1  0
 27 26  2  0
 28 27  1  0
 28 29  2  0
 29 24  1  0
  1 30  1  0
  1 31  1  0
  2 32  1  0
  2 33  1  0
  4 34  1  0
  5 35  1  0
  9 36  1  0
  9 37  1  0
 11 38  1  0
 11 39  1  0
 12 40  1  0
 12 41  1  0
 13 42  1  0
 14 43  1  0
 14 44  1  0
 15 45  1  0
 15 46  1  0
 17 47  1  0
 18 48  1  0
 26 49  1  0
 27 50  1  0
 28 51  1  0
 29 52  1  0
M  ISO  8  30   8  31   8  32   8  33   8  34  14  35  14  36   8  37   8
M  ISO  8  38  13  39  13  40  13  41  13  42   5  43  13  44  13  45  13
M  ISO  7  46  13  47  14  48  14  49  14  50  14  51  14  52  14
M  END
>  <minimizedAffinity>  (1) 
-6.5914278

>  <minimizedRMSD>  (1) 
1.22073698

$$$$
