
     RDKit          3D

 42 44  0  0  0  0  0  0  0  0999 V2000
   34.2140   28.9600   48.0710 C   0  0  0  0  0  0  0  0  0  0  0  0
   33.3790   27.9020   47.4310 C   0  0  0  0  0  0  0  0  0  0  0  0
   31.9300   28.0100   47.8010 C   0  0  0  0  0  0  0  0  0  0  0  0
   31.5840   27.6530   49.0910 C   0  0  0  0  0  0  0  0  0  0  0  0
   30.2920   27.7140   49.5300 C   0  0  0  0  0  0  0  0  0  0  0  0
   29.3430   28.1240   48.7020 N   0  0  0  0  0  0  0  0  0  0  0  0
   29.6870   28.4750   47.4280 C   0  0  0  0  0  0  0  0  0  0  0  0
   30.9600   28.4260   46.9630 N   0  0  0  0  0  0  0  0  0  0  0  0
   28.6100   28.9370   46.5010 C   0  0  0  0  0  0  0  0  0  0  0  0
   26.4990   29.8530   47.7040 C   0  0  0  0  0  0  0  0  0  0  0  0
   25.9930   28.7000   47.7430 O   0  0  0  0  0  0  0  0  0  0  0  0
   27.7980   29.9620   47.0860 N   0  0  0  0  0  0  0  0  0  0  0  0
   35.0520   28.4070   49.0740 O   0  0  0  0  0  0  0  0  0  0  0  0
   37.3070   30.1500   51.3010 C   0  0  0  0  0  0  0  0  0  0  0  0
   38.0810   30.8680   50.3550 C   0  0  0  0  0  0  0  0  0  0  0  0
   37.7740   30.7040   49.0090 C   0  0  0  0  0  0  0  0  0  0  0  0
   36.7390   29.8520   48.7230 N   0  0  0  0  0  0  0  0  0  0  0  0
   36.0220   29.1840   49.6340 C   0  0  0  0  0  0  0  0  0  0  0  0
   36.3180   29.3420   50.9400 N   0  0  0  0  0  0  0  0  0  0  0  0
   38.9490   33.3410   48.9350 F   0  0  0  0  0  0  0  0  0  0  0  0
   39.0020   32.5740   47.8560 C   0  0  0  0  0  0  0  0  0  0  0  0
   38.4480   31.3500   47.9080 C   0  0  0  0  0  0  0  0  0  0  0  0
   38.5560   30.6210   46.7190 C   0  0  0  0  0  0  0  0  0  0  0  0
   39.1710   31.1190   45.6050 C   0  0  0  0  0  0  0  0  0  0  0  0
   39.7250   32.3820   45.5970 C   0  0  0  0  0  0  0  0  0  0  0  0
   39.6280   33.1090   46.7520 C   0  0  0  0  0  0  0  0  0  0  0  0
   33.5541   29.7123   48.5277 H   0  0  0  0  0  0  0  0  0  0  0  0
   34.8476   29.4219   47.2995 H   0  0  0  0  0  0  0  0  0  0  0  0
   33.7519   26.9176   47.7502 H   0  0  0  0  0  0  0  0  0  0  0  0
   33.4555   28.0304   46.3412 H   0  0  0  0  0  0  0  0  0  0  0  0
   32.3691   27.3111   49.7814 H   0  0  0  0  0  0  0  0  0  0  0  0
   30.0420   27.4253   50.5616 H   0  0  0  0  0  0  0  0  0  0  0  0
   27.9697   28.0797   46.2460 H   0  0  0  0  0  0  0  0  0  0  0  0
   29.0913   29.3564   45.6052 H   0  0  0  0  0  0  0  0  0  0  0  0
   25.9787   30.7290   48.1186 H   0  0  0  0  0  0  0  0  0  0  0  0
   28.1981   30.9108   47.0620 H   0  0  0  0  0  0  0  0  0  0  0  0
   37.5339   30.2666   52.3710 H   0  0  0  0  0  0  0  0  0  0  0  0
   38.8970   31.5325   50.6751 H   0  0  0  0  0  0  0  0  0  0  0  0
   38.1294   29.6079   46.6793 H   0  0  0  0  0  0  0  0  0  0  0  0
   39.2253   30.5005   44.6970 H   0  0  0  0  0  0  0  0  0  0  0  0
   40.2221   32.7863   44.7029 H   0  0  0  0  0  0  0  0  0  0  0  0
   40.0510   34.1233   46.7990 H   0  0  0  0  0  0  0  0  0  0  0  0
  1 13  1  0
  2  3  1  0
  2  1  1  0
  3  4  2  0
  4  5  1  0
  6  5  2  0
  7  6  1  0
  8  7  2  0
  8  3  1  0
  9 12  1  0
  9  7  1  0
 10 11  2  0
 12 10  1  0
 13 18  1  0
 15 14  2  0
 16 15  1  0
 17 16  2  0
 17 18  1  0
 18 19  2  0
 19 14  1  0
 21 22  2  0
 21 20  1  0
 22 16  1  0
 23 22  1  0
 24 23  2  0
 25 24  1  0
 25 26  2  0
 26 21  1  0
  1 27  1  0
  1 28  1  0
  2 29  1  0
  2 30  1  0
  4 31  1  0
  5 32  1  0
  9 33  1  0
  9 34  1  0
 10 35  1  0
 12 36  1  0
 14 37  1  0
 15 38  1  0
 23 39  1  0
 24 40  1  0
 25 41  1  0
 26 42  1  0
M  ISO  8  27   8  28   8  29   8  30   8  31  14  32  14  33   8  34   8
M  ISO  7  35   6  37  14  38  14  39  14  40  14  41  14  42  14
M  END
>  <minimizedAffinity>  (1) 
-6.43176937

>  <minimizedRMSD>  (1) 
1.1075542

$$$$
