
     RDKit          3D

 13 13  0  0  0  0  0  0  0  0999 V2000
   38.3070   31.2420   50.1250 C   0  0  0  0  0  0  0  0  0  0  0  0
   38.2960   31.6140   48.7710 C   0  0  0  0  0  0  0  0  0  0  0  0
   37.2040   31.2220   47.9930 C   0  0  0  0  0  0  0  0  0  0  0  0
   36.2130   30.5010   48.5930 N   0  0  0  0  0  0  0  0  0  0  0  0
   36.2610   30.1650   49.8940 C   0  0  0  0  0  0  0  0  0  0  0  0
   37.3010   30.5340   50.6520 N   0  0  0  0  0  0  0  0  0  0  0  0
   35.1290   29.3770   50.4490 C   0  0  0  0  0  0  0  0  0  0  0  0
   35.2680   29.1240   51.8020 F   0  0  0  0  0  0  0  0  0  0  0  0
   33.9230   30.0650   50.3010 F   0  0  0  0  0  0  0  0  0  0  0  0
   34.9470   28.1680   49.8240 F   0  0  0  0  0  0  0  0  0  0  0  0
   39.1544   31.5367   50.7615 H   0  0  0  0  0  0  0  0  0  0  0  0
   39.1219   32.1962   48.3363 H   0  0  0  0  0  0  0  0  0  0  0  0
   37.1447   31.4870   46.9270 H   0  0  0  0  0  0  0  0  0  0  0  0
  1  6  2  0
  2  1  1  0
  3  4  1  0
  3  2  2  0
  4  5  2  0
  5  7  1  0
  5  6  1  0
  7  8  1  0
  9  7  1  0
 10  7  1  0
  1 11  1  0
  2 12  1  0
  3 13  1  0
M  ISO  3  11  14  12  14  13  14
M  END
>  <minimizedAffinity>  (1) 
-4.1551981

>  <minimizedRMSD>  (1) 
1.59830809

$$$$
