
     RDKit          3D

 27 28  0  0  0  0  0  0  0  0999 V2000
   37.7490   32.9800   49.6740 C   0  0  0  0  0  0  0  0  0  0  0  0
   38.5250   32.9140   48.5130 C   0  0  0  0  0  0  0  0  0  0  0  0
   38.2830   31.8700   47.6230 C   0  0  0  0  0  0  0  0  0  0  0  0
   37.3080   30.9810   47.9400 N   0  0  0  0  0  0  0  0  0  0  0  0
   36.5770   31.0610   49.0550 C   0  0  0  0  0  0  0  0  0  0  0  0
   36.8030   32.0680   49.9230 N   0  0  0  0  0  0  0  0  0  0  0  0
   38.9930   31.6840   46.4120 N   0  0  0  0  0  0  0  0  0  0  0  0
   39.8490   32.7040   45.8160 C   0  0  0  0  0  0  0  0  0  0  0  0
   41.0590   32.1110   45.1660 C   0  0  0  0  0  0  0  0  0  0  0  0
   40.8430   30.8850   44.4640 N   0  0  0  0  0  0  0  0  0  0  0  0
   39.4630   30.4980   44.3780 C   0  0  0  0  0  0  0  0  0  0  0  0
   38.8330   30.4010   45.7670 C   0  0  0  0  0  0  0  0  0  0  0  0
   35.5360   30.0300   49.2980 C   0  0  0  0  0  0  0  0  0  0  0  0
   34.3900   30.5700   49.8650 F   0  0  0  0  0  0  0  0  0  0  0  0
   35.1380   29.4390   48.1080 F   0  0  0  0  0  0  0  0  0  0  0  0
   35.9690   29.0190   50.1160 F   0  0  0  0  0  0  0  0  0  0  0  0
   37.9191   33.7944   50.3936 H   0  0  0  0  0  0  0  0  0  0  0  0
   39.3033   33.6639   48.3084 H   0  0  0  0  0  0  0  0  0  0  0  0
   39.2717   33.2531   45.0576 H   0  0  0  0  0  0  0  0  0  0  0  0
   40.1891   33.3738   46.6196 H   0  0  0  0  0  0  0  0  0  0  0  0
   41.4534   32.8466   44.4495 H   0  0  0  0  0  0  0  0  0  0  0  0
   41.7540   31.8715   45.9843 H   0  0  0  0  0  0  0  0  0  0  0  0
   41.2103   30.9901   43.5075 H   0  0  0  0  0  0  0  0  0  0  0  0
   38.9158   31.2467   43.7865 H   0  0  0  0  0  0  0  0  0  0  0  0
   39.4057   29.5100   43.8978 H   0  0  0  0  0  0  0  0  0  0  0  0
   37.7641   30.1573   45.6775 H   0  0  0  0  0  0  0  0  0  0  0  0
   39.3194   29.6099   46.3565 H   0  0  0  0  0  0  0  0  0  0  0  0
  1  6  2  0
  2  1  1  0
  3  4  1  0
  3  2  2  0
  4  5  2  0
  5 13  1  0
  5  6  1  0
  7  3  1  0
  8  7  1  0
  9  8  1  0
 10  9  1  0
 11 10  1  0
 11 12  1  0
 12  7  1  0
 13 14  1  0
 13 16  1  0
 15 13  1  0
  1 17  1  0
  2 18  1  0
  8 19  1  0
  8 20  1  0
  9 21  1  0
  9 22  1  0
 10 23  1  0
 11 24  1  0
 11 25  1  0
 12 26  1  0
 12 27  1  0
M  ISO  8  17  14  18  14  19  13  20  13  21  13  22  13  23   5  24  13
M  ISO  3  25  13  26  13  27  13
M  END
>  <minimizedAffinity>  (1) 
-5.52549267

>  <minimizedRMSD>  (1) 
2.23044419

$$$$
