
     RDKit          3D

 20 21  0  0  0  0  0  0  0  0999 V2000
   38.3220   31.2700   50.1970 C   0  0  0  0  0  0  0  0  0  0  0  0
   38.4130   31.5480   48.8300 C   0  0  0  0  0  0  0  0  0  0  0  0
   37.3980   31.0800   48.0080 C   0  0  0  0  0  0  0  0  0  0  0  0
   36.3700   30.3820   48.5500 N   0  0  0  0  0  0  0  0  0  0  0  0
   36.3140   30.1320   49.8790 C   0  0  0  0  0  0  0  0  0  0  0  0
   37.2860   30.5760   50.6870 N   0  0  0  0  0  0  0  0  0  0  0  0
   37.4520   31.3460   46.5760 C   0  0  0  0  0  0  0  0  0  0  0  0
   36.8110   30.6170   45.5960 C   0  0  0  0  0  0  0  0  0  0  0  0
   37.1770   31.2660   44.4350 C   0  0  0  0  0  0  0  0  0  0  0  0
   37.9920   32.3270   44.6940 N   0  0  0  0  0  0  0  0  0  0  0  0
   38.1420   32.3480   46.0190 N   0  0  0  0  0  0  0  0  0  0  0  0
   35.1490   29.3590   50.3860 C   0  0  0  0  0  0  0  0  0  0  0  0
   35.2400   29.1090   51.7520 F   0  0  0  0  0  0  0  0  0  0  0  0
   33.9710   30.0860   50.2140 F   0  0  0  0  0  0  0  0  0  0  0  0
   34.9740   28.1610   49.7600 F   0  0  0  0  0  0  0  0  0  0  0  0
   39.1097   31.6250   50.8779 H   0  0  0  0  0  0  0  0  0  0  0  0
   39.2599   32.1180   48.4203 H   0  0  0  0  0  0  0  0  0  0  0  0
   36.1656   29.7338   45.7119 H   0  0  0  0  0  0  0  0  0  0  0  0
   36.8522   30.9652   43.4280 H   0  0  0  0  0  0  0  0  0  0  0  0
   38.4055   32.9765   44.0099 H   0  0  0  0  0  0  0  0  0  0  0  0
  1  6  2  0
  2  1  1  0
  3  4  1  0
  3  2  2  0
  4  5  2  0
  5 12  1  0
  5  6  1  0
  7  3  1  0
  8  7  1  0
  9 10  1  0
  9  8  2  0
 10 11  1  0
 11  7  2  0
 12 13  1  0
 14 12  1  0
 15 12  1  0
  1 16  1  0
  2 17  1  0
  8 18  1  0
  9 19  1  0
 10 20  1  0
M  ISO  5  16  14  17  14  18  14  19  14  20   9
M  END
>  <minimizedAffinity>  (1) 
-5.20000839

>  <minimizedRMSD>  (1) 
0.360288233

$$$$
