
     RDKit          3D

 16 16  0  0  0  0  0  0  0  0999 V2000
   38.2830   31.3130   50.1680 C   0  0  0  0  0  0  0  0  0  0  0  0
   38.4300   31.4450   48.7680 C   0  0  0  0  0  0  0  0  0  0  0  0
   37.4620   30.8700   47.9570 C   0  0  0  0  0  0  0  0  0  0  0  0
   36.4310   30.2120   48.5590 N   0  0  0  0  0  0  0  0  0  0  0  0
   36.3140   30.1010   49.8850 C   0  0  0  0  0  0  0  0  0  0  0  0
   37.2410   30.6520   50.6890 N   0  0  0  0  0  0  0  0  0  0  0  0
   35.1460   29.3610   50.4360 C   0  0  0  0  0  0  0  0  0  0  0  0
   35.2590   29.1150   51.7920 F   0  0  0  0  0  0  0  0  0  0  0  0
   33.9780   30.0840   50.2540 F   0  0  0  0  0  0  0  0  0  0  0  0
   34.9440   28.1520   49.8160 F   0  0  0  0  0  0  0  0  0  0  0  0
   37.5420   30.9620   46.4810 C   0  0  0  0  0  0  0  0  0  0  0  0
   36.3590   30.6230   45.8620 F   0  0  0  0  0  0  0  0  0  0  0  0
   38.5940   30.2270   45.9730 F   0  0  0  0  0  0  0  0  0  0  0  0
   37.8190   32.2840   46.1420 F   0  0  0  0  0  0  0  0  0  0  0  0
   39.0335   31.7586   50.8375 H   0  0  0  0  0  0  0  0  0  0  0  0
   39.2844   31.9862   48.3355 H   0  0  0  0  0  0  0  0  0  0  0  0
  1  6  2  0
  2  1  1  0
  3  4  1  0
  3  2  2  0
  4  5  2  0
  5  7  1  0
  5  6  1  0
  7  8  1  0
  9  7  1  0
 10  7  1  0
 11  3  1  0
 12 11  1  0
 13 11  1  0
 14 11  1  0
  1 15  1  0
  2 16  1  0
M  ISO  2  15  14  16  14
M  END
>  <minimizedAffinity>  (1) 
-5.03435421

>  <minimizedRMSD>  (1) 
0.478782743

$$$$
