
     RDKit          3D

 17 17  0  0  0  0  0  0  0  0999 V2000
   38.2840   31.2500   50.0660 C   0  0  0  0  0  0  0  0  0  0  0  0
   38.2980   31.5350   48.6980 C   0  0  0  0  0  0  0  0  0  0  0  0
   37.2360   31.0780   47.9310 C   0  0  0  0  0  0  0  0  0  0  0  0
   36.2390   30.3800   48.5450 N   0  0  0  0  0  0  0  0  0  0  0  0
   36.2660   30.1290   49.8650 C   0  0  0  0  0  0  0  0  0  0  0  0
   37.2810   30.5590   50.6270 N   0  0  0  0  0  0  0  0  0  0  0  0
   38.1590   32.1170   45.9240 C   0  0  0  0  0  0  0  0  0  0  0  0
   39.0860   32.5930   46.6550 O   0  0  0  0  0  0  0  0  0  0  0  0
   37.1680   31.3220   46.5320 N   0  0  0  0  0  0  0  0  0  0  0  0
   35.1340   29.3610   50.4400 C   0  0  0  0  0  0  0  0  0  0  0  0
   35.2800   29.1330   51.7980 F   0  0  0  0  0  0  0  0  0  0  0  0
   33.9320   30.0760   50.3010 F   0  0  0  0  0  0  0  0  0  0  0  0
   34.9130   28.1570   49.8390 F   0  0  0  0  0  0  0  0  0  0  0  0
   39.1143   31.6003   50.6967 H   0  0  0  0  0  0  0  0  0  0  0  0
   39.1237   32.1029   48.2443 H   0  0  0  0  0  0  0  0  0  0  0  0
   38.1325   32.3216   44.8435 H   0  0  0  0  0  0  0  0  0  0  0  0
   36.4032   30.9222   45.9698 H   0  0  0  0  0  0  0  0  0  0  0  0
  1  6  2  0
  2  1  1  0
  3  4  1  0
  3  2  2  0
  4  5  2  0
  5 10  1  0
  5  6  1  0
  7  9  1  0
  7  8  2  0
  9  3  1  0
 10 11  1  0
 12 10  1  0
 13 10  1  0
  1 14  1  0
  2 15  1  0
  7 16  1  0
  9 17  1  0
M  ISO  3  14  14  15  14  16   6
M  END
>  <minimizedAffinity>  (1) 
-4.9231739

>  <minimizedRMSD>  (1) 
0.121258445

$$$$
