
     RDKit          3D

 20 21  0  0  0  0  0  0  0  0999 V2000
   38.2630   31.3200   50.2650 C   0  0  0  0  0  0  0  0  0  0  0  0
   38.5240   31.3580   48.8750 C   0  0  0  0  0  0  0  0  0  0  0  0
   37.6360   30.7130   48.0280 C   0  0  0  0  0  0  0  0  0  0  0  0
   36.5660   30.0840   48.5880 N   0  0  0  0  0  0  0  0  0  0  0  0
   36.3410   30.0640   49.9160 C   0  0  0  0  0  0  0  0  0  0  0  0
   37.1870   30.6800   50.7430 N   0  0  0  0  0  0  0  0  0  0  0  0
   35.1440   29.3460   50.4020 C   0  0  0  0  0  0  0  0  0  0  0  0
   35.1850   29.0980   51.7700 F   0  0  0  0  0  0  0  0  0  0  0  0
   33.9880   30.1030   50.1870 F   0  0  0  0  0  0  0  0  0  0  0  0
   34.9270   28.1420   49.7690 F   0  0  0  0  0  0  0  0  0  0  0  0
   37.8000   30.6810   46.5490 C   0  0  0  0  0  0  0  0  0  0  0  0
   38.0440   32.0220   45.8460 C   0  0  0  0  0  0  0  0  0  0  0  0
   39.1050   30.9640   45.9240 C   0  0  0  0  0  0  0  0  0  0  0  0
   38.9512   31.8215   50.9613 H   0  0  0  0  0  0  0  0  0  0  0  0
   39.4051   31.8836   48.4782 H   0  0  0  0  0  0  0  0  0  0  0  0
   37.0856   29.8489   46.4638 H   0  0  0  0  0  0  0  0  0  0  0  0
   38.1386   32.9474   46.4331 H   0  0  0  0  0  0  0  0  0  0  0  0
   37.5553   32.5910   45.0413 H   0  0  0  0  0  0  0  0  0  0  0  0
   39.4013   30.4223   45.0136 H   0  0  0  0  0  0  0  0  0  0  0  0
   40.1449   30.9477   46.2822 H   0  0  0  0  0  0  0  0  0  0  0  0
  1  6  2  0
  2  1  1  0
  3  4  1  0
  3  2  2  0
  4  5  2  0
  5  7  1  0
  5  6  1  0
  7  8  1  0
  9  7  1  0
 10  7  1  0
 11  3  1  0
 12 13  1  0
 12 11  1  0
 13 11  1  0
  1 14  1  0
  2 15  1  0
 11 16  1  0
 12 17  1  0
 12 18  1  0
 13 19  1  0
 13 20  1  0
M  ISO  7  14  14  15  14  16  13  17  13  18  13  19  13  20  13
M  END
>  <minimizedAffinity>  (1) 
-4.8501544

>  <minimizedRMSD>  (1) 
0.609714627

$$$$
