
     RDKit          3D

 14 14  0  0  0  0  0  0  0  0999 V2000
   38.2800   31.2500   50.0750 C   0  0  0  0  0  0  0  0  0  0  0  0
   38.2790   31.5630   48.7160 C   0  0  0  0  0  0  0  0  0  0  0  0
   37.2020   31.1310   47.9390 C   0  0  0  0  0  0  0  0  0  0  0  0
   36.2100   30.4260   48.5570 N   0  0  0  0  0  0  0  0  0  0  0  0
   36.2480   30.1430   49.8790 C   0  0  0  0  0  0  0  0  0  0  0  0
   37.2770   30.5570   50.6240 N   0  0  0  0  0  0  0  0  0  0  0  0
   35.1230   29.3730   50.4520 C   0  0  0  0  0  0  0  0  0  0  0  0
   35.2850   29.1230   51.8000 F   0  0  0  0  0  0  0  0  0  0  0  0
   33.9220   30.0520   50.3060 F   0  0  0  0  0  0  0  0  0  0  0  0
   34.9340   28.1530   49.8320 F   0  0  0  0  0  0  0  0  0  0  0  0
   37.0260   31.3430   46.5780 O   0  0  0  0  0  0  0  0  0  0  0  0
   39.1195   31.5785   50.7054 H   0  0  0  0  0  0  0  0  0  0  0  0
   39.1048   32.1351   48.2679 H   0  0  0  0  0  0  0  0  0  0  0  0
   37.7055   31.8468   46.0636 H   0  0  0  0  0  0  0  0  0  0  0  0
  1  6  2  0
  2  1  1  0
  3  4  1  0
  3  2  2  0
  4  5  2  0
  5  7  1  0
  5  6  1  0
  7  8  1  0
  9  7  1  0
 10  7  1  0
 11  3  1  0
  1 12  1  0
  2 13  1  0
 11 14  1  0
M  ISO  3  12  14  13  14  14   3
M  END
>  <minimizedAffinity>  (1) 
-4.54579639

>  <minimizedRMSD>  (1) 
0.0729876161

$$$$
