
     RDKit          3D

 32 33  0  0  0  0  0  0  0  0999 V2000
   36.7680   30.7150   45.4780 C   0  0  0  0  0  0  0  0  0  0  0  0
   36.2180   30.4610   46.6980 C   0  0  0  0  0  0  0  0  0  0  0  0
   34.9460   29.9420   46.7830 C   0  0  0  0  0  0  0  0  0  0  0  0
   34.1760   29.6630   45.6770 C   0  0  0  0  0  0  0  0  0  0  0  0
   34.6760   29.9070   44.4280 C   0  0  0  0  0  0  0  0  0  0  0  0
   35.9410   30.4200   44.3700 C   0  0  0  0  0  0  0  0  0  0  0  0
   38.4110   32.2050   49.1000 C   0  0  0  0  0  0  0  0  0  0  0  0
   37.6880   31.9130   47.9440 C   0  0  0  0  0  0  0  0  0  0  0  0
   36.9410   30.7870   47.8970 C   0  0  0  0  0  0  0  0  0  0  0  0
   36.9200   29.9900   49.0100 N   0  0  0  0  0  0  0  0  0  0  0  0
   37.6100   30.2830   50.1240 C   0  0  0  0  0  0  0  0  0  0  0  0
   38.3550   31.3870   50.1520 N   0  0  0  0  0  0  0  0  0  0  0  0
   37.3680   29.4210   51.3010 C   0  0  0  0  0  0  0  0  0  0  0  0
   37.6520   30.0670   52.4860 F   0  0  0  0  0  0  0  0  0  0  0  0
   35.9710   29.0990   51.4200 F   0  0  0  0  0  0  0  0  0  0  0  0
   37.9580   28.2280   51.2710 F   0  0  0  0  0  0  0  0  0  0  0  0
   38.3580   31.3320   45.2220 S   0  0  0  0  0  0  0  0  0  0  0  0
   38.2760   32.7910   44.7670 O   0  0  0  0  0  0  0  0  0  0  0  0
   38.6630   30.7040   43.9070 O   0  0  0  0  0  0  0  0  0  0  0  0
   39.8750   30.6900   45.6370 C   0  0  0  0  0  0  0  0  0  0  0  0
   41.0450   31.6960   45.3310 C   0  0  0  0  0  0  0  0  0  0  0  0
   34.5261   29.7412   47.7797 H   0  0  0  0  0  0  0  0  0  0  0  0
   33.1650   29.2465   45.7970 H   0  0  0  0  0  0  0  0  0  0  0  0
   34.0915   29.7014   43.5191 H   0  0  0  0  0  0  0  0  0  0  0  0
   36.3534   30.6218   43.3704 H   0  0  0  0  0  0  0  0  0  0  0  0
   39.0298   33.1133   49.1445 H   0  0  0  0  0  0  0  0  0  0  0  0
   37.7250   32.5918   47.0792 H   0  0  0  0  0  0  0  0  0  0  0  0
   39.8796   30.4564   46.7119 H   0  0  0  0  0  0  0  0  0  0  0  0
   40.0379   29.7857   45.0323 H   0  0  0  0  0  0  0  0  0  0  0  0
   41.4707   32.0620   46.2770 H   0  0  0  0  0  0  0  0  0  0  0  0
   41.8268   31.1837   44.7510 H   0  0  0  0  0  0  0  0  0  0  0  0
   40.6557   32.5457   44.7510 H   0  0  0  0  0  0  0  0  0  0  0  0
  1  2  2  0
  2  3  1  0
  2  9  1  0
  4  3  2  0
  5  4  1  0
  6  5  2  0
  6  1  1  0
  7 12  2  0
  8  7  1  0
  9  8  2  0
  9 10  1  0
 10 11  2  0
 11 12  1  0
 11 13  1  0
 13 15  1  0
 13 14  1  0
 16 13  1  0
 17  1  1  0
 17 20  1  0
 18 17  2  0
 19 17  2  0
 21 20  1  0
  3 22  1  0
  4 23  1  0
  5 24  1  0
  6 25  1  0
  7 26  1  0
  8 27  1  0
 20 28  1  0
 20 29  1  0
 21 30  1  0
 21 31  1  0
 21 32  1  0
M  ISO  8  22  14  23  14  24  14  25  14  26  14  27  14  28   8  29   8
M  ISO  3  30   8  31   8  32   8
M  END
>  <minimizedAffinity>  (1) 
-6.01020479

>  <minimizedRMSD>  (1) 
2.01552057

$$$$
