
     RDKit          3D

 36 37  0  0  0  0  0  0  0  0999 V2000
   36.1310   30.3660   45.5020 C   0  0  0  0  0  0  0  0  0  0  0  0
   35.7200   30.1540   46.7800 C   0  0  0  0  0  0  0  0  0  0  0  0
   34.4790   29.5740   47.0170 C   0  0  0  0  0  0  0  0  0  0  0  0
   33.6280   29.1980   45.9950 C   0  0  0  0  0  0  0  0  0  0  0  0
   34.0080   29.4010   44.6960 C   0  0  0  0  0  0  0  0  0  0  0  0
   35.2400   29.9740   44.4960 C   0  0  0  0  0  0  0  0  0  0  0  0
   38.0520   32.0920   48.8560 C   0  0  0  0  0  0  0  0  0  0  0  0
   37.2580   31.6790   47.7960 C   0  0  0  0  0  0  0  0  0  0  0  0
   36.5120   30.5460   47.8950 C   0  0  0  0  0  0  0  0  0  0  0  0
   36.5820   29.8570   49.0680 N   0  0  0  0  0  0  0  0  0  0  0  0
   37.3430   30.2520   50.0940 C   0  0  0  0  0  0  0  0  0  0  0  0
   38.0740   31.3650   49.9800 N   0  0  0  0  0  0  0  0  0  0  0  0
   37.2690   29.4390   51.3370 C   0  0  0  0  0  0  0  0  0  0  0  0
   37.5640   30.1840   52.4620 F   0  0  0  0  0  0  0  0  0  0  0  0
   35.8870   29.0700   51.5610 F   0  0  0  0  0  0  0  0  0  0  0  0
   37.8970   28.2850   51.3420 F   0  0  0  0  0  0  0  0  0  0  0  0
   37.6510   31.0370   45.0820 S   0  0  0  0  0  0  0  0  0  0  0  0
   37.5050   32.3970   44.5030 O   0  0  0  0  0  0  0  0  0  0  0  0
   37.8620   30.3160   43.7670 O   0  0  0  0  0  0  0  0  0  0  0  0
   39.2030   30.5030   45.5080 C   0  0  0  0  0  0  0  0  0  0  0  0
   40.3490   31.2110   44.9620 C   0  0  0  0  0  0  0  0  0  0  0  0
   40.9330   32.3900   45.1510 C   0  0  0  0  0  0  0  0  0  0  0  0
   40.3060   33.2710   46.1720 C   0  0  0  0  0  0  0  0  0  0  0  0
   34.1624   29.4081   48.0573 H   0  0  0  0  0  0  0  0  0  0  0  0
   32.6544   28.7399   46.2235 H   0  0  0  0  0  0  0  0  0  0  0  0
   33.3588   29.1192   43.8539 H   0  0  0  0  0  0  0  0  0  0  0  0
   35.5539   30.1393   43.4548 H   0  0  0  0  0  0  0  0  0  0  0  0
   38.6570   33.0070   48.7738 H   0  0  0  0  0  0  0  0  0  0  0  0
   37.2316   32.2716   46.8696 H   0  0  0  0  0  0  0  0  0  0  0  0
   39.2774   30.5591   46.6040 H   0  0  0  0  0  0  0  0  0  0  0  0
   39.2729   29.4957   45.0716 H   0  0  0  0  0  0  0  0  0  0  0  0
   40.8668   30.6178   44.1939 H   0  0  0  0  0  0  0  0  0  0  0  0
   41.8262   32.6956   44.5863 H   0  0  0  0  0  0  0  0  0  0  0  0
   40.5643   32.9081   47.1778 H   0  0  0  0  0  0  0  0  0  0  0  0
   40.6767   34.2990   46.0467 H   0  0  0  0  0  0  0  0  0  0  0  0
   39.2132   33.2575   46.0467 H   0  0  0  0  0  0  0  0  0  0  0  0
  1  2  2  0
  2  3  1  0
  2  9  1  0
  4  3  2  0
  5  4  1  0
  6  5  2  0
  6  1  1  0
  7 12  2  0
  8  9  2  0
  8  7  1  0
  9 10  1  0
 10 11  2  0
 11 13  1  0
 12 11  1  0
 13 16  1  0
 13 15  1  0
 13 14  1  0
 17  1  1  0
 17 20  1  0
 18 17  2  0
 19 17  2  0
 21 22  2  0
 21 20  1  0
 22 23  1  0
  3 24  1  0
  4 25  1  0
  5 26  1  0
  6 27  1  0
  7 28  1  0
  8 29  1  0
 20 30  1  0
 20 31  1  0
 21 32  1  0
 22 33  1  0
 23 34  1  0
 23 35  1  0
 23 36  1  0
M  ISO  8  24  14  25  14  26  14  27  14  28  14  29  14  30   8  31   8
M  ISO  3  34   8  35   8  36   8
M  END
>  <minimizedAffinity>  (1) 
-6.08676577

>  <minimizedRMSD>  (1) 
2.13815475

$$$$
