
     RDKit          3D

 31 32  0  0  0  0  0  0  0  0999 V2000
   38.6770   32.3130   46.3580 C   0  0  0  0  0  0  0  0  0  0  0  0
   40.0080   32.6590   46.0980 C   0  0  0  0  0  0  0  0  0  0  0  0
   40.4200   32.9560   44.8050 C   0  0  0  0  0  0  0  0  0  0  0  0
   39.4510   32.8880   43.8360 N   0  0  0  0  0  0  0  0  0  0  0  0
   38.1690   32.5510   44.1210 C   0  0  0  0  0  0  0  0  0  0  0  0
   37.7810   32.2700   45.3390 N   0  0  0  0  0  0  0  0  0  0  0  0
   38.8580   34.0200   41.5410 Cl  0  0  0  0  0  0  0  0  0  0  0  0
   37.3810   33.1200   41.8080 C   0  0  0  0  0  0  0  0  0  0  0  0
   37.1990   32.5010   43.0290 C   0  0  0  0  0  0  0  0  0  0  0  0
   36.0070   31.8110   43.1620 C   0  0  0  0  0  0  0  0  0  0  0  0
   35.0350   31.7090   42.1880 C   0  0  0  0  0  0  0  0  0  0  0  0
   35.2770   32.3470   40.9970 C   0  0  0  0  0  0  0  0  0  0  0  0
   36.4590   33.0640   40.7910 C   0  0  0  0  0  0  0  0  0  0  0  0
   36.7300   33.8660   39.2510 Cl  0  0  0  0  0  0  0  0  0  0  0  0
   38.4600   32.0510   47.7060 O   0  0  0  0  0  0  0  0  0  0  0  0
   37.3220   31.3370   48.0100 C   0  0  0  0  0  0  0  0  0  0  0  0
   37.8480   30.4450   48.8710 C   0  0  0  0  0  0  0  0  0  0  0  0
   38.1310   30.9090   50.2650 C   0  0  0  0  0  0  0  0  0  0  0  0
   37.2480   29.9520   51.4990 S   0  0  0  0  0  0  0  0  0  0  0  0
   40.7335   32.6960   46.9240 H   0  0  0  0  0  0  0  0  0  0  0  0
   41.4598   33.2291   44.5722 H   0  0  0  0  0  0  0  0  0  0  0  0
   35.8195   31.3037   44.1199 H   0  0  0  0  0  0  0  0  0  0  0  0
   34.1079   31.1419   42.3583 H   0  0  0  0  0  0  0  0  0  0  0  0
   34.5291   32.2932   40.1922 H   0  0  0  0  0  0  0  0  0  0  0  0
   36.5566   31.9668   48.4870 H   0  0  0  0  0  0  0  0  0  0  0  0
   36.7948   30.9033   47.1475 H   0  0  0  0  0  0  0  0  0  0  0  0
   37.1448   29.6021   48.9415 H   0  0  0  0  0  0  0  0  0  0  0  0
   38.8359   30.2028   48.4522 H   0  0  0  0  0  0  0  0  0  0  0  0
   39.2108   30.8188   50.4546 H   0  0  0  0  0  0  0  0  0  0  0  0
   37.7925   31.9525   50.3456 H   0  0  0  0  0  0  0  0  0  0  0  0
   37.6257   30.3614   52.7507 H   0  0  0  0  0  0  0  0  0  0  0  0
  1 15  1  0
  2  1  2  0
  3  2  1  0
  4  5  1  0
  4  3  2  0
  5  6  2  0
  6  1  1  0
  7  8  1  0
  8  9  2  0
  9 10  1  0
  9  5  1  0
 11 10  2  0
 12 11  1  0
 13 12  2  0
 13  8  1  0
 14 13  1  0
 15 16  1  0
 16 17  1  0
 17 18  1  0
 18 19  1  0
  2 20  1  0
  3 21  1  0
 10 22  1  0
 11 23  1  0
 12 24  1  0
 16 25  1  0
 16 26  1  0
 17 27  1  0
 17 28  1  0
 18 29  1  0
 18 30  1  0
 19 31  1  0
M  ISO  8  20  14  21  14  22  14  23  14  24  14  25   8  26   8  27   8
M  ISO  4  28   8  29   8  30   8  31  11
M  END
>  <minimizedAffinity>  (1) 
-4.41535711

>  <minimizedRMSD>  (1) 
0.578054786

$$$$
