
     RDKit          3D

 30 31  0  0  0  0  0  0  0  0999 V2000
   38.3150   31.4890   44.8770 C   0  0  0  0  0  0  0  0  0  0  0  0
   37.5110   31.0900   45.8990 C   0  0  0  0  0  0  0  0  0  0  0  0
   36.3410   30.3900   45.6200 C   0  0  0  0  0  0  0  0  0  0  0  0
   35.9440   30.0770   44.3430 C   0  0  0  0  0  0  0  0  0  0  0  0
   36.7380   30.4740   43.2780 C   0  0  0  0  0  0  0  0  0  0  0  0
   37.8800   31.1580   43.5880 C   0  0  0  0  0  0  0  0  0  0  0  0
   38.7190   32.9350   48.8400 C   0  0  0  0  0  0  0  0  0  0  0  0
   38.3920   32.6010   47.5340 C   0  0  0  0  0  0  0  0  0  0  0  0
   37.8200   31.4010   47.2540 C   0  0  0  0  0  0  0  0  0  0  0  0
   37.5870   30.5650   48.3020 N   0  0  0  0  0  0  0  0  0  0  0  0
   37.8970   30.8820   49.5640 C   0  0  0  0  0  0  0  0  0  0  0  0
   38.4640   32.0640   49.8220 N   0  0  0  0  0  0  0  0  0  0  0  0
   37.5180   29.9010   50.6160 C   0  0  0  0  0  0  0  0  0  0  0  0
   37.8140   30.3630   51.8840 F   0  0  0  0  0  0  0  0  0  0  0  0
   36.0750   29.8000   50.6510 F   0  0  0  0  0  0  0  0  0  0  0  0
   37.9110   28.6590   50.4530 F   0  0  0  0  0  0  0  0  0  0  0  0
   39.8070   32.2960   45.0870 S   0  0  0  0  0  0  0  0  0  0  0  0
   39.7060   33.7310   44.7020 O   0  0  0  0  0  0  0  0  0  0  0  0
   40.5020   31.8490   43.8230 O   0  0  0  0  0  0  0  0  0  0  0  0
   41.1870   31.7940   45.9220 C   0  0  0  0  0  0  0  0  0  0  0  0
   41.6760   30.5270   45.8600 O   0  0  0  0  0  0  0  0  0  0  0  0
   35.7055   30.0731   46.4601 H   0  0  0  0  0  0  0  0  0  0  0  0
   35.0114   29.5205   44.1681 H   0  0  0  0  0  0  0  0  0  0  0  0
   36.4629   30.2499   42.2368 H   0  0  0  0  0  0  0  0  0  0  0  0
   38.5150   31.4775   42.7485 H   0  0  0  0  0  0  0  0  0  0  0  0
   39.1833   33.9064   49.0655 H   0  0  0  0  0  0  0  0  0  0  0  0
   38.5971   33.3121   46.7202 H   0  0  0  0  0  0  0  0  0  0  0  0
   42.0018   32.4491   45.5799 H   0  0  0  0  0  0  0  0  0  0  0  0
   40.8397   31.8421   46.9646 H   0  0  0  0  0  0  0  0  0  0  0  0
   41.8100   30.1797   46.7774 H   0  0  0  0  0  0  0  0  0  0  0  0
  1 17  1  0
  1  2  2  0
  2  9  1  0
  3  2  1  0
  4  3  2  0
  5  6  2  0
  5  4  1  0
  6  1  1  0
  7 12  2  0
  8  7  1  0
  9  8  2  0
  9 10  1  0
 10 11  2  0
 11 12  1  0
 11 13  1  0
 13 15  1  0
 13 14  1  0
 16 13  1  0
 17 20  1  0
 18 17  2  0
 19 17  2  0
 21 20  1  0
  3 22  1  0
  4 23  1  0
  5 24  1  0
  6 25  1  0
  7 26  1  0
  8 27  1  0
 20 28  1  0
 20 29  1  0
 21 30  1  0
M  ISO  8  22  14  23  14  24  14  25  14  26  14  27  14  28   8  29   8
M  ISO  1  30   3
M  END
>  <minimizedAffinity>  (1) 
-5.78286123

>  <minimizedRMSD>  (1) 
0.315657973

$$$$
