
     RDKit          3D

 31 32  0  0  0  0  0  0  0  0999 V2000
   38.1250   31.4310   44.9130 C   0  0  0  0  0  0  0  0  0  0  0  0
   37.3540   31.0160   45.9570 C   0  0  0  0  0  0  0  0  0  0  0  0
   36.1850   30.3070   45.7080 C   0  0  0  0  0  0  0  0  0  0  0  0
   35.7540   29.9940   44.4420 C   0  0  0  0  0  0  0  0  0  0  0  0
   36.5100   30.4030   43.3580 C   0  0  0  0  0  0  0  0  0  0  0  0
   37.6530   31.0980   43.6360 C   0  0  0  0  0  0  0  0  0  0  0  0
   38.6540   32.8470   48.8670 C   0  0  0  0  0  0  0  0  0  0  0  0
   38.2890   32.5190   47.5690 C   0  0  0  0  0  0  0  0  0  0  0  0
   37.6990   31.3240   47.3040 C   0  0  0  0  0  0  0  0  0  0  0  0
   37.4840   30.4880   48.3570 N   0  0  0  0  0  0  0  0  0  0  0  0
   37.8300   30.8010   49.6100 C   0  0  0  0  0  0  0  0  0  0  0  0
   38.4140   31.9780   49.8570 N   0  0  0  0  0  0  0  0  0  0  0  0
   37.4700   29.8220   50.6710 C   0  0  0  0  0  0  0  0  0  0  0  0
   37.7390   30.3130   51.9380 F   0  0  0  0  0  0  0  0  0  0  0  0
   36.0290   29.6840   50.6970 F   0  0  0  0  0  0  0  0  0  0  0  0
   37.8960   28.5900   50.5260 F   0  0  0  0  0  0  0  0  0  0  0  0
   39.6140   32.2510   45.0840 S   0  0  0  0  0  0  0  0  0  0  0  0
   39.5150   33.6560   44.6000 O   0  0  0  0  0  0  0  0  0  0  0  0
   40.3240   31.7180   43.8600 O   0  0  0  0  0  0  0  0  0  0  0  0
   40.9830   31.8080   45.9650 C   0  0  0  0  0  0  0  0  0  0  0  0
   41.6520   30.5710   45.7760 N   0  0  0  0  0  0  0  0  0  0  0  0
   35.5766   29.9813   46.5646 H   0  0  0  0  0  0  0  0  0  0  0  0
   34.8230   29.4275   44.2925 H   0  0  0  0  0  0  0  0  0  0  0  0
   36.2063   30.1800   42.3246 H   0  0  0  0  0  0  0  0  0  0  0  0
   38.2586   31.4265   42.7785 H   0  0  0  0  0  0  0  0  0  0  0  0
   39.1362   33.8123   49.0807 H   0  0  0  0  0  0  0  0  0  0  0  0
   38.4781   33.2296   46.7509 H   0  0  0  0  0  0  0  0  0  0  0  0
   41.7324   32.5908   45.7762 H   0  0  0  0  0  0  0  0  0  0  0  0
   40.5661   31.6829   46.9752 H   0  0  0  0  0  0  0  0  0  0  0  0
   41.8754   30.1579   46.6927 H   0  0  0  0  0  0  0  0  0  0  0  0
   41.0434   29.9285   45.2490 H   0  0  0  0  0  0  0  0  0  0  0  0
  1 17  1  0
  1  2  2  0
  2  9  1  0
  3  2  1  0
  4  3  2  0
  5  6  2  0
  5  4  1  0
  6  1  1  0
  7 12  2  0
  8  7  1  0
  9  8  2  0
  9 10  1  0
 10 11  2  0
 11 12  1  0
 11 13  1  0
 13 15  1  0
 13 14  1  0
 16 13  1  0
 17 20  1  0
 18 17  2  0
 19 17  2  0
 21 20  1  0
  3 22  1  0
  4 23  1  0
  5 24  1  0
  6 25  1  0
  7 26  1  0
  8 27  1  0
 20 28  1  0
 20 29  1  0
 21 30  1  0
 21 31  1  0
M  ISO  8  22  14  23  14  24  14  25  14  26  14  27  14  28   8  29   8
M  ISO  2  30   5  31   5
M  END
>  <minimizedAffinity>  (1) 
-5.63679409

>  <minimizedRMSD>  (1) 
0.261518896

$$$$
