
     RDKit          3D

 36 38  0  0  0  0  0  0  0  0999 V2000
   35.3270   29.8860   45.4650 C   0  0  0  0  0  0  0  0  0  0  0  0
   35.1190   29.7450   46.8000 C   0  0  0  0  0  0  0  0  0  0  0  0
   33.9520   29.1390   47.2550 C   0  0  0  0  0  0  0  0  0  0  0  0
   32.9770   28.6670   46.3980 C   0  0  0  0  0  0  0  0  0  0  0  0
   33.1530   28.7950   45.0520 C   0  0  0  0  0  0  0  0  0  0  0  0
   34.3150   29.3980   44.6280 C   0  0  0  0  0  0  0  0  0  0  0  0
   37.6960   31.8430   48.3640 C   0  0  0  0  0  0  0  0  0  0  0  0
   36.7650   31.3470   47.4660 C   0  0  0  0  0  0  0  0  0  0  0  0
   36.0520   30.2320   47.7590 C   0  0  0  0  0  0  0  0  0  0  0  0
   36.2920   29.6420   48.9650 N   0  0  0  0  0  0  0  0  0  0  0  0
   37.1840   30.1160   49.8380 C   0  0  0  0  0  0  0  0  0  0  0  0
   37.8820   31.2130   49.5300 N   0  0  0  0  0  0  0  0  0  0  0  0
   37.2910   29.4160   51.1450 C   0  0  0  0  0  0  0  0  0  0  0  0
   37.7240   30.2540   52.1520 F   0  0  0  0  0  0  0  0  0  0  0  0
   35.9580   29.0620   51.5870 F   0  0  0  0  0  0  0  0  0  0  0  0
   37.9290   28.2670   51.1600 F   0  0  0  0  0  0  0  0  0  0  0  0
   36.7320   30.5790   44.7820 S   0  0  0  0  0  0  0  0  0  0  0  0
   36.4180   31.8020   44.0010 O   0  0  0  0  0  0  0  0  0  0  0  0
   36.8950   29.6530   43.5940 O   0  0  0  0  0  0  0  0  0  0  0  0
   38.3620   30.2460   45.1280 C   0  0  0  0  0  0  0  0  0  0  0  0
   39.2930   31.3540   45.1200 C   0  0  0  0  0  0  0  0  0  0  0  0
   40.6160   31.0960   45.4930 C   0  0  0  0  0  0  0  0  0  0  0  0
   41.3050   32.2710   45.4120 N   0  0  0  0  0  0  0  0  0  0  0  0
   40.4160   33.1810   45.0090 C   0  0  0  0  0  0  0  0  0  0  0  0
   39.2000   32.6590   44.8250 N   0  0  0  0  0  0  0  0  0  0  0  0
   33.8000   29.0317   48.3392 H   0  0  0  0  0  0  0  0  0  0  0  0
   32.0682   28.1929   46.7972 H   0  0  0  0  0  0  0  0  0  0  0  0
   32.3998   28.4325   44.3370 H   0  0  0  0  0  0  0  0  0  0  0  0
   34.4613   29.5057   43.5431 H   0  0  0  0  0  0  0  0  0  0  0  0
   38.2764   32.7453   48.1212 H   0  0  0  0  0  0  0  0  0  0  0  0
   36.6031   31.8621   46.5076 H   0  0  0  0  0  0  0  0  0  0  0  0
   38.3990   29.7935   46.1299 H   0  0  0  0  0  0  0  0  0  0  0  0
   38.6940   29.5989   44.3027 H   0  0  0  0  0  0  0  0  0  0  0  0
   41.0269   30.1219   45.7968 H   0  0  0  0  0  0  0  0  0  0  0  0
   42.3024   32.4236   45.6186 H   0  0  0  0  0  0  0  0  0  0  0  0
   40.6573   34.2418   44.8465 H   0  0  0  0  0  0  0  0  0  0  0  0
  1  2  1  0
  2  3  2  0
  2  9  1  0
  4  3  1  0
  5  4  2  0
  6  5  1  0
  6  1  2  0
  7 12  2  0
  8  9  2  0
  8  7  1  0
  9 10  1  0
 10 11  2  0
 11 13  1  0
 12 11  1  0
 13 16  1  0
 13 15  1  0
 13 14  1  0
 17 20  1  0
 17  1  1  0
 18 17  2  0
 19 17  2  0
 21 20  1  0
 21 22  2  0
 23 22  1  0
 24 23  1  0
 25 24  2  0
 25 21  1  0
  3 26  1  0
  4 27  1  0
  5 28  1  0
  6 29  1  0
  7 30  1  0
  8 31  1  0
 20 32  1  0
 20 33  1  0
 22 34  1  0
 23 35  1  0
 24 36  1  0
M  ISO  8  26  14  27  14  28  14  29  14  30  14  31  14  32   8  33   8
M  ISO  3  34  14  35   9  36  14
M  END
>  <minimizedAffinity>  (1) 
-5.61743784

>  <minimizedRMSD>  (1) 
2.76185441

$$$$
