
     RDKit          3D

 42 45  0  0  0  0  0  0  0  0999 V2000
   36.1510   29.1620   43.2540 C   0  0  0  0  0  0  0  0  0  0  0  0
   34.9580   28.7280   43.7500 C   0  0  0  0  0  0  0  0  0  0  0  0
   34.1920   27.8370   43.0080 C   0  0  0  0  0  0  0  0  0  0  0  0
   34.5790   27.3650   41.7710 C   0  0  0  0  0  0  0  0  0  0  0  0
   35.7730   27.7890   41.2450 C   0  0  0  0  0  0  0  0  0  0  0  0
   36.5130   28.6680   42.0010 C   0  0  0  0  0  0  0  0  0  0  0  0
   33.1580   30.7840   46.2080 C   0  0  0  0  0  0  0  0  0  0  0  0
   33.6580   30.2940   45.0070 C   0  0  0  0  0  0  0  0  0  0  0  0
   34.4540   29.1930   44.9960 C   0  0  0  0  0  0  0  0  0  0  0  0
   34.7240   28.6050   46.1970 N   0  0  0  0  0  0  0  0  0  0  0  0
   34.2400   29.0720   47.3540 C   0  0  0  0  0  0  0  0  0  0  0  0
   33.4640   30.1610   47.3480 N   0  0  0  0  0  0  0  0  0  0  0  0
   34.5550   28.2890   48.5780 C   0  0  0  0  0  0  0  0  0  0  0  0
   35.8530   28.5080   49.0090 F   0  0  0  0  0  0  0  0  0  0  0  0
   33.7650   28.8120   49.6720 F   0  0  0  0  0  0  0  0  0  0  0  0
   34.2570   27.0100   48.5660 F   0  0  0  0  0  0  0  0  0  0  0  0
   37.2050   30.2350   44.1030 S   0  0  0  0  0  0  0  0  0  0  0  0
   36.6400   31.6020   44.1370 O   0  0  0  0  0  0  0  0  0  0  0  0
   38.1810   30.4910   42.9720 O   0  0  0  0  0  0  0  0  0  0  0  0
   38.5430   29.8560   45.0530 C   0  0  0  0  0  0  0  0  0  0  0  0
   38.8830   31.0280   45.8570 N   0  0  0  0  0  0  0  0  0  0  0  0
   39.8300   31.9280   45.4920 C   0  0  0  0  0  0  0  0  0  0  0  0
   39.9240   32.8980   46.4280 N   0  0  0  0  0  0  0  0  0  0  0  0
   39.0460   32.6380   47.3970 C   0  0  0  0  0  0  0  0  0  0  0  0
   38.6500   33.2090   48.5920 C   0  0  0  0  0  0  0  0  0  0  0  0
   37.6880   32.6290   49.3300 N   0  0  0  0  0  0  0  0  0  0  0  0
   37.0560   31.4840   48.9730 C   0  0  0  0  0  0  0  0  0  0  0  0
   37.4410   30.9280   47.8080 N   0  0  0  0  0  0  0  0  0  0  0  0
   38.4030   31.4770   47.0390 C   0  0  0  0  0  0  0  0  0  0  0  0
   39.2950   34.4170   48.9990 N   0  0  0  0  0  0  0  0  0  0  0  0
   33.2344   27.4928   43.4257 H   0  0  0  0  0  0  0  0  0  0  0  0
   33.9415   26.6610   41.2161 H   0  0  0  0  0  0  0  0  0  0  0  0
   36.1231   27.4413   40.2619 H   0  0  0  0  0  0  0  0  0  0  0  0
   37.4709   29.0101   41.5821 H   0  0  0  0  0  0  0  0  0  0  0  0
   32.5160   31.6771   46.2187 H   0  0  0  0  0  0  0  0  0  0  0  0
   33.4083   30.7994   44.0624 H   0  0  0  0  0  0  0  0  0  0  0  0
   38.3026   29.0095   45.7130 H   0  0  0  0  0  0  0  0  0  0  0  0
   39.3935   29.5754   44.4143 H   0  0  0  0  0  0  0  0  0  0  0  0
   40.4311   31.8760   44.5722 H   0  0  0  0  0  0  0  0  0  0  0  0
   36.2722   31.0339   49.6000 H   0  0  0  0  0  0  0  0  0  0  0  0
   39.0264   34.8715   49.8834 H   0  0  0  0  0  0  0  0  0  0  0  0
   40.0286   34.8335   48.4080 H   0  0  0  0  0  0  0  0  0  0  0  0
  1  2  1  0
  1 17  1  0
  2  9  1  0
  3  2  2  0
  4  3  1  0
  5  4  2  0
  5  6  1  0
  6  1  2  0
  7 12  2  0
  8  7  1  0
  9  8  2  0
  9 10  1  0
 10 11  2  0
 11 13  1  0
 12 11  1  0
 13 14  1  0
 13 15  1  0
 16 13  1  0
 17 18  2  0
 17 20  1  0
 19 17  2  0
 20 21  1  0
 21 29  1  0
 22 21  1  0
 22 23  2  0
 23 24  1  0
 24 25  2  0
 25 30  1  0
 25 26  1  0
 27 26  2  0
 28 27  1  0
 29 24  1  0
 29 28  2  0
  3 31  1  0
  4 32  1  0
  5 33  1  0
  6 34  1  0
  7 35  1  0
  8 36  1  0
 20 37  1  0
 20 38  1  0
 22 39  1  0
 27 40  1  0
 30 41  1  0
 30 42  1  0
M  ISO  8  31  14  32  14  33  14  34  14  35  14  36  14  37   8  38   8
M  ISO  2  39  14  40  14
M  END
>  <minimizedAffinity>  (1) 
-5.42542744

>  <minimizedRMSD>  (1) 
4.55351877

$$$$
