
     RDKit          3D

 43 45  0  0  0  0  0  0  0  0999 V2000
   35.0900   29.7720   45.5930 C   0  0  0  0  0  0  0  0  0  0  0  0
   34.9290   29.6850   46.9420 C   0  0  0  0  0  0  0  0  0  0  0  0
   33.7550   29.1520   47.4600 C   0  0  0  0  0  0  0  0  0  0  0  0
   32.7260   28.7000   46.6610 C   0  0  0  0  0  0  0  0  0  0  0  0
   32.8590   28.7770   45.2860 C   0  0  0  0  0  0  0  0  0  0  0  0
   34.0270   29.3060   44.8140 C   0  0  0  0  0  0  0  0  0  0  0  0
   37.6410   31.7390   48.3390 C   0  0  0  0  0  0  0  0  0  0  0  0
   36.6560   31.2500   47.4910 C   0  0  0  0  0  0  0  0  0  0  0  0
   35.9220   30.1610   47.8440 C   0  0  0  0  0  0  0  0  0  0  0  0
   36.1950   29.5890   49.0500 N   0  0  0  0  0  0  0  0  0  0  0  0
   37.1420   30.0590   49.8730 C   0  0  0  0  0  0  0  0  0  0  0  0
   37.8580   31.1280   49.5100 N   0  0  0  0  0  0  0  0  0  0  0  0
   37.2870   29.3770   51.1870 C   0  0  0  0  0  0  0  0  0  0  0  0
   37.7250   30.2430   52.1740 F   0  0  0  0  0  0  0  0  0  0  0  0
   35.9690   29.0160   51.6640 F   0  0  0  0  0  0  0  0  0  0  0  0
   37.9440   28.2400   51.2080 F   0  0  0  0  0  0  0  0  0  0  0  0
   36.5000   30.3720   44.8350 S   0  0  0  0  0  0  0  0  0  0  0  0
   36.2390   31.5230   43.9760 O   0  0  0  0  0  0  0  0  0  0  0  0
   36.6240   29.3360   43.7260 O   0  0  0  0  0  0  0  0  0  0  0  0
   38.1330   30.0090   45.1840 C   0  0  0  0  0  0  0  0  0  0  0  0
   39.0390   31.0260   44.8180 N   0  0  0  0  0  0  0  0  0  0  0  0
   40.2210   30.9780   45.6420 C   0  0  0  0  0  0  0  0  0  0  0  0
   40.9750   32.3010   45.6050 C   0  0  0  0  0  0  0  0  0  0  0  0
   40.8020   32.9740   44.3400 N   0  0  0  0  0  0  0  0  0  0  0  0
   39.4210   33.2910   44.0600 C   0  0  0  0  0  0  0  0  0  0  0  0
   38.5180   32.3750   44.8470 C   0  0  0  0  0  0  0  0  0  0  0  0
   33.6418   29.0880   48.5523 H   0  0  0  0  0  0  0  0  0  0  0  0
   31.8123   28.2841   47.1105 H   0  0  0  0  0  0  0  0  0  0  0  0
   32.0654   28.4302   44.6078 H   0  0  0  0  0  0  0  0  0  0  0  0
   34.1412   29.3711   43.7219 H   0  0  0  0  0  0  0  0  0  0  0  0
   38.2361   32.6184   48.0517 H   0  0  0  0  0  0  0  0  0  0  0  0
   36.4683   31.7467   46.5276 H   0  0  0  0  0  0  0  0  0  0  0  0
   38.2251   29.8373   46.2666 H   0  0  0  0  0  0  0  0  0  0  0  0
   38.3950   29.1212   44.5897 H   0  0  0  0  0  0  0  0  0  0  0  0
   39.9261   30.7625   46.6796 H   0  0  0  0  0  0  0  0  0  0  0  0
   40.8831   30.1898   45.2541 H   0  0  0  0  0  0  0  0  0  0  0  0
   40.5980   32.9497   46.4094 H   0  0  0  0  0  0  0  0  0  0  0  0
   42.0463   32.0912   45.7403 H   0  0  0  0  0  0  0  0  0  0  0  0
   41.3441   33.8497   44.3561 H   0  0  0  0  0  0  0  0  0  0  0  0
   39.2207   34.3345   44.3447 H   0  0  0  0  0  0  0  0  0  0  0  0
   39.2278   33.1568   42.9854 H   0  0  0  0  0  0  0  0  0  0  0  0
   37.5111   32.3867   44.4042 H   0  0  0  0  0  0  0  0  0  0  0  0
   38.4698   32.7222   45.8896 H   0  0  0  0  0  0  0  0  0  0  0  0
  1  2  1  0
  2  3  2  0
  2  9  1  0
  4  3  1  0
  5  4  2  0
  6  5  1  0
  6  1  2  0
  7 12  2  0
  8  9  2  0
  8  7  1  0
  9 10  1  0
 10 11  2  0
 11 13  1  0
 12 11  1  0
 13 16  1  0
 13 15  1  0
 13 14  1  0
 17 20  1  0
 17  1  1  0
 18 17  2  0
 19 17  2  0
 21 26  1  0
 21 20  1  0
 21 22  1  0
 23 22  1  0
 24 23  1  0
 25 24  1  0
 25 26  1  0
  3 27  1  0
  4 28  1  0
  5 29  1  0
  6 30  1  0
  7 31  1  0
  8 32  1  0
 20 33  1  0
 20 34  1  0
 22 35  1  0
 22 36  1  0
 23 37  1  0
 23 38  1  0
 24 39  1  0
 25 40  1  0
 25 41  1  0
 26 42  1  0
 26 43  1  0
M  ISO  8  27  14  28  14  29  14  30  14  31  14  32  14  33   8  34   8
M  ISO  8  35  13  36  13  37  13  38  13  39   5  40  13  41  13  42  13
M  ISO  1  43  13
M  END
>  <minimizedAffinity>  (1) 
-5.41290712

>  <minimizedRMSD>  (1) 
3.16092253

$$$$
