
     RDKit          3D

 37 39  0  0  0  0  0  0  0  0999 V2000
   36.3950   31.1240   49.2920 C   0  0  0  0  0  0  0  0  0  0  0  0
   37.1250   31.4880   48.1530 C   0  0  0  0  0  0  0  0  0  0  0  0
   36.7970   30.8800   46.9410 C   0  0  0  0  0  0  0  0  0  0  0  0
   35.7860   29.9650   46.9150 N   0  0  0  0  0  0  0  0  0  0  0  0
   35.1040   29.6390   48.0250 C   0  0  0  0  0  0  0  0  0  0  0  0
   35.4090   30.2130   49.1900 N   0  0  0  0  0  0  0  0  0  0  0  0
   34.0540   28.6700   47.9280 N   0  0  0  0  0  0  0  0  0  0  0  0
   32.8900   28.8220   47.0790 C   0  0  0  0  0  0  0  0  0  0  0  0
   32.2210   27.4950   47.0940 C   0  0  0  0  0  0  0  0  0  0  0  0
   33.1950   26.5410   47.7540 C   0  0  0  0  0  0  0  0  0  0  0  0
   34.0030   27.4070   48.6570 C   0  0  0  0  0  0  0  0  0  0  0  0
   38.8650   32.7960   47.1820 C   0  0  0  0  0  0  0  0  0  0  0  0
   38.1730   32.4850   48.3330 C   0  0  0  0  0  0  0  0  0  0  0  0
   38.4860   33.1060   49.5220 C   0  0  0  0  0  0  0  0  0  0  0  0
   39.4800   34.0490   49.6240 C   0  0  0  0  0  0  0  0  0  0  0  0
   40.1730   34.3640   48.4760 C   0  0  0  0  0  0  0  0  0  0  0  0
   39.8820   33.7540   47.2610 C   0  0  0  0  0  0  0  0  0  0  0  0
   37.9220   32.7770   44.9410 N   0  0  0  0  0  0  0  0  0  0  0  0
   38.7240   32.2690   45.8320 C   0  0  0  0  0  0  0  0  0  0  0  0
   39.3620   31.1860   45.2090 N   0  0  0  0  0  0  0  0  0  0  0  0
   37.3200   33.6110   45.1610 H   0  0  0  0  0  0  0  0  0  0  0  0
   36.6265   31.5806   50.2656 H   0  0  0  0  0  0  0  0  0  0  0  0
   37.3447   31.1344   46.0216 H   0  0  0  0  0  0  0  0  0  0  0  0
   33.1913   29.0906   46.0557 H   0  0  0  0  0  0  0  0  0  0  0  0
   32.2240   29.6223   47.4338 H   0  0  0  0  0  0  0  0  0  0  0  0
   31.2858   27.5454   47.6709 H   0  0  0  0  0  0  0  0  0  0  0  0
   31.9611   27.1645   46.0775 H   0  0  0  0  0  0  0  0  0  0  0  0
   32.6583   25.7720   48.3289 H   0  0  0  0  0  0  0  0  0  0  0  0
   33.8152   26.0012   47.0233 H   0  0  0  0  0  0  0  0  0  0  0  0
   35.0115   26.9936   48.8055 H   0  0  0  0  0  0  0  0  0  0  0  0
   33.5773   27.5024   49.6668 H   0  0  0  0  0  0  0  0  0  0  0  0
   37.9182   32.8365   50.4248 H   0  0  0  0  0  0  0  0  0  0  0  0
   39.7131   34.5330   50.5839 H   0  0  0  0  0  0  0  0  0  0  0  0
   40.9751   35.1154   48.5216 H   0  0  0  0  0  0  0  0  0  0  0  0
   40.4522   34.0249   46.3602 H   0  0  0  0  0  0  0  0  0  0  0  0
   40.0510   30.6250   45.7301 H   0  0  0  0  0  0  0  0  0  0  0  0
   39.1414   30.9518   44.2305 H   0  0  0  0  0  0  0  0  0  0  0  0
  2 13  1  0
  2  1  2  0
  3  2  1  0
  4  3  2  0
  4  5  1  0
  5  6  2  0
  6  1  1  0
  7  5  1  0
  7 11  1  0
  8  9  1  0
  8  7  1  0
  9 10  1  0
 10 11  1  0
 12 17  2  0
 12 13  1  0
 13 14  2  0
 14 15  1  0
 16 15  2  0
 17 16  1  0
 18 21  1  0
 18 19  2  0
 19 12  1  0
 20 19  1  0
  1 22  1  0
  3 23  1  0
  8 24  1  0
  8 25  1  0
  9 26  1  0
  9 27  1  0
 10 28  1  0
 10 29  1  0
 11 30  1  0
 11 31  1  0
 14 32  1  0
 15 33  1  0
 16 34  1  0
 17 35  1  0
 20 36  1  0
 20 37  1  0
M  ISO  8  22  14  23  14  24  13  25  13  26  13  27  13  28  13  29  13
M  ISO  6  30  13  31  13  32  14  33  14  34  14  35  14
M  END
>  <minimizedAffinity>  (1) 
-5.79739618

>  <minimizedRMSD>  (1) 
2.60363126

$$$$
