
     RDKit          3D

 28 29  0  0  0  0  0  0  0  0999 V2000
   38.8810   32.7170   48.0750 C   0  0  0  0  0  0  0  0  0  0  0  0
   39.2230   32.0180   46.9100 C   0  0  0  0  0  0  0  0  0  0  0  0
   38.5620   30.7920   46.6470 C   0  0  0  0  0  0  0  0  0  0  0  0
   37.6400   30.3860   47.5470 N   0  0  0  0  0  0  0  0  0  0  0  0
   37.3280   31.0680   48.6530 C   0  0  0  0  0  0  0  0  0  0  0  0
   37.9440   32.2250   48.9130 N   0  0  0  0  0  0  0  0  0  0  0  0
   36.3310   30.5370   49.5390 N   0  0  0  0  0  0  0  0  0  0  0  0
   34.9720   30.2450   49.1190 C   0  0  0  0  0  0  0  0  0  0  0  0
   34.3740   29.5390   50.2990 C   0  0  0  0  0  0  0  0  0  0  0  0
   35.5240   29.1710   51.1980 C   0  0  0  0  0  0  0  0  0  0  0  0
   36.5420   30.2270   50.9430 C   0  0  0  0  0  0  0  0  0  0  0  0
   40.1620   32.4600   46.0200 O   0  0  0  0  0  0  0  0  0  0  0  0
   38.2020   32.8550   44.2900 O   0  0  0  0  0  0  0  0  0  0  0  0
   39.6970   32.8930   44.4450 P   0  0  0  0  0  0  0  0  0  0  0  0
   40.2440   34.4600   44.0860 O   0  0  0  0  0  0  0  0  0  0  0  0
   40.3520   31.7680   43.3460 O   0  0  0  0  0  0  0  0  0  0  0  0
   39.3779   33.6704   48.3077 H   0  0  0  0  0  0  0  0  0  0  0  0
   38.7897   30.1976   45.7499 H   0  0  0  0  0  0  0  0  0  0  0  0
   34.4229   31.1722   48.8980 H   0  0  0  0  0  0  0  0  0  0  0  0
   34.9322   29.6428   48.1993 H   0  0  0  0  0  0  0  0  0  0  0  0
   33.6754   30.2045   50.8272 H   0  0  0  0  0  0  0  0  0  0  0  0
   33.8087   28.6482   49.9878 H   0  0  0  0  0  0  0  0  0  0  0  0
   35.2117   29.1772   52.2527 H   0  0  0  0  0  0  0  0  0  0  0  0
   35.9077   28.1598   50.9974 H   0  0  0  0  0  0  0  0  0  0  0  0
   37.5598   29.8480   51.1175 H   0  0  0  0  0  0  0  0  0  0  0  0
   36.4419   31.1004   51.6041 H   0  0  0  0  0  0  0  0  0  0  0  0
   40.4153   34.9508   44.9285 H   0  0  0  0  0  0  0  0  0  0  0  0
   40.7818   31.0297   43.8463 H   0  0  0  0  0  0  0  0  0  0  0  0
  1  6  2  0
  2  1  1  0
  3  2  2  0
  3  4  1  0
  4  5  2  0
  5  6  1  0
  5  7  1  0
  7 11  1  0
  8  7  1  0
  8  9  1  0
  9 10  1  0
 11 10  1  0
 12  2  1  0
 13 14  2  0
 14 12  1  0
 15 14  1  0
 16 14  1  0
  1 17  1  0
  3 18  1  0
  8 19  1  0
  8 20  1  0
  9 21  1  0
  9 22  1  0
 10 23  1  0
 10 24  1  0
 11 25  1  0
 11 26  1  0
 15 27  1  0
 16 28  1  0
M  ISO  8  17  14  18  14  19  13  20  13  21  13  22  13  23  13  24  13
M  ISO  4  25  13  26  13  27   3  28   3
M  END
>  <minimizedAffinity>  (1) 
-5.04263973

>  <minimizedRMSD>  (1) 
2.06268287

$$$$
