
     RDKit          3D

 33 36  0  0  0  0  0  0  0  0999 V2000
   33.5800   28.3920   49.4600 C   0  0  0  0  0  0  0  0  0  0  0  0
   34.4000   29.3090   48.7700 C   0  0  0  0  0  0  0  0  0  0  0  0
   34.0250   29.6910   47.4700 C   0  0  0  0  0  0  0  0  0  0  0  0
   32.8930   29.1520   46.9550 N   0  0  0  0  0  0  0  0  0  0  0  0
   32.1250   28.2740   47.6360 C   0  0  0  0  0  0  0  0  0  0  0  0
   32.4710   27.9060   48.8690 N   0  0  0  0  0  0  0  0  0  0  0  0
   30.9450   27.7600   47.0020 N   0  0  0  0  0  0  0  0  0  0  0  0
   29.8560   28.6160   46.5280 C   0  0  0  0  0  0  0  0  0  0  0  0
   28.9780   27.7060   45.7590 C   0  0  0  0  0  0  0  0  0  0  0  0
   29.7420   26.4080   45.5980 C   0  0  0  0  0  0  0  0  0  0  0  0
   30.6780   26.3540   46.7530 C   0  0  0  0  0  0  0  0  0  0  0  0
   35.5550   29.8050   49.4040 N   0  0  0  0  0  0  0  0  0  0  0  0
   35.8130   29.5790   50.6910 C   0  0  0  0  0  0  0  0  0  0  0  0
   36.9890   30.1760   51.0210 N   0  0  0  0  0  0  0  0  0  0  0  0
   37.4600   30.7800   49.9150 C   0  0  0  0  0  0  0  0  0  0  0  0
   38.5760   31.5370   49.5870 C   0  0  0  0  0  0  0  0  0  0  0  0
   38.7860   32.0270   48.3450 N   0  0  0  0  0  0  0  0  0  0  0  0
   37.8780   31.7730   47.3820 C   0  0  0  0  0  0  0  0  0  0  0  0
   36.7590   31.0390   47.6320 N   0  0  0  0  0  0  0  0  0  0  0  0
   36.5440   30.5420   48.8840 C   0  0  0  0  0  0  0  0  0  0  0  0
   33.8455   28.0741   50.4791 H   0  0  0  0  0  0  0  0  0  0  0  0
   34.6301   30.4035   46.8902 H   0  0  0  0  0  0  0  0  0  0  0  0
   29.3114   29.0577   47.3756 H   0  0  0  0  0  0  0  0  0  0  0  0
   30.2196   29.4585   45.9213 H   0  0  0  0  0  0  0  0  0  0  0  0
   28.0402   27.5299   46.3063 H   0  0  0  0  0  0  0  0  0  0  0  0
   28.7151   28.1374   44.7819 H   0  0  0  0  0  0  0  0  0  0  0  0
   29.0531   25.5507   45.6206 H   0  0  0  0  0  0  0  0  0  0  0  0
   30.2755   26.3641   44.6370 H   0  0  0  0  0  0  0  0  0  0  0  0
   30.2069   25.8775   47.6254 H   0  0  0  0  0  0  0  0  0  0  0  0
   31.5842   25.7617   46.5579 H   0  0  0  0  0  0  0  0  0  0  0  0
   35.1762   29.0015   51.3773 H   0  0  0  0  0  0  0  0  0  0  0  0
   39.3199   31.7467   50.3697 H   0  0  0  0  0  0  0  0  0  0  0  0
   38.0451   32.1684   46.3692 H   0  0  0  0  0  0  0  0  0  0  0  0
  2 12  1  0
  2  1  2  0
  3  2  1  0
  4  3  2  0
  4  5  1  0
  5  6  2  0
  6  1  1  0
  7  5  1  0
  8  7  1  0
  9  8  1  0
 10  9  1  0
 10 11  1  0
 11  7  1  0
 12 13  1  0
 13 14  2  0
 15 14  1  0
 16 15  2  0
 17 16  1  0
 18 19  1  0
 18 17  2  0
 19 20  2  0
 20 12  1  0
 20 15  1  0
  1 21  1  0
  3 22  1  0
  8 23  1  0
  8 24  1  0
  9 25  1  0
  9 26  1  0
 10 27  1  0
 10 28  1  0
 11 29  1  0
 11 30  1  0
 13 31  1  0
 16 32  1  0
 18 33  1  0
M  ISO  8  21  14  22  14  23  13  24  13  25  13  26  13  27  13  28  13
M  ISO  5  29  13  30  13  31  14  32  14  33  14
M  END
>  <minimizedAffinity>  (1) 
-4.971138

>  <minimizedRMSD>  (1) 
6.21201944

$$$$
