
     RDKit          3D

 24 25  0  0  0  0  0  0  0  0999 V2000
   38.0780   33.1800   49.4900 C   0  0  0  0  0  0  0  0  0  0  0  0
   38.8110   33.1870   48.2730 C   0  0  0  0  0  0  0  0  0  0  0  0
   38.5030   32.2250   47.2920 C   0  0  0  0  0  0  0  0  0  0  0  0
   37.5110   31.3400   47.5740 N   0  0  0  0  0  0  0  0  0  0  0  0
   36.8260   31.3540   48.7430 C   0  0  0  0  0  0  0  0  0  0  0  0
   37.1120   32.2630   49.6800 N   0  0  0  0  0  0  0  0  0  0  0  0
   35.7980   30.3730   48.9360 N   0  0  0  0  0  0  0  0  0  0  0  0
   34.6420   30.2300   48.0830 C   0  0  0  0  0  0  0  0  0  0  0  0
   34.0210   28.9420   48.5210 C   0  0  0  0  0  0  0  0  0  0  0  0
   34.9970   28.2740   49.4580 C   0  0  0  0  0  0  0  0  0  0  0  0
   35.7980   29.3950   50.0230 C   0  0  0  0  0  0  0  0  0  0  0  0
   39.8350   34.0960   47.9770 N   0  0  0  0  0  0  0  0  0  0  0  0
   38.2991   33.9204   50.2728 H   0  0  0  0  0  0  0  0  0  0  0  0
   39.0441   32.1912   46.3349 H   0  0  0  0  0  0  0  0  0  0  0  0
   34.9411   30.1794   47.0256 H   0  0  0  0  0  0  0  0  0  0  0  0
   33.9499   31.0811   48.1646 H   0  0  0  0  0  0  0  0  0  0  0  0
   33.0723   29.1386   49.0419 H   0  0  0  0  0  0  0  0  0  0  0  0
   33.8056   28.2975   47.6560 H   0  0  0  0  0  0  0  0  0  0  0  0
   34.4640   27.7362   50.2559 H   0  0  0  0  0  0  0  0  0  0  0  0
   35.6236   27.5280   48.9472 H   0  0  0  0  0  0  0  0  0  0  0  0
   36.8209   29.0694   50.2631 H   0  0  0  0  0  0  0  0  0  0  0  0
   35.3898   29.7906   50.9648 H   0  0  0  0  0  0  0  0  0  0  0  0
   40.3253   34.0429   47.0727 H   0  0  0  0  0  0  0  0  0  0  0  0
   40.0976   34.8174   48.6636 H   0  0  0  0  0  0  0  0  0  0  0  0
  1  6  2  0
  2  1  1  0
  3  4  1  0
  3  2  2  0
  4  5  2  0
  5  7  1  0
  5  6  1  0
  7 11  1  0
  8  9  1  0
  8  7  1  0
  9 10  1  0
 10 11  1  0
 12  2  1  0
  1 13  1  0
  3 14  1  0
  8 15  1  0
  8 16  1  0
  9 17  1  0
  9 18  1  0
 10 19  1  0
 10 20  1  0
 11 21  1  0
 11 22  1  0
 12 23  1  0
 12 24  1  0
M  ISO  8  13  14  14  14  15  13  16  13  17  13  18  13  19  13  20  13
M  ISO  2  21  13  22  13
M  END
>  <minimizedAffinity>  (1) 
-4.70030499

>  <minimizedRMSD>  (1) 
0.181466311

$$$$
