
     RDKit          3D

 24 25  0  0  0  0  0  0  0  0999 V2000
   37.3540   32.5080   49.8530 C   0  0  0  0  0  0  0  0  0  0  0  0
   38.2360   32.7260   48.7620 C   0  0  0  0  0  0  0  0  0  0  0  0
   38.0620   31.9400   47.6210 C   0  0  0  0  0  0  0  0  0  0  0  0
   37.0700   31.0210   47.6190 N   0  0  0  0  0  0  0  0  0  0  0  0
   36.2450   30.8300   48.6590 C   0  0  0  0  0  0  0  0  0  0  0  0
   36.3970   31.5730   49.7570 N   0  0  0  0  0  0  0  0  0  0  0  0
   35.2250   29.8280   48.5590 N   0  0  0  0  0  0  0  0  0  0  0  0
   34.2060   29.8300   47.5380 C   0  0  0  0  0  0  0  0  0  0  0  0
   33.5250   28.5050   47.6950 C   0  0  0  0  0  0  0  0  0  0  0  0
   34.3970   27.6890   48.6250 C   0  0  0  0  0  0  0  0  0  0  0  0
   35.1000   28.6920   49.4750 C   0  0  0  0  0  0  0  0  0  0  0  0
   39.2650   33.7370   48.8730 C   0  0  0  0  0  0  0  0  0  0  0  0
   39.5890   34.0760   50.0400 O   0  0  0  0  0  0  0  0  0  0  0  0
   37.4550   33.1030   50.7726 H   0  0  0  0  0  0  0  0  0  0  0  0
   38.7158   32.0653   46.7453 H   0  0  0  0  0  0  0  0  0  0  0  0
   34.6557   29.9213   46.5383 H   0  0  0  0  0  0  0  0  0  0  0  0
   33.5100   30.6758   47.6394 H   0  0  0  0  0  0  0  0  0  0  0  0
   32.5243   28.6400   48.1313 H   0  0  0  0  0  0  0  0  0  0  0  0
   33.3955   28.0036   46.7245 H   0  0  0  0  0  0  0  0  0  0  0  0
   33.7813   27.0207   49.2449 H   0  0  0  0  0  0  0  0  0  0  0  0
   35.1014   27.0482   48.0743 H   0  0  0  0  0  0  0  0  0  0  0  0
   36.0865   28.3249   49.7944 H   0  0  0  0  0  0  0  0  0  0  0  0
   34.5724   28.9306   50.4103 H   0  0  0  0  0  0  0  0  0  0  0  0
   39.7376   34.1842   47.9861 H   0  0  0  0  0  0  0  0  0  0  0  0
  2 12  1  0
  2  1  2  0
  3  2  1  0
  4  3  2  0
  4  5  1  0
  5  6  2  0
  6  1  1  0
  7  5  1  0
  7 11  1  0
  8  9  1  0
  8  7  1  0
  9 10  1  0
 10 11  1  0
 12 13  2  0
  1 14  1  0
  3 15  1  0
  8 16  1  0
  8 17  1  0
  9 18  1  0
  9 19  1  0
 10 20  1  0
 10 21  1  0
 11 22  1  0
 11 23  1  0
 12 24  1  0
M  ISO  8  14  14  15  14  16  13  17  13  18  13  19  13  20  13  21  13
M  ISO  3  22  13  23  13  24   6
M  END
>  <minimizedAffinity>  (1) 
-4.65328646

>  <minimizedRMSD>  (1) 
1.06661594

$$$$
