
     RDKit          3D

 22 23  0  0  0  0  0  0  0  0999 V2000
   38.0140   31.1020   48.3450 C   0  0  0  0  0  0  0  0  0  0  0  0
   38.5950   32.3560   48.4500 C   0  0  0  0  0  0  0  0  0  0  0  0
   39.3060   32.9850   47.4550 C   0  0  0  0  0  0  0  0  0  0  0  0
   39.4670   32.3280   46.2420 C   0  0  0  0  0  0  0  0  0  0  0  0
   38.8880   31.0910   46.1530 C   0  0  0  0  0  0  0  0  0  0  0  0
   38.1980   30.5040   47.1470 N   0  0  0  0  0  0  0  0  0  0  0  0
   37.6650   30.5150   50.7610 C   0  0  0  0  0  0  0  0  0  0  0  0
   37.2740   30.4790   49.4170 C   0  0  0  0  0  0  0  0  0  0  0  0
   36.0970   29.7980   49.0830 C   0  0  0  0  0  0  0  0  0  0  0  0
   35.3930   29.2070   50.0930 N   0  0  0  0  0  0  0  0  0  0  0  0
   35.8100   29.2690   51.3830 C   0  0  0  0  0  0  0  0  0  0  0  0
   36.9300   29.9120   51.7250 N   0  0  0  0  0  0  0  0  0  0  0  0
   40.2300   32.9710   45.1350 C   0  0  0  0  0  0  0  0  0  0  0  0
   41.5710   32.6250   45.3050 F   0  0  0  0  0  0  0  0  0  0  0  0
   39.8310   32.5140   43.9040 F   0  0  0  0  0  0  0  0  0  0  0  0
   40.1050   34.3320   45.2360 F   0  0  0  0  0  0  0  0  0  0  0  0
   38.4782   32.8902   49.4045 H   0  0  0  0  0  0  0  0  0  0  0  0
   39.7368   33.9843   47.6159 H   0  0  0  0  0  0  0  0  0  0  0  0
   38.9940   30.5409   45.2064 H   0  0  0  0  0  0  0  0  0  0  0  0
   38.5883   31.0441   51.0394 H   0  0  0  0  0  0  0  0  0  0  0  0
   35.7505   29.7409   48.0405 H   0  0  0  0  0  0  0  0  0  0  0  0
   35.2120   28.7785   52.1651 H   0  0  0  0  0  0  0  0  0  0  0  0
  1  2  2  0
  1  8  1  0
  3  2  1  0
  4  3  2  0
  5  4  1  0
  5  6  2  0
  6  1  1  0
  7 12  2  0
  8  7  1  0
  9  8  2  0
  9 10  1  0
 10 11  2  0
 11 12  1  0
 13 16  1  0
 13 14  1  0
 13  4  1  0
 15 13  1  0
  2 17  1  0
  3 18  1  0
  5 19  1  0
  7 20  1  0
  9 21  1  0
 11 22  1  0
M  ISO  6  17  14  18  14  19  14  20  14  21  14  22  14
M  END
>  <minimizedAffinity>  (1) 
-5.65706301

>  <minimizedRMSD>  (1) 
1.72862041

$$$$
