
     RDKit          3D

 26 28  0  0  0  0  0  0  0  0999 V2000
   37.3160   31.1760   48.5900 C   0  0  0  0  0  0  0  0  0  0  0  0
   38.1440   32.1890   49.0200 C   0  0  0  0  0  0  0  0  0  0  0  0
   39.0360   32.8860   48.2380 C   0  0  0  0  0  0  0  0  0  0  0  0
   39.1260   32.5600   46.9030 C   0  0  0  0  0  0  0  0  0  0  0  0
   38.3000   31.5490   46.4710 C   0  0  0  0  0  0  0  0  0  0  0  0
   37.4360   30.8860   47.2680 N   0  0  0  0  0  0  0  0  0  0  0  0
   36.7340   29.9620   50.7080 C   0  0  0  0  0  0  0  0  0  0  0  0
   36.3890   30.4680   49.4570 C   0  0  0  0  0  0  0  0  0  0  0  0
   35.0810   30.2980   48.9850 C   0  0  0  0  0  0  0  0  0  0  0  0
   34.2120   29.6280   49.8110 N   0  0  0  0  0  0  0  0  0  0  0  0
   34.5670   29.1500   51.0100 C   0  0  0  0  0  0  0  0  0  0  0  0
   35.8210   29.3110   51.4640 N   0  0  0  0  0  0  0  0  0  0  0  0
   40.0660   33.2720   46.0100 C   0  0  0  0  0  0  0  0  0  0  0  0
   41.0040   32.4640   45.1380 C   0  0  0  0  0  0  0  0  0  0  0  0
   39.8840   33.2570   44.5560 C   0  0  0  0  0  0  0  0  0  0  0  0
   38.0871   32.4654   50.0832 H   0  0  0  0  0  0  0  0  0  0  0  0
   39.6609   33.6827   48.6678 H   0  0  0  0  0  0  0  0  0  0  0  0
   38.3464   31.2629   45.4099 H   0  0  0  0  0  0  0  0  0  0  0  0
   37.7591   30.0932   51.0847 H   0  0  0  0  0  0  0  0  0  0  0  0
   34.7661   30.6814   48.0033 H   0  0  0  0  0  0  0  0  0  0  0  0
   33.8263   28.6214   51.6281 H   0  0  0  0  0  0  0  0  0  0  0  0
   40.1751   34.0693   46.7600 H   0  0  0  0  0  0  0  0  0  0  0  0
   42.0455   32.7879   44.9953 H   0  0  0  0  0  0  0  0  0  0  0  0
   41.3311   31.4146   45.0951 H   0  0  0  0  0  0  0  0  0  0  0  0
   40.1032   34.1614   43.9695 H   0  0  0  0  0  0  0  0  0  0  0  0
   39.0410   33.0214   43.8898 H   0  0  0  0  0  0  0  0  0  0  0  0
  1  2  2  0
  1  8  1  0
  3  2  1  0
  4  3  2  0
  5  4  1  0
  5  6  2  0
  6  1  1  0
  7 12  2  0
  8  7  1  0
  9  8  2  0
  9 10  1  0
 10 11  2  0
 11 12  1  0
 13  4  1  0
 14 13  1  0
 15 14  1  0
 15 13  1  0
  2 16  1  0
  3 17  1  0
  5 18  1  0
  7 19  1  0
  9 20  1  0
 11 21  1  0
 13 22  1  0
 14 23  1  0
 14 24  1  0
 15 25  1  0
 15 26  1  0
M  ISO  8  16  14  17  14  18  14  19  14  20  14  21  14  22  13  23  13
M  ISO  3  24  13  25  13  26  13
M  END
>  <minimizedAffinity>  (1) 
-5.32230139

>  <minimizedRMSD>  (1) 
1.4538976

$$$$
