
     RDKit          3D

 21 22  0  0  0  0  0  0  0  0999 V2000
   38.2230   31.1420   48.1440 C   0  0  0  0  0  0  0  0  0  0  0  0
   38.7620   32.4140   48.2430 C   0  0  0  0  0  0  0  0  0  0  0  0
   39.4770   33.0360   47.2340 C   0  0  0  0  0  0  0  0  0  0  0  0
   39.6720   32.3520   46.0410 C   0  0  0  0  0  0  0  0  0  0  0  0
   39.1270   31.0960   45.9730 C   0  0  0  0  0  0  0  0  0  0  0  0
   38.4390   30.5220   46.9710 N   0  0  0  0  0  0  0  0  0  0  0  0
   37.7720   30.6830   50.5830 C   0  0  0  0  0  0  0  0  0  0  0  0
   37.4780   30.5300   49.2340 C   0  0  0  0  0  0  0  0  0  0  0  0
   36.3850   29.7290   48.8730 C   0  0  0  0  0  0  0  0  0  0  0  0
   35.6780   29.1500   49.9000 N   0  0  0  0  0  0  0  0  0  0  0  0
   35.9970   29.3240   51.1900 C   0  0  0  0  0  0  0  0  0  0  0  0
   37.0370   30.0860   51.5370 N   0  0  0  0  0  0  0  0  0  0  0  0
   40.4060   32.9020   44.9120 C   0  0  0  0  0  0  0  0  0  0  0  0
   40.1010   34.0500   44.4580 O   0  0  0  0  0  0  0  0  0  0  0  0
   38.6124   32.9650   49.1832 H   0  0  0  0  0  0  0  0  0  0  0  0
   39.8817   34.0493   47.3739 H   0  0  0  0  0  0  0  0  0  0  0  0
   39.2622   30.5240   45.0432 H   0  0  0  0  0  0  0  0  0  0  0  0
   38.6276   31.3083   50.8779 H   0  0  0  0  0  0  0  0  0  0  0  0
   36.1072   29.5718   47.8203 H   0  0  0  0  0  0  0  0  0  0  0  0
   35.3962   28.8343   51.9705 H   0  0  0  0  0  0  0  0  0  0  0  0
   41.2228   32.3263   44.4521 H   0  0  0  0  0  0  0  0  0  0  0  0
  1  2  2  0
  1  8  1  0
  3  2  1  0
  4  3  2  0
  5  4  1  0
  5  6  2  0
  6  1  1  0
  7 12  2  0
  8  7  1  0
  9  8  2  0
  9 10  1  0
 10 11  2  0
 11 12  1  0
 13  4  1  0
 14 13  2  0
  2 15  1  0
  3 16  1  0
  5 17  1  0
  7 18  1  0
  9 19  1  0
 11 20  1  0
 13 21  1  0
M  ISO  7  15  14  16  14  17  14  18  14  19  14  20  14  21   6
M  END
>  <minimizedAffinity>  (1) 
-4.9446559

>  <minimizedRMSD>  (1) 
1.58611286

$$$$
