
     RDKit          3D

 20 21  0  0  0  0  0  0  0  0999 V2000
   37.5630   31.6590   48.9370 C   0  0  0  0  0  0  0  0  0  0  0  0
   38.1930   32.7330   49.5060 C   0  0  0  0  0  0  0  0  0  0  0  0
   39.0670   33.5600   48.8290 C   0  0  0  0  0  0  0  0  0  0  0  0
   39.3480   33.3280   47.5070 C   0  0  0  0  0  0  0  0  0  0  0  0
   38.7010   32.2360   46.9450 C   0  0  0  0  0  0  0  0  0  0  0  0
   37.8560   31.4520   47.6350 N   0  0  0  0  0  0  0  0  0  0  0  0
   36.9500   30.1670   50.8730 C   0  0  0  0  0  0  0  0  0  0  0  0
   36.6460   30.7930   49.6530 C   0  0  0  0  0  0  0  0  0  0  0  0
   35.3910   30.5670   49.1040 C   0  0  0  0  0  0  0  0  0  0  0  0
   34.5220   29.7490   49.7800 N   0  0  0  0  0  0  0  0  0  0  0  0
   34.8580   29.1700   50.9470 C   0  0  0  0  0  0  0  0  0  0  0  0
   36.0700   29.3730   51.5020 N   0  0  0  0  0  0  0  0  0  0  0  0
   40.2020   34.0680   46.6930 O   0  0  0  0  0  0  0  0  0  0  0  0
   37.9909   32.9499   50.5653 H   0  0  0  0  0  0  0  0  0  0  0  0
   39.5385   34.4059   49.3506 H   0  0  0  0  0  0  0  0  0  0  0  0
   38.8887   32.0020   45.8867 H   0  0  0  0  0  0  0  0  0  0  0  0
   37.9386   30.3325   51.3262 H   0  0  0  0  0  0  0  0  0  0  0  0
   35.1008   31.0324   48.1505 H   0  0  0  0  0  0  0  0  0  0  0  0
   34.1317   28.5200   51.4570 H   0  0  0  0  0  0  0  0  0  0  0  0
   40.3315   33.8088   45.7463 H   0  0  0  0  0  0  0  0  0  0  0  0
  1  2  2  0
  1  8  1  0
  3  2  1  0
  4  3  2  0
  5  4  1  0
  5  6  2  0
  6  1  1  0
  7 12  2  0
  8  7  1  0
  9  8  2  0
  9 10  1  0
 10 11  2  0
 11 12  1  0
 13  4  1  0
  2 14  1  0
  3 15  1  0
  5 16  1  0
  7 17  1  0
  9 18  1  0
 11 19  1  0
 13 20  1  0
M  ISO  7  14  14  15  14  16  14  17  14  18  14  19  14  20   3
M  END
>  <minimizedAffinity>  (1) 
-4.82685518

>  <minimizedRMSD>  (1) 
0.638010919

$$$$
