
     RDKit          3D

 30 31  0  0  0  0  0  0  0  0999 V2000
   38.6910   32.3080   46.4190 C   0  0  0  0  0  0  0  0  0  0  0  0
   39.9750   32.8130   46.1750 C   0  0  0  0  0  0  0  0  0  0  0  0
   40.3140   33.2110   44.8820 C   0  0  0  0  0  0  0  0  0  0  0  0
   39.3450   33.0740   43.9290 N   0  0  0  0  0  0  0  0  0  0  0  0
   38.1130   32.5840   44.1930 C   0  0  0  0  0  0  0  0  0  0  0  0
   37.7990   32.2060   45.4290 N   0  0  0  0  0  0  0  0  0  0  0  0
   37.1320   32.4690   43.1190 C   0  0  0  0  0  0  0  0  0  0  0  0
   36.0500   31.6170   43.2600 C   0  0  0  0  0  0  0  0  0  0  0  0
   35.0600   31.4200   42.3220 C   0  0  0  0  0  0  0  0  0  0  0  0
   35.2000   32.1580   41.1550 C   0  0  0  0  0  0  0  0  0  0  0  0
   36.2860   33.0000   41.0410 C   0  0  0  0  0  0  0  0  0  0  0  0
   37.2350   33.1660   41.9810 N   0  0  0  0  0  0  0  0  0  0  0  0
   38.5040   31.9550   47.7470 O   0  0  0  0  0  0  0  0  0  0  0  0
   37.3190   31.3400   48.0800 C   0  0  0  0  0  0  0  0  0  0  0  0
   37.7980   30.4190   48.9420 C   0  0  0  0  0  0  0  0  0  0  0  0
   38.1160   30.8600   50.3320 C   0  0  0  0  0  0  0  0  0  0  0  0
   37.2450   29.9160   51.5790 S   0  0  0  0  0  0  0  0  0  0  0  0
   40.7062   32.8945   46.9927 H   0  0  0  0  0  0  0  0  0  0  0  0
   41.3091   33.6139   44.6423 H   0  0  0  0  0  0  0  0  0  0  0  0
   35.9742   31.0498   44.1994 H   0  0  0  0  0  0  0  0  0  0  0  0
   34.2204   30.7286   42.4861 H   0  0  0  0  0  0  0  0  0  0  0  0
   34.4638   32.0734   40.3421 H   0  0  0  0  0  0  0  0  0  0  0  0
   36.3842   33.5800   40.1115 H   0  0  0  0  0  0  0  0  0  0  0  0
   36.6158   32.0332   48.5648 H   0  0  0  0  0  0  0  0  0  0  0  0
   36.7372   30.9421   47.2355 H   0  0  0  0  0  0  0  0  0  0  0  0
   37.0471   29.6186   49.0163 H   0  0  0  0  0  0  0  0  0  0  0  0
   38.7692   30.1241   48.5179 H   0  0  0  0  0  0  0  0  0  0  0  0
   39.1975   30.7463   50.4975 H   0  0  0  0  0  0  0  0  0  0  0  0
   37.7951   31.9078   50.4273 H   0  0  0  0  0  0  0  0  0  0  0  0
   37.6329   30.3365   52.8238 H   0  0  0  0  0  0  0  0  0  0  0  0
  1 13  1  0
  2  1  2  0
  3  2  1  0
  4  5  1  0
  4  3  2  0
  5  6  2  0
  6  1  1  0
  7  8  2  0
  7  5  1  0
  9  8  1  0
 10  9  2  0
 11 10  1  0
 11 12  2  0
 12  7  1  0
 13 14  1  0
 14 15  1  0
 15 16  1  0
 16 17  1  0
  2 18  1  0
  3 19  1  0
  8 20  1  0
  9 21  1  0
 10 22  1  0
 11 23  1  0
 14 24  1  0
 14 25  1  0
 15 26  1  0
 15 27  1  0
 16 28  1  0
 16 29  1  0
 17 30  1  0
M  ISO  8  18  14  19  14  20  14  21  14  22  14  23  14  24   8  25   8
M  ISO  5  26   8  27   8  28   8  29   8  30  11
M  END
>  <minimizedAffinity>  (1) 
-4.20112848

>  <minimizedRMSD>  (1) 
0.560457766

$$$$
