
     RDKit          3D

 30 32  0  0  0  0  0  0  0  0999 V2000
   37.2680   31.1670   48.4380 C   0  0  0  0  0  0  0  0  0  0  0  0
   38.2980   32.0140   48.7540 C   0  0  0  0  0  0  0  0  0  0  0  0
   39.0920   32.6520   47.8320 C   0  0  0  0  0  0  0  0  0  0  0  0
   38.8740   32.4560   46.4850 C   0  0  0  0  0  0  0  0  0  0  0  0
   37.8220   31.5930   46.1740 C   0  0  0  0  0  0  0  0  0  0  0  0
   37.0660   30.9870   47.1140 N   0  0  0  0  0  0  0  0  0  0  0  0
   36.9230   30.0130   50.6470 C   0  0  0  0  0  0  0  0  0  0  0  0
   36.4390   30.5020   49.4120 C   0  0  0  0  0  0  0  0  0  0  0  0
   35.0850   30.3280   49.1240 C   0  0  0  0  0  0  0  0  0  0  0  0
   34.3120   29.6900   50.0680 N   0  0  0  0  0  0  0  0  0  0  0  0
   34.8130   29.2430   51.2250 C   0  0  0  0  0  0  0  0  0  0  0  0
   36.1180   29.3970   51.5290 N   0  0  0  0  0  0  0  0  0  0  0  0
   39.5770   33.0180   45.4350 O   0  0  0  0  0  0  0  0  0  0  0  0
   39.8400   32.2980   44.2810 C   0  0  0  0  0  0  0  0  0  0  0  0
   40.5470   31.1180   44.1520 C   0  0  0  0  0  0  0  0  0  0  0  0
   40.7080   30.5430   42.9050 C   0  0  0  0  0  0  0  0  0  0  0  0
   40.1840   31.1060   41.7650 C   0  0  0  0  0  0  0  0  0  0  0  0
   39.4760   32.2890   41.9060 C   0  0  0  0  0  0  0  0  0  0  0  0
   39.2940   32.8960   43.1400 C   0  0  0  0  0  0  0  0  0  0  0  0
   38.5032   32.1956   49.8193 H   0  0  0  0  0  0  0  0  0  0  0  0
   39.9003   33.3181   48.1681 H   0  0  0  0  0  0  0  0  0  0  0  0
   37.5988   31.3978   45.1147 H   0  0  0  0  0  0  0  0  0  0  0  0
   37.9877   30.1403   50.8926 H   0  0  0  0  0  0  0  0  0  0  0  0
   34.6516   30.6868   48.1788 H   0  0  0  0  0  0  0  0  0  0  0  0
   34.1478   28.7401   51.9424 H   0  0  0  0  0  0  0  0  0  0  0  0
   40.9814   30.6365   45.0405 H   0  0  0  0  0  0  0  0  0  0  0  0
   41.2743   29.6036   42.8220 H   0  0  0  0  0  0  0  0  0  0  0  0
   40.3214   30.6359   40.7801 H   0  0  0  0  0  0  0  0  0  0  0  0
   39.0448   32.7616   41.0112 H   0  0  0  0  0  0  0  0  0  0  0  0
   38.7276   33.8355   43.2204 H   0  0  0  0  0  0  0  0  0  0  0  0
  1  2  2  0
  1  8  1  0
  3  2  1  0
  4  3  2  0
  5  4  1  0
  5  6  2  0
  6  1  1  0
  7 12  2  0
  8  7  1  0
  9  8  2  0
  9 10  1  0
 10 11  2  0
 11 12  1  0
 13  4  1  0
 14 13  1  0
 15 14  2  0
 16 15  1  0
 17 18  1  0
 17 16  2  0
 18 19  2  0
 19 14  1  0
  2 20  1  0
  3 21  1  0
  5 22  1  0
  7 23  1  0
  9 24  1  0
 11 25  1  0
 15 26  1  0
 16 27  1  0
 17 28  1  0
 18 29  1  0
 19 30  1  0
M  ISO  8  20  14  21  14  22  14  23  14  24  14  25  14  26  14  27  14
M  ISO  3  28  14  29  14  30  14
M  END
>  <minimizedAffinity>  (1) 
-5.54844904

>  <minimizedRMSD>  (1) 
4.06702614

$$$$
