
     RDKit          3D

 24 24  0  0  0  0  0  0  0  0999 V2000
   38.4510   32.0160   47.7560 O   0  0  0  0  0  0  0  0  0  0  0  0
   38.6600   32.3370   46.4360 C   0  0  0  0  0  0  0  0  0  0  0  0
   39.8950   32.9160   46.2290 C   0  0  0  0  0  0  0  0  0  0  0  0
   40.2580   33.3040   44.9250 C   0  0  0  0  0  0  0  0  0  0  0  0
   39.3400   33.0730   43.9360 N   0  0  0  0  0  0  0  0  0  0  0  0
   38.1320   32.5010   44.1730 C   0  0  0  0  0  0  0  0  0  0  0  0
   37.8150   32.1450   45.4140 N   0  0  0  0  0  0  0  0  0  0  0  0
   37.1650   32.2680   43.0690 C   0  0  0  0  0  0  0  0  0  0  0  0
   35.9360   31.8650   43.5650 F   0  0  0  0  0  0  0  0  0  0  0  0
   37.6090   31.2520   42.2200 F   0  0  0  0  0  0  0  0  0  0  0  0
   36.9390   33.4160   42.3280 F   0  0  0  0  0  0  0  0  0  0  0  0
   37.2990   31.3390   48.0770 C   0  0  0  0  0  0  0  0  0  0  0  0
   37.8310   30.4400   48.9210 C   0  0  0  0  0  0  0  0  0  0  0  0
   38.1260   30.8760   50.3180 C   0  0  0  0  0  0  0  0  0  0  0  0
   37.2460   29.9280   51.5520 S   0  0  0  0  0  0  0  0  0  0  0  0
   40.5861   33.0723   47.0704 H   0  0  0  0  0  0  0  0  0  0  0  0
   41.2314   33.7698   44.7115 H   0  0  0  0  0  0  0  0  0  0  0  0
   36.5606   31.9870   48.5718 H   0  0  0  0  0  0  0  0  0  0  0  0
   36.7337   30.9251   47.2290 H   0  0  0  0  0  0  0  0  0  0  0  0
   37.1290   29.5955   48.9837 H   0  0  0  0  0  0  0  0  0  0  0  0
   38.8176   30.2116   48.4914 H   0  0  0  0  0  0  0  0  0  0  0  0
   39.2057   30.7669   50.4977 H   0  0  0  0  0  0  0  0  0  0  0  0
   37.7952   31.9209   50.4112 H   0  0  0  0  0  0  0  0  0  0  0  0
   37.6278   30.3393   52.8018 H   0  0  0  0  0  0  0  0  0  0  0  0
  1 12  1  0
  2  1  1  0
  3  2  2  0
  4  3  1  0
  5  6  1  0
  5  4  2  0
  6  7  2  0
  7  2  1  0
  8  9  1  0
  8  6  1  0
 10  8  1  0
 11  8  1  0
 12 13  1  0
 13 14  1  0
 14 15  1  0
  3 16  1  0
  4 17  1  0
 12 18  1  0
 12 19  1  0
 13 20  1  0
 13 21  1  0
 14 22  1  0
 14 23  1  0
 15 24  1  0
M  ISO  8  16  14  17  14  18   8  19   8  20   8  21   8  22   8  23   8
M  ISO  1  24  11
M  END
>  <minimizedAffinity>  (1) 
-4.05478191

>  <minimizedRMSD>  (1) 
0.360028982

$$$$
