
     RDKit          3D

 30 32  0  0  0  0  0  0  0  0999 V2000
   33.8290   28.7010   48.2870 C   0  0  0  0  0  0  0  0  0  0  0  0
   34.3980   28.2780   49.4360 C   0  0  0  0  0  0  0  0  0  0  0  0
   35.6400   28.6790   49.8910 C   0  0  0  0  0  0  0  0  0  0  0  0
   36.3730   29.5620   49.1590 C   0  0  0  0  0  0  0  0  0  0  0  0
   35.7810   30.0010   47.9640 C   0  0  0  0  0  0  0  0  0  0  0  0
   34.5680   29.5800   47.5680 N   0  0  0  0  0  0  0  0  0  0  0  0
   31.6320   27.5230   48.5870 C   0  0  0  0  0  0  0  0  0  0  0  0
   32.5380   28.2750   47.8270 C   0  0  0  0  0  0  0  0  0  0  0  0
   32.1070   28.5990   46.5600 C   0  0  0  0  0  0  0  0  0  0  0  0
   30.8910   28.2060   46.1040 N   0  0  0  0  0  0  0  0  0  0  0  0
   30.0660   27.4770   46.9030 C   0  0  0  0  0  0  0  0  0  0  0  0
   30.4270   27.1320   48.1400 N   0  0  0  0  0  0  0  0  0  0  0  0
   37.6320   30.0800   49.4490 O   0  0  0  0  0  0  0  0  0  0  0  0
   38.2270   31.0570   48.6630 C   0  0  0  0  0  0  0  0  0  0  0  0
   38.3240   32.3030   49.2860 C   0  0  0  0  0  0  0  0  0  0  0  0
   38.9370   33.1560   48.3700 C   0  0  0  0  0  0  0  0  0  0  0  0
   39.1780   32.4280   47.2740 N   0  0  0  0  0  0  0  0  0  0  0  0
   38.7660   31.1960   47.4360 N   0  0  0  0  0  0  0  0  0  0  0  0
   39.8140   32.9500   46.0750 C   0  0  0  0  0  0  0  0  0  0  0  0
   40.3590   34.2080   46.3070 F   0  0  0  0  0  0  0  0  0  0  0  0
   38.9350   33.0980   45.0440 F   0  0  0  0  0  0  0  0  0  0  0  0
   40.8740   32.1370   45.7060 F   0  0  0  0  0  0  0  0  0  0  0  0
   33.8334   27.5639   50.0535 H   0  0  0  0  0  0  0  0  0  0  0  0
   36.0342   28.2865   50.8400 H   0  0  0  0  0  0  0  0  0  0  0  0
   36.3289   30.7139   47.3303 H   0  0  0  0  0  0  0  0  0  0  0  0
   31.9243   27.2365   49.6080 H   0  0  0  0  0  0  0  0  0  0  0  0
   32.7628   29.1893   45.9032 H   0  0  0  0  0  0  0  0  0  0  0  0
   29.0822   27.1660   46.5217 H   0  0  0  0  0  0  0  0  0  0  0  0
   37.9837   32.5605   50.2998 H   0  0  0  0  0  0  0  0  0  0  0  0
   39.1758   34.2194   48.5191 H   0  0  0  0  0  0  0  0  0  0  0  0
  1  2  2  0
  2  3  1  0
  4 13  1  0
  4  3  2  0
  5  4  1  0
  6  5  2  0
  6  1  1  0
  8  1  1  0
  8  7  2  0
  9  8  1  0
 10  9  2  0
 10 11  1  0
 11 12  2  0
 12  7  1  0
 14 15  1  0
 14 13  1  0
 16 15  2  0
 17 18  1  0
 17 16  1  0
 18 14  2  0
 19 20  1  0
 19 17  1  0
 21 19  1  0
 22 19  1  0
  2 23  1  0
  3 24  1  0
  5 25  1  0
  7 26  1  0
  9 27  1  0
 11 28  1  0
 15 29  1  0
 16 30  1  0
M  ISO  8  23  14  24  14  25  14  26  14  27  14  28  14  29  14  30  14
M  END
>  <minimizedAffinity>  (1) 
-6.06689072

>  <minimizedRMSD>  (1) 
0.845650077

$$$$
