
     RDKit          3D

 33 36  0  0  0  0  0  0  0  0999 V2000
   33.6420   28.4640   48.4550 C   0  0  0  0  0  0  0  0  0  0  0  0
   34.5470   28.0600   49.3720 C   0  0  0  0  0  0  0  0  0  0  0  0
   35.6320   28.8100   49.7950 C   0  0  0  0  0  0  0  0  0  0  0  0
   35.8350   30.0530   49.2700 C   0  0  0  0  0  0  0  0  0  0  0  0
   34.9000   30.4820   48.3170 C   0  0  0  0  0  0  0  0  0  0  0  0
   33.8700   29.6990   47.9530 N   0  0  0  0  0  0  0  0  0  0  0  0
   31.3100   27.5790   48.7230 C   0  0  0  0  0  0  0  0  0  0  0  0
   32.5230   27.6820   48.0230 C   0  0  0  0  0  0  0  0  0  0  0  0
   32.6090   26.9660   46.8370 C   0  0  0  0  0  0  0  0  0  0  0  0
   31.5290   26.2160   46.4300 N   0  0  0  0  0  0  0  0  0  0  0  0
   30.3970   26.1650   47.1550 C   0  0  0  0  0  0  0  0  0  0  0  0
   30.2740   26.8490   48.3140 N   0  0  0  0  0  0  0  0  0  0  0  0
   36.8660   30.9430   49.5760 O   0  0  0  0  0  0  0  0  0  0  0  0
   37.5940   31.5850   48.5870 C   0  0  0  0  0  0  0  0  0  0  0  0
   38.5060   32.5110   49.0520 C   0  0  0  0  0  0  0  0  0  0  0  0
   39.1550   33.0670   47.9540 C   0  0  0  0  0  0  0  0  0  0  0  0
   38.6260   32.4730   46.8760 N   0  0  0  0  0  0  0  0  0  0  0  0
   37.7190   31.6120   47.2580 N   0  0  0  0  0  0  0  0  0  0  0  0
   38.8440   32.5790   45.4510 C   0  0  0  0  0  0  0  0  0  0  0  0
   40.1570   32.8980   44.7230 C   0  0  0  0  0  0  0  0  0  0  0  0
   39.5430   32.8350   43.0240 S   0  0  0  0  0  0  0  0  0  0  0  0
   37.7530   32.4220   43.5050 C   0  0  0  0  0  0  0  0  0  0  0  0
   37.6990   32.3550   44.7990 N   0  0  0  0  0  0  0  0  0  0  0  0
   34.4128   27.0624   49.8155 H   0  0  0  0  0  0  0  0  0  0  0  0
   36.3247   28.4067   50.5484 H   0  0  0  0  0  0  0  0  0  0  0  0
   35.0114   31.4762   47.8596 H   0  0  0  0  0  0  0  0  0  0  0  0
   31.2094   28.1352   49.6667 H   0  0  0  0  0  0  0  0  0  0  0  0
   33.5267   26.9975   46.2313 H   0  0  0  0  0  0  0  0  0  0  0  0
   29.5548   25.5544   46.7974 H   0  0  0  0  0  0  0  0  0  0  0  0
   38.6879   32.7650   50.1067 H   0  0  0  0  0  0  0  0  0  0  0  0
   39.9411   33.8363   47.9682 H   0  0  0  0  0  0  0  0  0  0  0  0
   41.1641   33.1025   45.1153 H   0  0  0  0  0  0  0  0  0  0  0  0
   36.9134   32.2675   42.8113 H   0  0  0  0  0  0  0  0  0  0  0  0
  1  2  2  0
  2  3  1  0
  4 13  1  0
  4  3  2  0
  5  4  1  0
  6  5  2  0
  6  1  1  0
  8  1  1  0
  8  7  2  0
  9  8  1  0
 10  9  2  0
 10 11  1  0
 11 12  2  0
 12  7  1  0
 14 15  1  0
 14 13  1  0
 16 15  2  0
 17 18  1  0
 17 16  1  0
 18 14  2  0
 19 17  1  0
 20 19  2  0
 21 22  1  0
 21 20  1  0
 22 23  2  0
 23 19  1  0
  2 24  1  0
  3 25  1  0
  5 26  1  0
  7 27  1  0
  9 28  1  0
 11 29  1  0
 15 30  1  0
 16 31  1  0
 20 32  1  0
 22 33  1  0
M  ISO  8  24  14  25  14  26  14  27  14  28  14  29  14  30  14  31  14
M  ISO  2  32  14  33  14
M  END
>  <minimizedAffinity>  (1) 
-5.89768219

>  <minimizedRMSD>  (1) 
1.67017543

$$$$
