
     RDKit          3D

 40 43  0  0  0  0  0  0  0  0999 V2000
   36.6760   29.1730   49.3180 O   0  0  0  0  0  0  0  0  0  0  0  0
   32.5970   28.1500   49.0320 C   0  0  0  0  0  0  0  0  0  0  0  0
   33.0540   28.9530   50.0240 C   0  0  0  0  0  0  0  0  0  0  0  0
   34.3700   29.3320   50.1830 C   0  0  0  0  0  0  0  0  0  0  0  0
   35.3140   28.8890   49.3010 C   0  0  0  0  0  0  0  0  0  0  0  0
   34.8500   28.0560   48.2720 C   0  0  0  0  0  0  0  0  0  0  0  0
   33.5540   27.7140   48.1570 N   0  0  0  0  0  0  0  0  0  0  0  0
   30.2420   27.9500   49.8330 C   0  0  0  0  0  0  0  0  0  0  0  0
   31.2350   27.7500   48.8630 C   0  0  0  0  0  0  0  0  0  0  0  0
   30.8290   27.1330   47.7100 C   0  0  0  0  0  0  0  0  0  0  0  0
   29.5190   26.7480   47.5550 N   0  0  0  0  0  0  0  0  0  0  0  0
   28.6110   26.9730   48.5380 C   0  0  0  0  0  0  0  0  0  0  0  0
   28.9580   27.5710   49.6790 N   0  0  0  0  0  0  0  0  0  0  0  0
   37.2190   30.1970   48.5430 C   0  0  0  0  0  0  0  0  0  0  0  0
   37.2710   31.4180   49.2140 C   0  0  0  0  0  0  0  0  0  0  0  0
   37.8280   32.3400   48.3340 C   0  0  0  0  0  0  0  0  0  0  0  0
   38.0900   31.6690   47.1900 N   0  0  0  0  0  0  0  0  0  0  0  0
   37.7310   30.4180   47.3220 N   0  0  0  0  0  0  0  0  0  0  0  0
   38.1170   31.9450   44.7400 C   0  0  0  0  0  0  0  0  0  0  0  0
   38.6660   32.1990   46.0010 C   0  0  0  0  0  0  0  0  0  0  0  0
   39.7960   32.9780   46.1420 C   0  0  0  0  0  0  0  0  0  0  0  0
   40.4060   33.5260   45.0130 C   0  0  0  0  0  0  0  0  0  0  0  0
   39.8560   33.2690   43.7740 C   0  0  0  0  0  0  0  0  0  0  0  0
   38.7350   32.4960   43.6150 C   0  0  0  0  0  0  0  0  0  0  0  0
   36.6830   30.9460   44.6360 S   0  0  0  0  0  0  0  0  0  0  0  0
   37.0080   29.5600   44.1270 O   0  0  0  0  0  0  0  0  0  0  0  0
   35.7350   31.6010   43.6660 O   0  0  0  0  0  0  0  0  0  0  0  0
   32.3225   29.3291   50.7544 H   0  0  0  0  0  0  0  0  0  0  0  0
   34.6586   29.9886   51.0170 H   0  0  0  0  0  0  0  0  0  0  0  0
   35.5695   27.6698   47.5350 H   0  0  0  0  0  0  0  0  0  0  0  0
   30.5276   28.4445   50.7732 H   0  0  0  0  0  0  0  0  0  0  0  0
   31.5543   26.9448   46.9047 H   0  0  0  0  0  0  0  0  0  0  0  0
   27.5680   26.6560   48.3911 H   0  0  0  0  0  0  0  0  0  0  0  0
   36.9356   31.6147   50.2430 H   0  0  0  0  0  0  0  0  0  0  0  0
   38.0179   33.4055   48.5303 H   0  0  0  0  0  0  0  0  0  0  0  0
   40.2148   33.1665   47.1415 H   0  0  0  0  0  0  0  0  0  0  0  0
   41.3068   34.1500   45.1088 H   0  0  0  0  0  0  0  0  0  0  0  0
   40.3341   33.6997   42.8819 H   0  0  0  0  0  0  0  0  0  0  0  0
   38.3260   32.3114   42.6107 H   0  0  0  0  0  0  0  0  0  0  0  0
   36.1342   30.8257   45.8855 H   0  0  0  0  0  0  0  0  0  0  0  0
  2  3  2  0
  3  4  1  0
  5  1  1  0
  5  4  2  0
  6  5  1  0
  7  6  2  0
  7  2  1  0
  9  2  1  0
  9  8  2  0
 10  9  1  0
 11 10  2  0
 11 12  1  0
 12 13  2  0
 13  8  1  0
 14 15  1  0
 14  1  1  0
 16 15  2  0
 17 18  1  0
 17 16  1  0
 18 14  2  0
 19 20  2  0
 20 21  1  0
 20 17  1  0
 22 21  2  0
 23 22  1  0
 24 23  2  0
 24 19  1  0
 25 19  1  0
 26 25  2  0
 27 25  2  0
  3 28  1  0
  4 29  1  0
  6 30  1  0
  8 31  1  0
 10 32  1  0
 12 33  1  0
 15 34  1  0
 16 35  1  0
 21 36  1  0
 22 37  1  0
 23 38  1  0
 24 39  1  0
 25 40  1  0
M  ISO  8  28  14  29  14  30  14  31  14  32  14  33  14  34  14  35  14
M  ISO  5  36  14  37  14  38  14  39  14  40  11
M  END
>  <minimizedAffinity>  (1) 
-5.65010166

>  <minimizedRMSD>  (1) 
2.47353721

$$$$
