
     RDKit          3D

 27 27  0  0  0  0  0  0  0  0999 V2000
   38.4710   31.9900   47.7330 O   0  0  0  0  0  0  0  0  0  0  0  0
   38.6860   32.3300   46.4200 C   0  0  0  0  0  0  0  0  0  0  0  0
   39.9520   32.8320   46.1890 C   0  0  0  0  0  0  0  0  0  0  0  0
   40.3020   33.2190   44.8860 C   0  0  0  0  0  0  0  0  0  0  0  0
   39.3340   33.0650   43.9100 N   0  0  0  0  0  0  0  0  0  0  0  0
   38.1070   32.5690   44.1790 C   0  0  0  0  0  0  0  0  0  0  0  0
   37.8040   32.2100   45.4210 N   0  0  0  0  0  0  0  0  0  0  0  0
   37.1490   32.4480   43.0490 C   0  0  0  0  0  0  0  0  0  0  0  0
   37.7470   33.0990   41.8020 C   0  0  0  0  0  0  0  0  0  0  0  0
   37.3080   31.3200   48.0530 C   0  0  0  0  0  0  0  0  0  0  0  0
   37.8140   30.4190   48.9130 C   0  0  0  0  0  0  0  0  0  0  0  0
   38.1200   30.8810   50.2990 C   0  0  0  0  0  0  0  0  0  0  0  0
   37.2490   29.9330   51.5510 S   0  0  0  0  0  0  0  0  0  0  0  0
   40.6744   32.9270   47.0131 H   0  0  0  0  0  0  0  0  0  0  0  0
   41.2973   33.6249   44.6524 H   0  0  0  0  0  0  0  0  0  0  0  0
   36.9510   31.3847   42.8484 H   0  0  0  0  0  0  0  0  0  0  0  0
   36.2076   32.9533   43.3107 H   0  0  0  0  0  0  0  0  0  0  0  0
   38.4628   33.8783   42.1026 H   0  0  0  0  0  0  0  0  0  0  0  0
   38.2657   32.3360   41.2030 H   0  0  0  0  0  0  0  0  0  0  0  0
   36.9428   33.5512   41.2030 H   0  0  0  0  0  0  0  0  0  0  0  0
   36.5707   31.9799   48.5335 H   0  0  0  0  0  0  0  0  0  0  0  0
   36.7538   30.9007   47.2004 H   0  0  0  0  0  0  0  0  0  0  0  0
   37.0876   29.5969   48.9932 H   0  0  0  0  0  0  0  0  0  0  0  0
   38.7912   30.1461   48.4880 H   0  0  0  0  0  0  0  0  0  0  0  0
   39.2019   30.7831   50.4722 H   0  0  0  0  0  0  0  0  0  0  0  0
   37.7887   31.9266   50.3824 H   0  0  0  0  0  0  0  0  0  0  0  0
   37.6368   30.3551   52.7953 H   0  0  0  0  0  0  0  0  0  0  0  0
  1 10  1  0
  2  1  1  0
  3  2  2  0
  4  3  1  0
  5  6  1  0
  5  4  2  0
  6  7  2  0
  7  2  1  0
  8  6  1  0
  9  8  1  0
 10 11  1  0
 11 12  1  0
 12 13  1  0
  3 14  1  0
  4 15  1  0
  8 16  1  0
  8 17  1  0
  9 18  1  0
  9 19  1  0
  9 20  1  0
 10 21  1  0
 10 22  1  0
 11 23  1  0
 11 24  1  0
 12 25  1  0
 12 26  1  0
 13 27  1  0
M  ISO  8  14  14  15  14  16   8  17   8  18   8  19   8  20   8  21   8
M  ISO  6  22   8  23   8  24   8  25   8  26   8  27  11
M  END
>  <minimizedAffinity>  (1) 
-3.81203842

>  <minimizedRMSD>  (1) 
0.399114758

$$$$
