
     RDKit          3D

 40 43  0  0  0  0  0  0  0  0999 V2000
   38.1780   31.5390   48.9360 C   0  0  0  0  0  0  0  0  0  0  0  0
   38.4100   32.8210   49.4400 C   0  0  0  0  0  0  0  0  0  0  0  0
   39.1040   33.5190   48.4580 C   0  0  0  0  0  0  0  0  0  0  0  0
   39.2690   32.6890   47.4330 N   0  0  0  0  0  0  0  0  0  0  0  0
   38.7240   31.5200   47.7130 N   0  0  0  0  0  0  0  0  0  0  0  0
   39.9440   33.0170   46.2000 C   0  0  0  0  0  0  0  0  0  0  0  0
   39.0150   32.6730   45.0520 C   0  0  0  0  0  0  0  0  0  0  0  0
   39.4270   31.4130   44.3830 C   0  0  0  0  0  0  0  0  0  0  0  0
   39.1890   30.0660   44.4910 C   0  0  0  0  0  0  0  0  0  0  0  0
   39.8870   29.4070   43.5530 N   0  0  0  0  0  0  0  0  0  0  0  0
   40.5620   30.3400   42.8590 C   0  0  0  0  0  0  0  0  0  0  0  0
   40.2930   31.5630   43.3500 N   0  0  0  0  0  0  0  0  0  0  0  0
   37.4920   30.7090   49.7950 O   0  0  0  0  0  0  0  0  0  0  0  0
   33.9630   28.8640   48.3950 C   0  0  0  0  0  0  0  0  0  0  0  0
   34.6980   28.3100   49.4080 C   0  0  0  0  0  0  0  0  0  0  0  0
   35.8580   28.8580   49.9140 C   0  0  0  0  0  0  0  0  0  0  0  0
   36.3460   30.0220   49.4090 C   0  0  0  0  0  0  0  0  0  0  0  0
   35.5990   30.5940   48.3700 C   0  0  0  0  0  0  0  0  0  0  0  0
   34.4650   30.0340   47.8950 N   0  0  0  0  0  0  0  0  0  0  0  0
   31.9460   27.4120   48.5890 C   0  0  0  0  0  0  0  0  0  0  0  0
   32.7680   28.2840   47.8780 C   0  0  0  0  0  0  0  0  0  0  0  0
   32.3820   28.5870   46.5940 C   0  0  0  0  0  0  0  0  0  0  0  0
   31.2380   28.0410   46.0660 N   0  0  0  0  0  0  0  0  0  0  0  0
   30.4800   27.1970   46.8080 C   0  0  0  0  0  0  0  0  0  0  0  0
   30.8210   26.8670   48.0830 N   0  0  0  0  0  0  0  0  0  0  0  0
   38.1028   33.2044   50.4242 H   0  0  0  0  0  0  0  0  0  0  0  0
   39.4509   34.5611   48.5180 H   0  0  0  0  0  0  0  0  0  0  0  0
   40.1820   34.0907   46.1788 H   0  0  0  0  0  0  0  0  0  0  0  0
   40.8827   32.4498   46.1154 H   0  0  0  0  0  0  0  0  0  0  0  0
   37.9931   32.5543   45.4413 H   0  0  0  0  0  0  0  0  0  0  0  0
   39.0584   33.4878   44.3143 H   0  0  0  0  0  0  0  0  0  0  0  0
   38.5266   29.5973   45.2337 H   0  0  0  0  0  0  0  0  0  0  0  0
   39.9025   28.3891   43.3960 H   0  0  0  0  0  0  0  0  0  0  0  0
   41.2352   30.1335   42.0139 H   0  0  0  0  0  0  0  0  0  0  0  0
   34.3404   27.3668   49.8468 H   0  0  0  0  0  0  0  0  0  0  0  0
   36.3915   28.3502   50.7310 H   0  0  0  0  0  0  0  0  0  0  0  0
   35.9500   31.5361   47.9237 H   0  0  0  0  0  0  0  0  0  0  0  0
   32.2304   27.1539   49.6198 H   0  0  0  0  0  0  0  0  0  0  0  0
   32.9929   29.2706   45.9861 H   0  0  0  0  0  0  0  0  0  0  0  0
   29.5671   26.7686   46.3686 H   0  0  0  0  0  0  0  0  0  0  0  0
  1  2  1  0
  1 13  1  0
  3  2  2  0
  4  5  1  0
  4  3  1  0
  5  1  2  0
  6  4  1  0
  7  6  1  0
  8  9  2  0
  8  7  1  0
 10  9  1  0
 11 12  2  0
 11 10  1  0
 12  8  1  0
 14 15  2  0
 15 16  1  0
 17 13  1  0
 17 16  2  0
 18 17  1  0
 19 18  2  0
 19 14  1  0
 21 14  1  0
 21 20  2  0
 22 21  1  0
 23 22  2  0
 23 24  1  0
 24 25  2  0
 25 20  1  0
  2 26  1  0
  3 27  1  0
  6 28  1  0
  6 29  1  0
  7 30  1  0
  7 31  1  0
  9 32  1  0
 10 33  1  0
 11 34  1  0
 15 35  1  0
 16 36  1  0
 18 37  1  0
 20 38  1  0
 22 39  1  0
 24 40  1  0
M  ISO  8  26  14  27  14  28   8  29   8  30   8  31   8  32  14  33   9
M  ISO  7  34  14  35  14  36  14  37  14  38  14  39  14  40  14
M  END
>  <minimizedAffinity>  (1) 
-6.13001013

>  <minimizedRMSD>  (1) 
2.02854657

$$$$
