
     RDKit          3D

 44 46  0  0  0  0  0  0  0  0999 V2000
   35.3220   30.4240   49.4750 C   0  0  0  0  0  0  0  0  0  0  0  0
   38.2050   31.5910   48.9670 Br  0  0  0  0  0  0  0  0  0  0  0  0
   36.9580   30.9460   47.6490 C   0  0  0  0  0  0  0  0  0  0  0  0
   37.2850   30.9590   46.3110 C   0  0  0  0  0  0  0  0  0  0  0  0
   36.3620   30.5010   45.4220 C   0  0  0  0  0  0  0  0  0  0  0  0
   35.1190   30.0280   45.8190 C   0  0  0  0  0  0  0  0  0  0  0  0
   34.8220   30.0290   47.1830 C   0  0  0  0  0  0  0  0  0  0  0  0
   35.7470   30.4880   48.0790 C   0  0  0  0  0  0  0  0  0  0  0  0
   39.8070   33.2640   45.0150 C   0  0  0  0  0  0  0  0  0  0  0  0
   41.0010   32.4770   44.9940 C   0  0  0  0  0  0  0  0  0  0  0  0
   40.8980   31.1720   45.4290 C   0  0  0  0  0  0  0  0  0  0  0  0
   39.6870   30.6790   45.8580 N   0  0  0  0  0  0  0  0  0  0  0  0
   38.5910   31.4610   45.8580 C   0  0  0  0  0  0  0  0  0  0  0  0
   38.6670   32.7330   45.4390 N   0  0  0  0  0  0  0  0  0  0  0  0
   34.2770   29.4260   49.8160 C   0  0  0  0  0  0  0  0  0  0  0  0
   34.6820   28.1450   49.3860 N   0  0  0  0  0  0  0  0  0  0  0  0
   33.7330   27.3520   48.6880 C   0  0  0  0  0  0  0  0  0  0  0  0
   32.3770   27.9210   48.9400 C   0  0  0  0  0  0  0  0  0  0  0  0
   29.3260   27.9900   49.7860 Br  0  0  0  0  0  0  0  0  0  0  0  0
   30.0890   27.2070   48.2060 C   0  0  0  0  0  0  0  0  0  0  0  0
   31.4380   27.2400   47.9340 C   0  0  0  0  0  0  0  0  0  0  0  0
   31.8940   26.6580   46.7750 C   0  0  0  0  0  0  0  0  0  0  0  0
   30.9610   26.0700   45.9500 C   0  0  0  0  0  0  0  0  0  0  0  0
   29.6080   26.0310   46.2130 C   0  0  0  0  0  0  0  0  0  0  0  0
   29.1420   26.6220   47.3920 C   0  0  0  0  0  0  0  0  0  0  0  0
   34.9355   31.4164   49.7501 H   0  0  0  0  0  0  0  0  0  0  0  0
   36.2153   30.1039   50.0313 H   0  0  0  0  0  0  0  0  0  0  0  0
   36.6100   30.5058   44.3503 H   0  0  0  0  0  0  0  0  0  0  0  0
   34.3896   29.6632   45.0808 H   0  0  0  0  0  0  0  0  0  0  0  0
   33.8470   29.6617   47.5357 H   0  0  0  0  0  0  0  0  0  0  0  0
   39.8336   34.3111   44.6792 H   0  0  0  0  0  0  0  0  0  0  0  0
   41.9581   32.8934   44.6467 H   0  0  0  0  0  0  0  0  0  0  0  0
   41.7865   30.5235   45.4330 H   0  0  0  0  0  0  0  0  0  0  0  0
   34.1246   29.4144   50.9053 H   0  0  0  0  0  0  0  0  0  0  0  0
   33.3371   29.6978   49.3134 H   0  0  0  0  0  0  0  0  0  0  0  0
   35.4936   28.2715   48.7645 H   0  0  0  0  0  0  0  0  0  0  0  0
   33.7752   26.3145   49.0512 H   0  0  0  0  0  0  0  0  0  0  0  0
   33.9531   27.3557   47.6102 H   0  0  0  0  0  0  0  0  0  0  0  0
   32.0566   27.7034   49.9696 H   0  0  0  0  0  0  0  0  0  0  0  0
   32.3706   29.0145   48.8204 H   0  0  0  0  0  0  0  0  0  0  0  0
   32.9632   26.6618   46.5164 H   0  0  0  0  0  0  0  0  0  0  0  0
   31.3183   25.6012   45.0213 H   0  0  0  0  0  0  0  0  0  0  0  0
   28.9118   25.5467   45.5124 H   0  0  0  0  0  0  0  0  0  0  0  0
   28.0743   26.6202   47.6565 H   0  0  0  0  0  0  0  0  0  0  0  0
  1 15  1  0
  3  8  2  0
  3  2  1  0
  4  3  1  0
  5  6  1  0
  5  4  2  0
  6  7  2  0
  7  8  1  0
  8  1  1  0
  9 14  2  0
 10  9  1  0
 10 11  2  0
 11 12  1  0
 12 13  2  0
 13  4  1  0
 14 13  1  0
 16 15  1  0
 17 18  1  0
 17 16  1  0
 20 19  1  0
 21 20  2  0
 21 18  1  0
 22 21  1  0
 23 24  1  0
 23 22  2  0
 24 25  2  0
 25 20  1  0
  1 26  1  0
  1 27  1  0
  5 28  1  0
  6 29  1  0
  7 30  1  0
  9 31  1  0
 10 32  1  0
 11 33  1  0
 15 34  1  0
 15 35  1  0
 16 36  1  0
 17 37  1  0
 17 38  1  0
 18 39  1  0
 18 40  1  0
 22 41  1  0
 23 42  1  0
 24 43  1  0
 25 44  1  0
M  ISO  8  26   8  27   8  28  14  29  14  30  14  31  14  32  14  33  14
M  ISO  8  34   8  35   8  36   5  37   8  38   8  39   8  40   8  41  14
M  ISO  3  42  14  43  14  44  14
M  END
>  <minimizedAffinity>  (1) 
-5.67687511

>  <minimizedRMSD>  (1) 
0.635207951

$$$$
