
     RDKit          3D

 35 37  0  0  0  0  0  0  0  0999 V2000
   33.9600   28.8480   48.3670 C   0  0  0  0  0  0  0  0  0  0  0  0
   34.7070   28.3010   49.3710 C   0  0  0  0  0  0  0  0  0  0  0  0
   35.8750   28.8460   49.8630 C   0  0  0  0  0  0  0  0  0  0  0  0
   36.3580   30.0110   49.3440 C   0  0  0  0  0  0  0  0  0  0  0  0
   35.5990   30.5800   48.3160 C   0  0  0  0  0  0  0  0  0  0  0  0
   34.4670   30.0070   47.8740 N   0  0  0  0  0  0  0  0  0  0  0  0
   31.9390   27.4080   48.5790 C   0  0  0  0  0  0  0  0  0  0  0  0
   32.7560   28.2850   47.8620 C   0  0  0  0  0  0  0  0  0  0  0  0
   32.3430   28.6000   46.5940 C   0  0  0  0  0  0  0  0  0  0  0  0
   31.1860   28.0700   46.0810 N   0  0  0  0  0  0  0  0  0  0  0  0
   30.4360   27.2240   46.8300 C   0  0  0  0  0  0  0  0  0  0  0  0
   30.7980   26.8780   48.0930 N   0  0  0  0  0  0  0  0  0  0  0  0
   37.5060   30.6910   49.7180 O   0  0  0  0  0  0  0  0  0  0  0  0
   38.1990   31.5050   48.8440 C   0  0  0  0  0  0  0  0  0  0  0  0
   38.4370   32.7770   49.3280 C   0  0  0  0  0  0  0  0  0  0  0  0
   39.1370   33.4690   48.3370 C   0  0  0  0  0  0  0  0  0  0  0  0
   39.2910   32.6080   47.3160 N   0  0  0  0  0  0  0  0  0  0  0  0
   38.7460   31.4650   47.6070 N   0  0  0  0  0  0  0  0  0  0  0  0
   39.9720   32.9170   46.0630 C   0  0  0  0  0  0  0  0  0  0  0  0
   40.0950   31.6130   45.2950 C   0  0  0  0  0  0  0  0  0  0  0  0
   41.1350   30.7730   45.7960 N   0  0  0  0  0  0  0  0  0  0  0  0
   34.3528   27.3606   49.8184 H   0  0  0  0  0  0  0  0  0  0  0  0
   36.4176   28.3401   50.6752 H   0  0  0  0  0  0  0  0  0  0  0  0
   35.9377   31.5209   47.8576 H   0  0  0  0  0  0  0  0  0  0  0  0
   32.2439   27.1335   49.5996 H   0  0  0  0  0  0  0  0  0  0  0  0
   32.9459   29.2856   45.9804 H   0  0  0  0  0  0  0  0  0  0  0  0
   29.5112   26.8074   46.4042 H   0  0  0  0  0  0  0  0  0  0  0  0
   38.1326   33.1706   50.3090 H   0  0  0  0  0  0  0  0  0  0  0  0
   39.4911   34.5094   48.3827 H   0  0  0  0  0  0  0  0  0  0  0  0
   39.3849   33.6440   45.4826 H   0  0  0  0  0  0  0  0  0  0  0  0
   40.9619   33.3582   46.2512 H   0  0  0  0  0  0  0  0  0  0  0  0
   40.3071   31.8445   44.2407 H   0  0  0  0  0  0  0  0  0  0  0  0
   39.1455   31.0696   45.4099 H   0  0  0  0  0  0  0  0  0  0  0  0
   41.1200   30.7851   46.8258 H   0  0  0  0  0  0  0  0  0  0  0  0
   40.9892   29.8097   45.4618 H   0  0  0  0  0  0  0  0  0  0  0  0
  1  2  2  0
  2  3  1  0
  4 13  1  0
  4  3  2  0
  5  4  1  0
  6  5  2  0
  6  1  1  0
  8  1  1  0
  8  7  2  0
  9  8  1  0
 10  9  2  0
 10 11  1  0
 11 12  2  0
 12  7  1  0
 14 15  1  0
 14 13  1  0
 16 15  2  0
 17 18  1  0
 17 16  1  0
 18 14  2  0
 19 17  1  0
 20 21  1  0
 20 19  1  0
  2 22  1  0
  3 23  1  0
  5 24  1  0
  7 25  1  0
  9 26  1  0
 11 27  1  0
 15 28  1  0
 16 29  1  0
 19 30  1  0
 19 31  1  0
 20 32  1  0
 20 33  1  0
 21 34  1  0
 21 35  1  0
M  ISO  8  22  14  23  14  24  14  25  14  26  14  27  14  28  14  29  14
M  ISO  6  30   8  31   8  32   8  33   8  34   5  35   5
M  END
>  <minimizedAffinity>  (1) 
-5.71153736

>  <minimizedRMSD>  (1) 
0.375020474

$$$$
