
     RDKit          3D

 34 36  0  0  0  0  0  0  0  0999 V2000
   33.9550   28.8220   48.3650 C   0  0  0  0  0  0  0  0  0  0  0  0
   34.6490   28.2950   49.3930 C   0  0  0  0  0  0  0  0  0  0  0  0
   35.8370   28.7990   49.8790 C   0  0  0  0  0  0  0  0  0  0  0  0
   36.3860   29.9100   49.3080 C   0  0  0  0  0  0  0  0  0  0  0  0
   35.6760   30.4660   48.2440 C   0  0  0  0  0  0  0  0  0  0  0  0
   34.5260   29.9290   47.8180 N   0  0  0  0  0  0  0  0  0  0  0  0
   31.9170   27.4010   48.5510 C   0  0  0  0  0  0  0  0  0  0  0  0
   32.7360   28.2900   47.8460 C   0  0  0  0  0  0  0  0  0  0  0  0
   32.3240   28.6360   46.5770 C   0  0  0  0  0  0  0  0  0  0  0  0
   31.1680   28.1170   46.0640 N   0  0  0  0  0  0  0  0  0  0  0  0
   30.4150   27.2590   46.7930 C   0  0  0  0  0  0  0  0  0  0  0  0
   30.7740   26.8890   48.0410 N   0  0  0  0  0  0  0  0  0  0  0  0
   37.5750   30.5500   49.6690 O   0  0  0  0  0  0  0  0  0  0  0  0
   38.2290   31.4100   48.8100 C   0  0  0  0  0  0  0  0  0  0  0  0
   38.4200   32.6720   49.3380 C   0  0  0  0  0  0  0  0  0  0  0  0
   39.0880   33.4280   48.3670 C   0  0  0  0  0  0  0  0  0  0  0  0
   39.2730   32.6110   47.3080 N   0  0  0  0  0  0  0  0  0  0  0  0
   38.7720   31.4370   47.5700 N   0  0  0  0  0  0  0  0  0  0  0  0
   39.9300   32.9830   46.0720 C   0  0  0  0  0  0  0  0  0  0  0  0
   40.5690   31.7190   45.5160 C   0  0  0  0  0  0  0  0  0  0  0  0
   40.6270   31.7500   44.1270 O   0  0  0  0  0  0  0  0  0  0  0  0
   34.2382   27.3981   49.8795 H   0  0  0  0  0  0  0  0  0  0  0  0
   36.3404   28.3070   50.7243 H   0  0  0  0  0  0  0  0  0  0  0  0
   36.0689   31.3640   47.7447 H   0  0  0  0  0  0  0  0  0  0  0  0
   32.2168   27.1049   49.5671 H   0  0  0  0  0  0  0  0  0  0  0  0
   32.9271   29.3318   45.9753 H   0  0  0  0  0  0  0  0  0  0  0  0
   29.4893   26.8541   46.3582 H   0  0  0  0  0  0  0  0  0  0  0  0
   38.1063   33.0180   50.3339 H   0  0  0  0  0  0  0  0  0  0  0  0
   39.4003   34.4794   48.4504 H   0  0  0  0  0  0  0  0  0  0  0  0
   39.1948   33.3815   45.3574 H   0  0  0  0  0  0  0  0  0  0  0  0
   40.6854   33.7634   46.2460 H   0  0  0  0  0  0  0  0  0  0  0  0
   41.5900   31.6285   45.9151 H   0  0  0  0  0  0  0  0  0  0  0  0
   39.9547   30.8581   45.8183 H   0  0  0  0  0  0  0  0  0  0  0  0
   41.4630   32.1968   43.8415 H   0  0  0  0  0  0  0  0  0  0  0  0
  1  2  2  0
  2  3  1  0
  4 13  1  0
  4  3  2  0
  5  4  1  0
  6  5  2  0
  6  1  1  0
  8  1  1  0
  8  7  2  0
  9  8  1  0
 10  9  2  0
 10 11  1  0
 11 12  2  0
 12  7  1  0
 14 15  1  0
 14 13  1  0
 16 15  2  0
 17 18  1  0
 17 16  1  0
 18 14  2  0
 19 17  1  0
 20 19  1  0
 21 20  1  0
  2 22  1  0
  3 23  1  0
  5 24  1  0
  7 25  1  0
  9 26  1  0
 11 27  1  0
 15 28  1  0
 16 29  1  0
 19 30  1  0
 19 31  1  0
 20 32  1  0
 20 33  1  0
 21 34  1  0
M  ISO  8  22  14  23  14  24  14  25  14  26  14  27  14  28  14  29  14
M  ISO  5  30   8  31   8  32   8  33   8  34   3
M  END
>  <minimizedAffinity>  (1) 
-5.4499321

>  <minimizedRMSD>  (1) 
0.28369236

$$$$
