
     RDKit          3D

 30 32  0  0  0  0  0  0  0  0999 V2000
   37.3190   29.3560   51.0990 Br  0  0  0  0  0  0  0  0  0  0  0  0
   35.9850   29.3070   49.7410 C   0  0  0  0  0  0  0  0  0  0  0  0
   36.0050   30.2000   48.6900 C   0  0  0  0  0  0  0  0  0  0  0  0
   35.0060   30.1190   47.7270 C   0  0  0  0  0  0  0  0  0  0  0  0
   33.9970   29.1640   47.8030 C   0  0  0  0  0  0  0  0  0  0  0  0
   34.0000   28.2900   48.8570 C   0  0  0  0  0  0  0  0  0  0  0  0
   34.9880   28.3660   49.8140 C   0  0  0  0  0  0  0  0  0  0  0  0
   37.9580   33.1860   49.4490 C   0  0  0  0  0  0  0  0  0  0  0  0
   38.9980   33.1720   48.4720 C   0  0  0  0  0  0  0  0  0  0  0  0
   38.9980   32.1150   47.5630 C   0  0  0  0  0  0  0  0  0  0  0  0
   38.0220   31.1560   47.6430 N   0  0  0  0  0  0  0  0  0  0  0  0
   37.0580   31.2160   48.5880 C   0  0  0  0  0  0  0  0  0  0  0  0
   37.0220   32.2310   49.4950 N   0  0  0  0  0  0  0  0  0  0  0  0
   31.3050   27.6060   48.2720 Br  0  0  0  0  0  0  0  0  0  0  0  0
   31.7890   28.5920   46.7250 C   0  0  0  0  0  0  0  0  0  0  0  0
   33.0220   29.2060   46.7190 C   0  0  0  0  0  0  0  0  0  0  0  0
   33.3690   29.9310   45.5750 C   0  0  0  0  0  0  0  0  0  0  0  0
   32.4780   30.0090   44.5010 C   0  0  0  0  0  0  0  0  0  0  0  0
   31.2500   29.3840   44.5370 C   0  0  0  0  0  0  0  0  0  0  0  0
   30.9140   28.6710   45.6690 C   0  0  0  0  0  0  0  0  0  0  0  0
   35.0133   30.8267   46.8849 H   0  0  0  0  0  0  0  0  0  0  0  0
   33.2126   27.5263   48.9397 H   0  0  0  0  0  0  0  0  0  0  0  0
   34.9779   27.6572   50.6551 H   0  0  0  0  0  0  0  0  0  0  0  0
   37.9249   34.0038   50.1839 H   0  0  0  0  0  0  0  0  0  0  0  0
   39.7651   33.9597   48.4377 H   0  0  0  0  0  0  0  0  0  0  0  0
   39.7754   32.0511   46.7874 H   0  0  0  0  0  0  0  0  0  0  0  0
   34.3427   30.4397   45.5202 H   0  0  0  0  0  0  0  0  0  0  0  0
   32.7633   30.5823   43.6066 H   0  0  0  0  0  0  0  0  0  0  0  0
   30.5565   29.4520   43.6858 H   0  0  0  0  0  0  0  0  0  0  0  0
   29.9401   28.1629   45.7264 H   0  0  0  0  0  0  0  0  0  0  0  0
  2  7  2  0
  2  1  1  0
  3  2  1  0
  4  5  1  0
  4  3  2  0
  5  6  2  0
  6  7  1  0
  8 13  2  0
  9  8  1  0
 10 11  1  0
 10  9  2  0
 11 12  2  0
 12  3  1  0
 12 13  1  0
 15 14  1  0
 16 15  2  0
 16  5  1  0
 17 16  1  0
 18 19  1  0
 18 17  2  0
 19 20  2  0
 20 15  1  0
  4 21  1  0
  6 22  1  0
  7 23  1  0
  8 24  1  0
  9 25  1  0
 10 26  1  0
 17 27  1  0
 18 28  1  0
 19 29  1  0
 20 30  1  0
M  ISO  8  21  14  22  14  23  14  24  14  25  14  26  14  27  14  28  14
M  ISO  2  29  14  30  14
M  END
>  <minimizedAffinity>  (1) 
-6.17288494

>  <minimizedRMSD>  (1) 
0.255968302

$$$$
