
     RDKit          3D

 30 32  0  0  0  0  0  0  0  0999 V2000
   37.3240   29.3230   51.0150 Br  0  0  0  0  0  0  0  0  0  0  0  0
   35.9740   29.3350   49.6720 C   0  0  0  0  0  0  0  0  0  0  0  0
   35.9860   30.2700   48.6570 C   0  0  0  0  0  0  0  0  0  0  0  0
   34.9680   30.2230   47.7140 C   0  0  0  0  0  0  0  0  0  0  0  0
   33.9550   29.2870   47.7510 C   0  0  0  0  0  0  0  0  0  0  0  0
   33.9690   28.3730   48.7690 C   0  0  0  0  0  0  0  0  0  0  0  0
   34.9710   28.4060   49.7130 C   0  0  0  0  0  0  0  0  0  0  0  0
   37.9970   33.2010   49.4680 C   0  0  0  0  0  0  0  0  0  0  0  0
   39.0290   33.2000   48.4980 C   0  0  0  0  0  0  0  0  0  0  0  0
   39.0080   32.1690   47.5700 C   0  0  0  0  0  0  0  0  0  0  0  0
   38.0180   31.2210   47.6270 N   0  0  0  0  0  0  0  0  0  0  0  0
   37.0430   31.2710   48.5880 C   0  0  0  0  0  0  0  0  0  0  0  0
   37.0470   32.2610   49.4950 N   0  0  0  0  0  0  0  0  0  0  0  0
   32.9100   29.2760   46.7400 C   0  0  0  0  0  0  0  0  0  0  0  0
   32.6760   30.5000   46.1030 C   0  0  0  0  0  0  0  0  0  0  0  0
   31.7110   30.6280   45.1240 C   0  0  0  0  0  0  0  0  0  0  0  0
   30.9530   29.5400   44.7530 C   0  0  0  0  0  0  0  0  0  0  0  0
   31.1820   28.3190   45.3830 C   0  0  0  0  0  0  0  0  0  0  0  0
   32.1500   28.1890   46.3680 C   0  0  0  0  0  0  0  0  0  0  0  0
   34.9692   30.9647   46.9016 H   0  0  0  0  0  0  0  0  0  0  0  0
   33.1786   27.6106   48.8335 H   0  0  0  0  0  0  0  0  0  0  0  0
   34.9646   27.6631   50.5242 H   0  0  0  0  0  0  0  0  0  0  0  0
   37.9766   34.0007   50.2231 H   0  0  0  0  0  0  0  0  0  0  0  0
   39.8074   33.9770   48.4813 H   0  0  0  0  0  0  0  0  0  0  0  0
   39.7826   32.1118   46.7911 H   0  0  0  0  0  0  0  0  0  0  0  0
   33.2735   31.3784   46.3883 H   0  0  0  0  0  0  0  0  0  0  0  0
   31.5473   31.6017   44.6391 H   0  0  0  0  0  0  0  0  0  0  0  0
   30.1817   29.6332   43.9743 H   0  0  0  0  0  0  0  0  0  0  0  0
   30.5843   27.4419   45.0942 H   0  0  0  0  0  0  0  0  0  0  0  0
   32.3112   27.2151   46.8534 H   0  0  0  0  0  0  0  0  0  0  0  0
  2  7  2  0
  2  1  1  0
  3  2  1  0
  4  5  1  0
  4  3  2  0
  5  6  2  0
  6  7  1  0
  8 13  2  0
  9  8  1  0
 10 11  1  0
 10  9  2  0
 11 12  2  0
 12  3  1  0
 12 13  1  0
 14  5  1  0
 15 14  2  0
 16 15  1  0
 17 16  2  0
 17 18  1  0
 18 19  2  0
 19 14  1  0
  4 20  1  0
  6 21  1  0
  7 22  1  0
  8 23  1  0
  9 24  1  0
 10 25  1  0
 15 26  1  0
 16 27  1  0
 17 28  1  0
 18 29  1  0
 19 30  1  0
M  ISO  8  20  14  21  14  22  14  23  14  24  14  25  14  26  14  27  14
M  ISO  3  28  14  29  14  30  14
M  END
>  <minimizedAffinity>  (1) 
-5.96116924

>  <minimizedRMSD>  (1) 
0.220723554

$$$$
