
     RDKit          3D

 25 25  0  0  0  0  0  0  0  0999 V2000
   38.6700   32.3090   46.4260 C   0  0  0  0  0  0  0  0  0  0  0  0
   39.9360   32.8180   46.2270 C   0  0  0  0  0  0  0  0  0  0  0  0
   40.3230   33.2340   44.9380 C   0  0  0  0  0  0  0  0  0  0  0  0
   39.3820   33.0980   43.9440 N   0  0  0  0  0  0  0  0  0  0  0  0
   38.1310   32.5870   44.1760 C   0  0  0  0  0  0  0  0  0  0  0  0
   37.8040   32.2040   45.4110 N   0  0  0  0  0  0  0  0  0  0  0  0
   37.7660   32.9470   41.8430 C   0  0  0  0  0  0  0  0  0  0  0  0
   38.9330   33.4180   41.6510 O   0  0  0  0  0  0  0  0  0  0  0  0
   37.2260   32.4860   43.0800 N   0  0  0  0  0  0  0  0  0  0  0  0
   38.4560   31.9520   47.7340 O   0  0  0  0  0  0  0  0  0  0  0  0
   37.2920   31.2820   48.0340 C   0  0  0  0  0  0  0  0  0  0  0  0
   37.7960   30.4050   48.9150 C   0  0  0  0  0  0  0  0  0  0  0  0
   38.1050   30.8720   50.2990 C   0  0  0  0  0  0  0  0  0  0  0  0
   37.2510   29.9340   51.5570 S   0  0  0  0  0  0  0  0  0  0  0  0
   40.6390   32.8987   47.0692 H   0  0  0  0  0  0  0  0  0  0  0  0
   41.3233   33.6452   44.7373 H   0  0  0  0  0  0  0  0  0  0  0  0
   37.1063   32.8897   40.9646 H   0  0  0  0  0  0  0  0  0  0  0  0
   36.2699   32.1143   43.1726 H   0  0  0  0  0  0  0  0  0  0  0  0
   36.5383   31.9415   48.4890 H   0  0  0  0  0  0  0  0  0  0  0  0
   36.7537   30.8478   47.1786 H   0  0  0  0  0  0  0  0  0  0  0  0
   37.0694   29.5841   49.0056 H   0  0  0  0  0  0  0  0  0  0  0  0
   38.7793   30.1437   48.4970 H   0  0  0  0  0  0  0  0  0  0  0  0
   39.1881   30.7793   50.4669 H   0  0  0  0  0  0  0  0  0  0  0  0
   37.7659   31.9154   50.3784 H   0  0  0  0  0  0  0  0  0  0  0  0
   37.6450   30.3668   52.7957 H   0  0  0  0  0  0  0  0  0  0  0  0
  1 10  1  0
  2  1  2  0
  3  2  1  0
  4  5  1  0
  4  3  2  0
  5  6  2  0
  6  1  1  0
  7  9  1  0
  8  7  2  0
  9  5  1  0
 10 11  1  0
 11 12  1  0
 12 13  1  0
 13 14  1  0
  2 15  1  0
  3 16  1  0
  7 17  1  0
  9 18  1  0
 11 19  1  0
 11 20  1  0
 12 21  1  0
 12 22  1  0
 13 23  1  0
 13 24  1  0
 14 25  1  0
M  ISO  8  15  14  16  14  17   6  19   8  20   8  21   8  22   8  23   8
M  ISO  2  24   8  25  11
M  END
>  <minimizedAffinity>  (1) 
-4.14830303

>  <minimizedRMSD>  (1) 
0.263706565

$$$$
