
     RDKit          3D

 32 34  0  0  0  0  0  0  0  0999 V2000
   37.3120   29.3190   51.0450 Br  0  0  0  0  0  0  0  0  0  0  0  0
   35.9400   29.3200   49.7030 C   0  0  0  0  0  0  0  0  0  0  0  0
   35.9660   30.2360   48.6740 C   0  0  0  0  0  0  0  0  0  0  0  0
   34.9450   30.1790   47.7400 C   0  0  0  0  0  0  0  0  0  0  0  0
   33.9280   29.2590   47.8030 C   0  0  0  0  0  0  0  0  0  0  0  0
   33.9290   28.3630   48.8340 C   0  0  0  0  0  0  0  0  0  0  0  0
   34.9460   28.3970   49.7900 C   0  0  0  0  0  0  0  0  0  0  0  0
   37.9840   33.1810   49.4330 C   0  0  0  0  0  0  0  0  0  0  0  0
   39.0180   33.1440   48.4470 C   0  0  0  0  0  0  0  0  0  0  0  0
   38.9930   32.0880   47.5310 C   0  0  0  0  0  0  0  0  0  0  0  0
   37.9960   31.1620   47.6260 N   0  0  0  0  0  0  0  0  0  0  0  0
   37.0360   31.2330   48.5760 C   0  0  0  0  0  0  0  0  0  0  0  0
   37.0350   32.2400   49.4720 N   0  0  0  0  0  0  0  0  0  0  0  0
   32.9070   29.2500   46.8140 N   0  0  0  0  0  0  0  0  0  0  0  0
   32.5210   30.3440   45.9480 C   0  0  0  0  0  0  0  0  0  0  0  0
   31.7330   29.6650   44.8190 C   0  0  0  0  0  0  0  0  0  0  0  0
   30.9480   28.6320   45.6390 C   0  0  0  0  0  0  0  0  0  0  0  0
   32.0580   28.0920   46.5100 C   0  0  0  0  0  0  0  0  0  0  0  0
   34.9491   30.9025   46.9115 H   0  0  0  0  0  0  0  0  0  0  0  0
   33.1275   27.6136   48.9112 H   0  0  0  0  0  0  0  0  0  0  0  0
   34.9428   27.6729   50.6181 H   0  0  0  0  0  0  0  0  0  0  0  0
   37.9687   33.9963   50.1712 H   0  0  0  0  0  0  0  0  0  0  0  0
   39.8017   33.9150   48.4103 H   0  0  0  0  0  0  0  0  0  0  0  0
   39.7623   32.0056   46.7491 H   0  0  0  0  0  0  0  0  0  0  0  0
   31.8888   31.0649   46.4871 H   0  0  0  0  0  0  0  0  0  0  0  0
   33.3850   30.9148   45.5768 H   0  0  0  0  0  0  0  0  0  0  0  0
   32.3983   29.1861   44.0855 H   0  0  0  0  0  0  0  0  0  0  0  0
   31.1174   30.3409   44.2073 H   0  0  0  0  0  0  0  0  0  0  0  0
   30.1530   29.1030   46.2357 H   0  0  0  0  0  0  0  0  0  0  0  0
   30.4155   27.8753   45.0441 H   0  0  0  0  0  0  0  0  0  0  0  0
   31.6474   27.6613   47.4352 H   0  0  0  0  0  0  0  0  0  0  0  0
   32.6204   27.2903   46.0091 H   0  0  0  0  0  0  0  0  0  0  0  0
  2  7  2  0
  2  1  1  0
  3  2  1  0
  4  5  1  0
  4  3  2  0
  5  6  2  0
  6  7  1  0
  8 13  2  0
  9  8  1  0
 10 11  1  0
 10  9  2  0
 11 12  2  0
 12  3  1  0
 12 13  1  0
 14  5  1  0
 15 14  1  0
 16 17  1  0
 16 15  1  0
 17 18  1  0
 18 14  1  0
  4 19  1  0
  6 20  1  0
  7 21  1  0
  8 22  1  0
  9 23  1  0
 10 24  1  0
 15 25  1  0
 15 26  1  0
 16 27  1  0
 16 28  1  0
 17 29  1  0
 17 30  1  0
 18 31  1  0
 18 32  1  0
M  ISO  8  19  14  20  14  21  14  22  14  23  14  24  14  25  13  26  13
M  ISO  6  27  13  28  13  29  13  30  13  31  13  32  13
M  END
>  <minimizedAffinity>  (1) 
-5.72182274

>  <minimizedRMSD>  (1) 
0.170158118

$$$$
