
     RDKit          3D

 27 29  0  0  0  0  0  0  0  0999 V2000
   37.1540   29.5770   51.1990 Br  0  0  0  0  0  0  0  0  0  0  0  0
   36.0160   29.3560   49.6890 C   0  0  0  0  0  0  0  0  0  0  0  0
   36.1330   30.1630   48.5630 C   0  0  0  0  0  0  0  0  0  0  0  0
   35.2790   29.9450   47.5140 C   0  0  0  0  0  0  0  0  0  0  0  0
   34.3060   28.9540   47.5320 C   0  0  0  0  0  0  0  0  0  0  0  0
   34.2070   28.1710   48.6510 C   0  0  0  0  0  0  0  0  0  0  0  0
   35.0690   28.3790   49.7270 C   0  0  0  0  0  0  0  0  0  0  0  0
   37.9800   33.1910   49.4390 C   0  0  0  0  0  0  0  0  0  0  0  0
   39.0340   33.2330   48.5010 C   0  0  0  0  0  0  0  0  0  0  0  0
   39.0890   32.2030   47.5730 C   0  0  0  0  0  0  0  0  0  0  0  0
   38.1460   31.2020   47.5910 N   0  0  0  0  0  0  0  0  0  0  0  0
   37.1470   31.2100   48.5200 C   0  0  0  0  0  0  0  0  0  0  0  0
   37.0690   32.2070   49.4410 N   0  0  0  0  0  0  0  0  0  0  0  0
   33.4240   28.8050   46.3270 C   0  0  0  0  0  0  0  0  0  0  0  0
   32.2500   29.7750   46.2020 C   0  0  0  0  0  0  0  0  0  0  0  0
   33.4230   29.8500   45.2680 C   0  0  0  0  0  0  0  0  0  0  0  0
   35.3676   30.5810   46.6209 H   0  0  0  0  0  0  0  0  0  0  0  0
   33.4469   27.3774   48.7011 H   0  0  0  0  0  0  0  0  0  0  0  0
   34.9824   27.7435   50.6207 H   0  0  0  0  0  0  0  0  0  0  0  0
   37.9036   33.9899   50.1913 H   0  0  0  0  0  0  0  0  0  0  0  0
   39.7769   34.0442   48.5055 H   0  0  0  0  0  0  0  0  0  0  0  0
   39.8903   32.1869   46.8196 H   0  0  0  0  0  0  0  0  0  0  0  0
   33.5617   27.7137   46.3199 H   0  0  0  0  0  0  0  0  0  0  0  0
   31.2748   29.4193   45.8380 H   0  0  0  0  0  0  0  0  0  0  0  0
   31.7372   30.4773   46.8757 H   0  0  0  0  0  0  0  0  0  0  0  0
   33.3011   29.5591   44.2142 H   0  0  0  0  0  0  0  0  0  0  0  0
   34.1217   30.6469   44.9734 H   0  0  0  0  0  0  0  0  0  0  0  0
  2  7  2  0
  2  1  1  0
  3  2  1  0
  4  5  1  0
  4  3  2  0
  5  6  2  0
  6  7  1  0
  8 13  2  0
  9  8  1  0
 10 11  1  0
 10  9  2  0
 11 12  2  0
 12  3  1  0
 12 13  1  0
 14  5  1  0
 15 14  1  0
 16 15  1  0
 16 14  1  0
  4 17  1  0
  6 18  1  0
  7 19  1  0
  8 20  1  0
  9 21  1  0
 10 22  1  0
 14 23  1  0
 15 24  1  0
 15 25  1  0
 16 26  1  0
 16 27  1  0
M  ISO  8  17  14  18  14  19  14  20  14  21  14  22  14  23  13  24  13
M  ISO  3  25  13  26  13  27  13
M  END
>  <minimizedAffinity>  (1) 
-5.65329695

>  <minimizedRMSD>  (1) 
0.373394459

$$$$
