
     RDKit          3D

 38 41  0  0  0  0  0  0  0  0999 V2000
   37.4170   29.1720   50.8060 Br  0  0  0  0  0  0  0  0  0  0  0  0
   36.0010   29.2740   49.5320 C   0  0  0  0  0  0  0  0  0  0  0  0
   35.9950   30.2790   48.5690 C   0  0  0  0  0  0  0  0  0  0  0  0
   34.9370   30.2910   47.6790 C   0  0  0  0  0  0  0  0  0  0  0  0
   33.9080   29.3660   47.7070 C   0  0  0  0  0  0  0  0  0  0  0  0
   33.9480   28.3990   48.6620 C   0  0  0  0  0  0  0  0  0  0  0  0
   34.9950   28.3670   49.5610 C   0  0  0  0  0  0  0  0  0  0  0  0
   38.0140   33.1830   49.4570 C   0  0  0  0  0  0  0  0  0  0  0  0
   39.0350   33.1880   48.4640 C   0  0  0  0  0  0  0  0  0  0  0  0
   39.0070   32.1880   47.5050 C   0  0  0  0  0  0  0  0  0  0  0  0
   38.0150   31.2490   47.5500 N   0  0  0  0  0  0  0  0  0  0  0  0
   37.0590   31.2720   48.5060 C   0  0  0  0  0  0  0  0  0  0  0  0
   37.0710   32.2440   49.4540 N   0  0  0  0  0  0  0  0  0  0  0  0
   32.8040   29.3960   46.7620 C   0  0  0  0  0  0  0  0  0  0  0  0
   31.9760   28.3260   46.4930 C   0  0  0  0  0  0  0  0  0  0  0  0
   30.9330   28.3890   45.5860 C   0  0  0  0  0  0  0  0  0  0  0  0
   30.7120   29.5450   44.9330 N   0  0  0  0  0  0  0  0  0  0  0  0
   31.5070   30.5920   45.1820 C   0  0  0  0  0  0  0  0  0  0  0  0
   32.5000   30.5000   46.0600 N   0  0  0  0  0  0  0  0  0  0  0  0
   31.2710   31.8480   44.4770 C   0  0  0  0  0  0  0  0  0  0  0  0
   30.5330   31.8590   43.2980 C   0  0  0  0  0  0  0  0  0  0  0  0
   30.3260   33.0580   42.6520 C   0  0  0  0  0  0  0  0  0  0  0  0
   30.8070   34.2630   43.1030 C   0  0  0  0  0  0  0  0  0  0  0  0
   31.5390   34.2490   44.2740 C   0  0  0  0  0  0  0  0  0  0  0  0
   31.7480   33.0480   44.9240 C   0  0  0  0  0  0  0  0  0  0  0  0
   34.9119   31.0762   46.9090 H   0  0  0  0  0  0  0  0  0  0  0  0
   33.1490   27.6450   48.7180 H   0  0  0  0  0  0  0  0  0  0  0  0
   35.0132   27.5780   50.3273 H   0  0  0  0  0  0  0  0  0  0  0  0
   38.0048   33.9622   50.2333 H   0  0  0  0  0  0  0  0  0  0  0  0
   39.8191   33.9594   48.4585 H   0  0  0  0  0  0  0  0  0  0  0  0
   39.7738   32.1505   46.7172 H   0  0  0  0  0  0  0  0  0  0  0  0
   32.1531   27.3791   47.0240 H   0  0  0  0  0  0  0  0  0  0  0  0
   30.2965   27.5109   45.4021 H   0  0  0  0  0  0  0  0  0  0  0  0
   30.1212   30.9251   42.8879 H   0  0  0  0  0  0  0  0  0  0  0  0
   29.7412   33.0499   41.7204 H   0  0  0  0  0  0  0  0  0  0  0  0
   30.6175   35.1981   42.5555 H   0  0  0  0  0  0  0  0  0  0  0  0
   31.9507   35.1829   44.6842 H   0  0  0  0  0  0  0  0  0  0  0  0
   32.3325   33.0583   45.8558 H   0  0  0  0  0  0  0  0  0  0  0  0
  2  7  2  0
  2  1  1  0
  3  2  1  0
  4  5  1  0
  4  3  2  0
  5  6  2  0
  6  7  1  0
  9  8  2  0
 10 11  2  0
 10  9  1  0
 11 12  1  0
 12  3  1  0
 12 13  2  0
 13  8  1  0
 14  5  1  0
 15 14  2  0
 16 15  1  0
 17 18  1  0
 17 16  2  0
 18 19  2  0
 19 14  1  0
 20 25  1  0
 20 18  1  0
 21 20  2  0
 22 23  2  0
 22 21  1  0
 23 24  1  0
 24 25  2  0
  4 26  1  0
  6 27  1  0
  7 28  1  0
  8 29  1  0
  9 30  1  0
 10 31  1  0
 15 32  1  0
 16 33  1  0
 21 34  1  0
 22 35  1  0
 23 36  1  0
 24 37  1  0
 25 38  1  0
M  ISO  8  26  14  27  14  28  14  29  14  30  14  31  14  32  14  33  14
M  ISO  5  34  14  35  14  36  14  37  14  38  14
M  END
>  <minimizedAffinity>  (1) 
-6.6973443

>  <minimizedRMSD>  (1) 
0.306971848

$$$$
