
     RDKit          3D

 35 38  0  0  0  0  0  0  0  0999 V2000
   37.3440   29.1510   50.7730 Br  0  0  0  0  0  0  0  0  0  0  0  0
   35.9560   29.2760   49.4710 C   0  0  0  0  0  0  0  0  0  0  0  0
   35.9720   30.2950   48.5200 C   0  0  0  0  0  0  0  0  0  0  0  0
   34.9460   30.3310   47.6090 C   0  0  0  0  0  0  0  0  0  0  0  0
   33.9140   29.4080   47.6040 C   0  0  0  0  0  0  0  0  0  0  0  0
   33.9210   28.4220   48.5440 C   0  0  0  0  0  0  0  0  0  0  0  0
   34.9440   28.3720   49.4640 C   0  0  0  0  0  0  0  0  0  0  0  0
   37.9890   33.1720   49.5060 C   0  0  0  0  0  0  0  0  0  0  0  0
   39.0350   33.1900   48.5320 C   0  0  0  0  0  0  0  0  0  0  0  0
   39.0210   32.2150   47.5610 C   0  0  0  0  0  0  0  0  0  0  0  0
   38.0210   31.2790   47.5660 N   0  0  0  0  0  0  0  0  0  0  0  0
   37.0400   31.2790   48.4980 C   0  0  0  0  0  0  0  0  0  0  0  0
   37.0310   32.2380   49.4730 N   0  0  0  0  0  0  0  0  0  0  0  0
   32.8210   29.4420   46.6370 C   0  0  0  0  0  0  0  0  0  0  0  0
   32.0980   28.3490   46.2190 C   0  0  0  0  0  0  0  0  0  0  0  0
   31.0690   28.4430   45.2980 C   0  0  0  0  0  0  0  0  0  0  0  0
   30.7500   29.6320   44.7850 N   0  0  0  0  0  0  0  0  0  0  0  0
   31.4380   30.7090   45.1780 C   0  0  0  0  0  0  0  0  0  0  0  0
   32.4390   30.6120   46.0740 N   0  0  0  0  0  0  0  0  0  0  0  0
   31.2080   32.0720   44.7070 C   0  0  0  0  0  0  0  0  0  0  0  0
   30.4690   32.2960   43.5470 C   0  0  0  0  0  0  0  0  0  0  0  0
   30.3980   33.6770   43.3240 C   0  0  0  0  0  0  0  0  0  0  0  0
   31.0970   34.2310   44.3580 N   0  0  0  0  0  0  0  0  0  0  0  0
   31.5670   33.3080   45.1600 N   0  0  0  0  0  0  0  0  0  0  0  0
   34.9435   31.1274   46.8502 H   0  0  0  0  0  0  0  0  0  0  0  0
   33.1163   27.6724   48.5677 H   0  0  0  0  0  0  0  0  0  0  0  0
   34.9409   27.5721   50.2190 H   0  0  0  0  0  0  0  0  0  0  0  0
   37.9711   33.9380   50.2953 H   0  0  0  0  0  0  0  0  0  0  0  0
   39.8236   33.9564   48.5577 H   0  0  0  0  0  0  0  0  0  0  0  0
   39.8043   32.1876   46.7892 H   0  0  0  0  0  0  0  0  0  0  0  0
   32.3475   27.3609   46.6331 H   0  0  0  0  0  0  0  0  0  0  0  0
   30.5175   27.5421   44.9909 H   0  0  0  0  0  0  0  0  0  0  0  0
   30.0173   31.5188   42.9130 H   0  0  0  0  0  0  0  0  0  0  0  0
   29.8915   34.1994   42.4990 H   0  0  0  0  0  0  0  0  0  0  0  0
   31.2365   35.2429   44.4901 H   0  0  0  0  0  0  0  0  0  0  0  0
  2  1  1  0
  3  2  2  0
  4  3  1  0
  5  4  2  0
  5  6  1  0
  6  7  2  0
  7  2  1  0
  9  8  2  0
 10 11  2  0
 10  9  1  0
 11 12  1  0
 12  3  1  0
 12 13  2  0
 13  8  1  0
 14  5  1  0
 15 14  2  0
 16 15  1  0
 17 18  1  0
 17 16  2  0
 18 19  2  0
 19 14  1  0
 20 24  2  0
 20 18  1  0
 21 20  1  0
 22 21  2  0
 22 23  1  0
 23 24  1  0
  4 25  1  0
  6 26  1  0
  7 27  1  0
  8 28  1  0
  9 29  1  0
 10 30  1  0
 15 31  1  0
 16 32  1  0
 21 33  1  0
 22 34  1  0
 23 35  1  0
M  ISO  8  25  14  26  14  27  14  28  14  29  14  30  14  31  14  32  14
M  ISO  3  33  14  34  14  35   9
M  END
>  <minimizedAffinity>  (1) 
-6.67853117

>  <minimizedRMSD>  (1) 
0.438664734

$$$$
