
     RDKit          3D

 31 33  0  0  0  0  0  0  0  0999 V2000
   37.4160   29.1640   50.8020 Br  0  0  0  0  0  0  0  0  0  0  0  0
   36.0150   29.2880   49.5160 C   0  0  0  0  0  0  0  0  0  0  0  0
   36.0080   30.3060   48.5530 C   0  0  0  0  0  0  0  0  0  0  0  0
   34.9600   30.3110   47.6730 C   0  0  0  0  0  0  0  0  0  0  0  0
   33.9350   29.3850   47.6860 C   0  0  0  0  0  0  0  0  0  0  0  0
   33.9720   28.4100   48.6330 C   0  0  0  0  0  0  0  0  0  0  0  0
   35.0110   28.3700   49.5380 C   0  0  0  0  0  0  0  0  0  0  0  0
   38.0210   33.1900   49.4780 C   0  0  0  0  0  0  0  0  0  0  0  0
   39.0550   33.1950   48.4970 C   0  0  0  0  0  0  0  0  0  0  0  0
   39.0370   32.1980   47.5320 C   0  0  0  0  0  0  0  0  0  0  0  0
   38.0320   31.2710   47.5750 N   0  0  0  0  0  0  0  0  0  0  0  0
   37.0660   31.2880   48.5140 C   0  0  0  0  0  0  0  0  0  0  0  0
   37.0690   32.2540   49.4650 N   0  0  0  0  0  0  0  0  0  0  0  0
   32.8280   29.4100   46.7390 C   0  0  0  0  0  0  0  0  0  0  0  0
   32.0710   28.3270   46.3830 C   0  0  0  0  0  0  0  0  0  0  0  0
   31.0250   28.3780   45.4800 C   0  0  0  0  0  0  0  0  0  0  0  0
   30.7320   29.5600   44.9160 N   0  0  0  0  0  0  0  0  0  0  0  0
   31.4530   30.6400   45.2410 C   0  0  0  0  0  0  0  0  0  0  0  0
   32.4580   30.5540   46.1190 N   0  0  0  0  0  0  0  0  0  0  0  0
   31.1530   31.9670   44.6330 C   0  0  0  0  0  0  0  0  0  0  0  0
   31.5230   32.0290   43.3190 F   0  0  0  0  0  0  0  0  0  0  0  0
   31.7980   32.9270   45.3970 F   0  0  0  0  0  0  0  0  0  0  0  0
   29.7980   32.2270   44.7680 F   0  0  0  0  0  0  0  0  0  0  0  0
   34.9321   31.1011   46.9082 H   0  0  0  0  0  0  0  0  0  0  0  0
   33.1740   27.6542   48.6769 H   0  0  0  0  0  0  0  0  0  0  0  0
   35.0289   27.5750   50.2980 H   0  0  0  0  0  0  0  0  0  0  0  0
   38.0072   33.9675   50.2560 H   0  0  0  0  0  0  0  0  0  0  0  0
   39.8415   33.9640   48.5046 H   0  0  0  0  0  0  0  0  0  0  0  0
   39.8114   32.1542   46.7520 H   0  0  0  0  0  0  0  0  0  0  0  0
   32.3091   27.3567   46.8432 H   0  0  0  0  0  0  0  0  0  0  0  0
   30.4489   27.4746   45.2308 H   0  0  0  0  0  0  0  0  0  0  0  0
  2  7  2  0
  2  1  1  0
  3  2  1  0
  4  5  1  0
  4  3  2  0
  5  6  2  0
  6  7  1  0
  9  8  2  0
 10 11  2  0
 10  9  1  0
 11 12  1  0
 12  3  1  0
 12 13  2  0
 13  8  1  0
 14  5  1  0
 15 14  2  0
 16 15  1  0
 17 18  1  0
 17 16  2  0
 18 19  2  0
 19 14  1  0
 20 23  1  0
 20 18  1  0
 20 22  1  0
 21 20  1  0
  4 24  1  0
  6 25  1  0
  7 26  1  0
  8 27  1  0
  9 28  1  0
 10 29  1  0
 15 30  1  0
 16 31  1  0
M  ISO  8  24  14  25  14  26  14  27  14  28  14  29  14  30  14  31  14
M  END
>  <minimizedAffinity>  (1) 
-6.17142391

>  <minimizedRMSD>  (1) 
0.255661905

$$$$
