
     RDKit          3D

 26 28  0  0  0  0  0  0  0  0999 V2000
   37.6430   30.1110   49.1470 C   0  0  0  0  0  0  0  0  0  0  0  0
   37.3680   30.5500   47.8740 C   0  0  0  0  0  0  0  0  0  0  0  0
   36.1600   30.2640   47.2810 C   0  0  0  0  0  0  0  0  0  0  0  0
   35.2480   29.5260   48.0130 C   0  0  0  0  0  0  0  0  0  0  0  0
   33.9950   29.1210   47.6410 N   0  0  0  0  0  0  0  0  0  0  0  0
   33.4830   28.4330   48.6700 C   0  0  0  0  0  0  0  0  0  0  0  0
   34.3610   28.3800   49.6880 N   0  0  0  0  0  0  0  0  0  0  0  0
   35.4740   29.0580   49.3030 C   0  0  0  0  0  0  0  0  0  0  0  0
   36.6990   29.3640   49.8670 C   0  0  0  0  0  0  0  0  0  0  0  0
   40.1300   31.6540   45.5570 C   0  0  0  0  0  0  0  0  0  0  0  0
   39.1440   30.8580   46.1310 C   0  0  0  0  0  0  0  0  0  0  0  0
   38.4180   31.3200   47.2130 C   0  0  0  0  0  0  0  0  0  0  0  0
   38.6940   32.5690   47.6930 N   0  0  0  0  0  0  0  0  0  0  0  0
   39.6710   33.3270   47.1040 C   0  0  0  0  0  0  0  0  0  0  0  0
   40.3690   32.8780   46.0640 N   0  0  0  0  0  0  0  0  0  0  0  0
   32.1170   27.8280   48.6330 C   0  0  0  0  0  0  0  0  0  0  0  0
   32.1240   26.4740   48.4680 F   0  0  0  0  0  0  0  0  0  0  0  0
   31.3900   28.4080   47.5970 F   0  0  0  0  0  0  0  0  0  0  0  0
   31.4170   28.1210   49.7900 F   0  0  0  0  0  0  0  0  0  0  0  0
   38.6140   30.3480   49.6063 H   0  0  0  0  0  0  0  0  0  0  0  0
   35.9283   30.6095   46.2627 H   0  0  0  0  0  0  0  0  0  0  0  0
   33.5329   29.3095   46.7400 H   0  0  0  0  0  0  0  0  0  0  0  0
   36.9342   29.0200   50.8850 H   0  0  0  0  0  0  0  0  0  0  0  0
   40.7090   31.2867   44.6968 H   0  0  0  0  0  0  0  0  0  0  0  0
   38.9412   29.8571   45.7223 H   0  0  0  0  0  0  0  0  0  0  0  0
   39.8837   34.3309   47.5002 H   0  0  0  0  0  0  0  0  0  0  0  0
  1  9  2  0
  2  1  1  0
  3  2  2  0
  3  4  1  0
  4  8  2  0
  5  4  1  0
  5  6  1  0
  6  7  2  0
  8  7  1  0
  8  9  1  0
 10 15  2  0
 10 11  1  0
 11 12  2  0
 12 13  1  0
 12  2  1  0
 14 13  2  0
 15 14  1  0
 16  6  1  0
 16 19  1  0
 17 16  1  0
 18 16  1  0
  1 20  1  0
  3 21  1  0
  5 22  1  0
  9 23  1  0
 10 24  1  0
 11 25  1  0
 14 26  1  0
M  ISO  7  20  14  21  14  22   9  23  14  24  14  25  14  26  14
M  END
>  <minimizedAffinity>  (1) 
-5.78249454

>  <minimizedRMSD>  (1) 
7.75757074

$$$$
