
     RDKit          3D

 25 27  0  0  0  0  0  0  0  0999 V2000
   36.8260   30.5590   46.9340 C   0  0  0  0  0  0  0  0  0  0  0  0
   37.5020   31.0250   48.0430 C   0  0  0  0  0  0  0  0  0  0  0  0
   38.4950   31.9510   47.8890 C   0  0  0  0  0  0  0  0  0  0  0  0
   38.8070   32.4080   46.6190 C   0  0  0  0  0  0  0  0  0  0  0  0
   39.7380   33.3110   46.2170 N   0  0  0  0  0  0  0  0  0  0  0  0
   39.6450   33.4080   44.8850 C   0  0  0  0  0  0  0  0  0  0  0  0
   38.6860   32.5990   44.4160 N   0  0  0  0  0  0  0  0  0  0  0  0
   38.1400   31.9560   45.4780 C   0  0  0  0  0  0  0  0  0  0  0  0
   37.1390   31.0200   45.6570 C   0  0  0  0  0  0  0  0  0  0  0  0
   40.3990   34.2180   43.9890 N   0  0  0  0  0  0  0  0  0  0  0  0
   37.3790   30.0770   51.6790 C   0  0  0  0  0  0  0  0  0  0  0  0
   37.8520   30.6320   50.4910 C   0  0  0  0  0  0  0  0  0  0  0  0
   37.1040   30.4850   49.3400 C   0  0  0  0  0  0  0  0  0  0  0  0
   35.9360   29.8030   49.4130 N   0  0  0  0  0  0  0  0  0  0  0  0
   35.4880   29.2670   50.5750 C   0  0  0  0  0  0  0  0  0  0  0  0
   36.1960   29.3990   51.6960 N   0  0  0  0  0  0  0  0  0  0  0  0
   36.0281   29.8124   47.0600 H   0  0  0  0  0  0  0  0  0  0  0  0
   39.0415   32.3300   48.7652 H   0  0  0  0  0  0  0  0  0  0  0  0
   40.3930   33.8250   46.8233 H   0  0  0  0  0  0  0  0  0  0  0  0
   36.5864   30.6369   44.7865 H   0  0  0  0  0  0  0  0  0  0  0  0
   40.2082   34.1820   42.9775 H   0  0  0  0  0  0  0  0  0  0  0  0
   41.1353   34.8399   44.3524 H   0  0  0  0  0  0  0  0  0  0  0  0
   37.9618   30.1863   52.6055 H   0  0  0  0  0  0  0  0  0  0  0  0
   38.8064   31.1786   50.4709 H   0  0  0  0  0  0  0  0  0  0  0  0
   34.5340   28.7197   50.5924 H   0  0  0  0  0  0  0  0  0  0  0  0
  1  2  2  0
  2 13  1  0
  3  2  1  0
  4  3  2  0
  5  4  1  0
  6  5  1  0
  7  6  2  0
  7  8  1  0
  8  9  2  0
  8  4  1  0
  9  1  1  0
 10  6  1  0
 11 16  2  0
 12 11  1  0
 13 14  1  0
 13 12  2  0
 14 15  2  0
 15 16  1  0
  1 17  1  0
  3 18  1  0
  5 19  1  0
  9 20  1  0
 10 21  1  0
 10 22  1  0
 11 23  1  0
 12 24  1  0
 15 25  1  0
M  ISO  7  17  14  18  14  19   9  20  14  23  14  24  14  25  14
M  END
>  <minimizedAffinity>  (1) 
-5.65947533

>  <minimizedRMSD>  (1) 
0.311079085

$$$$
