
     RDKit          3D

 24 26  0  0  0  0  0  0  0  0999 V2000
   36.8490   30.5510   46.9110 C   0  0  0  0  0  0  0  0  0  0  0  0
   37.5180   31.0360   48.0280 C   0  0  0  0  0  0  0  0  0  0  0  0
   38.5140   31.9920   47.9010 C   0  0  0  0  0  0  0  0  0  0  0  0
   38.7960   32.4270   46.6030 C   0  0  0  0  0  0  0  0  0  0  0  0
   39.7280   33.3540   46.2270 N   0  0  0  0  0  0  0  0  0  0  0  0
   39.6440   33.4500   44.8940 C   0  0  0  0  0  0  0  0  0  0  0  0
   38.7080   32.6280   44.4180 N   0  0  0  0  0  0  0  0  0  0  0  0
   38.1570   31.9730   45.4660 C   0  0  0  0  0  0  0  0  0  0  0  0
   37.1620   31.0130   45.6330 C   0  0  0  0  0  0  0  0  0  0  0  0
   37.3830   30.0850   51.6660 C   0  0  0  0  0  0  0  0  0  0  0  0
   37.8630   30.6430   50.4870 C   0  0  0  0  0  0  0  0  0  0  0  0
   37.1310   30.5030   49.3230 C   0  0  0  0  0  0  0  0  0  0  0  0
   35.9560   29.8110   49.4000 N   0  0  0  0  0  0  0  0  0  0  0  0
   35.5030   29.2720   50.5590 C   0  0  0  0  0  0  0  0  0  0  0  0
   36.2140   29.4120   51.6730 N   0  0  0  0  0  0  0  0  0  0  0  0
   40.4700   34.3220   44.1690 O   0  0  0  0  0  0  0  0  0  0  0  0
   36.0621   29.7926   47.0364 H   0  0  0  0  0  0  0  0  0  0  0  0
   39.0532   32.3869   48.7747 H   0  0  0  0  0  0  0  0  0  0  0  0
   40.3668   33.8743   46.8452 H   0  0  0  0  0  0  0  0  0  0  0  0
   36.6237   30.6197   44.7580 H   0  0  0  0  0  0  0  0  0  0  0  0
   37.9587   30.1926   52.5971 H   0  0  0  0  0  0  0  0  0  0  0  0
   38.8167   31.1910   50.4804 H   0  0  0  0  0  0  0  0  0  0  0  0
   34.5510   28.7212   50.5770 H   0  0  0  0  0  0  0  0  0  0  0  0
   40.3894   34.3756   43.1837 H   0  0  0  0  0  0  0  0  0  0  0  0
  1  2  2  0
  2 12  1  0
  3  2  1  0
  4  3  2  0
  5  4  1  0
  6  5  1  0
  7  6  2  0
  7  8  1  0
  8  9  2  0
  8  4  1  0
  9  1  1  0
 10 15  2  0
 11 10  1  0
 12 13  1  0
 12 11  2  0
 13 14  2  0
 14 15  1  0
 16  6  1  0
  1 17  1  0
  3 18  1  0
  5 19  1  0
  9 20  1  0
 10 21  1  0
 11 22  1  0
 14 23  1  0
 16 24  1  0
M  ISO  8  17  14  18  14  19   9  20  14  21  14  22  14  23  14  24   3
M  END
>  <minimizedAffinity>  (1) 
-5.81157207

>  <minimizedRMSD>  (1) 
0.289440989

$$$$
