
 OpenBabel03242520543D

 25 25  0  0  0  0  0  0  0  0999 V2000
   39.8680   26.8330   43.6460 C   0  0  0  0  0  0  0  0  0  0  0  0
   39.6160   25.4940   43.3350 C   0  0  0  0  0  0  0  0  0  0  0  0
   38.4700   25.1790   42.6110 C   0  0  0  0  0  0  0  0  0  0  0  0
   37.6780   26.2070   42.2590 N   0  0  0  0  0  0  0  0  0  0  0  0
   37.9230   27.4800   42.5560 C   0  0  0  0  0  0  0  0  0  0  0  0
   39.0280   27.8060   43.2570 N   0  0  0  0  0  0  0  0  0  0  0  0
   40.7790   27.0550   44.2170 H   0  0  0  0  0  0  0  0  0  0  0  0
   40.2510   24.6660   43.6180 H   0  0  0  0  0  0  0  0  0  0  0  0
   37.0070   28.5500   42.1340 C   0  0  0  0  0  3  0  0  0  0  0  0
   36.3300   28.4890   41.0210 C   0  0  0  0  0  3  0  0  0  0  0  0
   35.4130   29.5880   40.6270 C   0  0  0  0  0  0  0  0  0  0  0  0
   35.5240   29.6720   39.5040 H   0  0  0  0  0  0  0  0  0  0  0  0
   34.3670   29.3310   40.7810 H   0  0  0  0  0  0  0  0  0  0  0  0
   36.6070   31.5840   40.2240 C   0  0  0  0  0  0  0  0  0  0  0  0
   37.1080   31.2890   39.1150 O   0  0  0  0  0  0  0  0  0  0  0  0
   35.8250   30.8490   41.1460 N   0  0  0  0  0  0  0  0  0  0  0  0
   35.6340   31.2650   42.0590 H   0  0  0  0  0  0  0  0  0  0  0  0
   37.0150   32.9490   40.4040 N   0  0  0  0  0  0  0  0  0  0  0  0
   36.6310   33.8510   40.0380 H   0  0  0  0  0  0  0  0  0  0  0  0
   37.8610   33.1420   41.0140 H   0  0  0  0  0  0  0  0  0  0  0  0
   38.0990   23.9150   42.2390 O   0  0  0  0  0  0  0  0  0  0  0  0
   38.2520   23.5840   40.8460 C   0  0  0  0  0  0  0  0  0  0  0  0
   37.1160   24.0040   40.1610 F   0  0  0  0  0  0  0  0  0  0  0  0
   39.3690   24.3100   40.3970 F   0  0  0  0  0  0  0  0  0  0  0  0
   38.4940   22.2280   40.6560 F   0  0  0  0  0  0  0  0  0  0  0  0
  1  7  1  0  0  0  0
  2  8  1  0  0  0  0
  2  1  1  0  0  0  0
  3  2  2  0  0  0  0
  4  5  2  0  0  0  0
  4  3  1  0  0  0  0
  5  6  1  0  0  0  0
  6  1  2  0  0  0  0
  9  5  1  0  0  0  0
 10  9  2  0  0  0  0
 11 13  1  0  0  0  0
 11 10  1  0  0  0  0
 11 16  1  0  0  0  0
 12 11  1  0  0  0  0
 14 18  1  0  0  0  0
 14 16  1  0  0  0  0
 15 14  2  0  0  0  0
 16 17  1  0  0  0  0
 18 20  1  0  0  0  0
 19 18  1  0  0  0  0
 21  3  1  0  0  0  0
 22 21  1  0  0  0  0
 23 22  1  0  0  0  0
 24 22  1  0  0  0  0
 25 22  1  0  0  0  0
M  END
>  <minimizedAffinity>
-5.10633326

$$$$

 OpenBabel03242520543D

 25 25  0  0  0  0  0  0  0  0999 V2000
   37.5940   28.0290   43.5790 C   0  0  0  0  0  0  0  0  0  0  0  0
   37.4320   26.8430   42.8560 C   0  0  0  0  0  0  0  0  0  0  0  0
   37.1150   26.9220   41.5030 C   0  0  0  0  0  0  0  0  0  0  0  0
   36.9860   28.1550   40.9850 N   0  0  0  0  0  0  0  0  0  0  0  0
   37.1420   29.2810   41.6760 C   0  0  0  0  0  0  0  0  0  0  0  0
   37.4490   29.2270   42.9890 N   0  0  0  0  0  0  0  0  0  0  0  0
   37.8430   27.9390   44.6430 H   0  0  0  0  0  0  0  0  0  0  0  0
   37.5340   25.8500   43.2710 H   0  0  0  0  0  0  0  0  0  0  0  0
   36.9840   30.5950   41.0360 C   0  0  0  0  0  3  0  0  0  0  0  0
   37.2990   30.8060   39.7880 C   0  0  0  0  0  3  0  0  0  0  0  0
   37.1260   32.1460   39.1760 C   0  0  0  0  0  0  0  0  0  0  0  0
   36.0120   32.2480   39.0070 H   0  0  0  0  0  0  0  0  0  0  0  0
   37.3740   32.9520   39.8630 H   0  0  0  0  0  0  0  0  0  0  0  0
   39.1280   32.3210   37.9370 C   0  0  0  0  0  0  0  0  0  0  0  0
   39.9290   32.4720   38.8870 O   0  0  0  0  0  0  0  0  0  0  0  0
   37.7170   32.2310   37.8820 N   0  0  0  0  0  0  0  0  0  0  0  0
   37.2670   32.2360   36.9660 H   0  0  0  0  0  0  0  0  0  0  0  0
   39.9960   32.2470   36.7970 N   0  0  0  0  0  0  0  0  0  0  0  0
   40.5590   31.4630   36.3910 H   0  0  0  0  0  0  0  0  0  0  0  0
   40.1340   33.1230   36.2140 H   0  0  0  0  0  0  0  0  0  0  0  0
   36.9280   25.8470   40.6770 O   0  0  0  0  0  0  0  0  0  0  0  0
   36.8790   24.5520   41.3070 C   0  0  0  0  0  0  0  0  0  0  0  0
   36.1860   23.6790   40.4760 F   0  0  0  0  0  0  0  0  0  0  0  0
   38.2150   24.1300   41.4250 F   0  0  0  0  0  0  0  0  0  0  0  0
   36.3150   24.6110   42.5760 F   0  0  0  0  0  0  0  0  0  0  0  0
  1  7  1  0  0  0  0
  2  8  1  0  0  0  0
  2  1  2  0  0  0  0
  3  2  1  0  0  0  0
  4  3  2  0  0  0  0
  4  5  1  0  0  0  0
  5  6  2  0  0  0  0
  6  1  1  0  0  0  0
  9  5  1  0  0  0  0
 10  9  2  0  0  0  0
 11 10  1  0  0  0  0
 11 13  1  0  0  0  0
 12 11  1  0  0  0  0
 14 15  2  0  0  0  0
 16 14  1  0  0  0  0
 16 11  1  0  0  0  0
 17 16  1  0  0  0  0
 18 14  1  0  0  0  0
 19 18  1  0  0  0  0
 20 18  1  0  0  0  0
 21 22  1  0  0  0  0
 21  3  1  0  0  0  0
 22 24  1  0  0  0  0
 22 25  1  0  0  0  0
 23 22  1  0  0  0  0
M  END
>  <minimizedAffinity>
-4.98335695

$$$$

 OpenBabel03242520543D

 25 25  0  0  0  0  0  0  0  0999 V2000
   34.5900   28.2600   35.8810 C   0  0  0  0  0  0  0  0  0  0  0  0
   35.0770   28.5750   34.6100 C   0  0  0  0  0  0  0  0  0  0  0  0
   36.1180   29.4920   34.4990 C   0  0  0  0  0  0  0  0  0  0  0  0
   36.5840   30.0160   35.6460 N   0  0  0  0  0  0  0  0  0  0  0  0
   36.1180   29.7130   36.8540 C   0  0  0  0  0  0  0  0  0  0  0  0
   35.1090   28.8260   36.9830 N   0  0  0  0  0  0  0  0  0  0  0  0
   33.7690   27.5340   35.9410 H   0  0  0  0  0  0  0  0  0  0  0  0
   34.7030   28.1550   33.6860 H   0  0  0  0  0  0  0  0  0  0  0  0
   36.6820   30.3290   38.0640 C   0  0  0  0  0  3  0  0  0  0  0  0
   36.0030   30.4400   39.1720 C   0  0  0  0  0  3  0  0  0  0  0  0
   36.6050   31.0680   40.3740 C   0  0  0  0  0  0  0  0  0  0  0  0
   37.7090   30.8300   40.3060 H   0  0  0  0  0  0  0  0  0  0  0  0
   36.5560   32.1540   40.3430 H   0  0  0  0  0  0  0  0  0  0  0  0
   37.1460   29.6380   42.1730 C   0  0  0  0  0  0  0  0  0  0  0  0
   38.2650   29.2430   41.7740 O   0  0  0  0  0  0  0  0  0  0  0  0
   36.1590   30.4610   41.5830 N   0  0  0  0  0  0  0  0  0  0  0  0
   35.2550   30.5450   42.0520 H   0  0  0  0  0  0  0  0  0  0  0  0
   37.0420   29.0400   43.4730 N   0  0  0  0  0  0  0  0  0  0  0  0
   37.4250   29.3170   44.4070 H   0  0  0  0  0  0  0  0  0  0  0  0
   36.4830   28.1430   43.5680 H   0  0  0  0  0  0  0  0  0  0  0  0
   36.6900   29.8920   33.3220 O   0  0  0  0  0  0  0  0  0  0  0  0
   36.3640   31.2190   32.8660 C   0  0  0  0  0  0  0  0  0  0  0  0
   35.1620   31.6060   33.4470 F   0  0  0  0  0  0  0  0  0  0  0  0
   37.4000   32.0500   33.3280 F   0  0  0  0  0  0  0  0  0  0  0  0
   36.3140   31.2960   31.4790 F   0  0  0  0  0  0  0  0  0  0  0  0
  1  7  1  0  0  0  0
  1  6  1  0  0  0  0
  2  1  2  0  0  0  0
  3  2  1  0  0  0  0
  3  4  2  0  0  0  0
  4  5  1  0  0  0  0
  5  6  2  0  0  0  0
  5  9  1  0  0  0  0
  8  2  1  0  0  0  0
  9 10  2  0  0  0  0
 10 11  1  0  0  0  0
 11 16  1  0  0  0  0
 12 11  1  0  0  0  0
 13 11  1  0  0  0  0
 14 18  1  0  0  0  0
 15 14  2  0  0  0  0
 16 17  1  0  0  0  0
 16 14  1  0  0  0  0
 18 20  1  0  0  0  0
 18 19  1  0  0  0  0
 21  3  1  0  0  0  0
 22 21  1  0  0  0  0
 22 24  1  0  0  0  0
 22 23  1  0  0  0  0
 25 22  1  0  0  0  0
M  END
>  <minimizedAffinity>
-4.92680073

$$$$

 OpenBabel03242520543D

 25 25  0  0  0  0  0  0  0  0999 V2000
   36.3100   30.8820   40.9280 C   0  0  0  0  0  0  0  0  0  0  0  0
   36.5650   29.8700   41.8570 C   0  0  0  0  0  0  0  0  0  0  0  0
   37.7050   29.0870   41.6970 C   0  0  0  0  0  0  0  0  0  0  0  0
   38.4880   29.3690   40.6420 N   0  0  0  0  0  0  0  0  0  0  0  0
   38.2420   30.3350   39.7620 C   0  0  0  0  0  0  0  0  0  0  0  0
   37.1420   31.1050   39.8970 N   0  0  0  0  0  0  0  0  0  0  0  0
   35.4060   31.4860   41.0760 H   0  0  0  0  0  0  0  0  0  0  0  0
   35.9360   29.6390   42.7060 H   0  0  0  0  0  0  0  0  0  0  0  0
   39.1490   30.5840   38.6310 C   0  0  0  0  0  3  0  0  0  0  0  0
   39.6310   31.7670   38.3710 C   0  0  0  0  0  3  0  0  0  0  0  0
   40.5450   31.9810   37.2210 C   0  0  0  0  0  0  0  0  0  0  0  0
   41.3900   31.2460   37.3800 H   0  0  0  0  0  0  0  0  0  0  0  0
   40.0970   31.6840   36.2750 H   0  0  0  0  0  0  0  0  0  0  0  0
   42.5580   33.2090   37.1130 C   0  0  0  0  0  0  0  0  0  0  0  0
   43.3670   32.2530   37.1180 O   0  0  0  0  0  0  0  0  0  0  0  0
   41.1510   33.2700   37.2430 N   0  0  0  0  0  0  0  0  0  0  0  0
   40.7120   34.1870   37.3380 H   0  0  0  0  0  0  0  0  0  0  0  0
   43.4120   34.3470   36.9320 N   0  0  0  0  0  0  0  0  0  0  0  0
   43.8500   34.7690   36.0800 H   0  0  0  0  0  0  0  0  0  0  0  0
   43.6870   34.9090   37.7890 H   0  0  0  0  0  0  0  0  0  0  0  0
   38.0770   28.0640   42.5270 O   0  0  0  0  0  0  0  0  0  0  0  0
   37.2380   26.8930   42.5220 C   0  0  0  0  0  0  0  0  0  0  0  0
   37.9920   25.8030   42.9420 F   0  0  0  0  0  0  0  0  0  0  0  0
   36.2160   27.1470   43.4540 F   0  0  0  0  0  0  0  0  0  0  0  0
   36.6610   26.6700   41.2770 F   0  0  0  0  0  0  0  0  0  0  0  0
  1  7  1  0  0  0  0
  1  2  1  0  0  0  0
  2  8  1  0  0  0  0
  3  2  2  0  0  0  0
  3 21  1  0  0  0  0
  4  3  1  0  0  0  0
  5  6  1  0  0  0  0
  5  4  2  0  0  0  0
  6  1  2  0  0  0  0
  9  5  1  0  0  0  0
 10  9  2  0  0  0  0
 11 16  1  0  0  0  0
 11 12  1  0  0  0  0
 11 10  1  0  0  0  0
 13 11  1  0  0  0  0
 14 15  2  0  0  0  0
 14 16  1  0  0  0  0
 16 17  1  0  0  0  0
 18 14  1  0  0  0  0
 18 20  1  0  0  0  0
 19 18  1  0  0  0  0
 22 21  1  0  0  0  0
 22 23  1  0  0  0  0
 22 24  1  0  0  0  0
 25 22  1  0  0  0  0
M  END
>  <minimizedAffinity>
-4.84481144

$$$$

 OpenBabel03242520543D

 25 25  0  0  0  0  0  0  0  0999 V2000
   37.5260   32.4970   39.3470 C   0  0  0  0  0  0  0  0  0  0  0  0
   37.5100   31.9490   40.6320 C   0  0  0  0  0  0  0  0  0  0  0  0
   37.0550   30.6440   40.7980 C   0  0  0  0  0  0  0  0  0  0  0  0
   36.6580   29.9980   39.6880 N   0  0  0  0  0  0  0  0  0  0  0  0
   36.6760   30.5240   38.4670 C   0  0  0  0  0  0  0  0  0  0  0  0
   37.1140   31.7880   38.2840 N   0  0  0  0  0  0  0  0  0  0  0  0
   37.8900   33.5270   39.2430 H   0  0  0  0  0  0  0  0  0  0  0  0
   37.8270   32.4670   41.5270 H   0  0  0  0  0  0  0  0  0  0  0  0
   36.2260   29.7520   37.2990 C   0  0  0  0  0  3  0  0  0  0  0  0
   36.7700   29.8860   36.1210 C   0  0  0  0  0  3  0  0  0  0  0  0
   36.2890   29.0890   34.9650 C   0  0  0  0  0  0  0  0  0  0  0  0
   36.6120   28.0280   35.1880 H   0  0  0  0  0  0  0  0  0  0  0  0
   35.2030   29.0410   34.9180 H   0  0  0  0  0  0  0  0  0  0  0  0
   36.4320   30.6300   33.1830 C   0  0  0  0  0  0  0  0  0  0  0  0
   35.4410   31.3410   33.4630 O   0  0  0  0  0  0  0  0  0  0  0  0
   36.9480   29.4420   33.7530 N   0  0  0  0  0  0  0  0  0  0  0  0
   37.7090   28.9640   33.2690 H   0  0  0  0  0  0  0  0  0  0  0  0
   37.0090   31.3160   32.0610 N   0  0  0  0  0  0  0  0  0  0  0  0
   37.6400   32.1480   31.9940 H   0  0  0  0  0  0  0  0  0  0  0  0
   36.7880   30.9560   31.0880 H   0  0  0  0  0  0  0  0  0  0  0  0
   36.9840   29.9830   41.9950 O   0  0  0  0  0  0  0  0  0  0  0  0
   38.2100   29.4090   42.4860 C   0  0  0  0  0  0  0  0  0  0  0  0
   38.9010   30.3800   43.2030 F   0  0  0  0  0  0  0  0  0  0  0  0
   37.8290   28.3670   43.3500 F   0  0  0  0  0  0  0  0  0  0  0  0
   38.9850   28.8790   41.4610 F   0  0  0  0  0  0  0  0  0  0  0  0
  1  2  1  0  0  0  0
  2  3  2  0  0  0  0
  2  8  1  0  0  0  0
  3 21  1  0  0  0  0
  4  3  1  0  0  0  0
  5  4  2  0  0  0  0
  6  5  1  0  0  0  0
  6  1  2  0  0  0  0
  7  1  1  0  0  0  0
  9  5  1  0  0  0  0
 10  9  2  0  0  0  0
 11 12  1  0  0  0  0
 11 10  1  0  0  0  0
 13 11  1  0  0  0  0
 14 15  2  0  0  0  0
 14 16  1  0  0  0  0
 16 11  1  0  0  0  0
 17 16  1  0  0  0  0
 18 14  1  0  0  0  0
 19 18  1  0  0  0  0
 20 18  1  0  0  0  0
 21 22  1  0  0  0  0
 22 23  1  0  0  0  0
 22 24  1  0  0  0  0
 25 22  1  0  0  0  0
M  END
>  <minimizedAffinity>
-4.79896498

$$$$

 OpenBabel03242520543D

 25 25  0  0  0  0  0  0  0  0999 V2000
   35.8260   26.1840   38.0700 C   0  0  0  0  0  0  0  0  0  0  0  0
   36.5730   25.6040   39.0990 C   0  0  0  0  0  0  0  0  0  0  0  0
   37.3250   26.4320   39.9280 C   0  0  0  0  0  0  0  0  0  0  0  0
   37.2740   27.7500   39.6710 N   0  0  0  0  0  0  0  0  0  0  0  0
   36.5600   28.2970   38.6910 C   0  0  0  0  0  0  0  0  0  0  0  0
   35.8250   27.5130   37.8760 N   0  0  0  0  0  0  0  0  0  0  0  0
   35.2410   25.5100   37.4310 H   0  0  0  0  0  0  0  0  0  0  0  0
   36.6170   24.5440   39.3080 H   0  0  0  0  0  0  0  0  0  0  0  0
   36.5560   29.7510   38.4730 C   0  0  0  0  0  3  0  0  0  0  0  0
   36.9760   30.5930   39.3760 C   0  0  0  0  0  3  0  0  0  0  0  0
   36.9570   32.0550   39.1210 C   0  0  0  0  0  0  0  0  0  0  0  0
   37.8820   32.2550   38.5010 H   0  0  0  0  0  0  0  0  0  0  0  0
   36.1280   32.3540   38.4830 H   0  0  0  0  0  0  0  0  0  0  0  0
   38.4110   33.3970   40.4070 C   0  0  0  0  0  0  0  0  0  0  0  0
   39.4510   33.2640   39.7230 O   0  0  0  0  0  0  0  0  0  0  0  0
   37.1250   32.8150   40.3140 N   0  0  0  0  0  0  0  0  0  0  0  0
   36.4620   32.9810   41.0730 H   0  0  0  0  0  0  0  0  0  0  0  0
   38.8070   34.3490   41.4060 N   0  0  0  0  0  0  0  0  0  0  0  0
   38.8810   35.3930   41.3930 H   0  0  0  0  0  0  0  0  0  0  0  0
   39.0910   33.9830   42.3610 H   0  0  0  0  0  0  0  0  0  0  0  0
   38.1010   26.0020   40.9700 O   0  0  0  0  0  0  0  0  0  0  0  0
   37.4760   25.9700   42.2680 C   0  0  0  0  0  0  0  0  0  0  0  0
   36.4840   26.9430   42.3090 F   0  0  0  0  0  0  0  0  0  0  0  0
   36.8920   24.6960   42.3820 F   0  0  0  0  0  0  0  0  0  0  0  0
   38.3980   26.1330   43.2950 F   0  0  0  0  0  0  0  0  0  0  0  0
  1  2  1  0  0  0  0
  2  8  1  0  0  0  0
  2  3  2  0  0  0  0
  3 21  1  0  0  0  0
  4  3  1  0  0  0  0
  5  4  2  0  0  0  0
  6  1  2  0  0  0  0
  6  5  1  0  0  0  0
  7  1  1  0  0  0  0
  9  5  1  0  0  0  0
  9 10  2  0  0  0  0
 11 10  1  0  0  0  0
 11 16  1  0  0  0  0
 12 11  1  0  0  0  0
 13 11  1  0  0  0  0
 14 18  1  0  0  0  0
 15 14  2  0  0  0  0
 16 14  1  0  0  0  0
 16 17  1  0  0  0  0
 18 20  1  0  0  0  0
 19 18  1  0  0  0  0
 21 22  1  0  0  0  0
 22 23  1  0  0  0  0
 22 24  1  0  0  0  0
 22 25  1  0  0  0  0
M  END
>  <minimizedAffinity>
-4.74344254

$$$$

 OpenBabel03242520543D

 25 25  0  0  0  0  0  0  0  0999 V2000
   37.3400   24.5280   41.4740 C   0  0  0  0  0  0  0  0  0  0  0  0
   38.4820   24.4130   42.2720 C   0  0  0  0  0  0  0  0  0  0  0  0
   38.9940   25.5580   42.8750 C   0  0  0  0  0  0  0  0  0  0  0  0
   38.3390   26.7080   42.6410 N   0  0  0  0  0  0  0  0  0  0  0  0
   37.2520   26.8110   41.8810 C   0  0  0  0  0  0  0  0  0  0  0  0
   36.7390   25.7140   41.2870 N   0  0  0  0  0  0  0  0  0  0  0  0
   36.9560   23.6100   41.0100 H   0  0  0  0  0  0  0  0  0  0  0  0
   39.0110   23.4890   42.4610 H   0  0  0  0  0  0  0  0  0  0  0  0
   36.5900   28.1080   41.6730 C   0  0  0  0  0  3  0  0  0  0  0  0
   35.8750   28.3630   40.6130 C   0  0  0  0  0  3  0  0  0  0  0  0
   35.2210   29.6830   40.4360 C   0  0  0  0  0  0  0  0  0  0  0  0
   35.3040   29.9040   39.3290 H   0  0  0  0  0  0  0  0  0  0  0  0
   34.1510   29.6450   40.6280 H   0  0  0  0  0  0  0  0  0  0  0  0
   36.5970   31.5830   40.1770 C   0  0  0  0  0  0  0  0  0  0  0  0
   36.7890   31.5160   38.9420 O   0  0  0  0  0  0  0  0  0  0  0  0
   35.9310   30.7320   41.0890 N   0  0  0  0  0  0  0  0  0  0  0  0
   36.0130   30.9310   42.0870 H   0  0  0  0  0  0  0  0  0  0  0  0
   37.2450   32.8140   40.5330 N   0  0  0  0  0  0  0  0  0  0  0  0
   36.9390   33.8130   40.4730 H   0  0  0  0  0  0  0  0  0  0  0  0
   38.2250   32.7650   40.9380 H   0  0  0  0  0  0  0  0  0  0  0  0
   40.1020   25.5930   43.6780 O   0  0  0  0  0  0  0  0  0  0  0  0
   41.3230   26.0570   43.0710 C   0  0  0  0  0  0  0  0  0  0  0  0
   42.3870   25.3360   43.6020 F   0  0  0  0  0  0  0  0  0  0  0  0
   41.2010   25.7760   41.6980 F   0  0  0  0  0  0  0  0  0  0  0  0
   41.4990   27.4260   43.2340 F   0  0  0  0  0  0  0  0  0  0  0  0
  1  2  1  0  0  0  0
  2  8  1  0  0  0  0
  2  3  2  0  0  0  0
  3 21  1  0  0  0  0
  4  3  1  0  0  0  0
  5  4  2  0  0  0  0
  6  1  2  0  0  0  0
  6  5  1  0  0  0  0
  7  1  1  0  0  0  0
  9  5  1  0  0  0  0
 10  9  2  0  0  0  0
 11 10  1  0  0  0  0
 11 13  1  0  0  0  0
 11 16  1  0  0  0  0
 12 11  1  0  0  0  0
 14 18  1  0  0  0  0
 14 16  1  0  0  0  0
 15 14  2  0  0  0  0
 16 17  1  0  0  0  0
 18 20  1  0  0  0  0
 19 18  1  0  0  0  0
 22 25  1  0  0  0  0
 22 23  1  0  0  0  0
 22 21  1  0  0  0  0
 24 22  1  0  0  0  0
M  END
>  <minimizedAffinity>
-4.66011906

$$$$

 OpenBabel03242520543D

 25 25  0  0  0  0  0  0  0  0999 V2000
   36.2000   30.9060   40.9890 C   0  0  0  0  0  0  0  0  0  0  0  0
   36.9760   31.7360   40.1730 C   0  0  0  0  0  0  0  0  0  0  0  0
   38.3610   31.6110   40.2180 C   0  0  0  0  0  0  0  0  0  0  0  0
   38.8570   30.6860   41.0570 N   0  0  0  0  0  0  0  0  0  0  0  0
   38.1140   29.8990   41.8300 C   0  0  0  0  0  0  0  0  0  0  0  0
   36.7690   30.0030   41.8030 N   0  0  0  0  0  0  0  0  0  0  0  0
   35.1100   31.0240   40.9340 H   0  0  0  0  0  0  0  0  0  0  0  0
   36.5790   32.4820   39.4980 H   0  0  0  0  0  0  0  0  0  0  0  0
   38.7330   28.9070   42.7240 C   0  0  0  0  0  3  0  0  0  0  0  0
   39.9400   28.4530   42.5330 C   0  0  0  0  0  3  0  0  0  0  0  0
   40.5320   27.4540   43.4560 C   0  0  0  0  0  0  0  0  0  0  0  0
   41.4240   27.0350   42.8990 H   0  0  0  0  0  0  0  0  0  0  0  0
   40.9550   27.9120   44.3470 H   0  0  0  0  0  0  0  0  0  0  0  0
   40.1530   25.1520   43.0950 C   0  0  0  0  0  0  0  0  0  0  0  0
   41.1090   24.9190   42.3200 O   0  0  0  0  0  0  0  0  0  0  0  0
   39.6670   26.3440   43.6800 N   0  0  0  0  0  0  0  0  0  0  0  0
   38.7810   26.3090   44.1860 H   0  0  0  0  0  0  0  0  0  0  0  0
   39.5850   23.8500   43.3000 N   0  0  0  0  0  0  0  0  0  0  0  0
   39.8490   23.0590   43.9330 H   0  0  0  0  0  0  0  0  0  0  0  0
   38.7330   23.5800   42.7280 H   0  0  0  0  0  0  0  0  0  0  0  0
   39.2400   32.3550   39.4780 O   0  0  0  0  0  0  0  0  0  0  0  0
   39.7870   33.5260   40.1140 C   0  0  0  0  0  0  0  0  0  0  0  0
   38.7600   34.2010   40.7640 F   0  0  0  0  0  0  0  0  0  0  0  0
   40.7130   33.0530   41.0610 F   0  0  0  0  0  0  0  0  0  0  0  0
   40.4520   34.3480   39.2110 F   0  0  0  0  0  0  0  0  0  0  0  0
  1  6  1  0  0  0  0
  2  3  1  0  0  0  0
  2  1  2  0  0  0  0
  3  4  2  0  0  0  0
  4  5  1  0  0  0  0
  5  9  1  0  0  0  0
  6  5  2  0  0  0  0
  7  1  1  0  0  0  0
  8  2  1  0  0  0  0
 10  9  2  0  0  0  0
 10 11  1  0  0  0  0
 11 16  1  0  0  0  0
 11 13  1  0  0  0  0
 12 11  1  0  0  0  0
 14 18  1  0  0  0  0
 14 16  1  0  0  0  0
 15 14  2  0  0  0  0
 16 17  1  0  0  0  0
 18 19  1  0  0  0  0
 20 18  1  0  0  0  0
 21 22  1  0  0  0  0
 21  3  1  0  0  0  0
 22 23  1  0  0  0  0
 22 24  1  0  0  0  0
 25 22  1  0  0  0  0
M  END
>  <minimizedAffinity>
-4.61008406

$$$$

 OpenBabel03242520543D

 25 25  0  0  0  0  0  0  0  0999 V2000
   34.7160   28.2300   36.1160 C   0  0  0  0  0  0  0  0  0  0  0  0
   35.1670   28.5070   34.8220 C   0  0  0  0  0  0  0  0  0  0  0  0
   36.1380   29.4880   34.6460 C   0  0  0  0  0  0  0  0  0  0  0  0
   36.5780   30.1060   35.7560 N   0  0  0  0  0  0  0  0  0  0  0  0
   36.1470   29.8380   36.9850 C   0  0  0  0  0  0  0  0  0  0  0  0
   35.2050   28.8910   37.1770 N   0  0  0  0  0  0  0  0  0  0  0  0
   33.9500   27.4520   36.2270 H   0  0  0  0  0  0  0  0  0  0  0  0
   34.8130   28.0120   33.9280 H   0  0  0  0  0  0  0  0  0  0  0  0
   36.6790   30.5590   38.1520 C   0  0  0  0  0  3  0  0  0  0  0  0
   36.3600   30.2390   39.3750 C   0  0  0  0  0  3  0  0  0  0  0  0
   36.9160   30.9890   40.5280 C   0  0  0  0  0  0  0  0  0  0  0  0
   36.1920   30.7990   41.3760 H   0  0  0  0  0  0  0  0  0  0  0  0
   37.8600   30.5740   40.8760 H   0  0  0  0  0  0  0  0  0  0  0  0
   38.1750   32.9850   40.4750 C   0  0  0  0  0  0  0  0  0  0  0  0
   39.2680   32.5340   40.8860 O   0  0  0  0  0  0  0  0  0  0  0  0
   36.8980   32.3970   40.3180 N   0  0  0  0  0  0  0  0  0  0  0  0
   36.1110   33.0040   40.0810 H   0  0  0  0  0  0  0  0  0  0  0  0
   38.4920   34.3490   40.1590 N   0  0  0  0  0  0  0  0  0  0  0  0
   38.9400   34.7910   39.3230 H   0  0  0  0  0  0  0  0  0  0  0  0
   38.2490   35.0970   40.8720 H   0  0  0  0  0  0  0  0  0  0  0  0
   36.6680   29.8610   33.4410 O   0  0  0  0  0  0  0  0  0  0  0  0
   36.4060   31.2110   33.0130 C   0  0  0  0  0  0  0  0  0  0  0  0
   36.3500   31.2350   31.6240 F   0  0  0  0  0  0  0  0  0  0  0  0
   35.1470   31.5450   33.5420 F   0  0  0  0  0  0  0  0  0  0  0  0
   37.3500   32.1060   33.5040 F   0  0  0  0  0  0  0  0  0  0  0  0
  1  7  1  0  0  0  0
  1  6  1  0  0  0  0
  2  1  2  0  0  0  0
  3  2  1  0  0  0  0
  3  4  2  0  0  0  0
  4  5  1  0  0  0  0
  5  6  2  0  0  0  0
  5  9  1  0  0  0  0
  8  2  1  0  0  0  0
  9 10  2  0  0  0  0
 10 11  1  0  0  0  0
 11 13  1  0  0  0  0
 11 12  1  0  0  0  0
 14 15  2  0  0  0  0
 16 14  1  0  0  0  0
 16 11  1  0  0  0  0
 17 16  1  0  0  0  0
 18 14  1  0  0  0  0
 18 20  1  0  0  0  0
 19 18  1  0  0  0  0
 21  3  1  0  0  0  0
 22 21  1  0  0  0  0
 22 25  1  0  0  0  0
 22 24  1  0  0  0  0
 23 22  1  0  0  0  0
M  END
>  <minimizedAffinity>
-4.57508516

$$$$
