
 OpenBabel03242510183D

 23 24  0  0  1  0  0  0  0  0999 V2000
   37.3470   26.7350   42.4540 C   0  0  1  0  0  0  0  0  0  0  0  0
   36.6260   27.1010   43.6360 C   0  0  0  0  0  0  0  0  0  0  0  0
   36.2820   27.8000   42.3480 C   0  0  1  0  0  0  0  0  0  0  0  0
   37.1060   25.8170   41.8620 H   0  0  0  0  0  0  0  0  0  0  0  0
   35.8380   26.4610   44.0960 H   0  0  0  0  0  0  0  0  0  0  0  0
   37.0630   27.7810   44.3970 H   0  0  0  0  0  0  0  0  0  0  0  0
   35.2510   27.6070   42.0270 H   0  0  0  0  0  0  0  0  0  0  0  0
   39.4130   27.3800   41.0430 C   0  0  0  0  0  0  0  0  0  0  0  0
   38.7870   27.1980   42.3090 C   0  0  0  0  0  0  0  0  0  0  0  0
   39.5250   27.4460   43.4390 C   0  0  0  0  0  0  0  0  0  0  0  0
   40.8140   27.8530   43.3070 N   0  0  0  0  0  0  0  0  0  0  0  0
   41.4020   28.0240   42.1070 C   0  0  0  0  0  0  0  0  0  0  0  0
   40.6820   27.7800   40.9460 N   0  0  0  0  0  0  0  0  0  0  0  0
   38.7960   27.1720   40.1720 H   0  0  0  0  0  0  0  0  0  0  0  0
   39.0770   27.3170   44.4130 H   0  0  0  0  0  0  0  0  0  0  0  0
   42.4280   28.3480   42.0060 H   0  0  0  0  0  0  0  0  0  0  0  0
   36.7520   29.1370   42.1710 N   0  0  0  0  0  0  0  0  0  0  0  0
   36.3550   29.8990   41.0780 C   0  0  0  0  0  0  0  0  0  0  0  0
   36.3840   29.6600   39.8470 O   0  0  0  0  0  0  0  0  0  0  0  0
   37.4130   29.6790   42.8100 H   0  0  0  0  0  0  0  0  0  0  0  0
   35.7820   31.2300   41.1820 N   0  0  0  0  0  0  0  0  0  0  0  0
   35.9290   31.6630   42.1300 H   0  0  0  0  0  0  0  0  0  0  0  0
   35.2680   31.7840   40.4730 H   0  0  0  0  0  0  0  0  0  0  0  0
  1  4  1  6  0  0  0
  1  2  1  0  0  0  0
  2  5  1  0  0  0  0
  2  6  1  0  0  0  0
  3  7  1  6  0  0  0
  3  1  1  0  0  0  0
  3  2  1  0  0  0  0
  8  9  1  0  0  0  0
  9  1  1  0  0  0  0
  9 10  2  0  0  0  0
 10 15  1  0  0  0  0
 11 10  1  0  0  0  0
 12 11  2  0  0  0  0
 13  8  2  0  0  0  0
 13 12  1  0  0  0  0
 14  8  1  0  0  0  0
 16 12  1  0  0  0  0
 17  3  1  0  0  0  0
 17 20  1  0  0  0  0
 18 21  1  0  0  0  0
 18 17  1  0  0  0  0
 19 18  2  0  0  0  0
 21 22  1  0  0  0  0
 23 21  1  0  0  0  0
M  END
>  <minimizedAffinity>
-4.0991745

$$$$

 OpenBabel03242510183D

 23 24  0  0  1  0  0  0  0  0999 V2000
   36.1470   28.6750   39.9960 C   0  0  1  0  0  0  0  0  0  0  0  0
   34.8140   29.1140   40.2800 C   0  0  0  0  0  0  0  0  0  0  0  0
   35.7790   30.1070   39.6900 C   0  0  1  0  0  0  0  0  0  0  0  0
   36.4050   28.0870   39.0790 H   0  0  0  0  0  0  0  0  0  0  0  0
   33.9310   28.8310   39.6620 H   0  0  0  0  0  0  0  0  0  0  0  0
   34.4960   29.3760   41.3110 H   0  0  0  0  0  0  0  0  0  0  0  0
   35.4650   30.4620   38.7010 H   0  0  0  0  0  0  0  0  0  0  0  0
   38.5160   28.5530   41.0200 C   0  0  0  0  0  0  0  0  0  0  0  0
   37.1020   28.4520   41.1560 C   0  0  0  0  0  0  0  0  0  0  0  0
   36.5910   28.1310   42.3880 C   0  0  0  0  0  0  0  0  0  0  0  0
   37.4470   27.9250   43.4230 N   0  0  0  0  0  0  0  0  0  0  0  0
   38.7840   28.0230   43.2890 C   0  0  0  0  0  0  0  0  0  0  0  0
   39.3310   28.3450   42.0550 N   0  0  0  0  0  0  0  0  0  0  0  0
   38.8820   28.8080   40.0280 H   0  0  0  0  0  0  0  0  0  0  0  0
   35.5230   28.0470   42.5220 H   0  0  0  0  0  0  0  0  0  0  0  0
   39.4620   27.8580   44.1150 H   0  0  0  0  0  0  0  0  0  0  0  0
   36.3340   31.0930   40.5620 N   0  0  0  0  0  0  0  0  0  0  0  0
   37.2780   32.0060   40.1040 C   0  0  0  0  0  0  0  0  0  0  0  0
   38.3630   31.8420   39.4980 O   0  0  0  0  0  0  0  0  0  0  0  0
   36.1070   31.2440   41.5940 H   0  0  0  0  0  0  0  0  0  0  0  0
   37.1580   33.4450   40.2640 N   0  0  0  0  0  0  0  0  0  0  0  0
   36.4290   33.7170   40.9730 H   0  0  0  0  0  0  0  0  0  0  0  0
   37.6770   34.2070   39.7900 H   0  0  0  0  0  0  0  0  0  0  0  0
  1  4  1  6  0  0  0
  1  2  1  0  0  0  0
  1  9  1  0  0  0  0
  2  6  1  0  0  0  0
  3  7  1  6  0  0  0
  3  1  1  0  0  0  0
  3  2  1  0  0  0  0
  3 17  1  0  0  0  0
  5  2  1  0  0  0  0
  8  9  2  0  0  0  0
  8 13  1  0  0  0  0
  9 10  1  0  0  0  0
 10 15  1  0  0  0  0
 10 11  2  0  0  0  0
 12 11  1  0  0  0  0
 12 16  1  0  0  0  0
 13 12  2  0  0  0  0
 14  8  1  0  0  0  0
 17 20  1  0  0  0  0
 18 21  1  0  0  0  0
 18 17  1  0  0  0  0
 19 18  2  0  0  0  0
 21 22  1  0  0  0  0
 23 21  1  0  0  0  0
M  END
>  <minimizedAffinity>
-4.08330345

$$$$

 OpenBabel03242510183D

 23 24  0  0  1  0  0  0  0  0999 V2000
   36.7040   30.8610   39.0670 C   0  0  1  0  0  0  0  0  0  0  0  0
   37.0410   29.4800   39.2420 C   0  0  0  0  0  0  0  0  0  0  0  0
   35.9880   30.0750   40.1390 C   0  0  1  0  0  0  0  0  0  0  0  0
   36.0190   31.2160   38.2570 H   0  0  0  0  0  0  0  0  0  0  0  0
   36.7190   28.6770   38.5400 H   0  0  0  0  0  0  0  0  0  0  0  0
   37.9550   29.1710   39.7910 H   0  0  0  0  0  0  0  0  0  0  0  0
   35.0060   29.6060   40.0040 H   0  0  0  0  0  0  0  0  0  0  0  0
   39.0320   31.6070   39.9060 C   0  0  0  0  0  0  0  0  0  0  0  0
   37.6900   31.9160   39.5420 C   0  0  0  0  0  0  0  0  0  0  0  0
   37.2770   33.2200   39.6340 C   0  0  0  0  0  0  0  0  0  0  0  0
   38.1580   34.1610   40.0660 N   0  0  0  0  0  0  0  0  0  0  0  0
   39.4260   33.8640   40.4090 C   0  0  0  0  0  0  0  0  0  0  0  0
   39.8730   32.5530   40.3260 N   0  0  0  0  0  0  0  0  0  0  0  0
   39.3200   30.5620   39.8200 H   0  0  0  0  0  0  0  0  0  0  0  0
   36.2650   33.4850   39.3660 H   0  0  0  0  0  0  0  0  0  0  0  0
   40.1230   34.6150   40.7520 H   0  0  0  0  0  0  0  0  0  0  0  0
   36.3560   30.3790   41.4850 N   0  0  0  0  0  0  0  0  0  0  0  0
   37.0110   29.4430   42.2790 C   0  0  0  0  0  0  0  0  0  0  0  0
   36.7310   28.2530   42.5590 O   0  0  0  0  0  0  0  0  0  0  0  0
   36.1910   31.2940   42.0100 H   0  0  0  0  0  0  0  0  0  0  0  0
   38.2510   29.7070   42.9880 N   0  0  0  0  0  0  0  0  0  0  0  0
   38.4720   30.7350   43.0540 H   0  0  0  0  0  0  0  0  0  0  0  0
   38.9180   29.0420   43.4200 H   0  0  0  0  0  0  0  0  0  0  0  0
  1  4  1  6  0  0  0
  1  2  1  0  0  0  0
  1  9  1  0  0  0  0
  1  3  1  0  0  0  0
  2  6  1  0  0  0  0
  2  3  1  0  0  0  0
  3  7  1  6  0  0  0
  3 17  1  0  0  0  0
  5  2  1  0  0  0  0
  8 13  1  0  0  0  0
  9 10  1  0  0  0  0
  9  8  2  0  0  0  0
 10 11  2  0  0  0  0
 11 12  1  0  0  0  0
 12 16  1  0  0  0  0
 13 12  2  0  0  0  0
 14  8  1  0  0  0  0
 15 10  1  0  0  0  0
 17 20  1  0  0  0  0
 17 18  1  0  0  0  0
 18 19  2  0  0  0  0
 18 21  1  0  0  0  0
 21 22  1  0  0  0  0
 21 23  1  0  0  0  0
M  END
>  <minimizedAffinity>
-3.97227144

$$$$

 OpenBabel03242510183D

 23 24  0  0  1  0  0  0  0  0999 V2000
   36.6320   30.7980   39.0610 C   0  0  1  0  0  0  0  0  0  0  0  0
   36.9620   29.4200   39.2620 C   0  0  0  0  0  0  0  0  0  0  0  0
   35.9430   30.0470   40.1750 C   0  0  1  0  0  0  0  0  0  0  0  0
   35.9260   31.1390   38.2640 H   0  0  0  0  0  0  0  0  0  0  0  0
   36.6110   28.6020   38.5910 H   0  0  0  0  0  0  0  0  0  0  0  0
   37.8900   29.1150   39.7900 H   0  0  0  0  0  0  0  0  0  0  0  0
   34.9530   29.5850   40.0820 H   0  0  0  0  0  0  0  0  0  0  0  0
   37.2880   33.2190   39.6850 C   0  0  0  0  0  0  0  0  0  0  0  0
   37.6420   31.8550   39.4780 C   0  0  0  0  0  0  0  0  0  0  0  0
   38.9520   31.4910   39.6570 C   0  0  0  0  0  0  0  0  0  0  0  0
   39.8550   32.4390   40.0220 N   0  0  0  0  0  0  0  0  0  0  0  0
   39.5150   33.7270   40.2180 C   0  0  0  0  0  0  0  0  0  0  0  0
   38.1980   34.1260   40.0440 N   0  0  0  0  0  0  0  0  0  0  0  0
   36.2400   33.4670   39.5330 H   0  0  0  0  0  0  0  0  0  0  0  0
   39.2510   30.4650   39.5060 H   0  0  0  0  0  0  0  0  0  0  0  0
   40.2360   34.4780   40.5080 H   0  0  0  0  0  0  0  0  0  0  0  0
   36.3550   30.3810   41.5010 N   0  0  0  0  0  0  0  0  0  0  0  0
   37.0450   29.4670   42.2900 C   0  0  0  0  0  0  0  0  0  0  0  0
   36.7850   28.2810   42.6030 O   0  0  0  0  0  0  0  0  0  0  0  0
   36.2010   31.3050   42.0120 H   0  0  0  0  0  0  0  0  0  0  0  0
   38.3070   29.7550   42.9490 N   0  0  0  0  0  0  0  0  0  0  0  0
   38.5210   30.7860   42.9860 H   0  0  0  0  0  0  0  0  0  0  0  0
   38.9950   29.1040   43.3710 H   0  0  0  0  0  0  0  0  0  0  0  0
  1  4  1  6  0  0  0
  1  2  1  0  0  0  0
  1  9  1  0  0  0  0
  1  3  1  0  0  0  0
  2  6  1  0  0  0  0
  2  3  1  0  0  0  0
  3  7  1  6  0  0  0
  3 17  1  0  0  0  0
  5  2  1  0  0  0  0
  8 13  1  0  0  0  0
  9 10  1  0  0  0  0
  9  8  2  0  0  0  0
 10 11  2  0  0  0  0
 11 12  1  0  0  0  0
 12 16  1  0  0  0  0
 13 12  2  0  0  0  0
 14  8  1  0  0  0  0
 15 10  1  0  0  0  0
 17 20  1  0  0  0  0
 17 18  1  0  0  0  0
 18 19  2  0  0  0  0
 18 21  1  0  0  0  0
 21 22  1  0  0  0  0
 21 23  1  0  0  0  0
M  END
>  <minimizedAffinity>
-3.92531824

$$$$

 OpenBabel03242510183D

 23 24  0  0  1  0  0  0  0  0999 V2000
   37.7060   28.2620   43.5610 C   0  0  1  0  0  0  0  0  0  0  0  0
   36.5250   27.4630   43.4380 C   0  0  0  0  0  0  0  0  0  0  0  0
   37.8290   26.8830   42.9580 C   0  0  1  0  0  0  0  0  0  0  0  0
   38.2660   28.3670   44.5240 H   0  0  0  0  0  0  0  0  0  0  0  0
   36.0310   26.9620   44.3030 H   0  0  0  0  0  0  0  0  0  0  0  0
   35.7940   27.6280   42.6180 H   0  0  0  0  0  0  0  0  0  0  0  0
   38.1260   25.9910   43.5220 H   0  0  0  0  0  0  0  0  0  0  0  0
   36.8560   29.9010   41.7530 C   0  0  0  0  0  0  0  0  0  0  0  0
   37.8910   29.4360   42.6140 C   0  0  0  0  0  0  0  0  0  0  0  0
   39.1040   30.0750   42.5730 C   0  0  0  0  0  0  0  0  0  0  0  0
   39.2700   31.1200   41.7210 N   0  0  0  0  0  0  0  0  0  0  0  0
   38.2880   31.5570   40.9090 C   0  0  0  0  0  0  0  0  0  0  0  0
   37.0500   30.9300   40.9270 N   0  0  0  0  0  0  0  0  0  0  0  0
   35.9110   29.3680   41.8150 H   0  0  0  0  0  0  0  0  0  0  0  0
   39.9080   29.7440   43.2130 H   0  0  0  0  0  0  0  0  0  0  0  0
   38.4240   32.3880   40.2320 H   0  0  0  0  0  0  0  0  0  0  0  0
   38.0560   26.8360   41.5490 N   0  0  0  0  0  0  0  0  0  0  0  0
   37.1750   26.1750   40.7010 C   0  0  0  0  0  0  0  0  0  0  0  0
   36.7190   25.0070   40.7280 O   0  0  0  0  0  0  0  0  0  0  0  0
   38.8670   27.2750   41.0110 H   0  0  0  0  0  0  0  0  0  0  0  0
   36.5730   26.7790   39.5250 N   0  0  0  0  0  0  0  0  0  0  0  0
   37.0550   27.6680   39.2320 H   0  0  0  0  0  0  0  0  0  0  0  0
   35.7630   26.4610   38.9610 H   0  0  0  0  0  0  0  0  0  0  0  0
  1  4  1  1  0  0  0
  2  1  1  0  0  0  0
  2  5  1  0  0  0  0
  3  2  1  0  0  0  0
  3  7  1  1  0  0  0
  3  1  1  0  0  0  0
  6  2  1  0  0  0  0
  8 14  1  0  0  0  0
  8  9  1  0  0  0  0
  9  1  1  0  0  0  0
 10  9  2  0  0  0  0
 10 15  1  0  0  0  0
 11 10  1  0  0  0  0
 12 13  1  0  0  0  0
 12 11  2  0  0  0  0
 13  8  2  0  0  0  0
 16 12  1  0  0  0  0
 17  3  1  0  0  0  0
 18 19  2  0  0  0  0
 18 17  1  0  0  0  0
 20 17  1  0  0  0  0
 21 18  1  0  0  0  0
 22 21  1  0  0  0  0
 23 21  1  0  0  0  0
M  END
>  <minimizedAffinity>
-3.91377711

$$$$

 OpenBabel03242510183D

 23 24  0  0  1  0  0  0  0  0999 V2000
   36.3250   30.7600   40.9780 C   0  0  1  0  0  0  0  0  0  0  0  0
   37.1560   31.8260   40.5060 C   0  0  0  0  0  0  0  0  0  0  0  0
   36.5870   30.8660   39.4950 C   0  0  1  0  0  0  0  0  0  0  0  0
   35.2470   30.9070   41.2410 H   0  0  0  0  0  0  0  0  0  0  0  0
   36.8190   32.8860   40.4490 H   0  0  0  0  0  0  0  0  0  0  0  0
   38.2630   31.7760   40.5780 H   0  0  0  0  0  0  0  0  0  0  0  0
   35.9090   31.3550   38.7850 H   0  0  0  0  0  0  0  0  0  0  0  0
   36.3920   28.2980   41.7610 C   0  0  0  0  0  0  0  0  0  0  0  0
   36.9790   29.5940   41.7020 C   0  0  0  0  0  0  0  0  0  0  0  0
   38.1800   29.7920   42.3340 C   0  0  0  0  0  0  0  0  0  0  0  0
   38.7590   28.7500   42.9870 N   0  0  0  0  0  0  0  0  0  0  0  0
   38.2010   27.5260   43.0390 C   0  0  0  0  0  0  0  0  0  0  0  0
   36.9860   27.2950   42.4100 N   0  0  0  0  0  0  0  0  0  0  0  0
   35.4400   28.1820   41.2480 H   0  0  0  0  0  0  0  0  0  0  0  0
   38.6490   30.7640   42.3080 H   0  0  0  0  0  0  0  0  0  0  0  0
   38.6650   26.7000   43.5600 H   0  0  0  0  0  0  0  0  0  0  0  0
   37.4650   29.8830   38.9450 N   0  0  0  0  0  0  0  0  0  0  0  0
   37.8790   29.9510   37.6200 C   0  0  0  0  0  0  0  0  0  0  0  0
   37.2290   30.0560   36.5530 O   0  0  0  0  0  0  0  0  0  0  0  0
   37.8850   29.0390   39.4460 H   0  0  0  0  0  0  0  0  0  0  0  0
   39.2700   29.9100   37.2020 N   0  0  0  0  0  0  0  0  0  0  0  0
   39.9140   29.5700   37.9620 H   0  0  0  0  0  0  0  0  0  0  0  0
   39.6920   30.1620   36.2890 H   0  0  0  0  0  0  0  0  0  0  0  0
  1  4  1  1  0  0  0
  1  9  1  0  0  0  0
  2  6  1  0  0  0  0
  2  1  1  0  0  0  0
  3  7  1  6  0  0  0
  3  2  1  0  0  0  0
  3  1  1  0  0  0  0
  5  2  1  0  0  0  0
  8 13  1  0  0  0  0
  9  8  2  0  0  0  0
  9 10  1  0  0  0  0
 10 11  2  0  0  0  0
 11 12  1  0  0  0  0
 12 16  1  0  0  0  0
 13 12  2  0  0  0  0
 14  8  1  0  0  0  0
 15 10  1  0  0  0  0
 17 20  1  0  0  0  0
 17  3  1  0  0  0  0
 18 17  1  0  0  0  0
 19 18  2  0  0  0  0
 21 18  1  0  0  0  0
 21 22  1  0  0  0  0
 23 21  1  0  0  0  0
M  END
>  <minimizedAffinity>
-3.81908178

$$$$

 OpenBabel03242510183D

 23 24  0  0  1  0  0  0  0  0999 V2000
   37.6220   28.5190   42.9240 C   0  0  1  0  0  0  0  0  0  0  0  0
   36.8220   27.6030   43.6790 C   0  0  0  0  0  0  0  0  0  0  0  0
   38.2350   27.2050   43.3450 C   0  0  1  0  0  0  0  0  0  0  0  0
   38.1270   29.4030   43.3890 H   0  0  0  0  0  0  0  0  0  0  0  0
   36.5730   27.7500   44.7550 H   0  0  0  0  0  0  0  0  0  0  0  0
   36.0610   26.9580   43.1910 H   0  0  0  0  0  0  0  0  0  0  0  0
   38.8580   27.0760   44.2380 H   0  0  0  0  0  0  0  0  0  0  0  0
   38.3120   29.1350   40.5110 C   0  0  0  0  0  0  0  0  0  0  0  0
   37.3310   28.6900   41.4420 C   0  0  0  0  0  0  0  0  0  0  0  0
   36.0710   28.4130   40.9750 C   0  0  0  0  0  0  0  0  0  0  0  0
   35.8110   28.5730   39.6510 N   0  0  0  0  0  0  0  0  0  0  0  0
   36.7420   28.9940   38.7740 C   0  0  0  0  0  0  0  0  0  0  0  0
   38.0250   29.2820   39.2170 N   0  0  0  0  0  0  0  0  0  0  0  0
   39.2970   29.3450   40.9210 H   0  0  0  0  0  0  0  0  0  0  0  0
   35.3060   28.0740   41.6570 H   0  0  0  0  0  0  0  0  0  0  0  0
   36.5300   29.1200   37.7210 H   0  0  0  0  0  0  0  0  0  0  0  0
   38.4260   26.2450   42.3050 N   0  0  0  0  0  0  0  0  0  0  0  0
   38.8240   24.9440   42.5920 C   0  0  0  0  0  0  0  0  0  0  0  0
   39.7880   24.5020   43.2620 O   0  0  0  0  0  0  0  0  0  0  0  0
   38.2920   26.3930   41.2560 H   0  0  0  0  0  0  0  0  0  0  0  0
   38.1260   23.7600   42.1230 N   0  0  0  0  0  0  0  0  0  0  0  0
   37.4490   23.9670   41.3440 H   0  0  0  0  0  0  0  0  0  0  0  0
   38.2060   22.7770   42.4440 H   0  0  0  0  0  0  0  0  0  0  0  0
  1  3  1  0  0  0  0
  1  4  1  1  0  0  0
  1  2  1  0  0  0  0
  2  5  1  0  0  0  0
  3  2  1  0  0  0  0
  3  7  1  1  0  0  0
  6  2  1  0  0  0  0
  8 14  1  0  0  0  0
  8  9  1  0  0  0  0
  9  1  1  0  0  0  0
 10  9  2  0  0  0  0
 10 15  1  0  0  0  0
 11 10  1  0  0  0  0
 12 13  1  0  0  0  0
 12 11  2  0  0  0  0
 13  8  2  0  0  0  0
 16 12  1  0  0  0  0
 17 18  1  0  0  0  0
 17  3  1  0  0  0  0
 18 19  2  0  0  0  0
 20 17  1  0  0  0  0
 21 23  1  0  0  0  0
 21 18  1  0  0  0  0
 22 21  1  0  0  0  0
M  END
>  <minimizedAffinity>
-3.7736454

$$$$

 OpenBabel03242510183D

 23 24  0  0  1  0  0  0  0  0999 V2000
   37.9930   27.1320   43.1280 C   0  0  1  0  0  0  0  0  0  0  0  0
   38.5870   28.3940   42.8080 C   0  0  0  0  0  0  0  0  0  0  0  0
   37.1130   28.3590   43.1100 C   0  0  1  0  0  0  0  0  0  0  0  0
   38.0730   26.6690   44.1440 H   0  0  0  0  0  0  0  0  0  0  0  0
   39.2390   28.9610   43.5120 H   0  0  0  0  0  0  0  0  0  0  0  0
   38.8090   28.6830   41.7590 H   0  0  0  0  0  0  0  0  0  0  0  0
   36.8520   28.9400   44.0020 H   0  0  0  0  0  0  0  0  0  0  0  0
   38.3750   26.2640   40.7250 C   0  0  0  0  0  0  0  0  0  0  0  0
   37.7780   26.1250   42.0100 C   0  0  0  0  0  0  0  0  0  0  0  0
   36.9710   25.0400   42.2360 C   0  0  0  0  0  0  0  0  0  0  0  0
   36.7740   24.1440   41.2340 N   0  0  0  0  0  0  0  0  0  0  0  0
   37.3420   24.2790   40.0200 C   0  0  0  0  0  0  0  0  0  0  0  0
   38.1630   25.3670   39.7600 N   0  0  0  0  0  0  0  0  0  0  0  0
   39.0070   27.1380   40.5850 H   0  0  0  0  0  0  0  0  0  0  0  0
   36.5040   24.9080   43.2010 H   0  0  0  0  0  0  0  0  0  0  0  0
   37.1830   23.5650   39.2240 H   0  0  0  0  0  0  0  0  0  0  0  0
   36.2070   28.4590   42.0100 N   0  0  0  0  0  0  0  0  0  0  0  0
   36.2630   29.5340   41.1300 C   0  0  0  0  0  0  0  0  0  0  0  0
   36.2520   30.7720   41.3320 O   0  0  0  0  0  0  0  0  0  0  0  0
   35.4350   27.7720   41.7440 H   0  0  0  0  0  0  0  0  0  0  0  0
   36.3530   29.3970   39.6870 N   0  0  0  0  0  0  0  0  0  0  0  0
   36.1170   28.4260   39.3550 H   0  0  0  0  0  0  0  0  0  0  0  0
   36.6100   30.1020   38.9720 H   0  0  0  0  0  0  0  0  0  0  0  0
  1  4  1  1  0  0  0
  2  3  1  0  0  0  0
  2  1  1  0  0  0  0
  2  5  1  0  0  0  0
  3  1  1  0  0  0  0
  3  7  1  1  0  0  0
  6  2  1  0  0  0  0
  8  9  1  0  0  0  0
  9 10  2  0  0  0  0
  9  1  1  0  0  0  0
 10 15  1  0  0  0  0
 11 10  1  0  0  0  0
 12 11  2  0  0  0  0
 13 12  1  0  0  0  0
 13  8  2  0  0  0  0
 14  8  1  0  0  0  0
 16 12  1  0  0  0  0
 17  3  1  0  0  0  0
 18 19  2  0  0  0  0
 18 17  1  0  0  0  0
 20 17  1  0  0  0  0
 21 18  1  0  0  0  0
 22 21  1  0  0  0  0
 23 21  1  0  0  0  0
M  END
>  <minimizedAffinity>
-3.73456144

$$$$

 OpenBabel03242510183D

 23 24  0  0  1  0  0  0  0  0999 V2000
   37.0260   26.5440   42.8620 C   0  0  1  0  0  0  0  0  0  0  0  0
   36.7260   27.6850   43.6730 C   0  0  0  0  0  0  0  0  0  0  0  0
   36.6750   27.8420   42.1760 C   0  0  1  0  0  0  0  0  0  0  0  0
   36.2810   25.7320   42.6660 H   0  0  0  0  0  0  0  0  0  0  0  0
   35.7690   27.8060   44.2320 H   0  0  0  0  0  0  0  0  0  0  0  0
   37.5290   28.2890   44.1460 H   0  0  0  0  0  0  0  0  0  0  0  0
   35.6700   28.0920   41.8130 H   0  0  0  0  0  0  0  0  0  0  0  0
   39.4770   26.4940   43.6780 C   0  0  0  0  0  0  0  0  0  0  0  0
   38.4710   26.0880   42.7550 C   0  0  0  0  0  0  0  0  0  0  0  0
   38.8340   25.2590   41.7250 C   0  0  0  0  0  0  0  0  0  0  0  0
   40.1290   24.8580   41.6260 N   0  0  0  0  0  0  0  0  0  0  0  0
   41.0760   25.2440   42.5020 C   0  0  0  0  0  0  0  0  0  0  0  0
   40.7400   26.0840   43.5540 N   0  0  0  0  0  0  0  0  0  0  0  0
   39.1500   27.1520   44.4790 H   0  0  0  0  0  0  0  0  0  0  0  0
   38.0940   24.9350   41.0080 H   0  0  0  0  0  0  0  0  0  0  0  0
   42.1050   24.9230   42.4200 H   0  0  0  0  0  0  0  0  0  0  0  0
   37.7570   28.5250   41.5420 N   0  0  0  0  0  0  0  0  0  0  0  0
   37.8570   29.9110   41.5890 C   0  0  0  0  0  0  0  0  0  0  0  0
   37.0360   30.8110   41.2940 O   0  0  0  0  0  0  0  0  0  0  0  0
   38.5650   28.0890   40.9980 H   0  0  0  0  0  0  0  0  0  0  0  0
   39.0440   30.6230   42.0300 N   0  0  0  0  0  0  0  0  0  0  0  0
   39.8980   30.0090   42.0660 H   0  0  0  0  0  0  0  0  0  0  0  0
   39.1530   31.6180   42.3010 H   0  0  0  0  0  0  0  0  0  0  0  0
  1  4  1  6  0  0  0
  1  2  1  0  0  0  0
  2  6  1  0  0  0  0
  2  5  1  0  0  0  0
  3  7  1  6  0  0  0
  3  1  1  0  0  0  0
  3  2  1  0  0  0  0
  8 14  1  0  0  0  0
  9  1  1  0  0  0  0
  9  8  2  0  0  0  0
 10  9  1  0  0  0  0
 11 10  2  0  0  0  0
 11 12  1  0  0  0  0
 12 13  2  0  0  0  0
 13  8  1  0  0  0  0
 15 10  1  0  0  0  0
 16 12  1  0  0  0  0
 17 18  1  0  0  0  0
 17  3  1  0  0  0  0
 18 21  1  0  0  0  0
 19 18  2  0  0  0  0
 20 17  1  0  0  0  0
 21 22  1  0  0  0  0
 21 23  1  0  0  0  0
M  END
>  <minimizedAffinity>
-3.69903517

$$$$
