
 OpenBabel03242510183D

 23 24  0  0  1  0  0  0  0  0999 V2000
   46.0200   33.5240   41.8870 C   0  0  1  0  0  0  0  0  0  0  0  0
   46.7590   34.2910   40.9300 C   0  0  0  0  0  0  0  0  0  0  0  0
   47.5070   33.2880   41.7690 C   0  0  1  0  0  0  0  0  0  0  0  0
   45.4130   32.6270   41.6020 H   0  0  0  0  0  0  0  0  0  0  0  0
   46.7160   34.1060   39.8320 H   0  0  0  0  0  0  0  0  0  0  0  0
   47.0600   35.3400   41.1340 H   0  0  0  0  0  0  0  0  0  0  0  0
   47.9560   32.4880   41.1680 H   0  0  0  0  0  0  0  0  0  0  0  0
   45.1170   35.5710   43.1790 C   0  0  0  0  0  0  0  0  0  0  0  0
   45.5390   34.2110   43.1540 C   0  0  0  0  0  0  0  0  0  0  0  0
   45.5150   33.5030   44.3280 C   0  0  0  0  0  0  0  0  0  0  0  0
   45.0910   34.1210   45.4620 N   0  0  0  0  0  0  0  0  0  0  0  0
   44.6930   35.4080   45.4800 C   0  0  0  0  0  0  0  0  0  0  0  0
   44.7070   36.1510   44.3090 N   0  0  0  0  0  0  0  0  0  0  0  0
   45.1530   36.0980   42.2290 H   0  0  0  0  0  0  0  0  0  0  0  0
   45.8290   32.4700   44.3410 H   0  0  0  0  0  0  0  0  0  0  0  0
   44.3570   35.8960   46.3840 H   0  0  0  0  0  0  0  0  0  0  0  0
   48.3030   33.7860   42.8450 N   0  0  0  0  0  0  0  0  0  0  0  0
   49.6580   34.0470   42.6730 C   0  0  0  0  0  0  0  0  0  0  0  0
   50.5900   33.3340   42.2310 O   0  0  0  0  0  0  0  0  0  0  0  0
   47.9820   34.0060   43.8390 H   0  0  0  0  0  0  0  0  0  0  0  0
   50.2880   35.3130   43.0080 N   0  0  0  0  0  0  0  0  0  0  0  0
   49.6850   35.9180   43.6220 H   0  0  0  0  0  0  0  0  0  0  0  0
   51.2170   35.6800   42.7310 H   0  0  0  0  0  0  0  0  0  0  0  0
  1  4  1  6  0  0  0
  1  9  1  0  0  0  0
  2  6  1  0  0  0  0
  2  3  1  0  0  0  0
  2  1  1  0  0  0  0
  3  7  1  6  0  0  0
  3  1  1  0  0  0  0
  3 17  1  0  0  0  0
  5  2  1  0  0  0  0
  8 13  1  0  0  0  0
  9  8  2  0  0  0  0
  9 10  1  0  0  0  0
 10 15  1  0  0  0  0
 10 11  2  0  0  0  0
 11 12  1  0  0  0  0
 12 16  1  0  0  0  0
 13 12  2  0  0  0  0
 14  8  1  0  0  0  0
 17 20  1  0  0  0  0
 18 17  1  0  0  0  0
 18 21  1  0  0  0  0
 19 18  2  0  0  0  0
 21 22  1  0  0  0  0
 23 21  1  0  0  0  0
M  END
>  <minimizedAffinity>
-4.54404831

>  <minimizedRMSD>
0.50673759

$$$$
