
 OpenBabel03242520543D

 25 25  0  0  0  0  0  0  0  0999 V2000
   44.7310   33.5100   42.7720 C   0  0  0  0  0  0  0  0  0  0  0  0
   45.4880   34.4610   42.0810 C   0  0  0  0  0  0  0  0  0  0  0  0
   46.7600   34.7740   42.5500 C   0  0  0  0  0  0  0  0  0  0  0  0
   47.1730   34.1240   43.6530 N   0  0  0  0  0  0  0  0  0  0  0  0
   46.4490   33.2190   44.3060 C   0  0  0  0  0  0  0  0  0  0  0  0
   45.2130   32.9020   43.8680 N   0  0  0  0  0  0  0  0  0  0  0  0
   43.7310   33.2820   42.3810 H   0  0  0  0  0  0  0  0  0  0  0  0
   45.1570   34.9860   41.1950 H   0  0  0  0  0  0  0  0  0  0  0  0
   46.9720   32.5500   45.5070 C   0  0  0  0  0  0  0  0  0  0  0  0
   46.6910   32.9610   46.7120 C   0  0  0  0  0  0  0  0  0  0  0  0
   47.2360   32.2610   47.9010 C   0  0  0  0  0  0  0  0  0  0  0  0
   48.3570   32.2480   47.7440 H   0  0  0  0  0  0  0  0  0  0  0  0
   47.0940   32.8290   48.8180 H   0  0  0  0  0  0  0  0  0  0  0  0
   45.7780   30.6690   48.8570 C   0  0  0  0  0  0  0  0  0  0  0  0
   45.2180   31.4040   49.7020 O   0  0  0  0  0  0  0  0  0  0  0  0
   46.8420   30.8930   47.9520 N   0  0  0  0  0  0  0  0  0  0  0  0
   47.2180   30.0940   47.4400 H   0  0  0  0  0  0  0  0  0  0  0  0
   45.0650   29.4310   48.9900 N   0  0  0  0  0  0  0  0  0  0  0  0
   44.1480   29.1030   48.6050 H   0  0  0  0  0  0  0  0  0  0  0  0
   45.5000   28.6630   49.5790 H   0  0  0  0  0  0  0  0  0  0  0  0
   47.6070   35.6820   41.9760 O   0  0  0  0  0  0  0  0  0  0  0  0
   48.4840   35.1840   40.9480 C   0  0  0  0  0  0  0  0  0  0  0  0
   47.7110   34.6700   39.9130 F   0  0  0  0  0  0  0  0  0  0  0  0
   49.2100   36.2970   40.4870 F   0  0  0  0  0  0  0  0  0  0  0  0
   49.3790   34.2390   41.4380 F   0  0  0  0  0  0  0  0  0  0  0  0
  1  6  1  0  0  0  0
  2  3  1  0  0  0  0
  2  1  2  0  0  0  0
  3  4  2  0  0  0  0
  4  5  1  0  0  0  0
  5  9  1  0  0  0  0
  6  5  2  0  0  0  0
  7  1  1  0  0  0  0
  8  2  1  0  0  0  0
  9 10  2  0  0  0  0
 10 11  1  0  0  0  0
 11 16  1  0  0  0  0
 11 13  1  0  0  0  0
 12 11  1  0  0  0  0
 14 18  1  0  0  0  0
 14 15  2  0  0  0  0
 16 14  1  0  0  0  0
 17 16  1  0  0  0  0
 18 20  1  0  0  0  0
 19 18  1  0  0  0  0
 21  3  1  0  0  0  0
 22 25  1  0  0  0  0
 22 21  1  0  0  0  0
 23 22  1  0  0  0  0
 24 22  1  0  0  0  0
M  END
>  <minimizedAffinity>
-5.17528343

>  <minimizedRMSD>
0.795716763

$$$$
