
 OpenBabel03242513513D

 28 29  0  0  1  0  0  0  0  0999 V2000
   37.8390   25.5760   41.2340 C   0  0  2  0  0  0  0  0  0  0  0  0
   36.9600   24.5280   41.9000 C   0  0  0  0  0  0  0  0  0  0  0  0
   37.2130   23.3820   40.9360 C   0  0  0  0  0  0  0  0  0  0  0  0
   38.6370   23.4890   40.5890 C   0  0  0  0  0  0  0  0  0  0  0  0
   39.1610   24.8900   41.1760 C   0  0  2  0  0  0  0  0  0  0  0  0
   37.4800   25.7200   40.2050 H   0  0  0  0  0  0  0  0  0  0  0  0
   35.9140   24.8210   41.9860 H   0  0  0  0  0  0  0  0  0  0  0  0
   37.4160   24.2040   42.8670 H   0  0  0  0  0  0  0  0  0  0  0  0
   36.6020   23.6490   40.0240 H   0  0  0  0  0  0  0  0  0  0  0  0
   36.8970   22.4100   41.3560 H   0  0  0  0  0  0  0  0  0  0  0  0
   38.8400   23.4730   39.4940 H   0  0  0  0  0  0  0  0  0  0  0  0
   39.3280   22.7620   41.0500 H   0  0  0  0  0  0  0  0  0  0  0  0
   39.9120   24.9940   40.4510 H   0  0  0  0  0  0  0  0  0  0  0  0
   37.3100   28.3920   43.6800 C   0  0  0  0  0  0  0  0  0  0  0  0
   37.1270   27.1380   43.0640 C   0  0  0  0  0  0  0  0  0  0  0  0
   37.9110   26.8510   41.9820 C   0  0  0  0  0  0  0  0  0  0  0  0
   38.8250   27.8070   41.5680 N   0  0  0  0  0  0  0  0  0  0  0  0
   38.9770   28.9880   42.1710 C   0  0  0  0  0  0  0  0  0  0  0  0
   38.2260   29.2820   43.2180 N   0  0  0  0  0  0  0  0  0  0  0  0
   36.6710   28.5920   44.5410 H   0  0  0  0  0  0  0  0  0  0  0  0
   36.4090   26.4230   43.4150 H   0  0  0  0  0  0  0  0  0  0  0  0
   39.7210   29.6590   41.7620 H   0  0  0  0  0  0  0  0  0  0  0  0
   39.6650   24.5920   42.4530 O   0  0  0  0  0  0  0  0  0  0  0  0
   40.9240   24.8730   42.9000 C   0  0  0  0  0  0  0  0  0  0  0  0
   40.8190   25.8850   43.6800 O   0  0  0  0  0  0  0  0  0  0  0  0
   42.3270   24.7870   43.0820 N   0  0  0  0  0  0  0  0  0  0  0  0
   42.7270   24.6390   44.0310 H   0  0  0  0  0  0  0  0  0  0  0  0
   42.9760   24.8770   42.2440 H   0  0  0  0  0  0  0  0  0  0  0  0
  1  6  1  6  0  0  0
  1  2  1  0  0  0  0
  1 16  1  0  0  0  0
  2  7  1  0  0  0  0
  2  8  1  0  0  0  0
  3 10  1  0  0  0  0
  3  2  1  0  0  0  0
  4  3  1  0  0  0  0
  4 12  1  0  0  0  0
  4  5  1  0  0  0  0
  5 13  1  6  0  0  0
  5  1  1  0  0  0  0
  5 23  1  0  0  0  0
  9  3  1  0  0  0  0
 11  4  1  0  0  0  0
 14 20  1  0  0  0  0
 15 21  1  0  0  0  0
 15 14  2  0  0  0  0
 16 15  1  0  0  0  0
 17 16  2  0  0  0  0
 17 18  1  0  0  0  0
 18 19  2  0  0  0  0
 19 14  1  0  0  0  0
 22 18  1  0  0  0  0
 23 24  1  0  0  0  0
 24 26  1  0  0  0  0
 24 25  2  0  0  0  0
 26 27  1  0  0  0  0
 28 26  1  0  0  0  0
M  END
>  <minimizedAffinity>
-4.43387842

$$$$

 OpenBabel03242513513D

 28 29  0  0  1  0  0  0  0  0999 V2000
   37.7920   32.0320   40.8480 C   0  0  2  0  0  0  0  0  0  0  0  0
   37.1000   32.9410   39.8440 C   0  0  0  0  0  0  0  0  0  0  0  0
   38.0870   34.0950   39.8740 C   0  0  0  0  0  0  0  0  0  0  0  0
   39.4080   33.4590   39.9760 C   0  0  0  0  0  0  0  0  0  0  0  0
   39.1570   31.8990   40.2660 C   0  0  2  0  0  0  0  0  0  0  0  0
   37.8740   32.5730   41.8010 H   0  0  0  0  0  0  0  0  0  0  0  0
   36.0820   33.2130   40.1240 H   0  0  0  0  0  0  0  0  0  0  0  0
   37.1830   32.5110   38.8170 H   0  0  0  0  0  0  0  0  0  0  0  0
   37.8670   34.6210   40.8500 H   0  0  0  0  0  0  0  0  0  0  0  0
   37.9520   34.7780   39.0160 H   0  0  0  0  0  0  0  0  0  0  0  0
   40.0460   33.8660   40.7930 H   0  0  0  0  0  0  0  0  0  0  0  0
   40.0320   33.4370   39.0660 H   0  0  0  0  0  0  0  0  0  0  0  0
   40.0670   31.7740   40.7740 H   0  0  0  0  0  0  0  0  0  0  0  0
   35.4630   29.0790   40.6180 C   0  0  0  0  0  0  0  0  0  0  0  0
   35.9750   30.3680   40.3690 C   0  0  0  0  0  0  0  0  0  0  0  0
   37.1300   30.7170   41.0110 C   0  0  0  0  0  0  0  0  0  0  0  0
   37.7130   29.7870   41.8560 N   0  0  0  0  0  0  0  0  0  0  0  0
   37.2050   28.5720   42.0730 C   0  0  0  0  0  0  0  0  0  0  0  0
   36.0880   28.2180   41.4610 N   0  0  0  0  0  0  0  0  0  0  0  0
   34.5410   28.8290   40.0920 H   0  0  0  0  0  0  0  0  0  0  0  0
   35.4950   31.0610   39.7060 H   0  0  0  0  0  0  0  0  0  0  0  0
   37.7440   27.9260   42.7540 H   0  0  0  0  0  0  0  0  0  0  0  0
   39.1430   31.2840   39.0020 O   0  0  0  0  0  0  0  0  0  0  0  0
   39.8860   31.6610   37.9220 C   0  0  0  0  0  0  0  0  0  0  0  0
   40.9660   30.9730   37.9610 O   0  0  0  0  0  0  0  0  0  0  0  0
   40.2740   32.3380   36.7370 N   0  0  0  0  0  0  0  0  0  0  0  0
   40.4720   31.8030   35.8670 H   0  0  0  0  0  0  0  0  0  0  0  0
   40.3660   33.3970   36.7390 H   0  0  0  0  0  0  0  0  0  0  0  0
  1 16  1  0  0  0  0
  1  6  1  1  0  0  0
  2  3  1  0  0  0  0
  2  7  1  0  0  0  0
  2  1  1  0  0  0  0
  3  4  1  0  0  0  0
  3  9  1  0  0  0  0
  4  5  1  0  0  0  0
  4 11  1  0  0  0  0
  5 13  1  1  0  0  0
  5  1  1  0  0  0  0
  8  2  1  0  0  0  0
 10  3  1  0  0  0  0
 12  4  1  0  0  0  0
 14 19  1  0  0  0  0
 15 14  2  0  0  0  0
 15 16  1  0  0  0  0
 16 17  2  0  0  0  0
 17 18  1  0  0  0  0
 18 22  1  0  0  0  0
 19 18  2  0  0  0  0
 20 14  1  0  0  0  0
 21 15  1  0  0  0  0
 23  5  1  0  0  0  0
 24 25  2  0  0  0  0
 24 23  1  0  0  0  0
 26 28  1  0  0  0  0
 26 24  1  0  0  0  0
 27 26  1  0  0  0  0
M  END
>  <minimizedAffinity>
-4.42897511

$$$$

 OpenBabel03242513513D

 28 29  0  0  1  0  0  0  0  0999 V2000
   36.2000   27.6550   40.1580 C   0  0  2  0  0  0  0  0  0  0  0  0
   36.9140   27.3460   38.8500 C   0  0  0  0  0  0  0  0  0  0  0  0
   35.7330   27.5080   37.9100 C   0  0  0  0  0  0  0  0  0  0  0  0
   34.9760   28.6480   38.4470 C   0  0  0  0  0  0  0  0  0  0  0  0
   35.6050   28.9940   39.8850 C   0  0  2  0  0  0  0  0  0  0  0  0
   35.3810   26.9320   40.2800 H   0  0  0  0  0  0  0  0  0  0  0  0
   37.3780   26.3600   38.8240 H   0  0  0  0  0  0  0  0  0  0  0  0
   37.6120   28.1780   38.5900 H   0  0  0  0  0  0  0  0  0  0  0  0
   35.1240   26.5690   38.0670 H   0  0  0  0  0  0  0  0  0  0  0  0
   36.0520   27.6030   36.8560 H   0  0  0  0  0  0  0  0  0  0  0  0
   33.8890   28.4470   38.5820 H   0  0  0  0  0  0  0  0  0  0  0  0
   35.0580   29.6090   37.9120 H   0  0  0  0  0  0  0  0  0  0  0  0
   34.7100   29.3920   40.2600 H   0  0  0  0  0  0  0  0  0  0  0  0
   37.6350   27.8070   43.6380 C   0  0  0  0  0  0  0  0  0  0  0  0
   36.6600   27.8040   42.6200 C   0  0  0  0  0  0  0  0  0  0  0  0
   37.1010   27.6790   41.3330 C   0  0  0  0  0  0  0  0  0  0  0  0
   38.4650   27.5660   41.1190 N   0  0  0  0  0  0  0  0  0  0  0  0
   39.3660   27.5720   42.1020 C   0  0  0  0  0  0  0  0  0  0  0  0
   38.9570   27.6920   43.3540 N   0  0  0  0  0  0  0  0  0  0  0  0
   37.2530   27.9080   44.6550 H   0  0  0  0  0  0  0  0  0  0  0  0
   35.6120   27.8930   42.8260 H   0  0  0  0  0  0  0  0  0  0  0  0
   40.4070   27.4770   41.8200 H   0  0  0  0  0  0  0  0  0  0  0  0
   36.5820   29.9730   39.6370 O   0  0  0  0  0  0  0  0  0  0  0  0
   36.6260   31.2170   40.1970 C   0  0  0  0  0  0  0  0  0  0  0  0
   36.1640   31.1000   41.3860 O   0  0  0  0  0  0  0  0  0  0  0  0
   36.8520   32.6090   40.3430 N   0  0  0  0  0  0  0  0  0  0  0  0
   37.4880   32.9630   41.0860 H   0  0  0  0  0  0  0  0  0  0  0  0
   36.3660   33.2950   39.6920 H   0  0  0  0  0  0  0  0  0  0  0  0
  1  6  1  1  0  0  0
  1 16  1  0  0  0  0
  2  1  1  0  0  0  0
  3  9  1  0  0  0  0
  3  4  1  0  0  0  0
  3  2  1  0  0  0  0
  4 11  1  0  0  0  0
  4  5  1  0  0  0  0
  5  1  1  0  0  0  0
  5 13  1  1  0  0  0
  7  2  1  0  0  0  0
  8  2  1  0  0  0  0
 10  3  1  0  0  0  0
 12  4  1  0  0  0  0
 14 20  1  0  0  0  0
 15 21  1  0  0  0  0
 15 14  2  0  0  0  0
 16 15  1  0  0  0  0
 17 16  2  0  0  0  0
 17 18  1  0  0  0  0
 18 19  2  0  0  0  0
 19 14  1  0  0  0  0
 22 18  1  0  0  0  0
 23  5  1  0  0  0  0
 23 24  1  0  0  0  0
 24 26  1  0  0  0  0
 24 25  2  0  0  0  0
 26 27  1  0  0  0  0
 28 26  1  0  0  0  0
M  END
>  <minimizedAffinity>
-4.30661249

$$$$

 OpenBabel03242513513D

 28 29  0  0  1  0  0  0  0  0999 V2000
   39.3890   29.5320   41.7620 C   0  0  2  0  0  0  0  0  0  0  0  0
   39.6070   30.6660   42.7520 C   0  0  0  0  0  0  0  0  0  0  0  0
   40.5410   31.5180   41.9110 C   0  0  0  0  0  0  0  0  0  0  0  0
   40.0190   31.4090   40.5410 C   0  0  0  0  0  0  0  0  0  0  0  0
   38.9000   30.2570   40.5540 C   0  0  2  0  0  0  0  0  0  0  0  0
   40.3670   29.0900   41.5260 H   0  0  0  0  0  0  0  0  0  0  0  0
   40.0280   30.3430   43.7040 H   0  0  0  0  0  0  0  0  0  0  0  0
   38.6730   31.2690   42.8560 H   0  0  0  0  0  0  0  0  0  0  0  0
   41.5310   30.9750   41.9610 H   0  0  0  0  0  0  0  0  0  0  0  0
   40.6320   32.5460   42.3050 H   0  0  0  0  0  0  0  0  0  0  0  0
   40.7890   31.1370   39.7830 H   0  0  0  0  0  0  0  0  0  0  0  0
   39.4680   32.2750   40.1370 H   0  0  0  0  0  0  0  0  0  0  0  0
   39.0450   30.0040   39.5460 H   0  0  0  0  0  0  0  0  0  0  0  0
   36.7810   27.6050   43.6800 C   0  0  0  0  0  0  0  0  0  0  0  0
   37.6690   28.6520   43.3630 C   0  0  0  0  0  0  0  0  0  0  0  0
   38.4170   28.5170   42.2280 C   0  0  0  0  0  0  0  0  0  0  0  0
   38.2530   27.3670   41.4720 N   0  0  0  0  0  0  0  0  0  0  0  0
   37.4030   26.3900   41.7960 C   0  0  0  0  0  0  0  0  0  0  0  0
   36.6720   26.5050   42.8910 N   0  0  0  0  0  0  0  0  0  0  0  0
   36.1970   27.7410   44.5910 H   0  0  0  0  0  0  0  0  0  0  0  0
   37.7680   29.5280   43.9740 H   0  0  0  0  0  0  0  0  0  0  0  0
   37.3560   25.5360   41.1330 H   0  0  0  0  0  0  0  0  0  0  0  0
   37.6840   30.9230   40.7860 O   0  0  0  0  0  0  0  0  0  0  0  0
   37.2800   32.0780   40.1830 C   0  0  0  0  0  0  0  0  0  0  0  0
   36.8920   31.7600   39.0040 O   0  0  0  0  0  0  0  0  0  0  0  0
   36.9920   33.4530   39.9860 N   0  0  0  0  0  0  0  0  0  0  0  0
   36.0250   33.7600   39.7560 H   0  0  0  0  0  0  0  0  0  0  0  0
   37.7700   34.1740   40.0710 H   0  0  0  0  0  0  0  0  0  0  0  0
  1  6  1  6  0  0  0
  1 16  1  0  0  0  0
  1  2  1  0  0  0  0
  2  8  1  0  0  0  0
  2  7  1  0  0  0  0
  3  9  1  0  0  0  0
  3 10  1  0  0  0  0
  3  2  1  0  0  0  0
  4  5  1  0  0  0  0
  4  3  1  0  0  0  0
  5 13  1  6  0  0  0
  5 23  1  0  0  0  0
  5  1  1  0  0  0  0
 11  4  1  0  0  0  0
 12  4  1  0  0  0  0
 14 20  1  0  0  0  0
 15 14  1  0  0  0  0
 15 21  1  0  0  0  0
 16 15  2  0  0  0  0
 17 18  2  0  0  0  0
 17 16  1  0  0  0  0
 18 19  1  0  0  0  0
 19 14  2  0  0  0  0
 22 18  1  0  0  0  0
 24 23  1  0  0  0  0
 25 24  2  0  0  0  0
 26 28  1  0  0  0  0
 26 24  1  0  0  0  0
 27 26  1  0  0  0  0
M  END
>  <minimizedAffinity>
-4.24136448

$$$$

 OpenBabel03242513513D

 28 29  0  0  1  0  0  0  0  0999 V2000
   39.7870   28.8160   42.9170 C   0  0  2  0  0  0  0  0  0  0  0  0
   39.7600   27.4190   42.3140 C   0  0  0  0  0  0  0  0  0  0  0  0
   38.8630   26.7520   43.3420 C   0  0  0  0  0  0  0  0  0  0  0  0
   37.8560   27.7680   43.6790 C   0  0  0  0  0  0  0  0  0  0  0  0
   38.3370   29.1470   43.0120 C   0  0  2  0  0  0  0  0  0  0  0  0
   40.1910   28.7410   43.9360 H   0  0  0  0  0  0  0  0  0  0  0  0
   40.7450   26.9630   42.2130 H   0  0  0  0  0  0  0  0  0  0  0  0
   39.1680   27.4230   41.3660 H   0  0  0  0  0  0  0  0  0  0  0  0
   39.5340   26.6020   44.2380 H   0  0  0  0  0  0  0  0  0  0  0  0
   38.4630   25.7880   42.9790 H   0  0  0  0  0  0  0  0  0  0  0  0
   37.7300   27.9360   44.7730 H   0  0  0  0  0  0  0  0  0  0  0  0
   36.8440   27.6380   43.2600 H   0  0  0  0  0  0  0  0  0  0  0  0
   37.8570   29.7450   43.7280 H   0  0  0  0  0  0  0  0  0  0  0  0
   41.4290   31.9290   41.5740 C   0  0  0  0  0  0  0  0  0  0  0  0
   40.6970   31.1080   42.4540 C   0  0  0  0  0  0  0  0  0  0  0  0
   40.5270   29.8010   42.0960 C   0  0  0  0  0  0  0  0  0  0  0  0
   41.0830   29.3750   40.8990 N   0  0  0  0  0  0  0  0  0  0  0  0
   41.7730   30.1750   40.0840 C   0  0  0  0  0  0  0  0  0  0  0  0
   41.9450   31.4430   40.4150 N   0  0  0  0  0  0  0  0  0  0  0  0
   41.5480   32.9670   41.8870 H   0  0  0  0  0  0  0  0  0  0  0  0
   40.2820   31.4740   43.3730 H   0  0  0  0  0  0  0  0  0  0  0  0
   42.1620   29.7370   39.1740 H   0  0  0  0  0  0  0  0  0  0  0  0
   37.7140   29.1880   41.7530 O   0  0  0  0  0  0  0  0  0  0  0  0
   36.5880   29.8930   41.4410 C   0  0  0  0  0  0  0  0  0  0  0  0
   35.7120   29.0370   41.0630 O   0  0  0  0  0  0  0  0  0  0  0  0
   35.7070   30.9870   41.2490 N   0  0  0  0  0  0  0  0  0  0  0  0
   34.8070   31.0360   41.7700 H   0  0  0  0  0  0  0  0  0  0  0  0
   35.9650   31.7610   40.5670 H   0  0  0  0  0  0  0  0  0  0  0  0
  1  5  1  0  0  0  0
  1  6  1  1  0  0  0
  2  1  1  0  0  0  0
  2  3  1  0  0  0  0
  3  4  1  0  0  0  0
  3  9  1  0  0  0  0
  4 11  1  0  0  0  0
  5  4  1  0  0  0  0
  5 13  1  1  0  0  0
  7  2  1  0  0  0  0
  8  2  1  0  0  0  0
 10  3  1  0  0  0  0
 12  4  1  0  0  0  0
 14 20  1  0  0  0  0
 14 15  1  0  0  0  0
 15 21  1  0  0  0  0
 16 15  2  0  0  0  0
 16  1  1  0  0  0  0
 17 16  1  0  0  0  0
 18 19  1  0  0  0  0
 18 17  2  0  0  0  0
 19 14  2  0  0  0  0
 22 18  1  0  0  0  0
 23  5  1  0  0  0  0
 24 23  1  0  0  0  0
 25 24  2  0  0  0  0
 26 24  1  0  0  0  0
 26 27  1  0  0  0  0
 28 26  1  0  0  0  0
M  END
>  <minimizedAffinity>
-4.24116182

$$$$

 OpenBabel03242513513D

 28 29  0  0  1  0  0  0  0  0999 V2000
   37.8520   27.8820   41.4180 C   0  0  2  0  0  0  0  0  0  0  0  0
   36.7620   27.4640   42.3940 C   0  0  0  0  0  0  0  0  0  0  0  0
   37.4300   27.9190   43.6800 C   0  0  0  0  0  0  0  0  0  0  0  0
   38.0960   29.1820   43.3320 C   0  0  0  0  0  0  0  0  0  0  0  0
   38.0200   29.3290   41.7340 C   0  0  2  0  0  0  0  0  0  0  0  0
   38.7780   27.3590   41.6940 H   0  0  0  0  0  0  0  0  0  0  0  0
   36.5270   26.4000   42.3620 H   0  0  0  0  0  0  0  0  0  0  0  0
   35.8690   28.1240   42.2770 H   0  0  0  0  0  0  0  0  0  0  0  0
   38.2230   27.1370   43.8710 H   0  0  0  0  0  0  0  0  0  0  0  0
   36.7150   27.9740   44.5210 H   0  0  0  0  0  0  0  0  0  0  0  0
   39.1670   29.2280   43.6340 H   0  0  0  0  0  0  0  0  0  0  0  0
   37.6270   30.1170   43.6820 H   0  0  0  0  0  0  0  0  0  0  0  0
   38.8940   29.9060   41.6730 H   0  0  0  0  0  0  0  0  0  0  0  0
   36.1250   26.9220   38.2110 C   0  0  0  0  0  0  0  0  0  0  0  0
   36.3350   27.0570   39.5980 C   0  0  0  0  0  0  0  0  0  0  0  0
   37.4910   27.6640   39.9990 C   0  0  0  0  0  0  0  0  0  0  0  0
   38.3710   28.1020   39.0210 N   0  0  0  0  0  0  0  0  0  0  0  0
   38.1450   27.9620   37.7140 C   0  0  0  0  0  0  0  0  0  0  0  0
   37.0320   27.3760   37.3080 N   0  0  0  0  0  0  0  0  0  0  0  0
   35.1930   26.4340   37.9210 H   0  0  0  0  0  0  0  0  0  0  0  0
   35.6290   26.7050   40.3240 H   0  0  0  0  0  0  0  0  0  0  0  0
   38.9010   28.3410   37.0380 H   0  0  0  0  0  0  0  0  0  0  0  0
   36.8520   30.0700   41.4850 O   0  0  0  0  0  0  0  0  0  0  0  0
   36.7770   31.2220   40.7560 C   0  0  0  0  0  0  0  0  0  0  0  0
   36.3680   30.8900   39.5880 O   0  0  0  0  0  0  0  0  0  0  0  0
   36.8540   32.5970   40.4190 N   0  0  0  0  0  0  0  0  0  0  0  0
   36.0060   33.1090   40.1000 H   0  0  0  0  0  0  0  0  0  0  0  0
   37.7850   33.1070   40.4880 H   0  0  0  0  0  0  0  0  0  0  0  0
  1  6  1  1  0  0  0
  1  5  1  0  0  0  0
  1  2  1  0  0  0  0
  2  3  1  0  0  0  0
  3  9  1  0  0  0  0
  3 10  1  0  0  0  0
  4 11  1  0  0  0  0
  4  3  1  0  0  0  0
  4 12  1  0  0  0  0
  5 13  1  6  0  0  0
  5  4  1  0  0  0  0
  7  2  1  0  0  0  0
  8  2  1  0  0  0  0
 14 15  1  0  0  0  0
 15 16  2  0  0  0  0
 15 21  1  0  0  0  0
 16  1  1  0  0  0  0
 17 16  1  0  0  0  0
 18 17  2  0  0  0  0
 19 18  1  0  0  0  0
 19 14  2  0  0  0  0
 20 14  1  0  0  0  0
 22 18  1  0  0  0  0
 23  5  1  0  0  0  0
 24 23  1  0  0  0  0
 25 24  2  0  0  0  0
 26 28  1  0  0  0  0
 26 24  1  0  0  0  0
 27 26  1  0  0  0  0
M  END
>  <minimizedAffinity>
-4.2298789

$$$$

 OpenBabel03242513513D

 28 29  0  0  1  0  0  0  0  0999 V2000
   38.6590   26.8160   41.4750 C   0  0  2  0  0  0  0  0  0  0  0  0
   38.6180   26.5950   42.9790 C   0  0  0  0  0  0  0  0  0  0  0  0
   39.6170   27.6640   43.3870 C   0  0  0  0  0  0  0  0  0  0  0  0
   39.3490   28.7940   42.4860 C   0  0  0  0  0  0  0  0  0  0  0  0
   38.3330   28.2660   41.3590 C   0  0  2  0  0  0  0  0  0  0  0  0
   39.6930   26.6670   41.1340 H   0  0  0  0  0  0  0  0  0  0  0  0
   38.8920   25.5850   43.2840 H   0  0  0  0  0  0  0  0  0  0  0  0
   37.6380   26.9380   43.3900 H   0  0  0  0  0  0  0  0  0  0  0  0
   40.6210   27.2210   43.1160 H   0  0  0  0  0  0  0  0  0  0  0  0
   39.5620   27.8920   44.4670 H   0  0  0  0  0  0  0  0  0  0  0  0
   40.2560   29.1930   41.9770 H   0  0  0  0  0  0  0  0  0  0  0  0
   38.8130   29.6610   42.9060 H   0  0  0  0  0  0  0  0  0  0  0  0
   38.6680   28.9480   40.6360 H   0  0  0  0  0  0  0  0  0  0  0  0
   36.2570   24.1220   40.3950 C   0  0  0  0  0  0  0  0  0  0  0  0
   37.1610   24.8190   41.2220 C   0  0  0  0  0  0  0  0  0  0  0  0
   37.7000   25.9720   40.7260 C   0  0  0  0  0  0  0  0  0  0  0  0
   37.3220   26.3750   39.4550 N   0  0  0  0  0  0  0  0  0  0  0  0
   36.4620   25.6950   38.6940 C   0  0  0  0  0  0  0  0  0  0  0  0
   35.9330   24.5760   39.1580 N   0  0  0  0  0  0  0  0  0  0  0  0
   35.8440   23.2050   40.8180 H   0  0  0  0  0  0  0  0  0  0  0  0
   37.4290   24.4750   42.2020 H   0  0  0  0  0  0  0  0  0  0  0  0
   36.2390   26.1010   37.7160 H   0  0  0  0  0  0  0  0  0  0  0  0
   37.0490   28.5660   41.8470 O   0  0  0  0  0  0  0  0  0  0  0  0
   36.2340   29.5600   41.3900 C   0  0  0  0  0  0  0  0  0  0  0  0
   35.3250   28.9940   40.6860 O   0  0  0  0  0  0  0  0  0  0  0  0
   35.7020   30.8550   41.1660 N   0  0  0  0  0  0  0  0  0  0  0  0
   34.7300   31.0830   41.4590 H   0  0  0  0  0  0  0  0  0  0  0  0
   36.2990   31.5980   40.6930 H   0  0  0  0  0  0  0  0  0  0  0  0
  1  6  1  6  0  0  0
  1  2  1  0  0  0  0
  2  7  1  0  0  0  0
  2  3  1  0  0  0  0
  2  8  1  0  0  0  0
  3 10  1  0  0  0  0
  4 12  1  0  0  0  0
  4  3  1  0  0  0  0
  5 13  1  6  0  0  0
  5  1  1  0  0  0  0
  5 23  1  0  0  0  0
  5  4  1  0  0  0  0
  9  3  1  0  0  0  0
 11  4  1  0  0  0  0
 14 20  1  0  0  0  0
 14 15  1  0  0  0  0
 15 21  1  0  0  0  0
 16 15  2  0  0  0  0
 16  1  1  0  0  0  0
 17 16  1  0  0  0  0
 18 19  1  0  0  0  0
 18 17  2  0  0  0  0
 19 14  2  0  0  0  0
 22 18  1  0  0  0  0
 24 23  1  0  0  0  0
 25 24  2  0  0  0  0
 26 24  1  0  0  0  0
 26 27  1  0  0  0  0
 28 26  1  0  0  0  0
M  END
>  <minimizedAffinity>
-4.17196751

$$$$

 OpenBabel03242513513D

 28 29  0  0  1  0  0  0  0  0999 V2000
   37.0930   29.6060   40.1720 C   0  0  2  0  0  0  0  0  0  0  0  0
   38.0930   29.5960   39.0250 C   0  0  0  0  0  0  0  0  0  0  0  0
   37.4430   30.6570   38.1540 C   0  0  0  0  0  0  0  0  0  0  0  0
   36.9420   31.6650   39.1000 C   0  0  0  0  0  0  0  0  0  0  0  0
   37.0870   31.0420   40.5730 C   0  0  2  0  0  0  0  0  0  0  0  0
   36.1030   29.3580   39.7640 H   0  0  0  0  0  0  0  0  0  0  0  0
   38.2020   28.6240   38.5440 H   0  0  0  0  0  0  0  0  0  0  0  0
   39.0610   30.0430   39.3580 H   0  0  0  0  0  0  0  0  0  0  0  0
   36.5570   30.1290   37.6920 H   0  0  0  0  0  0  0  0  0  0  0  0
   38.1310   31.0340   37.3770 H   0  0  0  0  0  0  0  0  0  0  0  0
   35.8740   31.9430   38.9430 H   0  0  0  0  0  0  0  0  0  0  0  0
   37.5060   32.6090   39.1810 H   0  0  0  0  0  0  0  0  0  0  0  0
   36.2900   31.6000   40.9660 H   0  0  0  0  0  0  0  0  0  0  0  0
   37.0880   27.4170   43.2370 C   0  0  0  0  0  0  0  0  0  0  0  0
   36.5840   28.2580   42.2250 C   0  0  0  0  0  0  0  0  0  0  0  0
   37.4710   28.7200   41.2950 C   0  0  0  0  0  0  0  0  0  0  0  0
   38.7970   28.3310   41.4100 N   0  0  0  0  0  0  0  0  0  0  0  0
   39.2470   27.5320   42.3790 C   0  0  0  0  0  0  0  0  0  0  0  0
   38.4020   27.0770   43.2870 N   0  0  0  0  0  0  0  0  0  0  0  0
   36.3560   27.0640   43.9640 H   0  0  0  0  0  0  0  0  0  0  0  0
   35.5490   28.5360   42.1700 H   0  0  0  0  0  0  0  0  0  0  0  0
   40.3030   27.2930   42.3720 H   0  0  0  0  0  0  0  0  0  0  0  0
   38.3420   31.4730   41.0360 O   0  0  0  0  0  0  0  0  0  0  0  0
   38.7780   32.7660   41.0740 C   0  0  0  0  0  0  0  0  0  0  0  0
   39.9410   32.7760   40.5350 O   0  0  0  0  0  0  0  0  0  0  0  0
   38.8020   34.1610   41.3250 N   0  0  0  0  0  0  0  0  0  0  0  0
   38.9020   34.8350   40.5390 H   0  0  0  0  0  0  0  0  0  0  0  0
   38.7190   34.5210   42.3230 H   0  0  0  0  0  0  0  0  0  0  0  0
  1  6  1  6  0  0  0
  1  5  1  0  0  0  0
  1 16  1  0  0  0  0
  2  8  1  0  0  0  0
  2  1  1  0  0  0  0
  3  2  1  0  0  0  0
  3  4  1  0  0  0  0
  4 12  1  0  0  0  0
  4  5  1  0  0  0  0
  5 13  1  1  0  0  0
  5 23  1  0  0  0  0
  7  2  1  0  0  0  0
  9  3  1  0  0  0  0
 10  3  1  0  0  0  0
 11  4  1  0  0  0  0
 14 19  1  0  0  0  0
 14 20  1  0  0  0  0
 15 14  2  0  0  0  0
 16 17  2  0  0  0  0
 16 15  1  0  0  0  0
 17 18  1  0  0  0  0
 18 19  2  0  0  0  0
 21 15  1  0  0  0  0
 22 18  1  0  0  0  0
 23 24  1  0  0  0  0
 24 26  1  0  0  0  0
 25 24  2  0  0  0  0
 26 28  1  0  0  0  0
 27 26  1  0  0  0  0
M  END
>  <minimizedAffinity>
-4.15996933

$$$$

 OpenBabel03242513513D

 28 29  0  0  1  0  0  0  0  0999 V2000
   37.3440   29.4480   42.2510 C   0  0  2  0  0  0  0  0  0  0  0  0
   38.5790   28.6980   42.7230 C   0  0  0  0  0  0  0  0  0  0  0  0
   37.9010   27.7330   43.6800 C   0  0  0  0  0  0  0  0  0  0  0  0
   36.6420   27.3660   43.0150 C   0  0  0  0  0  0  0  0  0  0  0  0
   36.4750   28.3450   41.7510 C   0  0  2  0  0  0  0  0  0  0  0  0
   36.8590   29.8980   43.1290 H   0  0  0  0  0  0  0  0  0  0  0  0
   39.3320   29.3360   43.1870 H   0  0  0  0  0  0  0  0  0  0  0  0
   38.9790   28.0600   41.8980 H   0  0  0  0  0  0  0  0  0  0  0  0
   37.6560   28.3660   44.5830 H   0  0  0  0  0  0  0  0  0  0  0  0
   38.5580   26.8880   43.9520 H   0  0  0  0  0  0  0  0  0  0  0  0
   35.7400   27.4740   43.6590 H   0  0  0  0  0  0  0  0  0  0  0  0
   36.5840   26.3660   42.5530 H   0  0  0  0  0  0  0  0  0  0  0  0
   35.4270   28.2930   41.7590 H   0  0  0  0  0  0  0  0  0  0  0  0
   37.0810   32.1370   39.6250 C   0  0  0  0  0  0  0  0  0  0  0  0
   36.6630   31.2210   40.6120 C   0  0  0  0  0  0  0  0  0  0  0  0
   37.6250   30.4500   41.1980 C   0  0  0  0  0  0  0  0  0  0  0  0
   38.9380   30.6200   40.7850 N   0  0  0  0  0  0  0  0  0  0  0  0
   39.3060   31.4950   39.8480 C   0  0  0  0  0  0  0  0  0  0  0  0
   38.3870   32.2490   39.2700 N   0  0  0  0  0  0  0  0  0  0  0  0
   36.2900   32.7390   39.1750 H   0  0  0  0  0  0  0  0  0  0  0  0
   35.6360   31.1200   40.9040 H   0  0  0  0  0  0  0  0  0  0  0  0
   40.3590   31.5440   39.6030 H   0  0  0  0  0  0  0  0  0  0  0  0
   37.0530   27.6570   40.6700 O   0  0  0  0  0  0  0  0  0  0  0  0
   36.3870   27.1840   39.5770 C   0  0  0  0  0  0  0  0  0  0  0  0
   35.5600   28.0990   39.2280 O   0  0  0  0  0  0  0  0  0  0  0  0
   35.9850   26.3180   38.5290 N   0  0  0  0  0  0  0  0  0  0  0  0
   36.0720   26.6180   37.5360 H   0  0  0  0  0  0  0  0  0  0  0  0
   35.5880   25.3590   38.7580 H   0  0  0  0  0  0  0  0  0  0  0  0
  1  2  1  0  0  0  0
  1  6  1  1  0  0  0
  2  7  1  0  0  0  0
  2  3  1  0  0  0  0
  3 10  1  0  0  0  0
  3  9  1  0  0  0  0
  4 11  1  0  0  0  0
  4  3  1  0  0  0  0
  5 13  1  6  0  0  0
  5  1  1  0  0  0  0
  5  4  1  0  0  0  0
  8  2  1  0  0  0  0
 12  4  1  0  0  0  0
 14 15  1  0  0  0  0
 15 21  1  0  0  0  0
 15 16  2  0  0  0  0
 16  1  1  0  0  0  0
 17 16  1  0  0  0  0
 18 17  2  0  0  0  0
 19 14  2  0  0  0  0
 19 18  1  0  0  0  0
 20 14  1  0  0  0  0
 22 18  1  0  0  0  0
 23  5  1  0  0  0  0
 24 23  1  0  0  0  0
 25 24  2  0  0  0  0
 26 28  1  0  0  0  0
 26 24  1  0  0  0  0
 27 26  1  0  0  0  0
M  END
>  <minimizedAffinity>
-4.11937952

$$$$
