
 OpenBabel03252507343D

 43 45  0  0  1  0  0  0  0  0999 V2000
   38.0730   31.6710   40.7970 C   0  0  2  0  0  0  0  0  0  0  0  0
   37.1980   32.6130   39.9170 C   0  0  0  0  0  0  0  0  0  0  0  0
   37.7970   33.9820   39.9180 C   0  0  0  0  0  0  0  0  0  0  0  0
   39.2740   34.0490   39.7280 C   0  0  0  0  0  0  0  0  0  0  0  0
   40.0060   32.9980   40.3970 C   0  0  0  0  0  0  0  0  0  0  0  0
   39.3930   31.5930   40.2040 C   0  0  2  0  0  0  0  0  0  0  0  0
   38.0340   32.1900   41.7870 H   0  0  0  0  0  0  0  0  0  0  0  0
   37.0170   32.1810   38.9220 H   0  0  0  0  0  0  0  0  0  0  0  0
   36.2180   32.6210   40.4370 H   0  0  0  0  0  0  0  0  0  0  0  0
   37.3860   34.4990   40.8060 H   0  0  0  0  0  0  0  0  0  0  0  0
   37.3390   34.5290   39.0470 H   0  0  0  0  0  0  0  0  0  0  0  0
   39.6650   34.5920   38.8690 H   0  0  0  0  0  0  0  0  0  0  0  0
   39.5080   34.9250   40.4600 H   0  0  0  0  0  0  0  0  0  0  0  0
   41.0590   32.9760   39.9920 H   0  0  0  0  0  0  0  0  0  0  0  0
   40.1490   33.0570   41.4970 H   0  0  0  0  0  0  0  0  0  0  0  0
   40.1590   30.9700   40.6710 H   0  0  0  0  0  0  0  0  0  0  0  0
   37.4530   30.3710   40.9610 C   0  0  0  0  0  0  0  0  0  0  0  0
   36.1260   30.2430   40.5820 C   0  0  0  0  0  0  0  0  0  0  0  0
   35.4690   29.0020   40.7460 C   0  0  0  0  0  0  0  0  0  0  0  0
   36.2280   27.9670   41.2900 N   0  0  0  0  0  0  0  0  0  0  0  0
   37.5010   28.1560   41.6330 C   0  0  0  0  0  0  0  0  0  0  0  0
   38.1080   29.3340   41.4740 N   0  0  0  0  0  0  0  0  0  0  0  0
   35.3890   30.8680   40.1270 H   0  0  0  0  0  0  0  0  0  0  0  0
   34.4740   28.7220   40.5180 H   0  0  0  0  0  0  0  0  0  0  0  0
   38.2490   27.0190   42.1820 C   0  0  0  0  0  0  0  0  0  0  0  0
   39.2490   27.2060   43.1080 C   0  0  0  0  0  0  0  0  0  0  0  0
   39.9980   26.2070   43.6780 C   0  0  0  0  0  0  0  0  0  0  0  0
   39.6730   24.9410   43.2470 C   0  0  0  0  0  0  0  0  0  0  0  0
   38.6640   24.7190   42.3100 C   0  0  0  0  0  0  0  0  0  0  0  0
   37.9600   25.7690   41.7870 N   0  0  0  0  0  0  0  0  0  0  0  0
   39.4380   28.2530   43.3900 H   0  0  0  0  0  0  0  0  0  0  0  0
   40.7770   26.4000   44.4020 H   0  0  0  0  0  0  0  0  0  0  0  0
   40.1970   24.0760   43.6280 H   0  0  0  0  0  0  0  0  0  0  0  0
   38.3020   23.4250   41.8430 N   0  0  0  0  0  0  0  0  0  0  0  0
   37.6050   23.1990   42.6090 H   0  0  0  0  0  0  0  0  0  0  0  0
   38.5830   22.8440   41.0390 H   0  0  0  0  0  0  0  0  0  0  0  0
   39.2820   31.3240   38.7690 N   0  0  0  0  0  0  0  0  0  0  0  0
   40.2530   31.2560   37.7560 C   0  0  0  0  0  0  0  0  0  0  0  0
   41.0280   30.2450   37.5960 O   0  0  0  0  0  0  0  0  0  0  0  0
   40.3090   32.3990   36.9040 N   0  0  0  0  0  0  0  0  0  0  0  0
   38.3150   31.1980   38.2840 H   0  0  0  0  0  0  0  0  0  0  0  0
   39.5130   32.7780   36.3390 H   0  0  0  0  0  0  0  0  0  0  0  0
   41.0750   33.0890   36.6450 H   0  0  0  0  0  0  0  0  0  0  0  0
  1 17  1  0  0  0  0
  1  7  1  1  0  0  0
  2  3  1  0  0  0  0
  2  9  1  0  0  0  0
  2  1  1  0  0  0  0
  3 10  1  0  0  0  0
  4  3  1  0  0  0  0
  4  5  1  0  0  0  0
  4 13  1  0  0  0  0
  5 15  1  0  0  0  0
  6  5  1  0  0  0  0
  6 16  1  1  0  0  0
  6  1  1  0  0  0  0
  8  2  1  0  0  0  0
 11  3  1  0  0  0  0
 12  4  1  0  0  0  0
 14  5  1  0  0  0  0
 17 22  1  0  0  0  0
 18 19  1  0  0  0  0
 18 17  2  0  0  0  0
 19 20  2  0  0  0  0
 20 21  1  0  0  0  0
 21 25  1  0  0  0  0
 22 21  2  0  0  0  0
 23 18  1  0  0  0  0
 24 19  1  0  0  0  0
 25 26  1  0  0  0  0
 26 31  1  0  0  0  0
 26 27  2  0  0  0  0
 27 32  1  0  0  0  0
 28 33  1  0  0  0  0
 28 27  1  0  0  0  0
 29 28  2  0  0  0  0
 30 25  2  0  0  0  0
 30 29  1  0  0  0  0
 34 29  1  0  0  0  0
 34 35  1  0  0  0  0
 36 34  1  0  0  0  0
 37  6  1  0  0  0  0
 38 37  1  0  0  0  0
 39 38  2  0  0  0  0
 40 38  1  0  0  0  0
 41 37  1  0  0  0  0
 42 40  1  0  0  0  0
 43 40  1  0  0  0  0
M  END
>  <minimizedAffinity>
-6.69961548

$$$$

 OpenBabel03252507343D

 43 45  0  0  1  0  0  0  0  0999 V2000
   39.2150   28.2020   42.7880 C   0  0  2  0  0  0  0  0  0  0  0  0
   38.8380   27.1100   41.7420 C   0  0  0  0  0  0  0  0  0  0  0  0
   37.7080   26.2900   42.2740 C   0  0  0  0  0  0  0  0  0  0  0  0
   36.5890   27.0480   42.9020 C   0  0  0  0  0  0  0  0  0  0  0  0
   37.0100   28.1900   43.6800 C   0  0  0  0  0  0  0  0  0  0  0  0
   38.0680   29.0680   42.9730 C   0  0  2  0  0  0  0  0  0  0  0  0
   39.4790   27.5770   43.6780 H   0  0  0  0  0  0  0  0  0  0  0  0
   38.6710   27.5480   40.7460 H   0  0  0  0  0  0  0  0  0  0  0  0
   39.7570   26.4950   41.6630 H   0  0  0  0  0  0  0  0  0  0  0  0
   38.1690   25.4880   42.8820 H   0  0  0  0  0  0  0  0  0  0  0  0
   37.2680   25.7460   41.3920 H   0  0  0  0  0  0  0  0  0  0  0  0
   35.5920   26.9540   42.4750 H   0  0  0  0  0  0  0  0  0  0  0  0
   36.3470   26.3160   43.7760 H   0  0  0  0  0  0  0  0  0  0  0  0
   36.1090   28.8370   43.8910 H   0  0  0  0  0  0  0  0  0  0  0  0
   37.4550   28.0250   44.6830 H   0  0  0  0  0  0  0  0  0  0  0  0
   38.1320   29.9080   43.6680 H   0  0  0  0  0  0  0  0  0  0  0  0
   40.4080   28.9260   42.3940 C   0  0  0  0  0  0  0  0  0  0  0  0
   41.6080   28.5460   42.9750 C   0  0  0  0  0  0  0  0  0  0  0  0
   42.7950   29.2380   42.6430 C   0  0  0  0  0  0  0  0  0  0  0  0
   42.6670   30.2790   41.7250 N   0  0  0  0  0  0  0  0  0  0  0  0
   41.4830   30.5930   41.2020 C   0  0  0  0  0  0  0  0  0  0  0  0
   40.3700   29.9320   41.5270 N   0  0  0  0  0  0  0  0  0  0  0  0
   41.9320   27.7830   43.6490 H   0  0  0  0  0  0  0  0  0  0  0  0
   43.7860   29.0920   42.9830 H   0  0  0  0  0  0  0  0  0  0  0  0
   41.4230   31.6880   40.2270 C   0  0  0  0  0  0  0  0  0  0  0  0
   42.0090   32.9060   40.4880 C   0  0  0  0  0  0  0  0  0  0  0  0
   42.0070   33.9840   39.6400 C   0  0  0  0  0  0  0  0  0  0  0  0
   41.3500   33.7670   38.4500 C   0  0  0  0  0  0  0  0  0  0  0  0
   40.7460   32.5430   38.1570 C   0  0  0  0  0  0  0  0  0  0  0  0
   40.7920   31.5140   39.0550 N   0  0  0  0  0  0  0  0  0  0  0  0
   42.5090   32.9850   41.4650 H   0  0  0  0  0  0  0  0  0  0  0  0
   42.4800   34.9240   39.8870 H   0  0  0  0  0  0  0  0  0  0  0  0
   41.2830   34.5450   37.7050 H   0  0  0  0  0  0  0  0  0  0  0  0
   40.0600   32.2840   36.9370 N   0  0  0  0  0  0  0  0  0  0  0  0
   40.9030   31.9740   36.3750 H   0  0  0  0  0  0  0  0  0  0  0  0
   39.0760   32.3520   36.6360 H   0  0  0  0  0  0  0  0  0  0  0  0
   37.5390   29.4840   41.6730 N   0  0  0  0  0  0  0  0  0  0  0  0
   36.9560   30.6890   41.2460 C   0  0  0  0  0  0  0  0  0  0  0  0
   37.6410   31.7440   40.9860 O   0  0  0  0  0  0  0  0  0  0  0  0
   35.5360   30.6530   41.1140 N   0  0  0  0  0  0  0  0  0  0  0  0
   37.4840   28.7950   40.8320 H   0  0  0  0  0  0  0  0  0  0  0  0
   34.9980   29.9900   40.5070 H   0  0  0  0  0  0  0  0  0  0  0  0
   34.7410   31.2150   41.5390 H   0  0  0  0  0  0  0  0  0  0  0  0
  1  6  1  0  0  0  0
  1  7  1  1  0  0  0
  2  3  1  0  0  0  0
  2  1  1  0  0  0  0
  3 10  1  0  0  0  0
  3  4  1  0  0  0  0
  4  5  1  0  0  0  0
  4 13  1  0  0  0  0
  5 14  1  0  0  0  0
  5 15  1  0  0  0  0
  6 16  1  1  0  0  0
  6  5  1  0  0  0  0
  8  2  1  0  0  0  0
  9  2  1  0  0  0  0
 11  3  1  0  0  0  0
 12  4  1  0  0  0  0
 17  1  1  0  0  0  0
 17 18  1  0  0  0  0
 18 23  1  0  0  0  0
 19 18  2  0  0  0  0
 19 24  1  0  0  0  0
 20 19  1  0  0  0  0
 21 22  1  0  0  0  0
 21 20  2  0  0  0  0
 22 17  2  0  0  0  0
 25 26  1  0  0  0  0
 25 21  1  0  0  0  0
 26 31  1  0  0  0  0
 27 32  1  0  0  0  0
 27 26  2  0  0  0  0
 28 27  1  0  0  0  0
 29 28  2  0  0  0  0
 29 30  1  0  0  0  0
 30 25  2  0  0  0  0
 33 28  1  0  0  0  0
 34 29  1  0  0  0  0
 35 34  1  0  0  0  0
 36 34  1  0  0  0  0
 37  6  1  0  0  0  0
 38 37  1  0  0  0  0
 39 38  2  0  0  0  0
 40 38  1  0  0  0  0
 40 43  1  0  0  0  0
 41 37  1  0  0  0  0
 42 40  1  0  0  0  0
M  END
>  <minimizedAffinity>
-6.36761189

$$$$

 OpenBabel03252507343D

 43 45  0  0  1  0  0  0  0  0999 V2000
   36.5540   28.9780   37.8140 C   0  0  2  0  0  0  0  0  0  0  0  0
   37.4050   27.8010   37.2500 C   0  0  0  0  0  0  0  0  0  0  0  0
   37.0520   27.5840   35.8140 C   0  0  0  0  0  0  0  0  0  0  0  0
   36.9430   28.8110   34.9750 C   0  0  0  0  0  0  0  0  0  0  0  0
   36.3410   29.9380   35.6480 C   0  0  0  0  0  0  0  0  0  0  0  0
   36.8900   30.1770   37.0730 C   0  0  2  0  0  0  0  0  0  0  0  0
   35.5140   28.6010   37.6480 H   0  0  0  0  0  0  0  0  0  0  0  0
   38.4770   27.9470   37.4520 H   0  0  0  0  0  0  0  0  0  0  0  0
   37.0880   26.9320   37.8610 H   0  0  0  0  0  0  0  0  0  0  0  0
   36.1820   26.9000   35.8110 H   0  0  0  0  0  0  0  0  0  0  0  0
   37.8850   26.9690   35.3730 H   0  0  0  0  0  0  0  0  0  0  0  0
   37.6040   28.9140   34.1160 H   0  0  0  0  0  0  0  0  0  0  0  0
   36.0380   28.4940   34.3130 H   0  0  0  0  0  0  0  0  0  0  0  0
   36.5360   30.8690   35.0400 H   0  0  0  0  0  0  0  0  0  0  0  0
   35.2410   29.9510   35.8010 H   0  0  0  0  0  0  0  0  0  0  0  0
   36.4020   31.1220   37.3230 H   0  0  0  0  0  0  0  0  0  0  0  0
   36.7400   29.1310   39.2440 C   0  0  0  0  0  0  0  0  0  0  0  0
   36.1710   30.2420   39.8470 C   0  0  0  0  0  0  0  0  0  0  0  0
   36.3460   30.4490   41.2350 C   0  0  0  0  0  0  0  0  0  0  0  0
   37.0970   29.4910   41.9140 N   0  0  0  0  0  0  0  0  0  0  0  0
   37.6150   28.4440   41.2730 C   0  0  0  0  0  0  0  0  0  0  0  0
   37.4440   28.2620   39.9620 N   0  0  0  0  0  0  0  0  0  0  0  0
   35.5500   31.0540   39.5400 H   0  0  0  0  0  0  0  0  0  0  0  0
   35.9930   31.2280   41.8580 H   0  0  0  0  0  0  0  0  0  0  0  0
   38.3800   27.4630   42.0520 C   0  0  0  0  0  0  0  0  0  0  0  0
   39.3790   27.8580   42.9110 C   0  0  0  0  0  0  0  0  0  0  0  0
   40.1440   27.0170   43.6790 C   0  0  0  0  0  0  0  0  0  0  0  0
   39.8360   25.6830   43.5330 C   0  0  0  0  0  0  0  0  0  0  0  0
   38.8280   25.2510   42.6700 C   0  0  0  0  0  0  0  0  0  0  0  0
   38.1090   26.1530   41.9360 N   0  0  0  0  0  0  0  0  0  0  0  0
   39.5530   28.9440   42.9590 H   0  0  0  0  0  0  0  0  0  0  0  0
   40.9200   27.3720   44.3410 H   0  0  0  0  0  0  0  0  0  0  0  0
   40.3730   24.9280   44.0880 H   0  0  0  0  0  0  0  0  0  0  0  0
   38.4840   23.8810   42.4950 N   0  0  0  0  0  0  0  0  0  0  0  0
   37.7930   23.8160   43.2950 H   0  0  0  0  0  0  0  0  0  0  0  0
   38.7730   23.1440   41.8340 H   0  0  0  0  0  0  0  0  0  0  0  0
   38.3450   30.3270   36.9960 N   0  0  0  0  0  0  0  0  0  0  0  0
   39.2270   31.2080   37.6440 C   0  0  0  0  0  0  0  0  0  0  0  0
   39.5920   31.0590   38.8650 O   0  0  0  0  0  0  0  0  0  0  0  0
   39.6970   32.2860   36.8350 N   0  0  0  0  0  0  0  0  0  0  0  0
   38.9430   29.7420   36.2990 H   0  0  0  0  0  0  0  0  0  0  0  0
   40.2070   32.1870   35.9260 H   0  0  0  0  0  0  0  0  0  0  0  0
   39.6620   33.3440   36.9240 H   0  0  0  0  0  0  0  0  0  0  0  0
  1  7  1  6  0  0  0
  1 17  1  0  0  0  0
  2  8  1  0  0  0  0
  2  1  1  0  0  0  0
  2  9  1  0  0  0  0
  3  2  1  0  0  0  0
  4  5  1  0  0  0  0
  4  3  1  0  0  0  0
  5 15  1  0  0  0  0
  5  6  1  0  0  0  0
  6 16  1  1  0  0  0
  6  1  1  0  0  0  0
 10  3  1  0  0  0  0
 11  3  1  0  0  0  0
 12  4  1  0  0  0  0
 13  4  1  0  0  0  0
 14  5  1  0  0  0  0
 17 18  2  0  0  0  0
 17 22  1  0  0  0  0
 18 19  1  0  0  0  0
 19 24  1  0  0  0  0
 19 20  2  0  0  0  0
 21 20  1  0  0  0  0
 21 25  1  0  0  0  0
 22 21  2  0  0  0  0
 23 18  1  0  0  0  0
 25 26  1  0  0  0  0
 26 31  1  0  0  0  0
 26 27  2  0  0  0  0
 27 32  1  0  0  0  0
 28 27  1  0  0  0  0
 28 33  1  0  0  0  0
 29 28  2  0  0  0  0
 30 25  2  0  0  0  0
 30 29  1  0  0  0  0
 34 29  1  0  0  0  0
 34 35  1  0  0  0  0
 36 34  1  0  0  0  0
 37  6  1  0  0  0  0
 37 38  1  0  0  0  0
 38 39  2  0  0  0  0
 40 43  1  0  0  0  0
 40 38  1  0  0  0  0
 41 37  1  0  0  0  0
 42 40  1  0  0  0  0
M  END
>  <minimizedAffinity>
-6.20929337

$$$$

 OpenBabel03252507343D

 43 45  0  0  1  0  0  0  0  0999 V2000
   36.7050   26.9750   38.9610 C   0  0  2  0  0  0  0  0  0  0  0  0
   37.8030   27.6690   38.1000 C   0  0  0  0  0  0  0  0  0  0  0  0
   37.1590   28.3340   36.9270 C   0  0  0  0  0  0  0  0  0  0  0  0
   35.9240   29.1150   37.2170 C   0  0  0  0  0  0  0  0  0  0  0  0
   35.0570   28.5110   38.2010 C   0  0  0  0  0  0  0  0  0  0  0  0
   35.8020   27.9950   39.4530 C   0  0  2  0  0  0  0  0  0  0  0  0
   36.2550   26.2670   38.2200 H   0  0  0  0  0  0  0  0  0  0  0  0
   38.4450   28.3180   38.7140 H   0  0  0  0  0  0  0  0  0  0  0  0
   38.4420   26.8270   37.7630 H   0  0  0  0  0  0  0  0  0  0  0  0
   37.0870   27.5630   36.1370 H   0  0  0  0  0  0  0  0  0  0  0  0
   37.9130   29.0670   36.5260 H   0  0  0  0  0  0  0  0  0  0  0  0
   35.9170   30.1810   36.9910 H   0  0  0  0  0  0  0  0  0  0  0  0
   35.3170   28.8510   36.2570 H   0  0  0  0  0  0  0  0  0  0  0  0
   34.3020   29.2790   38.5390 H   0  0  0  0  0  0  0  0  0  0  0  0
   34.4320   27.6410   37.9080 H   0  0  0  0  0  0  0  0  0  0  0  0
   34.9600   27.7110   40.0880 H   0  0  0  0  0  0  0  0  0  0  0  0
   37.2880   26.1800   40.0250 C   0  0  0  0  0  0  0  0  0  0  0  0
   36.6400   25.0050   40.3730 C   0  0  0  0  0  0  0  0  0  0  0  0
   37.1550   24.2080   41.4220 C   0  0  0  0  0  0  0  0  0  0  0  0
   38.3110   24.6760   42.0440 N   0  0  0  0  0  0  0  0  0  0  0  0
   38.8860   25.8140   41.6580 C   0  0  0  0  0  0  0  0  0  0  0  0
   38.3880   26.5570   40.6680 N   0  0  0  0  0  0  0  0  0  0  0  0
   35.7940   24.4570   40.0230 H   0  0  0  0  0  0  0  0  0  0  0  0
   36.7990   23.2960   41.8220 H   0  0  0  0  0  0  0  0  0  0  0  0
   40.1130   26.2380   42.3420 C   0  0  0  0  0  0  0  0  0  0  0  0
   40.3010   27.5480   42.7210 C   0  0  0  0  0  0  0  0  0  0  0  0
   41.4090   28.0360   43.3650 C   0  0  0  0  0  0  0  0  0  0  0  0
   42.3750   27.0890   43.6240 C   0  0  0  0  0  0  0  0  0  0  0  0
   42.2140   25.7540   43.2530 C   0  0  0  0  0  0  0  0  0  0  0  0
   41.0780   25.3430   42.6130 N   0  0  0  0  0  0  0  0  0  0  0  0
   39.4750   28.2310   42.4700 H   0  0  0  0  0  0  0  0  0  0  0  0
   41.5150   29.0740   43.6430 H   0  0  0  0  0  0  0  0  0  0  0  0
   43.2920   27.3580   44.1270 H   0  0  0  0  0  0  0  0  0  0  0  0
   43.1910   24.7500   43.5060 N   0  0  0  0  0  0  0  0  0  0  0  0
   42.8650   24.4920   44.4800 H   0  0  0  0  0  0  0  0  0  0  0  0
   43.9760   24.3570   42.9660 H   0  0  0  0  0  0  0  0  0  0  0  0
   36.5650   29.1020   40.0340 N   0  0  0  0  0  0  0  0  0  0  0  0
   36.5070   29.7110   41.2980 C   0  0  0  0  0  0  0  0  0  0  0  0
   37.0150   29.1830   42.3530 O   0  0  0  0  0  0  0  0  0  0  0  0
   35.8450   30.9740   41.3240 N   0  0  0  0  0  0  0  0  0  0  0  0
   37.2910   29.6640   39.4490 H   0  0  0  0  0  0  0  0  0  0  0  0
   36.1090   31.8120   40.7540 H   0  0  0  0  0  0  0  0  0  0  0  0
   35.0110   31.3590   41.8590 H   0  0  0  0  0  0  0  0  0  0  0  0
  1  7  1  6  0  0  0
  1  6  1  0  0  0  0
  1 17  1  0  0  0  0
  2  8  1  0  0  0  0
  2  1  1  0  0  0  0
  3  4  1  0  0  0  0
  3  2  1  0  0  0  0
  4  5  1  0  0  0  0
  5 14  1  0  0  0  0
  5  6  1  0  0  0  0
  6 37  1  0  0  0  0
  6 16  1  1  0  0  0
  9  2  1  0  0  0  0
 10  3  1  0  0  0  0
 11  3  1  0  0  0  0
 12  4  1  0  0  0  0
 13  4  1  0  0  0  0
 15  5  1  0  0  0  0
 17 18  2  0  0  0  0
 17 22  1  0  0  0  0
 18 19  1  0  0  0  0
 19 24  1  0  0  0  0
 19 20  2  0  0  0  0
 21 20  1  0  0  0  0
 21 25  1  0  0  0  0
 22 21  2  0  0  0  0
 23 18  1  0  0  0  0
 25 30  2  0  0  0  0
 25 26  1  0  0  0  0
 26 27  2  0  0  0  0
 27 28  1  0  0  0  0
 27 32  1  0  0  0  0
 28 33  1  0  0  0  0
 29 34  1  0  0  0  0
 29 28  2  0  0  0  0
 30 29  1  0  0  0  0
 31 26  1  0  0  0  0
 34 35  1  0  0  0  0
 36 34  1  0  0  0  0
 37 38  1  0  0  0  0
 38 40  1  0  0  0  0
 38 39  2  0  0  0  0
 40 43  1  0  0  0  0
 41 37  1  0  0  0  0
 42 40  1  0  0  0  0
M  END
>  <minimizedAffinity>
-5.98517609

$$$$

 OpenBabel03252507343D

 43 45  0  0  1  0  0  0  0  0999 V2000
   38.0410   27.3810   39.4360 C   0  0  2  0  0  0  0  0  0  0  0  0
   36.6790   26.6240   39.4180 C   0  0  0  0  0  0  0  0  0  0  0  0
   36.8630   25.2690   40.0200 C   0  0  0  0  0  0  0  0  0  0  0  0
   37.6560   25.2160   41.2800 C   0  0  0  0  0  0  0  0  0  0  0  0
   38.7830   26.1190   41.3100 C   0  0  0  0  0  0  0  0  0  0  0  0
   38.4510   27.5450   40.8160 C   0  0  2  0  0  0  0  0  0  0  0  0
   38.6870   26.6940   38.8340 H   0  0  0  0  0  0  0  0  0  0  0  0
   35.8760   27.2300   39.8640 H   0  0  0  0  0  0  0  0  0  0  0  0
   36.4420   26.5370   38.3380 H   0  0  0  0  0  0  0  0  0  0  0  0
   37.1930   24.6080   39.1960 H   0  0  0  0  0  0  0  0  0  0  0  0
   35.8330   24.8940   40.2760 H   0  0  0  0  0  0  0  0  0  0  0  0
   37.1800   24.8290   42.1800 H   0  0  0  0  0  0  0  0  0  0  0  0
   38.2300   24.2200   41.0880 H   0  0  0  0  0  0  0  0  0  0  0  0
   39.1560   26.1980   42.3730 H   0  0  0  0  0  0  0  0  0  0  0  0
   39.6950   25.8630   40.7310 H   0  0  0  0  0  0  0  0  0  0  0  0
   39.3850   28.0630   41.0450 H   0  0  0  0  0  0  0  0  0  0  0  0
   37.9580   28.6400   38.7220 C   0  0  0  0  0  0  0  0  0  0  0  0
   36.9710   28.7630   37.7560 C   0  0  0  0  0  0  0  0  0  0  0  0
   36.8650   29.9620   37.0140 C   0  0  0  0  0  0  0  0  0  0  0  0
   37.7870   30.9620   37.3200 N   0  0  0  0  0  0  0  0  0  0  0  0
   38.7110   30.7800   38.2620 C   0  0  0  0  0  0  0  0  0  0  0  0
   38.8000   29.6410   38.9530 N   0  0  0  0  0  0  0  0  0  0  0  0
   36.1650   28.1630   37.3940 H   0  0  0  0  0  0  0  0  0  0  0  0
   36.1870   30.2320   36.2480 H   0  0  0  0  0  0  0  0  0  0  0  0
   39.6380   31.8810   38.5470 C   0  0  0  0  0  0  0  0  0  0  0  0
   39.6530   32.4990   39.7760 C   0  0  0  0  0  0  0  0  0  0  0  0
   40.4830   33.5320   40.1340 C   0  0  0  0  0  0  0  0  0  0  0  0
   41.3460   33.9350   39.1400 C   0  0  0  0  0  0  0  0  0  0  0  0
   41.3550   33.3270   37.8830 C   0  0  0  0  0  0  0  0  0  0  0  0
   40.4950   32.3010   37.6020 N   0  0  0  0  0  0  0  0  0  0  0  0
   38.9270   32.1090   40.5050 H   0  0  0  0  0  0  0  0  0  0  0  0
   40.4590   33.9890   41.1130 H   0  0  0  0  0  0  0  0  0  0  0  0
   42.0450   34.7400   39.3070 H   0  0  0  0  0  0  0  0  0  0  0  0
   42.2320   33.7180   36.8330 N   0  0  0  0  0  0  0  0  0  0  0  0
   43.0490   33.1020   37.1090 H   0  0  0  0  0  0  0  0  0  0  0  0
   42.1600   34.3720   36.0400 H   0  0  0  0  0  0  0  0  0  0  0  0
   37.3370   28.0680   41.6100 N   0  0  0  0  0  0  0  0  0  0  0  0
   37.1560   29.2990   42.2630 C   0  0  0  0  0  0  0  0  0  0  0  0
   36.8490   30.3810   41.6440 O   0  0  0  0  0  0  0  0  0  0  0  0
   37.3300   29.2570   43.6790 N   0  0  0  0  0  0  0  0  0  0  0  0
   36.4700   27.4560   41.8510 H   0  0  0  0  0  0  0  0  0  0  0  0
   36.7970   28.6440   44.3400 H   0  0  0  0  0  0  0  0  0  0  0  0
   37.9660   29.7690   44.3600 H   0  0  0  0  0  0  0  0  0  0  0  0
  1  7  1  6  0  0  0
  1  6  1  0  0  0  0
  2  1  1  0  0  0  0
  2  8  1  0  0  0  0
  2  3  1  0  0  0  0
  3 11  1  0  0  0  0
  3  4  1  0  0  0  0
  4  5  1  0  0  0  0
  4 12  1  0  0  0  0
  5 14  1  0  0  0  0
  6 16  1  1  0  0  0
  6  5  1  0  0  0  0
  6 37  1  0  0  0  0
  9  2  1  0  0  0  0
 10  3  1  0  0  0  0
 13  4  1  0  0  0  0
 15  5  1  0  0  0  0
 17 22  1  0  0  0  0
 17  1  1  0  0  0  0
 18 17  2  0  0  0  0
 19 20  2  0  0  0  0
 19 18  1  0  0  0  0
 20 21  1  0  0  0  0
 21 25  1  0  0  0  0
 21 22  2  0  0  0  0
 23 18  1  0  0  0  0
 24 19  1  0  0  0  0
 25 26  1  0  0  0  0
 26 27  2  0  0  0  0
 26 31  1  0  0  0  0
 27 32  1  0  0  0  0
 28 33  1  0  0  0  0
 28 27  1  0  0  0  0
 29 28  2  0  0  0  0
 30 29  1  0  0  0  0
 30 25  2  0  0  0  0
 34 35  1  0  0  0  0
 34 29  1  0  0  0  0
 36 34  1  0  0  0  0
 37 41  1  0  0  0  0
 37 38  1  0  0  0  0
 38 40  1  0  0  0  0
 39 38  2  0  0  0  0
 40 42  1  0  0  0  0
 40 43  1  0  0  0  0
M  END
>  <minimizedAffinity>
-5.95093679

$$$$

 OpenBabel03252507343D

 43 45  0  0  1  0  0  0  0  0999 V2000
   37.8090   27.0660   39.3950 C   0  0  2  0  0  0  0  0  0  0  0  0
   36.4290   26.3420   39.3710 C   0  0  0  0  0  0  0  0  0  0  0  0
   36.5680   25.0010   40.0150 C   0  0  0  0  0  0  0  0  0  0  0  0
   37.3350   24.9650   41.2920 C   0  0  0  0  0  0  0  0  0  0  0  0
   38.4840   25.8410   41.3180 C   0  0  0  0  0  0  0  0  0  0  0  0
   38.1960   27.2600   40.7770 C   0  0  2  0  0  0  0  0  0  0  0  0
   38.4490   26.3460   38.8250 H   0  0  0  0  0  0  0  0  0  0  0  0
   35.6340   26.9800   39.7830 H   0  0  0  0  0  0  0  0  0  0  0  0
   36.2110   26.2300   38.2890 H   0  0  0  0  0  0  0  0  0  0  0  0
   36.8970   24.3080   39.2170 H   0  0  0  0  0  0  0  0  0  0  0  0
   35.5240   24.6590   40.2610 H   0  0  0  0  0  0  0  0  0  0  0  0
   36.8320   24.6170   42.1920 H   0  0  0  0  0  0  0  0  0  0  0  0
   37.8880   23.9500   41.1390 H   0  0  0  0  0  0  0  0  0  0  0  0
   38.8380   25.9420   42.3860 H   0  0  0  0  0  0  0  0  0  0  0  0
   39.4000   25.5460   40.7650 H   0  0  0  0  0  0  0  0  0  0  0  0
   39.1390   27.7610   41.0090 H   0  0  0  0  0  0  0  0  0  0  0  0
   37.7710   28.3050   38.6430 C   0  0  0  0  0  0  0  0  0  0  0  0
   37.0180   28.3240   37.4790 C   0  0  0  0  0  0  0  0  0  0  0  0
   36.9700   29.5010   36.6970 C   0  0  0  0  0  0  0  0  0  0  0  0
   37.7030   30.5890   37.1710 N   0  0  0  0  0  0  0  0  0  0  0  0
   38.4060   30.5050   38.2990 C   0  0  0  0  0  0  0  0  0  0  0  0
   38.4430   29.3860   39.0260 N   0  0  0  0  0  0  0  0  0  0  0  0
   36.3730   27.6460   36.9660 H   0  0  0  0  0  0  0  0  0  0  0  0
   36.4580   29.6980   35.7930 H   0  0  0  0  0  0  0  0  0  0  0  0
   39.1390   31.6930   38.7500 C   0  0  0  0  0  0  0  0  0  0  0  0
   40.2650   32.1280   38.0890 C   0  0  0  0  0  0  0  0  0  0  0  0
   41.0130   33.2250   38.4340 C   0  0  0  0  0  0  0  0  0  0  0  0
   40.5470   33.9020   39.5390 C   0  0  0  0  0  0  0  0  0  0  0  0
   39.4080   33.4860   40.2300 C   0  0  0  0  0  0  0  0  0  0  0  0
   38.7150   32.3790   39.8230 N   0  0  0  0  0  0  0  0  0  0  0  0
   40.5610   31.5220   37.2190 H   0  0  0  0  0  0  0  0  0  0  0  0
   41.8920   33.5300   37.8850 H   0  0  0  0  0  0  0  0  0  0  0  0
   41.0550   34.7820   39.9030 H   0  0  0  0  0  0  0  0  0  0  0  0
   38.8990   34.1610   41.3740 N   0  0  0  0  0  0  0  0  0  0  0  0
   38.2970   34.8620   40.8560 H   0  0  0  0  0  0  0  0  0  0  0  0
   39.0300   34.0540   42.3910 H   0  0  0  0  0  0  0  0  0  0  0  0
   37.0810   27.8330   41.5340 N   0  0  0  0  0  0  0  0  0  0  0  0
   36.9620   29.0350   42.2510 C   0  0  0  0  0  0  0  0  0  0  0  0
   36.7900   30.1740   41.6840 O   0  0  0  0  0  0  0  0  0  0  0  0
   37.0390   28.8960   43.6690 N   0  0  0  0  0  0  0  0  0  0  0  0
   36.1510   27.2870   41.6820 H   0  0  0  0  0  0  0  0  0  0  0  0
   36.4140   28.2960   44.2570 H   0  0  0  0  0  0  0  0  0  0  0  0
   37.6690   29.3100   44.4180 H   0  0  0  0  0  0  0  0  0  0  0  0
  1  7  1  6  0  0  0
  1  6  1  0  0  0  0
  2  1  1  0  0  0  0
  2  8  1  0  0  0  0
  2  3  1  0  0  0  0
  3 11  1  0  0  0  0
  3  4  1  0  0  0  0
  4  5  1  0  0  0  0
  4 12  1  0  0  0  0
  5 14  1  0  0  0  0
  6 16  1  1  0  0  0
  6  5  1  0  0  0  0
  6 37  1  0  0  0  0
  9  2  1  0  0  0  0
 10  3  1  0  0  0  0
 13  4  1  0  0  0  0
 15  5  1  0  0  0  0
 17 22  1  0  0  0  0
 17  1  1  0  0  0  0
 18 17  2  0  0  0  0
 19 20  2  0  0  0  0
 19 18  1  0  0  0  0
 20 21  1  0  0  0  0
 21 25  1  0  0  0  0
 21 22  2  0  0  0  0
 23 18  1  0  0  0  0
 24 19  1  0  0  0  0
 25 30  1  0  0  0  0
 26 27  1  0  0  0  0
 26 25  2  0  0  0  0
 27 28  2  0  0  0  0
 28 33  1  0  0  0  0
 28 29  1  0  0  0  0
 29 34  1  0  0  0  0
 30 29  2  0  0  0  0
 31 26  1  0  0  0  0
 32 27  1  0  0  0  0
 34 36  1  0  0  0  0
 35 34  1  0  0  0  0
 37 41  1  0  0  0  0
 37 38  1  0  0  0  0
 38 40  1  0  0  0  0
 39 38  2  0  0  0  0
 40 42  1  0  0  0  0
 40 43  1  0  0  0  0
M  END
>  <minimizedAffinity>
-5.86336231

$$$$

 OpenBabel03252507343D

 43 45  0  0  1  0  0  0  0  0999 V2000
   37.3760   29.1880   41.1990 C   0  0  2  0  0  0  0  0  0  0  0  0
   38.1190   29.5760   42.5120 C   0  0  0  0  0  0  0  0  0  0  0  0
   37.6420   28.6980   43.6230 C   0  0  0  0  0  0  0  0  0  0  0  0
   37.5290   27.2470   43.3070 C   0  0  0  0  0  0  0  0  0  0  0  0
   37.0400   26.9660   41.9770 C   0  0  0  0  0  0  0  0  0  0  0  0
   37.7120   27.8160   40.8750 C   0  0  2  0  0  0  0  0  0  0  0  0
   36.3080   29.3530   41.4890 H   0  0  0  0  0  0  0  0  0  0  0  0
   39.2090   29.5970   42.3660 H   0  0  0  0  0  0  0  0  0  0  0  0
   37.8070   30.6260   42.6890 H   0  0  0  0  0  0  0  0  0  0  0  0
   36.7410   29.1890   44.0390 H   0  0  0  0  0  0  0  0  0  0  0  0
   38.4050   28.7860   44.4460 H   0  0  0  0  0  0  0  0  0  0  0  0
   38.1240   26.5400   43.8840 H   0  0  0  0  0  0  0  0  0  0  0  0
   36.5590   27.0080   43.9080 H   0  0  0  0  0  0  0  0  0  0  0  0
   37.2330   25.8790   41.7420 H   0  0  0  0  0  0  0  0  0  0  0  0
   35.9580   27.0930   41.7620 H   0  0  0  0  0  0  0  0  0  0  0  0
   37.2940   27.3550   39.9780 H   0  0  0  0  0  0  0  0  0  0  0  0
   37.6830   30.1100   40.1230 C   0  0  0  0  0  0  0  0  0  0  0  0
   36.7990   30.1630   39.0550 C   0  0  0  0  0  0  0  0  0  0  0  0
   37.0680   31.0280   37.9690 C   0  0  0  0  0  0  0  0  0  0  0  0
   38.2330   31.7880   38.0570 N   0  0  0  0  0  0  0  0  0  0  0  0
   39.0390   31.6910   39.1130 C   0  0  0  0  0  0  0  0  0  0  0  0
   38.7740   30.8680   40.1310 N   0  0  0  0  0  0  0  0  0  0  0  0
   35.8640   29.7150   38.8040 H   0  0  0  0  0  0  0  0  0  0  0  0
   36.5180   31.1980   37.0810 H   0  0  0  0  0  0  0  0  0  0  0  0
   40.2390   32.5340   39.1500 C   0  0  0  0  0  0  0  0  0  0  0  0
   40.8080   32.9110   40.3450 C   0  0  0  0  0  0  0  0  0  0  0  0
   41.9280   33.6920   40.4790 C   0  0  0  0  0  0  0  0  0  0  0  0
   42.4790   34.1000   39.2850 C   0  0  0  0  0  0  0  0  0  0  0  0
   41.9250   33.7340   38.0570 C   0  0  0  0  0  0  0  0  0  0  0  0
   40.8050   32.9510   38.0060 N   0  0  0  0  0  0  0  0  0  0  0  0
   40.2970   32.5370   41.2460 H   0  0  0  0  0  0  0  0  0  0  0  0
   42.3400   33.9640   41.4400 H   0  0  0  0  0  0  0  0  0  0  0  0
   43.3630   34.7190   39.2660 H   0  0  0  0  0  0  0  0  0  0  0  0
   42.4680   34.1360   36.8050 N   0  0  0  0  0  0  0  0  0  0  0  0
   43.1610   33.3420   36.7000 H   0  0  0  0  0  0  0  0  0  0  0  0
   42.2920   34.9240   36.1630 H   0  0  0  0  0  0  0  0  0  0  0  0
   39.1610   27.6240   40.9540 N   0  0  0  0  0  0  0  0  0  0  0  0
   40.1060   27.2510   39.9830 C   0  0  0  0  0  0  0  0  0  0  0  0
   40.5480   28.0600   39.0890 O   0  0  0  0  0  0  0  0  0  0  0  0
   40.5480   25.8970   40.0680 N   0  0  0  0  0  0  0  0  0  0  0  0
   39.6980   27.7010   41.8980 H   0  0  0  0  0  0  0  0  0  0  0  0
   40.9950   25.4540   40.9050 H   0  0  0  0  0  0  0  0  0  0  0  0
   40.5450   25.0760   39.3930 H   0  0  0  0  0  0  0  0  0  0  0  0
  1  7  1  1  0  0  0
  1  2  1  0  0  0  0
  2  9  1  0  0  0  0
  2  3  1  0  0  0  0
  3 10  1  0  0  0  0
  3 11  1  0  0  0  0
  4  3  1  0  0  0  0
  4 12  1  0  0  0  0
  4 13  1  0  0  0  0
  5  4  1  0  0  0  0
  6 16  1  6  0  0  0
  6 37  1  0  0  0  0
  6  1  1  0  0  0  0
  6  5  1  0  0  0  0
  8  2  1  0  0  0  0
 14  5  1  0  0  0  0
 15  5  1  0  0  0  0
 17 22  1  0  0  0  0
 17  1  1  0  0  0  0
 18 17  2  0  0  0  0
 19 20  2  0  0  0  0
 19 18  1  0  0  0  0
 20 21  1  0  0  0  0
 21 25  1  0  0  0  0
 21 22  2  0  0  0  0
 23 18  1  0  0  0  0
 24 19  1  0  0  0  0
 25 26  1  0  0  0  0
 26 27  2  0  0  0  0
 26 31  1  0  0  0  0
 27 32  1  0  0  0  0
 28 27  1  0  0  0  0
 29 28  2  0  0  0  0
 30 29  1  0  0  0  0
 30 25  2  0  0  0  0
 33 28  1  0  0  0  0
 34 29  1  0  0  0  0
 35 34  1  0  0  0  0
 36 34  1  0  0  0  0
 37 41  1  0  0  0  0
 38 40  1  0  0  0  0
 38 37  1  0  0  0  0
 39 38  2  0  0  0  0
 40 42  1  0  0  0  0
 43 40  1  0  0  0  0
M  END
>  <minimizedAffinity>
-5.84304094

$$$$

 OpenBabel03252507343D

 43 45  0  0  1  0  0  0  0  0999 V2000
   36.1950   27.0800   39.6530 C   0  0  2  0  0  0  0  0  0  0  0  0
   37.0760   25.8040   39.4950 C   0  0  0  0  0  0  0  0  0  0  0  0
   36.3590   24.8170   38.6330 C   0  0  0  0  0  0  0  0  0  0  0  0
   35.7250   25.3650   37.4000 C   0  0  0  0  0  0  0  0  0  0  0  0
   35.1200   26.6650   37.5720 C   0  0  0  0  0  0  0  0  0  0  0  0
   36.0090   27.6680   38.3410 C   0  0  2  0  0  0  0  0  0  0  0  0
   35.2670   26.6560   40.1120 H   0  0  0  0  0  0  0  0  0  0  0  0
   38.0960   26.0570   39.1700 H   0  0  0  0  0  0  0  0  0  0  0  0
   37.1640   25.4180   40.5310 H   0  0  0  0  0  0  0  0  0  0  0  0
   35.7070   24.2320   39.3090 H   0  0  0  0  0  0  0  0  0  0  0  0
   37.1330   24.0750   38.2900 H   0  0  0  0  0  0  0  0  0  0  0  0
   36.0510   24.9830   36.4340 H   0  0  0  0  0  0  0  0  0  0  0  0
   34.7570   24.7160   37.3940 H   0  0  0  0  0  0  0  0  0  0  0  0
   34.9050   27.1020   36.5540 H   0  0  0  0  0  0  0  0  0  0  0  0
   34.1460   26.7410   38.1010 H   0  0  0  0  0  0  0  0  0  0  0  0
   35.4210   28.5820   38.2380 H   0  0  0  0  0  0  0  0  0  0  0  0
   36.7700   28.0070   40.6080 C   0  0  0  0  0  0  0  0  0  0  0  0
   36.9360   27.5620   41.9100 C   0  0  0  0  0  0  0  0  0  0  0  0
   37.4690   28.4380   42.8850 C   0  0  0  0  0  0  0  0  0  0  0  0
   37.8000   29.7200   42.4490 N   0  0  0  0  0  0  0  0  0  0  0  0
   37.6170   30.0830   41.1810 C   0  0  0  0  0  0  0  0  0  0  0  0
   37.1110   29.2470   40.2720 N   0  0  0  0  0  0  0  0  0  0  0  0
   36.7900   26.6460   42.4370 H   0  0  0  0  0  0  0  0  0  0  0  0
   37.6620   28.2770   43.9120 H   0  0  0  0  0  0  0  0  0  0  0  0
   38.0060   31.4420   40.7860 C   0  0  0  0  0  0  0  0  0  0  0  0
   37.1510   32.2460   40.0670 C   0  0  0  0  0  0  0  0  0  0  0  0
   37.4240   33.5260   39.6560 C   0  0  0  0  0  0  0  0  0  0  0  0
   38.6700   33.9840   40.0230 C   0  0  0  0  0  0  0  0  0  0  0  0
   39.5580   33.1930   40.7520 C   0  0  0  0  0  0  0  0  0  0  0  0
   39.2120   31.9240   41.1260 N   0  0  0  0  0  0  0  0  0  0  0  0
   36.1790   31.7930   39.8190 H   0  0  0  0  0  0  0  0  0  0  0  0
   36.7220   34.1230   39.0920 H   0  0  0  0  0  0  0  0  0  0  0  0
   38.9950   34.9780   39.7550 H   0  0  0  0  0  0  0  0  0  0  0  0
   40.8520   33.6340   41.1480 N   0  0  0  0  0  0  0  0  0  0  0  0
   40.5610   34.0970   42.0550 H   0  0  0  0  0  0  0  0  0  0  0  0
   41.7950   33.5600   40.7380 H   0  0  0  0  0  0  0  0  0  0  0  0
   37.2970   27.7750   37.6540 N   0  0  0  0  0  0  0  0  0  0  0  0
   37.8060   28.7450   36.7730 C   0  0  0  0  0  0  0  0  0  0  0  0
   38.2430   29.8860   37.1650 O   0  0  0  0  0  0  0  0  0  0  0  0
   37.8080   28.3610   35.3990 N   0  0  0  0  0  0  0  0  0  0  0  0
   38.0470   26.9880   37.7190 H   0  0  0  0  0  0  0  0  0  0  0  0
   38.2870   27.5180   35.0020 H   0  0  0  0  0  0  0  0  0  0  0  0
   37.3820   28.7730   34.5170 H   0  0  0  0  0  0  0  0  0  0  0  0
  1  7  1  1  0  0  0
  1 17  1  0  0  0  0
  2  1  1  0  0  0  0
  2  9  1  0  0  0  0
  3 10  1  0  0  0  0
  3  2  1  0  0  0  0
  4  5  1  0  0  0  0
  4  3  1  0  0  0  0
  5 15  1  0  0  0  0
  5  6  1  0  0  0  0
  6 16  1  1  0  0  0
  6  1  1  0  0  0  0
  8  2  1  0  0  0  0
 11  3  1  0  0  0  0
 12  4  1  0  0  0  0
 13  4  1  0  0  0  0
 14  5  1  0  0  0  0
 17 18  1  0  0  0  0
 18 23  1  0  0  0  0
 18 19  2  0  0  0  0
 19 24  1  0  0  0  0
 20 19  1  0  0  0  0
 21 20  2  0  0  0  0
 22 17  2  0  0  0  0
 22 21  1  0  0  0  0
 25 30  1  0  0  0  0
 25 21  1  0  0  0  0
 26 25  2  0  0  0  0
 27 28  2  0  0  0  0
 27 26  1  0  0  0  0
 28 29  1  0  0  0  0
 29 30  2  0  0  0  0
 29 34  1  0  0  0  0
 31 26  1  0  0  0  0
 32 27  1  0  0  0  0
 33 28  1  0  0  0  0
 34 35  1  0  0  0  0
 36 34  1  0  0  0  0
 37 41  1  0  0  0  0
 37  6  1  0  0  0  0
 38 39  2  0  0  0  0
 38 37  1  0  0  0  0
 40 38  1  0  0  0  0
 42 40  1  0  0  0  0
 43 40  1  0  0  0  0
M  END
>  <minimizedAffinity>
-5.83365726

$$$$

 OpenBabel03252507343D

 43 45  0  0  1  0  0  0  0  0999 V2000
   38.0300   29.2020   41.9490 C   0  0  2  0  0  0  0  0  0  0  0  0
   39.5330   28.7930   41.9100 C   0  0  0  0  0  0  0  0  0  0  0  0
   39.8860   28.0990   43.1850 C   0  0  0  0  0  0  0  0  0  0  0  0
   38.9140   27.0770   43.6630 C   0  0  0  0  0  0  0  0  0  0  0  0
   37.5290   27.4330   43.4580 C   0  0  0  0  0  0  0  0  0  0  0  0
   37.2340   27.9950   42.0490 C   0  0  2  0  0  0  0  0  0  0  0  0
   38.0000   29.8590   42.8540 H   0  0  0  0  0  0  0  0  0  0  0  0
   39.7750   28.2390   40.9910 H   0  0  0  0  0  0  0  0  0  0  0  0
   40.0660   29.7640   41.8380 H   0  0  0  0  0  0  0  0  0  0  0  0
   40.1650   28.8950   43.9020 H   0  0  0  0  0  0  0  0  0  0  0  0
   40.8520   27.5540   42.9910 H   0  0  0  0  0  0  0  0  0  0  0  0
   39.2530   26.0480   43.7760 H   0  0  0  0  0  0  0  0  0  0  0  0
   38.9850   27.2850   44.8080 H   0  0  0  0  0  0  0  0  0  0  0  0
   36.8920   26.5120   43.6050 H   0  0  0  0  0  0  0  0  0  0  0  0
   37.0610   28.1850   44.1280 H   0  0  0  0  0  0  0  0  0  0  0  0
   36.1450   28.0670   42.0830 H   0  0  0  0  0  0  0  0  0  0  0  0
   37.6710   30.0180   40.8060 C   0  0  0  0  0  0  0  0  0  0  0  0
   37.9370   31.3770   40.8820 C   0  0  0  0  0  0  0  0  0  0  0  0
   37.5820   32.2190   39.8030 C   0  0  0  0  0  0  0  0  0  0  0  0
   36.9770   31.6020   38.7090 N   0  0  0  0  0  0  0  0  0  0  0  0
   36.7510   30.2890   38.6990 C   0  0  0  0  0  0  0  0  0  0  0  0
   37.0900   29.5070   39.7260 N   0  0  0  0  0  0  0  0  0  0  0  0
   38.4070   32.0340   41.5800 H   0  0  0  0  0  0  0  0  0  0  0  0
   37.7030   33.2640   39.6860 H   0  0  0  0  0  0  0  0  0  0  0  0
   36.1280   29.7010   37.5080 C   0  0  0  0  0  0  0  0  0  0  0  0
   34.8630   29.1630   37.5590 C   0  0  0  0  0  0  0  0  0  0  0  0
   34.1990   28.5950   36.5010 C   0  0  0  0  0  0  0  0  0  0  0  0
   34.9110   28.5950   35.3220 C   0  0  0  0  0  0  0  0  0  0  0  0
   36.1950   29.1340   35.2380 C   0  0  0  0  0  0  0  0  0  0  0  0
   36.7900   29.6840   36.3400 N   0  0  0  0  0  0  0  0  0  0  0  0
   34.3740   29.2070   38.5440 H   0  0  0  0  0  0  0  0  0  0  0  0
   33.2040   28.1830   36.5870 H   0  0  0  0  0  0  0  0  0  0  0  0
   34.4890   28.1750   34.4210 H   0  0  0  0  0  0  0  0  0  0  0  0
   36.9580   29.1520   34.0370 N   0  0  0  0  0  0  0  0  0  0  0  0
   36.5780   30.0630   33.6530 H   0  0  0  0  0  0  0  0  0  0  0  0
   37.6600   28.5220   33.6210 H   0  0  0  0  0  0  0  0  0  0  0  0
   37.6780   27.0190   41.0520 N   0  0  0  0  0  0  0  0  0  0  0  0
   36.9790   26.0290   40.3420 C   0  0  0  0  0  0  0  0  0  0  0  0
   36.2270   26.2900   39.3340 O   0  0  0  0  0  0  0  0  0  0  0  0
   37.1730   24.6990   40.8210 N   0  0  0  0  0  0  0  0  0  0  0  0
   38.7280   26.9140   40.7830 H   0  0  0  0  0  0  0  0  0  0  0  0
   38.0960   24.2120   40.9080 H   0  0  0  0  0  0  0  0  0  0  0  0
   36.5190   23.9390   41.1730 H   0  0  0  0  0  0  0  0  0  0  0  0
  1  6  1  0  0  0  0
  1  7  1  1  0  0  0
  2  1  1  0  0  0  0
  2  3  1  0  0  0  0
  3  4  1  0  0  0  0
  3 10  1  0  0  0  0
  4 12  1  0  0  0  0
  4 13  1  0  0  0  0
  5 14  1  0  0  0  0
  5  4  1  0  0  0  0
  5 15  1  0  0  0  0
  6 16  1  6  0  0  0
  6  5  1  0  0  0  0
  8  2  1  0  0  0  0
  9  2  1  0  0  0  0
 11  3  1  0  0  0  0
 17 18  1  0  0  0  0
 17  1  1  0  0  0  0
 18 23  1  0  0  0  0
 19 18  2  0  0  0  0
 20 19  1  0  0  0  0
 21 20  2  0  0  0  0
 21 22  1  0  0  0  0
 22 17  2  0  0  0  0
 24 19  1  0  0  0  0
 25 26  1  0  0  0  0
 25 21  1  0  0  0  0
 26 31  1  0  0  0  0
 27 32  1  0  0  0  0
 27 26  2  0  0  0  0
 28 27  1  0  0  0  0
 29 28  2  0  0  0  0
 29 30  1  0  0  0  0
 30 25  2  0  0  0  0
 33 28  1  0  0  0  0
 34 29  1  0  0  0  0
 35 34  1  0  0  0  0
 36 34  1  0  0  0  0
 37  6  1  0  0  0  0
 38 40  1  0  0  0  0
 38 37  1  0  0  0  0
 39 38  2  0  0  0  0
 40 42  1  0  0  0  0
 40 43  1  0  0  0  0
 41 37  1  0  0  0  0
M  END
>  <minimizedAffinity>
-5.79887581

$$$$
