
 OpenBabel03252508513D

 22 23  0  0  0  0  0  0  0  0999 V2000
   46.0700   34.1670   41.0070 C   0  0  0  0  0  0  0  0  0  0  0  0
   46.6250   34.8340   42.1150 C   0  0  0  0  0  0  0  0  0  0  0  0
   47.9500   35.2660   42.0070 C   0  0  0  0  0  0  0  0  0  0  0  0
   48.6170   35.0170   40.8470 N   0  0  0  0  0  0  0  0  0  0  0  0
   48.0500   34.3770   39.8150 C   0  0  0  0  0  0  0  0  0  0  0  0
   46.7700   33.9480   39.8920 N   0  0  0  0  0  0  0  0  0  0  0  0
   48.3870   35.7820   42.8560 H   0  0  0  0  0  0  0  0  0  0  0  0
   48.6430   34.2150   38.9240 H   0  0  0  0  0  0  0  0  0  0  0  0
   45.8180   35.0440   43.3040 C   0  0  0  0  0  0  0  0  0  0  0  0
   45.0630   36.1940   43.5110 C   0  0  0  0  0  0  0  0  0  0  0  0
   44.4720   35.9720   44.7380 C   0  0  0  0  0  0  0  0  0  0  0  0
   44.8330   34.7740   45.2510 N   0  0  0  0  0  0  0  0  0  0  0  0
   45.6430   34.2480   44.3570 N   0  0  0  0  0  0  0  0  0  0  0  0
   44.9760   37.0480   42.8560 H   0  0  0  0  0  0  0  0  0  0  0  0
   43.8050   36.7220   45.1730 H   0  0  0  0  0  0  0  0  0  0  0  0
   44.4860   34.4310   46.1720 H   0  0  0  0  0  0  0  0  0  0  0  0
   44.7650   33.7360   41.1020 O   0  0  0  0  0  0  0  0  0  0  0  0
   43.6880   34.2920   40.4580 C   0  0  0  0  0  0  0  0  0  0  0  0
   43.2440   35.4810   40.5420 O   0  0  0  0  0  0  0  0  0  0  0  0
   42.6920   33.8380   39.5110 N   0  0  0  0  0  0  0  0  0  0  0  0
   41.7520   34.2760   39.3960 H   0  0  0  0  0  0  0  0  0  0  0  0
   43.0600   33.0220   38.9760 H   0  0  0  0  0  0  0  0  0  0  0  0
  1 17  1  0  0  0  0
  1  2  1  0  0  0  0
  2  9  1  0  0  0  0
  3  2  2  0  0  0  0
  3  7  1  0  0  0  0
  4  3  1  0  0  0  0
  5  6  1  0  0  0  0
  5  4  2  0  0  0  0
  6  1  2  0  0  0  0
  8  5  1  0  0  0  0
  9 10  1  0  0  0  0
  9 13  2  0  0  0  0
 10 11  2  0  0  0  0
 11 15  1  0  0  0  0
 11 12  1  0  0  0  0
 12 16  1  0  0  0  0
 13 12  1  0  0  0  0
 14 10  1  0  0  0  0
 18 19  2  0  0  0  0
 18 17  1  0  0  0  0
 20 18  1  0  0  0  0
 21 20  1  0  0  0  0
 22 20  1  0  0  0  0
M  END
>  <minimizedAffinity>
-4.51181936

>  <minimizedRMSD>
0.0648971274

$$$$
