
 OpenBabel03242517213D

 27 28  0  0  1  0  0  0  0  0999 V2000
   38.5250   28.0240   43.6080 C   0  0  0  0  0  0  0  0  0  0  0  0
   37.3960   27.2340   43.3930 C   0  0  0  0  0  0  0  0  0  0  0  0
   36.4630   27.6250   42.4330 C   0  0  0  0  0  0  0  0  0  0  0  0
   36.7150   28.7790   41.7480 N   0  0  0  0  0  0  0  0  0  0  0  0
   37.8040   29.5290   41.9640 C   0  0  0  0  0  0  0  0  0  0  0  0
   38.6910   29.1340   42.8940 N   0  0  0  0  0  0  0  0  0  0  0  0
   38.0400   30.7380   41.2250 N   0  0  0  0  0  0  0  0  0  0  0  0
   39.3230   31.3720   41.3880 C   0  0  0  0  0  0  0  0  0  0  0  0
   39.4440   32.7130   40.7790 C   0  0  0  0  0  0  0  0  0  0  0  0
   38.5950   32.7980   39.5350 C   0  0  0  0  0  0  0  0  0  0  0  0
   37.1640   32.6750   40.0410 C   0  0  0  0  0  0  0  0  0  0  0  0
   36.9610   31.2190   40.3750 C   0  0  2  0  0  0  0  0  0  0  0  0
   39.2620   27.7280   44.3570 H   0  0  0  0  0  0  0  0  0  0  0  0
   37.2480   26.3190   43.9750 H   0  0  0  0  0  0  0  0  0  0  0  0
   35.5750   27.0430   42.2340 H   0  0  0  0  0  0  0  0  0  0  0  0
   39.4480   31.5060   42.4970 H   0  0  0  0  0  0  0  0  0  0  0  0
   40.1590   30.7450   41.0580 H   0  0  0  0  0  0  0  0  0  0  0  0
   39.0670   33.4930   41.5020 H   0  0  0  0  0  0  0  0  0  0  0  0
   40.4800   32.9740   40.5600 H   0  0  0  0  0  0  0  0  0  0  0  0
   38.7700   33.6780   38.9140 H   0  0  0  0  0  0  0  0  0  0  0  0
   38.8310   31.8950   38.9150 H   0  0  0  0  0  0  0  0  0  0  0  0
   37.0310   33.2680   40.9440 H   0  0  0  0  0  0  0  0  0  0  0  0
   36.4350   32.9240   39.2230 H   0  0  0  0  0  0  0  0  0  0  0  0
   36.8960   30.5810   39.4960 H   0  0  0  0  0  0  0  0  0  0  0  0
   35.7530   31.1400   41.1830 N   0  0  0  0  0  0  0  0  0  0  0  0
   35.5500   30.1630   41.5000 H   0  0  0  0  0  0  0  0  0  0  0  0
   34.9290   31.5050   40.6360 H   0  0  0  0  0  0  0  0  0  0  0  0
  1 13  1  0  0  0  0
  2  1  1  0  0  0  0
  2 14  1  0  0  0  0
  3  2  2  0  0  0  0
  4  5  2  0  0  0  0
  4  3  1  0  0  0  0
  5  6  1  0  0  0  0
  6  1  2  0  0  0  0
  7  8  1  0  0  0  0
  7  5  1  0  0  0  0
  8 16  1  0  0  0  0
  9  8  1  0  0  0  0
  9 18  1  0  0  0  0
 10 11  1  0  0  0  0
 10  9  1  0  0  0  0
 11 12  1  0  0  0  0
 11 22  1  0  0  0  0
 12 24  1  6  0  0  0
 12 25  1  0  0  0  0
 12  7  1  0  0  0  0
 15  3  1  0  0  0  0
 17  8  1  0  0  0  0
 19  9  1  0  0  0  0
 20 10  1  0  0  0  0
 21 10  1  0  0  0  0
 23 11  1  0  0  0  0
 25 26  1  0  0  0  0
 27 25  1  0  0  0  0
M  END
>  <minimizedAffinity>
-4.87514448

$$$$

 OpenBabel03242517213D

 27 28  0  0  1  0  0  0  0  0999 V2000
   39.3790   32.9410   40.8220 C   0  0  0  0  0  0  0  0  0  0  0  0
   38.4820   33.5100   39.9190 C   0  0  0  0  0  0  0  0  0  0  0  0
   37.2810   32.8540   39.6460 C   0  0  0  0  0  0  0  0  0  0  0  0
   37.0510   31.6730   40.2920 N   0  0  0  0  0  0  0  0  0  0  0  0
   37.9220   31.1380   41.1580 C   0  0  0  0  0  0  0  0  0  0  0  0
   39.0720   31.7860   41.4070 N   0  0  0  0  0  0  0  0  0  0  0  0
   37.6480   29.8940   41.8210 N   0  0  0  0  0  0  0  0  0  0  0  0
   38.5480   29.4940   42.8730 C   0  0  0  0  0  0  0  0  0  0  0  0
   38.3530   28.1200   43.3800 C   0  0  0  0  0  0  0  0  0  0  0  0
   36.8950   27.7400   43.3060 C   0  0  0  0  0  0  0  0  0  0  0  0
   36.5870   27.7040   41.8150 C   0  0  0  0  0  0  0  0  0  0  0  0
   36.4860   29.1420   41.3730 C   0  0  2  0  0  0  0  0  0  0  0  0
   40.3210   33.4450   41.0440 H   0  0  0  0  0  0  0  0  0  0  0  0
   38.7220   34.4590   39.4320 H   0  0  0  0  0  0  0  0  0  0  0  0
   36.5580   33.2600   38.9530 H   0  0  0  0  0  0  0  0  0  0  0  0
   39.5740   29.5300   42.4150 H   0  0  0  0  0  0  0  0  0  0  0  0
   38.5640   30.1950   43.7160 H   0  0  0  0  0  0  0  0  0  0  0  0
   38.9280   27.3940   42.7360 H   0  0  0  0  0  0  0  0  0  0  0  0
   38.7340   27.9970   44.3940 H   0  0  0  0  0  0  0  0  0  0  0  0
   36.6290   26.8230   43.8340 H   0  0  0  0  0  0  0  0  0  0  0  0
   36.3140   28.5780   43.7680 H   0  0  0  0  0  0  0  0  0  0  0  0
   37.3990   27.2220   41.2730 H   0  0  0  0  0  0  0  0  0  0  0  0
   35.5810   27.2380   41.6330 H   0  0  0  0  0  0  0  0  0  0  0  0
   35.5870   29.6390   41.7300 H   0  0  0  0  0  0  0  0  0  0  0  0
   36.5520   29.1380   39.9180 N   0  0  0  0  0  0  0  0  0  0  0  0
   36.5300   30.1040   39.5170 H   0  0  0  0  0  0  0  0  0  0  0  0
   35.7500   28.5790   39.5230 H   0  0  0  0  0  0  0  0  0  0  0  0
  1 13  1  0  0  0  0
  1  6  1  0  0  0  0
  2  1  2  0  0  0  0
  3  2  1  0  0  0  0
  3  4  2  0  0  0  0
  4  5  1  0  0  0  0
  5  6  2  0  0  0  0
  5  7  1  0  0  0  0
  7  8  1  0  0  0  0
  8  9  1  0  0  0  0
  8 17  1  0  0  0  0
  9 19  1  0  0  0  0
 10  9  1  0  0  0  0
 10 21  1  0  0  0  0
 10 20  1  0  0  0  0
 11 10  1  0  0  0  0
 12 24  1  1  0  0  0
 12 11  1  0  0  0  0
 12  7  1  0  0  0  0
 14  2  1  0  0  0  0
 15  3  1  0  0  0  0
 16  8  1  0  0  0  0
 18  9  1  0  0  0  0
 22 11  1  0  0  0  0
 23 11  1  0  0  0  0
 25 12  1  0  0  0  0
 26 25  1  0  0  0  0
 27 25  1  0  0  0  0
M  END
>  <minimizedAffinity>
-4.50694084

$$$$

 OpenBabel03242517213D

 27 28  0  0  1  0  0  0  0  0999 V2000
   39.6080   32.5950   39.0050 C   0  0  0  0  0  0  0  0  0  0  0  0
   40.0010   32.7700   40.3310 C   0  0  0  0  0  0  0  0  0  0  0  0
   39.3090   32.1010   41.3410 C   0  0  0  0  0  0  0  0  0  0  0  0
   38.2710   31.2980   40.9640 N   0  0  0  0  0  0  0  0  0  0  0  0
   37.9040   31.1390   39.6860 C   0  0  0  0  0  0  0  0  0  0  0  0
   38.5830   31.7920   38.7280 N   0  0  0  0  0  0  0  0  0  0  0  0
   36.8070   30.2860   39.3230 N   0  0  0  0  0  0  0  0  0  0  0  0
   36.6080   30.0260   37.9190 C   0  0  0  0  0  0  0  0  0  0  0  0
   35.3530   29.3220   37.5810 C   0  0  0  0  0  0  0  0  0  0  0  0
   34.9710   28.3770   38.6930 C   0  0  0  0  0  0  0  0  0  0  0  0
   34.6580   29.2860   39.8750 C   0  0  0  0  0  0  0  0  0  0  0  0
   35.9880   29.7580   40.4040 C   0  0  2  0  0  0  0  0  0  0  0  0
   40.1410   33.1130   38.2060 H   0  0  0  0  0  0  0  0  0  0  0  0
   40.8420   33.4270   40.5720 H   0  0  0  0  0  0  0  0  0  0  0  0
   39.5810   32.2080   42.3820 H   0  0  0  0  0  0  0  0  0  0  0  0
   36.5540   31.0390   37.4360 H   0  0  0  0  0  0  0  0  0  0  0  0
   37.4540   29.5070   37.4530 H   0  0  0  0  0  0  0  0  0  0  0  0
   34.5170   30.0720   37.4680 H   0  0  0  0  0  0  0  0  0  0  0  0
   35.4210   28.7940   36.6300 H   0  0  0  0  0  0  0  0  0  0  0  0
   34.1700   27.6770   38.4500 H   0  0  0  0  0  0  0  0  0  0  0  0
   35.8830   27.7760   38.9410 H   0  0  0  0  0  0  0  0  0  0  0  0
   34.0800   30.1480   39.5450 H   0  0  0  0  0  0  0  0  0  0  0  0
   34.1700   28.7020   40.7010 H   0  0  0  0  0  0  0  0  0  0  0  0
   36.5460   28.9800   40.9200 H   0  0  0  0  0  0  0  0  0  0  0  0
   35.7120   30.8870   41.2810 N   0  0  0  0  0  0  0  0  0  0  0  0
   36.5860   31.3120   41.6680 H   0  0  0  0  0  0  0  0  0  0  0  0
   35.0920   30.5820   42.0770 H   0  0  0  0  0  0  0  0  0  0  0  0
  1  2  1  0  0  0  0
  2 14  1  0  0  0  0
  2  3  2  0  0  0  0
  3 15  1  0  0  0  0
  4  3  1  0  0  0  0
  5  4  2  0  0  0  0
  6  1  2  0  0  0  0
  6  5  1  0  0  0  0
  7  5  1  0  0  0  0
  7 12  1  0  0  0  0
  8  7  1  0  0  0  0
  9  8  1  0  0  0  0
  9 10  1  0  0  0  0
 10 21  1  0  0  0  0
 10 11  1  0  0  0  0
 11 12  1  0  0  0  0
 11 23  1  0  0  0  0
 12 24  1  1  0  0  0
 12 25  1  0  0  0  0
 13  1  1  0  0  0  0
 16  8  1  0  0  0  0
 17  8  1  0  0  0  0
 18  9  1  0  0  0  0
 19  9  1  0  0  0  0
 20 10  1  0  0  0  0
 22 11  1  0  0  0  0
 25 26  1  0  0  0  0
 25 27  1  0  0  0  0
M  END
>  <minimizedAffinity>
-4.47037363

$$$$

 OpenBabel03242517213D

 27 28  0  0  1  0  0  0  0  0999 V2000
   36.3510   28.1460   41.8230 C   0  0  0  0  0  0  0  0  0  0  0  0
   37.1390   27.7250   42.8930 C   0  0  0  0  0  0  0  0  0  0  0  0
   38.1950   28.5300   43.3200 C   0  0  0  0  0  0  0  0  0  0  0  0
   38.3970   29.7040   42.6540 N   0  0  0  0  0  0  0  0  0  0  0  0
   37.6310   30.0970   41.6270 C   0  0  0  0  0  0  0  0  0  0  0  0
   36.6190   29.3070   41.2310 N   0  0  0  0  0  0  0  0  0  0  0  0
   37.8710   31.3400   40.9480 N   0  0  0  0  0  0  0  0  0  0  0  0
   36.8850   31.7690   39.9870 C   0  0  0  0  0  0  0  0  0  0  0  0
   37.2720   32.9360   39.1670 C   0  0  0  0  0  0  0  0  0  0  0  0
   38.1550   33.8630   39.9640 C   0  0  0  0  0  0  0  0  0  0  0  0
   39.4260   33.0600   40.2110 C   0  0  0  0  0  0  0  0  0  0  0  0
   39.0890   32.0610   41.2870 C   0  0  2  0  0  0  0  0  0  0  0  0
   35.5220   27.5250   41.4790 H   0  0  0  0  0  0  0  0  0  0  0  0
   36.9280   26.7720   43.3870 H   0  0  0  0  0  0  0  0  0  0  0  0
   38.8300   28.2410   44.1450 H   0  0  0  0  0  0  0  0  0  0  0  0
   36.7630   30.9010   39.2830 H   0  0  0  0  0  0  0  0  0  0  0  0
   35.8990   31.9470   40.4320 H   0  0  0  0  0  0  0  0  0  0  0  0
   37.8640   32.5880   38.2710 H   0  0  0  0  0  0  0  0  0  0  0  0
   36.4060   33.4680   38.7740 H   0  0  0  0  0  0  0  0  0  0  0  0
   38.3300   34.8390   39.5100 H   0  0  0  0  0  0  0  0  0  0  0  0
   37.6480   34.0330   40.9480 H   0  0  0  0  0  0  0  0  0  0  0  0
   39.7150   32.5260   39.3070 H   0  0  0  0  0  0  0  0  0  0  0  0
   40.2340   33.7220   40.6250 H   0  0  0  0  0  0  0  0  0  0  0  0
   38.9680   32.5110   42.2700 H   0  0  0  0  0  0  0  0  0  0  0  0
   40.1530   31.0660   41.2830 N   0  0  0  0  0  0  0  0  0  0  0  0
   39.9840   30.3010   41.9760 H   0  0  0  0  0  0  0  0  0  0  0  0
   41.0770   31.5270   41.4920 H   0  0  0  0  0  0  0  0  0  0  0  0
  1  2  1  0  0  0  0
  2  3  2  0  0  0  0
  2 14  1  0  0  0  0
  3 15  1  0  0  0  0
  4  3  1  0  0  0  0
  5  4  2  0  0  0  0
  6  5  1  0  0  0  0
  6  1  2  0  0  0  0
  7 12  1  0  0  0  0
  7  5  1  0  0  0  0
  8 17  1  0  0  0  0
  8  7  1  0  0  0  0
  9 10  1  0  0  0  0
  9  8  1  0  0  0  0
 10 11  1  0  0  0  0
 10 21  1  0  0  0  0
 11 23  1  0  0  0  0
 11 12  1  0  0  0  0
 12 24  1  1  0  0  0
 13  1  1  0  0  0  0
 16  8  1  0  0  0  0
 18  9  1  0  0  0  0
 19  9  1  0  0  0  0
 20 10  1  0  0  0  0
 22 11  1  0  0  0  0
 25 12  1  0  0  0  0
 25 27  1  0  0  0  0
 25 26  1  0  0  0  0
M  END
>  <minimizedAffinity>
-4.41015387

$$$$

 OpenBabel03242517213D

 27 28  0  0  1  0  0  0  0  0999 V2000
   36.9140   31.1030   38.5550 C   0  0  0  0  0  0  0  0  0  0  0  0
   37.3190   32.2310   39.2680 C   0  0  0  0  0  0  0  0  0  0  0  0
   37.7600   32.0840   40.5830 C   0  0  0  0  0  0  0  0  0  0  0  0
   37.7700   30.8220   41.1030 N   0  0  0  0  0  0  0  0  0  0  0  0
   37.3780   29.7470   40.4070 C   0  0  0  0  0  0  0  0  0  0  0  0
   36.9570   29.9100   39.1410 N   0  0  0  0  0  0  0  0  0  0  0  0
   37.4020   28.4320   40.9850 N   0  0  0  0  0  0  0  0  0  0  0  0
   37.1470   27.3190   40.1050 C   0  0  0  0  0  0  0  0  0  0  0  0
   36.9740   26.0130   40.7750 C   0  0  0  0  0  0  0  0  0  0  0  0
   37.8270   25.9490   42.0180 C   0  0  0  0  0  0  0  0  0  0  0  0
   37.2290   27.0000   42.9440 C   0  0  0  0  0  0  0  0  0  0  0  0
   37.6790   28.3350   42.4100 C   0  0  2  0  0  0  0  0  0  0  0  0
   36.5670   31.2050   37.5250 H   0  0  0  0  0  0  0  0  0  0  0  0
   37.2880   33.2180   38.7970 H   0  0  0  0  0  0  0  0  0  0  0  0
   38.0820   32.9310   41.1710 H   0  0  0  0  0  0  0  0  0  0  0  0
   36.1730   27.5580   39.6000 H   0  0  0  0  0  0  0  0  0  0  0  0
   37.8920   27.2220   39.3060 H   0  0  0  0  0  0  0  0  0  0  0  0
   35.8980   25.8910   41.0930 H   0  0  0  0  0  0  0  0  0  0  0  0
   37.1940   25.1770   40.1110 H   0  0  0  0  0  0  0  0  0  0  0  0
   37.9130   24.9590   42.4690 H   0  0  0  0  0  0  0  0  0  0  0  0
   38.8570   26.2790   41.7260 H   0  0  0  0  0  0  0  0  0  0  0  0
   36.1420   26.9530   42.9150 H   0  0  0  0  0  0  0  0  0  0  0  0
   37.6600   26.9030   43.9780 H   0  0  0  0  0  0  0  0  0  0  0  0
   38.7360   28.5310   42.5750 H   0  0  0  0  0  0  0  0  0  0  0  0
   36.8440   29.3440   43.0460 N   0  0  0  0  0  0  0  0  0  0  0  0
   37.0570   30.3090   42.7050 H   0  0  0  0  0  0  0  0  0  0  0  0
   36.9720   29.3090   44.0920 H   0  0  0  0  0  0  0  0  0  0  0  0
  1  6  2  0  0  0  0
  1  2  1  0  0  0  0
  2  3  2  0  0  0  0
  3  4  1  0  0  0  0
  3 15  1  0  0  0  0
  5  7  1  0  0  0  0
  5  4  2  0  0  0  0
  6  5  1  0  0  0  0
  7 12  1  0  0  0  0
  8  9  1  0  0  0  0
  8  7  1  0  0  0  0
  9 18  1  0  0  0  0
  9 10  1  0  0  0  0
 10 20  1  0  0  0  0
 10 11  1  0  0  0  0
 11 23  1  0  0  0  0
 12 24  1  1  0  0  0
 12 11  1  0  0  0  0
 12 25  1  0  0  0  0
 13  1  1  0  0  0  0
 14  2  1  0  0  0  0
 16  8  1  0  0  0  0
 17  8  1  0  0  0  0
 19  9  1  0  0  0  0
 21 10  1  0  0  0  0
 22 11  1  0  0  0  0
 25 27  1  0  0  0  0
 26 25  1  0  0  0  0
M  END
>  <minimizedAffinity>
-4.34737968

$$$$

 OpenBabel03242517213D

 27 28  0  0  1  0  0  0  0  0999 V2000
   40.1440   30.8760   40.1170 C   0  0  0  0  0  0  0  0  0  0  0  0
   40.6330   31.6280   41.1840 C   0  0  0  0  0  0  0  0  0  0  0  0
   40.3290   31.2400   42.4880 C   0  0  0  0  0  0  0  0  0  0  0  0
   39.5570   30.1250   42.6460 N   0  0  0  0  0  0  0  0  0  0  0  0
   39.0940   29.4110   41.6120 C   0  0  0  0  0  0  0  0  0  0  0  0
   39.3980   29.8020   40.3630 N   0  0  0  0  0  0  0  0  0  0  0  0
   38.2830   28.2410   41.8130 N   0  0  0  0  0  0  0  0  0  0  0  0
   37.9930   27.4320   40.6570 C   0  0  0  0  0  0  0  0  0  0  0  0
   36.9920   26.3660   40.8710 C   0  0  0  0  0  0  0  0  0  0  0  0
   37.0780   25.8460   42.2840 C   0  0  0  0  0  0  0  0  0  0  0  0
   36.6540   27.0250   43.1500 C   0  0  0  0  0  0  0  0  0  0  0  0
   37.8250   27.9740   43.1680 C   0  0  2  0  0  0  0  0  0  0  0  0
   40.3740   31.1700   39.0910 H   0  0  0  0  0  0  0  0  0  0  0  0
   41.2470   32.5140   40.9940 H   0  0  0  0  0  0  0  0  0  0  0  0
   40.6880   31.7940   43.3430 H   0  0  0  0  0  0  0  0  0  0  0  0
   37.5580   28.1410   39.9020 H   0  0  0  0  0  0  0  0  0  0  0  0
   38.8890   27.0020   40.1950 H   0  0  0  0  0  0  0  0  0  0  0  0
   35.9540   26.7860   40.7250 H   0  0  0  0  0  0  0  0  0  0  0  0
   37.0960   25.5530   40.1520 H   0  0  0  0  0  0  0  0  0  0  0  0
   36.5150   24.9310   42.4760 H   0  0  0  0  0  0  0  0  0  0  0  0
   38.1580   25.6280   42.4870 H   0  0  0  0  0  0  0  0  0  0  0  0
   35.7950   27.5280   42.7080 H   0  0  0  0  0  0  0  0  0  0  0  0
   36.4900   26.6940   44.2110 H   0  0  0  0  0  0  0  0  0  0  0  0
   38.6640   27.6120   43.7580 H   0  0  0  0  0  0  0  0  0  0  0  0
   37.3250   29.2440   43.6760 N   0  0  0  0  0  0  0  0  0  0  0  0
   38.0630   29.9860   43.6880 H   0  0  0  0  0  0  0  0  0  0  0  0
   36.9450   29.1180   44.6510 H   0  0  0  0  0  0  0  0  0  0  0  0
  1  6  2  0  0  0  0
  1  2  1  0  0  0  0
  2  3  2  0  0  0  0
  3  4  1  0  0  0  0
  3 15  1  0  0  0  0
  5  7  1  0  0  0  0
  5  4  2  0  0  0  0
  6  5  1  0  0  0  0
  7 12  1  0  0  0  0
  8  9  1  0  0  0  0
  8  7  1  0  0  0  0
  9 10  1  0  0  0  0
 10 20  1  0  0  0  0
 10 21  1  0  0  0  0
 10 11  1  0  0  0  0
 11 12  1  0  0  0  0
 11 23  1  0  0  0  0
 12 25  1  0  0  0  0
 12 24  1  1  0  0  0
 13  1  1  0  0  0  0
 14  2  1  0  0  0  0
 16  8  1  0  0  0  0
 17  8  1  0  0  0  0
 18  9  1  0  0  0  0
 19  9  1  0  0  0  0
 22 11  1  0  0  0  0
 25 26  1  0  0  0  0
 25 27  1  0  0  0  0
M  END
>  <minimizedAffinity>
-4.2602129

$$$$

 OpenBabel03242517213D

 27 28  0  0  1  0  0  0  0  0999 V2000
   36.4670   28.5230   37.6140 C   0  0  0  0  0  0  0  0  0  0  0  0
   36.5120   29.8980   37.3870 C   0  0  0  0  0  0  0  0  0  0  0  0
   36.8580   30.7510   38.4350 C   0  0  0  0  0  0  0  0  0  0  0  0
   37.1400   30.1790   39.6420 N   0  0  0  0  0  0  0  0  0  0  0  0
   37.0940   28.8560   39.8470 C   0  0  0  0  0  0  0  0  0  0  0  0
   36.7580   28.0520   38.8240 N   0  0  0  0  0  0  0  0  0  0  0  0
   37.3970   28.2860   41.1300 N   0  0  0  0  0  0  0  0  0  0  0  0
   37.5090   26.8510   41.2060 C   0  0  0  0  0  0  0  0  0  0  0  0
   37.6110   26.3000   42.5730 C   0  0  0  0  0  0  0  0  0  0  0  0
   38.3410   27.2680   43.4720 C   0  0  0  0  0  0  0  0  0  0  0  0
   37.4190   28.4770   43.5560 C   0  0  0  0  0  0  0  0  0  0  0  0
   37.5640   29.2070   42.2450 C   0  0  2  0  0  0  0  0  0  0  0  0
   36.1970   27.8450   36.8030 H   0  0  0  0  0  0  0  0  0  0  0  0
   36.2750   30.2980   36.3970 H   0  0  0  0  0  0  0  0  0  0  0  0
   36.9050   31.8230   38.3020 H   0  0  0  0  0  0  0  0  0  0  0  0
   36.5530   26.4570   40.7660 H   0  0  0  0  0  0  0  0  0  0  0  0
   38.3200   26.4490   40.5890 H   0  0  0  0  0  0  0  0  0  0  0  0
   36.5770   26.1510   43.0000 H   0  0  0  0  0  0  0  0  0  0  0  0
   38.0910   25.3210   42.5880 H   0  0  0  0  0  0  0  0  0  0  0  0
   38.6330   26.8660   44.4430 H   0  0  0  0  0  0  0  0  0  0  0  0
   39.2760   27.5720   42.9350 H   0  0  0  0  0  0  0  0  0  0  0  0
   36.3850   28.1560   43.6720 H   0  0  0  0  0  0  0  0  0  0  0  0
   37.7680   29.1820   44.3580 H   0  0  0  0  0  0  0  0  0  0  0  0
   38.5190   29.7160   42.1390 H   0  0  0  0  0  0  0  0  0  0  0  0
   36.4490   30.1400   42.1600 N   0  0  0  0  0  0  0  0  0  0  0  0
   36.4410   30.6680   41.2570 H   0  0  0  0  0  0  0  0  0  0  0  0
   36.4890   30.8220   42.9620 H   0  0  0  0  0  0  0  0  0  0  0  0
  1  6  1  0  0  0  0
  2  1  2  0  0  0  0
  2  3  1  0  0  0  0
  3  4  2  0  0  0  0
  4  5  1  0  0  0  0
  5  7  1  0  0  0  0
  6  5  2  0  0  0  0
  7  8  1  0  0  0  0
  7 12  1  0  0  0  0
  8  9  1  0  0  0  0
  9 19  1  0  0  0  0
  9 18  1  0  0  0  0
  9 10  1  0  0  0  0
 10 11  1  0  0  0  0
 10 20  1  0  0  0  0
 11 22  1  0  0  0  0
 11 23  1  0  0  0  0
 12 24  1  6  0  0  0
 12 11  1  0  0  0  0
 13  1  1  0  0  0  0
 14  2  1  0  0  0  0
 15  3  1  0  0  0  0
 16  8  1  0  0  0  0
 17  8  1  0  0  0  0
 21 10  1  0  0  0  0
 25 12  1  0  0  0  0
 25 27  1  0  0  0  0
 26 25  1  0  0  0  0
M  END
>  <minimizedAffinity>
-4.25258827

$$$$

 OpenBabel03242517213D

 27 28  0  0  1  0  0  0  0  0999 V2000
   38.4030   31.1620   38.3140 C   0  0  0  0  0  0  0  0  0  0  0  0
   37.6570   32.2740   38.7050 C   0  0  0  0  0  0  0  0  0  0  0  0
   37.2590   32.3950   40.0360 C   0  0  0  0  0  0  0  0  0  0  0  0
   37.6320   31.4000   40.8940 N   0  0  0  0  0  0  0  0  0  0  0  0
   38.3490   30.3370   40.5060 C   0  0  0  0  0  0  0  0  0  0  0  0
   38.7220   30.2400   39.2190 N   0  0  0  0  0  0  0  0  0  0  0  0
   38.7250   29.3080   41.4350 N   0  0  0  0  0  0  0  0  0  0  0  0
   39.6530   28.3070   40.9730 C   0  0  0  0  0  0  0  0  0  0  0  0
   39.8480   27.1600   41.8840 C   0  0  0  0  0  0  0  0  0  0  0  0
   39.7080   27.6050   43.3180 C   0  0  0  0  0  0  0  0  0  0  0  0
   38.2490   28.0240   43.4460 C   0  0  0  0  0  0  0  0  0  0  0  0
   38.1360   29.3630   42.7640 C   0  0  2  0  0  0  0  0  0  0  0  0
   38.7190   31.0560   37.2760 H   0  0  0  0  0  0  0  0  0  0  0  0
   37.3880   33.0390   37.9710 H   0  0  0  0  0  0  0  0  0  0  0  0
   36.6810   33.2400   40.3810 H   0  0  0  0  0  0  0  0  0  0  0  0
   39.2020   27.9010   40.0270 H   0  0  0  0  0  0  0  0  0  0  0  0
   40.6300   28.7210   40.6950 H   0  0  0  0  0  0  0  0  0  0  0  0
   39.0520   26.3830   41.6880 H   0  0  0  0  0  0  0  0  0  0  0  0
   40.8050   26.6650   41.7240 H   0  0  0  0  0  0  0  0  0  0  0  0
   40.0240   26.8730   44.0630 H   0  0  0  0  0  0  0  0  0  0  0  0
   40.3490   28.5150   43.4440 H   0  0  0  0  0  0  0  0  0  0  0  0
   37.6050   27.3090   42.9360 H   0  0  0  0  0  0  0  0  0  0  0  0
   37.9800   28.1860   44.5250 H   0  0  0  0  0  0  0  0  0  0  0  0
   38.6030   30.1710   43.3230 H   0  0  0  0  0  0  0  0  0  0  0  0
   36.7150   29.6100   42.5590 N   0  0  0  0  0  0  0  0  0  0  0  0
   36.5370   30.5060   42.0510 H   0  0  0  0  0  0  0  0  0  0  0  0
   36.2160   29.6310   43.4870 H   0  0  0  0  0  0  0  0  0  0  0  0
  1  2  2  0  0  0  0
  1  6  1  0  0  0  0
  2  3  1  0  0  0  0
  3 15  1  0  0  0  0
  3  4  2  0  0  0  0
  5  4  1  0  0  0  0
  5  7  1  0  0  0  0
  6  5  2  0  0  0  0
  7 12  1  0  0  0  0
  8  7  1  0  0  0  0
  8  9  1  0  0  0  0
  9 10  1  0  0  0  0
 10 21  1  0  0  0  0
 10 11  1  0  0  0  0
 10 20  1  0  0  0  0
 11 23  1  0  0  0  0
 12 24  1  1  0  0  0
 12 11  1  0  0  0  0
 13  1  1  0  0  0  0
 14  2  1  0  0  0  0
 16  8  1  0  0  0  0
 17  8  1  0  0  0  0
 18  9  1  0  0  0  0
 19  9  1  0  0  0  0
 22 11  1  0  0  0  0
 25 12  1  0  0  0  0
 25 27  1  0  0  0  0
 26 25  1  0  0  0  0
M  END
>  <minimizedAffinity>
-4.16289377

$$$$

 OpenBabel03242517213D

 27 28  0  0  1  0  0  0  0  0999 V2000
   38.2960   31.6910   38.9960 C   0  0  0  0  0  0  0  0  0  0  0  0
   37.5400   31.4140   37.8580 C   0  0  0  0  0  0  0  0  0  0  0  0
   36.6860   30.3120   37.8600 C   0  0  0  0  0  0  0  0  0  0  0  0
   36.6380   29.5560   38.9960 N   0  0  0  0  0  0  0  0  0  0  0  0
   37.3700   29.8350   40.0830 C   0  0  0  0  0  0  0  0  0  0  0  0
   38.1880   30.9010   40.0610 N   0  0  0  0  0  0  0  0  0  0  0  0
   37.2970   29.0190   41.2630 N   0  0  0  0  0  0  0  0  0  0  0  0
   37.9700   29.5020   42.4430 C   0  0  0  0  0  0  0  0  0  0  0  0
   38.0450   28.5400   43.5620 C   0  0  0  0  0  0  0  0  0  0  0  0
   36.8240   27.6550   43.5710 C   0  0  0  0  0  0  0  0  0  0  0  0
   36.9340   26.8420   42.2880 C   0  0  0  0  0  0  0  0  0  0  0  0
   36.5500   27.7740   41.1670 C   0  0  2  0  0  0  0  0  0  0  0  0
   38.9690   32.5510   39.0080 H   0  0  0  0  0  0  0  0  0  0  0  0
   37.6210   32.0560   36.9760 H   0  0  0  0  0  0  0  0  0  0  0  0
   36.0820   30.0610   36.9990 H   0  0  0  0  0  0  0  0  0  0  0  0
   39.0260   29.7070   42.1170 H   0  0  0  0  0  0  0  0  0  0  0  0
   37.5700   30.4550   42.8080 H   0  0  0  0  0  0  0  0  0  0  0  0
   38.9480   27.8750   43.4290 H   0  0  0  0  0  0  0  0  0  0  0  0
   38.1710   29.0370   44.5240 H   0  0  0  0  0  0  0  0  0  0  0  0
   36.6990   27.0470   44.4690 H   0  0  0  0  0  0  0  0  0  0  0  0
   35.9320   28.3260   43.4900 H   0  0  0  0  0  0  0  0  0  0  0  0
   37.9600   26.5100   42.1380 H   0  0  0  0  0  0  0  0  0  0  0  0
   36.1820   26.0070   42.2860 H   0  0  0  0  0  0  0  0  0  0  0  0
   35.4870   28.0040   41.1440 H   0  0  0  0  0  0  0  0  0  0  0  0
   36.9870   27.1430   39.9300 N   0  0  0  0  0  0  0  0  0  0  0  0
   36.7980   27.7400   39.0910 H   0  0  0  0  0  0  0  0  0  0  0  0
   36.5050   26.2130   39.8100 H   0  0  0  0  0  0  0  0  0  0  0  0
  1 13  1  0  0  0  0
  1  6  1  0  0  0  0
  2  3  1  0  0  0  0
  2  1  2  0  0  0  0
  3  4  2  0  0  0  0
  4  5  1  0  0  0  0
  5  7  1  0  0  0  0
  6  5  2  0  0  0  0
  7  8  1  0  0  0  0
  8 17  1  0  0  0  0
  8  9  1  0  0  0  0
  9 10  1  0  0  0  0
  9 19  1  0  0  0  0
 10 20  1  0  0  0  0
 11 10  1  0  0  0  0
 12 24  1  6  0  0  0
 12  7  1  0  0  0  0
 12 11  1  0  0  0  0
 14  2  1  0  0  0  0
 15  3  1  0  0  0  0
 16  8  1  0  0  0  0
 18  9  1  0  0  0  0
 21 10  1  0  0  0  0
 22 11  1  0  0  0  0
 23 11  1  0  0  0  0
 25 12  1  0  0  0  0
 26 25  1  0  0  0  0
 27 25  1  0  0  0  0
M  END
>  <minimizedAffinity>
-4.13980389

$$$$
