
 OpenBabel03252508193D

 41 44  0  0  1  0  0  0  0  0999 V2000
   35.9320   27.4150   37.8120 C   0  0  0  0  0  3  0  0  0  0  0  0
   36.5410   28.4590   38.1900 C   0  0  0  0  0  3  0  0  0  0  0  0
   35.5950   23.9830   39.1130 C   0  0  0  0  0  0  0  0  0  0  0  0
   36.4610   23.9720   40.1970 C   0  0  0  0  0  0  0  0  0  0  0  0
   37.1220   25.1260   40.4450 C   0  0  0  0  0  0  0  0  0  0  0  0
   36.9310   26.2250   39.6570 N   0  0  0  0  0  0  0  0  0  0  0  0
   36.0800   26.1970   38.6110 C   0  0  0  0  0  0  0  0  0  0  0  0
   35.4340   25.0710   38.3670 N   0  0  0  0  0  0  0  0  0  0  0  0
   35.0400   23.0850   38.8670 H   0  0  0  0  0  0  0  0  0  0  0  0
   36.5980   23.0920   40.8070 H   0  0  0  0  0  0  0  0  0  0  0  0
   38.0670   25.2690   41.5510 C   0  0  0  0  0  0  0  0  0  0  0  0
   38.1870   26.3850   42.3370 C   0  0  0  0  0  0  0  0  0  0  0  0
   39.0800   26.5090   43.3790 C   0  0  0  0  0  0  0  0  0  0  0  0
   39.9280   25.4580   43.6800 C   0  0  0  0  0  0  0  0  0  0  0  0
   39.8550   24.3150   42.9290 C   0  0  0  0  0  0  0  0  0  0  0  0
   38.9360   24.2490   41.8940 C   0  0  0  0  0  0  0  0  0  0  0  0
   37.5250   27.2330   42.1170 H   0  0  0  0  0  0  0  0  0  0  0  0
   39.0810   27.4510   43.9330 H   0  0  0  0  0  0  0  0  0  0  0  0
   40.6120   25.6030   44.5070 H   0  0  0  0  0  0  0  0  0  0  0  0
   40.5160   23.5080   43.1710 H   0  0  0  0  0  0  0  0  0  0  0  0
   38.9390   23.3150   41.3480 H   0  0  0  0  0  0  0  0  0  0  0  0
   36.3120   29.6970   37.3520 C   0  0  0  0  0  0  0  0  0  0  0  0
   35.4860   30.1910   37.8440 H   0  0  0  0  0  0  0  0  0  0  0  0
   36.0140   29.3350   36.3440 H   0  0  0  0  0  0  0  0  0  0  0  0
   37.5870   30.4660   37.2020 C   0  0  1  0  0  0  0  0  0  0  0  0
   37.4320   31.8290   36.6130 C   0  0  0  0  0  0  0  0  0  0  0  0
   37.8120   31.6770   38.0140 C   0  0  1  0  0  0  0  0  0  0  0  0
   38.4090   29.9250   36.6520 H   0  0  0  0  0  0  0  0  0  0  0  0
   36.4040   32.2150   36.4120 H   0  0  0  0  0  0  0  0  0  0  0  0
   38.1670   32.2700   35.9200 H   0  0  0  0  0  0  0  0  0  0  0  0
   38.8710   31.8910   38.2730 H   0  0  0  0  0  0  0  0  0  0  0  0
   36.8520   31.9720   39.1230 C   0  0  2  0  0  0  0  0  0  0  0  0
   37.5250   32.6580   40.3400 C   0  0  0  0  0  0  0  0  0  0  0  0
   37.0710   31.2630   40.4570 C   0  0  1  0  0  0  0  0  0  0  0  0
   35.8780   32.4580   38.9160 H   0  0  0  0  0  0  0  0  0  0  0  0
   37.0110   33.4450   40.8810 H   0  0  0  0  0  0  0  0  0  0  0  0
   38.6230   32.7920   40.3220 H   0  0  0  0  0  0  0  0  0  0  0  0
   37.7670   30.4020   40.4500 H   0  0  0  0  0  0  0  0  0  0  0  0
   35.8600   31.0750   41.2680 N   0  0  0  0  0  0  0  0  0  0  0  0
   35.1310   31.7730   40.9890 H   0  0  0  0  0  0  0  0  0  0  0  0
   36.1430   31.3330   42.2480 H   0  0  0  0  0  0  0  0  0  0  0  0
  1  2  2  0  0  0  0
  1  7  1  0  0  0  0
  3  4  1  0  0  0  0
  4  5  2  0  0  0  0
  4 10  1  0  0  0  0
  5 11  1  0  0  0  0
  6  5  1  0  0  0  0
  7  6  2  0  0  0  0
  8  7  1  0  0  0  0
  8  3  2  0  0  0  0
  9  3  1  0  0  0  0
 11 16  2  0  0  0  0
 11 12  1  0  0  0  0
 12 13  2  0  0  0  0
 13 14  1  0  0  0  0
 13 18  1  0  0  0  0
 14 19  1  0  0  0  0
 15 20  1  0  0  0  0
 15 14  2  0  0  0  0
 16 15  1  0  0  0  0
 17 12  1  0  0  0  0
 21 16  1  0  0  0  0
 22 23  1  0  0  0  0
 22  2  1  0  0  0  0
 24 22  1  0  0  0  0
 25 28  1  6  0  0  0
 25 22  1  0  0  0  0
 25 27  1  0  0  0  0
 26 25  1  0  0  0  0
 26 27  1  0  0  0  0
 27 31  1  1  0  0  0
 27 32  1  0  0  0  0
 29 26  1  0  0  0  0
 30 26  1  0  0  0  0
 32 35  1  6  0  0  0
 32 33  1  0  0  0  0
 32 34  1  0  0  0  0
 33 34  1  0  0  0  0
 33 36  1  0  0  0  0
 34 38  1  1  0  0  0
 34 39  1  0  0  0  0
 37 33  1  0  0  0  0
 39 41  1  0  0  0  0
 40 39  1  0  0  0  0
M  END
>  <minimizedAffinity>
-5.60754108

$$$$

 OpenBabel03252508193D

 41 44  0  0  1  0  0  0  0  0999 V2000
   34.3620   28.8930   39.1980 C   0  0  0  0  0  3  0  0  0  0  0  0
   34.6530   28.2580   38.1420 C   0  0  0  0  0  3  0  0  0  0  0  0
   36.7420   30.6180   41.4220 C   0  0  0  0  0  0  0  0  0  0  0  0
   37.4740   29.5730   41.9690 C   0  0  0  0  0  0  0  0  0  0  0  0
   37.1340   28.3290   41.5620 C   0  0  0  0  0  0  0  0  0  0  0  0
   36.1230   28.1390   40.6640 N   0  0  0  0  0  0  0  0  0  0  0  0
   35.4340   29.1800   40.1530 C   0  0  0  0  0  0  0  0  0  0  0  0
   35.7640   30.3960   40.5500 N   0  0  0  0  0  0  0  0  0  0  0  0
   36.9710   31.6370   41.7120 H   0  0  0  0  0  0  0  0  0  0  0  0
   38.2690   29.7470   42.6780 H   0  0  0  0  0  0  0  0  0  0  0  0
   37.8120   27.1300   42.0490 C   0  0  0  0  0  0  0  0  0  0  0  0
   37.4720   25.8470   41.7100 C   0  0  0  0  0  0  0  0  0  0  0  0
   38.1200   24.7220   42.1740 C   0  0  0  0  0  0  0  0  0  0  0  0
   39.1880   24.8600   43.0410 C   0  0  0  0  0  0  0  0  0  0  0  0
   39.5760   26.1180   43.4180 C   0  0  0  0  0  0  0  0  0  0  0  0
   38.8860   27.2110   42.9180 C   0  0  0  0  0  0  0  0  0  0  0  0
   36.6260   25.7130   41.0220 H   0  0  0  0  0  0  0  0  0  0  0  0
   37.7530   23.7520   41.8300 H   0  0  0  0  0  0  0  0  0  0  0  0
   39.6650   23.9470   43.3780 H   0  0  0  0  0  0  0  0  0  0  0  0
   40.4040   26.2130   44.0900 H   0  0  0  0  0  0  0  0  0  0  0  0
   39.2510   28.1700   43.2610 H   0  0  0  0  0  0  0  0  0  0  0  0
   33.5150   28.0350   37.1710 C   0  0  0  0  0  0  0  0  0  0  0  0
   32.6770   27.7920   37.8090 H   0  0  0  0  0  0  0  0  0  0  0  0
   33.8080   27.1600   36.5500 H   0  0  0  0  0  0  0  0  0  0  0  0
   33.3700   29.2130   36.2590 C   0  0  1  0  0  0  0  0  0  0  0  0
   32.5140   28.9750   35.0590 C   0  0  0  0  0  0  0  0  0  0  0  0
   32.0580   29.8720   36.1170 C   0  0  1  0  0  0  0  0  0  0  0  0
   34.3400   29.6810   35.9260 H   0  0  0  0  0  0  0  0  0  0  0  0
   31.9800   28.0000   34.9630 H   0  0  0  0  0  0  0  0  0  0  0  0
   32.7360   29.4100   34.0700 H   0  0  0  0  0  0  0  0  0  0  0  0
   32.0880   30.9610   35.9000 H   0  0  0  0  0  0  0  0  0  0  0  0
   30.9640   29.4790   37.0590 C   0  0  2  0  0  0  0  0  0  0  0  0
   29.8050   30.5070   37.1030 C   0  0  0  0  0  0  0  0  0  0  0  0
   30.7050   30.3830   38.2610 C   0  0  1  0  0  0  0  0  0  0  0  0
   30.5480   28.4520   37.0480 H   0  0  0  0  0  0  0  0  0  0  0  0
   28.7760   30.1720   37.1760 H   0  0  0  0  0  0  0  0  0  0  0  0
   29.9150   31.4430   36.5240 H   0  0  0  0  0  0  0  0  0  0  0  0
   31.4880   31.1290   38.4950 H   0  0  0  0  0  0  0  0  0  0  0  0
   30.1180   29.7120   39.4290 N   0  0  0  0  0  0  0  0  0  0  0  0
   29.6310   28.8350   39.1310 H   0  0  0  0  0  0  0  0  0  0  0  0
   29.3600   30.3610   39.7660 H   0  0  0  0  0  0  0  0  0  0  0  0
  1  7  1  0  0  0  0
  2  1  2  0  0  0  0
  3  9  1  0  0  0  0
  3  4  1  0  0  0  0
  4 10  1  0  0  0  0
  5  4  2  0  0  0  0
  5 11  1  0  0  0  0
  6  5  1  0  0  0  0
  7  8  1  0  0  0  0
  7  6  2  0  0  0  0
  8  3  2  0  0  0  0
 11 16  1  0  0  0  0
 12 11  2  0  0  0  0
 12 13  1  0  0  0  0
 13 14  2  0  0  0  0
 14 19  1  0  0  0  0
 14 15  1  0  0  0  0
 15 20  1  0  0  0  0
 16 21  1  0  0  0  0
 16 15  2  0  0  0  0
 17 12  1  0  0  0  0
 18 13  1  0  0  0  0
 22 23  1  0  0  0  0
 22  2  1  0  0  0  0
 24 22  1  0  0  0  0
 25 28  1  6  0  0  0
 25 22  1  0  0  0  0
 26 27  1  0  0  0  0
 26 25  1  0  0  0  0
 27 31  1  6  0  0  0
 27 25  1  0  0  0  0
 27 32  1  0  0  0  0
 29 26  1  0  0  0  0
 30 26  1  0  0  0  0
 32 35  1  1  0  0  0
 32 33  1  0  0  0  0
 32 34  1  0  0  0  0
 33 36  1  0  0  0  0
 33 34  1  0  0  0  0
 34 38  1  1  0  0  0
 34 39  1  0  0  0  0
 37 33  1  0  0  0  0
 39 41  1  0  0  0  0
 40 39  1  0  0  0  0
M  END
>  <minimizedAffinity>
-5.5586462

$$$$

 OpenBabel03252508193D

 41 44  0  0  1  0  0  0  0  0999 V2000
   37.6340   29.6050   42.1870 C   0  0  0  0  0  3  0  0  0  0  0  0
   37.1680   29.8120   41.0280 C   0  0  0  0  0  3  0  0  0  0  0  0
   39.5580   26.8360   43.6770 C   0  0  0  0  0  0  0  0  0  0  0  0
   39.1320   25.7330   42.9520 C   0  0  0  0  0  0  0  0  0  0  0  0
   38.2140   25.9690   41.9880 C   0  0  0  0  0  0  0  0  0  0  0  0
   37.7470   27.2330   41.7610 N   0  0  0  0  0  0  0  0  0  0  0  0
   38.1850   28.2820   42.4880 C   0  0  0  0  0  0  0  0  0  0  0  0
   39.0820   28.0520   43.4310 N   0  0  0  0  0  0  0  0  0  0  0  0
   40.2920   26.7050   44.4630 H   0  0  0  0  0  0  0  0  0  0  0  0
   39.5140   24.7420   43.1480 H   0  0  0  0  0  0  0  0  0  0  0  0
   37.6710   24.9090   41.1410 C   0  0  0  0  0  0  0  0  0  0  0  0
   36.6370   25.0680   40.2570 C   0  0  0  0  0  0  0  0  0  0  0  0
   36.1330   24.0610   39.4620 C   0  0  0  0  0  0  0  0  0  0  0  0
   36.6830   22.7940   39.5360 C   0  0  0  0  0  0  0  0  0  0  0  0
   37.7200   22.5730   40.4020 C   0  0  0  0  0  0  0  0  0  0  0  0
   38.1850   23.6250   41.1750 C   0  0  0  0  0  0  0  0  0  0  0  0
   36.1830   26.0650   40.1810 H   0  0  0  0  0  0  0  0  0  0  0  0
   35.3040   24.3120   38.7950 H   0  0  0  0  0  0  0  0  0  0  0  0
   36.2530   22.0360   38.8910 H   0  0  0  0  0  0  0  0  0  0  0  0
   38.1380   21.5890   40.4500 H   0  0  0  0  0  0  0  0  0  0  0  0
   39.0050   23.3720   41.8340 H   0  0  0  0  0  0  0  0  0  0  0  0
   36.6570   31.2100   40.7620 C   0  0  0  0  0  0  0  0  0  0  0  0
   36.8910   31.7470   41.6710 H   0  0  0  0  0  0  0  0  0  0  0  0
   35.5570   31.1160   40.6300 H   0  0  0  0  0  0  0  0  0  0  0  0
   37.2270   31.7370   39.4820 C   0  0  1  0  0  0  0  0  0  0  0  0
   37.0880   33.2120   39.2940 C   0  0  0  0  0  0  0  0  0  0  0  0
   38.4060   32.6240   39.5150 C   0  0  1  0  0  0  0  0  0  0  0  0
   36.8670   31.2170   38.5490 H   0  0  0  0  0  0  0  0  0  0  0  0
   36.6660   33.8230   40.1260 H   0  0  0  0  0  0  0  0  0  0  0  0
   36.8840   33.6740   38.3140 H   0  0  0  0  0  0  0  0  0  0  0  0
   39.0810   32.5580   38.6360 H   0  0  0  0  0  0  0  0  0  0  0  0
   39.1290   32.7890   40.8150 C   0  0  2  0  0  0  0  0  0  0  0  0
   40.5960   33.2570   40.6360 C   0  0  0  0  0  0  0  0  0  0  0  0
   40.3270   31.8800   41.0800 C   0  0  1  0  0  0  0  0  0  0  0  0
   38.6650   33.3400   41.6560 H   0  0  0  0  0  0  0  0  0  0  0  0
   41.0310   33.9750   41.3220 H   0  0  0  0  0  0  0  0  0  0  0  0
   40.9930   33.3470   39.6070 H   0  0  0  0  0  0  0  0  0  0  0  0
   40.4360   31.0030   40.4150 H   0  0  0  0  0  0  0  0  0  0  0  0
   40.6100   31.6230   42.4990 N   0  0  0  0  0  0  0  0  0  0  0  0
   40.2000   32.3840   43.0890 H   0  0  0  0  0  0  0  0  0  0  0  0
   41.6550   31.7200   42.5910 H   0  0  0  0  0  0  0  0  0  0  0  0
  1  7  1  0  0  0  0
  2  1  2  0  0  0  0
  3  9  1  0  0  0  0
  4 10  1  0  0  0  0
  4  3  2  0  0  0  0
  5  4  1  0  0  0  0
  6  5  2  0  0  0  0
  6  7  1  0  0  0  0
  7  8  2  0  0  0  0
  8  3  1  0  0  0  0
 11 16  1  0  0  0  0
 11  5  1  0  0  0  0
 12 11  2  0  0  0  0
 13 14  2  0  0  0  0
 13 12  1  0  0  0  0
 14 15  1  0  0  0  0
 15 20  1  0  0  0  0
 15 16  2  0  0  0  0
 16 21  1  0  0  0  0
 17 12  1  0  0  0  0
 18 13  1  0  0  0  0
 19 14  1  0  0  0  0
 22  2  1  0  0  0  0
 22 23  1  0  0  0  0
 24 22  1  0  0  0  0
 25 28  1  6  0  0  0
 25 27  1  0  0  0  0
 25 22  1  0  0  0  0
 26 25  1  0  0  0  0
 26 27  1  0  0  0  0
 26 29  1  0  0  0  0
 27 31  1  6  0  0  0
 27 32  1  0  0  0  0
 30 26  1  0  0  0  0
 32 34  1  0  0  0  0
 32 35  1  1  0  0  0
 33 32  1  0  0  0  0
 33 34  1  0  0  0  0
 33 36  1  0  0  0  0
 34 38  1  6  0  0  0
 34 39  1  0  0  0  0
 37 33  1  0  0  0  0
 39 41  1  0  0  0  0
 39 40  1  0  0  0  0
M  END
>  <minimizedAffinity>
-5.52744675

$$$$

 OpenBabel03252508193D

 41 44  0  0  1  0  0  0  0  0999 V2000
   38.2910   30.2030   41.8010 C   0  0  0  0  0  3  0  0  0  0  0  0
   39.2330   30.7250   41.1350 C   0  0  0  0  0  3  0  0  0  0  0  0
   39.1830   27.0760   43.5370 C   0  0  0  0  0  0  0  0  0  0  0  0
   38.5370   26.1040   42.7840 C   0  0  0  0  0  0  0  0  0  0  0  0
   37.8290   26.5460   41.7200 C   0  0  0  0  0  0  0  0  0  0  0  0
   37.7670   27.8780   41.4250 N   0  0  0  0  0  0  0  0  0  0  0  0
   38.4090   28.7930   42.1800 C   0  0  0  0  0  0  0  0  0  0  0  0
   39.1010   28.3640   43.2210 N   0  0  0  0  0  0  0  0  0  0  0  0
   39.7640   26.7790   44.4020 H   0  0  0  0  0  0  0  0  0  0  0  0
   38.5990   25.0560   43.0360 H   0  0  0  0  0  0  0  0  0  0  0  0
   37.0970   25.6440   40.8340 C   0  0  0  0  0  0  0  0  0  0  0  0
   36.7100   24.3710   41.1610 C   0  0  0  0  0  0  0  0  0  0  0  0
   36.0170   23.5280   40.3180 C   0  0  0  0  0  0  0  0  0  0  0  0
   35.6750   23.9630   39.0500 C   0  0  0  0  0  0  0  0  0  0  0  0
   36.0350   25.2260   38.6650 C   0  0  0  0  0  0  0  0  0  0  0  0
   36.7300   26.0280   39.5560 C   0  0  0  0  0  0  0  0  0  0  0  0
   36.9710   24.0040   42.1620 H   0  0  0  0  0  0  0  0  0  0  0  0
   35.7660   22.5340   40.6950 H   0  0  0  0  0  0  0  0  0  0  0  0
   35.1320   23.2650   38.4240 H   0  0  0  0  0  0  0  0  0  0  0  0
   35.7650   25.5520   37.6810 H   0  0  0  0  0  0  0  0  0  0  0  0
   36.9780   27.0110   39.1800 H   0  0  0  0  0  0  0  0  0  0  0  0
   39.0770   32.1950   40.8140 C   0  0  0  0  0  0  0  0  0  0  0  0
   39.8320   32.3760   40.0620 H   0  0  0  0  0  0  0  0  0  0  0  0
   39.3140   32.7410   41.7530 H   0  0  0  0  0  0  0  0  0  0  0  0
   37.6570   32.5010   40.4540 C   0  0  1  0  0  0  0  0  0  0  0  0
   37.4660   33.7550   39.6670 C   0  0  0  0  0  0  0  0  0  0  0  0
   37.2330   32.4570   39.0420 C   0  0  1  0  0  0  0  0  0  0  0  0
   36.9350   32.5030   41.3200 H   0  0  0  0  0  0  0  0  0  0  0  0
   38.3660   34.3210   39.3280 H   0  0  0  0  0  0  0  0  0  0  0  0
   36.6020   34.4260   39.8080 H   0  0  0  0  0  0  0  0  0  0  0  0
   36.1760   32.1660   38.8660 H   0  0  0  0  0  0  0  0  0  0  0  0
   38.1850   31.8900   38.0360 C   0  0  2  0  0  0  0  0  0  0  0  0
   37.4780   31.3740   36.7570 C   0  0  0  0  0  0  0  0  0  0  0  0
   38.0600   30.4060   37.7000 C   0  0  1  0  0  0  0  0  0  0  0  0
   39.1060   32.4380   37.7540 H   0  0  0  0  0  0  0  0  0  0  0  0
   37.9290   31.5220   35.7820 H   0  0  0  0  0  0  0  0  0  0  0  0
   36.3720   31.3910   36.7290 H   0  0  0  0  0  0  0  0  0  0  0  0
   37.4470   29.7950   38.3890 H   0  0  0  0  0  0  0  0  0  0  0  0
   39.3010   29.7660   37.2400 N   0  0  0  0  0  0  0  0  0  0  0  0
   39.9560   30.4890   36.8600 H   0  0  0  0  0  0  0  0  0  0  0  0
   39.0150   29.1760   36.4160 H   0  0  0  0  0  0  0  0  0  0  0  0
  1  7  1  0  0  0  0
  2  1  2  0  0  0  0
  3  9  1  0  0  0  0
  4 10  1  0  0  0  0
  4  3  2  0  0  0  0
  5  4  1  0  0  0  0
  6  5  2  0  0  0  0
  6  7  1  0  0  0  0
  7  8  2  0  0  0  0
  8  3  1  0  0  0  0
 11 12  1  0  0  0  0
 11  5  1  0  0  0  0
 12 17  1  0  0  0  0
 13 18  1  0  0  0  0
 13 12  2  0  0  0  0
 14 13  1  0  0  0  0
 15 14  2  0  0  0  0
 15 16  1  0  0  0  0
 16 11  2  0  0  0  0
 19 14  1  0  0  0  0
 20 15  1  0  0  0  0
 21 16  1  0  0  0  0
 22  2  1  0  0  0  0
 22 24  1  0  0  0  0
 23 22  1  0  0  0  0
 25 22  1  0  0  0  0
 25 28  1  1  0  0  0
 26 30  1  0  0  0  0
 26 25  1  0  0  0  0
 27 31  1  6  0  0  0
 27 26  1  0  0  0  0
 27 25  1  0  0  0  0
 29 26  1  0  0  0  0
 32 35  1  6  0  0  0
 32 27  1  0  0  0  0
 33 34  1  0  0  0  0
 33 32  1  0  0  0  0
 34 32  1  0  0  0  0
 34 38  1  1  0  0  0
 36 33  1  0  0  0  0
 37 33  1  0  0  0  0
 39 34  1  0  0  0  0
 40 39  1  0  0  0  0
 41 39  1  0  0  0  0
M  END
>  <minimizedAffinity>
-5.4244647

$$$$

 OpenBabel03252508193D

 41 44  0  0  1  0  0  0  0  0999 V2000
   32.7760   29.4320   36.3300 C   0  0  0  0  0  3  0  0  0  0  0  0
   31.7400   28.9530   35.7820 C   0  0  0  0  0  3  0  0  0  0  0  0
   34.8890   26.4870   37.0050 C   0  0  0  0  0  0  0  0  0  0  0  0
   35.5780   26.8520   38.1540 C   0  0  0  0  0  0  0  0  0  0  0  0
   35.2990   28.0770   38.6530 C   0  0  0  0  0  0  0  0  0  0  0  0
   34.3870   28.8910   38.0430 N   0  0  0  0  0  0  0  0  0  0  0  0
   33.7360   28.5010   36.9280 C   0  0  0  0  0  0  0  0  0  0  0  0
   34.0080   27.3040   36.4370 N   0  0  0  0  0  0  0  0  0  0  0  0
   35.0730   25.5160   36.5610 H   0  0  0  0  0  0  0  0  0  0  0  0
   36.2950   26.1930   38.6200 H   0  0  0  0  0  0  0  0  0  0  0  0
   35.9430   28.6010   39.8560 C   0  0  0  0  0  0  0  0  0  0  0  0
   35.9920   29.9260   40.2020 C   0  0  0  0  0  0  0  0  0  0  0  0
   36.6010   30.4100   41.3410 C   0  0  0  0  0  0  0  0  0  0  0  0
   37.2140   29.5280   42.2130 C   0  0  0  0  0  0  0  0  0  0  0  0
   37.1990   28.1900   41.9200 C   0  0  0  0  0  0  0  0  0  0  0  0
   36.5700   27.7640   40.7620 C   0  0  0  0  0  0  0  0  0  0  0  0
   35.5120   30.6440   39.5250 H   0  0  0  0  0  0  0  0  0  0  0  0
   36.5730   31.4890   41.5060 H   0  0  0  0  0  0  0  0  0  0  0  0
   37.6790   29.9560   43.0930 H   0  0  0  0  0  0  0  0  0  0  0  0
   37.6760   27.5180   42.6030 H   0  0  0  0  0  0  0  0  0  0  0  0
   36.6000   26.6950   40.6000 H   0  0  0  0  0  0  0  0  0  0  0  0
   30.8100   29.9590   35.1400 C   0  0  0  0  0  0  0  0  0  0  0  0
   29.8270   29.5440   35.3090 H   0  0  0  0  0  0  0  0  0  0  0  0
   31.0600   29.9610   34.0560 H   0  0  0  0  0  0  0  0  0  0  0  0
   31.0820   31.3310   35.6720 C   0  0  1  0  0  0  0  0  0  0  0  0
   30.0650   32.3610   35.3020 C   0  0  0  0  0  0  0  0  0  0  0  0
   30.1830   31.9150   36.6870 C   0  0  1  0  0  0  0  0  0  0  0  0
   32.1080   31.7380   35.4450 H   0  0  0  0  0  0  0  0  0  0  0  0
   29.1520   32.0390   34.7480 H   0  0  0  0  0  0  0  0  0  0  0  0
   30.3280   33.4050   35.0690 H   0  0  0  0  0  0  0  0  0  0  0  0
   30.6580   32.6180   37.4020 H   0  0  0  0  0  0  0  0  0  0  0  0
   29.1540   31.0270   37.3140 C   0  0  2  0  0  0  0  0  0  0  0  0
   28.7060   31.5150   38.7150 C   0  0  0  0  0  0  0  0  0  0  0  0
   29.5340   30.3040   38.6040 C   0  0  1  0  0  0  0  0  0  0  0  0
   28.2700   30.6890   36.7390 H   0  0  0  0  0  0  0  0  0  0  0  0
   27.6680   31.4390   39.0170 H   0  0  0  0  0  0  0  0  0  0  0  0
   29.2190   32.3940   39.1500 H   0  0  0  0  0  0  0  0  0  0  0  0
   30.6100   30.2870   38.8610 H   0  0  0  0  0  0  0  0  0  0  0  0
   28.8190   29.0430   38.8440 N   0  0  0  0  0  0  0  0  0  0  0  0
   27.9190   29.0350   38.3080 H   0  0  0  0  0  0  0  0  0  0  0  0
   28.5460   29.0720   39.8610 H   0  0  0  0  0  0  0  0  0  0  0  0
  1  7  1  0  0  0  0
  2  1  2  0  0  0  0
  3  4  1  0  0  0  0
  4 10  1  0  0  0  0
  4  5  2  0  0  0  0
  5 11  1  0  0  0  0
  6  5  1  0  0  0  0
  7  6  2  0  0  0  0
  8  7  1  0  0  0  0
  8  3  2  0  0  0  0
  9  3  1  0  0  0  0
 11 12  2  0  0  0  0
 11 16  1  0  0  0  0
 12 13  1  0  0  0  0
 13 18  1  0  0  0  0
 13 14  2  0  0  0  0
 14 19  1  0  0  0  0
 15 14  1  0  0  0  0
 15 20  1  0  0  0  0
 16 15  2  0  0  0  0
 17 12  1  0  0  0  0
 21 16  1  0  0  0  0
 22 23  1  0  0  0  0
 22 25  1  0  0  0  0
 22  2  1  0  0  0  0
 24 22  1  0  0  0  0
 25 28  1  1  0  0  0
 25 27  1  0  0  0  0
 26 25  1  0  0  0  0
 26 27  1  0  0  0  0
 27 32  1  0  0  0  0
 27 31  1  1  0  0  0
 29 26  1  0  0  0  0
 30 26  1  0  0  0  0
 32 35  1  6  0  0  0
 32 34  1  0  0  0  0
 32 33  1  0  0  0  0
 33 36  1  0  0  0  0
 33 37  1  0  0  0  0
 34 33  1  0  0  0  0
 34 39  1  0  0  0  0
 34 38  1  1  0  0  0
 39 41  1  0  0  0  0
 40 39  1  0  0  0  0
M  END
>  <minimizedAffinity>
-5.41990757

$$$$

 OpenBabel03252508193D

 41 44  0  0  1  0  0  0  0  0999 V2000
   39.0510   30.4270   42.1030 C   0  0  0  0  0  3  0  0  0  0  0  0
   40.0150   29.6510   41.8340 C   0  0  0  0  0  3  0  0  0  0  0  0
   37.9920   33.2250   39.9490 C   0  0  0  0  0  0  0  0  0  0  0  0
   37.3510   32.5860   38.8960 C   0  0  0  0  0  0  0  0  0  0  0  0
   37.3020   31.2360   38.9590 C   0  0  0  0  0  0  0  0  0  0  0  0
   37.8600   30.5630   40.0090 N   0  0  0  0  0  0  0  0  0  0  0  0
   38.4750   31.2190   41.0140 C   0  0  0  0  0  0  0  0  0  0  0  0
   38.5250   32.5390   40.9540 N   0  0  0  0  0  0  0  0  0  0  0  0
   38.0620   34.3060   39.9500 H   0  0  0  0  0  0  0  0  0  0  0  0
   36.9180   33.1370   38.0760 H   0  0  0  0  0  0  0  0  0  0  0  0
   36.6610   30.4240   37.9270 C   0  0  0  0  0  0  0  0  0  0  0  0
   37.0470   30.3830   36.6130 C   0  0  0  0  0  0  0  0  0  0  0  0
   36.4360   29.6110   35.6470 C   0  0  0  0  0  0  0  0  0  0  0  0
   35.3580   28.8150   35.9920 C   0  0  0  0  0  0  0  0  0  0  0  0
   34.9250   28.8140   37.2910 C   0  0  0  0  0  0  0  0  0  0  0  0
   35.5800   29.6100   38.2170 C   0  0  0  0  0  0  0  0  0  0  0  0
   37.9000   31.0070   36.3160 H   0  0  0  0  0  0  0  0  0  0  0  0
   36.8370   29.6650   34.6320 H   0  0  0  0  0  0  0  0  0  0  0  0
   34.9120   28.2280   35.1980 H   0  0  0  0  0  0  0  0  0  0  0  0
   34.0910   28.1940   37.5450 H   0  0  0  0  0  0  0  0  0  0  0  0
   35.1800   29.5550   39.2210 H   0  0  0  0  0  0  0  0  0  0  0  0
   40.5370   28.8240   42.9880 C   0  0  0  0  0  0  0  0  0  0  0  0
   39.8370   29.0260   43.7860 H   0  0  0  0  0  0  0  0  0  0  0  0
   41.5430   29.2330   43.2290 H   0  0  0  0  0  0  0  0  0  0  0  0
   40.7130   27.3990   42.5670 C   0  0  1  0  0  0  0  0  0  0  0  0
   40.6520   26.4040   43.6800 C   0  0  0  0  0  0  0  0  0  0  0  0
   39.5850   26.4550   42.6850 C   0  0  1  0  0  0  0  0  0  0  0  0
   41.6330   27.1930   41.9480 H   0  0  0  0  0  0  0  0  0  0  0  0
   40.3980   26.7600   44.7060 H   0  0  0  0  0  0  0  0  0  0  0  0
   41.2880   25.5040   43.7140 H   0  0  0  0  0  0  0  0  0  0  0  0
   39.5610   25.6390   41.9320 H   0  0  0  0  0  0  0  0  0  0  0  0
   38.2340   27.0070   43.0140 C   0  0  2  0  0  0  0  0  0  0  0  0
   37.0780   26.0550   42.6160 C   0  0  0  0  0  0  0  0  0  0  0  0
   37.2850   27.2960   41.8530 C   0  0  1  0  0  0  0  0  0  0  0  0
   38.0270   27.4450   44.0100 H   0  0  0  0  0  0  0  0  0  0  0  0
   36.2090   25.9480   43.2560 H   0  0  0  0  0  0  0  0  0  0  0  0
   37.3310   25.1240   42.0730 H   0  0  0  0  0  0  0  0  0  0  0  0
   37.7330   27.3110   40.8410 H   0  0  0  0  0  0  0  0  0  0  0  0
   36.2930   28.3490   42.1080 N   0  0  0  0  0  0  0  0  0  0  0  0
   36.1490   28.4630   43.1390 H   0  0  0  0  0  0  0  0  0  0  0  0
   35.3860   27.9690   41.7320 H   0  0  0  0  0  0  0  0  0  0  0  0
  2  1  2  0  0  0  0
  2 22  1  0  0  0  0
  3  9  1  0  0  0  0
  3  8  1  0  0  0  0
  4  5  1  0  0  0  0
  4  3  2  0  0  0  0
  5  6  2  0  0  0  0
  6  7  1  0  0  0  0
  7  1  1  0  0  0  0
  8  7  2  0  0  0  0
 10  4  1  0  0  0  0
 11 16  1  0  0  0  0
 11  5  1  0  0  0  0
 12 11  2  0  0  0  0
 13 14  2  0  0  0  0
 13 12  1  0  0  0  0
 14 15  1  0  0  0  0
 15 20  1  0  0  0  0
 15 16  2  0  0  0  0
 16 21  1  0  0  0  0
 17 12  1  0  0  0  0
 18 13  1  0  0  0  0
 19 14  1  0  0  0  0
 22 24  1  0  0  0  0
 22 23  1  0  0  0  0
 25 28  1  6  0  0  0
 25 27  1  0  0  0  0
 25 22  1  0  0  0  0
 25 26  1  0  0  0  0
 26 30  1  0  0  0  0
 26 29  1  0  0  0  0
 27 31  1  6  0  0  0
 27 32  1  0  0  0  0
 27 26  1  0  0  0  0
 32 35  1  1  0  0  0
 33 32  1  0  0  0  0
 33 36  1  0  0  0  0
 34 38  1  6  0  0  0
 34 39  1  0  0  0  0
 34 33  1  0  0  0  0
 34 32  1  0  0  0  0
 37 33  1  0  0  0  0
 39 40  1  0  0  0  0
 41 39  1  0  0  0  0
M  END
>  <minimizedAffinity>
-5.36926794

$$$$

 OpenBabel03252508193D

 41 44  0  0  1  0  0  0  0  0999 V2000
   35.0570   29.2560   36.8980 C   0  0  0  0  0  3  0  0  0  0  0  0
   34.0400   28.7360   37.4450 C   0  0  0  0  0  3  0  0  0  0  0  0
   38.0750   30.9140   38.2130 C   0  0  0  0  0  0  0  0  0  0  0  0
   38.2140   30.3560   39.4760 C   0  0  0  0  0  0  0  0  0  0  0  0
   37.2840   29.4410   39.8310 C   0  0  0  0  0  0  0  0  0  0  0  0
   36.2740   29.1040   38.9760 N   0  0  0  0  0  0  0  0  0  0  0  0
   36.1700   29.6680   37.7550 C   0  0  0  0  0  0  0  0  0  0  0  0
   37.0780   30.5630   37.4070 N   0  0  0  0  0  0  0  0  0  0  0  0
   38.7920   31.6540   37.8770 H   0  0  0  0  0  0  0  0  0  0  0  0
   39.0210   30.6380   40.1360 H   0  0  0  0  0  0  0  0  0  0  0  0
   37.2990   28.7670   41.1270 C   0  0  0  0  0  0  0  0  0  0  0  0
   36.8850   27.4790   41.3420 C   0  0  0  0  0  0  0  0  0  0  0  0
   36.9050   26.8510   42.5700 C   0  0  0  0  0  0  0  0  0  0  0  0
   37.3640   27.5370   43.6790 C   0  0  0  0  0  0  0  0  0  0  0  0
   37.7910   28.8300   43.5270 C   0  0  0  0  0  0  0  0  0  0  0  0
   37.7480   29.4070   42.2680 C   0  0  0  0  0  0  0  0  0  0  0  0
   36.5160   26.9140   40.4760 H   0  0  0  0  0  0  0  0  0  0  0  0
   36.5480   25.8190   42.6130 H   0  0  0  0  0  0  0  0  0  0  0  0
   37.3600   27.0020   44.6210 H   0  0  0  0  0  0  0  0  0  0  0  0
   38.1440   29.3510   44.3930 H   0  0  0  0  0  0  0  0  0  0  0  0
   38.1020   30.4280   42.2290 H   0  0  0  0  0  0  0  0  0  0  0  0
   32.9430   28.2870   36.5050 C   0  0  0  0  0  0  0  0  0  0  0  0
   32.2000   27.8600   37.1620 H   0  0  0  0  0  0  0  0  0  0  0  0
   33.3960   27.5050   35.8560 H   0  0  0  0  0  0  0  0  0  0  0  0
   32.5180   29.4200   35.6240 C   0  0  1  0  0  0  0  0  0  0  0  0
   31.4010   29.1000   34.6860 C   0  0  0  0  0  0  0  0  0  0  0  0
   31.1820   30.0210   35.7970 C   0  0  1  0  0  0  0  0  0  0  0  0
   33.3490   29.9110   35.0420 H   0  0  0  0  0  0  0  0  0  0  0  0
   30.9070   28.1020   34.7580 H   0  0  0  0  0  0  0  0  0  0  0  0
   31.3460   29.5010   33.6610 H   0  0  0  0  0  0  0  0  0  0  0  0
   31.1050   31.1010   35.5480 H   0  0  0  0  0  0  0  0  0  0  0  0
   30.3800   29.6250   36.9970 C   0  0  2  0  0  0  0  0  0  0  0  0
   29.3570   30.7080   37.4250 C   0  0  0  0  0  0  0  0  0  0  0  0
   30.5410   30.4620   38.2650 C   0  0  1  0  0  0  0  0  0  0  0  0
   29.9080   28.6250   37.0590 H   0  0  0  0  0  0  0  0  0  0  0  0
   28.3720   30.4240   37.7780 H   0  0  0  0  0  0  0  0  0  0  0  0
   29.3610   31.6730   36.8840 H   0  0  0  0  0  0  0  0  0  0  0  0
   31.4080   31.1480   38.2960 H   0  0  0  0  0  0  0  0  0  0  0  0
   30.2690   29.7470   39.5190 N   0  0  0  0  0  0  0  0  0  0  0  0
   29.6570   28.9180   39.3340 H   0  0  0  0  0  0  0  0  0  0  0  0
   29.6860   30.4110   40.0920 H   0  0  0  0  0  0  0  0  0  0  0  0
  1  2  2  0  0  0  0
  1  7  1  0  0  0  0
  3  4  1  0  0  0  0
  4  5  2  0  0  0  0
  4 10  1  0  0  0  0
  5 11  1  0  0  0  0
  6  5  1  0  0  0  0
  7  6  2  0  0  0  0
  8  7  1  0  0  0  0
  8  3  2  0  0  0  0
  9  3  1  0  0  0  0
 11 12  2  0  0  0  0
 11 16  1  0  0  0  0
 12 13  1  0  0  0  0
 13 18  1  0  0  0  0
 13 14  2  0  0  0  0
 14 19  1  0  0  0  0
 15 14  1  0  0  0  0
 15 20  1  0  0  0  0
 16 15  2  0  0  0  0
 17 12  1  0  0  0  0
 21 16  1  0  0  0  0
 22 23  1  0  0  0  0
 22  2  1  0  0  0  0
 24 22  1  0  0  0  0
 25 28  1  6  0  0  0
 25 27  1  0  0  0  0
 25 22  1  0  0  0  0
 26 29  1  0  0  0  0
 26 25  1  0  0  0  0
 26 27  1  0  0  0  0
 27 31  1  6  0  0  0
 27 32  1  0  0  0  0
 30 26  1  0  0  0  0
 32 35  1  1  0  0  0
 32 33  1  0  0  0  0
 32 34  1  0  0  0  0
 33 36  1  0  0  0  0
 33 34  1  0  0  0  0
 34 38  1  1  0  0  0
 34 39  1  0  0  0  0
 37 33  1  0  0  0  0
 39 41  1  0  0  0  0
 40 39  1  0  0  0  0
M  END
>  <minimizedAffinity>
-5.35299301

$$$$

 OpenBabel03252508193D

 41 44  0  0  1  0  0  0  0  0999 V2000
   34.2470   28.7990   37.7350 C   0  0  0  0  0  3  0  0  0  0  0  0
   33.2480   28.5040   37.0150 C   0  0  0  0  0  3  0  0  0  0  0  0
   36.2140   25.6830   37.8480 C   0  0  0  0  0  0  0  0  0  0  0  0
   36.8510   25.7590   39.0780 C   0  0  0  0  0  0  0  0  0  0  0  0
   36.5890   26.8590   39.8200 C   0  0  0  0  0  0  0  0  0  0  0  0
   35.7410   27.8270   39.3610 N   0  0  0  0  0  0  0  0  0  0  0  0
   35.1390   27.7180   38.1590 C   0  0  0  0  0  0  0  0  0  0  0  0
   35.3950   26.6440   37.4320 N   0  0  0  0  0  0  0  0  0  0  0  0
   36.3880   24.8240   37.2110 H   0  0  0  0  0  0  0  0  0  0  0  0
   37.5180   24.9830   39.4210 H   0  0  0  0  0  0  0  0  0  0  0  0
   37.1840   27.0800   41.1360 C   0  0  0  0  0  0  0  0  0  0  0  0
   36.7330   27.9910   42.0550 C   0  0  0  0  0  0  0  0  0  0  0  0
   37.3010   28.1910   43.2950 C   0  0  0  0  0  0  0  0  0  0  0  0
   38.4020   27.4410   43.6690 C   0  0  0  0  0  0  0  0  0  0  0  0
   38.9000   26.5140   42.7920 C   0  0  0  0  0  0  0  0  0  0  0  0
   38.2860   26.3580   41.5600 C   0  0  0  0  0  0  0  0  0  0  0  0
   35.8610   28.5980   41.7800 H   0  0  0  0  0  0  0  0  0  0  0  0
   36.8490   28.9480   43.9400 H   0  0  0  0  0  0  0  0  0  0  0  0
   38.8130   27.6340   44.6530 H   0  0  0  0  0  0  0  0  0  0  0  0
   39.7520   25.9400   43.0930 H   0  0  0  0  0  0  0  0  0  0  0  0
   38.7360   25.6080   40.9240 H   0  0  0  0  0  0  0  0  0  0  0  0
   32.3900   29.6680   36.5690 C   0  0  0  0  0  0  0  0  0  0  0  0
   32.5850   29.7400   35.5090 H   0  0  0  0  0  0  0  0  0  0  0  0
   32.7800   30.5600   37.1060 H   0  0  0  0  0  0  0  0  0  0  0  0
   30.9710   29.4610   36.9990 C   0  0  1  0  0  0  0  0  0  0  0  0
   30.5450   30.2820   38.1710 C   0  0  0  0  0  0  0  0  0  0  0  0
   29.9940   30.5560   36.8470 C   0  0  1  0  0  0  0  0  0  0  0  0
   30.6780   28.3890   37.1820 H   0  0  0  0  0  0  0  0  0  0  0  0
   31.2540   31.0380   38.5850 H   0  0  0  0  0  0  0  0  0  0  0  0
   29.8620   29.9050   38.9500 H   0  0  0  0  0  0  0  0  0  0  0  0
   28.9440   30.2420   36.6650 H   0  0  0  0  0  0  0  0  0  0  0  0
   30.4020   31.7640   36.0640 C   0  0  2  0  0  0  0  0  0  0  0  0
   29.1940   32.5820   35.5390 C   0  0  0  0  0  0  0  0  0  0  0  0
   30.0140   31.8160   34.5880 C   0  0  1  0  0  0  0  0  0  0  0  0
   31.1770   32.4550   36.4490 H   0  0  0  0  0  0  0  0  0  0  0  0
   29.2250   33.6660   35.5350 H   0  0  0  0  0  0  0  0  0  0  0  0
   28.1770   32.1800   35.7100 H   0  0  0  0  0  0  0  0  0  0  0  0
   29.6760   30.8650   34.1340 H   0  0  0  0  0  0  0  0  0  0  0  0
   30.8980   32.6290   33.7410 N   0  0  0  0  0  0  0  0  0  0  0  0
   31.4090   33.3300   34.3270 H   0  0  0  0  0  0  0  0  0  0  0  0
   30.2500   33.1870   33.1260 H   0  0  0  0  0  0  0  0  0  0  0  0
  1  7  1  0  0  0  0
  2  1  2  0  0  0  0
  3  4  1  0  0  0  0
  4 10  1  0  0  0  0
  4  5  2  0  0  0  0
  5 11  1  0  0  0  0
  6  5  1  0  0  0  0
  7  6  2  0  0  0  0
  8  3  2  0  0  0  0
  8  7  1  0  0  0  0
  9  3  1  0  0  0  0
 11 16  2  0  0  0  0
 11 12  1  0  0  0  0
 12 13  2  0  0  0  0
 13 14  1  0  0  0  0
 13 18  1  0  0  0  0
 14 19  1  0  0  0  0
 15 20  1  0  0  0  0
 15 14  2  0  0  0  0
 16 15  1  0  0  0  0
 17 12  1  0  0  0  0
 21 16  1  0  0  0  0
 22 25  1  0  0  0  0
 22  2  1  0  0  0  0
 22 24  1  0  0  0  0
 23 22  1  0  0  0  0
 25 28  1  6  0  0  0
 25 26  1  0  0  0  0
 26 29  1  0  0  0  0
 26 30  1  0  0  0  0
 27 31  1  6  0  0  0
 27 25  1  0  0  0  0
 27 26  1  0  0  0  0
 32 35  1  1  0  0  0
 32 27  1  0  0  0  0
 33 37  1  0  0  0  0
 33 32  1  0  0  0  0
 34 38  1  6  0  0  0
 34 33  1  0  0  0  0
 34 32  1  0  0  0  0
 36 33  1  0  0  0  0
 39 40  1  0  0  0  0
 39 34  1  0  0  0  0
 41 39  1  0  0  0  0
M  END
>  <minimizedAffinity>
-5.28870583

$$$$

 OpenBabel03252508193D

 41 44  0  0  1  0  0  0  0  0999 V2000
   35.0750   28.9520   40.4290 C   0  0  0  0  0  3  0  0  0  0  0  0
   35.0140   29.1130   39.1750 C   0  0  0  0  0  3  0  0  0  0  0  0
   38.0590   28.5200   42.5490 C   0  0  0  0  0  0  0  0  0  0  0  0
   38.8150   29.6470   42.2590 C   0  0  0  0  0  0  0  0  0  0  0  0
   38.2850   30.5070   41.3610 C   0  0  0  0  0  0  0  0  0  0  0  0
   37.0720   30.2580   40.7850 N   0  0  0  0  0  0  0  0  0  0  0  0
   36.3650   29.1510   41.0920 C   0  0  0  0  0  0  0  0  0  0  0  0
   36.8820   28.3080   41.9690 N   0  0  0  0  0  0  0  0  0  0  0  0
   38.4360   27.7960   43.2620 H   0  0  0  0  0  0  0  0  0  0  0  0
   39.7730   29.8250   42.7260 H   0  0  0  0  0  0  0  0  0  0  0  0
   38.9620   31.7370   40.9550 C   0  0  0  0  0  0  0  0  0  0  0  0
   40.3210   31.9020   40.9090 C   0  0  0  0  0  0  0  0  0  0  0  0
   40.9510   33.0660   40.5230 C   0  0  0  0  0  0  0  0  0  0  0  0
   40.1910   34.1610   40.1530 C   0  0  0  0  0  0  0  0  0  0  0  0
   38.8260   34.0580   40.1790 C   0  0  0  0  0  0  0  0  0  0  0  0
   38.2500   32.8610   40.5750 C   0  0  0  0  0  0  0  0  0  0  0  0
   40.9450   31.0470   41.1990 H   0  0  0  0  0  0  0  0  0  0  0  0
   42.0430   33.0740   40.5280 H   0  0  0  0  0  0  0  0  0  0  0  0
   40.7310   35.0530   39.8570 H   0  0  0  0  0  0  0  0  0  0  0  0
   38.2480   34.9120   39.8900 H   0  0  0  0  0  0  0  0  0  0  0  0
   37.1690   32.8570   40.5700 H   0  0  0  0  0  0  0  0  0  0  0  0
   33.6450   28.9410   38.5540 C   0  0  0  0  0  0  0  0  0  0  0  0
   33.0270   29.6430   39.0940 H   0  0  0  0  0  0  0  0  0  0  0  0
   33.3390   27.8940   38.7690 H   0  0  0  0  0  0  0  0  0  0  0  0
   33.7260   29.0950   37.0670 C   0  0  1  0  0  0  0  0  0  0  0  0
   33.0470   28.0180   36.2870 C   0  0  0  0  0  0  0  0  0  0  0  0
   32.5020   29.3720   36.2910 C   0  0  1  0  0  0  0  0  0  0  0  0
   34.7670   29.2370   36.6570 H   0  0  0  0  0  0  0  0  0  0  0  0
   32.4640   27.2420   36.8370 H   0  0  0  0  0  0  0  0  0  0  0  0
   33.4460   27.6220   35.3390 H   0  0  0  0  0  0  0  0  0  0  0  0
   32.6440   29.9740   35.3690 H   0  0  0  0  0  0  0  0  0  0  0  0
   31.2520   29.7120   37.0410 C   0  0  2  0  0  0  0  0  0  0  0  0
   30.1100   30.2090   36.1200 C   0  0  0  0  0  0  0  0  0  0  0  0
   30.7820   31.1640   37.0150 C   0  0  1  0  0  0  0  0  0  0  0  0
   30.8410   29.0180   37.8010 H   0  0  0  0  0  0  0  0  0  0  0  0
   29.0830   29.9150   36.3110 H   0  0  0  0  0  0  0  0  0  0  0  0
   30.3280   30.3440   35.0440 H   0  0  0  0  0  0  0  0  0  0  0  0
   31.5130   31.9120   36.6540 H   0  0  0  0  0  0  0  0  0  0  0  0
   29.9890   31.5830   38.1790 N   0  0  0  0  0  0  0  0  0  0  0  0
   29.5610   30.7450   38.6400 H   0  0  0  0  0  0  0  0  0  0  0  0
   29.1850   32.1330   37.7800 H   0  0  0  0  0  0  0  0  0  0  0  0
  1  7  1  0  0  0  0
  2  1  2  0  0  0  0
  3  9  1  0  0  0  0
  4  3  1  0  0  0  0
  4 10  1  0  0  0  0
  5  4  2  0  0  0  0
  6  7  2  0  0  0  0
  6  5  1  0  0  0  0
  7  8  1  0  0  0  0
  8  3  2  0  0  0  0
 11  5  1  0  0  0  0
 12 11  1  0  0  0  0
 12 17  1  0  0  0  0
 13 18  1  0  0  0  0
 13 12  2  0  0  0  0
 14 15  2  0  0  0  0
 14 13  1  0  0  0  0
 15 16  1  0  0  0  0
 16 11  2  0  0  0  0
 19 14  1  0  0  0  0
 20 15  1  0  0  0  0
 21 16  1  0  0  0  0
 22 24  1  0  0  0  0
 22 23  1  0  0  0  0
 22  2  1  0  0  0  0
 25 28  1  6  0  0  0
 25 22  1  0  0  0  0
 26 27  1  0  0  0  0
 26 29  1  0  0  0  0
 26 25  1  0  0  0  0
 27 31  1  6  0  0  0
 27 32  1  0  0  0  0
 27 25  1  0  0  0  0
 30 26  1  0  0  0  0
 32 35  1  1  0  0  0
 33 36  1  0  0  0  0
 33 34  1  0  0  0  0
 33 32  1  0  0  0  0
 34 38  1  6  0  0  0
 34 32  1  0  0  0  0
 34 39  1  0  0  0  0
 37 33  1  0  0  0  0
 39 40  1  0  0  0  0
 41 39  1  0  0  0  0
M  END
>  <minimizedAffinity>
-5.26378918

$$$$
