
 OpenBabel03252506303D

 26 27  0  0  1  0  0  0  0  0999 V2000
   44.4920   35.9050   44.9510 C   0  0  0  0  0  0  0  0  0  0  0  0
   44.9140   35.7540   43.6320 C   0  0  0  0  0  0  0  0  0  0  0  0
   45.6130   34.6200   43.3070 C   0  0  0  0  0  0  0  0  0  0  0  0
   45.8630   33.6950   44.2900 N   0  0  0  0  0  0  0  0  0  0  0  0
   45.4370   33.8850   45.5460 C   0  0  0  0  0  0  0  0  0  0  0  0
   44.7460   34.9900   45.8980 N   0  0  0  0  0  0  0  0  0  0  0  0
   45.7250   32.8870   46.5100 N   0  0  0  0  0  0  0  0  0  0  0  0
   45.0750   32.7500   47.8100 C   0  0  0  0  0  0  0  0  0  0  0  0
   46.2150   32.2840   48.6710 C   0  0  0  0  0  0  0  0  0  0  0  0
   47.3570   31.9230   47.7570 C   0  0  0  0  0  0  0  0  0  0  0  0
   46.7090   31.8100   46.4120 C   0  0  2  0  0  0  0  0  0  0  0  0
   43.9410   36.7730   45.2590 H   0  0  0  0  0  0  0  0  0  0  0  0
   45.9310   34.5120   42.2970 H   0  0  0  0  0  0  0  0  0  0  0  0
   44.7160   33.7450   48.1120 H   0  0  0  0  0  0  0  0  0  0  0  0
   44.2290   32.0340   47.7630 H   0  0  0  0  0  0  0  0  0  0  0  0
   45.8870   31.4150   49.2870 H   0  0  0  0  0  0  0  0  0  0  0  0
   46.5390   33.1010   49.3480 H   0  0  0  0  0  0  0  0  0  0  0  0
   48.1440   32.7040   47.7430 H   0  0  0  0  0  0  0  0  0  0  0  0
   47.7540   30.9380   48.0850 H   0  0  0  0  0  0  0  0  0  0  0  0
   46.2530   30.8280   46.2200 H   0  0  0  0  0  0  0  0  0  0  0  0
   44.5670   36.8110   42.7260 N   0  0  0  0  0  0  0  0  0  0  0  0
   44.8540   37.8020   42.9370 H   0  0  0  0  0  0  0  0  0  0  0  0
   44.0370   36.4960   41.8970 H   0  0  0  0  0  0  0  0  0  0  0  0
   47.6630   32.2260   45.3960 N   0  0  0  0  0  0  0  0  0  0  0  0
   47.1040   32.6020   44.5890 H   0  0  0  0  0  0  0  0  0  0  0  0
   48.2590   33.0230   45.7340 H   0  0  0  0  0  0  0  0  0  0  0  0
  1 12  1  0  0  0  0
  1  6  1  0  0  0  0
  2  1  2  0  0  0  0
  3  2  1  0  0  0  0
  3  4  2  0  0  0  0
  4  5  1  0  0  0  0
  5  6  2  0  0  0  0
  5  7  1  0  0  0  0
  7  8  1  0  0  0  0
  8 14  1  0  0  0  0
  8  9  1  0  0  0  0
  9 16  1  0  0  0  0
  9 17  1  0  0  0  0
 10 19  1  0  0  0  0
 10  9  1  0  0  0  0
 11 20  1  6  0  0  0
 11  7  1  0  0  0  0
 11 10  1  0  0  0  0
 13  3  1  0  0  0  0
 15  8  1  0  0  0  0
 18 10  1  0  0  0  0
 21 22  1  0  0  0  0
 21  2  1  0  0  0  0
 23 21  1  0  0  0  0
 24 26  1  0  0  0  0
 24 11  1  0  0  0  0
 25 24  1  0  0  0  0
M  END
>  <minimizedAffinity>
-4.56336784

>  <minimizedRMSD>
0.333758354

$$$$
