
 OpenBabel03252503183D

 33 35  0  0  0  0  0  0  0  0999 V2000
   46.3020   34.7370   41.8620 C   0  0  0  0  0  0  0  0  0  0  0  0
   47.5050   35.0880   41.7480 O   0  0  0  0  0  0  0  0  0  0  0  0
   45.4590   34.1860   40.7550 C   0  0  0  0  0  0  0  0  0  0  0  0
   44.1040   34.3650   40.5800 C   0  0  0  0  0  0  0  0  0  0  0  0
   43.7890   33.6900   39.4600 N   0  0  0  0  0  0  0  0  0  0  0  0
   44.9020   33.1170   38.9630 C   0  0  0  0  0  0  0  0  0  0  0  0
   45.9450   33.4250   39.7680 N   0  0  0  0  0  0  0  0  0  0  0  0
   45.0930   32.3110   37.8110 N   0  0  0  0  0  0  0  0  0  0  0  0
   43.4350   34.9210   41.1980 H   0  0  0  0  0  0  0  0  0  0  0  0
   44.6530   31.3830   37.7610 H   0  0  0  0  0  0  0  0  0  0  0  0
   45.6910   32.6970   37.0290 H   0  0  0  0  0  0  0  0  0  0  0  0
   42.5100   33.5380   38.8120 C   0  0  0  0  0  0  0  0  0  0  0  0
   42.5110   33.8850   37.7650 H   0  0  0  0  0  0  0  0  0  0  0  0
   41.7340   34.0450   39.4280 H   0  0  0  0  0  0  0  0  0  0  0  0
   42.1550   32.1200   38.8690 N   0  0  0  0  0  0  0  0  0  0  0  0
   41.3830   31.9340   39.5410 H   0  0  0  0  0  0  0  0  0  0  0  0
   41.8430   31.8550   37.9020 H   0  0  0  0  0  0  0  0  0  0  0  0
   45.1090   36.1040   43.5240 C   0  0  0  0  0  0  0  0  0  0  0  0
   45.7470   34.8960   43.1550 C   0  0  0  0  0  0  0  0  0  0  0  0
   45.7570   33.9460   44.1710 C   0  0  0  0  0  0  0  0  0  0  0  0
   45.2200   34.1460   45.3740 N   0  0  0  0  0  0  0  0  0  0  0  0
   44.6200   35.3340   45.6600 C   0  0  0  0  0  0  0  0  0  0  0  0
   44.5740   36.2970   44.7310 N   0  0  0  0  0  0  0  0  0  0  0  0
   45.0820   36.8660   42.7610 H   0  0  0  0  0  0  0  0  0  0  0  0
   44.1800   35.5370   46.6060 H   0  0  0  0  0  0  0  0  0  0  0  0
   46.3830   32.6920   43.8950 C   0  0  0  0  0  0  0  0  0  0  0  0
   47.6430   32.1970   43.9620 C   0  0  0  0  0  0  0  0  0  0  0  0
   47.9500   30.9630   43.6370 C   0  0  0  0  0  0  0  0  0  0  0  0
   46.9280   30.1990   43.2260 C   0  0  0  0  0  0  0  0  0  0  0  0
   45.4700   31.2760   43.3030 S   0  0  0  0  0  0  0  0  0  0  0  0
   48.3810   32.9440   44.3190 H   0  0  0  0  0  0  0  0  0  0  0  0
   48.9360   30.5170   43.6710 H   0  0  0  0  0  0  0  0  0  0  0  0
   46.9340   29.0870   42.8860 H   0  0  0  0  0  0  0  0  0  0  0  0
  1 19  1  0  0  0  0
  2  1  2  0  0  0  0
  3  1  1  0  0  0  0
  4  3  2  0  0  0  0
  4  9  1  0  0  0  0
  5  4  1  0  0  0  0
  6  5  1  0  0  0  0
  6  7  2  0  0  0  0
  7  3  1  0  0  0  0
  8  6  1  0  0  0  0
 10  8  1  0  0  0  0
 11  8  1  0  0  0  0
 12 15  1  0  0  0  0
 12 14  1  0  0  0  0
 12  5  1  0  0  0  0
 13 12  1  0  0  0  0
 15 16  1  0  0  0  0
 17 15  1  0  0  0  0
 18 23  1  0  0  0  0
 19 18  2  0  0  0  0
 19 20  1  0  0  0  0
 20 21  2  0  0  0  0
 21 22  1  0  0  0  0
 22 25  1  0  0  0  0
 23 22  2  0  0  0  0
 24 18  1  0  0  0  0
 26 27  2  0  0  0  0
 26 20  1  0  0  0  0
 27 31  1  0  0  0  0
 28 32  1  0  0  0  0
 28 27  1  0  0  0  0
 29 30  1  0  0  0  0
 29 28  2  0  0  0  0
 30 26  1  0  0  0  0
 33 29  1  0  0  0  0
M  END
>  <minimizedAffinity>
-4.43388891

>  <minimizedRMSD>
0.338689715

$$$$
