
 OpenBabel03242515473D

 35 37  0  0  1  0  0  0  0  0999 V2000
   37.3810   28.6540   42.0020 C   0  0  0  0  0  0  0  0  0  0  0  0
   38.6360   28.8710   42.4610 C   0  0  0  0  0  0  0  0  0  0  0  0
   39.2850   27.7400   42.9410 C   0  0  0  0  0  0  0  0  0  0  0  0
   38.7010   26.5250   42.9510 N   0  0  0  0  0  0  0  0  0  0  0  0
   37.4470   26.3610   42.4840 C   0  0  0  0  0  0  0  0  0  0  0  0
   36.8250   27.4460   42.0190 N   0  0  0  0  0  0  0  0  0  0  0  0
   40.6370   27.8430   43.4380 N   0  0  0  0  0  0  0  0  0  0  0  0
   41.3170   27.3760   42.7840 H   0  0  0  0  0  0  0  0  0  0  0  0
   40.7920   28.3500   44.3530 H   0  0  0  0  0  0  0  0  0  0  0  0
   39.5010   30.0740   42.6060 C   0  0  0  0  0  0  0  0  0  0  0  0
   39.8960   30.0870   43.6670 H   0  0  0  0  0  0  0  0  0  0  0  0
   38.8820   31.0140   42.5900 H   0  0  0  0  0  0  0  0  0  0  0  0
   40.3700   30.0920   41.9510 H   0  0  0  0  0  0  0  0  0  0  0  0
   36.5150   30.1120   41.3340 S   0  0  0  0  0  0  0  0  0  0  0  0
   35.0420   29.0610   39.3830 C   0  0  0  0  0  0  0  0  0  0  0  0
   36.1630   29.8650   39.5960 C   0  0  0  0  0  0  0  0  0  0  0  0
   36.8730   30.3940   38.5380 C   0  0  0  0  0  0  0  0  0  0  0  0
   36.4920   30.1430   37.2490 C   0  0  0  0  0  0  0  0  0  0  0  0
   35.3830   29.3480   37.0240 C   0  0  0  0  0  0  0  0  0  0  0  0
   34.6660   28.8130   38.0510 C   0  0  0  0  0  0  0  0  0  0  0  0
   35.2280   29.2620   35.6240 O   0  0  0  0  0  0  0  0  0  0  0  0
   36.3530   29.7790   35.0260 C   0  0  1  0  0  0  0  0  0  0  0  0
   37.0150   30.5390   36.0090 O   0  0  0  0  0  0  0  0  0  0  0  0
   34.4300   28.6060   40.1480 H   0  0  0  0  0  0  0  0  0  0  0  0
   37.7240   31.0010   38.8000 H   0  0  0  0  0  0  0  0  0  0  0  0
   33.7920   28.1870   37.8520 H   0  0  0  0  0  0  0  0  0  0  0  0
   36.0310   30.3990   34.1630 H   0  0  0  0  0  0  0  0  0  0  0  0
   37.1750   28.7090   34.5050 N   0  0  0  0  0  0  0  0  0  0  0  0
   36.7110   28.2260   33.7040 H   0  0  0  0  0  0  0  0  0  0  0  0
   37.4210   28.0040   35.2380 H   0  0  0  0  0  0  0  0  0  0  0  0
   36.7630   25.1700   42.4500 O   0  0  0  0  0  0  0  0  0  0  0  0
   36.9590   24.3360   41.3240 C   0  0  0  0  0  0  0  0  0  0  0  0
   37.3760   25.0390   40.2450 F   0  0  0  0  0  0  0  0  0  0  0  0
   37.8790   23.3430   41.7130 F   0  0  0  0  0  0  0  0  0  0  0  0
   35.7390   23.7510   41.0040 F   0  0  0  0  0  0  0  0  0  0  0  0
  1  6  2  0  0  0  0
  1  2  1  0  0  0  0
  2 10  1  0  0  0  0
  2  3  2  0  0  0  0
  3  4  1  0  0  0  0
  3  7  1  0  0  0  0
  5  4  2  0  0  0  0
  6  5  1  0  0  0  0
  7  9  1  0  0  0  0
  8  7  1  0  0  0  0
 10 11  1  0  0  0  0
 12 10  1  0  0  0  0
 13 10  1  0  0  0  0
 14  1  1  0  0  0  0
 15 16  1  0  0  0  0
 15 24  1  0  0  0  0
 16 14  1  0  0  0  0
 17 25  1  0  0  0  0
 17 16  2  0  0  0  0
 18 17  1  0  0  0  0
 19 18  2  0  0  0  0
 19 20  1  0  0  0  0
 20 15  2  0  0  0  0
 21 19  1  0  0  0  0
 22 27  1  6  0  0  0
 22 21  1  0  0  0  0
 22 23  1  0  0  0  0
 23 18  1  0  0  0  0
 26 20  1  0  0  0  0
 28 22  1  0  0  0  0
 28 30  1  0  0  0  0
 29 28  1  0  0  0  0
 31  5  1  0  0  0  0
 32 34  1  0  0  0  0
 32 31  1  0  0  0  0
 33 32  1  0  0  0  0
 35 32  1  0  0  0  0
M  END
>  <minimizedAffinity>
-6.0187664

$$$$

 OpenBabel03242515473D

 35 37  0  0  1  0  0  0  0  0999 V2000
   38.3770   29.8360   42.0230 C   0  0  0  0  0  0  0  0  0  0  0  0
   37.3150   30.2980   41.3240 C   0  0  0  0  0  0  0  0  0  0  0  0
   36.2790   29.3840   41.1660 C   0  0  0  0  0  0  0  0  0  0  0  0
   36.3390   28.1350   41.6700 N   0  0  0  0  0  0  0  0  0  0  0  0
   37.4220   27.7230   42.3580 C   0  0  0  0  0  0  0  0  0  0  0  0
   38.4150   28.6000   42.5120 N   0  0  0  0  0  0  0  0  0  0  0  0
   35.0820   29.7700   40.4550 N   0  0  0  0  0  0  0  0  0  0  0  0
   34.2660   29.8640   41.1140 H   0  0  0  0  0  0  0  0  0  0  0  0
   35.1490   29.9100   39.4110 H   0  0  0  0  0  0  0  0  0  0  0  0
   36.9930   31.5790   40.6370 C   0  0  0  0  0  0  0  0  0  0  0  0
   36.6480   31.3290   39.5880 H   0  0  0  0  0  0  0  0  0  0  0  0
   37.9310   32.1640   40.4250 H   0  0  0  0  0  0  0  0  0  0  0  0
   36.1940   32.1560   41.0980 H   0  0  0  0  0  0  0  0  0  0  0  0
   39.7390   31.0220   42.2750 S   0  0  0  0  0  0  0  0  0  0  0  0
   40.6310   30.4200   39.8410 C   0  0  0  0  0  0  0  0  0  0  0  0
   40.4210   31.5070   40.6920 C   0  0  0  0  0  0  0  0  0  0  0  0
   40.7150   32.7940   40.2930 C   0  0  0  0  0  0  0  0  0  0  0  0
   41.2210   33.0370   39.0450 C   0  0  0  0  0  0  0  0  0  0  0  0
   41.4330   31.9700   38.1920 C   0  0  0  0  0  0  0  0  0  0  0  0
   41.1520   30.6900   38.5630 C   0  0  0  0  0  0  0  0  0  0  0  0
   41.9520   32.5090   36.9950 O   0  0  0  0  0  0  0  0  0  0  0  0
   42.2760   33.8280   37.2140 C   0  0  1  0  0  0  0  0  0  0  0  0
   41.6030   34.2160   38.3880 O   0  0  0  0  0  0  0  0  0  0  0  0
   40.4320   29.3840   40.0700 H   0  0  0  0  0  0  0  0  0  0  0  0
   40.5210   33.5670   41.0170 H   0  0  0  0  0  0  0  0  0  0  0  0
   41.3280   29.8600   37.8740 H   0  0  0  0  0  0  0  0  0  0  0  0
   41.9490   34.4150   36.3290 H   0  0  0  0  0  0  0  0  0  0  0  0
   43.7110   33.9750   37.3210 N   0  0  0  0  0  0  0  0  0  0  0  0
   44.1840   33.7880   36.4090 H   0  0  0  0  0  0  0  0  0  0  0  0
   44.1200   33.3540   38.0570 H   0  0  0  0  0  0  0  0  0  0  0  0
   37.5830   26.4740   42.9090 O   0  0  0  0  0  0  0  0  0  0  0  0
   37.7500   25.3850   42.0210 C   0  0  0  0  0  0  0  0  0  0  0  0
   38.1200   25.7970   40.7860 F   0  0  0  0  0  0  0  0  0  0  0  0
   38.6960   24.5250   42.6120 F   0  0  0  0  0  0  0  0  0  0  0  0
   36.5270   24.7340   41.9040 F   0  0  0  0  0  0  0  0  0  0  0  0
  1 14  1  0  0  0  0
  1  6  1  0  0  0  0
  2  1  2  0  0  0  0
  3  2  1  0  0  0  0
  3  4  2  0  0  0  0
  4  5  1  0  0  0  0
  5  6  2  0  0  0  0
  5 31  1  0  0  0  0
  7  8  1  0  0  0  0
  7  3  1  0  0  0  0
  9  7  1  0  0  0  0
 10 13  1  0  0  0  0
 10  2  1  0  0  0  0
 11 10  1  0  0  0  0
 12 10  1  0  0  0  0
 15 24  1  0  0  0  0
 15 16  1  0  0  0  0
 16 14  1  0  0  0  0
 17 16  2  0  0  0  0
 17 25  1  0  0  0  0
 18 17  1  0  0  0  0
 19 20  1  0  0  0  0
 19 18  2  0  0  0  0
 20 15  2  0  0  0  0
 21 22  1  0  0  0  0
 21 19  1  0  0  0  0
 22 27  1  6  0  0  0
 22 28  1  0  0  0  0
 22 23  1  0  0  0  0
 23 18  1  0  0  0  0
 26 20  1  0  0  0  0
 28 30  1  0  0  0  0
 29 28  1  0  0  0  0
 32 34  1  0  0  0  0
 32 31  1  0  0  0  0
 33 32  1  0  0  0  0
 35 32  1  0  0  0  0
M  END
>  <minimizedAffinity>
-5.95620871

$$$$

 OpenBabel03242515473D

 35 37  0  0  1  0  0  0  0  0999 V2000
   36.3230   30.1620   39.4590 C   0  0  0  0  0  0  0  0  0  0  0  0
   36.4290   29.6560   38.2080 C   0  0  0  0  0  0  0  0  0  0  0  0
   37.0870   30.4790   37.3020 C   0  0  0  0  0  0  0  0  0  0  0  0
   37.5760   31.6860   37.6490 N   0  0  0  0  0  0  0  0  0  0  0  0
   37.4430   32.1450   38.9090 C   0  0  0  0  0  0  0  0  0  0  0  0
   36.8140   31.3560   39.7800 N   0  0  0  0  0  0  0  0  0  0  0  0
   37.2800   30.0380   35.9390 N   0  0  0  0  0  0  0  0  0  0  0  0
   38.2930   29.8190   35.7530 H   0  0  0  0  0  0  0  0  0  0  0  0
   36.4330   29.9840   35.3110 H   0  0  0  0  0  0  0  0  0  0  0  0
   35.9680   28.4070   37.5440 C   0  0  0  0  0  0  0  0  0  0  0  0
   35.4300   28.7020   36.5920 H   0  0  0  0  0  0  0  0  0  0  0  0
   35.1330   27.9300   38.1280 H   0  0  0  0  0  0  0  0  0  0  0  0
   36.7640   27.7250   37.2520 H   0  0  0  0  0  0  0  0  0  0  0  0
   35.4930   29.0930   40.6800 S   0  0  0  0  0  0  0  0  0  0  0  0
   37.2440   28.7810   42.6600 C   0  0  0  0  0  0  0  0  0  0  0  0
   36.7100   28.1140   41.5560 C   0  0  0  0  0  0  0  0  0  0  0  0
   37.1090   26.8330   41.2350 C   0  0  0  0  0  0  0  0  0  0  0  0
   38.0410   26.1820   41.9960 C   0  0  0  0  0  0  0  0  0  0  0  0
   38.5770   26.8310   43.0920 C   0  0  0  0  0  0  0  0  0  0  0  0
   38.2010   28.0970   43.4290 C   0  0  0  0  0  0  0  0  0  0  0  0
   39.4960   25.9360   43.6800 O   0  0  0  0  0  0  0  0  0  0  0  0
   39.6910   24.8810   42.8190 C   0  0  1  0  0  0  0  0  0  0  0  0
   38.6190   24.9080   41.9050 O   0  0  0  0  0  0  0  0  0  0  0  0
   36.9930   29.7800   42.9830 H   0  0  0  0  0  0  0  0  0  0  0  0
   36.6420   26.4000   40.3660 H   0  0  0  0  0  0  0  0  0  0  0  0
   38.6380   28.5930   44.3000 H   0  0  0  0  0  0  0  0  0  0  0  0
   39.7080   23.9460   43.4180 H   0  0  0  0  0  0  0  0  0  0  0  0
   40.9770   25.0000   42.1700 N   0  0  0  0  0  0  0  0  0  0  0  0
   41.7610   24.8700   42.8470 H   0  0  0  0  0  0  0  0  0  0  0  0
   41.0920   25.9190   41.6810 H   0  0  0  0  0  0  0  0  0  0  0  0
   37.9020   33.3580   39.3640 O   0  0  0  0  0  0  0  0  0  0  0  0
   39.1190   33.3670   40.0860 C   0  0  0  0  0  0  0  0  0  0  0  0
   38.9250   33.6700   41.3910 F   0  0  0  0  0  0  0  0  0  0  0  0
   39.7040   32.0990   39.9040 F   0  0  0  0  0  0  0  0  0  0  0  0
   39.9370   34.3490   39.5380 F   0  0  0  0  0  0  0  0  0  0  0  0
  1  6  1  0  0  0  0
  1 14  1  0  0  0  0
  2  1  2  0  0  0  0
  3  4  2  0  0  0  0
  3  2  1  0  0  0  0
  4  5  1  0  0  0  0
  5 31  1  0  0  0  0
  5  6  2  0  0  0  0
  7  3  1  0  0  0  0
  8  7  1  0  0  0  0
  9  7  1  0  0  0  0
 10 12  1  0  0  0  0
 10  2  1  0  0  0  0
 11 10  1  0  0  0  0
 13 10  1  0  0  0  0
 14 16  1  0  0  0  0
 15 24  1  0  0  0  0
 15 20  1  0  0  0  0
 16 15  2  0  0  0  0
 17 16  1  0  0  0  0
 17 18  2  0  0  0  0
 18 19  1  0  0  0  0
 19 20  2  0  0  0  0
 19 21  1  0  0  0  0
 20 26  1  0  0  0  0
 22 27  1  1  0  0  0
 22 21  1  0  0  0  0
 23 18  1  0  0  0  0
 23 22  1  0  0  0  0
 25 17  1  0  0  0  0
 28 22  1  0  0  0  0
 28 29  1  0  0  0  0
 30 28  1  0  0  0  0
 31 32  1  0  0  0  0
 32 33  1  0  0  0  0
 34 32  1  0  0  0  0
 35 32  1  0  0  0  0
M  END
>  <minimizedAffinity>
-5.84074306

$$$$

 OpenBabel03242515473D

 35 37  0  0  1  0  0  0  0  0999 V2000
   37.0320   27.1580   41.3460 C   0  0  0  0  0  0  0  0  0  0  0  0
   37.9210   27.0340   42.3590 C   0  0  0  0  0  0  0  0  0  0  0  0
   38.6150   25.8300   42.3810 C   0  0  0  0  0  0  0  0  0  0  0  0
   38.4080   24.8630   41.4640 N   0  0  0  0  0  0  0  0  0  0  0  0
   37.5080   25.0350   40.4760 C   0  0  0  0  0  0  0  0  0  0  0  0
   36.8440   26.1920   40.4520 N   0  0  0  0  0  0  0  0  0  0  0  0
   39.6080   25.5900   43.4030 N   0  0  0  0  0  0  0  0  0  0  0  0
   40.5780   25.5970   42.9960 H   0  0  0  0  0  0  0  0  0  0  0  0
   39.2730   25.4430   44.3940 H   0  0  0  0  0  0  0  0  0  0  0  0
   38.3260   27.8930   43.5050 C   0  0  0  0  0  0  0  0  0  0  0  0
   38.2780   27.2590   44.4420 H   0  0  0  0  0  0  0  0  0  0  0  0
   37.5350   28.6640   43.7230 H   0  0  0  0  0  0  0  0  0  0  0  0
   39.3380   28.2860   43.4470 H   0  0  0  0  0  0  0  0  0  0  0  0
   36.1300   28.7400   41.2700 S   0  0  0  0  0  0  0  0  0  0  0  0
   36.6680   31.2910   40.7370 C   0  0  0  0  0  0  0  0  0  0  0  0
   37.1830   30.0050   40.5660 C   0  0  0  0  0  0  0  0  0  0  0  0
   38.3880   29.7980   39.9260 C   0  0  0  0  0  0  0  0  0  0  0  0
   39.1100   30.8540   39.4430 C   0  0  0  0  0  0  0  0  0  0  0  0
   38.6120   32.1340   39.6060 C   0  0  0  0  0  0  0  0  0  0  0  0
   37.4240   32.3640   40.2330 C   0  0  0  0  0  0  0  0  0  0  0  0
   39.5500   33.0090   39.0200 O   0  0  0  0  0  0  0  0  0  0  0  0
   40.4590   32.2620   38.3070 C   0  0  1  0  0  0  0  0  0  0  0  0
   40.3360   30.9370   38.7660 O   0  0  0  0  0  0  0  0  0  0  0  0
   35.7370   31.5450   41.2210 H   0  0  0  0  0  0  0  0  0  0  0  0
   38.7040   28.7720   39.8410 H   0  0  0  0  0  0  0  0  0  0  0  0
   37.0470   33.3830   40.3510 H   0  0  0  0  0  0  0  0  0  0  0  0
   41.4710   32.6790   38.4960 H   0  0  0  0  0  0  0  0  0  0  0  0
   40.2000   32.3860   36.8900 N   0  0  0  0  0  0  0  0  0  0  0  0
   40.4010   33.3510   36.5470 H   0  0  0  0  0  0  0  0  0  0  0  0
   39.2160   32.1290   36.6420 H   0  0  0  0  0  0  0  0  0  0  0  0
   37.2210   24.1150   39.4960 O   0  0  0  0  0  0  0  0  0  0  0  0
   35.9770   23.4440   39.5740 C   0  0  0  0  0  0  0  0  0  0  0  0
   35.4310   23.5420   40.8080 F   0  0  0  0  0  0  0  0  0  0  0  0
   35.1580   23.9980   38.5710 F   0  0  0  0  0  0  0  0  0  0  0  0
   36.1990   22.0960   39.3130 F   0  0  0  0  0  0  0  0  0  0  0  0
  1  2  1  0  0  0  0
  2  3  2  0  0  0  0
  2 10  1  0  0  0  0
  3  7  1  0  0  0  0
  4  3  1  0  0  0  0
  5  4  2  0  0  0  0
  6  5  1  0  0  0  0
  6  1  2  0  0  0  0
  7  9  1  0  0  0  0
  8  7  1  0  0  0  0
 10 12  1  0  0  0  0
 10 11  1  0  0  0  0
 13 10  1  0  0  0  0
 14  1  1  0  0  0  0
 15 24  1  0  0  0  0
 16 15  1  0  0  0  0
 16 14  1  0  0  0  0
 17 16  2  0  0  0  0
 18 19  2  0  0  0  0
 18 17  1  0  0  0  0
 19 20  1  0  0  0  0
 20 26  1  0  0  0  0
 20 15  2  0  0  0  0
 21 19  1  0  0  0  0
 22 27  1  1  0  0  0
 22 23  1  0  0  0  0
 22 21  1  0  0  0  0
 23 18  1  0  0  0  0
 25 17  1  0  0  0  0
 28 22  1  0  0  0  0
 29 28  1  0  0  0  0
 30 28  1  0  0  0  0
 31 32  1  0  0  0  0
 31  5  1  0  0  0  0
 32 33  1  0  0  0  0
 34 32  1  0  0  0  0
 35 32  1  0  0  0  0
M  END
>  <minimizedAffinity>
-5.79137993

$$$$

 OpenBabel03242515473D

 35 37  0  0  1  0  0  0  0  0999 V2000
   37.3300   28.8980   38.9630 C   0  0  0  0  0  0  0  0  0  0  0  0
   36.0240   29.1090   38.6770 C   0  0  0  0  0  0  0  0  0  0  0  0
   35.1610   28.9700   39.7590 C   0  0  0  0  0  0  0  0  0  0  0  0
   35.6000   28.6460   40.9920 N   0  0  0  0  0  0  0  0  0  0  0  0
   36.9120   28.4440   41.2240 C   0  0  0  0  0  0  0  0  0  0  0  0
   37.7400   28.5800   40.1870 N   0  0  0  0  0  0  0  0  0  0  0  0
   33.7450   29.1920   39.5820 N   0  0  0  0  0  0  0  0  0  0  0  0
   33.4390   30.0800   40.0580 H   0  0  0  0  0  0  0  0  0  0  0  0
   33.1980   28.4810   39.0240 H   0  0  0  0  0  0  0  0  0  0  0  0
   35.2640   29.4340   37.4390 C   0  0  0  0  0  0  0  0  0  0  0  0
   34.4090   28.6960   37.3570 H   0  0  0  0  0  0  0  0  0  0  0  0
   35.8660   29.1740   36.5230 H   0  0  0  0  0  0  0  0  0  0  0  0
   34.8210   30.4270   37.4230 H   0  0  0  0  0  0  0  0  0  0  0  0
   38.4900   29.1040   37.5720 S   0  0  0  0  0  0  0  0  0  0  0  0
   38.9210   31.5270   38.5860 C   0  0  0  0  0  0  0  0  0  0  0  0
   39.5600   30.5070   37.8790 C   0  0  0  0  0  0  0  0  0  0  0  0
   40.8810   30.6210   37.4990 C   0  0  0  0  0  0  0  0  0  0  0  0
   41.6010   31.7430   37.8080 C   0  0  0  0  0  0  0  0  0  0  0  0
   40.9800   32.7610   38.5080 C   0  0  0  0  0  0  0  0  0  0  0  0
   39.6760   32.6720   38.8940 C   0  0  0  0  0  0  0  0  0  0  0  0
   41.9450   33.7750   38.6840 O   0  0  0  0  0  0  0  0  0  0  0  0
   43.0350   33.4830   37.8970 C   0  0  1  0  0  0  0  0  0  0  0  0
   42.9270   32.1210   37.5540 O   0  0  0  0  0  0  0  0  0  0  0  0
   37.8950   31.5230   38.9210 H   0  0  0  0  0  0  0  0  0  0  0  0
   41.2880   29.7830   36.9570 H   0  0  0  0  0  0  0  0  0  0  0  0
   39.2040   33.4880   39.4460 H   0  0  0  0  0  0  0  0  0  0  0  0
   43.9520   33.6950   38.4860 H   0  0  0  0  0  0  0  0  0  0  0  0
   43.0570   34.3480   36.7380 N   0  0  0  0  0  0  0  0  0  0  0  0
   43.2460   35.3390   37.0050 H   0  0  0  0  0  0  0  0  0  0  0  0
   42.1660   34.3010   36.1910 H   0  0  0  0  0  0  0  0  0  0  0  0
   37.4600   28.1100   42.4390 O   0  0  0  0  0  0  0  0  0  0  0  0
   37.2610   26.7880   42.9030 C   0  0  0  0  0  0  0  0  0  0  0  0
   36.1570   26.6890   43.6790 F   0  0  0  0  0  0  0  0  0  0  0  0
   37.1980   25.9650   41.7610 F   0  0  0  0  0  0  0  0  0  0  0  0
   38.3600   26.4350   43.6790 F   0  0  0  0  0  0  0  0  0  0  0  0
  1  6  1  0  0  0  0
  2  1  2  0  0  0  0
  2  3  1  0  0  0  0
  3  4  2  0  0  0  0
  4  5  1  0  0  0  0
  5 31  1  0  0  0  0
  6  5  2  0  0  0  0
  7  3  1  0  0  0  0
  7  8  1  0  0  0  0
  9  7  1  0  0  0  0
 10  2  1  0  0  0  0
 11 10  1  0  0  0  0
 12 10  1  0  0  0  0
 13 10  1  0  0  0  0
 14 16  1  0  0  0  0
 14  1  1  0  0  0  0
 15 20  1  0  0  0  0
 15 24  1  0  0  0  0
 16 15  2  0  0  0  0
 17 18  2  0  0  0  0
 17 16  1  0  0  0  0
 18 19  1  0  0  0  0
 19 21  1  0  0  0  0
 19 20  2  0  0  0  0
 20 26  1  0  0  0  0
 22 27  1  1  0  0  0
 22 21  1  0  0  0  0
 23 18  1  0  0  0  0
 23 22  1  0  0  0  0
 25 17  1  0  0  0  0
 28 29  1  0  0  0  0
 28 22  1  0  0  0  0
 30 28  1  0  0  0  0
 31 32  1  0  0  0  0
 32 33  1  0  0  0  0
 32 35  1  0  0  0  0
 34 32  1  0  0  0  0
M  END
>  <minimizedAffinity>
-5.74309254

$$$$

 OpenBabel03242515473D

 35 37  0  0  1  0  0  0  0  0999 V2000
   38.2690   31.5920   40.1540 C   0  0  0  0  0  0  0  0  0  0  0  0
   38.3460   31.6710   38.8060 C   0  0  0  0  0  0  0  0  0  0  0  0
   39.5620   32.1360   38.3180 C   0  0  0  0  0  0  0  0  0  0  0  0
   40.5780   32.4840   39.1320 N   0  0  0  0  0  0  0  0  0  0  0  0
   40.4500   32.3900   40.4700 C   0  0  0  0  0  0  0  0  0  0  0  0
   39.2850   31.9400   40.9390 N   0  0  0  0  0  0  0  0  0  0  0  0
   39.7710   32.2430   36.8920 N   0  0  0  0  0  0  0  0  0  0  0  0
   40.4530   31.5160   36.5550 H   0  0  0  0  0  0  0  0  0  0  0  0
   39.2460   32.9960   36.3690 H   0  0  0  0  0  0  0  0  0  0  0  0
   37.4020   31.3980   37.6880 C   0  0  0  0  0  0  0  0  0  0  0  0
   37.4000   32.3050   37.0100 H   0  0  0  0  0  0  0  0  0  0  0  0
   36.3380   31.3990   38.0560 H   0  0  0  0  0  0  0  0  0  0  0  0
   37.6650   30.5460   37.0650 H   0  0  0  0  0  0  0  0  0  0  0  0
   36.6990   30.9540   40.8250 S   0  0  0  0  0  0  0  0  0  0  0  0
   37.2680   29.0460   42.5910 C   0  0  0  0  0  0  0  0  0  0  0  0
   36.8830   29.2270   41.2610 C   0  0  0  0  0  0  0  0  0  0  0  0
   36.6680   28.1500   40.4260 C   0  0  0  0  0  0  0  0  0  0  0  0
   36.8270   26.8710   40.8850 C   0  0  0  0  0  0  0  0  0  0  0  0
   37.2080   26.6770   42.2000 C   0  0  0  0  0  0  0  0  0  0  0  0
   37.4280   27.7250   43.0430 C   0  0  0  0  0  0  0  0  0  0  0  0
   37.2940   25.2820   42.3930 O   0  0  0  0  0  0  0  0  0  0  0  0
   37.2130   24.6650   41.1660 C   0  0  1  0  0  0  0  0  0  0  0  0
   36.6810   25.6170   40.2740 O   0  0  0  0  0  0  0  0  0  0  0  0
   37.4580   29.8280   43.3100 H   0  0  0  0  0  0  0  0  0  0  0  0
   36.3740   28.3880   39.4180 H   0  0  0  0  0  0  0  0  0  0  0  0
   37.7290   27.5510   44.0790 H   0  0  0  0  0  0  0  0  0  0  0  0
   36.5550   23.7760   41.2700 H   0  0  0  0  0  0  0  0  0  0  0  0
   38.5170   24.1920   40.7600 N   0  0  0  0  0  0  0  0  0  0  0  0
   38.8470   23.4110   41.3700 H   0  0  0  0  0  0  0  0  0  0  0  0
   39.2340   24.9550   40.7580 H   0  0  0  0  0  0  0  0  0  0  0  0
   41.4210   32.7190   41.3850 O   0  0  0  0  0  0  0  0  0  0  0  0
   42.0880   31.6570   42.0410 C   0  0  0  0  0  0  0  0  0  0  0  0
   42.1080   30.5350   41.2850 F   0  0  0  0  0  0  0  0  0  0  0  0
   43.3790   32.1240   42.3550 F   0  0  0  0  0  0  0  0  0  0  0  0
   41.3910   31.3700   43.2100 F   0  0  0  0  0  0  0  0  0  0  0  0
  1 14  1  0  0  0  0
  1  6  1  0  0  0  0
  2  1  2  0  0  0  0
  3  2  1  0  0  0  0
  3  4  2  0  0  0  0
  4  5  1  0  0  0  0
  5  6  2  0  0  0  0
  5 31  1  0  0  0  0
  7  3  1  0  0  0  0
  8  7  1  0  0  0  0
  9  7  1  0  0  0  0
 10 12  1  0  0  0  0
 10  2  1  0  0  0  0
 11 10  1  0  0  0  0
 13 10  1  0  0  0  0
 14 16  1  0  0  0  0
 15 20  1  0  0  0  0
 15 24  1  0  0  0  0
 16 15  2  0  0  0  0
 17 18  2  0  0  0  0
 17 16  1  0  0  0  0
 18 19  1  0  0  0  0
 19 21  1  0  0  0  0
 19 20  2  0  0  0  0
 20 26  1  0  0  0  0
 22 27  1  1  0  0  0
 22 21  1  0  0  0  0
 23 18  1  0  0  0  0
 23 22  1  0  0  0  0
 25 17  1  0  0  0  0
 28 22  1  0  0  0  0
 28 29  1  0  0  0  0
 30 28  1  0  0  0  0
 31 32  1  0  0  0  0
 32 34  1  0  0  0  0
 32 35  1  0  0  0  0
 33 32  1  0  0  0  0
M  END
>  <minimizedAffinity>
-5.73155785

$$$$

 OpenBabel03242515473D

 35 37  0  0  1  0  0  0  0  0999 V2000
   38.9660   27.0110   42.8440 C   0  0  0  0  0  0  0  0  0  0  0  0
   40.2610   26.6860   43.0620 C   0  0  0  0  0  0  0  0  0  0  0  0
   40.5620   25.3400   42.8840 C   0  0  0  0  0  0  0  0  0  0  0  0
   39.6290   24.4360   42.5270 N   0  0  0  0  0  0  0  0  0  0  0  0
   38.3500   24.8100   42.3240 C   0  0  0  0  0  0  0  0  0  0  0  0
   38.0610   26.1020   42.4910 N   0  0  0  0  0  0  0  0  0  0  0  0
   41.9180   24.8760   43.0670 N   0  0  0  0  0  0  0  0  0  0  0  0
   42.3530   24.6080   42.1460 H   0  0  0  0  0  0  0  0  0  0  0  0
   42.3070   24.8580   44.0490 H   0  0  0  0  0  0  0  0  0  0  0  0
   41.4710   27.4420   43.4870 C   0  0  0  0  0  0  0  0  0  0  0  0
   41.9440   26.8760   44.3460 H   0  0  0  0  0  0  0  0  0  0  0  0
   41.1810   28.4050   43.9930 H   0  0  0  0  0  0  0  0  0  0  0  0
   42.2370   27.5450   42.7220 H   0  0  0  0  0  0  0  0  0  0  0  0
   38.5460   28.7740   43.0370 S   0  0  0  0  0  0  0  0  0  0  0  0
   39.9440   30.8810   42.2050 C   0  0  0  0  0  0  0  0  0  0  0  0
   39.3160   29.7270   41.7310 C   0  0  0  0  0  0  0  0  0  0  0  0
   39.3340   29.4040   40.3900 C   0  0  0  0  0  0  0  0  0  0  0  0
   39.9730   30.2100   39.4890 C   0  0  0  0  0  0  0  0  0  0  0  0
   40.5990   31.3560   39.9450 C   0  0  0  0  0  0  0  0  0  0  0  0
   40.5940   31.6970   41.2640 C   0  0  0  0  0  0  0  0  0  0  0  0
   41.1650   31.9820   38.8140 O   0  0  0  0  0  0  0  0  0  0  0  0
   40.6800   31.3660   37.6840 C   0  0  1  0  0  0  0  0  0  0  0  0
   40.1470   30.1310   38.0990 O   0  0  0  0  0  0  0  0  0  0  0  0
   39.9780   31.2100   43.2330 H   0  0  0  0  0  0  0  0  0  0  0  0
   38.8230   28.4960   40.1190 H   0  0  0  0  0  0  0  0  0  0  0  0
   41.0940   32.6070   41.6040 H   0  0  0  0  0  0  0  0  0  0  0  0
   41.5220   31.2410   36.9710 H   0  0  0  0  0  0  0  0  0  0  0  0
   39.6950   32.2090   37.0430 N   0  0  0  0  0  0  0  0  0  0  0  0
   40.1290   33.0710   36.6470 H   0  0  0  0  0  0  0  0  0  0  0  0
   38.9210   32.4800   37.6940 H   0  0  0  0  0  0  0  0  0  0  0  0
   37.3250   23.9690   41.9610 O   0  0  0  0  0  0  0  0  0  0  0  0
   37.1700   23.6870   40.5830 C   0  0  0  0  0  0  0  0  0  0  0  0
   37.9790   24.4560   39.8190 F   0  0  0  0  0  0  0  0  0  0  0  0
   37.4200   22.3100   40.4230 F   0  0  0  0  0  0  0  0  0  0  0  0
   35.8550   23.9720   40.2310 F   0  0  0  0  0  0  0  0  0  0  0  0
  1 14  1  0  0  0  0
  1  2  1  0  0  0  0
  2 10  1  0  0  0  0
  3  2  2  0  0  0  0
  3  7  1  0  0  0  0
  4  3  1  0  0  0  0
  5  6  1  0  0  0  0
  5  4  2  0  0  0  0
  6  1  2  0  0  0  0
  7  9  1  0  0  0  0
  8  7  1  0  0  0  0
 10 12  1  0  0  0  0
 10 11  1  0  0  0  0
 13 10  1  0  0  0  0
 15 24  1  0  0  0  0
 16 15  1  0  0  0  0
 16 14  1  0  0  0  0
 17 16  2  0  0  0  0
 18 19  2  0  0  0  0
 18 17  1  0  0  0  0
 19 20  1  0  0  0  0
 20 26  1  0  0  0  0
 20 15  2  0  0  0  0
 21 19  1  0  0  0  0
 22 27  1  6  0  0  0
 22 23  1  0  0  0  0
 22 21  1  0  0  0  0
 23 18  1  0  0  0  0
 25 17  1  0  0  0  0
 28 22  1  0  0  0  0
 28 30  1  0  0  0  0
 29 28  1  0  0  0  0
 31  5  1  0  0  0  0
 32 31  1  0  0  0  0
 33 32  1  0  0  0  0
 34 32  1  0  0  0  0
 35 32  1  0  0  0  0
M  END
>  <minimizedAffinity>
-5.62458754

$$$$

 OpenBabel03242515473D

 35 37  0  0  1  0  0  0  0  0999 V2000
   37.3850   30.8360   39.8270 C   0  0  0  0  0  0  0  0  0  0  0  0
   38.3850   31.7440   39.9010 C   0  0  0  0  0  0  0  0  0  0  0  0
   38.8880   32.1580   38.6730 C   0  0  0  0  0  0  0  0  0  0  0  0
   38.4140   31.6820   37.5040 N   0  0  0  0  0  0  0  0  0  0  0  0
   37.4180   30.7740   37.4850 C   0  0  0  0  0  0  0  0  0  0  0  0
   36.9320   30.3800   38.6630 N   0  0  0  0  0  0  0  0  0  0  0  0
   39.9440   33.1420   38.6230 N   0  0  0  0  0  0  0  0  0  0  0  0
   39.5870   34.0610   38.2520 H   0  0  0  0  0  0  0  0  0  0  0  0
   40.9070   32.8530   38.9470 H   0  0  0  0  0  0  0  0  0  0  0  0
   39.1170   32.4050   41.0170 C   0  0  0  0  0  0  0  0  0  0  0  0
   40.2250   32.2850   40.8190 H   0  0  0  0  0  0  0  0  0  0  0  0
   39.0000   31.8190   41.9710 H   0  0  0  0  0  0  0  0  0  0  0  0
   38.9320   33.4720   41.1150 H   0  0  0  0  0  0  0  0  0  0  0  0
   36.6810   30.2980   41.4200 S   0  0  0  0  0  0  0  0  0  0  0  0
   38.6460   28.8070   42.4220 C   0  0  0  0  0  0  0  0  0  0  0  0
   37.3630   28.7070   41.8790 C   0  0  0  0  0  0  0  0  0  0  0  0
   36.7360   27.4850   41.7490 C   0  0  0  0  0  0  0  0  0  0  0  0
   37.3600   26.3360   42.1520 C   0  0  0  0  0  0  0  0  0  0  0  0
   38.6300   26.4210   42.6920 C   0  0  0  0  0  0  0  0  0  0  0  0
   39.2700   27.6160   42.8300 C   0  0  0  0  0  0  0  0  0  0  0  0
   39.0190   25.1040   43.0140 O   0  0  0  0  0  0  0  0  0  0  0  0
   38.1160   24.2310   42.4540 C   0  0  1  0  0  0  0  0  0  0  0  0
   36.9710   24.9890   42.1390 O   0  0  0  0  0  0  0  0  0  0  0  0
   39.2090   29.7180   42.5590 H   0  0  0  0  0  0  0  0  0  0  0  0
   35.7490   27.5070   41.3180 H   0  0  0  0  0  0  0  0  0  0  0  0
   40.2750   27.6620   43.2590 H   0  0  0  0  0  0  0  0  0  0  0  0
   37.8990   23.4350   43.1980 H   0  0  0  0  0  0  0  0  0  0  0  0
   38.6960   23.5920   41.2940 N   0  0  0  0  0  0  0  0  0  0  0  0
   39.4750   22.9500   41.5610 H   0  0  0  0  0  0  0  0  0  0  0  0
   39.0440   24.2850   40.5910 H   0  0  0  0  0  0  0  0  0  0  0  0
   36.8660   30.2260   36.3520 O   0  0  0  0  0  0  0  0  0  0  0  0
   37.2200   28.8940   36.0320 C   0  0  0  0  0  0  0  0  0  0  0  0
   38.4640   28.5870   36.4670 F   0  0  0  0  0  0  0  0  0  0  0  0
   36.2280   28.0680   36.5970 F   0  0  0  0  0  0  0  0  0  0  0  0
   37.2090   28.7660   34.6480 F   0  0  0  0  0  0  0  0  0  0  0  0
  1  2  1  0  0  0  0
  1 14  1  0  0  0  0
  2 10  1  0  0  0  0
  3  2  2  0  0  0  0
  4  3  1  0  0  0  0
  5  4  2  0  0  0  0
  5  6  1  0  0  0  0
  6  1  2  0  0  0  0
  7  3  1  0  0  0  0
  7  9  1  0  0  0  0
  8  7  1  0  0  0  0
 10 13  1  0  0  0  0
 10 12  1  0  0  0  0
 11 10  1  0  0  0  0
 14 16  1  0  0  0  0
 15 24  1  0  0  0  0
 15 20  1  0  0  0  0
 16 15  2  0  0  0  0
 17 16  1  0  0  0  0
 17 18  2  0  0  0  0
 18 19  1  0  0  0  0
 19 20  2  0  0  0  0
 19 21  1  0  0  0  0
 20 26  1  0  0  0  0
 22 21  1  0  0  0  0
 22 27  1  1  0  0  0
 23 18  1  0  0  0  0
 23 22  1  0  0  0  0
 25 17  1  0  0  0  0
 28 29  1  0  0  0  0
 28 22  1  0  0  0  0
 30 28  1  0  0  0  0
 31  5  1  0  0  0  0
 32 31  1  0  0  0  0
 32 33  1  0  0  0  0
 32 34  1  0  0  0  0
 35 32  1  0  0  0  0
M  END
>  <minimizedAffinity>
-5.5095582

$$$$

 OpenBabel03242515473D

 35 37  0  0  1  0  0  0  0  0999 V2000
   36.2620   29.9910   38.8400 C   0  0  0  0  0  0  0  0  0  0  0  0
   37.0440   31.0200   38.4420 C   0  0  0  0  0  0  0  0  0  0  0  0
   37.3440   31.0330   37.0850 C   0  0  0  0  0  0  0  0  0  0  0  0
   36.8900   30.0870   36.2380 N   0  0  0  0  0  0  0  0  0  0  0  0
   36.1140   29.0800   36.6860 C   0  0  0  0  0  0  0  0  0  0  0  0
   35.8240   29.0680   37.9880 N   0  0  0  0  0  0  0  0  0  0  0  0
   38.1550   32.0960   36.5370 N   0  0  0  0  0  0  0  0  0  0  0  0
   37.5790   32.7380   35.9330 H   0  0  0  0  0  0  0  0  0  0  0  0
   39.1810   32.1170   36.7880 H   0  0  0  0  0  0  0  0  0  0  0  0
   37.7050   32.1590   39.1360 C   0  0  0  0  0  0  0  0  0  0  0  0
   38.7930   32.1670   38.8230 H   0  0  0  0  0  0  0  0  0  0  0  0
   37.7970   31.9540   40.2390 H   0  0  0  0  0  0  0  0  0  0  0  0
   37.3040   33.1390   38.8890 H   0  0  0  0  0  0  0  0  0  0  0  0
   35.8240   29.9640   40.6090 S   0  0  0  0  0  0  0  0  0  0  0  0
   37.9680   29.7860   42.1750 C   0  0  0  0  0  0  0  0  0  0  0  0
   37.0250   28.9950   41.5170 C   0  0  0  0  0  0  0  0  0  0  0  0
   37.0610   27.6190   41.6060 C   0  0  0  0  0  0  0  0  0  0  0  0
   38.0260   26.9940   42.3480 C   0  0  0  0  0  0  0  0  0  0  0  0
   38.9650   27.7660   43.0060 C   0  0  0  0  0  0  0  0  0  0  0  0
   38.9520   29.1260   42.9310 C   0  0  0  0  0  0  0  0  0  0  0  0
   39.8220   26.8700   43.6800 O   0  0  0  0  0  0  0  0  0  0  0  0
   39.5560   25.5940   43.2370 C   0  0  1  0  0  0  0  0  0  0  0  0
   38.2970   25.6430   42.6100 O   0  0  0  0  0  0  0  0  0  0  0  0
   38.0170   30.8640   42.1590 H   0  0  0  0  0  0  0  0  0  0  0  0
   36.2930   27.0930   41.0640 H   0  0  0  0  0  0  0  0  0  0  0  0
   39.7050   29.7190   43.4580 H   0  0  0  0  0  0  0  0  0  0  0  0
   39.5610   24.9160   44.1170 H   0  0  0  0  0  0  0  0  0  0  0  0
   40.6050   25.1500   42.3460 N   0  0  0  0  0  0  0  0  0  0  0  0
   41.5070   25.0160   42.8530 H   0  0  0  0  0  0  0  0  0  0  0  0
   40.7520   25.8100   41.5460 H   0  0  0  0  0  0  0  0  0  0  0  0
   35.6030   28.0680   35.9090 O   0  0  0  0  0  0  0  0  0  0  0  0
   34.2220   28.1150   35.6020 C   0  0  0  0  0  0  0  0  0  0  0  0
   33.4860   27.4070   36.4900 F   0  0  0  0  0  0  0  0  0  0  0  0
   33.8640   29.4770   35.5640 F   0  0  0  0  0  0  0  0  0  0  0  0
   34.0410   27.5430   34.3470 F   0  0  0  0  0  0  0  0  0  0  0  0
  1 14  1  0  0  0  0
  2  1  1  0  0  0  0
  2 10  1  0  0  0  0
  3  2  2  0  0  0  0
  4  5  2  0  0  0  0
  4  3  1  0  0  0  0
  5  6  1  0  0  0  0
  6  1  2  0  0  0  0
  7  9  1  0  0  0  0
  7  3  1  0  0  0  0
  8  7  1  0  0  0  0
 10 12  1  0  0  0  0
 11 10  1  0  0  0  0
 13 10  1  0  0  0  0
 14 16  1  0  0  0  0
 15 20  1  0  0  0  0
 16 17  1  0  0  0  0
 16 15  2  0  0  0  0
 17 18  2  0  0  0  0
 18 23  1  0  0  0  0
 18 19  1  0  0  0  0
 19 21  1  0  0  0  0
 20 19  2  0  0  0  0
 20 26  1  0  0  0  0
 22 21  1  0  0  0  0
 22 27  1  1  0  0  0
 23 22  1  0  0  0  0
 24 15  1  0  0  0  0
 25 17  1  0  0  0  0
 28 29  1  0  0  0  0
 28 22  1  0  0  0  0
 30 28  1  0  0  0  0
 31  5  1  0  0  0  0
 32 31  1  0  0  0  0
 32 33  1  0  0  0  0
 34 32  1  0  0  0  0
 35 32  1  0  0  0  0
M  END
>  <minimizedAffinity>
-5.50628233

$$$$
