
 OpenBabel03252508173D

 41 44  0  0  1  0  0  0  0  0999 V2000
   46.0370   33.0870   46.1690 C   0  0  0  0  0  0  0  0  0  0  0  0
   46.8370   32.1600   45.8500 C   0  0  0  0  0  0  0  0  0  0  0  0
   44.5290   35.9450   44.3960 C   0  0  0  0  0  0  0  0  0  0  0  0
   45.1630   35.9180   43.1610 C   0  0  0  0  0  0  0  0  0  0  0  0
   46.0720   34.9340   42.9780 C   0  0  0  0  0  0  0  0  0  0  0  0
   46.3340   34.0310   43.9690 N   0  0  0  0  0  0  0  0  0  0  0  0
   45.6980   34.0890   45.1570 C   0  0  0  0  0  0  0  0  0  0  0  0
   44.8090   35.0500   45.3370 N   0  0  0  0  0  0  0  0  0  0  0  0
   43.7910   36.7130   44.5970 H   0  0  0  0  0  0  0  0  0  0  0  0
   44.9400   36.6430   42.3920 H   0  0  0  0  0  0  0  0  0  0  0  0
   46.8200   34.7760   41.7330 C   0  0  0  0  0  0  0  0  0  0  0  0
   48.0350   35.3520   41.4720 C   0  0  0  0  0  0  0  0  0  0  0  0
   48.7330   35.1960   40.2940 C   0  0  0  0  0  0  0  0  0  0  0  0
   48.2010   34.4120   39.2850 C   0  0  0  0  0  0  0  0  0  0  0  0
   46.9880   33.8100   39.4860 C   0  0  0  0  0  0  0  0  0  0  0  0
   46.3340   34.0040   40.6920 C   0  0  0  0  0  0  0  0  0  0  0  0
   48.4770   35.9790   42.2580 H   0  0  0  0  0  0  0  0  0  0  0  0
   49.6940   35.7080   40.2060 H   0  0  0  0  0  0  0  0  0  0  0  0
   48.7870   34.3190   38.3790 H   0  0  0  0  0  0  0  0  0  0  0  0
   46.5860   33.2060   38.6990 H   0  0  0  0  0  0  0  0  0  0  0  0
   45.3820   33.4960   40.7760 H   0  0  0  0  0  0  0  0  0  0  0  0
   47.1120   31.1280   46.9220 C   0  0  0  0  0  0  0  0  0  0  0  0
   48.1040   30.7710   46.6870 H   0  0  0  0  0  0  0  0  0  0  0  0
   46.3560   30.3250   46.7770 H   0  0  0  0  0  0  0  0  0  0  0  0
   46.8940   31.7190   48.2800 C   0  0  1  0  0  0  0  0  0  0  0  0
   46.2530   30.8010   49.2680 C   0  0  0  0  0  0  0  0  0  0  0  0
   47.6480   31.1970   49.4360 C   0  0  1  0  0  0  0  0  0  0  0  0
   46.3440   32.7030   48.2910 H   0  0  0  0  0  0  0  0  0  0  0  0
   46.0640   29.7410   48.9740 H   0  0  0  0  0  0  0  0  0  0  0  0
   45.5220   31.1440   50.0190 H   0  0  0  0  0  0  0  0  0  0  0  0
   47.8690   31.9330   50.2380 H   0  0  0  0  0  0  0  0  0  0  0  0
   48.7700   30.2420   49.1740 C   0  0  2  0  0  0  0  0  0  0  0  0
   49.7320   30.0940   50.3800 C   0  0  0  0  0  0  0  0  0  0  0  0
   50.1910   30.8010   49.1740 C   0  0  1  0  0  0  0  0  0  0  0  0
   48.5750   29.2450   48.7310 H   0  0  0  0  0  0  0  0  0  0  0  0
   50.1490   29.1250   50.6340 H   0  0  0  0  0  0  0  0  0  0  0  0
   49.5650   30.7370   51.2640 H   0  0  0  0  0  0  0  0  0  0  0  0
   50.2870   31.9020   49.1240 H   0  0  0  0  0  0  0  0  0  0  0  0
   51.1520   30.0560   48.3490 N   0  0  0  0  0  0  0  0  0  0  0  0
   50.8150   29.0750   48.2060 H   0  0  0  0  0  0  0  0  0  0  0  0
   52.0190   29.9780   48.9420 H   0  0  0  0  0  0  0  0  0  0  0  0
  2  1  2  0  0  0  0
  2 22  1  0  0  0  0
  3  9  1  0  0  0  0
  3  8  1  0  0  0  0
  4  3  2  0  0  0  0
  5  4  1  0  0  0  0
  5  6  2  0  0  0  0
  6  7  1  0  0  0  0
  7  8  2  0  0  0  0
  7  1  1  0  0  0  0
 10  4  1  0  0  0  0
 11  5  1  0  0  0  0
 12 11  1  0  0  0  0
 12 17  1  0  0  0  0
 13 12  2  0  0  0  0
 14 15  2  0  0  0  0
 14 13  1  0  0  0  0
 15 16  1  0  0  0  0
 16 21  1  0  0  0  0
 16 11  2  0  0  0  0
 18 13  1  0  0  0  0
 19 14  1  0  0  0  0
 20 15  1  0  0  0  0
 22 25  1  0  0  0  0
 23 22  1  0  0  0  0
 24 22  1  0  0  0  0
 25 28  1  1  0  0  0
 25 26  1  0  0  0  0
 25 27  1  0  0  0  0
 26 27  1  0  0  0  0
 26 30  1  0  0  0  0
 27 31  1  1  0  0  0
 29 26  1  0  0  0  0
 32 35  1  6  0  0  0
 32 34  1  0  0  0  0
 32 27  1  0  0  0  0
 32 33  1  0  0  0  0
 33 36  1  0  0  0  0
 33 37  1  0  0  0  0
 34 38  1  1  0  0  0
 34 33  1  0  0  0  0
 39 41  1  0  0  0  0
 39 34  1  0  0  0  0
 40 39  1  0  0  0  0
M  END
>  <minimizedAffinity>
-6.17645931

>  <minimizedRMSD>
0.619474471

$$$$
