
 OpenBabel03252503203D

 33 35  0  0  0  0  0  0  0  0999 V2000
   37.1620   30.6810   41.1210 C   0  0  0  0  0  0  0  0  0  0  0  0
   36.0190   31.1960   41.2240 O   0  0  0  0  0  0  0  0  0  0  0  0
   38.3770   31.3830   40.6010 C   0  0  0  0  0  0  0  0  0  0  0  0
   38.7450   31.5350   39.2820 C   0  0  0  0  0  0  0  0  0  0  0  0
   39.8960   32.2280   39.3010 N   0  0  0  0  0  0  0  0  0  0  0  0
   40.2290   32.4940   40.5790 C   0  0  0  0  0  0  0  0  0  0  0  0
   39.2840   31.9700   41.3930 N   0  0  0  0  0  0  0  0  0  0  0  0
   41.3400   33.1910   41.1210 N   0  0  0  0  0  0  0  0  0  0  0  0
   38.2290   31.1800   38.4180 H   0  0  0  0  0  0  0  0  0  0  0  0
   42.2870   32.8050   41.0070 H   0  0  0  0  0  0  0  0  0  0  0  0
   41.1560   34.0980   41.6310 H   0  0  0  0  0  0  0  0  0  0  0  0
   40.7210   32.6650   38.2020 C   0  0  0  0  0  0  0  0  0  0  0  0
   41.7130   32.1840   38.1860 H   0  0  0  0  0  0  0  0  0  0  0  0
   40.7850   33.7760   38.2230 H   0  0  0  0  0  0  0  0  0  0  0  0
   39.9990   32.3630   36.9650 N   0  0  0  0  0  0  0  0  0  0  0  0
   39.6320   33.2200   36.5040 H   0  0  0  0  0  0  0  0  0  0  0  0
   40.6890   31.8950   36.3280 H   0  0  0  0  0  0  0  0  0  0  0  0
   37.8190   29.0040   42.7970 C   0  0  0  0  0  0  0  0  0  0  0  0
   37.2570   29.3320   41.5400 C   0  0  0  0  0  0  0  0  0  0  0  0
   36.8370   28.2200   40.8180 C   0  0  0  0  0  0  0  0  0  0  0  0
   36.9490   26.9670   41.2590 N   0  0  0  0  0  0  0  0  0  0  0  0
   37.5000   26.7250   42.4800 C   0  0  0  0  0  0  0  0  0  0  0  0
   37.9280   27.7470   43.2320 N   0  0  0  0  0  0  0  0  0  0  0  0
   38.1570   29.8420   43.3860 H   0  0  0  0  0  0  0  0  0  0  0  0
   37.6100   25.7430   42.8720 H   0  0  0  0  0  0  0  0  0  0  0  0
   36.2570   28.4480   39.5320 C   0  0  0  0  0  0  0  0  0  0  0  0
   35.0240   28.7530   39.0610 C   0  0  0  0  0  0  0  0  0  0  0  0
   34.7600   28.9120   37.7850 C   0  0  0  0  0  0  0  0  0  0  0  0
   35.7980   28.7520   36.9530 C   0  0  0  0  0  0  0  0  0  0  0  0
   37.2090   28.3610   38.0240 S   0  0  0  0  0  0  0  0  0  0  0  0
   34.2670   28.8540   39.8660 H   0  0  0  0  0  0  0  0  0  0  0  0
   33.7960   29.1550   37.3540 H   0  0  0  0  0  0  0  0  0  0  0  0
   35.8280   28.8370   35.7930 H   0  0  0  0  0  0  0  0  0  0  0  0
  1  2  2  0  0  0  0
  1 19  1  0  0  0  0
  3  1  1  0  0  0  0
  3  7  1  0  0  0  0
  4  5  1  0  0  0  0
  4  3  2  0  0  0  0
  5  6  1  0  0  0  0
  6  8  1  0  0  0  0
  6  7  2  0  0  0  0
  8 11  1  0  0  0  0
  9  4  1  0  0  0  0
 10  8  1  0  0  0  0
 12 14  1  0  0  0  0
 12  5  1  0  0  0  0
 13 12  1  0  0  0  0
 15 12  1  0  0  0  0
 16 15  1  0  0  0  0
 17 15  1  0  0  0  0
 18 23  1  0  0  0  0
 18 24  1  0  0  0  0
 19 18  2  0  0  0  0
 20 21  2  0  0  0  0
 20 19  1  0  0  0  0
 21 22  1  0  0  0  0
 22 25  1  0  0  0  0
 22 23  2  0  0  0  0
 26 20  1  0  0  0  0
 27 26  2  0  0  0  0
 27 31  1  0  0  0  0
 28 27  1  0  0  0  0
 29 28  2  0  0  0  0
 29 30  1  0  0  0  0
 30 26  1  0  0  0  0
 32 28  1  0  0  0  0
 33 29  1  0  0  0  0
M  END
>  <minimizedAffinity>
-5.39236212

$$$$

 OpenBabel03252503203D

 33 35  0  0  0  0  0  0  0  0999 V2000
   37.5050   30.8420   40.6100 C   0  0  0  0  0  0  0  0  0  0  0  0
   36.6810   31.7660   40.8350 O   0  0  0  0  0  0  0  0  0  0  0  0
   38.5320   30.8530   39.5220 C   0  0  0  0  0  0  0  0  0  0  0  0
   39.4410   29.8580   39.2320 C   0  0  0  0  0  0  0  0  0  0  0  0
   40.1510   30.3080   38.1830 N   0  0  0  0  0  0  0  0  0  0  0  0
   39.7010   31.5300   37.8370 C   0  0  0  0  0  0  0  0  0  0  0  0
   38.6920   31.8730   38.6700 N   0  0  0  0  0  0  0  0  0  0  0  0
   40.1170   32.4120   36.8070 N   0  0  0  0  0  0  0  0  0  0  0  0
   39.5630   28.9230   39.7310 H   0  0  0  0  0  0  0  0  0  0  0  0
   41.0600   32.8220   36.8380 H   0  0  0  0  0  0  0  0  0  0  0  0
   39.4340   32.6220   36.0280 H   0  0  0  0  0  0  0  0  0  0  0  0
   41.2320   29.6730   37.4700 C   0  0  0  0  0  0  0  0  0  0  0  0
   41.9670   29.1930   38.1370 H   0  0  0  0  0  0  0  0  0  0  0  0
   41.6970   30.4200   36.7890 H   0  0  0  0  0  0  0  0  0  0  0  0
   40.6420   28.6780   36.5740 N   0  0  0  0  0  0  0  0  0  0  0  0
   40.6900   28.9680   35.5770 H   0  0  0  0  0  0  0  0  0  0  0  0
   41.1980   27.7970   36.7060 H   0  0  0  0  0  0  0  0  0  0  0  0
   38.1960   29.6660   42.6580 C   0  0  0  0  0  0  0  0  0  0  0  0
   37.4140   29.7280   41.4800 C   0  0  0  0  0  0  0  0  0  0  0  0
   36.5980   28.6170   41.3010 C   0  0  0  0  0  0  0  0  0  0  0  0
   36.5500   27.5910   42.1520 N   0  0  0  0  0  0  0  0  0  0  0  0
   37.3300   27.5990   43.2670 C   0  0  0  0  0  0  0  0  0  0  0  0
   38.1430   28.6360   43.5040 N   0  0  0  0  0  0  0  0  0  0  0  0
   38.8430   30.5120   42.8290 H   0  0  0  0  0  0  0  0  0  0  0  0
   37.3250   26.8030   43.9720 H   0  0  0  0  0  0  0  0  0  0  0  0
   35.7710   28.5850   40.1370 C   0  0  0  0  0  0  0  0  0  0  0  0
   34.5700   29.1020   39.7810 C   0  0  0  0  0  0  0  0  0  0  0  0
   34.0230   28.9080   38.6030 C   0  0  0  0  0  0  0  0  0  0  0  0
   34.7300   28.1540   37.7520 C   0  0  0  0  0  0  0  0  0  0  0  0
   36.2350   27.7000   38.6570 S   0  0  0  0  0  0  0  0  0  0  0  0
   34.1030   29.7030   40.5880 H   0  0  0  0  0  0  0  0  0  0  0  0
   33.0700   29.2960   38.2670 H   0  0  0  0  0  0  0  0  0  0  0  0
   34.4710   27.8380   36.6620 H   0  0  0  0  0  0  0  0  0  0  0  0
  1  2  2  0  0  0  0
  1 19  1  0  0  0  0
  3  1  1  0  0  0  0
  4  3  2  0  0  0  0
  4  9  1  0  0  0  0
  5  4  1  0  0  0  0
  6  5  1  0  0  0  0
  6  7  2  0  0  0  0
  7  3  1  0  0  0  0
  8 10  1  0  0  0  0
  8  6  1  0  0  0  0
 11  8  1  0  0  0  0
 12 13  1  0  0  0  0
 12  5  1  0  0  0  0
 14 12  1  0  0  0  0
 15 17  1  0  0  0  0
 15 12  1  0  0  0  0
 16 15  1  0  0  0  0
 18 24  1  0  0  0  0
 18 23  1  0  0  0  0
 19 18  2  0  0  0  0
 20 19  1  0  0  0  0
 20 21  2  0  0  0  0
 21 22  1  0  0  0  0
 22 23  2  0  0  0  0
 22 25  1  0  0  0  0
 26 20  1  0  0  0  0
 27 26  2  0  0  0  0
 27 31  1  0  0  0  0
 28 27  1  0  0  0  0
 29 28  2  0  0  0  0
 29 30  1  0  0  0  0
 30 26  1  0  0  0  0
 32 28  1  0  0  0  0
 33 29  1  0  0  0  0
M  END
>  <minimizedAffinity>
-5.33036995

$$$$

 OpenBabel03252503203D

 33 35  0  0  0  0  0  0  0  0999 V2000
   35.7280   29.1090   39.6620 C   0  0  0  0  0  0  0  0  0  0  0  0
   34.6450   29.3210   40.2650 O   0  0  0  0  0  0  0  0  0  0  0  0
   36.7200   30.1620   39.2810 C   0  0  0  0  0  0  0  0  0  0  0  0
   37.9150   29.9740   38.6210 C   0  0  0  0  0  0  0  0  0  0  0  0
   38.4610   31.1960   38.5000 N   0  0  0  0  0  0  0  0  0  0  0  0
   37.6390   32.1040   39.0620 C   0  0  0  0  0  0  0  0  0  0  0  0
   36.5530   31.4630   39.5500 N   0  0  0  0  0  0  0  0  0  0  0  0
   37.7640   33.5120   39.1900 N   0  0  0  0  0  0  0  0  0  0  0  0
   38.3290   29.0540   38.2740 H   0  0  0  0  0  0  0  0  0  0  0  0
   38.5150   33.9050   39.7720 H   0  0  0  0  0  0  0  0  0  0  0  0
   37.0690   34.1200   38.6740 H   0  0  0  0  0  0  0  0  0  0  0  0
   39.7090   31.5850   37.8910 C   0  0  0  0  0  0  0  0  0  0  0  0
   40.3670   30.7290   37.6670 H   0  0  0  0  0  0  0  0  0  0  0  0
   40.2010   32.3440   38.5390 H   0  0  0  0  0  0  0  0  0  0  0  0
   39.3900   32.3080   36.6590 N   0  0  0  0  0  0  0  0  0  0  0  0
   39.5760   33.3280   36.7410 H   0  0  0  0  0  0  0  0  0  0  0  0
   40.0050   31.9020   35.9120 H   0  0  0  0  0  0  0  0  0  0  0  0
   35.5550   27.2110   38.1060 C   0  0  0  0  0  0  0  0  0  0  0  0
   35.9840   27.7540   39.3400 C   0  0  0  0  0  0  0  0  0  0  0  0
   36.6490   26.8340   40.1450 C   0  0  0  0  0  0  0  0  0  0  0  0
   36.8640   25.5660   39.7940 N   0  0  0  0  0  0  0  0  0  0  0  0
   36.4230   25.1120   38.5890 C   0  0  0  0  0  0  0  0  0  0  0  0
   35.7740   25.9410   37.7620 N   0  0  0  0  0  0  0  0  0  0  0  0
   35.0340   27.8960   37.4550 H   0  0  0  0  0  0  0  0  0  0  0  0
   36.5720   24.1090   38.2680 H   0  0  0  0  0  0  0  0  0  0  0  0
   37.1190   27.2870   41.4150 C   0  0  0  0  0  0  0  0  0  0  0  0
   36.5900   27.4300   42.6550 C   0  0  0  0  0  0  0  0  0  0  0  0
   37.2710   27.8870   43.6800 C   0  0  0  0  0  0  0  0  0  0  0  0
   38.5460   28.2120   43.4310 C   0  0  0  0  0  0  0  0  0  0  0  0
   38.7920   27.8560   41.6690 S   0  0  0  0  0  0  0  0  0  0  0  0
   35.5260   27.1210   42.7070 H   0  0  0  0  0  0  0  0  0  0  0  0
   36.8990   28.0210   44.6880 H   0  0  0  0  0  0  0  0  0  0  0  0
   39.3510   28.6340   44.1580 H   0  0  0  0  0  0  0  0  0  0  0  0
  1  2  2  0  0  0  0
  3  7  1  0  0  0  0
  3  1  1  0  0  0  0
  4  3  2  0  0  0  0
  5  4  1  0  0  0  0
  5  6  1  0  0  0  0
  6  8  1  0  0  0  0
  6  7  2  0  0  0  0
  8 10  1  0  0  0  0
  9  4  1  0  0  0  0
 11  8  1  0  0  0  0
 12  5  1  0  0  0  0
 12 14  1  0  0  0  0
 13 12  1  0  0  0  0
 15 16  1  0  0  0  0
 15 12  1  0  0  0  0
 17 15  1  0  0  0  0
 18 19  1  0  0  0  0
 19  1  1  0  0  0  0
 19 20  2  0  0  0  0
 20 26  1  0  0  0  0
 21 20  1  0  0  0  0
 22 21  2  0  0  0  0
 23 18  2  0  0  0  0
 23 22  1  0  0  0  0
 24 18  1  0  0  0  0
 25 22  1  0  0  0  0
 26 30  1  0  0  0  0
 26 27  2  0  0  0  0
 27 31  1  0  0  0  0
 27 28  1  0  0  0  0
 28 32  1  0  0  0  0
 29 28  2  0  0  0  0
 29 33  1  0  0  0  0
 30 29  1  0  0  0  0
M  END
>  <minimizedAffinity>
-5.3287859

$$$$

 OpenBabel03252503203D

 33 35  0  0  0  0  0  0  0  0999 V2000
   37.4610   28.0750   42.6270 C   0  0  0  0  0  0  0  0  0  0  0  0
   36.3890   27.7360   43.1940 O   0  0  0  0  0  0  0  0  0  0  0  0
   37.7280   29.4190   42.0270 C   0  0  0  0  0  0  0  0  0  0  0  0
   38.9320   30.0880   41.9980 C   0  0  0  0  0  0  0  0  0  0  0  0
   38.6910   31.2470   41.3610 N   0  0  0  0  0  0  0  0  0  0  0  0
   37.3910   31.2940   41.0100 C   0  0  0  0  0  0  0  0  0  0  0  0
   36.7880   30.1560   41.4230 N   0  0  0  0  0  0  0  0  0  0  0  0
   36.6530   32.2940   40.3260 N   0  0  0  0  0  0  0  0  0  0  0  0
   39.8670   29.7620   42.3960 H   0  0  0  0  0  0  0  0  0  0  0  0
   36.5160   33.2150   40.7640 H   0  0  0  0  0  0  0  0  0  0  0  0
   36.2610   32.0570   39.3730 H   0  0  0  0  0  0  0  0  0  0  0  0
   39.5940   32.3270   41.0530 C   0  0  0  0  0  0  0  0  0  0  0  0
   39.8310   32.4000   39.9780 H   0  0  0  0  0  0  0  0  0  0  0  0
   40.5050   32.2240   41.6840 H   0  0  0  0  0  0  0  0  0  0  0  0
   38.9680   33.5680   41.5120 N   0  0  0  0  0  0  0  0  0  0  0  0
   39.4350   33.9540   42.3570 H   0  0  0  0  0  0  0  0  0  0  0  0
   39.0570   34.2530   40.7230 H   0  0  0  0  0  0  0  0  0  0  0  0
   39.3230   26.8590   43.6790 C   0  0  0  0  0  0  0  0  0  0  0  0
   38.4600   27.0730   42.5790 C   0  0  0  0  0  0  0  0  0  0  0  0
   38.7110   26.2200   41.5090 C   0  0  0  0  0  0  0  0  0  0  0  0
   39.6670   25.2910   41.5140 N   0  0  0  0  0  0  0  0  0  0  0  0
   40.4610   25.1410   42.6090 C   0  0  0  0  0  0  0  0  0  0  0  0
   40.2780   25.9280   43.6770 N   0  0  0  0  0  0  0  0  0  0  0  0
   39.1580   27.5040   44.5290 H   0  0  0  0  0  0  0  0  0  0  0  0
   41.2360   24.4150   42.6570 H   0  0  0  0  0  0  0  0  0  0  0  0
   37.8930   26.3600   40.3470 C   0  0  0  0  0  0  0  0  0  0  0  0
   36.6960   25.8750   39.9340 C   0  0  0  0  0  0  0  0  0  0  0  0
   36.1570   26.1770   38.7760 C   0  0  0  0  0  0  0  0  0  0  0  0
   36.8690   27.0080   38.0040 C   0  0  0  0  0  0  0  0  0  0  0  0
   38.3660   27.3800   38.9590 S   0  0  0  0  0  0  0  0  0  0  0  0
   36.2250   25.2000   40.6790 H   0  0  0  0  0  0  0  0  0  0  0  0
   35.2080   25.8200   38.3980 H   0  0  0  0  0  0  0  0  0  0  0  0
   36.6170   27.4250   36.9470 H   0  0  0  0  0  0  0  0  0  0  0  0
  1  2  2  0  0  0  0
  3  1  1  0  0  0  0
  4  3  2  0  0  0  0
  4  9  1  0  0  0  0
  5  4  1  0  0  0  0
  6  5  1  0  0  0  0
  6  7  2  0  0  0  0
  7  3  1  0  0  0  0
  8 10  1  0  0  0  0
  8  6  1  0  0  0  0
 11  8  1  0  0  0  0
 12  5  1  0  0  0  0
 12 15  1  0  0  0  0
 12 14  1  0  0  0  0
 13 12  1  0  0  0  0
 15 16  1  0  0  0  0
 17 15  1  0  0  0  0
 18 24  1  0  0  0  0
 19  1  1  0  0  0  0
 19 18  2  0  0  0  0
 20 21  2  0  0  0  0
 20 19  1  0  0  0  0
 21 22  1  0  0  0  0
 22 25  1  0  0  0  0
 22 23  2  0  0  0  0
 23 18  1  0  0  0  0
 26 20  1  0  0  0  0
 27 26  2  0  0  0  0
 27 31  1  0  0  0  0
 28 27  1  0  0  0  0
 29 28  2  0  0  0  0
 29 30  1  0  0  0  0
 30 26  1  0  0  0  0
 32 28  1  0  0  0  0
 33 29  1  0  0  0  0
M  END
>  <minimizedAffinity>
-5.29036188

$$$$

 OpenBabel03252503203D

 33 35  0  0  0  0  0  0  0  0999 V2000
   37.0580   30.4610   40.4640 C   0  0  0  0  0  0  0  0  0  0  0  0
   36.2520   31.1820   41.1070 O   0  0  0  0  0  0  0  0  0  0  0  0
   37.9100   30.9290   39.3270 C   0  0  0  0  0  0  0  0  0  0  0  0
   39.2860   30.9060   39.2590 C   0  0  0  0  0  0  0  0  0  0  0  0
   39.6010   31.4210   38.0590 N   0  0  0  0  0  0  0  0  0  0  0  0
   38.4680   31.7500   37.4090 C   0  0  0  0  0  0  0  0  0  0  0  0
   37.4110   31.4450   38.1970 N   0  0  0  0  0  0  0  0  0  0  0  0
   38.2690   32.3210   36.1250 N   0  0  0  0  0  0  0  0  0  0  0  0
   39.9690   30.5540   40.0010 H   0  0  0  0  0  0  0  0  0  0  0  0
   38.5950   33.2790   35.9380 H   0  0  0  0  0  0  0  0  0  0  0  0
   37.7840   31.7350   35.3910 H   0  0  0  0  0  0  0  0  0  0  0  0
   40.8980   31.6330   37.4650 C   0  0  0  0  0  0  0  0  0  0  0  0
   41.0450   31.0650   36.5300 H   0  0  0  0  0  0  0  0  0  0  0  0
   41.6800   31.4110   38.2250 H   0  0  0  0  0  0  0  0  0  0  0  0
   41.0340   33.0670   37.2060 N   0  0  0  0  0  0  0  0  0  0  0  0
   41.7040   33.5220   37.8570 H   0  0  0  0  0  0  0  0  0  0  0  0
   41.3900   33.1560   36.2230 H   0  0  0  0  0  0  0  0  0  0  0  0
   37.8800   28.7520   42.0310 C   0  0  0  0  0  0  0  0  0  0  0  0
   37.1300   29.1120   40.8870 C   0  0  0  0  0  0  0  0  0  0  0  0
   36.5120   28.0290   40.2700 C   0  0  0  0  0  0  0  0  0  0  0  0
   36.6110   26.7740   40.7090 N   0  0  0  0  0  0  0  0  0  0  0  0
   37.3510   26.5000   41.8190 C   0  0  0  0  0  0  0  0  0  0  0  0
   37.9750   27.4940   42.4640 N   0  0  0  0  0  0  0  0  0  0  0  0
   38.3740   29.5670   42.5360 H   0  0  0  0  0  0  0  0  0  0  0  0
   37.4580   25.5150   42.2040 H   0  0  0  0  0  0  0  0  0  0  0  0
   35.7330   28.2900   39.1020 C   0  0  0  0  0  0  0  0  0  0  0  0
   34.4960   28.7830   38.8470 C   0  0  0  0  0  0  0  0  0  0  0  0
   34.0120   28.9210   37.6340 C   0  0  0  0  0  0  0  0  0  0  0  0
   34.8230   28.5390   36.6390 C   0  0  0  0  0  0  0  0  0  0  0  0
   36.3370   27.9610   37.4540 S   0  0  0  0  0  0  0  0  0  0  0  0
   33.9420   29.0560   39.7690 H   0  0  0  0  0  0  0  0  0  0  0  0
   33.0350   29.3080   37.3740 H   0  0  0  0  0  0  0  0  0  0  0  0
   34.6350   28.5590   35.4910 H   0  0  0  0  0  0  0  0  0  0  0  0
  1 19  1  0  0  0  0
  1  2  2  0  0  0  0
  3  1  1  0  0  0  0
  4  3  2  0  0  0  0
  4  9  1  0  0  0  0
  5  4  1  0  0  0  0
  6  5  1  0  0  0  0
  6  7  2  0  0  0  0
  7  3  1  0  0  0  0
  8  6  1  0  0  0  0
 10  8  1  0  0  0  0
 11  8  1  0  0  0  0
 12  5  1  0  0  0  0
 12 14  1  0  0  0  0
 13 12  1  0  0  0  0
 15 12  1  0  0  0  0
 15 16  1  0  0  0  0
 17 15  1  0  0  0  0
 18 23  1  0  0  0  0
 18 24  1  0  0  0  0
 19 18  2  0  0  0  0
 20 21  2  0  0  0  0
 20 19  1  0  0  0  0
 21 22  1  0  0  0  0
 22 25  1  0  0  0  0
 22 23  2  0  0  0  0
 26 20  1  0  0  0  0
 27 26  2  0  0  0  0
 27 31  1  0  0  0  0
 28 27  1  0  0  0  0
 29 30  1  0  0  0  0
 29 28  2  0  0  0  0
 30 26  1  0  0  0  0
 32 28  1  0  0  0  0
 33 29  1  0  0  0  0
M  END
>  <minimizedAffinity>
-5.21851063

$$$$

 OpenBabel03252503203D

 33 35  0  0  0  0  0  0  0  0999 V2000
   36.0370   29.3930   39.5710 C   0  0  0  0  0  0  0  0  0  0  0  0
   35.0770   29.7650   40.2940 O   0  0  0  0  0  0  0  0  0  0  0  0
   37.1160   30.2890   39.0480 C   0  0  0  0  0  0  0  0  0  0  0  0
   38.2220   30.7410   39.7340 C   0  0  0  0  0  0  0  0  0  0  0  0
   38.9010   31.5100   38.8660 N   0  0  0  0  0  0  0  0  0  0  0  0
   38.2430   31.5340   37.6900 C   0  0  0  0  0  0  0  0  0  0  0  0
   37.1300   30.7730   37.8000 N   0  0  0  0  0  0  0  0  0  0  0  0
   38.5480   32.1940   36.4720 N   0  0  0  0  0  0  0  0  0  0  0  0
   38.4920   30.5300   40.7450 H   0  0  0  0  0  0  0  0  0  0  0  0
   38.5470   33.2220   36.4360 H   0  0  0  0  0  0  0  0  0  0  0  0
   38.7700   31.5980   35.6270 H   0  0  0  0  0  0  0  0  0  0  0  0
   40.1340   32.2340   39.0530 C   0  0  0  0  0  0  0  0  0  0  0  0
   40.8840   32.0210   38.2740 H   0  0  0  0  0  0  0  0  0  0  0  0
   40.5150   32.0310   40.0790 H   0  0  0  0  0  0  0  0  0  0  0  0
   39.8080   33.6610   39.0580 N   0  0  0  0  0  0  0  0  0  0  0  0
   39.8880   34.0790   40.0070 H   0  0  0  0  0  0  0  0  0  0  0  0
   40.4990   34.1230   38.4170 H   0  0  0  0  0  0  0  0  0  0  0  0
   35.5090   27.5410   38.0400 C   0  0  0  0  0  0  0  0  0  0  0  0
   36.0570   28.0130   39.2570 C   0  0  0  0  0  0  0  0  0  0  0  0
   36.5820   27.0010   40.0530 C   0  0  0  0  0  0  0  0  0  0  0  0
   36.5750   25.7120   39.7100 N   0  0  0  0  0  0  0  0  0  0  0  0
   36.0310   25.3300   38.5220 C   0  0  0  0  0  0  0  0  0  0  0  0
   35.5050   26.2500   37.7040 N   0  0  0  0  0  0  0  0  0  0  0  0
   35.0910   28.2990   37.3960 H   0  0  0  0  0  0  0  0  0  0  0  0
   36.0030   24.3150   38.2080 H   0  0  0  0  0  0  0  0  0  0  0  0
   37.1560   27.3760   41.3060 C   0  0  0  0  0  0  0  0  0  0  0  0
   36.6890   27.6430   42.5500 C   0  0  0  0  0  0  0  0  0  0  0  0
   37.4650   27.9780   43.5540 C   0  0  0  0  0  0  0  0  0  0  0  0
   38.7740   28.0430   43.2790 C   0  0  0  0  0  0  0  0  0  0  0  0
   38.9130   27.6120   41.5220 S   0  0  0  0  0  0  0  0  0  0  0  0
   35.5860   27.5490   42.6260 H   0  0  0  0  0  0  0  0  0  0  0  0
   37.1460   28.2010   44.5640 H   0  0  0  0  0  0  0  0  0  0  0  0
   39.6600   28.3130   43.9840 H   0  0  0  0  0  0  0  0  0  0  0  0
  1  2  2  0  0  0  0
  3  1  1  0  0  0  0
  3  4  2  0  0  0  0
  4  9  1  0  0  0  0
  5 12  1  0  0  0  0
  5  4  1  0  0  0  0
  6  7  2  0  0  0  0
  6  5  1  0  0  0  0
  7  3  1  0  0  0  0
  8  6  1  0  0  0  0
 10  8  1  0  0  0  0
 11  8  1  0  0  0  0
 12 15  1  0  0  0  0
 12 14  1  0  0  0  0
 13 12  1  0  0  0  0
 15 16  1  0  0  0  0
 17 15  1  0  0  0  0
 18 19  1  0  0  0  0
 19  1  1  0  0  0  0
 19 20  2  0  0  0  0
 20 26  1  0  0  0  0
 21 20  1  0  0  0  0
 22 21  2  0  0  0  0
 23 18  2  0  0  0  0
 23 22  1  0  0  0  0
 24 18  1  0  0  0  0
 25 22  1  0  0  0  0
 26 30  1  0  0  0  0
 26 27  2  0  0  0  0
 27 31  1  0  0  0  0
 27 28  1  0  0  0  0
 28 32  1  0  0  0  0
 29 28  2  0  0  0  0
 29 33  1  0  0  0  0
 30 29  1  0  0  0  0
M  END
>  <minimizedAffinity>
-5.16998148

$$$$

 OpenBabel03252503203D

 33 35  0  0  0  0  0  0  0  0999 V2000
   37.1570   30.8210   40.5360 C   0  0  0  0  0  0  0  0  0  0  0  0
   36.1670   31.0200   41.2870 O   0  0  0  0  0  0  0  0  0  0  0  0
   37.0790   30.5170   39.0730 C   0  0  0  0  0  0  0  0  0  0  0  0
   36.7170   29.3190   38.4950 C   0  0  0  0  0  0  0  0  0  0  0  0
   36.7920   29.5170   37.1680 N   0  0  0  0  0  0  0  0  0  0  0  0
   37.1850   30.7840   36.9330 C   0  0  0  0  0  0  0  0  0  0  0  0
   37.3650   31.4100   38.1190 N   0  0  0  0  0  0  0  0  0  0  0  0
   37.4100   31.4730   35.7130 N   0  0  0  0  0  0  0  0  0  0  0  0
   36.4330   28.4170   38.9900 H   0  0  0  0  0  0  0  0  0  0  0  0
   38.1740   31.1740   35.0930 H   0  0  0  0  0  0  0  0  0  0  0  0
   36.7740   32.2840   35.4760 H   0  0  0  0  0  0  0  0  0  0  0  0
   36.5210   28.6000   36.0890 C   0  0  0  0  0  0  0  0  0  0  0  0
   35.6680   28.9090   35.4610 H   0  0  0  0  0  0  0  0  0  0  0  0
   36.3920   27.5790   36.5110 H   0  0  0  0  0  0  0  0  0  0  0  0
   37.7340   28.5100   35.2750 N   0  0  0  0  0  0  0  0  0  0  0  0
   38.2190   27.5980   35.3920 H   0  0  0  0  0  0  0  0  0  0  0  0
   37.4280   28.6140   34.2760 H   0  0  0  0  0  0  0  0  0  0  0  0
   39.2770   32.0050   40.9360 C   0  0  0  0  0  0  0  0  0  0  0  0
   38.4210   30.9030   41.1700 C   0  0  0  0  0  0  0  0  0  0  0  0
   38.9550   29.9680   42.0510 C   0  0  0  0  0  0  0  0  0  0  0  0
   40.1530   30.0930   42.6230 N   0  0  0  0  0  0  0  0  0  0  0  0
   40.9240   31.1810   42.3510 C   0  0  0  0  0  0  0  0  0  0  0  0
   40.4750   32.1220   41.5110 N   0  0  0  0  0  0  0  0  0  0  0  0
   38.8960   32.7510   40.2560 H   0  0  0  0  0  0  0  0  0  0  0  0
   41.8850   31.3220   42.7830 H   0  0  0  0  0  0  0  0  0  0  0  0
   38.1660   28.8160   42.3500 C   0  0  0  0  0  0  0  0  0  0  0  0
   37.2870   28.4620   43.3200 C   0  0  0  0  0  0  0  0  0  0  0  0
   36.6840   27.2970   43.3550 C   0  0  0  0  0  0  0  0  0  0  0  0
   36.9890   26.4560   42.3580 C   0  0  0  0  0  0  0  0  0  0  0  0
   38.1810   27.3530   41.3270 S   0  0  0  0  0  0  0  0  0  0  0  0
   37.1360   29.2600   44.0760 H   0  0  0  0  0  0  0  0  0  0  0  0
   35.9760   26.9630   44.1030 H   0  0  0  0  0  0  0  0  0  0  0  0
   36.5960   25.3780   42.1620 H   0  0  0  0  0  0  0  0  0  0  0  0
  1 19  1  0  0  0  0
  1  2  2  0  0  0  0
  3  1  1  0  0  0  0
  4  9  1  0  0  0  0
  4  3  2  0  0  0  0
  5  4  1  0  0  0  0
  6  5  1  0  0  0  0
  6  7  2  0  0  0  0
  7  3  1  0  0  0  0
  8  6  1  0  0  0  0
 10  8  1  0  0  0  0
 11  8  1  0  0  0  0
 12 14  1  0  0  0  0
 12  5  1  0  0  0  0
 13 12  1  0  0  0  0
 15 16  1  0  0  0  0
 15 12  1  0  0  0  0
 17 15  1  0  0  0  0
 18 19  2  0  0  0  0
 18 23  1  0  0  0  0
 19 20  1  0  0  0  0
 20 26  1  0  0  0  0
 20 21  2  0  0  0  0
 22 21  1  0  0  0  0
 22 25  1  0  0  0  0
 23 22  2  0  0  0  0
 24 18  1  0  0  0  0
 26 27  2  0  0  0  0
 27 28  1  0  0  0  0
 27 31  1  0  0  0  0
 28 32  1  0  0  0  0
 29 28  2  0  0  0  0
 30 26  1  0  0  0  0
 30 29  1  0  0  0  0
 33 29  1  0  0  0  0
M  END
>  <minimizedAffinity>
-5.1409955

$$$$

 OpenBabel03252503203D

 33 35  0  0  0  0  0  0  0  0999 V2000
   39.1090   28.6020   40.0750 C   0  0  0  0  0  0  0  0  0  0  0  0
   39.7000   27.6440   39.5130 O   0  0  0  0  0  0  0  0  0  0  0  0
   39.1140   30.0170   39.5920 C   0  0  0  0  0  0  0  0  0  0  0  0
   38.9270   31.1520   40.3510 C   0  0  0  0  0  0  0  0  0  0  0  0
   39.0140   32.1830   39.4940 N   0  0  0  0  0  0  0  0  0  0  0  0
   39.2450   31.7080   38.2540 C   0  0  0  0  0  0  0  0  0  0  0  0
   39.3080   30.3580   38.3120 N   0  0  0  0  0  0  0  0  0  0  0  0
   39.4140   32.3860   37.0200 N   0  0  0  0  0  0  0  0  0  0  0  0
   38.7500   31.2100   41.4020 H   0  0  0  0  0  0  0  0  0  0  0  0
   38.6280   32.9130   36.6170 H   0  0  0  0  0  0  0  0  0  0  0  0
   40.3580   32.3260   36.5460 H   0  0  0  0  0  0  0  0  0  0  0  0
   38.8960   33.5980   39.7480 C   0  0  0  0  0  0  0  0  0  0  0  0
   39.6820   34.1940   39.2530 H   0  0  0  0  0  0  0  0  0  0  0  0
   38.8650   33.7620   40.8480 H   0  0  0  0  0  0  0  0  0  0  0  0
   37.5760   34.0200   39.2770 N   0  0  0  0  0  0  0  0  0  0  0  0
   36.9290   34.2340   40.0620 H   0  0  0  0  0  0  0  0  0  0  0  0
   37.7300   34.8880   38.7070 H   0  0  0  0  0  0  0  0  0  0  0  0
   39.0750   28.1170   42.4870 C   0  0  0  0  0  0  0  0  0  0  0  0
   38.3990   28.2640   41.2530 C   0  0  0  0  0  0  0  0  0  0  0  0
   37.0290   28.0440   41.3460 C   0  0  0  0  0  0  0  0  0  0  0  0
   36.4080   27.7270   42.4820 N   0  0  0  0  0  0  0  0  0  0  0  0
   37.1220   27.6030   43.6340 C   0  0  0  0  0  0  0  0  0  0  0  0
   38.4470   27.7990   43.6200 N   0  0  0  0  0  0  0  0  0  0  0  0
   40.1420   28.2790   42.4530 H   0  0  0  0  0  0  0  0  0  0  0  0
   36.6690   27.3510   44.5620 H   0  0  0  0  0  0  0  0  0  0  0  0
   36.2580   28.1670   40.1500 C   0  0  0  0  0  0  0  0  0  0  0  0
   35.4590   29.1140   39.5990 C   0  0  0  0  0  0  0  0  0  0  0  0
   34.8500   28.9600   38.4470 C   0  0  0  0  0  0  0  0  0  0  0  0
   35.0630   27.7900   37.8290 C   0  0  0  0  0  0  0  0  0  0  0  0
   36.1740   26.8680   38.9270 S   0  0  0  0  0  0  0  0  0  0  0  0
   35.3790   30.0260   40.2250 H   0  0  0  0  0  0  0  0  0  0  0  0
   34.2040   29.6810   37.9620 H   0  0  0  0  0  0  0  0  0  0  0  0
   34.6450   27.4120   36.8110 H   0  0  0  0  0  0  0  0  0  0  0  0
  1 19  1  0  0  0  0
  2  1  2  0  0  0  0
  3  1  1  0  0  0  0
  3  4  2  0  0  0  0
  4  9  1  0  0  0  0
  5 12  1  0  0  0  0
  5  4  1  0  0  0  0
  6  7  2  0  0  0  0
  6  5  1  0  0  0  0
  7  3  1  0  0  0  0
  8  6  1  0  0  0  0
 10  8  1  0  0  0  0
 11  8  1  0  0  0  0
 12 14  1  0  0  0  0
 13 12  1  0  0  0  0
 15 12  1  0  0  0  0
 15 16  1  0  0  0  0
 17 15  1  0  0  0  0
 18 23  1  0  0  0  0
 19 20  1  0  0  0  0
 19 18  2  0  0  0  0
 20 21  2  0  0  0  0
 21 22  1  0  0  0  0
 22 25  1  0  0  0  0
 23 22  2  0  0  0  0
 24 18  1  0  0  0  0
 26 20  1  0  0  0  0
 27 26  2  0  0  0  0
 27 31  1  0  0  0  0
 28 27  1  0  0  0  0
 29 28  2  0  0  0  0
 29 30  1  0  0  0  0
 30 26  1  0  0  0  0
 32 28  1  0  0  0  0
 33 29  1  0  0  0  0
M  END
>  <minimizedAffinity>
-5.0313282

$$$$

 OpenBabel03252503203D

 33 35  0  0  0  0  0  0  0  0999 V2000
   36.8490   30.6870   40.4390 C   0  0  0  0  0  0  0  0  0  0  0  0
   35.9700   31.0570   41.2590 O   0  0  0  0  0  0  0  0  0  0  0  0
   38.1790   31.3460   40.2470 C   0  0  0  0  0  0  0  0  0  0  0  0
   39.2140   31.4000   41.1550 C   0  0  0  0  0  0  0  0  0  0  0  0
   40.1960   32.0880   40.5480 N   0  0  0  0  0  0  0  0  0  0  0  0
   39.7860   32.4470   39.3160 C   0  0  0  0  0  0  0  0  0  0  0  0
   38.5290   31.9850   39.1250 N   0  0  0  0  0  0  0  0  0  0  0  0
   40.4490   33.1770   38.2960 N   0  0  0  0  0  0  0  0  0  0  0  0
   39.2400   30.9840   42.1380 H   0  0  0  0  0  0  0  0  0  0  0  0
   40.6870   34.1660   38.4500 H   0  0  0  0  0  0  0  0  0  0  0  0
   40.6820   32.6720   37.3960 H   0  0  0  0  0  0  0  0  0  0  0  0
   41.5050   32.4420   41.0400 C   0  0  0  0  0  0  0  0  0  0  0  0
   42.3220   32.0930   40.3860 H   0  0  0  0  0  0  0  0  0  0  0  0
   41.6070   32.0720   42.0840 H   0  0  0  0  0  0  0  0  0  0  0  0
   41.5490   33.9000   41.1610 N   0  0  0  0  0  0  0  0  0  0  0  0
   41.5350   34.2130   42.1530 H   0  0  0  0  0  0  0  0  0  0  0  0
   42.4480   34.2060   40.7140 H   0  0  0  0  0  0  0  0  0  0  0  0
   35.9900   29.7070   38.3520 C   0  0  0  0  0  0  0  0  0  0  0  0
   36.5080   29.5550   39.6600 C   0  0  0  0  0  0  0  0  0  0  0  0
   36.6290   28.2260   40.0530 C   0  0  0  0  0  0  0  0  0  0  0  0
   36.2920   27.1930   39.2790 N   0  0  0  0  0  0  0  0  0  0  0  0
   35.8000   27.4150   38.0300 C   0  0  0  0  0  0  0  0  0  0  0  0
   35.6550   28.6690   37.5840 N   0  0  0  0  0  0  0  0  0  0  0  0
   35.8810   30.7250   38.0120 H   0  0  0  0  0  0  0  0  0  0  0  0
   35.5180   26.6230   37.3790 H   0  0  0  0  0  0  0  0  0  0  0  0
   37.1410   27.9680   41.3610 C   0  0  0  0  0  0  0  0  0  0  0  0
   36.6210   27.8760   42.6100 C   0  0  0  0  0  0  0  0  0  0  0  0
   37.3460   27.6200   43.6740 C   0  0  0  0  0  0  0  0  0  0  0  0
   38.6570   27.4500   43.4560 C   0  0  0  0  0  0  0  0  0  0  0  0
   38.8730   27.6620   41.6680 S   0  0  0  0  0  0  0  0  0  0  0  0
   35.5240   28.0400   42.6330 H   0  0  0  0  0  0  0  0  0  0  0  0
   36.9840   27.5360   44.6910 H   0  0  0  0  0  0  0  0  0  0  0  0
   39.5030   27.2170   44.2200 H   0  0  0  0  0  0  0  0  0  0  0  0
  1  2  2  0  0  0  0
  3  1  1  0  0  0  0
  3  4  2  0  0  0  0
  4  9  1  0  0  0  0
  5 12  1  0  0  0  0
  5  4  1  0  0  0  0
  6  5  1  0  0  0  0
  7  6  2  0  0  0  0
  7  3  1  0  0  0  0
  8 10  1  0  0  0  0
  8  6  1  0  0  0  0
 11  8  1  0  0  0  0
 12 15  1  0  0  0  0
 12 14  1  0  0  0  0
 13 12  1  0  0  0  0
 15 16  1  0  0  0  0
 17 15  1  0  0  0  0
 18 19  1  0  0  0  0
 19 20  2  0  0  0  0
 19  1  1  0  0  0  0
 20 26  1  0  0  0  0
 21 20  1  0  0  0  0
 22 21  2  0  0  0  0
 23 22  1  0  0  0  0
 23 18  2  0  0  0  0
 24 18  1  0  0  0  0
 25 22  1  0  0  0  0
 26 30  1  0  0  0  0
 26 27  2  0  0  0  0
 27 31  1  0  0  0  0
 27 28  1  0  0  0  0
 28 32  1  0  0  0  0
 29 28  2  0  0  0  0
 29 33  1  0  0  0  0
 30 29  1  0  0  0  0
M  END
>  <minimizedAffinity>
-5.01675844

$$$$
