
 OpenBabel03252500043D

 39 41  0  0  0  0  0  0  0  0999 V2000
   44.6420   35.1250   45.2760 C   0  0  0  0  0  0  0  0  0  0  0  0
   45.1630   35.2070   43.9920 C   0  0  0  0  0  0  0  0  0  0  0  0
   46.2010   34.3640   43.6200 C   0  0  0  0  0  0  0  0  0  0  0  0
   46.6090   33.5120   44.6030 N   0  0  0  0  0  0  0  0  0  0  0  0
   46.1120   33.4390   45.8160 C   0  0  0  0  0  0  0  0  0  0  0  0
   45.1270   34.2540   46.1380 N   0  0  0  0  0  0  0  0  0  0  0  0
   43.8250   35.8030   45.5370 H   0  0  0  0  0  0  0  0  0  0  0  0
   46.8400   34.3200   42.3470 C   0  0  0  0  0  0  0  0  0  0  0  0
   47.8580   35.2360   42.1270 C   0  0  0  0  0  0  0  0  0  0  0  0
   48.5840   35.3350   40.9560 C   0  0  0  0  0  0  0  0  0  0  0  0
   48.3220   34.5050   39.9250 C   0  0  0  0  0  0  0  0  0  0  0  0
   47.3220   33.5650   40.0690 C   0  0  0  0  0  0  0  0  0  0  0  0
   47.0020   32.6960   39.0710 C   0  0  0  0  0  0  0  0  0  0  0  0
   46.0170   31.7500   39.1720 C   0  0  0  0  0  0  0  0  0  0  0  0
   45.3230   31.7060   40.3820 C   0  0  0  0  0  0  0  0  0  0  0  0
   45.6660   32.6020   41.3880 C   0  0  0  0  0  0  0  0  0  0  0  0
   46.6330   33.5160   41.2620 C   0  0  0  0  0  0  0  0  0  0  0  0
   48.1560   35.9590   42.8940 H   0  0  0  0  0  0  0  0  0  0  0  0
   49.3710   36.0650   40.8270 H   0  0  0  0  0  0  0  0  0  0  0  0
   48.8760   34.5670   39.0070 H   0  0  0  0  0  0  0  0  0  0  0  0
   47.5560   32.7520   38.1430 H   0  0  0  0  0  0  0  0  0  0  0  0
   45.7980   31.0810   38.3530 H   0  0  0  0  0  0  0  0  0  0  0  0
   44.5520   30.9510   40.4380 H   0  0  0  0  0  0  0  0  0  0  0  0
   44.8490   32.4110   42.5410 N   0  0  0  0  0  0  0  0  0  0  0  0
   45.3390   31.6130   43.0490 H   0  0  0  0  0  0  0  0  0  0  0  0
   43.9820   32.8450   42.9140 H   0  0  0  0  0  0  0  0  0  0  0  0
   46.7560   32.4020   46.6900 C   0  0  0  0  0  0  0  0  0  0  0  0
   45.8180   31.6340   47.3210 F   0  0  0  0  0  0  0  0  0  0  0  0
   47.5970   33.0040   47.6080 F   0  0  0  0  0  0  0  0  0  0  0  0
   47.6220   31.6150   45.9020 F   0  0  0  0  0  0  0  0  0  0  0  0
   44.6920   36.1380   42.9560 C   0  0  0  0  0  0  0  0  0  0  0  0
   44.5510   37.1500   43.3940 H   0  0  0  0  0  0  0  0  0  0  0  0
   45.5030   36.2920   42.1830 H   0  0  0  0  0  0  0  0  0  0  0  0
   43.4500   35.7230   42.2500 C   0  0  0  0  0  0  0  0  0  0  0  0
   42.7340   36.5790   42.2840 H   0  0  0  0  0  0  0  0  0  0  0  0
   43.0100   34.7730   42.5200 H   0  0  0  0  0  0  0  0  0  0  0  0
   43.8170   35.5950   40.8240 N   0  0  0  0  0  0  0  0  0  0  0  0
   43.5520   34.6140   40.5650 H   0  0  0  0  0  0  0  0  0  0  0  0
   43.2220   36.2330   40.2440 H   0  0  0  0  0  0  0  0  0  0  0  0
  1  7  1  0  0  0  0
  1  6  1  0  0  0  0
  2  1  2  0  0  0  0
  3  2  1  0  0  0  0
  3  4  2  0  0  0  0
  4  5  1  0  0  0  0
  5  6  2  0  0  0  0
  5 27  1  0  0  0  0
  8  3  1  0  0  0  0
  9  8  1  0  0  0  0
  9 18  1  0  0  0  0
 10  9  2  0  0  0  0
 11 12  2  0  0  0  0
 11 10  1  0  0  0  0
 12 17  1  0  0  0  0
 13 14  2  0  0  0  0
 13 12  1  0  0  0  0
 14 15  1  0  0  0  0
 15 23  1  0  0  0  0
 15 16  2  0  0  0  0
 16 24  1  0  0  0  0
 17 16  1  0  0  0  0
 17  8  2  0  0  0  0
 19 10  1  0  0  0  0
 20 11  1  0  0  0  0
 21 13  1  0  0  0  0
 22 14  1  0  0  0  0
 24 26  1  0  0  0  0
 24 25  1  0  0  0  0
 27 28  1  0  0  0  0
 27 29  1  0  0  0  0
 30 27  1  0  0  0  0
 31 32  1  0  0  0  0
 31  2  1  0  0  0  0
 33 31  1  0  0  0  0
 34 35  1  0  0  0  0
 34 36  1  0  0  0  0
 34 31  1  0  0  0  0
 37 34  1  0  0  0  0
 38 37  1  0  0  0  0
 39 37  1  0  0  0  0
M  END
>  <minimizedAffinity>
-6.11284828

>  <minimizedRMSD>
0.385004073

$$$$
