
 OpenBabel03252507353D

 25 27  0  0  0  0  0  0  0  0999 V2000
   37.5700   28.7840   42.9370 C   0  0  0  0  0  0  0  0  0  0  0  0
   37.7830   29.1040   41.6130 C   0  0  0  0  0  0  0  0  0  0  0  0
   37.6580   28.0960   40.6960 C   0  0  0  0  0  0  0  0  0  0  0  0
   37.3350   26.7940   41.0210 C   0  0  0  0  0  0  0  0  0  0  0  0
   37.1670   25.6680   40.2730 N   0  0  0  0  0  0  0  0  0  0  0  0
   36.8510   24.6570   41.1250 C   0  0  0  0  0  0  0  0  0  0  0  0
   36.8270   25.1720   42.4020 N   0  0  0  0  0  0  0  0  0  0  0  0
   37.1230   26.4800   42.3420 C   0  0  0  0  0  0  0  0  0  0  0  0
   37.2400   27.4660   43.2840 C   0  0  0  0  0  0  0  0  0  0  0  0
   37.6310   29.4700   43.7770 H   0  0  0  0  0  0  0  0  0  0  0  0
   37.8320   28.3710   39.6580 H   0  0  0  0  0  0  0  0  0  0  0  0
   37.2800   25.6750   39.2420 H   0  0  0  0  0  0  0  0  0  0  0  0
   36.6720   23.6630   40.7500 H   0  0  0  0  0  0  0  0  0  0  0  0
   37.0640   27.1660   44.3010 H   0  0  0  0  0  0  0  0  0  0  0  0
   37.7190   32.6590   40.3810 C   0  0  0  0  0  0  0  0  0  0  0  0
   37.2410   31.3370   40.6250 C   0  0  0  0  0  0  0  0  0  0  0  0
   38.1240   30.4790   41.2920 C   0  0  0  0  0  0  0  0  0  0  0  0
   39.3380   30.9200   41.6610 N   0  0  0  0  0  0  0  0  0  0  0  0
   39.7570   32.1940   41.4080 C   0  0  0  0  0  0  0  0  0  0  0  0
   38.9340   33.0430   40.7700 N   0  0  0  0  0  0  0  0  0  0  0  0
   36.2860   30.9880   40.3370 H   0  0  0  0  0  0  0  0  0  0  0  0
   40.7330   32.4590   41.7350 H   0  0  0  0  0  0  0  0  0  0  0  0
   36.8400   33.5530   39.7040 N   0  0  0  0  0  0  0  0  0  0  0  0
   37.0880   34.4560   40.1740 H   0  0  0  0  0  0  0  0  0  0  0  0
   36.1300   33.4280   38.9500 H   0  0  0  0  0  0  0  0  0  0  0  0
  1  9  1  0  0  0  0
  1 10  1  0  0  0  0
  2  1  2  0  0  0  0
  3  4  2  0  0  0  0
  3  2  1  0  0  0  0
  4  8  1  0  0  0  0
  5  4  1  0  0  0  0
  5  6  1  0  0  0  0
  6  7  2  0  0  0  0
  8  7  1  0  0  0  0
  8  9  2  0  0  0  0
  9 14  1  0  0  0  0
 11  3  1  0  0  0  0
 12  5  1  0  0  0  0
 13  6  1  0  0  0  0
 15 16  2  0  0  0  0
 15 20  1  0  0  0  0
 16 17  1  0  0  0  0
 17  2  1  0  0  0  0
 17 18  2  0  0  0  0
 19 18  1  0  0  0  0
 19 22  1  0  0  0  0
 20 19  2  0  0  0  0
 21 16  1  0  0  0  0
 23 24  1  0  0  0  0
 23 15  1  0  0  0  0
 25 23  1  0  0  0  0
M  END
>  <minimizedAffinity>
-5.09997606

$$$$

 OpenBabel03252507353D

 25 27  0  0  0  0  0  0  0  0999 V2000
   40.2280   29.8390   42.0730 C   0  0  0  0  0  0  0  0  0  0  0  0
   39.2980   30.4770   41.2800 C   0  0  0  0  0  0  0  0  0  0  0  0
   38.0020   30.0460   41.3640 C   0  0  0  0  0  0  0  0  0  0  0  0
   37.5820   29.0220   42.1880 C   0  0  0  0  0  0  0  0  0  0  0  0
   36.3640   28.4550   42.4130 N   0  0  0  0  0  0  0  0  0  0  0  0
   36.5360   27.4740   43.3370 C   0  0  0  0  0  0  0  0  0  0  0  0
   37.8690   27.4440   43.6790 N   0  0  0  0  0  0  0  0  0  0  0  0
   38.5130   28.3900   42.9770 C   0  0  0  0  0  0  0  0  0  0  0  0
   39.8180   28.7980   42.9160 C   0  0  0  0  0  0  0  0  0  0  0  0
   41.2900   30.0660   42.1180 H   0  0  0  0  0  0  0  0  0  0  0  0
   37.2860   30.5630   40.7290 H   0  0  0  0  0  0  0  0  0  0  0  0
   35.5110   28.7790   41.9200 H   0  0  0  0  0  0  0  0  0  0  0  0
   35.6980   26.8850   43.6710 H   0  0  0  0  0  0  0  0  0  0  0  0
   40.5050   28.2700   43.5540 H   0  0  0  0  0  0  0  0  0  0  0  0
   40.3090   32.5620   38.3150 C   0  0  0  0  0  0  0  0  0  0  0  0
   39.8350   31.4190   39.0260 C   0  0  0  0  0  0  0  0  0  0  0  0
   39.7600   31.5510   40.4180 C   0  0  0  0  0  0  0  0  0  0  0  0
   40.1240   32.7040   41.0030 N   0  0  0  0  0  0  0  0  0  0  0  0
   40.5720   33.7740   40.2850 C   0  0  0  0  0  0  0  0  0  0  0  0
   40.6560   33.6820   38.9480 N   0  0  0  0  0  0  0  0  0  0  0  0
   39.5480   30.5110   38.5680 H   0  0  0  0  0  0  0  0  0  0  0  0
   40.8380   34.6480   40.8300 H   0  0  0  0  0  0  0  0  0  0  0  0
   40.3940   32.4550   36.8960 N   0  0  0  0  0  0  0  0  0  0  0  0
   40.1430   33.4330   36.6160 H   0  0  0  0  0  0  0  0  0  0  0  0
   40.6310   31.6720   36.2490 H   0  0  0  0  0  0  0  0  0  0  0  0
  1 10  1  0  0  0  0
  1  9  1  0  0  0  0
  2  3  1  0  0  0  0
  2  1  2  0  0  0  0
  3  4  2  0  0  0  0
  4  5  1  0  0  0  0
  4  8  1  0  0  0  0
  5  6  1  0  0  0  0
  6 13  1  0  0  0  0
  6  7  2  0  0  0  0
  8  7  1  0  0  0  0
  9  8  2  0  0  0  0
  9 14  1  0  0  0  0
 11  3  1  0  0  0  0
 12  5  1  0  0  0  0
 15 20  2  0  0  0  0
 15 16  1  0  0  0  0
 16 17  2  0  0  0  0
 17 18  1  0  0  0  0
 17  2  1  0  0  0  0
 19 22  1  0  0  0  0
 19 18  2  0  0  0  0
 20 19  1  0  0  0  0
 21 16  1  0  0  0  0
 23 15  1  0  0  0  0
 24 23  1  0  0  0  0
 25 23  1  0  0  0  0
M  END
>  <minimizedAffinity>
-5.07625198

$$$$

 OpenBabel03252507353D

 25 27  0  0  0  0  0  0  0  0999 V2000
   38.1200   30.9390   37.7690 C   0  0  0  0  0  0  0  0  0  0  0  0
   38.4250   31.5860   38.9480 C   0  0  0  0  0  0  0  0  0  0  0  0
   37.6090   31.3510   40.0220 C   0  0  0  0  0  0  0  0  0  0  0  0
   36.5130   30.5130   39.9880 C   0  0  0  0  0  0  0  0  0  0  0  0
   35.5940   30.1530   40.9270 N   0  0  0  0  0  0  0  0  0  0  0  0
   34.7270   29.2900   40.3360 C   0  0  0  0  0  0  0  0  0  0  0  0
   35.1200   29.1220   39.0280 N   0  0  0  0  0  0  0  0  0  0  0  0
   36.2140   29.8700   38.8110 C   0  0  0  0  0  0  0  0  0  0  0  0
   37.0110   30.0840   37.7190 C   0  0  0  0  0  0  0  0  0  0  0  0
   38.6690   31.0220   36.8360 H   0  0  0  0  0  0  0  0  0  0  0  0
   37.8680   31.8730   40.9400 H   0  0  0  0  0  0  0  0  0  0  0  0
   35.6290   30.5230   41.8950 H   0  0  0  0  0  0  0  0  0  0  0  0
   33.9070   28.8710   40.8970 H   0  0  0  0  0  0  0  0  0  0  0  0
   36.7320   29.5560   36.8240 H   0  0  0  0  0  0  0  0  0  0  0  0
   41.4840   33.5640   38.0040 C   0  0  0  0  0  0  0  0  0  0  0  0
   40.3840   32.6710   37.8340 C   0  0  0  0  0  0  0  0  0  0  0  0
   39.5810   32.4650   38.9620 C   0  0  0  0  0  0  0  0  0  0  0  0
   39.8690   33.0940   40.1150 N   0  0  0  0  0  0  0  0  0  0  0  0
   40.9320   33.9410   40.2340 C   0  0  0  0  0  0  0  0  0  0  0  0
   41.7230   34.1610   39.1710 N   0  0  0  0  0  0  0  0  0  0  0  0
   40.1550   32.1760   36.9290 H   0  0  0  0  0  0  0  0  0  0  0  0
   41.0860   34.3960   41.1820 H   0  0  0  0  0  0  0  0  0  0  0  0
   42.3170   33.7910   36.8700 N   0  0  0  0  0  0  0  0  0  0  0  0
   42.5660   34.7980   37.0160 H   0  0  0  0  0  0  0  0  0  0  0  0
   42.6370   33.1870   36.0820 H   0  0  0  0  0  0  0  0  0  0  0  0
  1  2  1  0  0  0  0
  2 17  1  0  0  0  0
  2  3  2  0  0  0  0
  3 11  1  0  0  0  0
  4  3  1  0  0  0  0
  4  5  1  0  0  0  0
  5 12  1  0  0  0  0
  6 13  1  0  0  0  0
  6  5  1  0  0  0  0
  7  6  2  0  0  0  0
  8  7  1  0  0  0  0
  8  4  2  0  0  0  0
  9  1  2  0  0  0  0
  9  8  1  0  0  0  0
 10  1  1  0  0  0  0
 14  9  1  0  0  0  0
 15 20  1  0  0  0  0
 16 15  2  0  0  0  0
 16 17  1  0  0  0  0
 17 18  2  0  0  0  0
 18 19  1  0  0  0  0
 19 22  1  0  0  0  0
 20 19  2  0  0  0  0
 21 16  1  0  0  0  0
 23 24  1  0  0  0  0
 23 15  1  0  0  0  0
 25 23  1  0  0  0  0
M  END
>  <minimizedAffinity>
-4.9560442

$$$$

 OpenBabel03252507353D

 25 27  0  0  0  0  0  0  0  0999 V2000
   36.7050   26.1430   39.3690 C   0  0  0  0  0  0  0  0  0  0  0  0
   37.3400   26.3120   40.5810 C   0  0  0  0  0  0  0  0  0  0  0  0
   37.8450   25.1930   41.1860 C   0  0  0  0  0  0  0  0  0  0  0  0
   37.7520   23.9220   40.6560 C   0  0  0  0  0  0  0  0  0  0  0  0
   38.1790   22.7040   41.0910 N   0  0  0  0  0  0  0  0  0  0  0  0
   37.8120   21.7870   40.1580 C   0  0  0  0  0  0  0  0  0  0  0  0
   37.1560   22.4510   39.1460 N   0  0  0  0  0  0  0  0  0  0  0  0
   37.1180   23.7590   39.4470 C   0  0  0  0  0  0  0  0  0  0  0  0
   36.6030   24.8590   38.8170 C   0  0  0  0  0  0  0  0  0  0  0  0
   36.2550   26.9300   38.7700 H   0  0  0  0  0  0  0  0  0  0  0  0
   38.3410   25.3500   42.1410 H   0  0  0  0  0  0  0  0  0  0  0  0
   38.6860   22.5910   41.9890 H   0  0  0  0  0  0  0  0  0  0  0  0
   38.0480   20.7440   40.2950 H   0  0  0  0  0  0  0  0  0  0  0  0
   36.1170   24.6750   37.8750 H   0  0  0  0  0  0  0  0  0  0  0  0
   36.6650   29.9010   41.4900 C   0  0  0  0  0  0  0  0  0  0  0  0
   36.4410   28.6260   40.8910 C   0  0  0  0  0  0  0  0  0  0  0  0
   37.4250   27.6570   41.1230 C   0  0  0  0  0  0  0  0  0  0  0  0
   38.4990   27.9570   41.8740 N   0  0  0  0  0  0  0  0  0  0  0  0
   38.6750   29.1910   42.4290 C   0  0  0  0  0  0  0  0  0  0  0  0
   37.7490   30.1430   42.2260 N   0  0  0  0  0  0  0  0  0  0  0  0
   35.5980   28.3860   40.3010 H   0  0  0  0  0  0  0  0  0  0  0  0
   39.5530   29.3420   43.0090 H   0  0  0  0  0  0  0  0  0  0  0  0
   35.6790   30.9050   41.2700 N   0  0  0  0  0  0  0  0  0  0  0  0
   35.7080   31.4060   42.1890 H   0  0  0  0  0  0  0  0  0  0  0  0
   35.0640   31.1410   40.4610 H   0  0  0  0  0  0  0  0  0  0  0  0
  1  2  1  0  0  0  0
  2 17  1  0  0  0  0
  2  3  2  0  0  0  0
  3 11  1  0  0  0  0
  4  5  1  0  0  0  0
  4  3  1  0  0  0  0
  5 12  1  0  0  0  0
  6 13  1  0  0  0  0
  6  5  1  0  0  0  0
  7  8  1  0  0  0  0
  7  6  2  0  0  0  0
  8  4  2  0  0  0  0
  9  1  2  0  0  0  0
  9  8  1  0  0  0  0
 10  1  1  0  0  0  0
 14  9  1  0  0  0  0
 15 20  1  0  0  0  0
 16 17  1  0  0  0  0
 16 15  2  0  0  0  0
 17 18  2  0  0  0  0
 18 19  1  0  0  0  0
 19 22  1  0  0  0  0
 20 19  2  0  0  0  0
 21 16  1  0  0  0  0
 23 15  1  0  0  0  0
 23 24  1  0  0  0  0
 25 23  1  0  0  0  0
M  END
>  <minimizedAffinity>
-4.85903692

$$$$

 OpenBabel03252507353D

 25 27  0  0  0  0  0  0  0  0999 V2000
   36.8690   29.9740   40.7430 C   0  0  0  0  0  0  0  0  0  0  0  0
   38.0130   29.7880   41.4890 C   0  0  0  0  0  0  0  0  0  0  0  0
   38.8600   30.8550   41.6170 C   0  0  0  0  0  0  0  0  0  0  0  0
   38.6320   32.0920   41.0470 C   0  0  0  0  0  0  0  0  0  0  0  0
   39.3360   33.2580   41.0550 N   0  0  0  0  0  0  0  0  0  0  0  0
   38.6340   34.1610   40.3200 C   0  0  0  0  0  0  0  0  0  0  0  0
   37.4950   33.5400   39.8620 N   0  0  0  0  0  0  0  0  0  0  0  0
   37.4900   32.2730   40.3050 C   0  0  0  0  0  0  0  0  0  0  0  0
   36.6230   31.2240   40.1580 C   0  0  0  0  0  0  0  0  0  0  0  0
   36.1040   29.2270   40.5510 H   0  0  0  0  0  0  0  0  0  0  0  0
   39.7560   30.6850   42.2090 H   0  0  0  0  0  0  0  0  0  0  0  0
   40.2380   33.3490   41.5590 H   0  0  0  0  0  0  0  0  0  0  0  0
   39.0060   35.1640   40.1890 H   0  0  0  0  0  0  0  0  0  0  0  0
   35.7450   31.4200   39.5680 H   0  0  0  0  0  0  0  0  0  0  0  0
   37.7630   26.1580   42.4510 C   0  0  0  0  0  0  0  0  0  0  0  0
   37.4190   27.3770   41.7940 C   0  0  0  0  0  0  0  0  0  0  0  0
   38.2350   28.4790   42.0790 C   0  0  0  0  0  0  0  0  0  0  0  0
   39.2700   28.3460   42.9260 N   0  0  0  0  0  0  0  0  0  0  0  0
   39.5650   27.1610   43.5330 C   0  0  0  0  0  0  0  0  0  0  0  0
   38.8020   26.0840   43.2820 N   0  0  0  0  0  0  0  0  0  0  0  0
   36.6060   27.4840   41.1280 H   0  0  0  0  0  0  0  0  0  0  0  0
   40.4020   27.1460   44.1880 H   0  0  0  0  0  0  0  0  0  0  0  0
   36.9490   25.0210   42.1790 N   0  0  0  0  0  0  0  0  0  0  0  0
   37.6680   24.2590   42.2110 H   0  0  0  0  0  0  0  0  0  0  0  0
   35.9300   24.8960   41.9920 H   0  0  0  0  0  0  0  0  0  0  0  0
  1  2  1  0  0  0  0
  2  3  2  0  0  0  0
  2 17  1  0  0  0  0
  3 11  1  0  0  0  0
  4  5  1  0  0  0  0
  4  3  1  0  0  0  0
  5 12  1  0  0  0  0
  6  5  1  0  0  0  0
  7  8  1  0  0  0  0
  7  6  2  0  0  0  0
  8  4  2  0  0  0  0
  9  8  1  0  0  0  0
  9  1  2  0  0  0  0
 10  1  1  0  0  0  0
 13  6  1  0  0  0  0
 14  9  1  0  0  0  0
 15 20  1  0  0  0  0
 16 17  1  0  0  0  0
 16 15  2  0  0  0  0
 17 18  2  0  0  0  0
 18 19  1  0  0  0  0
 19 22  1  0  0  0  0
 20 19  2  0  0  0  0
 21 16  1  0  0  0  0
 23 24  1  0  0  0  0
 23 15  1  0  0  0  0
 25 23  1  0  0  0  0
M  END
>  <minimizedAffinity>
-4.85873652

$$$$

 OpenBabel03252507353D

 25 27  0  0  0  0  0  0  0  0999 V2000
   36.9060   28.1940   41.8200 C   0  0  0  0  0  0  0  0  0  0  0  0
   37.1270   28.2030   40.4590 C   0  0  0  0  0  0  0  0  0  0  0  0
   37.3390   26.9960   39.8500 C   0  0  0  0  0  0  0  0  0  0  0  0
   37.3440   25.7870   40.5160 C   0  0  0  0  0  0  0  0  0  0  0  0
   37.5310   24.5030   40.1030 N   0  0  0  0  0  0  0  0  0  0  0  0
   37.4280   23.7040   41.1970 C   0  0  0  0  0  0  0  0  0  0  0  0
   37.1750   24.5070   42.2860 N   0  0  0  0  0  0  0  0  0  0  0  0
   37.1220   25.7840   41.8730 C   0  0  0  0  0  0  0  0  0  0  0  0
   36.9070   26.9750   42.5110 C   0  0  0  0  0  0  0  0  0  0  0  0
   36.7240   29.0660   42.4420 H   0  0  0  0  0  0  0  0  0  0  0  0
   37.5120   27.0270   38.7770 H   0  0  0  0  0  0  0  0  0  0  0  0
   37.7150   24.2700   39.1090 H   0  0  0  0  0  0  0  0  0  0  0  0
   37.5430   22.6360   41.1060 H   0  0  0  0  0  0  0  0  0  0  0  0
   36.7390   26.9150   43.5720 H   0  0  0  0  0  0  0  0  0  0  0  0
   37.0720   31.8790   39.6560 C   0  0  0  0  0  0  0  0  0  0  0  0
   37.0720   30.7040   40.4650 C   0  0  0  0  0  0  0  0  0  0  0  0
   37.1200   29.4860   39.7770 C   0  0  0  0  0  0  0  0  0  0  0  0
   37.1640   29.4750   38.4340 N   0  0  0  0  0  0  0  0  0  0  0  0
   37.1620   30.6230   37.6980 C   0  0  0  0  0  0  0  0  0  0  0  0
   37.1160   31.8090   38.3260 N   0  0  0  0  0  0  0  0  0  0  0  0
   37.0380   30.7090   41.5210 H   0  0  0  0  0  0  0  0  0  0  0  0
   37.1980   30.5220   36.6400 H   0  0  0  0  0  0  0  0  0  0  0  0
   37.0230   33.1330   40.3320 N   0  0  0  0  0  0  0  0  0  0  0  0
   37.6200   33.7150   39.6960 H   0  0  0  0  0  0  0  0  0  0  0  0
   36.5540   33.4600   41.2040 H   0  0  0  0  0  0  0  0  0  0  0  0
  1 10  1  0  0  0  0
  1  9  1  0  0  0  0
  2  1  2  0  0  0  0
  3  2  1  0  0  0  0
  3  4  2  0  0  0  0
  4  8  1  0  0  0  0
  5  4  1  0  0  0  0
  5  6  1  0  0  0  0
  6  7  2  0  0  0  0
  8  7  1  0  0  0  0
  8  9  2  0  0  0  0
  9 14  1  0  0  0  0
 11  3  1  0  0  0  0
 12  5  1  0  0  0  0
 13  6  1  0  0  0  0
 15 23  1  0  0  0  0
 15 16  1  0  0  0  0
 16 21  1  0  0  0  0
 17  2  1  0  0  0  0
 17 16  2  0  0  0  0
 18 17  1  0  0  0  0
 19 20  1  0  0  0  0
 19 18  2  0  0  0  0
 20 15  2  0  0  0  0
 22 19  1  0  0  0  0
 23 25  1  0  0  0  0
 24 23  1  0  0  0  0
M  END
>  <minimizedAffinity>
-4.85652351

$$$$

 OpenBabel03252507353D

 25 27  0  0  0  0  0  0  0  0999 V2000
   37.4060   28.5400   42.8450 C   0  0  0  0  0  0  0  0  0  0  0  0
   37.5420   28.8580   41.5100 C   0  0  0  0  0  0  0  0  0  0  0  0
   37.4200   27.8370   40.6060 C   0  0  0  0  0  0  0  0  0  0  0  0
   37.1730   26.5240   40.9550 C   0  0  0  0  0  0  0  0  0  0  0  0
   37.0220   25.3850   40.2250 N   0  0  0  0  0  0  0  0  0  0  0  0
   36.7940   24.3690   41.0980 C   0  0  0  0  0  0  0  0  0  0  0  0
   36.8060   24.8930   42.3700 N   0  0  0  0  0  0  0  0  0  0  0  0
   37.0380   26.2130   42.2880 C   0  0  0  0  0  0  0  0  0  0  0  0
   37.1540   27.2120   43.2160 C   0  0  0  0  0  0  0  0  0  0  0  0
   37.4750   29.2360   43.6760 H   0  0  0  0  0  0  0  0  0  0  0  0
   37.5320   28.1100   39.5600 H   0  0  0  0  0  0  0  0  0  0  0  0
   37.0860   25.3870   39.1890 H   0  0  0  0  0  0  0  0  0  0  0  0
   36.6430   23.3640   40.7390 H   0  0  0  0  0  0  0  0  0  0  0  0
   37.0400   26.9140   44.2430 H   0  0  0  0  0  0  0  0  0  0  0  0
   39.1140   32.2490   41.0770 C   0  0  0  0  0  0  0  0  0  0  0  0
   39.0060   30.8860   41.4840 C   0  0  0  0  0  0  0  0  0  0  0  0
   37.8030   30.2440   41.1630 C   0  0  0  0  0  0  0  0  0  0  0  0
   36.8390   30.9130   40.5100 N   0  0  0  0  0  0  0  0  0  0  0  0
   36.9840   32.2180   40.1380 C   0  0  0  0  0  0  0  0  0  0  0  0
   38.1250   32.8640   40.4300 N   0  0  0  0  0  0  0  0  0  0  0  0
   39.7630   30.3570   41.9980 H   0  0  0  0  0  0  0  0  0  0  0  0
   36.1710   32.6700   39.6240 H   0  0  0  0  0  0  0  0  0  0  0  0
   40.3280   32.9260   41.3910 N   0  0  0  0  0  0  0  0  0  0  0  0
   40.4230   33.5460   40.5520 H   0  0  0  0  0  0  0  0  0  0  0  0
   40.9890   32.8780   42.1970 H   0  0  0  0  0  0  0  0  0  0  0  0
  1  9  1  0  0  0  0
  1 10  1  0  0  0  0
  2  1  2  0  0  0  0
  3  4  2  0  0  0  0
  3  2  1  0  0  0  0
  4  8  1  0  0  0  0
  5  4  1  0  0  0  0
  5  6  1  0  0  0  0
  6  7  2  0  0  0  0
  8  7  1  0  0  0  0
  8  9  2  0  0  0  0
  9 14  1  0  0  0  0
 11  3  1  0  0  0  0
 12  5  1  0  0  0  0
 13  6  1  0  0  0  0
 15 23  1  0  0  0  0
 15 16  1  0  0  0  0
 16 21  1  0  0  0  0
 17 16  2  0  0  0  0
 17  2  1  0  0  0  0
 18 17  1  0  0  0  0
 19 20  1  0  0  0  0
 19 18  2  0  0  0  0
 20 15  2  0  0  0  0
 22 19  1  0  0  0  0
 23 25  1  0  0  0  0
 24 23  1  0  0  0  0
M  END
>  <minimizedAffinity>
-4.80572271

$$$$

 OpenBabel03252507353D

 25 27  0  0  0  0  0  0  0  0999 V2000
   37.1020   30.1620   39.4230 C   0  0  0  0  0  0  0  0  0  0  0  0
   36.0560   29.2630   39.3980 C   0  0  0  0  0  0  0  0  0  0  0  0
   35.8230   28.5400   40.5360 C   0  0  0  0  0  0  0  0  0  0  0  0
   36.5690   28.6600   41.6920 C   0  0  0  0  0  0  0  0  0  0  0  0
   36.5010   28.0460   42.9050 N   0  0  0  0  0  0  0  0  0  0  0  0
   37.4950   28.5580   43.6770 C   0  0  0  0  0  0  0  0  0  0  0  0
   38.1740   29.4920   42.9280 N   0  0  0  0  0  0  0  0  0  0  0  0
   37.6100   29.5580   41.7110 C   0  0  0  0  0  0  0  0  0  0  0  0
   37.8690   30.2960   40.5880 C   0  0  0  0  0  0  0  0  0  0  0  0
   37.4100   30.8050   38.6030 H   0  0  0  0  0  0  0  0  0  0  0  0
   34.9950   27.8380   40.4930 H   0  0  0  0  0  0  0  0  0  0  0  0
   35.7840   27.3260   43.1130 H   0  0  0  0  0  0  0  0  0  0  0  0
   37.6330   28.2140   44.6890 H   0  0  0  0  0  0  0  0  0  0  0  0
   38.6940   30.9830   40.6580 H   0  0  0  0  0  0  0  0  0  0  0  0
   33.2880   28.8280   36.8860 C   0  0  0  0  0  0  0  0  0  0  0  0
   33.9060   28.9130   38.1700 C   0  0  0  0  0  0  0  0  0  0  0  0
   35.2860   29.1510   38.1720 C   0  0  0  0  0  0  0  0  0  0  0  0
   35.9450   29.2840   37.0090 N   0  0  0  0  0  0  0  0  0  0  0  0
   35.3160   29.1960   35.8020 C   0  0  0  0  0  0  0  0  0  0  0  0
   33.9920   28.9680   35.7640 N   0  0  0  0  0  0  0  0  0  0  0  0
   33.3890   28.8090   39.0860 H   0  0  0  0  0  0  0  0  0  0  0  0
   35.9140   29.3140   34.9310 H   0  0  0  0  0  0  0  0  0  0  0  0
   31.8840   28.5870   36.8560 N   0  0  0  0  0  0  0  0  0  0  0  0
   31.6120   29.1510   36.0160 H   0  0  0  0  0  0  0  0  0  0  0  0
   31.2390   28.0260   37.4540 H   0  0  0  0  0  0  0  0  0  0  0  0
  1  9  1  0  0  0  0
  2  1  2  0  0  0  0
  2  3  1  0  0  0  0
  3  4  2  0  0  0  0
  4  8  1  0  0  0  0
  4  5  1  0  0  0  0
  5 12  1  0  0  0  0
  5  6  1  0  0  0  0
  6 13  1  0  0  0  0
  7  6  2  0  0  0  0
  8  7  1  0  0  0  0
  9 14  1  0  0  0  0
  9  8  2  0  0  0  0
 10  1  1  0  0  0  0
 11  3  1  0  0  0  0
 15 16  1  0  0  0  0
 16 17  2  0  0  0  0
 16 21  1  0  0  0  0
 17  2  1  0  0  0  0
 18 17  1  0  0  0  0
 19 18  2  0  0  0  0
 20 19  1  0  0  0  0
 20 15  2  0  0  0  0
 22 19  1  0  0  0  0
 23 15  1  0  0  0  0
 23 25  1  0  0  0  0
 24 23  1  0  0  0  0
M  END
>  <minimizedAffinity>
-4.63648653

$$$$

 OpenBabel03252507353D

 25 27  0  0  0  0  0  0  0  0999 V2000
   36.0570   29.9940   38.8000 C   0  0  0  0  0  0  0  0  0  0  0  0
   37.0610   30.8120   38.3260 C   0  0  0  0  0  0  0  0  0  0  0  0
   37.3870   30.7020   37.0010 C   0  0  0  0  0  0  0  0  0  0  0  0
   36.7740   29.8270   36.1260 C   0  0  0  0  0  0  0  0  0  0  0  0
   36.9490   29.5700   34.8010 N   0  0  0  0  0  0  0  0  0  0  0  0
   36.0620   28.6000   34.4540 C   0  0  0  0  0  0  0  0  0  0  0  0
   35.3410   28.2650   35.5780 N   0  0  0  0  0  0  0  0  0  0  0  0
   35.7740   29.0140   36.6040 C   0  0  0  0  0  0  0  0  0  0  0  0
   35.4240   29.1010   37.9250 C   0  0  0  0  0  0  0  0  0  0  0  0
   35.6880   29.9650   39.8200 H   0  0  0  0  0  0  0  0  0  0  0  0
   38.1820   31.3550   36.6500 H   0  0  0  0  0  0  0  0  0  0  0  0
   37.6580   30.0720   34.2350 H   0  0  0  0  0  0  0  0  0  0  0  0
   36.0210   28.2340   33.4420 H   0  0  0  0  0  0  0  0  0  0  0  0
   34.6360   28.4430   38.2450 H   0  0  0  0  0  0  0  0  0  0  0  0
   39.1310   32.3030   41.0930 C   0  0  0  0  0  0  0  0  0  0  0  0
   38.5890   31.2880   40.2480 C   0  0  0  0  0  0  0  0  0  0  0  0
   37.6950   31.7240   39.2620 C   0  0  0  0  0  0  0  0  0  0  0  0
   37.3960   33.0290   39.1570 N   0  0  0  0  0  0  0  0  0  0  0  0
   37.9360   33.9680   39.9860 C   0  0  0  0  0  0  0  0  0  0  0  0
   38.7980   33.5840   40.9430 N   0  0  0  0  0  0  0  0  0  0  0  0
   38.8240   30.2610   40.3280 H   0  0  0  0  0  0  0  0  0  0  0  0
   37.6440   34.9780   39.8330 H   0  0  0  0  0  0  0  0  0  0  0  0
   40.0440   31.8870   42.1040 N   0  0  0  0  0  0  0  0  0  0  0  0
   40.6970   32.7060   42.1200 H   0  0  0  0  0  0  0  0  0  0  0  0
   40.1130   31.0350   42.7020 H   0  0  0  0  0  0  0  0  0  0  0  0
  1 10  1  0  0  0  0
  2  1  1  0  0  0  0
  2 17  1  0  0  0  0
  3  2  2  0  0  0  0
  4  8  2  0  0  0  0
  4  3  1  0  0  0  0
  5  4  1  0  0  0  0
  6  5  1  0  0  0  0
  6  7  2  0  0  0  0
  7  8  1  0  0  0  0
  8  9  1  0  0  0  0
  9 14  1  0  0  0  0
  9  1  2  0  0  0  0
 11  3  1  0  0  0  0
 12  5  1  0  0  0  0
 13  6  1  0  0  0  0
 15 23  1  0  0  0  0
 16 21  1  0  0  0  0
 16 15  2  0  0  0  0
 17 16  1  0  0  0  0
 18 17  2  0  0  0  0
 18 19  1  0  0  0  0
 19 20  2  0  0  0  0
 20 15  1  0  0  0  0
 22 19  1  0  0  0  0
 23 24  1  0  0  0  0
 23 25  1  0  0  0  0
M  END
>  <minimizedAffinity>
-4.63479328

$$$$
