
 OpenBabel03252509343D

 37 38  0  0  1  0  0  0  0  0999 V2000
   47.0060   33.8150   42.4660 C   0  0  1  0  0  0  0  0  0  0  0  0
   46.4080   34.6390   41.3420 C   0  0  0  0  0  0  0  0  0  0  0  0
   46.9170   33.8700   40.1380 C   0  0  0  0  0  0  0  0  0  0  0  0
   48.2240   33.2350   40.5650 C   0  0  0  0  0  0  0  0  0  0  0  0
   48.4390   33.7030   41.9940 C   0  0  1  0  0  0  0  0  0  0  0  0
   46.5550   32.8290   42.4440 H   0  0  0  0  0  0  0  0  0  0  0  0
   46.7090   35.6970   41.3570 H   0  0  0  0  0  0  0  0  0  0  0  0
   45.3090   34.6320   41.3170 H   0  0  0  0  0  0  0  0  0  0  0  0
   46.1840   33.1040   39.8620 H   0  0  0  0  0  0  0  0  0  0  0  0
   47.0410   34.5960   39.3220 H   0  0  0  0  0  0  0  0  0  0  0  0
   49.0290   33.6410   39.9210 H   0  0  0  0  0  0  0  0  0  0  0  0
   48.1220   32.1340   40.5030 H   0  0  0  0  0  0  0  0  0  0  0  0
   48.9750   32.8780   42.5160 H   0  0  0  0  0  0  0  0  0  0  0  0
   49.1890   35.0030   42.0540 C   0  0  0  0  0  0  0  0  0  0  0  0
   49.7600   35.0700   41.1040 H   0  0  0  0  0  0  0  0  0  0  0  0
   48.4630   35.8310   42.0580 H   0  0  0  0  0  0  0  0  0  0  0  0
   50.1220   35.0760   43.1330 N   0  0  0  0  0  0  0  0  0  0  0  0
   49.7700   34.4790   43.9150 H   0  0  0  0  0  0  0  0  0  0  0  0
   51.1020   34.8760   42.9070 H   0  0  0  0  0  0  0  0  0  0  0  0
   46.9150   34.4820   43.6940 O   0  0  0  0  0  0  0  0  0  0  0  0
   44.5460   35.4510   44.0620 O   0  0  0  0  0  0  0  0  0  0  0  0
   45.3850   34.2340   44.3410 P   0  0  1  0  0  0  0  0  0  0  0  0
   44.6900   32.8340   43.7270 O   0  0  0  0  0  0  0  0  0  0  0  0
   45.2850   32.2040   43.3010 H   0  0  0  0  0  0  0  0  0  0  0  0
   45.5250   34.0070   46.0030 O   0  0  0  0  0  0  0  0  0  0  0  0
   46.4330   33.0190   46.2340 C   0  0  0  0  0  0  0  0  0  0  0  0
   47.3000   33.5080   46.7500 H   0  0  0  0  0  0  0  0  0  0  0  0
   46.8600   32.4950   45.3870 H   0  0  0  0  0  0  0  0  0  0  0  0
   45.3310   31.3880   49.3900 C   0  0  0  0  0  0  0  0  0  0  0  0
   45.8030   32.3750   48.5130 C   0  0  0  0  0  0  0  0  0  0  0  0
   45.9400   32.0010   47.1770 C   0  0  0  0  0  0  0  0  0  0  0  0
   45.6170   30.7240   46.7990 N   0  0  0  0  0  0  0  0  0  0  0  0
   45.1690   29.8100   47.6770 C   0  0  0  0  0  0  0  0  0  0  0  0
   45.0290   30.1390   48.9560 N   0  0  0  0  0  0  0  0  0  0  0  0
   45.1960   31.5960   50.4430 H   0  0  0  0  0  0  0  0  0  0  0  0
   46.0280   33.3510   48.9140 H   0  0  0  0  0  0  0  0  0  0  0  0
   44.9600   28.8510   47.2220 H   0  0  0  0  0  0  0  0  0  0  0  0
  1  6  1  1  0  0  0
  1 20  1  0  0  0  0
  2  7  1  0  0  0  0
  2  1  1  0  0  0  0
  3  4  1  0  0  0  0
  3  2  1  0  0  0  0
  4  5  1  0  0  0  0
  5 14  1  0  0  0  0
  5  1  1  0  0  0  0
  5 13  1  1  0  0  0
  8  2  1  0  0  0  0
  9  3  1  0  0  0  0
 10  3  1  0  0  0  0
 11  4  1  0  0  0  0
 12  4  1  0  0  0  0
 14 16  1  0  0  0  0
 14 17  1  0  0  0  0
 15 14  1  0  0  0  0
 17 18  1  0  0  0  0
 19 17  1  0  0  0  0
 20 22  1  0  0  0  0
 22 21  2  6  0  0  0
 22 25  1  0  0  0  0
 23 22  1  0  0  0  0
 24 23  1  0  0  0  0
 25 26  1  0  0  0  0
 26 27  1  0  0  0  0
 26 31  1  0  0  0  0
 28 26  1  0  0  0  0
 29 35  1  0  0  0  0
 30 36  1  0  0  0  0
 30 29  2  0  0  0  0
 31 30  1  0  0  0  0
 32 31  2  0  0  0  0
 32 33  1  0  0  0  0
 33 34  2  0  0  0  0
 34 29  1  0  0  0  0
 37 33  1  0  0  0  0
M  END
>  <minimizedAffinity>
-5.57340479

>  <minimizedRMSD>
0.906831264

$$$$
