
 OpenBabel03242510453D

 12 12  0  0  0  0  0  0  0  0999 V2000
   36.5090   29.7670   41.4630 C   0  0  0  0  0  0  0  0  0  0  0  0
   36.0570   28.5540   40.8940 C   0  0  0  0  0  0  0  0  0  0  0  0
   36.8290   27.3870   41.0850 C   0  0  0  0  0  0  0  0  0  0  0  0
   37.9730   27.5150   41.8160 N   0  0  0  0  0  0  0  0  0  0  0  0
   38.3750   28.6840   42.3450 C   0  0  0  0  0  0  0  0  0  0  0  0
   37.6450   29.7950   42.1660 N   0  0  0  0  0  0  0  0  0  0  0  0
   35.1440   28.4970   40.3210 H   0  0  0  0  0  0  0  0  0  0  0  0
   36.5050   26.4450   40.6600 H   0  0  0  0  0  0  0  0  0  0  0  0
   39.2960   28.7440   42.9230 H   0  0  0  0  0  0  0  0  0  0  0  0
   35.7310   30.9430   41.2700 N   0  0  0  0  0  0  0  0  0  0  0  0
   34.9490   31.1930   41.9160 H   0  0  0  0  0  0  0  0  0  0  0  0
   35.9480   31.5710   40.4660 H   0  0  0  0  0  0  0  0  0  0  0  0
  1  6  1  0  0  0  0
  2  3  1  0  0  0  0
  2  1  2  0  0  0  0
  3  4  2  0  0  0  0
  4  5  1  0  0  0  0
  5  9  1  0  0  0  0
  6  5  2  0  0  0  0
  7  2  1  0  0  0  0
  8  3  1  0  0  0  0
 10  1  1  0  0  0  0
 10 11  1  0  0  0  0
 12 10  1  0  0  0  0
M  END
>  <minimizedAffinity>
-2.98869038

$$$$

 OpenBabel03242510453D

 12 12  0  0  0  0  0  0  0  0999 V2000
   36.5620   31.2680   40.2820 C   0  0  0  0  0  0  0  0  0  0  0  0
   36.5380   30.5120   39.0870 C   0  0  0  0  0  0  0  0  0  0  0  0
   37.3980   30.8880   38.0310 C   0  0  0  0  0  0  0  0  0  0  0  0
   38.2020   31.9690   38.2420 N   0  0  0  0  0  0  0  0  0  0  0  0
   38.2000   32.6680   39.3920 C   0  0  0  0  0  0  0  0  0  0  0  0
   37.3850   32.3140   40.3970 N   0  0  0  0  0  0  0  0  0  0  0  0
   35.8860   29.6620   38.9620 H   0  0  0  0  0  0  0  0  0  0  0  0
   37.4000   30.3250   37.1050 H   0  0  0  0  0  0  0  0  0  0  0  0
   38.8570   33.5260   39.5210 H   0  0  0  0  0  0  0  0  0  0  0  0
   35.6960   30.8900   41.3450 N   0  0  0  0  0  0  0  0  0  0  0  0
   35.9800   30.1780   42.0550 H   0  0  0  0  0  0  0  0  0  0  0  0
   34.7540   31.3350   41.4190 H   0  0  0  0  0  0  0  0  0  0  0  0
  1  6  1  0  0  0  0
  1 10  1  0  0  0  0
  2  1  2  0  0  0  0
  3  4  2  0  0  0  0
  3  2  1  0  0  0  0
  4  5  1  0  0  0  0
  5  9  1  0  0  0  0
  5  6  2  0  0  0  0
  7  2  1  0  0  0  0
  8  3  1  0  0  0  0
 10 12  1  0  0  0  0
 10 11  1  0  0  0  0
M  END
>  <minimizedAffinity>
-2.95537663

$$$$

 OpenBabel03242510453D

 12 12  0  0  0  0  0  0  0  0999 V2000
   37.7100   27.8390   43.3000 C   0  0  0  0  0  0  0  0  0  0  0  0
   36.8600   26.9650   42.5850 C   0  0  0  0  0  0  0  0  0  0  0  0
   37.3520   25.6930   42.2170 C   0  0  0  0  0  0  0  0  0  0  0  0
   38.6310   25.3940   42.5830 N   0  0  0  0  0  0  0  0  0  0  0  0
   39.4150   26.2500   43.2640 C   0  0  0  0  0  0  0  0  0  0  0  0
   38.9520   27.4590   43.6150 N   0  0  0  0  0  0  0  0  0  0  0  0
   35.8530   27.2420   42.3150 H   0  0  0  0  0  0  0  0  0  0  0  0
   36.7210   25.0040   41.6690 H   0  0  0  0  0  0  0  0  0  0  0  0
   40.4310   25.9730   43.5370 H   0  0  0  0  0  0  0  0  0  0  0  0
   37.2160   29.1210   43.6700 N   0  0  0  0  0  0  0  0  0  0  0  0
   36.6890   29.2670   44.5610 H   0  0  0  0  0  0  0  0  0  0  0  0
   37.3830   29.9350   43.0380 H   0  0  0  0  0  0  0  0  0  0  0  0
  1  6  1  0  0  0  0
  1 10  1  0  0  0  0
  2  1  2  0  0  0  0
  3  4  2  0  0  0  0
  3  2  1  0  0  0  0
  4  5  1  0  0  0  0
  5  9  1  0  0  0  0
  5  6  2  0  0  0  0
  7  2  1  0  0  0  0
  8  3  1  0  0  0  0
 10 11  1  0  0  0  0
 12 10  1  0  0  0  0
M  END
>  <minimizedAffinity>
-2.89717531

$$$$

 OpenBabel03242510453D

 12 12  0  0  0  0  0  0  0  0999 V2000
   36.5780   29.7710   41.5440 C   0  0  0  0  0  0  0  0  0  0  0  0
   37.9090   29.9750   41.9750 C   0  0  0  0  0  0  0  0  0  0  0  0
   38.7130   28.8470   42.2480 C   0  0  0  0  0  0  0  0  0  0  0  0
   38.1400   27.6220   42.0760 N   0  0  0  0  0  0  0  0  0  0  0  0
   36.8700   27.4610   41.6640 C   0  0  0  0  0  0  0  0  0  0  0  0
   36.1020   28.5300   41.4030 N   0  0  0  0  0  0  0  0  0  0  0  0
   38.3240   30.9640   42.0990 H   0  0  0  0  0  0  0  0  0  0  0  0
   39.7370   28.9760   42.5790 H   0  0  0  0  0  0  0  0  0  0  0  0
   36.4490   26.4650   41.5390 H   0  0  0  0  0  0  0  0  0  0  0  0
   35.7670   30.9070   41.2690 N   0  0  0  0  0  0  0  0  0  0  0  0
   35.7640   31.3610   40.3280 H   0  0  0  0  0  0  0  0  0  0  0  0
   35.1620   31.2960   42.0250 H   0  0  0  0  0  0  0  0  0  0  0  0
  1  2  1  0  0  0  0
  2  7  1  0  0  0  0
  2  3  2  0  0  0  0
  3  8  1  0  0  0  0
  4  3  1  0  0  0  0
  5  4  2  0  0  0  0
  6  1  2  0  0  0  0
  6  5  1  0  0  0  0
  9  5  1  0  0  0  0
 10  1  1  0  0  0  0
 10 12  1  0  0  0  0
 11 10  1  0  0  0  0
M  END
>  <minimizedAffinity>
-2.8905921

$$$$

 OpenBabel03242510453D

 12 12  0  0  0  0  0  0  0  0999 V2000
   37.6370   27.7840   43.2680 C   0  0  0  0  0  0  0  0  0  0  0  0
   38.9560   27.3840   43.5840 C   0  0  0  0  0  0  0  0  0  0  0  0
   39.3910   26.1030   43.1760 C   0  0  0  0  0  0  0  0  0  0  0  0
   38.4950   25.3320   42.4980 N   0  0  0  0  0  0  0  0  0  0  0  0
   37.2460   25.7420   42.2130 C   0  0  0  0  0  0  0  0  0  0  0  0
   36.8280   26.9580   42.5980 N   0  0  0  0  0  0  0  0  0  0  0  0
   39.6340   28.0270   44.1230 H   0  0  0  0  0  0  0  0  0  0  0  0
   40.3970   25.7720   43.4050 H   0  0  0  0  0  0  0  0  0  0  0  0
   36.5600   25.0960   41.6690 H   0  0  0  0  0  0  0  0  0  0  0  0
   37.1980   29.0740   43.6790 N   0  0  0  0  0  0  0  0  0  0  0  0
   37.3570   29.9190   43.0850 H   0  0  0  0  0  0  0  0  0  0  0  0
   36.7070   29.1780   44.5930 H   0  0  0  0  0  0  0  0  0  0  0  0
  1  2  1  0  0  0  0
  1 10  1  0  0  0  0
  2  7  1  0  0  0  0
  3  8  1  0  0  0  0
  3  2  2  0  0  0  0
  4  3  1  0  0  0  0
  5  4  2  0  0  0  0
  5  6  1  0  0  0  0
  6  1  2  0  0  0  0
  9  5  1  0  0  0  0
 10 12  1  0  0  0  0
 11 10  1  0  0  0  0
M  END
>  <minimizedAffinity>
-2.86705589

$$$$

 OpenBabel03242510453D

 12 12  0  0  0  0  0  0  0  0999 V2000
   36.9120   31.1230   40.6080 C   0  0  0  0  0  0  0  0  0  0  0  0
   37.2410   32.4010   40.0990 C   0  0  0  0  0  0  0  0  0  0  0  0
   38.4610   32.5600   39.4070 C   0  0  0  0  0  0  0  0  0  0  0  0
   39.2480   31.4550   39.2770 N   0  0  0  0  0  0  0  0  0  0  0  0
   38.9070   30.2520   39.7730 C   0  0  0  0  0  0  0  0  0  0  0  0
   37.7480   30.0950   40.4320 N   0  0  0  0  0  0  0  0  0  0  0  0
   36.5880   33.2500   40.2250 H   0  0  0  0  0  0  0  0  0  0  0  0
   38.7360   33.5290   39.0060 H   0  0  0  0  0  0  0  0  0  0  0  0
   39.5640   29.3930   39.6490 H   0  0  0  0  0  0  0  0  0  0  0  0
   35.6830   30.9620   41.3070 N   0  0  0  0  0  0  0  0  0  0  0  0
   34.7940   30.7420   40.8040 H   0  0  0  0  0  0  0  0  0  0  0  0
   35.6690   31.0650   42.3450 H   0  0  0  0  0  0  0  0  0  0  0  0
  1 10  1  0  0  0  0
  2  7  1  0  0  0  0
  2  1  2  0  0  0  0
  3  2  1  0  0  0  0
  4  3  2  0  0  0  0
  4  5  1  0  0  0  0
  5  6  2  0  0  0  0
  6  1  1  0  0  0  0
  8  3  1  0  0  0  0
  9  5  1  0  0  0  0
 10 12  1  0  0  0  0
 11 10  1  0  0  0  0
M  END
>  <minimizedAffinity>
-2.80074692

$$$$

 OpenBabel03242510453D

 12 12  0  0  0  0  0  0  0  0999 V2000
   36.9870   31.4320   40.7030 C   0  0  0  0  0  0  0  0  0  0  0  0
   38.1130   30.5930   40.8690 C   0  0  0  0  0  0  0  0  0  0  0  0
   39.3490   31.0030   40.3220 C   0  0  0  0  0  0  0  0  0  0  0  0
   39.3690   32.1960   39.6630 N   0  0  0  0  0  0  0  0  0  0  0  0
   38.2790   32.9720   39.5210 C   0  0  0  0  0  0  0  0  0  0  0  0
   37.1030   32.5870   40.0390 N   0  0  0  0  0  0  0  0  0  0  0  0
   38.0530   29.6560   41.3990 H   0  0  0  0  0  0  0  0  0  0  0  0
   40.2280   30.3790   40.4360 H   0  0  0  0  0  0  0  0  0  0  0  0
   38.3360   33.9180   38.9870 H   0  0  0  0  0  0  0  0  0  0  0  0
   35.7410   31.0200   41.2530 N   0  0  0  0  0  0  0  0  0  0  0  0
   35.4790   31.2420   42.2390 H   0  0  0  0  0  0  0  0  0  0  0  0
   35.0730   30.4830   40.6570 H   0  0  0  0  0  0  0  0  0  0  0  0
  1  2  1  0  0  0  0
  1 10  1  0  0  0  0
  2  7  1  0  0  0  0
  3  8  1  0  0  0  0
  3  2  2  0  0  0  0
  4  3  1  0  0  0  0
  5  4  2  0  0  0  0
  5  6  1  0  0  0  0
  6  1  2  0  0  0  0
  9  5  1  0  0  0  0
 10 11  1  0  0  0  0
 12 10  1  0  0  0  0
M  END
>  <minimizedAffinity>
-2.75824618

$$$$

 OpenBabel03242510453D

 12 12  0  0  0  0  0  0  0  0999 V2000
   37.7090   31.6230   37.2880 C   0  0  0  0  0  0  0  0  0  0  0  0
   37.6000   32.2380   38.5560 C   0  0  0  0  0  0  0  0  0  0  0  0
   36.8780   31.5740   39.5710 C   0  0  0  0  0  0  0  0  0  0  0  0
   36.3290   30.3670   39.2520 N   0  0  0  0  0  0  0  0  0  0  0  0
   36.4510   29.8080   38.0350 C   0  0  0  0  0  0  0  0  0  0  0  0
   37.1360   30.4350   37.0670 N   0  0  0  0  0  0  0  0  0  0  0  0
   38.0510   33.1960   38.7660 H   0  0  0  0  0  0  0  0  0  0  0  0
   36.7790   32.0240   40.5520 H   0  0  0  0  0  0  0  0  0  0  0  0
   35.9970   28.8430   37.8190 H   0  0  0  0  0  0  0  0  0  0  0  0
   38.4360   32.2920   36.2640 N   0  0  0  0  0  0  0  0  0  0  0  0
   39.4690   32.1740   36.1610 H   0  0  0  0  0  0  0  0  0  0  0  0
   37.9260   32.9160   35.6010 H   0  0  0  0  0  0  0  0  0  0  0  0
  1  2  1  0  0  0  0
  2  7  1  0  0  0  0
  2  3  2  0  0  0  0
  3  8  1  0  0  0  0
  4  3  1  0  0  0  0
  5  4  2  0  0  0  0
  6  1  2  0  0  0  0
  6  5  1  0  0  0  0
  9  5  1  0  0  0  0
 10  1  1  0  0  0  0
 11 10  1  0  0  0  0
 12 10  1  0  0  0  0
M  END
>  <minimizedAffinity>
-2.67794156

$$$$

 OpenBabel03242510453D

 12 12  0  0  0  0  0  0  0  0999 V2000
   37.7660   31.7400   37.5400 C   0  0  0  0  0  0  0  0  0  0  0  0
   37.1210   30.4900   37.3960 C   0  0  0  0  0  0  0  0  0  0  0  0
   36.4060   29.9670   38.4950 C   0  0  0  0  0  0  0  0  0  0  0  0
   36.3880   30.7150   39.6350 N   0  0  0  0  0  0  0  0  0  0  0  0
   37.0120   31.9010   39.7400 C   0  0  0  0  0  0  0  0  0  0  0  0
   37.6930   32.4030   38.6980 N   0  0  0  0  0  0  0  0  0  0  0  0
   37.1610   29.9300   36.4740 H   0  0  0  0  0  0  0  0  0  0  0  0
   35.9020   29.0110   38.4110 H   0  0  0  0  0  0  0  0  0  0  0  0
   36.9740   32.4680   40.6680 H   0  0  0  0  0  0  0  0  0  0  0  0
   38.4870   32.2680   36.4330 N   0  0  0  0  0  0  0  0  0  0  0  0
   38.0180   32.8480   35.7010 H   0  0  0  0  0  0  0  0  0  0  0  0
   39.5090   32.0720   36.3500 H   0  0  0  0  0  0  0  0  0  0  0  0
  1  6  1  0  0  0  0
  2  1  2  0  0  0  0
  2  3  1  0  0  0  0
  3  4  2  0  0  0  0
  4  5  1  0  0  0  0
  5  9  1  0  0  0  0
  6  5  2  0  0  0  0
  7  2  1  0  0  0  0
  8  3  1  0  0  0  0
 10  1  1  0  0  0  0
 11 10  1  0  0  0  0
 12 10  1  0  0  0  0
M  END
>  <minimizedAffinity>
-2.67787266

$$$$
