
 OpenBabel03252508283D

 33 35  0  0  1  0  0  0  0  0999 V2000
   42.0900   33.1250   39.8580 N   0  0  0  0  0  0  0  0  0  0  0  0
   41.9250   33.6670   41.2090 C   0  0  2  0  0  0  0  0  0  0  0  0
   40.8890   34.7190   41.2830 C   0  0  0  0  0  0  0  0  0  0  0  0
   40.1150   34.8640   40.0620 N   0  0  0  0  0  0  0  0  0  0  0  0
   40.8640   34.8880   38.8580 C   0  0  0  0  0  0  0  0  0  0  0  0
   42.2420   34.2950   38.9940 C   0  0  1  0  0  0  0  0  0  0  0  0
   41.2220   32.6480   39.5540 H   0  0  0  0  0  0  0  0  0  0  0  0
   41.6780   32.7760   41.8390 H   0  0  0  0  0  0  0  0  0  0  0  0
   40.1190   34.4080   42.0570 H   0  0  0  0  0  0  0  0  0  0  0  0
   41.1800   35.7410   41.4910 H   0  0  0  0  0  0  0  0  0  0  0  0
   39.5090   35.6870   40.1310 H   0  0  0  0  0  0  0  0  0  0  0  0
   40.3010   34.2890   38.1120 H   0  0  0  0  0  0  0  0  0  0  0  0
   40.9200   35.9120   38.3860 H   0  0  0  0  0  0  0  0  0  0  0  0
   42.5020   33.8450   37.9890 H   0  0  0  0  0  0  0  0  0  0  0  0
   45.3400   34.4850   42.0290 C   0  0  0  0  0  0  0  0  0  0  0  0
   44.6120   35.6020   42.4380 C   0  0  0  0  0  0  0  0  0  0  0  0
   43.2660   35.4160   42.1850 C   0  0  0  0  0  0  0  0  0  0  0  0
   43.2000   34.2030   41.6300 N   0  0  0  0  0  0  0  0  0  0  0  0
   44.4100   33.6640   41.5420 N   0  0  0  0  0  0  0  0  0  0  0  0
   45.1620   36.4490   42.8880 H   0  0  0  0  0  0  0  0  0  0  0  0
   42.6960   36.2810   42.5090 H   0  0  0  0  0  0  0  0  0  0  0  0
   49.0620   35.0030   42.0110 C   0  0  0  0  0  0  0  0  0  0  0  0
   47.6790   35.3140   41.8100 C   0  0  0  0  0  0  0  0  0  0  0  0
   46.7880   34.3320   42.1620 C   0  0  0  0  0  0  0  0  0  0  0  0
   47.2400   33.1430   42.6690 N   0  0  0  0  0  0  0  0  0  0  0  0
   48.5590   32.8950   42.8410 C   0  0  0  0  0  0  0  0  0  0  0  0
   49.4390   33.8320   42.5070 N   0  0  0  0  0  0  0  0  0  0  0  0
   49.7200   35.8150   41.7150 H   0  0  0  0  0  0  0  0  0  0  0  0
   47.3220   36.2500   41.4110 H   0  0  0  0  0  0  0  0  0  0  0  0
   48.8120   31.9340   43.2470 H   0  0  0  0  0  0  0  0  0  0  0  0
   43.2800   35.1810   39.3200 N   0  0  0  0  0  0  0  0  0  0  0  0
   44.2450   34.9200   39.0090 H   0  0  0  0  0  0  0  0  0  0  0  0
   43.0990   36.1130   38.8410 H   0  0  0  0  0  0  0  0  0  0  0  0
  1  2  1  0  0  0  0
  2  3  1  0  0  0  0
  2 18  1  0  0  0  0
  2  8  1  1  0  0  0
  3 10  1  0  0  0  0
  3  9  1  0  0  0  0
  4 11  1  0  0  0  0
  4  3  1  0  0  0  0
  5  6  1  0  0  0  0
  5  4  1  0  0  0  0
  6 14  1  6  0  0  0
  6 31  1  0  0  0  0
  6  1  1  0  0  0  0
  7  1  1  0  0  0  0
 12  5  1  0  0  0  0
 13  5  1  0  0  0  0
 15 24  1  0  0  0  0
 15 16  1  0  0  0  0
 16 20  1  0  0  0  0
 17 16  2  0  0  0  0
 17 21  1  0  0  0  0
 18 17  1  0  0  0  0
 19 18  1  0  0  0  0
 19 15  2  0  0  0  0
 22 27  1  0  0  0  0
 23 22  2  0  0  0  0
 23 24  1  0  0  0  0
 24 25  2  0  0  0  0
 25 26  1  0  0  0  0
 26 30  1  0  0  0  0
 27 26  2  0  0  0  0
 28 22  1  0  0  0  0
 29 23  1  0  0  0  0
 32 31  1  0  0  0  0
 33 31  1  0  0  0  0
M  END
>  <minimizedAffinity>
-4.717803

>  <minimizedRMSD>
0.492668957

$$$$
