
 OpenBabel03252502133D

 31 33  0  0  0  0  0  0  0  0999 V2000
   39.5340   30.7540   42.7670 Cl  0  0  0  0  0  0  0  0  0  0  0  0
   38.2660   29.5670   42.5520 C   0  0  0  0  0  0  0  0  0  0  0  0
   37.5610   29.4820   41.3920 C   0  0  0  0  0  0  0  0  0  0  0  0
   36.5910   28.5080   41.3470 C   0  0  0  0  0  0  0  0  0  0  0  0
   36.3190   27.6610   42.3710 C   0  0  0  0  0  0  0  0  0  0  0  0
   37.0430   27.7600   43.5390 C   0  0  0  0  0  0  0  0  0  0  0  0
   38.0150   28.7200   43.6150 C   0  0  0  0  0  0  0  0  0  0  0  0
   35.5490   26.9030   42.3060 H   0  0  0  0  0  0  0  0  0  0  0  0
   36.8100   27.0720   44.3480 H   0  0  0  0  0  0  0  0  0  0  0  0
   38.5870   28.8010   44.5330 H   0  0  0  0  0  0  0  0  0  0  0  0
   35.8060   28.3900   40.1030 C   0  0  0  0  0  0  0  0  0  0  0  0
   34.6530   29.1590   39.9960 C   0  0  0  0  0  0  0  0  0  0  0  0
   34.0080   28.9660   38.8020 C   0  0  0  0  0  0  0  0  0  0  0  0
   34.3770   28.1430   37.7810 C   0  0  0  0  0  0  0  0  0  0  0  0
   35.5470   27.4090   37.9750 C   0  0  0  0  0  0  0  0  0  0  0  0
   36.2160   27.5660   39.1360 N   0  0  0  0  0  0  0  0  0  0  0  0
   34.3290   29.8170   40.7730 H   0  0  0  0  0  0  0  0  0  0  0  0
   33.0760   29.5400   38.6280 H   0  0  0  0  0  0  0  0  0  0  0  0
   33.8100   28.0460   36.8640 H   0  0  0  0  0  0  0  0  0  0  0  0
   36.0390   26.5140   36.9850 N   0  0  0  0  0  0  0  0  0  0  0  0
   37.0760   26.6190   37.1640 H   0  0  0  0  0  0  0  0  0  0  0  0
   35.5460   25.9200   36.2800 H   0  0  0  0  0  0  0  0  0  0  0  0
   37.5910   32.4980   39.1200 C   0  0  0  0  0  0  0  0  0  0  0  0
   37.2700   31.6350   40.1720 C   0  0  0  0  0  0  0  0  0  0  0  0
   37.8710   30.3970   40.3160 C   0  0  0  0  0  0  0  0  0  0  0  0
   38.7950   30.0710   39.3650 N   0  0  0  0  0  0  0  0  0  0  0  0
   39.0990   30.9070   38.3550 C   0  0  0  0  0  0  0  0  0  0  0  0
   38.5220   32.0990   38.2150 N   0  0  0  0  0  0  0  0  0  0  0  0
   37.1180   33.4710   39.0070 H   0  0  0  0  0  0  0  0  0  0  0  0
   36.5340   31.9470   40.8880 H   0  0  0  0  0  0  0  0  0  0  0  0
   39.8390   30.6070   37.6240 H   0  0  0  0  0  0  0  0  0  0  0  0
  2  1  1  0  0  0  0
  2  7  1  0  0  0  0
  3  2  2  0  0  0  0
  4  3  1  0  0  0  0
  4  5  2  0  0  0  0
  5  6  1  0  0  0  0
  6  7  2  0  0  0  0
  6  9  1  0  0  0  0
  7 10  1  0  0  0  0
  8  5  1  0  0  0  0
 11  4  1  0  0  0  0
 12 11  1  0  0  0  0
 12 17  1  0  0  0  0
 13 12  2  0  0  0  0
 14 15  2  0  0  0  0
 14 13  1  0  0  0  0
 15 16  1  0  0  0  0
 16 11  2  0  0  0  0
 18 13  1  0  0  0  0
 19 14  1  0  0  0  0
 20 21  1  0  0  0  0
 20 15  1  0  0  0  0
 22 20  1  0  0  0  0
 23 24  1  0  0  0  0
 24 25  2  0  0  0  0
 24 30  1  0  0  0  0
 25  3  1  0  0  0  0
 26 25  1  0  0  0  0
 27 26  2  0  0  0  0
 28 27  1  0  0  0  0
 28 23  2  0  0  0  0
 29 23  1  0  0  0  0
 31 27  1  0  0  0  0
M  END
>  <minimizedAffinity>
-5.57453489

$$$$

 OpenBabel03252502133D

 31 33  0  0  0  0  0  0  0  0999 V2000
   37.6360   23.6100   41.4380 Cl  0  0  0  0  0  0  0  0  0  0  0  0
   36.9300   24.6710   40.2380 C   0  0  0  0  0  0  0  0  0  0  0  0
   37.1360   26.0150   40.2680 C   0  0  0  0  0  0  0  0  0  0  0  0
   36.5260   26.7390   39.2700 C   0  0  0  0  0  0  0  0  0  0  0  0
   35.7580   26.1900   38.2960 C   0  0  0  0  0  0  0  0  0  0  0  0
   35.5590   24.8270   38.2800 C   0  0  0  0  0  0  0  0  0  0  0  0
   36.1530   24.0780   39.2590 C   0  0  0  0  0  0  0  0  0  0  0  0
   35.2910   26.7870   37.5220 H   0  0  0  0  0  0  0  0  0  0  0  0
   34.9410   24.4070   37.4910 H   0  0  0  0  0  0  0  0  0  0  0  0
   36.0000   23.0050   39.2510 H   0  0  0  0  0  0  0  0  0  0  0  0
   36.7270   28.2010   39.2730 C   0  0  0  0  0  0  0  0  0  0  0  0
   37.5320   28.7410   38.2770 C   0  0  0  0  0  0  0  0  0  0  0  0
   37.6460   30.1020   38.3810 C   0  0  0  0  0  0  0  0  0  0  0  0
   37.0770   30.9160   39.3130 C   0  0  0  0  0  0  0  0  0  0  0  0
   36.2860   30.2880   40.2750 C   0  0  0  0  0  0  0  0  0  0  0  0
   36.1440   28.9490   40.2130 N   0  0  0  0  0  0  0  0  0  0  0  0
   37.9970   28.1370   37.5270 H   0  0  0  0  0  0  0  0  0  0  0  0
   38.2710   30.6200   37.6250 H   0  0  0  0  0  0  0  0  0  0  0  0
   37.2170   31.9890   39.3280 H   0  0  0  0  0  0  0  0  0  0  0  0
   35.6360   31.0260   41.3030 N   0  0  0  0  0  0  0  0  0  0  0  0
   34.7730   30.4270   41.4200 H   0  0  0  0  0  0  0  0  0  0  0  0
   35.9080   31.9010   41.8090 H   0  0  0  0  0  0  0  0  0  0  0  0
   38.2960   27.4400   43.5660 C   0  0  0  0  0  0  0  0  0  0  0  0
   37.4740   26.9000   42.5720 C   0  0  0  0  0  0  0  0  0  0  0  0
   37.9580   26.5740   41.3170 C   0  0  0  0  0  0  0  0  0  0  0  0
   39.2870   26.8140   41.1120 N   0  0  0  0  0  0  0  0  0  0  0  0
   40.0710   27.3340   42.0740 C   0  0  0  0  0  0  0  0  0  0  0  0
   39.6070   27.6480   43.2820 N   0  0  0  0  0  0  0  0  0  0  0  0
   37.9150   27.6960   44.5530 H   0  0  0  0  0  0  0  0  0  0  0  0
   36.4370   26.7350   42.7930 H   0  0  0  0  0  0  0  0  0  0  0  0
   41.1190   27.5070   41.8660 H   0  0  0  0  0  0  0  0  0  0  0  0
  2  3  1  0  0  0  0
  2  1  1  0  0  0  0
  3 25  1  0  0  0  0
  4 11  1  0  0  0  0
  4  3  2  0  0  0  0
  5  4  1  0  0  0  0
  6  5  2  0  0  0  0
  6  7  1  0  0  0  0
  7  2  2  0  0  0  0
  8  5  1  0  0  0  0
  9  6  1  0  0  0  0
 10  7  1  0  0  0  0
 11 16  1  0  0  0  0
 12 13  1  0  0  0  0
 12 11  2  0  0  0  0
 13 14  2  0  0  0  0
 14 19  1  0  0  0  0
 14 15  1  0  0  0  0
 15 20  1  0  0  0  0
 16 15  2  0  0  0  0
 17 12  1  0  0  0  0
 18 13  1  0  0  0  0
 20 21  1  0  0  0  0
 20 22  1  0  0  0  0
 23 29  1  0  0  0  0
 24 30  1  0  0  0  0
 24 23  2  0  0  0  0
 25 24  1  0  0  0  0
 26 25  2  0  0  0  0
 26 27  1  0  0  0  0
 27 28  2  0  0  0  0
 28 23  1  0  0  0  0
 31 27  1  0  0  0  0
M  END
>  <minimizedAffinity>
-5.54588175

$$$$

 OpenBabel03252502133D

 31 33  0  0  0  0  0  0  0  0999 V2000
   36.9560   25.5950   40.3310 Cl  0  0  0  0  0  0  0  0  0  0  0  0
   37.2400   26.9390   41.4160 C   0  0  0  0  0  0  0  0  0  0  0  0
   37.6960   28.1360   40.9600 C   0  0  0  0  0  0  0  0  0  0  0  0
   37.8790   29.1120   41.9110 C   0  0  0  0  0  0  0  0  0  0  0  0
   37.6330   28.9370   43.2340 C   0  0  0  0  0  0  0  0  0  0  0  0
   37.1710   27.7180   43.6800 C   0  0  0  0  0  0  0  0  0  0  0  0
   36.9790   26.7260   42.7570 C   0  0  0  0  0  0  0  0  0  0  0  0
   37.7860   29.7260   43.9600 H   0  0  0  0  0  0  0  0  0  0  0  0
   36.9800   27.5990   44.7430 H   0  0  0  0  0  0  0  0  0  0  0  0
   36.6160   25.7650   43.1030 H   0  0  0  0  0  0  0  0  0  0  0  0
   38.3740   30.4230   41.4510 C   0  0  0  0  0  0  0  0  0  0  0  0
   39.7330   30.6830   41.5920 C   0  0  0  0  0  0  0  0  0  0  0  0
   40.0760   31.9270   41.1320 C   0  0  0  0  0  0  0  0  0  0  0  0
   39.2560   32.8660   40.5850 C   0  0  0  0  0  0  0  0  0  0  0  0
   37.9080   32.5210   40.4820 C   0  0  0  0  0  0  0  0  0  0  0  0
   37.5230   31.3060   40.9220 N   0  0  0  0  0  0  0  0  0  0  0  0
   40.4100   29.9720   42.0160 H   0  0  0  0  0  0  0  0  0  0  0  0
   41.1420   32.2210   41.2040 H   0  0  0  0  0  0  0  0  0  0  0  0
   39.6050   33.8320   40.2430 H   0  0  0  0  0  0  0  0  0  0  0  0
   36.9490   33.4150   39.9290 N   0  0  0  0  0  0  0  0  0  0  0  0
   36.2940   32.7090   39.4920 H   0  0  0  0  0  0  0  0  0  0  0  0
   36.8870   34.4590   39.9360 H   0  0  0  0  0  0  0  0  0  0  0  0
   39.3990   28.2330   37.5920 C   0  0  0  0  0  0  0  0  0  0  0  0
   39.1850   28.0700   38.9630 C   0  0  0  0  0  0  0  0  0  0  0  0
   37.9500   28.2950   39.5460 C   0  0  0  0  0  0  0  0  0  0  0  0
   36.9560   28.6890   38.6960 N   0  0  0  0  0  0  0  0  0  0  0  0
   37.1700   28.8440   37.3760 C   0  0  0  0  0  0  0  0  0  0  0  0
   38.3580   28.6270   36.8140 N   0  0  0  0  0  0  0  0  0  0  0  0
   40.3700   28.0550   37.1340 H   0  0  0  0  0  0  0  0  0  0  0  0
   40.0060   27.7590   39.5810 H   0  0  0  0  0  0  0  0  0  0  0  0
   36.3510   29.1570   36.7400 H   0  0  0  0  0  0  0  0  0  0  0  0
  1  2  1  0  0  0  0
  2  7  1  0  0  0  0
  3  2  2  0  0  0  0
  3  4  1  0  0  0  0
  4  5  2  0  0  0  0
  5  6  1  0  0  0  0
  5  8  1  0  0  0  0
  6  9  1  0  0  0  0
  7 10  1  0  0  0  0
  7  6  2  0  0  0  0
 11 12  1  0  0  0  0
 11  4  1  0  0  0  0
 12 17  1  0  0  0  0
 13 18  1  0  0  0  0
 13 12  2  0  0  0  0
 14 13  1  0  0  0  0
 15 14  2  0  0  0  0
 15 16  1  0  0  0  0
 16 11  2  0  0  0  0
 19 14  1  0  0  0  0
 20 22  1  0  0  0  0
 20 15  1  0  0  0  0
 21 20  1  0  0  0  0
 23 24  1  0  0  0  0
 24 25  2  0  0  0  0
 24 30  1  0  0  0  0
 25  3  1  0  0  0  0
 26 25  1  0  0  0  0
 27 26  2  0  0  0  0
 28 27  1  0  0  0  0
 28 23  2  0  0  0  0
 29 23  1  0  0  0  0
 31 27  1  0  0  0  0
M  END
>  <minimizedAffinity>
-5.53284216

$$$$

 OpenBabel03252502133D

 31 33  0  0  0  0  0  0  0  0999 V2000
   40.8940   27.4490   43.6220 Cl  0  0  0  0  0  0  0  0  0  0  0  0
   39.2920   27.8360   43.0330 C   0  0  0  0  0  0  0  0  0  0  0  0
   39.1040   28.7040   42.0030 C   0  0  0  0  0  0  0  0  0  0  0  0
   37.7980   28.9250   41.6340 C   0  0  0  0  0  0  0  0  0  0  0  0
   36.7310   28.3350   42.2300 C   0  0  0  0  0  0  0  0  0  0  0  0
   36.9390   27.4580   43.2710 C   0  0  0  0  0  0  0  0  0  0  0  0
   38.2280   27.2180   43.6630 C   0  0  0  0  0  0  0  0  0  0  0  0
   35.7130   28.5290   41.9160 H   0  0  0  0  0  0  0  0  0  0  0  0
   36.0720   26.9960   43.7350 H   0  0  0  0  0  0  0  0  0  0  0  0
   38.3970   26.5280   44.4820 H   0  0  0  0  0  0  0  0  0  0  0  0
   37.5570   29.8630   40.5210 C   0  0  0  0  0  0  0  0  0  0  0  0
   37.4700   29.3310   39.2390 C   0  0  0  0  0  0  0  0  0  0  0  0
   37.2460   30.2940   38.2900 C   0  0  0  0  0  0  0  0  0  0  0  0
   37.1110   31.6350   38.4820 C   0  0  0  0  0  0  0  0  0  0  0  0
   37.2130   32.0810   39.8000 C   0  0  0  0  0  0  0  0  0  0  0  0
   37.4330   31.1690   40.7690 N   0  0  0  0  0  0  0  0  0  0  0  0
   37.5700   28.2840   39.0460 H   0  0  0  0  0  0  0  0  0  0  0  0
   37.1620   29.9600   37.2360 H   0  0  0  0  0  0  0  0  0  0  0  0
   36.9350   32.3350   37.6750 H   0  0  0  0  0  0  0  0  0  0  0  0
   37.0900   33.4580   40.1330 N   0  0  0  0  0  0  0  0  0  0  0  0
   36.6490   33.3610   41.0880 H   0  0  0  0  0  0  0  0  0  0  0  0
   37.3490   34.3260   39.6090 H   0  0  0  0  0  0  0  0  0  0  0  0
   41.9110   31.0930   41.1850 C   0  0  0  0  0  0  0  0  0  0  0  0
   40.7940   30.5240   41.8030 C   0  0  0  0  0  0  0  0  0  0  0  0
   40.2570   29.3180   41.3860 C   0  0  0  0  0  0  0  0  0  0  0  0
   40.8880   28.7210   40.3310 N   0  0  0  0  0  0  0  0  0  0  0  0
   41.9640   29.2750   39.7420 C   0  0  0  0  0  0  0  0  0  0  0  0
   42.4810   30.4350   40.1420 N   0  0  0  0  0  0  0  0  0  0  0  0
   42.3320   32.0410   41.5130 H   0  0  0  0  0  0  0  0  0  0  0  0
   40.3400   31.0420   42.6270 H   0  0  0  0  0  0  0  0  0  0  0  0
   42.4320   28.7650   38.9090 H   0  0  0  0  0  0  0  0  0  0  0  0
  2  1  1  0  0  0  0
  2  7  1  0  0  0  0
  3  2  2  0  0  0  0
  4  3  1  0  0  0  0
  4  5  2  0  0  0  0
  5  6  1  0  0  0  0
  6  7  2  0  0  0  0
  6  9  1  0  0  0  0
  7 10  1  0  0  0  0
  8  5  1  0  0  0  0
 11 16  1  0  0  0  0
 11  4  1  0  0  0  0
 12 11  2  0  0  0  0
 13 14  2  0  0  0  0
 13 12  1  0  0  0  0
 14 15  1  0  0  0  0
 15 20  1  0  0  0  0
 15 16  2  0  0  0  0
 17 12  1  0  0  0  0
 18 13  1  0  0  0  0
 19 14  1  0  0  0  0
 20 21  1  0  0  0  0
 22 20  1  0  0  0  0
 23 29  1  0  0  0  0
 23 24  1  0  0  0  0
 24 30  1  0  0  0  0
 25 24  2  0  0  0  0
 25  3  1  0  0  0  0
 26 25  1  0  0  0  0
 27 28  1  0  0  0  0
 27 26  2  0  0  0  0
 28 23  2  0  0  0  0
 31 27  1  0  0  0  0
M  END
>  <minimizedAffinity>
-5.33244467

$$$$

 OpenBabel03252502133D

 31 33  0  0  0  0  0  0  0  0999 V2000
   36.2460   24.0510   38.0420 Cl  0  0  0  0  0  0  0  0  0  0  0  0
   36.5880   24.7490   39.6100 C   0  0  0  0  0  0  0  0  0  0  0  0
   36.9000   26.0660   39.7490 C   0  0  0  0  0  0  0  0  0  0  0  0
   37.1480   26.4930   41.0320 C   0  0  0  0  0  0  0  0  0  0  0  0
   37.0960   25.6880   42.1230 C   0  0  0  0  0  0  0  0  0  0  0  0
   36.7790   24.3570   41.9650 C   0  0  0  0  0  0  0  0  0  0  0  0
   36.5270   23.9010   40.7000 C   0  0  0  0  0  0  0  0  0  0  0  0
   37.2970   26.0550   43.1230 H   0  0  0  0  0  0  0  0  0  0  0  0
   36.7420   23.7290   42.8510 H   0  0  0  0  0  0  0  0  0  0  0  0
   36.2760   22.8540   40.5710 H   0  0  0  0  0  0  0  0  0  0  0  0
   37.4920   27.9160   41.2180 C   0  0  0  0  0  0  0  0  0  0  0  0
   38.8310   28.2340   41.4110 C   0  0  0  0  0  0  0  0  0  0  0  0
   39.0290   29.5810   41.5730 C   0  0  0  0  0  0  0  0  0  0  0  0
   38.0890   30.5660   41.5600 C   0  0  0  0  0  0  0  0  0  0  0  0
   36.7710   30.1560   41.3600 C   0  0  0  0  0  0  0  0  0  0  0  0
   36.5280   28.8400   41.1970 N   0  0  0  0  0  0  0  0  0  0  0  0
   39.5990   27.4910   41.4270 H   0  0  0  0  0  0  0  0  0  0  0  0
   40.0700   29.9270   41.7320 H   0  0  0  0  0  0  0  0  0  0  0  0
   38.3270   31.6140   41.6950 H   0  0  0  0  0  0  0  0  0  0  0  0
   35.6970   31.0880   41.3270 N   0  0  0  0  0  0  0  0  0  0  0  0
   35.0670   30.5930   40.6370 H   0  0  0  0  0  0  0  0  0  0  0  0
   35.5500   31.9970   41.8230 H   0  0  0  0  0  0  0  0  0  0  0  0
   38.1250   27.9660   36.7250 C   0  0  0  0  0  0  0  0  0  0  0  0
   38.1110   27.1520   37.8610 C   0  0  0  0  0  0  0  0  0  0  0  0
   36.9490   26.9020   38.5710 C   0  0  0  0  0  0  0  0  0  0  0  0
   35.8190   27.5010   38.0900 N   0  0  0  0  0  0  0  0  0  0  0  0
   35.8410   28.2820   36.9950 C   0  0  0  0  0  0  0  0  0  0  0  0
   36.9580   28.5240   36.3110 N   0  0  0  0  0  0  0  0  0  0  0  0
   39.0390   28.1620   36.1670 H   0  0  0  0  0  0  0  0  0  0  0  0
   39.0310   26.7100   38.1910 H   0  0  0  0  0  0  0  0  0  0  0  0
   34.9210   28.7360   36.6500 H   0  0  0  0  0  0  0  0  0  0  0  0
  1  2  1  0  0  0  0
  2  3  2  0  0  0  0
  2  7  1  0  0  0  0
  3  4  1  0  0  0  0
  4 11  1  0  0  0  0
  4  5  2  0  0  0  0
  5  8  1  0  0  0  0
  6  5  1  0  0  0  0
  6  9  1  0  0  0  0
  7  6  2  0  0  0  0
 10  7  1  0  0  0  0
 11 12  1  0  0  0  0
 12 17  1  0  0  0  0
 12 13  2  0  0  0  0
 13 18  1  0  0  0  0
 14 13  1  0  0  0  0
 14 19  1  0  0  0  0
 15 14  2  0  0  0  0
 16 11  2  0  0  0  0
 16 15  1  0  0  0  0
 20 15  1  0  0  0  0
 20 22  1  0  0  0  0
 21 20  1  0  0  0  0
 23 24  1  0  0  0  0
 24 30  1  0  0  0  0
 24 25  2  0  0  0  0
 25  3  1  0  0  0  0
 26 25  1  0  0  0  0
 27 26  2  0  0  0  0
 28 23  2  0  0  0  0
 28 27  1  0  0  0  0
 29 23  1  0  0  0  0
 31 27  1  0  0  0  0
M  END
>  <minimizedAffinity>
-5.19790936

$$$$

 OpenBabel03252502133D

 31 33  0  0  0  0  0  0  0  0999 V2000
   36.8770   30.3910   36.5520 Cl  0  0  0  0  0  0  0  0  0  0  0  0
   37.2820   30.9130   38.1730 C   0  0  0  0  0  0  0  0  0  0  0  0
   37.4990   30.0180   39.1740 C   0  0  0  0  0  0  0  0  0  0  0  0
   37.8100   30.5530   40.4020 C   0  0  0  0  0  0  0  0  0  0  0  0
   37.9050   31.8840   40.6470 C   0  0  0  0  0  0  0  0  0  0  0  0
   37.6820   32.7770   39.6230 C   0  0  0  0  0  0  0  0  0  0  0  0
   37.3710   32.2760   38.3880 C   0  0  0  0  0  0  0  0  0  0  0  0
   38.1520   32.2760   41.6270 H   0  0  0  0  0  0  0  0  0  0  0  0
   37.7640   33.8390   39.8390 H   0  0  0  0  0  0  0  0  0  0  0  0
   37.1950   32.9750   37.5780 H   0  0  0  0  0  0  0  0  0  0  0  0
   38.0500   29.6110   41.5120 C   0  0  0  0  0  0  0  0  0  0  0  0
   39.3670   29.4090   41.9100 C   0  0  0  0  0  0  0  0  0  0  0  0
   39.4660   28.5150   42.9440 C   0  0  0  0  0  0  0  0  0  0  0  0
   38.4560   27.8540   43.5720 C   0  0  0  0  0  0  0  0  0  0  0  0
   37.1670   28.1170   43.1080 C   0  0  0  0  0  0  0  0  0  0  0  0
   37.0190   28.9900   42.0900 N   0  0  0  0  0  0  0  0  0  0  0  0
   40.1880   29.9080   41.4430 H   0  0  0  0  0  0  0  0  0  0  0  0
   40.4830   28.2930   43.3280 H   0  0  0  0  0  0  0  0  0  0  0  0
   38.6170   27.1600   44.3870 H   0  0  0  0  0  0  0  0  0  0  0  0
   36.0250   27.4900   43.6800 N   0  0  0  0  0  0  0  0  0  0  0  0
   35.3220   28.2690   43.5480 H   0  0  0  0  0  0  0  0  0  0  0  0
   35.8930   26.5460   44.1090 H   0  0  0  0  0  0  0  0  0  0  0  0
   36.1280   26.5370   38.6660 C   0  0  0  0  0  0  0  0  0  0  0  0
   36.2000   27.9040   38.9500 C   0  0  0  0  0  0  0  0  0  0  0  0
   37.3910   28.6060   38.8870 C   0  0  0  0  0  0  0  0  0  0  0  0
   38.4910   27.8780   38.5300 N   0  0  0  0  0  0  0  0  0  0  0  0
   38.4140   26.5630   38.2570 C   0  0  0  0  0  0  0  0  0  0  0  0
   37.2680   25.8850   38.3180 N   0  0  0  0  0  0  0  0  0  0  0  0
   35.1920   25.9860   38.7160 H   0  0  0  0  0  0  0  0  0  0  0  0
   35.3010   28.4210   39.2260 H   0  0  0  0  0  0  0  0  0  0  0  0
   39.3120   26.0260   37.9780 H   0  0  0  0  0  0  0  0  0  0  0  0
  1  2  1  0  0  0  0
  2  7  2  0  0  0  0
  2  3  1  0  0  0  0
  3  4  2  0  0  0  0
  4  5  1  0  0  0  0
  4 11  1  0  0  0  0
  5  8  1  0  0  0  0
  6  9  1  0  0  0  0
  6  5  2  0  0  0  0
  7  6  1  0  0  0  0
 10  7  1  0  0  0  0
 11 12  2  0  0  0  0
 11 16  1  0  0  0  0
 12 13  1  0  0  0  0
 13 18  1  0  0  0  0
 13 14  2  0  0  0  0
 14 19  1  0  0  0  0
 15 14  1  0  0  0  0
 15 20  1  0  0  0  0
 16 15  2  0  0  0  0
 17 12  1  0  0  0  0
 20 22  1  0  0  0  0
 21 20  1  0  0  0  0
 23 29  1  0  0  0  0
 23 24  1  0  0  0  0
 24 30  1  0  0  0  0
 25 24  2  0  0  0  0
 25  3  1  0  0  0  0
 26 25  1  0  0  0  0
 27 28  1  0  0  0  0
 27 26  2  0  0  0  0
 28 23  2  0  0  0  0
 31 27  1  0  0  0  0
M  END
>  <minimizedAffinity>
-5.1760602

$$$$

 OpenBabel03252502133D

 31 33  0  0  0  0  0  0  0  0999 V2000
   37.3730   24.0730   42.2630 Cl  0  0  0  0  0  0  0  0  0  0  0  0
   36.7900   24.7180   40.7440 C   0  0  0  0  0  0  0  0  0  0  0  0
   36.9310   26.0330   40.4290 C   0  0  0  0  0  0  0  0  0  0  0  0
   36.4300   26.4160   39.2070 C   0  0  0  0  0  0  0  0  0  0  0  0
   35.8260   25.5690   38.3360 C   0  0  0  0  0  0  0  0  0  0  0  0
   35.6910   24.2400   38.6700 C   0  0  0  0  0  0  0  0  0  0  0  0
   36.1790   23.8270   39.8800 C   0  0  0  0  0  0  0  0  0  0  0  0
   35.4420   25.9010   37.3780 H   0  0  0  0  0  0  0  0  0  0  0  0
   35.2050   23.5770   37.9580 H   0  0  0  0  0  0  0  0  0  0  0  0
   36.0760   22.7820   40.1470 H   0  0  0  0  0  0  0  0  0  0  0  0
   36.5650   27.8370   38.8340 C   0  0  0  0  0  0  0  0  0  0  0  0
   35.5140   28.6880   39.1550 C   0  0  0  0  0  0  0  0  0  0  0  0
   35.7500   29.9790   38.7610 C   0  0  0  0  0  0  0  0  0  0  0  0
   36.8520   30.4660   38.1270 C   0  0  0  0  0  0  0  0  0  0  0  0
   37.8570   29.5420   37.8430 C   0  0  0  0  0  0  0  0  0  0  0  0
   37.6690   28.2580   38.2120 N   0  0  0  0  0  0  0  0  0  0  0  0
   34.6320   28.3460   39.6530 H   0  0  0  0  0  0  0  0  0  0  0  0
   34.9630   30.7300   38.9770 H   0  0  0  0  0  0  0  0  0  0  0  0
   36.9640   31.5060   37.8470 H   0  0  0  0  0  0  0  0  0  0  0  0
   39.0580   29.9240   37.1830 N   0  0  0  0  0  0  0  0  0  0  0  0
   39.7250   29.2430   37.6400 H   0  0  0  0  0  0  0  0  0  0  0  0
   39.2510   30.6560   36.4610 H   0  0  0  0  0  0  0  0  0  0  0  0
   37.5550   28.4330   43.2760 C   0  0  0  0  0  0  0  0  0  0  0  0
   36.9000   27.5870   42.3770 C   0  0  0  0  0  0  0  0  0  0  0  0
   37.5780   26.9140   41.3750 C   0  0  0  0  0  0  0  0  0  0  0  0
   38.9260   27.1290   41.3220 N   0  0  0  0  0  0  0  0  0  0  0  0
   39.5490   27.9450   42.1920 C   0  0  0  0  0  0  0  0  0  0  0  0
   38.8980   28.5930   43.1560 N   0  0  0  0  0  0  0  0  0  0  0  0
   37.0220   28.9620   44.0630 H   0  0  0  0  0  0  0  0  0  0  0  0
   35.8380   27.4590   42.4680 H   0  0  0  0  0  0  0  0  0  0  0  0
   40.6200   28.0850   42.1120 H   0  0  0  0  0  0  0  0  0  0  0  0
  2  1  1  0  0  0  0
  3  2  1  0  0  0  0
  3 25  1  0  0  0  0
  4  3  2  0  0  0  0
  5  6  2  0  0  0  0
  5  4  1  0  0  0  0
  6  7  1  0  0  0  0
  7 10  1  0  0  0  0
  7  2  2  0  0  0  0
  8  5  1  0  0  0  0
  9  6  1  0  0  0  0
 11 12  1  0  0  0  0
 11  4  1  0  0  0  0
 12 17  1  0  0  0  0
 13 18  1  0  0  0  0
 13 12  2  0  0  0  0
 14 13  1  0  0  0  0
 15 14  2  0  0  0  0
 15 16  1  0  0  0  0
 16 11  2  0  0  0  0
 19 14  1  0  0  0  0
 20 21  1  0  0  0  0
 20 15  1  0  0  0  0
 22 20  1  0  0  0  0
 23 29  1  0  0  0  0
 24 30  1  0  0  0  0
 24 23  2  0  0  0  0
 25 24  1  0  0  0  0
 26 25  2  0  0  0  0
 26 27  1  0  0  0  0
 27 28  2  0  0  0  0
 28 23  1  0  0  0  0
 31 27  1  0  0  0  0
M  END
>  <minimizedAffinity>
-5.16121817

$$$$

 OpenBabel03252502133D

 31 33  0  0  0  0  0  0  0  0999 V2000
   38.6090   28.5380   43.2010 Cl  0  0  0  0  0  0  0  0  0  0  0  0
   37.8280   27.5840   41.9590 C   0  0  0  0  0  0  0  0  0  0  0  0
   37.4280   28.1390   40.7830 C   0  0  0  0  0  0  0  0  0  0  0  0
   36.8270   27.2850   39.8890 C   0  0  0  0  0  0  0  0  0  0  0  0
   36.6240   25.9630   40.1210 C   0  0  0  0  0  0  0  0  0  0  0  0
   37.0350   25.4170   41.3170 C   0  0  0  0  0  0  0  0  0  0  0  0
   37.6370   26.2410   42.2280 C   0  0  0  0  0  0  0  0  0  0  0  0
   36.1470   25.3150   39.3960 H   0  0  0  0  0  0  0  0  0  0  0  0
   36.8640   24.3570   41.4840 H   0  0  0  0  0  0  0  0  0  0  0  0
   37.9630   25.8160   43.1710 H   0  0  0  0  0  0  0  0  0  0  0  0
   36.3790   27.8540   38.6040 C   0  0  0  0  0  0  0  0  0  0  0  0
   35.0660   28.3070   38.5240 C   0  0  0  0  0  0  0  0  0  0  0  0
   34.7650   28.8120   37.2860 C   0  0  0  0  0  0  0  0  0  0  0  0
   35.5850   28.9040   36.2030 C   0  0  0  0  0  0  0  0  0  0  0  0
   36.8840   28.4260   36.3730 C   0  0  0  0  0  0  0  0  0  0  0  0
   37.2270   27.9190   37.5750 N   0  0  0  0  0  0  0  0  0  0  0  0
   34.3910   28.2530   39.3510 H   0  0  0  0  0  0  0  0  0  0  0  0
   33.7370   29.1970   37.1310 H   0  0  0  0  0  0  0  0  0  0  0  0
   35.2690   29.3200   35.2540 H   0  0  0  0  0  0  0  0  0  0  0  0
   37.8380   28.4650   35.3180 N   0  0  0  0  0  0  0  0  0  0  0  0
   38.7150   28.6050   35.8900 H   0  0  0  0  0  0  0  0  0  0  0  0
   37.7300   28.3840   34.2810 H   0  0  0  0  0  0  0  0  0  0  0  0
   36.9700   31.8830   40.6250 C   0  0  0  0  0  0  0  0  0  0  0  0
   36.7200   30.5270   40.8510 C   0  0  0  0  0  0  0  0  0  0  0  0
   37.6560   29.5490   40.5610 C   0  0  0  0  0  0  0  0  0  0  0  0
   38.8370   29.9940   40.0390 N   0  0  0  0  0  0  0  0  0  0  0  0
   39.0710   31.3010   39.8250 C   0  0  0  0  0  0  0  0  0  0  0  0
   38.1710   32.2440   40.1030 N   0  0  0  0  0  0  0  0  0  0  0  0
   36.2340   32.6520   40.8530 H   0  0  0  0  0  0  0  0  0  0  0  0
   35.7710   30.2390   41.2620 H   0  0  0  0  0  0  0  0  0  0  0  0
   40.0230   31.6080   39.4100 H   0  0  0  0  0  0  0  0  0  0  0  0
  2  7  1  0  0  0  0
  2  1  1  0  0  0  0
  3  2  2  0  0  0  0
  4  5  2  0  0  0  0
  4  3  1  0  0  0  0
  5  6  1  0  0  0  0
  6  9  1  0  0  0  0
  6  7  2  0  0  0  0
  7 10  1  0  0  0  0
  8  5  1  0  0  0  0
 11  4  1  0  0  0  0
 12 11  1  0  0  0  0
 12 17  1  0  0  0  0
 13 12  2  0  0  0  0
 14 15  2  0  0  0  0
 14 13  1  0  0  0  0
 15 16  1  0  0  0  0
 16 11  2  0  0  0  0
 18 13  1  0  0  0  0
 19 14  1  0  0  0  0
 20 21  1  0  0  0  0
 20 15  1  0  0  0  0
 22 20  1  0  0  0  0
 23 24  1  0  0  0  0
 23 29  1  0  0  0  0
 24 30  1  0  0  0  0
 25  3  1  0  0  0  0
 25 24  2  0  0  0  0
 26 25  1  0  0  0  0
 27 26  2  0  0  0  0
 27 28  1  0  0  0  0
 28 23  2  0  0  0  0
 31 27  1  0  0  0  0
M  END
>  <minimizedAffinity>
-5.11657476

$$$$

 OpenBabel03252502133D

 31 33  0  0  0  0  0  0  0  0999 V2000
   35.6240   25.4450   37.2440 Cl  0  0  0  0  0  0  0  0  0  0  0  0
   36.1590   25.1970   38.8920 C   0  0  0  0  0  0  0  0  0  0  0  0
   36.6460   26.2220   39.6430 C   0  0  0  0  0  0  0  0  0  0  0  0
   37.0340   25.8990   40.9220 C   0  0  0  0  0  0  0  0  0  0  0  0
   36.9530   24.6500   41.4470 C   0  0  0  0  0  0  0  0  0  0  0  0
   36.4570   23.6240   40.6730 C   0  0  0  0  0  0  0  0  0  0  0  0
   36.0630   23.9130   39.3960 C   0  0  0  0  0  0  0  0  0  0  0  0
   37.2660   24.4270   42.4600 H   0  0  0  0  0  0  0  0  0  0  0  0
   36.4000   22.6310   41.1120 H   0  0  0  0  0  0  0  0  0  0  0  0
   35.6720   23.1080   38.7830 H   0  0  0  0  0  0  0  0  0  0  0  0
   37.5690   26.9860   41.7630 C   0  0  0  0  0  0  0  0  0  0  0  0
   36.7200   27.5390   42.7160 C   0  0  0  0  0  0  0  0  0  0  0  0
   37.3240   28.5380   43.4340 C   0  0  0  0  0  0  0  0  0  0  0  0
   38.5970   29.0020   43.3050 C   0  0  0  0  0  0  0  0  0  0  0  0
   39.3780   28.3890   42.3240 C   0  0  0  0  0  0  0  0  0  0  0  0
   38.8260   27.4010   41.5910 N   0  0  0  0  0  0  0  0  0  0  0  0
   35.7140   27.2030   42.8490 H   0  0  0  0  0  0  0  0  0  0  0  0
   36.7200   29.0370   44.2190 H   0  0  0  0  0  0  0  0  0  0  0  0
   39.0030   29.7990   43.9140 H   0  0  0  0  0  0  0  0  0  0  0  0
   40.7250   28.7830   42.0890 N   0  0  0  0  0  0  0  0  0  0  0  0
   41.1240   27.8490   41.7960 H   0  0  0  0  0  0  0  0  0  0  0  0
   41.2030   29.7100   42.1740 H   0  0  0  0  0  0  0  0  0  0  0  0
   35.8250   29.7590   38.6110 C   0  0  0  0  0  0  0  0  0  0  0  0
   35.7210   28.4900   39.1880 C   0  0  0  0  0  0  0  0  0  0  0  0
   36.7220   27.5420   39.0600 C   0  0  0  0  0  0  0  0  0  0  0  0
   37.8140   27.9260   38.3350 N   0  0  0  0  0  0  0  0  0  0  0  0
   37.9060   29.1490   37.7830 C   0  0  0  0  0  0  0  0  0  0  0  0
   36.9440   30.0630   37.9050 N   0  0  0  0  0  0  0  0  0  0  0  0
   35.0380   30.5040   38.7120 H   0  0  0  0  0  0  0  0  0  0  0  0
   34.8380   28.2470   39.7460 H   0  0  0  0  0  0  0  0  0  0  0  0
   38.7910   29.4100   37.2170 H   0  0  0  0  0  0  0  0  0  0  0  0
  1  2  1  0  0  0  0
  2  7  2  0  0  0  0
  2  3  1  0  0  0  0
  3  4  2  0  0  0  0
  4  5  1  0  0  0  0
  4 11  1  0  0  0  0
  5  8  1  0  0  0  0
  6  9  1  0  0  0  0
  6  5  2  0  0  0  0
  7  6  1  0  0  0  0
 10  7  1  0  0  0  0
 11 12  1  0  0  0  0
 12 17  1  0  0  0  0
 12 13  2  0  0  0  0
 13 18  1  0  0  0  0
 14 13  1  0  0  0  0
 14 19  1  0  0  0  0
 15 14  2  0  0  0  0
 16 11  2  0  0  0  0
 16 15  1  0  0  0  0
 20 22  1  0  0  0  0
 20 15  1  0  0  0  0
 21 20  1  0  0  0  0
 23 29  1  0  0  0  0
 23 24  1  0  0  0  0
 24 30  1  0  0  0  0
 25 24  2  0  0  0  0
 25  3  1  0  0  0  0
 26 25  1  0  0  0  0
 27 28  1  0  0  0  0
 27 26  2  0  0  0  0
 28 23  2  0  0  0  0
 31 27  1  0  0  0  0
M  END
>  <minimizedAffinity>
-5.05031776

$$$$
