
 OpenBabel03252500533D

 18 18  0  0  0  0  0  0  0  0999 V2000
   37.1680   29.2730   41.7880 C   0  0  0  0  0  0  0  0  0  0  0  0
   36.4010   30.1760   41.0670 C   0  0  0  0  0  0  0  0  0  0  0  0
   36.9540   31.4060   40.6720 C   0  0  0  0  0  0  0  0  0  0  0  0
   38.2370   31.6260   41.0370 N   0  0  0  0  0  0  0  0  0  0  0  0
   38.9720   30.7430   41.7360 C   0  0  0  0  0  0  0  0  0  0  0  0
   38.4360   29.5820   42.1030 N   0  0  0  0  0  0  0  0  0  0  0  0
   36.3990   32.1460   40.1090 H   0  0  0  0  0  0  0  0  0  0  0  0
   39.9930   30.9400   42.0150 H   0  0  0  0  0  0  0  0  0  0  0  0
   36.6370   27.9820   42.2220 C   0  0  0  0  0  0  0  0  0  0  0  0
   37.1590   27.1820   41.6440 H   0  0  0  0  0  0  0  0  0  0  0  0
   35.5720   27.8920   42.0570 H   0  0  0  0  0  0  0  0  0  0  0  0
   36.9840   27.7790   43.6790 C   0  0  0  0  0  0  0  0  0  0  0  0
   36.0410   27.6540   44.2480 H   0  0  0  0  0  0  0  0  0  0  0  0
   37.6550   26.8860   43.8270 H   0  0  0  0  0  0  0  0  0  0  0  0
   37.4940   28.6510   44.1380 H   0  0  0  0  0  0  0  0  0  0  0  0
   35.0530   29.8800   40.7170 N   0  0  0  0  0  0  0  0  0  0  0  0
   34.9050   29.4110   39.7980 H   0  0  0  0  0  0  0  0  0  0  0  0
   34.1670   30.0620   41.2470 H   0  0  0  0  0  0  0  0  0  0  0  0
  1  6  1  0  0  0  0
  1  9  1  0  0  0  0
  2  1  2  0  0  0  0
  3  4  2  0  0  0  0
  3  2  1  0  0  0  0
  4  5  1  0  0  0  0
  5  8  1  0  0  0  0
  5  6  2  0  0  0  0
  7  3  1  0  0  0  0
  9 12  1  0  0  0  0
 10  9  1  0  0  0  0
 11  9  1  0  0  0  0
 12 14  1  0  0  0  0
 12 15  1  0  0  0  0
 12 13  1  0  0  0  0
 16  2  1  0  0  0  0
 16 18  1  0  0  0  0
 17 16  1  0  0  0  0
M  END
>  <minimizedAffinity>
-3.44335127

$$$$

 OpenBabel03252500533D

 18 18  0  0  0  0  0  0  0  0999 V2000
   36.8010   28.6010   41.3930 C   0  0  0  0  0  0  0  0  0  0  0  0
   35.9530   29.5180   40.7900 C   0  0  0  0  0  0  0  0  0  0  0  0
   35.3700   29.2190   39.5470 C   0  0  0  0  0  0  0  0  0  0  0  0
   35.6890   28.0200   39.0120 N   0  0  0  0  0  0  0  0  0  0  0  0
   36.5140   27.1380   39.6060 C   0  0  0  0  0  0  0  0  0  0  0  0
   37.0590   27.4330   40.7830 N   0  0  0  0  0  0  0  0  0  0  0  0
   34.7010   29.9000   39.0330 H   0  0  0  0  0  0  0  0  0  0  0  0
   36.7530   26.1870   39.1590 H   0  0  0  0  0  0  0  0  0  0  0  0
   37.4320   28.8660   42.6840 C   0  0  0  0  0  0  0  0  0  0  0  0
   37.0620   29.8520   43.0540 H   0  0  0  0  0  0  0  0  0  0  0  0
   38.5110   28.9000   42.6230 H   0  0  0  0  0  0  0  0  0  0  0  0
   36.9740   27.8180   43.6730 C   0  0  0  0  0  0  0  0  0  0  0  0
   37.8670   27.2800   44.0510 H   0  0  0  0  0  0  0  0  0  0  0  0
   36.3990   28.2740   44.5270 H   0  0  0  0  0  0  0  0  0  0  0  0
   36.3270   27.0370   43.2220 H   0  0  0  0  0  0  0  0  0  0  0  0
   35.6600   30.7650   41.4100 N   0  0  0  0  0  0  0  0  0  0  0  0
   34.8260   30.7880   42.0350 H   0  0  0  0  0  0  0  0  0  0  0  0
   36.1600   31.6840   41.3370 H   0  0  0  0  0  0  0  0  0  0  0  0
  1  9  1  0  0  0  0
  2  1  1  0  0  0  0
  2 16  1  0  0  0  0
  3  2  2  0  0  0  0
  4  3  1  0  0  0  0
  4  5  2  0  0  0  0
  5  6  1  0  0  0  0
  6  1  2  0  0  0  0
  7  3  1  0  0  0  0
  8  5  1  0  0  0  0
  9 10  1  0  0  0  0
  9 12  1  0  0  0  0
 11  9  1  0  0  0  0
 12 13  1  0  0  0  0
 12 14  1  0  0  0  0
 15 12  1  0  0  0  0
 16 17  1  0  0  0  0
 18 16  1  0  0  0  0
M  END
>  <minimizedAffinity>
-3.44061089

$$$$

 OpenBabel03252500533D

 18 18  0  0  0  0  0  0  0  0999 V2000
   37.7020   31.4790   40.5940 C   0  0  0  0  0  0  0  0  0  0  0  0
   36.8680   30.5970   41.2660 C   0  0  0  0  0  0  0  0  0  0  0  0
   37.4100   29.7000   42.2030 C   0  0  0  0  0  0  0  0  0  0  0  0
   38.7470   29.7650   42.3870 N   0  0  0  0  0  0  0  0  0  0  0  0
   39.5450   30.6250   41.7280 C   0  0  0  0  0  0  0  0  0  0  0  0
   39.0200   31.4690   40.8440 N   0  0  0  0  0  0  0  0  0  0  0  0
   36.8040   28.9910   42.7540 H   0  0  0  0  0  0  0  0  0  0  0  0
   40.6100   30.6590   41.8920 H   0  0  0  0  0  0  0  0  0  0  0  0
   37.1870   32.4290   39.6100 C   0  0  0  0  0  0  0  0  0  0  0  0
   36.0870   32.5360   39.7740 H   0  0  0  0  0  0  0  0  0  0  0  0
   37.3560   32.1090   38.5910 H   0  0  0  0  0  0  0  0  0  0  0  0
   37.8100   33.7820   39.8680 C   0  0  0  0  0  0  0  0  0  0  0  0
   38.3600   34.0930   38.9570 H   0  0  0  0  0  0  0  0  0  0  0  0
   37.0350   34.5520   40.1430 H   0  0  0  0  0  0  0  0  0  0  0  0
   38.5650   33.7730   40.6820 H   0  0  0  0  0  0  0  0  0  0  0  0
   35.4660   30.5810   41.0230 N   0  0  0  0  0  0  0  0  0  0  0  0
   34.8830   31.1950   41.6300 H   0  0  0  0  0  0  0  0  0  0  0  0
   34.9150   30.0380   40.3150 H   0  0  0  0  0  0  0  0  0  0  0  0
  1  6  2  0  0  0  0
  1  2  1  0  0  0  0
  2  3  2  0  0  0  0
  3  4  1  0  0  0  0
  3  7  1  0  0  0  0
  5  8  1  0  0  0  0
  5  4  2  0  0  0  0
  6  5  1  0  0  0  0
  9 10  1  0  0  0  0
  9 12  1  0  0  0  0
  9  1  1  0  0  0  0
 11  9  1  0  0  0  0
 12 14  1  0  0  0  0
 12 15  1  0  0  0  0
 13 12  1  0  0  0  0
 16  2  1  0  0  0  0
 16 17  1  0  0  0  0
 18 16  1  0  0  0  0
M  END
>  <minimizedAffinity>
-3.4089148

$$$$

 OpenBabel03252500533D

 18 18  0  0  0  0  0  0  0  0999 V2000
   35.7870   28.7650   40.3640 C   0  0  0  0  0  0  0  0  0  0  0  0
   36.2760   29.7200   41.2430 C   0  0  0  0  0  0  0  0  0  0  0  0
   37.3300   29.3950   42.1140 C   0  0  0  0  0  0  0  0  0  0  0  0
   37.8050   28.1320   42.0280 N   0  0  0  0  0  0  0  0  0  0  0  0
   37.3220   27.2140   41.1720 C   0  0  0  0  0  0  0  0  0  0  0  0
   36.3250   27.5350   40.3520 N   0  0  0  0  0  0  0  0  0  0  0  0
   37.7480   30.1030   42.8190 H   0  0  0  0  0  0  0  0  0  0  0  0
   37.7180   26.2130   41.1210 H   0  0  0  0  0  0  0  0  0  0  0  0
   34.6920   29.0550   39.4400 C   0  0  0  0  0  0  0  0  0  0  0  0
   34.2340   30.0280   39.7410 H   0  0  0  0  0  0  0  0  0  0  0  0
   33.9260   28.2930   39.4470 H   0  0  0  0  0  0  0  0  0  0  0  0
   35.2640   29.2420   38.0530 C   0  0  0  0  0  0  0  0  0  0  0  0
   34.8020   28.4910   37.3810 H   0  0  0  0  0  0  0  0  0  0  0  0
   35.0820   30.2830   37.6640 H   0  0  0  0  0  0  0  0  0  0  0  0
   36.3570   29.0580   37.9960 H   0  0  0  0  0  0  0  0  0  0  0  0
   35.7270   31.0330   41.2810 N   0  0  0  0  0  0  0  0  0  0  0  0
   36.1760   31.7410   40.6620 H   0  0  0  0  0  0  0  0  0  0  0  0
   34.9270   31.4090   41.8450 H   0  0  0  0  0  0  0  0  0  0  0  0
  1  2  1  0  0  0  0
  2 16  1  0  0  0  0
  2  3  2  0  0  0  0
  3  7  1  0  0  0  0
  4  3  1  0  0  0  0
  5  4  2  0  0  0  0
  6  1  2  0  0  0  0
  6  5  1  0  0  0  0
  8  5  1  0  0  0  0
  9 11  1  0  0  0  0
  9 10  1  0  0  0  0
  9  1  1  0  0  0  0
 12  9  1  0  0  0  0
 13 12  1  0  0  0  0
 14 12  1  0  0  0  0
 15 12  1  0  0  0  0
 16 18  1  0  0  0  0
 17 16  1  0  0  0  0
M  END
>  <minimizedAffinity>
-3.39124417

$$$$

 OpenBabel03252500533D

 18 18  0  0  0  0  0  0  0  0999 V2000
   36.2110   30.1160   39.0980 C   0  0  0  0  0  0  0  0  0  0  0  0
   36.3790   31.0780   40.0820 C   0  0  0  0  0  0  0  0  0  0  0  0
   37.1620   32.2150   39.8220 C   0  0  0  0  0  0  0  0  0  0  0  0
   37.7130   32.2910   38.5910 N   0  0  0  0  0  0  0  0  0  0  0  0
   37.5430   31.3510   37.6430 C   0  0  0  0  0  0  0  0  0  0  0  0
   36.7990   30.2790   37.9020 N   0  0  0  0  0  0  0  0  0  0  0  0
   37.3260   32.9960   40.5560 H   0  0  0  0  0  0  0  0  0  0  0  0
   37.9930   31.4330   36.6670 H   0  0  0  0  0  0  0  0  0  0  0  0
   35.4070   28.9150   39.3200 C   0  0  0  0  0  0  0  0  0  0  0  0
   34.9000   29.0180   40.3100 H   0  0  0  0  0  0  0  0  0  0  0  0
   35.9990   28.0110   39.3250 H   0  0  0  0  0  0  0  0  0  0  0  0
   34.3240   28.8540   38.2680 C   0  0  0  0  0  0  0  0  0  0  0  0
   34.4440   27.9110   37.6970 H   0  0  0  0  0  0  0  0  0  0  0  0
   33.2960   28.9100   38.7240 H   0  0  0  0  0  0  0  0  0  0  0  0
   34.3920   29.6670   37.5140 H   0  0  0  0  0  0  0  0  0  0  0  0
   35.7700   30.9350   41.3610 N   0  0  0  0  0  0  0  0  0  0  0  0
   34.8220   31.3520   41.4720 H   0  0  0  0  0  0  0  0  0  0  0  0
   36.1310   30.4660   42.2270 H   0  0  0  0  0  0  0  0  0  0  0  0
  1  9  1  0  0  0  0
  1  2  1  0  0  0  0
  2 16  1  0  0  0  0
  3  2  2  0  0  0  0
  3  7  1  0  0  0  0
  4  3  1  0  0  0  0
  5  6  1  0  0  0  0
  5  4  2  0  0  0  0
  6  1  2  0  0  0  0
  8  5  1  0  0  0  0
  9 11  1  0  0  0  0
  9 10  1  0  0  0  0
 12 14  1  0  0  0  0
 12  9  1  0  0  0  0
 13 12  1  0  0  0  0
 15 12  1  0  0  0  0
 16 17  1  0  0  0  0
 16 18  1  0  0  0  0
M  END
>  <minimizedAffinity>
-3.33557987

$$$$

 OpenBabel03252500533D

 18 18  0  0  0  0  0  0  0  0999 V2000
   37.9580   30.2470   40.9650 C   0  0  0  0  0  0  0  0  0  0  0  0
   36.9240   31.1420   40.7290 C   0  0  0  0  0  0  0  0  0  0  0  0
   37.1430   32.2620   39.9100 C   0  0  0  0  0  0  0  0  0  0  0  0
   38.3860   32.3900   39.3950 N   0  0  0  0  0  0  0  0  0  0  0  0
   39.3800   31.5160   39.6310 C   0  0  0  0  0  0  0  0  0  0  0  0
   39.1600   30.4590   40.4080 N   0  0  0  0  0  0  0  0  0  0  0  0
   36.3710   32.9910   39.6940 H   0  0  0  0  0  0  0  0  0  0  0  0
   40.3640   31.6390   39.2080 H   0  0  0  0  0  0  0  0  0  0  0  0
   37.7800   29.0680   41.8110 C   0  0  0  0  0  0  0  0  0  0  0  0
   38.3060   28.2110   41.3240 H   0  0  0  0  0  0  0  0  0  0  0  0
   36.7410   28.8050   41.9480 H   0  0  0  0  0  0  0  0  0  0  0  0
   38.4620   29.3150   43.1380 C   0  0  0  0  0  0  0  0  0  0  0  0
   37.7010   29.2340   43.9410 H   0  0  0  0  0  0  0  0  0  0  0  0
   39.3020   28.5860   43.3160 H   0  0  0  0  0  0  0  0  0  0  0  0
   38.8870   30.3350   43.2340 H   0  0  0  0  0  0  0  0  0  0  0  0
   35.6370   30.9470   41.3060 N   0  0  0  0  0  0  0  0  0  0  0  0
   34.9540   30.4010   40.7390 H   0  0  0  0  0  0  0  0  0  0  0  0
   35.2600   31.2710   42.2290 H   0  0  0  0  0  0  0  0  0  0  0  0
  1  9  1  0  0  0  0
  2  1  1  0  0  0  0
  2 16  1  0  0  0  0
  3  2  2  0  0  0  0
  4  5  2  0  0  0  0
  4  3  1  0  0  0  0
  5  6  1  0  0  0  0
  6  1  2  0  0  0  0
  7  3  1  0  0  0  0
  8  5  1  0  0  0  0
  9 11  1  0  0  0  0
  9 12  1  0  0  0  0
 10  9  1  0  0  0  0
 12 15  1  0  0  0  0
 12 14  1  0  0  0  0
 12 13  1  0  0  0  0
 16 18  1  0  0  0  0
 17 16  1  0  0  0  0
M  END
>  <minimizedAffinity>
-3.27486897

$$$$

 OpenBabel03252500533D

 18 18  0  0  0  0  0  0  0  0999 V2000
   38.2610   27.2130   42.6010 C   0  0  0  0  0  0  0  0  0  0  0  0
   37.2880   28.2020   42.5890 C   0  0  0  0  0  0  0  0  0  0  0  0
   36.3660   28.2630   41.5300 C   0  0  0  0  0  0  0  0  0  0  0  0
   36.4990   27.3210   40.5690 N   0  0  0  0  0  0  0  0  0  0  0  0
   37.4470   26.3670   40.5920 C   0  0  0  0  0  0  0  0  0  0  0  0
   38.3130   26.3200   41.6000 N   0  0  0  0  0  0  0  0  0  0  0  0
   35.5880   29.0150   41.4720 H   0  0  0  0  0  0  0  0  0  0  0  0
   37.5330   25.6260   39.8150 H   0  0  0  0  0  0  0  0  0  0  0  0
   39.2420   27.1090   43.6800 C   0  0  0  0  0  0  0  0  0  0  0  0
   38.6890   27.0930   44.6500 H   0  0  0  0  0  0  0  0  0  0  0  0
   39.9400   27.9340   43.6900 H   0  0  0  0  0  0  0  0  0  0  0  0
   39.9630   25.7850   43.5550 C   0  0  0  0  0  0  0  0  0  0  0  0
   41.0460   25.9880   43.4310 H   0  0  0  0  0  0  0  0  0  0  0  0
   39.7850   25.1280   44.4510 H   0  0  0  0  0  0  0  0  0  0  0  0
   39.6660   25.2030   42.6570 H   0  0  0  0  0  0  0  0  0  0  0  0
   37.2060   29.1650   43.6340 N   0  0  0  0  0  0  0  0  0  0  0  0
   36.5880   28.9240   44.4380 H   0  0  0  0  0  0  0  0  0  0  0  0
   37.6780   30.0970   43.7260 H   0  0  0  0  0  0  0  0  0  0  0  0
  1  9  1  0  0  0  0
  2  1  1  0  0  0  0
  2 16  1  0  0  0  0
  3  2  2  0  0  0  0
  4  5  2  0  0  0  0
  4  3  1  0  0  0  0
  5  6  1  0  0  0  0
  6  1  2  0  0  0  0
  7  3  1  0  0  0  0
  8  5  1  0  0  0  0
  9 11  1  0  0  0  0
  9 10  1  0  0  0  0
 12  9  1  0  0  0  0
 12 14  1  0  0  0  0
 13 12  1  0  0  0  0
 15 12  1  0  0  0  0
 16 18  1  0  0  0  0
 16 17  1  0  0  0  0
M  END
>  <minimizedAffinity>
-3.26720858

$$$$

 OpenBabel03252500533D

 18 18  0  0  0  0  0  0  0  0999 V2000
   36.7570   30.7660   39.2680 C   0  0  0  0  0  0  0  0  0  0  0  0
   35.8100   30.2950   40.1660 C   0  0  0  0  0  0  0  0  0  0  0  0
   34.8970   29.3050   39.7630 C   0  0  0  0  0  0  0  0  0  0  0  0
   35.0130   28.8710   38.4880 N   0  0  0  0  0  0  0  0  0  0  0  0
   35.9350   29.3360   37.6270 C   0  0  0  0  0  0  0  0  0  0  0  0
   36.7940   30.2720   38.0210 N   0  0  0  0  0  0  0  0  0  0  0  0
   34.1380   28.9030   40.4230 H   0  0  0  0  0  0  0  0  0  0  0  0
   36.0090   28.9740   36.6150 H   0  0  0  0  0  0  0  0  0  0  0  0
   37.7270   31.7950   39.6390 C   0  0  0  0  0  0  0  0  0  0  0  0
   38.6610   31.6160   39.0550 H   0  0  0  0  0  0  0  0  0  0  0  0
   37.9670   31.7820   40.6930 H   0  0  0  0  0  0  0  0  0  0  0  0
   37.1890   33.1440   39.2170 C   0  0  0  0  0  0  0  0  0  0  0  0
   37.1040   33.7830   40.1190 H   0  0  0  0  0  0  0  0  0  0  0  0
   37.8500   33.6340   38.4490 H   0  0  0  0  0  0  0  0  0  0  0  0
   36.1660   33.0980   38.7880 H   0  0  0  0  0  0  0  0  0  0  0  0
   35.7430   30.7980   41.4950 N   0  0  0  0  0  0  0  0  0  0  0  0
   36.3030   30.2900   42.2120 H   0  0  0  0  0  0  0  0  0  0  0  0
   35.2090   31.6160   41.8760 H   0  0  0  0  0  0  0  0  0  0  0  0
  1  9  1  0  0  0  0
  1  2  1  0  0  0  0
  2 16  1  0  0  0  0
  3  2  2  0  0  0  0
  3  7  1  0  0  0  0
  4  3  1  0  0  0  0
  5  6  1  0  0  0  0
  5  4  2  0  0  0  0
  6  1  2  0  0  0  0
  8  5  1  0  0  0  0
  9 11  1  0  0  0  0
 10  9  1  0  0  0  0
 12  9  1  0  0  0  0
 12 13  1  0  0  0  0
 14 12  1  0  0  0  0
 15 12  1  0  0  0  0
 16 18  1  0  0  0  0
 16 17  1  0  0  0  0
M  END
>  <minimizedAffinity>
-3.23763466

$$$$

 OpenBabel03252500533D

 18 18  0  0  0  0  0  0  0  0999 V2000
   36.5750   28.5410   42.0370 C   0  0  0  0  0  0  0  0  0  0  0  0
   37.3990   29.6520   42.1400 C   0  0  0  0  0  0  0  0  0  0  0  0
   37.2420   30.7250   41.2470 C   0  0  0  0  0  0  0  0  0  0  0  0
   36.2660   30.5920   40.3210 N   0  0  0  0  0  0  0  0  0  0  0  0
   35.4730   29.5090   40.2300 C   0  0  0  0  0  0  0  0  0  0  0  0
   35.6320   28.5000   41.0820 N   0  0  0  0  0  0  0  0  0  0  0  0
   37.8590   31.6150   41.2840 H   0  0  0  0  0  0  0  0  0  0  0  0
   34.7010   29.4260   39.4830 H   0  0  0  0  0  0  0  0  0  0  0  0
   36.7000   27.4000   42.9410 C   0  0  0  0  0  0  0  0  0  0  0  0
   35.6800   27.1430   43.3170 H   0  0  0  0  0  0  0  0  0  0  0  0
   37.3410   27.6050   43.7870 H   0  0  0  0  0  0  0  0  0  0  0  0
   37.1990   26.2090   42.1540 C   0  0  0  0  0  0  0  0  0  0  0  0
   38.1560   25.8720   42.6010 H   0  0  0  0  0  0  0  0  0  0  0  0
   36.4490   25.3690   42.1490 H   0  0  0  0  0  0  0  0  0  0  0  0
   37.4330   26.4450   41.0950 H   0  0  0  0  0  0  0  0  0  0  0  0
   38.4090   29.7260   43.1410 N   0  0  0  0  0  0  0  0  0  0  0  0
   38.1340   30.1630   44.0460 H   0  0  0  0  0  0  0  0  0  0  0  0
   39.4070   29.4050   43.1110 H   0  0  0  0  0  0  0  0  0  0  0  0
  1  2  1  0  0  0  0
  1  9  1  0  0  0  0
  2 16  1  0  0  0  0
  3  7  1  0  0  0  0
  3  2  2  0  0  0  0
  4  3  1  0  0  0  0
  5  4  2  0  0  0  0
  5  6  1  0  0  0  0
  6  1  2  0  0  0  0
  8  5  1  0  0  0  0
  9 10  1  0  0  0  0
  9 11  1  0  0  0  0
 12 13  1  0  0  0  0
 12  9  1  0  0  0  0
 14 12  1  0  0  0  0
 15 12  1  0  0  0  0
 16 17  1  0  0  0  0
 18 16  1  0  0  0  0
M  END
>  <minimizedAffinity>
-3.2328403

$$$$
