
 OpenBabel03252504023D

 30 32  0  0  0  0  0  0  0  0999 V2000
   46.1310   31.4250   45.1170 C   0  0  0  0  0  0  0  0  0  0  0  0
   46.0800   32.7740   45.3730 C   0  0  0  0  0  0  0  0  0  0  0  0
   45.8160   33.2060   46.6650 C   0  0  0  0  0  0  0  0  0  0  0  0
   45.6140   32.2570   47.6530 C   0  0  0  0  0  0  0  0  0  0  0  0
   45.3450   32.3850   48.9740 N   0  0  0  0  0  0  0  0  0  0  0  0
   45.2320   31.1470   49.5260 C   0  0  0  0  0  0  0  0  0  0  0  0
   45.4300   30.2160   48.5510 C   0  0  0  0  0  0  0  0  0  0  0  0
   45.6680   30.8990   47.3820 C   0  0  0  0  0  0  0  0  0  0  0  0
   45.9290   30.4870   46.1030 C   0  0  0  0  0  0  0  0  0  0  0  0
   46.3340   31.0320   44.1190 H   0  0  0  0  0  0  0  0  0  0  0  0
   45.7730   34.2660   46.8830 H   0  0  0  0  0  0  0  0  0  0  0  0
   45.2470   33.2990   49.4560 H   0  0  0  0  0  0  0  0  0  0  0  0
   45.0160   31.0270   50.5840 H   0  0  0  0  0  0  0  0  0  0  0  0
   45.3920   29.1520   48.7350 H   0  0  0  0  0  0  0  0  0  0  0  0
   45.9740   29.4240   45.8800 H   0  0  0  0  0  0  0  0  0  0  0  0
   47.7630   34.6010   42.7070 C   0  0  0  0  0  0  0  0  0  0  0  0
   46.8050   35.4470   42.2060 C   0  0  0  0  0  0  0  0  0  0  0  0
   45.5500   35.3860   42.8010 C   0  0  0  0  0  0  0  0  0  0  0  0
   45.3370   34.5250   43.8120 N   0  0  0  0  0  0  0  0  0  0  0  0
   46.3040   33.7090   44.2760 C   0  0  0  0  0  0  0  0  0  0  0  0
   47.5190   33.7590   43.7100 N   0  0  0  0  0  0  0  0  0  0  0  0
   46.9360   36.1540   41.3950 H   0  0  0  0  0  0  0  0  0  0  0  0
   49.0580   34.6880   42.0670 C   0  0  0  0  0  0  0  0  0  0  0  0
   50.1360   34.1620   42.4920 O   0  0  0  0  0  0  0  0  0  0  0  0
   48.8870   35.4630   40.8940 N   0  0  0  0  0  0  0  0  0  0  0  0
   48.9110   36.4930   40.8920 H   0  0  0  0  0  0  0  0  0  0  0  0
   48.7410   34.8370   40.0760 H   0  0  0  0  0  0  0  0  0  0  0  0
   44.4610   36.2020   42.3870 N   0  0  0  0  0  0  0  0  0  0  0  0
   44.1190   36.9630   43.0360 H   0  0  0  0  0  0  0  0  0  0  0  0
   43.8670   36.2390   41.5320 H   0  0  0  0  0  0  0  0  0  0  0  0
  1  2  2  0  0  0  0
  1  9  1  0  0  0  0
  2  3  1  0  0  0  0
  3 11  1  0  0  0  0
  3  4  2  0  0  0  0
  4  5  1  0  0  0  0
  5 12  1  0  0  0  0
  5  6  1  0  0  0  0
  6 13  1  0  0  0  0
  7 14  1  0  0  0  0
  7  6  2  0  0  0  0
  8  4  1  0  0  0  0
  8  7  1  0  0  0  0
  9  8  2  0  0  0  0
 10  1  1  0  0  0  0
 15  9  1  0  0  0  0
 16 21  1  0  0  0  0
 17 16  2  0  0  0  0
 17 18  1  0  0  0  0
 18 19  2  0  0  0  0
 19 20  1  0  0  0  0
 20  2  1  0  0  0  0
 21 20  2  0  0  0  0
 22 17  1  0  0  0  0
 23 24  2  0  0  0  0
 23 16  1  0  0  0  0
 25 23  1  0  0  0  0
 26 25  1  0  0  0  0
 27 25  1  0  0  0  0
 28 18  1  0  0  0  0
 28 29  1  0  0  0  0
 30 28  1  0  0  0  0
M  END
>  <minimizedAffinity>
-6.20239305

>  <minimizedRMSD>
1.08925068

$$$$
