
 OpenBabel03242522573D

 22 23  0  0  0  0  0  0  0  0999 V2000
   37.9610   27.9740   38.7940 Cl  0  0  0  0  0  0  0  0  0  0  0  0
   37.6570   29.6510   39.1450 C   0  0  0  0  0  0  0  0  0  0  0  0
   37.5140   30.0930   40.4240 C   0  0  0  0  0  0  0  0  0  0  0  0
   37.2760   31.4460   40.5750 C   0  0  0  0  0  0  0  0  0  0  0  0
   37.1830   32.3090   39.5330 C   0  0  0  0  0  0  0  0  0  0  0  0
   37.3310   31.8460   38.2390 C   0  0  0  0  0  0  0  0  0  0  0  0
   37.5680   30.5080   38.0690 C   0  0  0  0  0  0  0  0  0  0  0  0
   37.1570   31.8230   41.5970 H   0  0  0  0  0  0  0  0  0  0  0  0
   37.2590   32.5340   37.4060 H   0  0  0  0  0  0  0  0  0  0  0  0
   37.6830   30.1510   37.0510 H   0  0  0  0  0  0  0  0  0  0  0  0
   36.6790   27.5050   43.0460 C   0  0  0  0  0  0  0  0  0  0  0  0
   36.5480   28.4160   41.9940 C   0  0  0  0  0  0  0  0  0  0  0  0
   37.6190   29.1440   41.5110 C   0  0  0  0  0  0  0  0  0  0  0  0
   38.8150   28.9160   42.1300 N   0  0  0  0  0  0  0  0  0  0  0  0
   38.9450   28.0410   43.1410 C   0  0  0  0  0  0  0  0  0  0  0  0
   37.8920   27.3390   43.6010 N   0  0  0  0  0  0  0  0  0  0  0  0
   35.8440   26.9300   43.4300 H   0  0  0  0  0  0  0  0  0  0  0  0
   35.5820   28.5540   41.5450 H   0  0  0  0  0  0  0  0  0  0  0  0
   39.9690   28.0020   43.4980 H   0  0  0  0  0  0  0  0  0  0  0  0
   36.9350   33.6960   39.7620 N   0  0  0  0  0  0  0  0  0  0  0  0
   37.0230   34.1990   40.6630 H   0  0  0  0  0  0  0  0  0  0  0  0
   36.6350   34.2630   38.9420 H   0  0  0  0  0  0  0  0  0  0  0  0
  1  2  1  0  0  0  0
  2  3  1  0  0  0  0
  3  4  2  0  0  0  0
  3 13  1  0  0  0  0
  4  8  1  0  0  0  0
  5 20  1  0  0  0  0
  5  4  1  0  0  0  0
  6  5  2  0  0  0  0
  7  6  1  0  0  0  0
  7  2  2  0  0  0  0
  9  6  1  0  0  0  0
 10  7  1  0  0  0  0
 11 17  1  0  0  0  0
 11 16  1  0  0  0  0
 12 11  2  0  0  0  0
 13 12  1  0  0  0  0
 13 14  2  0  0  0  0
 14 15  1  0  0  0  0
 15 19  1  0  0  0  0
 15 16  2  0  0  0  0
 18 12  1  0  0  0  0
 20 21  1  0  0  0  0
 22 20  1  0  0  0  0
M  END
>  <minimizedAffinity>
-4.54829121

$$$$

 OpenBabel03242522573D

 22 23  0  0  0  0  0  0  0  0999 V2000
   37.9600   28.0390   38.8210 Cl  0  0  0  0  0  0  0  0  0  0  0  0
   37.6600   29.7190   39.1590 C   0  0  0  0  0  0  0  0  0  0  0  0
   37.5360   30.1750   40.4350 C   0  0  0  0  0  0  0  0  0  0  0  0
   37.3000   31.5290   40.5760 C   0  0  0  0  0  0  0  0  0  0  0  0
   37.1910   32.3810   39.5260 C   0  0  0  0  0  0  0  0  0  0  0  0
   37.3190   31.9040   38.2350 C   0  0  0  0  0  0  0  0  0  0  0  0
   37.5550   30.5650   38.0750 C   0  0  0  0  0  0  0  0  0  0  0  0
   37.1970   31.9160   41.5960 H   0  0  0  0  0  0  0  0  0  0  0  0
   37.2340   32.5830   37.3960 H   0  0  0  0  0  0  0  0  0  0  0  0
   37.6540   30.1960   37.0600 H   0  0  0  0  0  0  0  0  0  0  0  0
   38.9240   28.1050   43.2740 C   0  0  0  0  0  0  0  0  0  0  0  0
   38.8360   29.0180   42.2200 C   0  0  0  0  0  0  0  0  0  0  0  0
   37.6580   29.2370   41.5300 C   0  0  0  0  0  0  0  0  0  0  0  0
   36.5850   28.5010   41.9460 N   0  0  0  0  0  0  0  0  0  0  0  0
   36.6660   27.6230   42.9600 C   0  0  0  0  0  0  0  0  0  0  0  0
   37.8210   27.4210   43.6220 N   0  0  0  0  0  0  0  0  0  0  0  0
   39.8440   27.9280   43.8200 H   0  0  0  0  0  0  0  0  0  0  0  0
   39.7140   29.5690   41.9360 H   0  0  0  0  0  0  0  0  0  0  0  0
   35.7120   27.1400   43.1380 H   0  0  0  0  0  0  0  0  0  0  0  0
   36.9450   33.7700   39.7450 N   0  0  0  0  0  0  0  0  0  0  0  0
   37.0470   34.2830   40.6390 H   0  0  0  0  0  0  0  0  0  0  0  0
   36.6320   34.3280   38.9230 H   0  0  0  0  0  0  0  0  0  0  0  0
  1  2  1  0  0  0  0
  2  3  1  0  0  0  0
  3  4  2  0  0  0  0
  3 13  1  0  0  0  0
  4  8  1  0  0  0  0
  5 20  1  0  0  0  0
  5  4  1  0  0  0  0
  6  5  2  0  0  0  0
  7  6  1  0  0  0  0
  7  2  2  0  0  0  0
  9  6  1  0  0  0  0
 10  7  1  0  0  0  0
 11 16  1  0  0  0  0
 11 17  1  0  0  0  0
 12 11  2  0  0  0  0
 13 14  2  0  0  0  0
 13 12  1  0  0  0  0
 14 15  1  0  0  0  0
 15 19  1  0  0  0  0
 15 16  2  0  0  0  0
 18 12  1  0  0  0  0
 20 21  1  0  0  0  0
 22 20  1  0  0  0  0
M  END
>  <minimizedAffinity>
-4.52156782

$$$$

 OpenBabel03242522573D

 22 23  0  0  0  0  0  0  0  0999 V2000
   36.1540   25.8460   38.2920 Cl  0  0  0  0  0  0  0  0  0  0  0  0
   36.0520   27.2970   39.2470 C   0  0  0  0  0  0  0  0  0  0  0  0
   36.7120   27.4150   40.4310 C   0  0  0  0  0  0  0  0  0  0  0  0
   36.5530   28.6150   41.0980 C   0  0  0  0  0  0  0  0  0  0  0  0
   35.7900   29.6340   40.6290 C   0  0  0  0  0  0  0  0  0  0  0  0
   35.1250   29.5000   39.4250 C   0  0  0  0  0  0  0  0  0  0  0  0
   35.2710   28.3190   38.7490 C   0  0  0  0  0  0  0  0  0  0  0  0
   37.0770   28.7300   42.0520 H   0  0  0  0  0  0  0  0  0  0  0  0
   34.5170   30.3130   39.0490 H   0  0  0  0  0  0  0  0  0  0  0  0
   34.7460   28.2190   37.8050 H   0  0  0  0  0  0  0  0  0  0  0  0
   37.8360   24.2530   42.1640 C   0  0  0  0  0  0  0  0  0  0  0  0
   37.0350   25.3120   41.7270 C   0  0  0  0  0  0  0  0  0  0  0  0
   37.5170   26.3070   40.8990 C   0  0  0  0  0  0  0  0  0  0  0  0
   38.8290   26.1900   40.5350 N   0  0  0  0  0  0  0  0  0  0  0  0
   39.6010   25.1730   40.9520 C   0  0  0  0  0  0  0  0  0  0  0  0
   39.1170   24.2100   41.7600 N   0  0  0  0  0  0  0  0  0  0  0  0
   37.4660   23.4680   42.8140 H   0  0  0  0  0  0  0  0  0  0  0  0
   36.0100   25.3530   42.0470 H   0  0  0  0  0  0  0  0  0  0  0  0
   40.6070   25.2570   40.5570 H   0  0  0  0  0  0  0  0  0  0  0  0
   35.6700   30.8470   41.3710 N   0  0  0  0  0  0  0  0  0  0  0  0
   36.2740   31.1560   42.1540 H   0  0  0  0  0  0  0  0  0  0  0  0
   34.8970   31.4910   41.1000 H   0  0  0  0  0  0  0  0  0  0  0  0
  1  2  1  0  0  0  0
  2  3  1  0  0  0  0
  3 13  1  0  0  0  0
  3  4  2  0  0  0  0
  4  8  1  0  0  0  0
  5  4  1  0  0  0  0
  5 20  1  0  0  0  0
  6  5  2  0  0  0  0
  7  2  2  0  0  0  0
  7  6  1  0  0  0  0
  9  6  1  0  0  0  0
 10  7  1  0  0  0  0
 11 17  1  0  0  0  0
 12 18  1  0  0  0  0
 12 11  2  0  0  0  0
 13 12  1  0  0  0  0
 14 13  2  0  0  0  0
 14 15  1  0  0  0  0
 15 16  2  0  0  0  0
 16 11  1  0  0  0  0
 19 15  1  0  0  0  0
 20 21  1  0  0  0  0
 22 20  1  0  0  0  0
M  END
>  <minimizedAffinity>
-4.50013447

$$$$

 OpenBabel03242522573D

 22 23  0  0  0  0  0  0  0  0999 V2000
   40.8030   29.8830   41.8180 Cl  0  0  0  0  0  0  0  0  0  0  0  0
   39.6060   30.9890   41.2060 C   0  0  0  0  0  0  0  0  0  0  0  0
   38.2800   30.6850   41.2340 C   0  0  0  0  0  0  0  0  0  0  0  0
   37.4280   31.6430   40.7200 C   0  0  0  0  0  0  0  0  0  0  0  0
   37.8540   32.8260   40.2080 C   0  0  0  0  0  0  0  0  0  0  0  0
   39.2040   33.1200   40.1860 C   0  0  0  0  0  0  0  0  0  0  0  0
   40.0650   32.1830   40.6920 C   0  0  0  0  0  0  0  0  0  0  0  0
   36.3560   31.4190   40.7330 H   0  0  0  0  0  0  0  0  0  0  0  0
   39.5460   34.0630   39.7800 H   0  0  0  0  0  0  0  0  0  0  0  0
   41.1240   32.4200   40.6720 H   0  0  0  0  0  0  0  0  0  0  0  0
   37.1870   27.0860   41.5790 C   0  0  0  0  0  0  0  0  0  0  0  0
   37.5890   28.3010   41.0170 C   0  0  0  0  0  0  0  0  0  0  0  0
   37.8620   29.4150   41.7870 C   0  0  0  0  0  0  0  0  0  0  0  0
   37.7120   29.2530   43.1360 N   0  0  0  0  0  0  0  0  0  0  0  0
   37.3260   28.0870   43.6790 C   0  0  0  0  0  0  0  0  0  0  0  0
   37.0630   27.0090   42.9150 N   0  0  0  0  0  0  0  0  0  0  0  0
   36.9720   26.2070   40.9820 H   0  0  0  0  0  0  0  0  0  0  0  0
   37.6900   28.3700   39.9500 H   0  0  0  0  0  0  0  0  0  0  0  0
   37.2650   28.1580   44.7600 H   0  0  0  0  0  0  0  0  0  0  0  0
   36.9170   33.7700   39.6930 N   0  0  0  0  0  0  0  0  0  0  0  0
   35.8920   33.7720   39.8470 H   0  0  0  0  0  0  0  0  0  0  0  0
   37.2990   34.5380   39.1010 H   0  0  0  0  0  0  0  0  0  0  0  0
  2  3  1  0  0  0  0
  2  1  1  0  0  0  0
  3 13  1  0  0  0  0
  4  8  1  0  0  0  0
  4  3  2  0  0  0  0
  5  4  1  0  0  0  0
  6  5  2  0  0  0  0
  6  7  1  0  0  0  0
  7  2  2  0  0  0  0
  9  6  1  0  0  0  0
 10  7  1  0  0  0  0
 11 16  1  0  0  0  0
 12 11  2  0  0  0  0
 12 13  1  0  0  0  0
 13 14  2  0  0  0  0
 14 15  1  0  0  0  0
 15 19  1  0  0  0  0
 16 15  2  0  0  0  0
 17 11  1  0  0  0  0
 18 12  1  0  0  0  0
 20 21  1  0  0  0  0
 20  5  1  0  0  0  0
 22 20  1  0  0  0  0
M  END
>  <minimizedAffinity>
-4.35743856

$$$$

 OpenBabel03242522573D

 22 23  0  0  0  0  0  0  0  0999 V2000
   39.2960   29.1730   38.9630 Cl  0  0  0  0  0  0  0  0  0  0  0  0
   38.3470   28.7780   40.3670 C   0  0  0  0  0  0  0  0  0  0  0  0
   37.7690   29.7470   41.1280 C   0  0  0  0  0  0  0  0  0  0  0  0
   37.0400   29.3100   42.2170 C   0  0  0  0  0  0  0  0  0  0  0  0
   36.8900   28.0000   42.5380 C   0  0  0  0  0  0  0  0  0  0  0  0
   37.4830   27.0270   41.7560 C   0  0  0  0  0  0  0  0  0  0  0  0
   38.2090   27.4410   40.6720 C   0  0  0  0  0  0  0  0  0  0  0  0
   36.5670   30.0740   42.8430 H   0  0  0  0  0  0  0  0  0  0  0  0
   37.3630   25.9810   42.0100 H   0  0  0  0  0  0  0  0  0  0  0  0
   38.6720   26.6720   40.0620 H   0  0  0  0  0  0  0  0  0  0  0  0
   37.2840   33.1610   39.5850 C   0  0  0  0  0  0  0  0  0  0  0  0
   37.0830   31.8210   39.9280 C   0  0  0  0  0  0  0  0  0  0  0  0
   37.9510   31.1330   40.7550 C   0  0  0  0  0  0  0  0  0  0  0  0
   39.0200   31.8490   41.2150 N   0  0  0  0  0  0  0  0  0  0  0  0
   39.2160   33.1380   40.8880 C   0  0  0  0  0  0  0  0  0  0  0  0
   38.3610   33.7940   40.0810 N   0  0  0  0  0  0  0  0  0  0  0  0
   36.6070   33.7070   38.9380 H   0  0  0  0  0  0  0  0  0  0  0  0
   36.2240   31.3080   39.5360 H   0  0  0  0  0  0  0  0  0  0  0  0
   40.1150   33.5280   41.3510 H   0  0  0  0  0  0  0  0  0  0  0  0
   36.1230   27.6190   43.6790 N   0  0  0  0  0  0  0  0  0  0  0  0
   35.4600   28.2150   44.2070 H   0  0  0  0  0  0  0  0  0  0  0  0
   36.2370   26.6410   44.0180 H   0  0  0  0  0  0  0  0  0  0  0  0
  1  2  1  0  0  0  0
  2  7  2  0  0  0  0
  2  3  1  0  0  0  0
  3  4  2  0  0  0  0
  4  5  1  0  0  0  0
  4  8  1  0  0  0  0
  5 20  1  0  0  0  0
  6  9  1  0  0  0  0
  6  5  2  0  0  0  0
  7  6  1  0  0  0  0
 10  7  1  0  0  0  0
 11 12  2  0  0  0  0
 11 16  1  0  0  0  0
 12 13  1  0  0  0  0
 13  3  1  0  0  0  0
 13 14  2  0  0  0  0
 15 14  1  0  0  0  0
 15 19  1  0  0  0  0
 16 15  2  0  0  0  0
 17 11  1  0  0  0  0
 18 12  1  0  0  0  0
 20 22  1  0  0  0  0
 20 21  1  0  0  0  0
M  END
>  <minimizedAffinity>
-4.26810217

$$$$

 OpenBabel03242522573D

 22 23  0  0  0  0  0  0  0  0999 V2000
   37.1010   27.7250   43.6790 Cl  0  0  0  0  0  0  0  0  0  0  0  0
   37.0150   26.7540   42.2380 C   0  0  0  0  0  0  0  0  0  0  0  0
   37.0410   27.3180   41.0000 C   0  0  0  0  0  0  0  0  0  0  0  0
   36.9660   26.4440   39.9320 C   0  0  0  0  0  0  0  0  0  0  0  0
   36.8710   25.0980   40.0750 C   0  0  0  0  0  0  0  0  0  0  0  0
   36.8450   24.5390   41.3390 C   0  0  0  0  0  0  0  0  0  0  0  0
   36.9190   25.3890   42.4090 C   0  0  0  0  0  0  0  0  0  0  0  0
   36.9860   26.8780   38.9270 H   0  0  0  0  0  0  0  0  0  0  0  0
   36.7710   23.4650   41.4540 H   0  0  0  0  0  0  0  0  0  0  0  0
   36.8980   24.9440   43.3980 H   0  0  0  0  0  0  0  0  0  0  0  0
   36.1790   30.9890   40.7700 C   0  0  0  0  0  0  0  0  0  0  0  0
   36.0500   29.6020   40.8820 C   0  0  0  0  0  0  0  0  0  0  0  0
   37.1430   28.7570   40.8860 C   0  0  0  0  0  0  0  0  0  0  0  0
   38.3610   29.3670   40.7740 N   0  0  0  0  0  0  0  0  0  0  0  0
   38.4890   30.7000   40.6680 C   0  0  0  0  0  0  0  0  0  0  0  0
   37.4130   31.5100   40.6650 N   0  0  0  0  0  0  0  0  0  0  0  0
   35.3260   31.6580   40.7670 H   0  0  0  0  0  0  0  0  0  0  0  0
   35.0660   29.1780   40.9670 H   0  0  0  0  0  0  0  0  0  0  0  0
   39.5310   30.9890   40.5890 H   0  0  0  0  0  0  0  0  0  0  0  0
   36.7970   24.2530   38.9270 N   0  0  0  0  0  0  0  0  0  0  0  0
   37.0240   24.5150   37.9510 H   0  0  0  0  0  0  0  0  0  0  0  0
   36.4850   23.2720   39.0840 H   0  0  0  0  0  0  0  0  0  0  0  0
  2  7  1  0  0  0  0
  2  1  1  0  0  0  0
  3  2  2  0  0  0  0
  4  5  2  0  0  0  0
  4  3  1  0  0  0  0
  5  6  1  0  0  0  0
  6  9  1  0  0  0  0
  6  7  2  0  0  0  0
  7 10  1  0  0  0  0
  8  4  1  0  0  0  0
 11 12  1  0  0  0  0
 12 13  2  0  0  0  0
 12 18  1  0  0  0  0
 13  3  1  0  0  0  0
 14 13  1  0  0  0  0
 15 14  2  0  0  0  0
 16 15  1  0  0  0  0
 16 11  2  0  0  0  0
 17 11  1  0  0  0  0
 19 15  1  0  0  0  0
 20 22  1  0  0  0  0
 20  5  1  0  0  0  0
 21 20  1  0  0  0  0
M  END
>  <minimizedAffinity>
-4.26180887

$$$$

 OpenBabel03242522573D

 22 23  0  0  0  0  0  0  0  0999 V2000
   38.8390   29.6720   42.9340 Cl  0  0  0  0  0  0  0  0  0  0  0  0
   38.8820   27.9380   42.7960 C   0  0  0  0  0  0  0  0  0  0  0  0
   38.1440   27.2830   41.8600 C   0  0  0  0  0  0  0  0  0  0  0  0
   38.2620   25.9060   41.8490 C   0  0  0  0  0  0  0  0  0  0  0  0
   39.0560   25.2180   42.7070 C   0  0  0  0  0  0  0  0  0  0  0  0
   39.8000   25.8970   43.6540 C   0  0  0  0  0  0  0  0  0  0  0  0
   39.6970   27.2620   43.6800 C   0  0  0  0  0  0  0  0  0  0  0  0
   37.6770   25.3590   41.1020 H   0  0  0  0  0  0  0  0  0  0  0  0
   40.4350   25.3490   44.3380 H   0  0  0  0  0  0  0  0  0  0  0  0
   40.2830   27.7890   44.4250 H   0  0  0  0  0  0  0  0  0  0  0  0
   36.8900   29.2110   38.8630 C   0  0  0  0  0  0  0  0  0  0  0  0
   37.7190   28.4700   39.7100 C   0  0  0  0  0  0  0  0  0  0  0  0
   37.3090   28.0500   40.9610 C   0  0  0  0  0  0  0  0  0  0  0  0
   36.0390   28.4070   41.3170 N   0  0  0  0  0  0  0  0  0  0  0  0
   35.2390   29.1180   40.5050 C   0  0  0  0  0  0  0  0  0  0  0  0
   35.6540   29.5200   39.2880 N   0  0  0  0  0  0  0  0  0  0  0  0
   37.2050   29.5430   37.8800 H   0  0  0  0  0  0  0  0  0  0  0  0
   38.7100   28.2190   39.3770 H   0  0  0  0  0  0  0  0  0  0  0  0
   34.2750   29.3000   40.9650 H   0  0  0  0  0  0  0  0  0  0  0  0
   39.1300   23.7940   42.6400 N   0  0  0  0  0  0  0  0  0  0  0  0
   38.8080   23.1940   41.8590 H   0  0  0  0  0  0  0  0  0  0  0  0
   39.5510   23.3050   43.4570 H   0  0  0  0  0  0  0  0  0  0  0  0
  2  1  1  0  0  0  0
  2  7  1  0  0  0  0
  3  2  2  0  0  0  0
  4  3  1  0  0  0  0
  4  5  2  0  0  0  0
  5  6  1  0  0  0  0
  6  7  2  0  0  0  0
  6  9  1  0  0  0  0
  7 10  1  0  0  0  0
  8  4  1  0  0  0  0
 11 16  2  0  0  0  0
 11 12  1  0  0  0  0
 12 13  2  0  0  0  0
 13 14  1  0  0  0  0
 13  3  1  0  0  0  0
 15 19  1  0  0  0  0
 15 14  2  0  0  0  0
 16 15  1  0  0  0  0
 17 11  1  0  0  0  0
 18 12  1  0  0  0  0
 20  5  1  0  0  0  0
 20 22  1  0  0  0  0
 21 20  1  0  0  0  0
M  END
>  <minimizedAffinity>
-4.25975895

$$$$

 OpenBabel03242522573D

 22 23  0  0  0  0  0  0  0  0999 V2000
   36.6640   25.5460   39.0900 Cl  0  0  0  0  0  0  0  0  0  0  0  0
   36.7780   26.6810   40.4050 C   0  0  0  0  0  0  0  0  0  0  0  0
   36.4950   28.0000   40.2300 C   0  0  0  0  0  0  0  0  0  0  0  0
   36.6210   28.8010   41.3490 C   0  0  0  0  0  0  0  0  0  0  0  0
   37.0030   28.3320   42.5640 C   0  0  0  0  0  0  0  0  0  0  0  0
   37.2870   26.9900   42.7260 C   0  0  0  0  0  0  0  0  0  0  0  0
   37.1670   26.1800   41.6290 C   0  0  0  0  0  0  0  0  0  0  0  0
   36.3980   29.8670   41.2300 H   0  0  0  0  0  0  0  0  0  0  0  0
   37.5910   26.6140   43.6960 H   0  0  0  0  0  0  0  0  0  0  0  0
   37.3920   25.1270   41.7630 H   0  0  0  0  0  0  0  0  0  0  0  0
   34.4140   28.9640   37.2290 C   0  0  0  0  0  0  0  0  0  0  0  0
   34.7750   28.5120   38.5010 C   0  0  0  0  0  0  0  0  0  0  0  0
   36.0900   28.4630   38.9210 C   0  0  0  0  0  0  0  0  0  0  0  0
   37.0170   28.8870   38.0100 N   0  0  0  0  0  0  0  0  0  0  0  0
   36.6730   29.3230   36.7870 C   0  0  0  0  0  0  0  0  0  0  0  0
   35.3860   29.3640   36.3920 N   0  0  0  0  0  0  0  0  0  0  0  0
   33.3840   29.0060   36.8930 H   0  0  0  0  0  0  0  0  0  0  0  0
   34.0030   28.1900   39.1760 H   0  0  0  0  0  0  0  0  0  0  0  0
   37.5470   29.6140   36.2140 H   0  0  0  0  0  0  0  0  0  0  0  0
   37.1130   29.2180   43.6780 N   0  0  0  0  0  0  0  0  0  0  0  0
   36.7260   30.1760   43.7470 H   0  0  0  0  0  0  0  0  0  0  0  0
   37.6340   28.8670   44.5090 H   0  0  0  0  0  0  0  0  0  0  0  0
  1  2  1  0  0  0  0
  2  7  1  0  0  0  0
  3  2  2  0  0  0  0
  3  4  1  0  0  0  0
  4  5  2  0  0  0  0
  5  6  1  0  0  0  0
  5 20  1  0  0  0  0
  6  9  1  0  0  0  0
  7 10  1  0  0  0  0
  7  6  2  0  0  0  0
  8  4  1  0  0  0  0
 11 12  1  0  0  0  0
 12 13  2  0  0  0  0
 12 18  1  0  0  0  0
 13  3  1  0  0  0  0
 14 13  1  0  0  0  0
 15 14  2  0  0  0  0
 16 15  1  0  0  0  0
 16 11  2  0  0  0  0
 17 11  1  0  0  0  0
 19 15  1  0  0  0  0
 20 21  1  0  0  0  0
 20 22  1  0  0  0  0
M  END
>  <minimizedAffinity>
-4.24267817

$$$$

 OpenBabel03242522573D

 22 23  0  0  0  0  0  0  0  0999 V2000
   40.4510   32.3020   37.6700 Cl  0  0  0  0  0  0  0  0  0  0  0  0
   39.1320   31.9620   38.7520 C   0  0  0  0  0  0  0  0  0  0  0  0
   39.2760   32.0670   40.1010 C   0  0  0  0  0  0  0  0  0  0  0  0
   38.1570   31.7700   40.8550 C   0  0  0  0  0  0  0  0  0  0  0  0
   36.9700   31.3930   40.3150 C   0  0  0  0  0  0  0  0  0  0  0  0
   36.8390   31.2900   38.9430 C   0  0  0  0  0  0  0  0  0  0  0  0
   37.9370   31.5810   38.1790 C   0  0  0  0  0  0  0  0  0  0  0  0
   38.2510   31.8490   41.9440 H   0  0  0  0  0  0  0  0  0  0  0  0
   35.8930   30.9900   38.5110 H   0  0  0  0  0  0  0  0  0  0  0  0
   37.8280   31.4980   37.1020 H   0  0  0  0  0  0  0  0  0  0  0  0
   42.6280   32.0400   41.8410 C   0  0  0  0  0  0  0  0  0  0  0  0
   41.3970   31.6200   41.3290 C   0  0  0  0  0  0  0  0  0  0  0  0
   40.5550   32.4720   40.6410 C   0  0  0  0  0  0  0  0  0  0  0  0
   41.0050   33.7540   40.4920 N   0  0  0  0  0  0  0  0  0  0  0  0
   42.1880   34.1610   40.9810 C   0  0  0  0  0  0  0  0  0  0  0  0
   42.9980   33.3180   41.6510 N   0  0  0  0  0  0  0  0  0  0  0  0
   43.2950   31.3770   42.3810 H   0  0  0  0  0  0  0  0  0  0  0  0
   41.0950   30.5990   41.4770 H   0  0  0  0  0  0  0  0  0  0  0  0
   42.3650   35.2080   40.7620 H   0  0  0  0  0  0  0  0  0  0  0  0
   35.8540   31.1010   41.1550 N   0  0  0  0  0  0  0  0  0  0  0  0
   35.7530   31.3460   42.1570 H   0  0  0  0  0  0  0  0  0  0  0  0
   35.0580   30.5910   40.7200 H   0  0  0  0  0  0  0  0  0  0  0  0
  1  2  1  0  0  0  0
  2  3  1  0  0  0  0
  3 13  1  0  0  0  0
  3  4  2  0  0  0  0
  4  8  1  0  0  0  0
  5  4  1  0  0  0  0
  5 20  1  0  0  0  0
  6  5  2  0  0  0  0
  7  2  2  0  0  0  0
  7  6  1  0  0  0  0
  9  6  1  0  0  0  0
 10  7  1  0  0  0  0
 11 17  1  0  0  0  0
 12 18  1  0  0  0  0
 12 11  2  0  0  0  0
 13 12  1  0  0  0  0
 14 13  2  0  0  0  0
 14 15  1  0  0  0  0
 15 16  2  0  0  0  0
 16 11  1  0  0  0  0
 19 15  1  0  0  0  0
 20 21  1  0  0  0  0
 22 20  1  0  0  0  0
M  END
>  <minimizedAffinity>
-4.21377993

$$$$
