
 OpenBabel03242519343D

 30 31  0  0  0  0  0  0  0  0999 V2000
   37.2780   29.8210   41.8990 C   0  0  0  0  0  0  0  0  0  0  0  0
   38.5550   29.7520   42.6590 C   0  0  0  0  0  0  0  0  0  0  0  0
   39.0550   28.3560   42.8120 C   0  0  0  0  0  0  0  0  0  0  0  0
   38.0290   27.4400   43.4510 C   0  0  0  0  0  0  0  0  0  0  0  0
   36.6560   27.5890   42.8630 C   0  0  0  0  0  0  0  0  0  0  0  0
   36.6630   28.4630   41.6390 C   0  0  0  0  0  0  0  0  0  0  0  0
   36.5240   30.4210   42.4650 H   0  0  0  0  0  0  0  0  0  0  0  0
   38.4550   30.2050   43.6640 H   0  0  0  0  0  0  0  0  0  0  0  0
   39.3280   30.3270   42.1100 H   0  0  0  0  0  0  0  0  0  0  0  0
   39.9320   28.3550   43.5110 H   0  0  0  0  0  0  0  0  0  0  0  0
   39.4230   27.8910   41.8880 H   0  0  0  0  0  0  0  0  0  0  0  0
   38.3970   26.4070   43.4400 H   0  0  0  0  0  0  0  0  0  0  0  0
   37.9630   27.7490   44.5350 H   0  0  0  0  0  0  0  0  0  0  0  0
   36.3190   26.5820   42.5370 H   0  0  0  0  0  0  0  0  0  0  0  0
   35.9190   27.9810   43.5990 H   0  0  0  0  0  0  0  0  0  0  0  0
   35.6340   28.6120   41.2830 H   0  0  0  0  0  0  0  0  0  0  0  0
   37.1970   27.9020   40.8400 H   0  0  0  0  0  0  0  0  0  0  0  0
   37.4300   30.4790   40.5870 C   0  0  0  0  0  0  0  0  0  0  0  0
   37.1290   31.8600   40.5600 C   0  0  0  0  0  0  0  0  0  0  0  0
   37.2500   32.5500   39.3530 C   0  0  0  0  0  0  0  0  0  0  0  0
   37.6570   31.8410   38.2620 N   0  0  0  0  0  0  0  0  0  0  0  0
   37.9420   30.5020   38.3170 C   0  0  0  0  0  0  0  0  0  0  0  0
   37.8270   29.8290   39.4770 N   0  0  0  0  0  0  0  0  0  0  0  0
   38.3610   29.8850   37.1120 N   0  0  0  0  0  0  0  0  0  0  0  0
   36.8100   32.4480   41.3850 H   0  0  0  0  0  0  0  0  0  0  0  0
   39.2970   30.2880   36.8160 H   0  0  0  0  0  0  0  0  0  0  0  0
   37.8590   29.1450   36.5700 H   0  0  0  0  0  0  0  0  0  0  0  0
   36.9670   33.9390   39.2370 N   0  0  0  0  0  0  0  0  0  0  0  0
   36.0650   34.4450   39.0650 H   0  0  0  0  0  0  0  0  0  0  0  0
   37.9240   34.2810   39.3750 H   0  0  0  0  0  0  0  0  0  0  0  0
  1  7  1  0  0  0  0
  1  2  1  0  0  0  0
  2  3  1  0  0  0  0
  2  8  1  0  0  0  0
  3  4  1  0  0  0  0
  3 10  1  0  0  0  0
  4 13  1  0  0  0  0
  5  4  1  0  0  0  0
  5 15  1  0  0  0  0
  6  1  1  0  0  0  0
  6  5  1  0  0  0  0
  9  2  1  0  0  0  0
 11  3  1  0  0  0  0
 12  4  1  0  0  0  0
 14  5  1  0  0  0  0
 16  6  1  0  0  0  0
 17  6  1  0  0  0  0
 18  1  1  0  0  0  0
 19 18  1  0  0  0  0
 19 25  1  0  0  0  0
 20 19  2  0  0  0  0
 21 22  2  0  0  0  0
 21 20  1  0  0  0  0
 22 23  1  0  0  0  0
 23 18  2  0  0  0  0
 24 22  1  0  0  0  0
 26 24  1  0  0  0  0
 27 24  1  0  0  0  0
 28 20  1  0  0  0  0
 28 30  1  0  0  0  0
 29 28  1  0  0  0  0
M  END
>  <minimizedAffinity>
-5.18575096

$$$$

 OpenBabel03242519343D

 30 31  0  0  0  0  0  0  0  0999 V2000
   37.0710   29.0510   41.9760 C   0  0  0  0  0  0  0  0  0  0  0  0
   37.4880   28.6520   43.3470 C   0  0  0  0  0  0  0  0  0  0  0  0
   38.3690   27.4500   43.3500 C   0  0  0  0  0  0  0  0  0  0  0  0
   37.7360   26.2670   42.6420 C   0  0  0  0  0  0  0  0  0  0  0  0
   37.1170   26.6280   41.3240 C   0  0  0  0  0  0  0  0  0  0  0  0
   37.4490   28.0380   40.9180 C   0  0  0  0  0  0  0  0  0  0  0  0
   35.9610   29.1770   41.9300 H   0  0  0  0  0  0  0  0  0  0  0  0
   36.6130   28.4530   43.9960 H   0  0  0  0  0  0  0  0  0  0  0  0
   38.0580   29.4870   43.8040 H   0  0  0  0  0  0  0  0  0  0  0  0
   38.5270   27.1150   44.4080 H   0  0  0  0  0  0  0  0  0  0  0  0
   39.3760   27.6120   42.9450 H   0  0  0  0  0  0  0  0  0  0  0  0
   38.4600   25.4470   42.5730 H   0  0  0  0  0  0  0  0  0  0  0  0
   36.9040   25.9070   43.3150 H   0  0  0  0  0  0  0  0  0  0  0  0
   37.5550   25.9600   40.5520 H   0  0  0  0  0  0  0  0  0  0  0  0
   36.0130   26.4870   41.3200 H   0  0  0  0  0  0  0  0  0  0  0  0
   36.9180   28.2920   39.9900 H   0  0  0  0  0  0  0  0  0  0  0  0
   38.5350   28.0620   40.6770 H   0  0  0  0  0  0  0  0  0  0  0  0
   37.6510   30.3430   41.5570 C   0  0  0  0  0  0  0  0  0  0  0  0
   38.9960   30.5580   41.9360 C   0  0  0  0  0  0  0  0  0  0  0  0
   39.6100   31.7580   41.5740 C   0  0  0  0  0  0  0  0  0  0  0  0
   38.8670   32.6580   40.8700 N   0  0  0  0  0  0  0  0  0  0  0  0
   37.5640   32.4220   40.5170 C   0  0  0  0  0  0  0  0  0  0  0  0
   36.9630   31.2680   40.8610 N   0  0  0  0  0  0  0  0  0  0  0  0
   36.9060   33.4380   39.7790 N   0  0  0  0  0  0  0  0  0  0  0  0
   39.6080   29.8850   42.4830 H   0  0  0  0  0  0  0  0  0  0  0  0
   37.3670   33.5390   38.8280 H   0  0  0  0  0  0  0  0  0  0  0  0
   36.0910   34.0170   40.0840 H   0  0  0  0  0  0  0  0  0  0  0  0
   40.9580   32.0560   41.9140 N   0  0  0  0  0  0  0  0  0  0  0  0
   41.3720   32.4780   42.7810 H   0  0  0  0  0  0  0  0  0  0  0  0
   41.3900   31.7270   41.0440 H   0  0  0  0  0  0  0  0  0  0  0  0
  1  2  1  0  0  0  0
  2  3  1  0  0  0  0
  2  9  1  0  0  0  0
  2  8  1  0  0  0  0
  3 10  1  0  0  0  0
  4 13  1  0  0  0  0
  4  3  1  0  0  0  0
  5  4  1  0  0  0  0
  6  5  1  0  0  0  0
  6  1  1  0  0  0  0
  7  1  1  0  0  0  0
 11  3  1  0  0  0  0
 12  4  1  0  0  0  0
 14  5  1  0  0  0  0
 15  5  1  0  0  0  0
 16  6  1  0  0  0  0
 17  6  1  0  0  0  0
 18 19  1  0  0  0  0
 18  1  1  0  0  0  0
 19 25  1  0  0  0  0
 20 28  1  0  0  0  0
 20 19  2  0  0  0  0
 21 20  1  0  0  0  0
 22 23  1  0  0  0  0
 22 21  2  0  0  0  0
 23 18  2  0  0  0  0
 24 27  1  0  0  0  0
 24 22  1  0  0  0  0
 26 24  1  0  0  0  0
 28 29  1  0  0  0  0
 30 28  1  0  0  0  0
M  END
>  <minimizedAffinity>
-5.15587711

$$$$

 OpenBabel03242519343D

 30 31  0  0  0  0  0  0  0  0999 V2000
   37.4690   26.5430   42.5250 C   0  0  0  0  0  0  0  0  0  0  0  0
   38.1630   27.3350   43.5760 C   0  0  0  0  0  0  0  0  0  0  0  0
   39.6400   27.1350   43.5600 C   0  0  0  0  0  0  0  0  0  0  0  0
   40.0290   25.6740   43.6800 C   0  0  0  0  0  0  0  0  0  0  0  0
   39.2310   24.7750   42.7810 C   0  0  0  0  0  0  0  0  0  0  0  0
   38.3760   25.5570   41.8220 C   0  0  0  0  0  0  0  0  0  0  0  0
   36.6300   25.9560   42.9750 H   0  0  0  0  0  0  0  0  0  0  0  0
   37.7830   27.0910   44.5870 H   0  0  0  0  0  0  0  0  0  0  0  0
   37.9680   28.4120   43.3980 H   0  0  0  0  0  0  0  0  0  0  0  0
   40.0870   27.6370   44.4570 H   0  0  0  0  0  0  0  0  0  0  0  0
   40.1580   27.5730   42.6970 H   0  0  0  0  0  0  0  0  0  0  0  0
   41.1120   25.5680   43.5520 H   0  0  0  0  0  0  0  0  0  0  0  0
   39.7980   25.3740   44.7430 H   0  0  0  0  0  0  0  0  0  0  0  0
   39.9500   24.1900   42.1670 H   0  0  0  0  0  0  0  0  0  0  0  0
   38.5970   24.0590   43.3500 H   0  0  0  0  0  0  0  0  0  0  0  0
   37.7510   24.8700   41.2350 H   0  0  0  0  0  0  0  0  0  0  0  0
   39.0630   26.0540   41.1010 H   0  0  0  0  0  0  0  0  0  0  0  0
   36.8650   27.3900   41.4780 C   0  0  0  0  0  0  0  0  0  0  0  0
   36.5940   28.7250   41.8570 C   0  0  0  0  0  0  0  0  0  0  0  0
   36.0220   29.5860   40.9190 C   0  0  0  0  0  0  0  0  0  0  0  0
   35.7590   29.0790   39.6800 N   0  0  0  0  0  0  0  0  0  0  0  0
   36.0320   27.7810   39.3410 C   0  0  0  0  0  0  0  0  0  0  0  0
   36.5830   26.9440   40.2400 N   0  0  0  0  0  0  0  0  0  0  0  0
   35.7150   27.3820   38.0180 N   0  0  0  0  0  0  0  0  0  0  0  0
   36.7830   29.1580   42.8090 H   0  0  0  0  0  0  0  0  0  0  0  0
   36.3290   27.9130   37.3330 H   0  0  0  0  0  0  0  0  0  0  0  0
   35.0000   26.6800   37.7210 H   0  0  0  0  0  0  0  0  0  0  0  0
   35.7170   30.9420   41.2150 N   0  0  0  0  0  0  0  0  0  0  0  0
   34.8680   31.3760   41.6530 H   0  0  0  0  0  0  0  0  0  0  0  0
   36.5880   31.3540   40.8640 H   0  0  0  0  0  0  0  0  0  0  0  0
  1  7  1  0  0  0  0
  1  2  1  0  0  0  0
  2  8  1  0  0  0  0
  3  2  1  0  0  0  0
  3  4  1  0  0  0  0
  3 10  1  0  0  0  0
  4 13  1  0  0  0  0
  5 15  1  0  0  0  0
  5  4  1  0  0  0  0
  6  1  1  0  0  0  0
  6  5  1  0  0  0  0
  9  2  1  0  0  0  0
 11  3  1  0  0  0  0
 12  4  1  0  0  0  0
 14  5  1  0  0  0  0
 16  6  1  0  0  0  0
 17  6  1  0  0  0  0
 18 19  1  0  0  0  0
 18  1  1  0  0  0  0
 19 25  1  0  0  0  0
 20 28  1  0  0  0  0
 20 19  2  0  0  0  0
 21 20  1  0  0  0  0
 22 21  2  0  0  0  0
 22 23  1  0  0  0  0
 23 18  2  0  0  0  0
 24 22  1  0  0  0  0
 26 24  1  0  0  0  0
 27 24  1  0  0  0  0
 28 29  1  0  0  0  0
 30 28  1  0  0  0  0
M  END
>  <minimizedAffinity>
-5.13251734

$$$$

 OpenBabel03242519343D

 30 31  0  0  0  0  0  0  0  0999 V2000
   37.1120   29.0740   41.8690 C   0  0  0  0  0  0  0  0  0  0  0  0
   37.4370   28.5960   43.2400 C   0  0  0  0  0  0  0  0  0  0  0  0
   38.2310   27.3350   43.2320 C   0  0  0  0  0  0  0  0  0  0  0  0
   37.5490   26.2270   42.4520 C   0  0  0  0  0  0  0  0  0  0  0  0
   37.0180   26.6800   41.1240 C   0  0  0  0  0  0  0  0  0  0  0  0
   37.4660   28.0760   40.7880 C   0  0  0  0  0  0  0  0  0  0  0  0
   36.0170   29.2810   41.7810 H   0  0  0  0  0  0  0  0  0  0  0  0
   36.5220   28.4370   43.8420 H   0  0  0  0  0  0  0  0  0  0  0  0
   38.0430   29.3710   43.7530 H   0  0  0  0  0  0  0  0  0  0  0  0
   38.3170   26.9500   44.2820 H   0  0  0  0  0  0  0  0  0  0  0  0
   39.2640   27.4380   42.8770 H   0  0  0  0  0  0  0  0  0  0  0  0
   38.2160   25.3600   42.3810 H   0  0  0  0  0  0  0  0  0  0  0  0
   36.6640   25.9030   43.0730 H   0  0  0  0  0  0  0  0  0  0  0  0
   37.4420   26.0100   40.3450 H   0  0  0  0  0  0  0  0  0  0  0  0
   35.9080   26.6190   41.0670 H   0  0  0  0  0  0  0  0  0  0  0  0
   36.9960   28.4010   39.8500 H   0  0  0  0  0  0  0  0  0  0  0  0
   38.5600   28.0310   40.5950 H   0  0  0  0  0  0  0  0  0  0  0  0
   37.7990   30.3350   41.5270 C   0  0  0  0  0  0  0  0  0  0  0  0
   37.0200   31.2810   40.8210 C   0  0  0  0  0  0  0  0  0  0  0  0
   37.6030   32.4970   40.4640 C   0  0  0  0  0  0  0  0  0  0  0  0
   38.9030   32.7010   40.8220 N   0  0  0  0  0  0  0  0  0  0  0  0
   39.6350   31.7650   41.5050 C   0  0  0  0  0  0  0  0  0  0  0  0
   39.0800   30.5890   41.8540 N   0  0  0  0  0  0  0  0  0  0  0  0
   40.9740   32.1040   41.8220 N   0  0  0  0  0  0  0  0  0  0  0  0
   36.0070   31.1620   40.5240 H   0  0  0  0  0  0  0  0  0  0  0  0
   40.9810   32.9170   42.5040 H   0  0  0  0  0  0  0  0  0  0  0  0
   41.8450   31.6500   41.4640 H   0  0  0  0  0  0  0  0  0  0  0  0
   36.8930   33.5040   39.7540 N   0  0  0  0  0  0  0  0  0  0  0  0
   36.7400   33.6420   38.7250 H   0  0  0  0  0  0  0  0  0  0  0  0
   36.5810   34.0450   40.5680 H   0  0  0  0  0  0  0  0  0  0  0  0
  1  2  1  0  0  0  0
  2  9  1  0  0  0  0
  2  8  1  0  0  0  0
  3  2  1  0  0  0  0
  3 10  1  0  0  0  0
  4 13  1  0  0  0  0
  4  3  1  0  0  0  0
  5  4  1  0  0  0  0
  6  5  1  0  0  0  0
  6  1  1  0  0  0  0
  7  1  1  0  0  0  0
 11  3  1  0  0  0  0
 12  4  1  0  0  0  0
 14  5  1  0  0  0  0
 15  5  1  0  0  0  0
 16  6  1  0  0  0  0
 17  6  1  0  0  0  0
 18 23  1  0  0  0  0
 18  1  1  0  0  0  0
 19 18  2  0  0  0  0
 20 19  1  0  0  0  0
 20 21  2  0  0  0  0
 21 22  1  0  0  0  0
 22 24  1  0  0  0  0
 22 23  2  0  0  0  0
 24 26  1  0  0  0  0
 25 19  1  0  0  0  0
 27 24  1  0  0  0  0
 28 20  1  0  0  0  0
 28 30  1  0  0  0  0
 29 28  1  0  0  0  0
M  END
>  <minimizedAffinity>
-5.10989523

$$$$

 OpenBabel03242519343D

 30 31  0  0  0  0  0  0  0  0999 V2000
   37.9610   26.9280   43.0030 C   0  0  0  0  0  0  0  0  0  0  0  0
   39.3500   26.4250   43.1800 C   0  0  0  0  0  0  0  0  0  0  0  0
   39.7150   25.3890   42.1720 C   0  0  0  0  0  0  0  0  0  0  0  0
   38.7450   24.2230   42.1630 C   0  0  0  0  0  0  0  0  0  0  0  0
   37.3070   24.6500   42.1790 C   0  0  0  0  0  0  0  0  0  0  0  0
   37.1620   26.1350   41.9920 C   0  0  0  0  0  0  0  0  0  0  0  0
   37.4070   26.8790   43.9730 H   0  0  0  0  0  0  0  0  0  0  0  0
   39.5050   26.0060   44.1920 H   0  0  0  0  0  0  0  0  0  0  0  0
   40.0550   27.2730   43.0590 H   0  0  0  0  0  0  0  0  0  0  0  0
   40.7090   24.9480   42.4440 H   0  0  0  0  0  0  0  0  0  0  0  0
   39.8360   25.7610   41.1460 H   0  0  0  0  0  0  0  0  0  0  0  0
   38.9890   23.5450   41.3360 H   0  0  0  0  0  0  0  0  0  0  0  0
   38.9340   23.6500   43.1170 H   0  0  0  0  0  0  0  0  0  0  0  0
   36.8030   24.1670   41.3140 H   0  0  0  0  0  0  0  0  0  0  0  0
   36.7800   24.3360   43.1080 H   0  0  0  0  0  0  0  0  0  0  0  0
   36.1050   26.4210   42.0860 H   0  0  0  0  0  0  0  0  0  0  0  0
   37.4590   26.3640   40.9440 H   0  0  0  0  0  0  0  0  0  0  0  0
   37.9170   28.3390   42.5720 C   0  0  0  0  0  0  0  0  0  0  0  0
   39.1070   29.0750   42.7720 C   0  0  0  0  0  0  0  0  0  0  0  0
   39.1390   30.4160   42.3880 C   0  0  0  0  0  0  0  0  0  0  0  0
   38.0070   30.9400   41.8370 N   0  0  0  0  0  0  0  0  0  0  0  0
   36.8670   30.2030   41.6550 C   0  0  0  0  0  0  0  0  0  0  0  0
   36.8270   28.9080   42.0230 N   0  0  0  0  0  0  0  0  0  0  0  0
   35.7610   30.8650   41.0650 N   0  0  0  0  0  0  0  0  0  0  0  0
   40.0080   28.7060   43.1960 H   0  0  0  0  0  0  0  0  0  0  0  0
   36.0020   31.1320   40.0660 H   0  0  0  0  0  0  0  0  0  0  0  0
   34.8380   31.0760   41.5080 H   0  0  0  0  0  0  0  0  0  0  0  0
   40.2940   31.2290   42.5530 N   0  0  0  0  0  0  0  0  0  0  0  0
   40.6290   31.7890   43.3740 H   0  0  0  0  0  0  0  0  0  0  0  0
   40.6890   31.0900   41.6170 H   0  0  0  0  0  0  0  0  0  0  0  0
  1  2  1  0  0  0  0
  1  7  1  0  0  0  0
  2  8  1  0  0  0  0
  3 10  1  0  0  0  0
  3  2  1  0  0  0  0
  4  3  1  0  0  0  0
  4  5  1  0  0  0  0
  4 13  1  0  0  0  0
  5 15  1  0  0  0  0
  6 16  1  0  0  0  0
  6  5  1  0  0  0  0
  6  1  1  0  0  0  0
  9  2  1  0  0  0  0
 11  3  1  0  0  0  0
 12  4  1  0  0  0  0
 14  5  1  0  0  0  0
 17  6  1  0  0  0  0
 18 19  1  0  0  0  0
 18  1  1  0  0  0  0
 19 25  1  0  0  0  0
 20 28  1  0  0  0  0
 20 19  2  0  0  0  0
 21 20  1  0  0  0  0
 22 21  2  0  0  0  0
 22 23  1  0  0  0  0
 23 18  2  0  0  0  0
 24 27  1  0  0  0  0
 24 22  1  0  0  0  0
 26 24  1  0  0  0  0
 28 29  1  0  0  0  0
 30 28  1  0  0  0  0
M  END
>  <minimizedAffinity>
-5.10528088

$$$$

 OpenBabel03242519343D

 30 31  0  0  0  0  0  0  0  0999 V2000
   37.4720   26.5430   42.5840 C   0  0  0  0  0  0  0  0  0  0  0  0
   38.3960   27.1950   43.5520 C   0  0  0  0  0  0  0  0  0  0  0  0
   39.8120   26.7690   43.3650 C   0  0  0  0  0  0  0  0  0  0  0  0
   39.9780   25.2630   43.4340 C   0  0  0  0  0  0  0  0  0  0  0  0
   38.9530   24.5180   42.6290 C   0  0  0  0  0  0  0  0  0  0  0  0
   38.1290   25.4450   41.7780 C   0  0  0  0  0  0  0  0  0  0  0  0
   36.6080   26.0840   43.1250 H   0  0  0  0  0  0  0  0  0  0  0  0
   38.0990   26.9910   44.5980 H   0  0  0  0  0  0  0  0  0  0  0  0
   38.3530   28.2930   43.4010 H   0  0  0  0  0  0  0  0  0  0  0  0
   40.4310   27.1760   44.2070 H   0  0  0  0  0  0  0  0  0  0  0  0
   40.2920   27.1400   42.4500 H   0  0  0  0  0  0  0  0  0  0  0  0
   41.0100   24.9920   43.1820 H   0  0  0  0  0  0  0  0  0  0  0  0
   39.8240   24.9790   44.5150 H   0  0  0  0  0  0  0  0  0  0  0  0
   39.4970   23.8420   41.9350 H   0  0  0  0  0  0  0  0  0  0  0  0
   38.2830   23.8970   43.2640 H   0  0  0  0  0  0  0  0  0  0  0  0
   37.3420   24.8750   41.2640 H   0  0  0  0  0  0  0  0  0  0  0  0
   38.7990   25.8440   40.9850 H   0  0  0  0  0  0  0  0  0  0  0  0
   36.8950   27.4970   41.6170 C   0  0  0  0  0  0  0  0  0  0  0  0
   36.6800   26.9880   40.3150 C   0  0  0  0  0  0  0  0  0  0  0  0
   36.1360   27.8330   39.3460 C   0  0  0  0  0  0  0  0  0  0  0  0
   35.8420   29.1110   39.7200 N   0  0  0  0  0  0  0  0  0  0  0  0
   36.0620   29.5770   40.9900 C   0  0  0  0  0  0  0  0  0  0  0  0
   36.5860   28.7690   41.9300 N   0  0  0  0  0  0  0  0  0  0  0  0
   35.7060   30.9240   41.2500 N   0  0  0  0  0  0  0  0  0  0  0  0
   36.8940   26.0020   39.9840 H   0  0  0  0  0  0  0  0  0  0  0  0
   34.6540   31.0340   41.1630 H   0  0  0  0  0  0  0  0  0  0  0  0
   36.3460   31.7140   41.4930 H   0  0  0  0  0  0  0  0  0  0  0  0
   35.8870   27.4040   38.0140 N   0  0  0  0  0  0  0  0  0  0  0  0
   36.5140   27.3730   37.1730 H   0  0  0  0  0  0  0  0  0  0  0  0
   34.9050   27.1380   38.1410 H   0  0  0  0  0  0  0  0  0  0  0  0
  1  7  1  0  0  0  0
  1  2  1  0  0  0  0
  2  8  1  0  0  0  0
  3  4  1  0  0  0  0
  3  2  1  0  0  0  0
  3 10  1  0  0  0  0
  4 13  1  0  0  0  0
  5 15  1  0  0  0  0
  5  4  1  0  0  0  0
  6  1  1  0  0  0  0
  6  5  1  0  0  0  0
  9  2  1  0  0  0  0
 11  3  1  0  0  0  0
 12  4  1  0  0  0  0
 14  5  1  0  0  0  0
 16  6  1  0  0  0  0
 17  6  1  0  0  0  0
 18 23  1  0  0  0  0
 18  1  1  0  0  0  0
 19 18  2  0  0  0  0
 20 21  2  0  0  0  0
 20 19  1  0  0  0  0
 21 22  1  0  0  0  0
 22 24  1  0  0  0  0
 22 23  2  0  0  0  0
 24 27  1  0  0  0  0
 25 19  1  0  0  0  0
 26 24  1  0  0  0  0
 28 30  1  0  0  0  0
 28 20  1  0  0  0  0
 29 28  1  0  0  0  0
M  END
>  <minimizedAffinity>
-5.0934763

$$$$

 OpenBabel03242519343D

 30 31  0  0  0  0  0  0  0  0999 V2000
   38.0620   26.8710   42.9470 C   0  0  0  0  0  0  0  0  0  0  0  0
   39.4010   26.2240   42.8960 C   0  0  0  0  0  0  0  0  0  0  0  0
   39.5060   25.2130   41.8070 C   0  0  0  0  0  0  0  0  0  0  0  0
   38.4270   24.1510   41.8960 C   0  0  0  0  0  0  0  0  0  0  0  0
   37.0590   24.7170   42.1420 C   0  0  0  0  0  0  0  0  0  0  0  0
   37.0470   26.2170   42.0360 C   0  0  0  0  0  0  0  0  0  0  0  0
   37.6510   26.8260   43.9860 H   0  0  0  0  0  0  0  0  0  0  0  0
   39.6550   25.7380   43.8580 H   0  0  0  0  0  0  0  0  0  0  0  0
   40.1670   27.0040   42.7050 H   0  0  0  0  0  0  0  0  0  0  0  0
   40.4770   24.6610   41.9110 H   0  0  0  0  0  0  0  0  0  0  0  0
   39.5170   25.6250   40.7890 H   0  0  0  0  0  0  0  0  0  0  0  0
   38.4770   23.4970   41.0170 H   0  0  0  0  0  0  0  0  0  0  0  0
   38.6890   23.5110   42.7890 H   0  0  0  0  0  0  0  0  0  0  0  0
   36.3880   24.3330   41.3440 H   0  0  0  0  0  0  0  0  0  0  0  0
   36.6410   24.4070   43.1260 H   0  0  0  0  0  0  0  0  0  0  0  0
   36.0510   26.6000   42.2970 H   0  0  0  0  0  0  0  0  0  0  0  0
   37.2130   26.4710   40.9650 H   0  0  0  0  0  0  0  0  0  0  0  0
   38.1060   28.3010   42.5820 C   0  0  0  0  0  0  0  0  0  0  0  0
   36.9190   28.8210   42.0160 C   0  0  0  0  0  0  0  0  0  0  0  0
   36.8860   30.1660   41.6460 C   0  0  0  0  0  0  0  0  0  0  0  0
   38.0140   30.9040   41.8550 N   0  0  0  0  0  0  0  0  0  0  0  0
   39.1500   30.3730   42.4050 C   0  0  0  0  0  0  0  0  0  0  0  0
   39.1910   29.0760   42.7650 N   0  0  0  0  0  0  0  0  0  0  0  0
   40.2510   31.2490   42.5750 N   0  0  0  0  0  0  0  0  0  0  0  0
   36.0210   28.2820   41.8370 H   0  0  0  0  0  0  0  0  0  0  0  0
   40.0010   31.9960   43.2860 H   0  0  0  0  0  0  0  0  0  0  0  0
   41.1800   31.2020   42.0960 H   0  0  0  0  0  0  0  0  0  0  0  0
   35.7340   30.7700   41.0710 N   0  0  0  0  0  0  0  0  0  0  0  0
   35.4090   30.8210   40.0750 H   0  0  0  0  0  0  0  0  0  0  0  0
   35.3300   31.1380   41.9390 H   0  0  0  0  0  0  0  0  0  0  0  0
  1  7  1  0  0  0  0
  2  1  1  0  0  0  0
  2  8  1  0  0  0  0
  3  4  1  0  0  0  0
  3 10  1  0  0  0  0
  3  2  1  0  0  0  0
  4  5  1  0  0  0  0
  4 13  1  0  0  0  0
  5 15  1  0  0  0  0
  6  5  1  0  0  0  0
  6 16  1  0  0  0  0
  6  1  1  0  0  0  0
  9  2  1  0  0  0  0
 11  3  1  0  0  0  0
 12  4  1  0  0  0  0
 14  5  1  0  0  0  0
 17  6  1  0  0  0  0
 18 23  1  0  0  0  0
 18  1  1  0  0  0  0
 19 18  2  0  0  0  0
 20 21  2  0  0  0  0
 20 19  1  0  0  0  0
 21 22  1  0  0  0  0
 22 24  1  0  0  0  0
 22 23  2  0  0  0  0
 24 26  1  0  0  0  0
 25 19  1  0  0  0  0
 27 24  1  0  0  0  0
 28 20  1  0  0  0  0
 28 30  1  0  0  0  0
 29 28  1  0  0  0  0
M  END
>  <minimizedAffinity>
-5.07369137

$$$$

 OpenBabel03242519343D

 30 31  0  0  0  0  0  0  0  0999 V2000
   37.2350   29.8310   41.9410 C   0  0  0  0  0  0  0  0  0  0  0  0
   38.5200   29.7350   42.6860 C   0  0  0  0  0  0  0  0  0  0  0  0
   39.0590   28.3460   42.7180 C   0  0  0  0  0  0  0  0  0  0  0  0
   38.0640   27.3510   43.2830 C   0  0  0  0  0  0  0  0  0  0  0  0
   36.6830   27.5100   42.7170 C   0  0  0  0  0  0  0  0  0  0  0  0
   36.6560   28.4830   41.5710 C   0  0  0  0  0  0  0  0  0  0  0  0
   36.4690   30.3610   42.5590 H   0  0  0  0  0  0  0  0  0  0  0  0
   38.4150   30.1000   43.7260 H   0  0  0  0  0  0  0  0  0  0  0  0
   39.2720   30.3760   42.1830 H   0  0  0  0  0  0  0  0  0  0  0  0
   39.9410   28.3120   43.4090 H   0  0  0  0  0  0  0  0  0  0  0  0
   39.4330   27.9710   41.7560 H   0  0  0  0  0  0  0  0  0  0  0  0
   38.4610   26.3340   43.1830 H   0  0  0  0  0  0  0  0  0  0  0  0
   37.9980   27.5660   44.3890 H   0  0  0  0  0  0  0  0  0  0  0  0
   36.3710   26.5240   42.3090 H   0  0  0  0  0  0  0  0  0  0  0  0
   35.9410   27.8170   43.4870 H   0  0  0  0  0  0  0  0  0  0  0  0
   35.6210   28.6320   41.2340 H   0  0  0  0  0  0  0  0  0  0  0  0
   37.1990   28.0070   40.7240 H   0  0  0  0  0  0  0  0  0  0  0  0
   37.3590   30.6020   40.6880 C   0  0  0  0  0  0  0  0  0  0  0  0
   37.7630   29.8600   39.5540 C   0  0  0  0  0  0  0  0  0  0  0  0
   37.9020   30.5220   38.3340 C   0  0  0  0  0  0  0  0  0  0  0  0
   37.6350   31.8590   38.3100 N   0  0  0  0  0  0  0  0  0  0  0  0
   37.2450   32.5530   39.4250 C   0  0  0  0  0  0  0  0  0  0  0  0
   37.1090   31.9220   40.6070 N   0  0  0  0  0  0  0  0  0  0  0  0
   36.9920   33.9380   39.2630 N   0  0  0  0  0  0  0  0  0  0  0  0
   37.9800   28.8200   39.5300 H   0  0  0  0  0  0  0  0  0  0  0  0
   36.1530   34.0720   38.6270 H   0  0  0  0  0  0  0  0  0  0  0  0
   37.5220   34.7340   39.6870 H   0  0  0  0  0  0  0  0  0  0  0  0
   38.3040   29.8540   37.1450 N   0  0  0  0  0  0  0  0  0  0  0  0
   39.2580   29.6350   36.7680 H   0  0  0  0  0  0  0  0  0  0  0  0
   37.3660   29.6570   36.7800 H   0  0  0  0  0  0  0  0  0  0  0  0
  1  7  1  0  0  0  0
  1  2  1  0  0  0  0
  2  3  1  0  0  0  0
  2  8  1  0  0  0  0
  3  4  1  0  0  0  0
  3 10  1  0  0  0  0
  4 13  1  0  0  0  0
  5  4  1  0  0  0  0
  5 15  1  0  0  0  0
  6  1  1  0  0  0  0
  6  5  1  0  0  0  0
  9  2  1  0  0  0  0
 11  3  1  0  0  0  0
 12  4  1  0  0  0  0
 14  5  1  0  0  0  0
 16  6  1  0  0  0  0
 17  6  1  0  0  0  0
 18  1  1  0  0  0  0
 19 18  2  0  0  0  0
 20 19  1  0  0  0  0
 21 20  2  0  0  0  0
 21 22  1  0  0  0  0
 22 23  2  0  0  0  0
 23 18  1  0  0  0  0
 24 22  1  0  0  0  0
 24 27  1  0  0  0  0
 25 19  1  0  0  0  0
 26 24  1  0  0  0  0
 28 20  1  0  0  0  0
 29 28  1  0  0  0  0
 30 28  1  0  0  0  0
M  END
>  <minimizedAffinity>
-5.06909323

$$$$

 OpenBabel03242519343D

 30 31  0  0  0  0  0  0  0  0999 V2000
   38.5390   29.2760   40.9710 C   0  0  0  0  0  0  0  0  0  0  0  0
   37.3380   28.6100   40.4000 C   0  0  0  0  0  0  0  0  0  0  0  0
   36.2620   28.4060   41.4120 C   0  0  0  0  0  0  0  0  0  0  0  0
   36.7470   27.6360   42.6250 C   0  0  0  0  0  0  0  0  0  0  0  0
   38.0630   28.1290   43.1510 C   0  0  0  0  0  0  0  0  0  0  0  0
   38.4930   29.4030   42.4780 C   0  0  0  0  0  0  0  0  0  0  0  0
   39.4600   28.6950   40.7170 H   0  0  0  0  0  0  0  0  0  0  0  0
   37.5910   27.6310   39.9490 H   0  0  0  0  0  0  0  0  0  0  0  0
   36.9240   29.2500   39.5950 H   0  0  0  0  0  0  0  0  0  0  0  0
   35.4510   27.7760   40.9630 H   0  0  0  0  0  0  0  0  0  0  0  0
   35.7610   29.3240   41.7480 H   0  0  0  0  0  0  0  0  0  0  0  0
   35.9580   27.6080   43.3860 H   0  0  0  0  0  0  0  0  0  0  0  0
   36.9020   26.5720   42.2810 H   0  0  0  0  0  0  0  0  0  0  0  0
   37.9280   28.3650   44.2290 H   0  0  0  0  0  0  0  0  0  0  0  0
   38.8690   27.3670   43.0610 H   0  0  0  0  0  0  0  0  0  0  0  0
   39.4930   29.6910   42.8310 H   0  0  0  0  0  0  0  0  0  0  0  0
   37.7970   30.2030   42.8140 H   0  0  0  0  0  0  0  0  0  0  0  0
   38.7470   30.6350   40.4330 C   0  0  0  0  0  0  0  0  0  0  0  0
   39.0190   30.7070   39.0480 C   0  0  0  0  0  0  0  0  0  0  0  0
   39.2270   31.9600   38.4690 C   0  0  0  0  0  0  0  0  0  0  0  0
   39.1530   33.0500   39.2860 N   0  0  0  0  0  0  0  0  0  0  0  0
   38.8880   32.9500   40.6260 C   0  0  0  0  0  0  0  0  0  0  0  0
   38.6870   31.7450   41.1930 N   0  0  0  0  0  0  0  0  0  0  0  0
   38.8320   34.1610   41.3610 N   0  0  0  0  0  0  0  0  0  0  0  0
   39.0850   29.8850   38.3790 H   0  0  0  0  0  0  0  0  0  0  0  0
   38.0080   34.7400   41.0250 H   0  0  0  0  0  0  0  0  0  0  0  0
   39.4780   34.4710   42.1220 H   0  0  0  0  0  0  0  0  0  0  0  0
   39.5060   32.1230   37.0850 N   0  0  0  0  0  0  0  0  0  0  0  0
   40.4110   32.0860   36.5560 H   0  0  0  0  0  0  0  0  0  0  0  0
   38.5420   32.2870   36.7730 H   0  0  0  0  0  0  0  0  0  0  0  0
  1  6  1  0  0  0  0
  2  1  1  0  0  0  0
  2  3  1  0  0  0  0
  3 11  1  0  0  0  0
  3  4  1  0  0  0  0
  4  5  1  0  0  0  0
  4 12  1  0  0  0  0
  5 14  1  0  0  0  0
  6 17  1  0  0  0  0
  6 16  1  0  0  0  0
  6  5  1  0  0  0  0
  7  1  1  0  0  0  0
  8  2  1  0  0  0  0
  9  2  1  0  0  0  0
 10  3  1  0  0  0  0
 13  4  1  0  0  0  0
 15  5  1  0  0  0  0
 18  1  1  0  0  0  0
 18 23  1  0  0  0  0
 19 18  2  0  0  0  0
 20 19  1  0  0  0  0
 20 21  2  0  0  0  0
 21 22  1  0  0  0  0
 22 23  2  0  0  0  0
 22 24  1  0  0  0  0
 24 27  1  0  0  0  0
 25 19  1  0  0  0  0
 26 24  1  0  0  0  0
 28 20  1  0  0  0  0
 29 28  1  0  0  0  0
 30 28  1  0  0  0  0
M  END
>  <minimizedAffinity>
-5.02175093

$$$$
