
 OpenBabel03252508303D

 33 35  0  0  1  0  0  0  0  0999 V2000
   36.2590   28.1970   42.6700 N   0  0  0  0  0  0  0  0  0  0  0  0
   36.7810   28.1540   41.3030 C   0  0  2  0  0  0  0  0  0  0  0  0
   37.9460   27.2540   41.1610 C   0  0  0  0  0  0  0  0  0  0  0  0
   38.2120   26.4530   42.3440 N   0  0  0  0  0  0  0  0  0  0  0  0
   38.1780   27.1490   43.5790 C   0  0  0  0  0  0  0  0  0  0  0  0
   37.4240   28.4510   43.5160 C   0  0  1  0  0  0  0  0  0  0  0  0
   35.8950   27.2670   42.9450 H   0  0  0  0  0  0  0  0  0  0  0  0
   35.9100   27.8290   40.6800 H   0  0  0  0  0  0  0  0  0  0  0  0
   37.7090   26.4850   40.3610 H   0  0  0  0  0  0  0  0  0  0  0  0
   38.9210   27.6730   40.9450 H   0  0  0  0  0  0  0  0  0  0  0  0
   39.0990   25.9520   42.2320 H   0  0  0  0  0  0  0  0  0  0  0  0
   37.6690   26.4880   44.3110 H   0  0  0  0  0  0  0  0  0  0  0  0
   39.2010   27.3070   44.0320 H   0  0  0  0  0  0  0  0  0  0  0  0
   36.9730   28.6140   44.5410 H   0  0  0  0  0  0  0  0  0  0  0  0
   38.2530   31.2640   40.2240 C   0  0  0  0  0  0  0  0  0  0  0  0
   36.9390   31.6020   40.5500 C   0  0  0  0  0  0  0  0  0  0  0  0
   36.2540   30.4860   40.9920 C   0  0  0  0  0  0  0  0  0  0  0  0
   37.1530   29.4990   40.9270 N   0  0  0  0  0  0  0  0  0  0  0  0
   38.3160   29.9580   40.4790 N   0  0  0  0  0  0  0  0  0  0  0  0
   36.6220   32.6530   40.4240 H   0  0  0  0  0  0  0  0  0  0  0  0
   35.2330   30.7450   41.2530 H   0  0  0  0  0  0  0  0  0  0  0  0
   40.6160   34.1550   39.7970 C   0  0  0  0  0  0  0  0  0  0  0  0
   39.6000   33.3520   40.4090 C   0  0  0  0  0  0  0  0  0  0  0  0
   39.2640   32.2020   39.7390 C   0  0  0  0  0  0  0  0  0  0  0  0
   39.8880   31.8840   38.5620 N   0  0  0  0  0  0  0  0  0  0  0  0
   40.8430   32.6770   38.0230 C   0  0  0  0  0  0  0  0  0  0  0  0
   41.1840   33.7940   38.6550 N   0  0  0  0  0  0  0  0  0  0  0  0
   40.8390   35.0510   40.3700 H   0  0  0  0  0  0  0  0  0  0  0  0
   39.1090   33.6010   41.3350 H   0  0  0  0  0  0  0  0  0  0  0  0
   41.2730   32.3400   37.0990 H   0  0  0  0  0  0  0  0  0  0  0  0
   38.1730   29.6000   43.2180 N   0  0  0  0  0  0  0  0  0  0  0  0
   37.8080   30.5130   43.5760 H   0  0  0  0  0  0  0  0  0  0  0  0
   39.1320   29.5110   43.6700 H   0  0  0  0  0  0  0  0  0  0  0  0
  1  7  1  0  0  0  0
  1  6  1  0  0  0  0
  2  8  1  6  0  0  0
  2  1  1  0  0  0  0
  3  2  1  0  0  0  0
  3  4  1  0  0  0  0
  4  5  1  0  0  0  0
  5 13  1  0  0  0  0
  5 12  1  0  0  0  0
  6  5  1  0  0  0  0
  6 14  1  1  0  0  0
  9  3  1  0  0  0  0
 10  3  1  0  0  0  0
 11  4  1  0  0  0  0
 15 19  2  0  0  0  0
 15 16  1  0  0  0  0
 16 17  2  0  0  0  0
 17 21  1  0  0  0  0
 18 17  1  0  0  0  0
 18  2  1  0  0  0  0
 19 18  1  0  0  0  0
 20 16  1  0  0  0  0
 22 28  1  0  0  0  0
 22 23  1  0  0  0  0
 23 29  1  0  0  0  0
 24 15  1  0  0  0  0
 24 23  2  0  0  0  0
 25 24  1  0  0  0  0
 26 25  2  0  0  0  0
 26 27  1  0  0  0  0
 27 22  2  0  0  0  0
 30 26  1  0  0  0  0
 31  6  1  0  0  0  0
 31 32  1  0  0  0  0
 31 33  1  0  0  0  0
M  END
>  <minimizedAffinity>
-5.13055325

$$$$

 OpenBabel03252508303D

 33 35  0  0  1  0  0  0  0  0999 V2000
   39.2450   31.6490   39.6270 N   0  0  0  0  0  0  0  0  0  0  0  0
   37.8770   31.1560   39.7950 C   0  0  2  0  0  0  0  0  0  0  0  0
   36.9380   32.2080   40.2420 C   0  0  0  0  0  0  0  0  0  0  0  0
   37.5110   33.5440   40.2320 N   0  0  0  0  0  0  0  0  0  0  0  0
   38.8060   33.6620   40.7970 C   0  0  0  0  0  0  0  0  0  0  0  0
   39.5520   32.3550   40.8700 C   0  0  1  0  0  0  0  0  0  0  0  0
   39.2810   32.3580   38.8720 H   0  0  0  0  0  0  0  0  0  0  0  0
   37.6060   30.7360   38.7950 H   0  0  0  0  0  0  0  0  0  0  0  0
   36.0900   32.2710   39.4910 H   0  0  0  0  0  0  0  0  0  0  0  0
   36.5050   32.1510   41.2330 H   0  0  0  0  0  0  0  0  0  0  0  0
   36.8600   34.2020   40.6710 H   0  0  0  0  0  0  0  0  0  0  0  0
   39.3820   34.3530   40.1470 H   0  0  0  0  0  0  0  0  0  0  0  0
   38.8110   34.1760   41.8020 H   0  0  0  0  0  0  0  0  0  0  0  0
   40.6510   32.6030   40.7660 H   0  0  0  0  0  0  0  0  0  0  0  0
   38.4560   28.2930   41.9090 C   0  0  0  0  0  0  0  0  0  0  0  0
   37.3440   28.9160   42.4750 C   0  0  0  0  0  0  0  0  0  0  0  0
   37.0040   30.0410   41.7470 C   0  0  0  0  0  0  0  0  0  0  0  0
   37.9070   30.0830   40.7640 N   0  0  0  0  0  0  0  0  0  0  0  0
   38.7510   29.0620   40.8620 N   0  0  0  0  0  0  0  0  0  0  0  0
   36.8940   28.4670   43.3790 H   0  0  0  0  0  0  0  0  0  0  0  0
   36.1350   30.5260   42.1800 H   0  0  0  0  0  0  0  0  0  0  0  0
   40.6160   25.7770   43.6790 C   0  0  0  0  0  0  0  0  0  0  0  0
   40.1350   27.0670   43.2830 C   0  0  0  0  0  0  0  0  0  0  0  0
   39.0750   27.0670   42.4110 C   0  0  0  0  0  0  0  0  0  0  0  0
   38.5450   25.8820   41.9730 N   0  0  0  0  0  0  0  0  0  0  0  0
   39.0350   24.6880   42.3760 C   0  0  0  0  0  0  0  0  0  0  0  0
   40.0600   24.6650   43.2210 N   0  0  0  0  0  0  0  0  0  0  0  0
   41.4530   25.8390   44.3690 H   0  0  0  0  0  0  0  0  0  0  0  0
   40.5510   27.9990   43.6280 H   0  0  0  0  0  0  0  0  0  0  0  0
   38.5500   23.8170   41.9770 H   0  0  0  0  0  0  0  0  0  0  0  0
   39.4160   31.6170   42.0570 N   0  0  0  0  0  0  0  0  0  0  0  0
   40.2040   30.9780   42.3130 H   0  0  0  0  0  0  0  0  0  0  0  0
   39.3560   32.2930   42.8750 H   0  0  0  0  0  0  0  0  0  0  0  0
  1  2  1  0  0  0  0
  1  6  1  0  0  0  0
  2  8  1  6  0  0  0
  2  3  1  0  0  0  0
  2 18  1  0  0  0  0
  3 10  1  0  0  0  0
  4  3  1  0  0  0  0
  4 11  1  0  0  0  0
  4  5  1  0  0  0  0
  5  6  1  0  0  0  0
  5 13  1  0  0  0  0
  6 14  1  6  0  0  0
  6 31  1  0  0  0  0
  7  1  1  0  0  0  0
  9  3  1  0  0  0  0
 12  5  1  0  0  0  0
 15 24  1  0  0  0  0
 15 16  1  0  0  0  0
 16 20  1  0  0  0  0
 17 21  1  0  0  0  0
 17 16  2  0  0  0  0
 18 19  1  0  0  0  0
 18 17  1  0  0  0  0
 19 15  2  0  0  0  0
 22 28  1  0  0  0  0
 23 29  1  0  0  0  0
 23 22  1  0  0  0  0
 24 23  2  0  0  0  0
 25 26  2  0  0  0  0
 25 24  1  0  0  0  0
 26 27  1  0  0  0  0
 27 22  2  0  0  0  0
 30 26  1  0  0  0  0
 31 32  1  0  0  0  0
 31 33  1  0  0  0  0
M  END
>  <minimizedAffinity>
-4.98987722

$$$$

 OpenBabel03252508303D

 33 35  0  0  1  0  0  0  0  0999 V2000
   39.5670   32.1030   39.3010 N   0  0  0  0  0  0  0  0  0  0  0  0
   38.1490   31.7390   39.3200 C   0  0  2  0  0  0  0  0  0  0  0  0
   37.2680   32.8770   39.6600 C   0  0  0  0  0  0  0  0  0  0  0  0
   37.9580   34.1550   39.7100 N   0  0  0  0  0  0  0  0  0  0  0  0
   39.1900   34.1610   40.4130 C   0  0  0  0  0  0  0  0  0  0  0  0
   39.8000   32.7930   40.5700 C   0  0  1  0  0  0  0  0  0  0  0  0
   39.7500   32.7970   38.5540 H   0  0  0  0  0  0  0  0  0  0  0  0
   37.9510   31.3330   38.2970 H   0  0  0  0  0  0  0  0  0  0  0  0
   36.5150   33.0080   38.8200 H   0  0  0  0  0  0  0  0  0  0  0  0
   36.7270   32.8720   40.5980 H   0  0  0  0  0  0  0  0  0  0  0  0
   37.3270   34.8750   40.0740 H   0  0  0  0  0  0  0  0  0  0  0  0
   39.8940   34.7900   39.8290 H   0  0  0  0  0  0  0  0  0  0  0  0
   39.1330   34.6850   41.4110 H   0  0  0  0  0  0  0  0  0  0  0  0
   40.9230   32.9390   40.5850 H   0  0  0  0  0  0  0  0  0  0  0  0
   38.2730   28.9080   41.5500 C   0  0  0  0  0  0  0  0  0  0  0  0
   37.0640   29.5320   41.8560 C   0  0  0  0  0  0  0  0  0  0  0  0
   36.8840   30.6450   41.0570 C   0  0  0  0  0  0  0  0  0  0  0  0
   37.9760   30.6790   40.2880 N   0  0  0  0  0  0  0  0  0  0  0  0
   38.7830   29.6650   40.5790 N   0  0  0  0  0  0  0  0  0  0  0  0
   36.4330   29.0910   42.6500 H   0  0  0  0  0  0  0  0  0  0  0  0
   35.9410   31.1290   41.2870 H   0  0  0  0  0  0  0  0  0  0  0  0
   38.8490   25.3680   42.6740 C   0  0  0  0  0  0  0  0  0  0  0  0
   38.2320   26.4530   41.9710 C   0  0  0  0  0  0  0  0  0  0  0  0
   38.7760   27.6930   42.1900 C   0  0  0  0  0  0  0  0  0  0  0  0
   39.8430   27.8370   43.0380 N   0  0  0  0  0  0  0  0  0  0  0  0
   40.3920   26.7800   43.6790 C   0  0  0  0  0  0  0  0  0  0  0  0
   39.8810   25.5700   43.4810 N   0  0  0  0  0  0  0  0  0  0  0  0
   38.3770   24.4130   42.4620 H   0  0  0  0  0  0  0  0  0  0  0  0
   37.3920   26.3410   41.3040 H   0  0  0  0  0  0  0  0  0  0  0  0
   41.2260   26.9950   44.3210 H   0  0  0  0  0  0  0  0  0  0  0  0
   39.4700   32.0850   41.7350 N   0  0  0  0  0  0  0  0  0  0  0  0
   40.1630   31.3800   42.0780 H   0  0  0  0  0  0  0  0  0  0  0  0
   39.3830   32.7730   42.5410 H   0  0  0  0  0  0  0  0  0  0  0  0
  1  2  1  0  0  0  0
  1  6  1  0  0  0  0
  2  8  1  6  0  0  0
  2  3  1  0  0  0  0
  2 18  1  0  0  0  0
  3  4  1  0  0  0  0
  3 10  1  0  0  0  0
  4 11  1  0  0  0  0
  4  5  1  0  0  0  0
  5  6  1  0  0  0  0
  5 13  1  0  0  0  0
  6 14  1  1  0  0  0
  6 31  1  0  0  0  0
  7  1  1  0  0  0  0
  9  3  1  0  0  0  0
 12  5  1  0  0  0  0
 15 16  1  0  0  0  0
 15 24  1  0  0  0  0
 16 20  1  0  0  0  0
 17 21  1  0  0  0  0
 17 16  2  0  0  0  0
 18 19  1  0  0  0  0
 18 17  1  0  0  0  0
 19 15  2  0  0  0  0
 22 27  1  0  0  0  0
 23 24  1  0  0  0  0
 23 22  2  0  0  0  0
 24 25  2  0  0  0  0
 25 26  1  0  0  0  0
 26 30  1  0  0  0  0
 27 26  2  0  0  0  0
 28 22  1  0  0  0  0
 29 23  1  0  0  0  0
 31 32  1  0  0  0  0
 31 33  1  0  0  0  0
M  END
>  <minimizedAffinity>
-4.85280848

$$$$

 OpenBabel03252508303D

 33 35  0  0  1  0  0  0  0  0999 V2000
   36.7580   32.5770   40.5570 N   0  0  0  0  0  0  0  0  0  0  0  0
   37.6360   31.4100   40.6530 C   0  0  2  0  0  0  0  0  0  0  0  0
   39.0510   31.7730   40.8850 C   0  0  0  0  0  0  0  0  0  0  0  0
   39.2530   33.1840   41.1660 N   0  0  0  0  0  0  0  0  0  0  0  0
   38.5680   34.0860   40.3110 C   0  0  0  0  0  0  0  0  0  0  0  0
   37.4040   33.4620   39.5880 C   0  0  1  0  0  0  0  0  0  0  0  0
   36.7430   33.0910   41.4570 H   0  0  0  0  0  0  0  0  0  0  0  0
   37.2060   30.8040   41.4900 H   0  0  0  0  0  0  0  0  0  0  0  0
   39.4010   31.2550   41.8320 H   0  0  0  0  0  0  0  0  0  0  0  0
   39.7840   31.5860   40.1100 H   0  0  0  0  0  0  0  0  0  0  0  0
   40.2560   33.3930   41.1870 H   0  0  0  0  0  0  0  0  0  0  0  0
   38.1800   34.9070   40.9490 H   0  0  0  0  0  0  0  0  0  0  0  0
   39.2480   34.6150   39.5820 H   0  0  0  0  0  0  0  0  0  0  0  0
   36.6400   34.2830   39.4340 H   0  0  0  0  0  0  0  0  0  0  0  0
   36.7390   29.6720   37.6240 C   0  0  0  0  0  0  0  0  0  0  0  0
   38.1270   29.5500   37.6900 C   0  0  0  0  0  0  0  0  0  0  0  0
   38.6090   30.1740   38.8250 C   0  0  0  0  0  0  0  0  0  0  0  0
   37.5170   30.6630   39.4220 N   0  0  0  0  0  0  0  0  0  0  0  0
   36.4300   30.3670   38.7180 N   0  0  0  0  0  0  0  0  0  0  0  0
   38.6440   29.0030   36.8810 H   0  0  0  0  0  0  0  0  0  0  0  0
   39.6880   30.0750   38.8850 H   0  0  0  0  0  0  0  0  0  0  0  0
   33.8780   28.3470   35.5780 C   0  0  0  0  0  0  0  0  0  0  0  0
   34.5540   28.8920   36.7180 C   0  0  0  0  0  0  0  0  0  0  0  0
   35.8980   29.1160   36.5650 C   0  0  0  0  0  0  0  0  0  0  0  0
   36.5140   28.8200   35.3770 N   0  0  0  0  0  0  0  0  0  0  0  0
   35.8330   28.3060   34.3280 C   0  0  0  0  0  0  0  0  0  0  0  0
   34.5300   28.0820   34.4540 N   0  0  0  0  0  0  0  0  0  0  0  0
   32.8180   28.1910   35.7570 H   0  0  0  0  0  0  0  0  0  0  0  0
   34.0700   29.1250   37.6520 H   0  0  0  0  0  0  0  0  0  0  0  0
   36.4050   28.1100   33.4400 H   0  0  0  0  0  0  0  0  0  0  0  0
   37.6670   32.9140   38.3220 N   0  0  0  0  0  0  0  0  0  0  0  0
   36.8710   32.8760   37.6440 H   0  0  0  0  0  0  0  0  0  0  0  0
   38.3940   33.5170   37.8330 H   0  0  0  0  0  0  0  0  0  0  0  0
  1  2  1  0  0  0  0
  1  7  1  0  0  0  0
  2  3  1  0  0  0  0
  2  8  1  1  0  0  0
  3  4  1  0  0  0  0
  3  9  1  0  0  0  0
  4 11  1  0  0  0  0
  5 12  1  0  0  0  0
  5  4  1  0  0  0  0
  6 14  1  6  0  0  0
  6  5  1  0  0  0  0
  6  1  1  0  0  0  0
 10  3  1  0  0  0  0
 13  5  1  0  0  0  0
 15 16  1  0  0  0  0
 15 19  2  0  0  0  0
 16 17  2  0  0  0  0
 17 21  1  0  0  0  0
 17 18  1  0  0  0  0
 18  2  1  0  0  0  0
 19 18  1  0  0  0  0
 20 16  1  0  0  0  0
 22 28  1  0  0  0  0
 22 23  1  0  0  0  0
 23 29  1  0  0  0  0
 24 23  2  0  0  0  0
 24 15  1  0  0  0  0
 25 24  1  0  0  0  0
 26 27  1  0  0  0  0
 26 25  2  0  0  0  0
 27 22  2  0  0  0  0
 30 26  1  0  0  0  0
 31  6  1  0  0  0  0
 32 31  1  0  0  0  0
 33 31  1  0  0  0  0
M  END
>  <minimizedAffinity>
-4.82884264

$$$$

 OpenBabel03252508303D

 33 35  0  0  1  0  0  0  0  0999 V2000
   39.1910   31.5340   40.0510 N   0  0  0  0  0  0  0  0  0  0  0  0
   39.9590   32.7450   40.3440 C   0  0  2  0  0  0  0  0  0  0  0  0
   39.1220   33.9640   40.3740 C   0  0  0  0  0  0  0  0  0  0  0  0
   37.6950   33.6930   40.3050 N   0  0  0  0  0  0  0  0  0  0  0  0
   37.2940   32.7520   39.3220 C   0  0  0  0  0  0  0  0  0  0  0  0
   38.4120   31.8570   38.8560 C   0  0  1  0  0  0  0  0  0  0  0  0
   38.5060   31.3510   40.8060 H   0  0  0  0  0  0  0  0  0  0  0  0
   40.4470   32.5350   41.3290 H   0  0  0  0  0  0  0  0  0  0  0  0
   39.2540   34.4630   41.3850 H   0  0  0  0  0  0  0  0  0  0  0  0
   39.2490   34.7180   39.6080 H   0  0  0  0  0  0  0  0  0  0  0  0
   37.1810   34.5730   40.1990 H   0  0  0  0  0  0  0  0  0  0  0  0
   36.5090   32.1170   39.7820 H   0  0  0  0  0  0  0  0  0  0  0  0
   36.7710   33.2230   38.4390 H   0  0  0  0  0  0  0  0  0  0  0  0
   37.9390   30.8670   38.5770 H   0  0  0  0  0  0  0  0  0  0  0  0
   42.5620   32.4670   37.8640 C   0  0  0  0  0  0  0  0  0  0  0  0
   42.2460   33.8250   37.8780 C   0  0  0  0  0  0  0  0  0  0  0  0
   41.2520   34.0760   38.8050 C   0  0  0  0  0  0  0  0  0  0  0  0
   40.9820   32.8790   39.3310 N   0  0  0  0  0  0  0  0  0  0  0  0
   41.7480   31.9440   38.7800 N   0  0  0  0  0  0  0  0  0  0  0  0
   42.7930   34.4970   37.1910 H   0  0  0  0  0  0  0  0  0  0  0  0
   41.0080   35.1330   38.8230 H   0  0  0  0  0  0  0  0  0  0  0  0
   44.4360   30.3100   35.4220 C   0  0  0  0  0  0  0  0  0  0  0  0
   43.3240   30.7860   36.1900 C   0  0  0  0  0  0  0  0  0  0  0  0
   43.5820   31.8510   37.0160 C   0  0  0  0  0  0  0  0  0  0  0  0
   44.8390   32.3920   37.0700 N   0  0  0  0  0  0  0  0  0  0  0  0
   45.8580   31.9060   36.3240 C   0  0  0  0  0  0  0  0  0  0  0  0
   45.6310   30.8760   35.5180 N   0  0  0  0  0  0  0  0  0  0  0  0
   44.1730   29.4670   34.7880 H   0  0  0  0  0  0  0  0  0  0  0  0
   42.3350   30.3620   36.1470 H   0  0  0  0  0  0  0  0  0  0  0  0
   46.8050   32.3990   36.4370 H   0  0  0  0  0  0  0  0  0  0  0  0
   39.1380   32.2860   37.7340 N   0  0  0  0  0  0  0  0  0  0  0  0
   39.5910   31.5470   37.1480 H   0  0  0  0  0  0  0  0  0  0  0  0
   38.4750   32.7760   37.0640 H   0  0  0  0  0  0  0  0  0  0  0  0
  1  2  1  0  0  0  0
  1  7  1  0  0  0  0
  2  3  1  0  0  0  0
  2  8  1  1  0  0  0
  3  9  1  0  0  0  0
  4  3  1  0  0  0  0
  5 12  1  0  0  0  0
  5  4  1  0  0  0  0
  6 14  1  6  0  0  0
  6  5  1  0  0  0  0
  6  1  1  0  0  0  0
 10  3  1  0  0  0  0
 11  4  1  0  0  0  0
 13  5  1  0  0  0  0
 15 16  1  0  0  0  0
 15 19  2  0  0  0  0
 16 17  2  0  0  0  0
 17 21  1  0  0  0  0
 17 18  1  0  0  0  0
 18  2  1  0  0  0  0
 19 18  1  0  0  0  0
 20 16  1  0  0  0  0
 22 27  2  0  0  0  0
 22 23  1  0  0  0  0
 23 24  2  0  0  0  0
 24 25  1  0  0  0  0
 24 15  1  0  0  0  0
 26 30  1  0  0  0  0
 26 25  2  0  0  0  0
 27 26  1  0  0  0  0
 28 22  1  0  0  0  0
 29 23  1  0  0  0  0
 31  6  1  0  0  0  0
 32 31  1  0  0  0  0
 33 31  1  0  0  0  0
M  END
>  <minimizedAffinity>
-4.7092576

$$$$

 OpenBabel03252508303D

 33 35  0  0  1  0  0  0  0  0999 V2000
   40.6900   34.1610   38.8330 N   0  0  0  0  0  0  0  0  0  0  0  0
   40.5860   33.8790   40.2660 C   0  0  2  0  0  0  0  0  0  0  0  0
   41.8110   33.2650   40.8210 C   0  0  0  0  0  0  0  0  0  0  0  0
   42.9280   33.2480   39.8910 N   0  0  0  0  0  0  0  0  0  0  0  0
   42.6250   32.8200   38.5730 C   0  0  0  0  0  0  0  0  0  0  0  0
   41.1610   32.9140   38.2320 C   0  0  1  0  0  0  0  0  0  0  0  0
   41.4270   34.8670   38.6580 H   0  0  0  0  0  0  0  0  0  0  0  0
   40.3540   34.8700   40.7300 H   0  0  0  0  0  0  0  0  0  0  0  0
   42.1800   33.9150   41.6750 H   0  0  0  0  0  0  0  0  0  0  0  0
   41.7860   32.2390   41.1660 H   0  0  0  0  0  0  0  0  0  0  0  0
   43.6980   32.6990   40.2850 H   0  0  0  0  0  0  0  0  0  0  0  0
   43.1860   33.4810   37.8800 H   0  0  0  0  0  0  0  0  0  0  0  0
   43.0210   31.7900   38.3360 H   0  0  0  0  0  0  0  0  0  0  0  0
   41.1010   33.1200   37.1210 H   0  0  0  0  0  0  0  0  0  0  0  0
   38.1760   31.3220   41.0770 C   0  0  0  0  0  0  0  0  0  0  0  0
   37.4410   32.2720   40.3690 C   0  0  0  0  0  0  0  0  0  0  0  0
   38.2570   33.3200   39.9850 C   0  0  0  0  0  0  0  0  0  0  0  0
   39.4610   32.9920   40.4630 N   0  0  0  0  0  0  0  0  0  0  0  0
   39.4090   31.8270   41.0980 N   0  0  0  0  0  0  0  0  0  0  0  0
   36.3630   32.0880   40.2090 H   0  0  0  0  0  0  0  0  0  0  0  0
   37.6910   34.0590   39.4280 H   0  0  0  0  0  0  0  0  0  0  0  0
   36.2120   28.1740   41.6770 C   0  0  0  0  0  0  0  0  0  0  0  0
   36.6180   29.3790   41.0170 C   0  0  0  0  0  0  0  0  0  0  0  0
   37.6350   30.0760   41.6180 C   0  0  0  0  0  0  0  0  0  0  0  0
   38.1970   29.6100   42.7780 N   0  0  0  0  0  0  0  0  0  0  0  0
   37.7780   28.4650   43.3640 C   0  0  0  0  0  0  0  0  0  0  0  0
   36.7950   27.7740   42.7990 N   0  0  0  0  0  0  0  0  0  0  0  0
   35.4050   27.6660   41.1570 H   0  0  0  0  0  0  0  0  0  0  0  0
   36.1770   29.7460   40.1050 H   0  0  0  0  0  0  0  0  0  0  0  0
   38.2830   28.1840   44.2700 H   0  0  0  0  0  0  0  0  0  0  0  0
   40.3830   31.7710   38.4730 N   0  0  0  0  0  0  0  0  0  0  0  0
   39.5280   31.6440   37.8840 H   0  0  0  0  0  0  0  0  0  0  0  0
   40.9690   30.9080   38.2670 H   0  0  0  0  0  0  0  0  0  0  0  0
  1  2  1  0  0  0  0
  2 18  1  0  0  0  0
  2  8  1  1  0  0  0
  2  3  1  0  0  0  0
  3 10  1  0  0  0  0
  3  9  1  0  0  0  0
  4 11  1  0  0  0  0
  4  3  1  0  0  0  0
  5  4  1  0  0  0  0
  6 14  1  6  0  0  0
  6 31  1  0  0  0  0
  6  5  1  0  0  0  0
  6  1  1  0  0  0  0
  7  1  1  0  0  0  0
 12  5  1  0  0  0  0
 13  5  1  0  0  0  0
 15 19  2  0  0  0  0
 15 24  1  0  0  0  0
 16 15  1  0  0  0  0
 17 16  2  0  0  0  0
 17 18  1  0  0  0  0
 18 19  1  0  0  0  0
 20 16  1  0  0  0  0
 21 17  1  0  0  0  0
 22 27  1  0  0  0  0
 23 24  1  0  0  0  0
 23 22  2  0  0  0  0
 24 25  2  0  0  0  0
 25 26  1  0  0  0  0
 26 30  1  0  0  0  0
 27 26  2  0  0  0  0
 28 22  1  0  0  0  0
 29 23  1  0  0  0  0
 32 31  1  0  0  0  0
 33 31  1  0  0  0  0
M  END
>  <minimizedAffinity>
-4.70622683

$$$$

 OpenBabel03252508303D

 33 35  0  0  1  0  0  0  0  0999 V2000
   38.9570   31.8110   38.4580 N   0  0  0  0  0  0  0  0  0  0  0  0
   37.5600   31.9890   38.8590 C   0  0  2  0  0  0  0  0  0  0  0  0
   37.3250   33.2630   39.5710 C   0  0  0  0  0  0  0  0  0  0  0  0
   38.4670   34.1610   39.5550 N   0  0  0  0  0  0  0  0  0  0  0  0
   39.7200   33.5670   39.8530 C   0  0  0  0  0  0  0  0  0  0  0  0
   39.7370   32.0730   39.6670 C   0  0  1  0  0  0  0  0  0  0  0  0
   39.2290   32.5390   37.7720 H   0  0  0  0  0  0  0  0  0  0  0  0
   36.9830   31.9180   37.9040 H   0  0  0  0  0  0  0  0  0  0  0  0
   36.5200   33.8390   39.0150 H   0  0  0  0  0  0  0  0  0  0  0  0
   37.0610   33.2470   40.6210 H   0  0  0  0  0  0  0  0  0  0  0  0
   38.2880   34.9610   40.1690 H   0  0  0  0  0  0  0  0  0  0  0  0
   40.4640   34.0120   39.1590 H   0  0  0  0  0  0  0  0  0  0  0  0
   40.1140   33.8430   40.8740 H   0  0  0  0  0  0  0  0  0  0  0  0
   40.7920   31.7970   39.3620 H   0  0  0  0  0  0  0  0  0  0  0  0
   36.9600   28.8730   40.5720 C   0  0  0  0  0  0  0  0  0  0  0  0
   36.3810   29.8350   41.3990 C   0  0  0  0  0  0  0  0  0  0  0  0
   36.5340   31.0940   40.8490 C   0  0  0  0  0  0  0  0  0  0  0  0
   37.1990   30.8780   39.7110 N   0  0  0  0  0  0  0  0  0  0  0  0
   37.4440   29.5820   39.5530 N   0  0  0  0  0  0  0  0  0  0  0  0
   35.8980   29.4990   42.3350 H   0  0  0  0  0  0  0  0  0  0  0  0
   36.0780   31.8450   41.4860 H   0  0  0  0  0  0  0  0  0  0  0  0
   37.0630   25.4770   42.1800 C   0  0  0  0  0  0  0  0  0  0  0  0
   37.0790   26.9070   42.0990 C   0  0  0  0  0  0  0  0  0  0  0  0
   36.9680   27.4350   40.8370 C   0  0  0  0  0  0  0  0  0  0  0  0
   36.8530   26.6060   39.7520 N   0  0  0  0  0  0  0  0  0  0  0  0
   36.8440   25.2590   39.8800 C   0  0  0  0  0  0  0  0  0  0  0  0
   36.9490   24.7270   41.0930 N   0  0  0  0  0  0  0  0  0  0  0  0
   37.1550   25.1170   43.2010 H   0  0  0  0  0  0  0  0  0  0  0  0
   37.1690   27.5600   42.9520 H   0  0  0  0  0  0  0  0  0  0  0  0
   36.7480   24.6970   38.9710 H   0  0  0  0  0  0  0  0  0  0  0  0
   39.4260   31.2930   40.7920 N   0  0  0  0  0  0  0  0  0  0  0  0
   39.8300   30.3290   40.8300 H   0  0  0  0  0  0  0  0  0  0  0  0
   39.8160   31.7710   41.6580 H   0  0  0  0  0  0  0  0  0  0  0  0
  1  2  1  0  0  0  0
  1  6  1  0  0  0  0
  2  8  1  6  0  0  0
  2  3  1  0  0  0  0
  2 18  1  0  0  0  0
  3 10  1  0  0  0  0
  4  3  1  0  0  0  0
  4  5  1  0  0  0  0
  4 11  1  0  0  0  0
  5 13  1  0  0  0  0
  6 14  1  6  0  0  0
  6  5  1  0  0  0  0
  6 31  1  0  0  0  0
  7  1  1  0  0  0  0
  9  3  1  0  0  0  0
 12  5  1  0  0  0  0
 15 24  1  0  0  0  0
 15 16  1  0  0  0  0
 16 20  1  0  0  0  0
 17 16  2  0  0  0  0
 17 21  1  0  0  0  0
 18 17  1  0  0  0  0
 19 18  1  0  0  0  0
 19 15  2  0  0  0  0
 22 28  1  0  0  0  0
 23 22  1  0  0  0  0
 23 29  1  0  0  0  0
 24 23  2  0  0  0  0
 25 26  2  0  0  0  0
 25 24  1  0  0  0  0
 26 27  1  0  0  0  0
 27 22  2  0  0  0  0
 30 26  1  0  0  0  0
 31 32  1  0  0  0  0
 31 33  1  0  0  0  0
M  END
>  <minimizedAffinity>
-4.6937089

$$$$

 OpenBabel03252508303D

 33 35  0  0  1  0  0  0  0  0999 V2000
   39.4760   25.5450   40.7740 N   0  0  0  0  0  0  0  0  0  0  0  0
   39.9770   26.1220   42.0230 C   0  0  2  0  0  0  0  0  0  0  0  0
   39.6360   25.3070   43.2090 C   0  0  0  0  0  0  0  0  0  0  0  0
   39.0550   24.0150   42.8830 N   0  0  0  0  0  0  0  0  0  0  0  0
   38.0390   24.0310   41.8930 C   0  0  0  0  0  0  0  0  0  0  0  0
   38.0640   25.2610   41.0250 C   0  0  1  0  0  0  0  0  0  0  0  0
   39.9300   24.6320   40.5920 H   0  0  0  0  0  0  0  0  0  0  0  0
   41.0810   26.2120   41.8670 H   0  0  0  0  0  0  0  0  0  0  0  0
   40.5990   25.0420   43.7490 H   0  0  0  0  0  0  0  0  0  0  0  0
   38.9380   25.6940   43.9400 H   0  0  0  0  0  0  0  0  0  0  0  0
   38.7240   23.5580   43.7380 H   0  0  0  0  0  0  0  0  0  0  0  0
   38.2030   23.1450   41.2450 H   0  0  0  0  0  0  0  0  0  0  0  0
   37.0040   23.8640   42.3120 H   0  0  0  0  0  0  0  0  0  0  0  0
   37.6760   24.9470   40.0090 H   0  0  0  0  0  0  0  0  0  0  0  0
   38.6950   29.4820   41.7650 C   0  0  0  0  0  0  0  0  0  0  0  0
   38.4400   29.1200   43.0870 C   0  0  0  0  0  0  0  0  0  0  0  0
   38.8950   27.8370   43.3280 C   0  0  0  0  0  0  0  0  0  0  0  0
   39.4110   27.4450   42.1600 N   0  0  0  0  0  0  0  0  0  0  0  0
   39.2930   28.4080   41.2520 N   0  0  0  0  0  0  0  0  0  0  0  0
   37.9370   29.8530   43.7440 H   0  0  0  0  0  0  0  0  0  0  0  0
   38.7040   27.5530   44.3580 H   0  0  0  0  0  0  0  0  0  0  0  0
   37.0530   32.3210   39.9290 C   0  0  0  0  0  0  0  0  0  0  0  0
   37.2280   30.9910   40.4310 C   0  0  0  0  0  0  0  0  0  0  0  0
   38.3630   30.7770   41.1710 C   0  0  0  0  0  0  0  0  0  0  0  0
   39.2460   31.8010   41.3890 N   0  0  0  0  0  0  0  0  0  0  0  0
   39.0370   33.0420   40.8920 C   0  0  0  0  0  0  0  0  0  0  0  0
   37.9440   33.2720   40.1730 N   0  0  0  0  0  0  0  0  0  0  0  0
   36.1390   32.4310   39.3510 H   0  0  0  0  0  0  0  0  0  0  0  0
   36.5330   30.1850   40.2610 H   0  0  0  0  0  0  0  0  0  0  0  0
   39.7870   33.7770   41.1180 H   0  0  0  0  0  0  0  0  0  0  0  0
   37.2730   26.3430   41.4420 N   0  0  0  0  0  0  0  0  0  0  0  0
   36.9320   26.9980   40.7000 H   0  0  0  0  0  0  0  0  0  0  0  0
   36.3820   25.9670   41.8820 H   0  0  0  0  0  0  0  0  0  0  0  0
  1  6  1  0  0  0  0
  1  2  1  0  0  0  0
  2  8  1  6  0  0  0
  2 18  1  0  0  0  0
  2  3  1  0  0  0  0
  3  9  1  0  0  0  0
  3 10  1  0  0  0  0
  4  3  1  0  0  0  0
  4 11  1  0  0  0  0
  5 13  1  0  0  0  0
  5  4  1  0  0  0  0
  6 14  1  6  0  0  0
  6 31  1  0  0  0  0
  6  5  1  0  0  0  0
  7  1  1  0  0  0  0
 12  5  1  0  0  0  0
 15 16  1  0  0  0  0
 16 17  2  0  0  0  0
 16 20  1  0  0  0  0
 17 21  1  0  0  0  0
 18 17  1  0  0  0  0
 19 15  2  0  0  0  0
 19 18  1  0  0  0  0
 22 27  2  0  0  0  0
 22 23  1  0  0  0  0
 23 24  2  0  0  0  0
 24 25  1  0  0  0  0
 24 15  1  0  0  0  0
 26 30  1  0  0  0  0
 26 25  2  0  0  0  0
 27 26  1  0  0  0  0
 28 22  1  0  0  0  0
 29 23  1  0  0  0  0
 31 33  1  0  0  0  0
 32 31  1  0  0  0  0
M  END
>  <minimizedAffinity>
-4.68086863

$$$$

 OpenBabel03252508303D

 33 35  0  0  1  0  0  0  0  0999 V2000
   36.0960   30.3310   41.7770 N   0  0  0  0  0  0  0  0  0  0  0  0
   37.4480   29.8040   41.9670 C   0  0  2  0  0  0  0  0  0  0  0  0
   38.3970   30.2720   40.9340 C   0  0  0  0  0  0  0  0  0  0  0  0
   37.8540   31.3040   40.0660 N   0  0  0  0  0  0  0  0  0  0  0  0
   36.5470   31.0640   39.5700 C   0  0  0  0  0  0  0  0  0  0  0  0
   35.7720   30.0560   40.3770 C   0  0  1  0  0  0  0  0  0  0  0  0
   36.0940   31.3620   41.8800 H   0  0  0  0  0  0  0  0  0  0  0  0
   37.7360   30.1360   42.9960 H   0  0  0  0  0  0  0  0  0  0  0  0
   39.2660   30.7860   41.4540 H   0  0  0  0  0  0  0  0  0  0  0  0
   38.8030   29.5650   40.2220 H   0  0  0  0  0  0  0  0  0  0  0  0
   38.5060   31.4900   39.2990 H   0  0  0  0  0  0  0  0  0  0  0  0
   36.0030   32.0310   39.6070 H   0  0  0  0  0  0  0  0  0  0  0  0
   36.5280   30.7910   38.4750 H   0  0  0  0  0  0  0  0  0  0  0  0
   34.6810   30.3480   40.2990 H   0  0  0  0  0  0  0  0  0  0  0  0
   37.6510   26.2430   41.4400 C   0  0  0  0  0  0  0  0  0  0  0  0
   36.8030   26.3780   42.5380 C   0  0  0  0  0  0  0  0  0  0  0  0
   36.6290   27.7140   42.8480 C   0  0  0  0  0  0  0  0  0  0  0  0
   37.3700   28.3610   41.9430 N   0  0  0  0  0  0  0  0  0  0  0  0
   37.9630   27.4990   41.1240 N   0  0  0  0  0  0  0  0  0  0  0  0
   36.3950   25.4620   43.0010 H   0  0  0  0  0  0  0  0  0  0  0  0
   35.9640   27.8250   43.6970 H   0  0  0  0  0  0  0  0  0  0  0  0
   38.0450   22.6110   40.5560 C   0  0  0  0  0  0  0  0  0  0  0  0
   37.5690   23.7590   41.2690 C   0  0  0  0  0  0  0  0  0  0  0  0
   38.0390   24.9710   40.8310 C   0  0  0  0  0  0  0  0  0  0  0  0
   38.9090   25.0310   39.7750 N   0  0  0  0  0  0  0  0  0  0  0  0
   39.3300   23.9170   39.1330 C   0  0  0  0  0  0  0  0  0  0  0  0
   38.8870   22.7330   39.5400 N   0  0  0  0  0  0  0  0  0  0  0  0
   37.6400   21.6810   40.9470 H   0  0  0  0  0  0  0  0  0  0  0  0
   36.8840   23.7120   42.1000 H   0  0  0  0  0  0  0  0  0  0  0  0
   40.0110   24.0690   38.3160 H   0  0  0  0  0  0  0  0  0  0  0  0
   35.8620   28.7160   39.9680 N   0  0  0  0  0  0  0  0  0  0  0  0
   35.0540   28.0920   40.1990 H   0  0  0  0  0  0  0  0  0  0  0  0
   35.9150   28.6860   38.9060 H   0  0  0  0  0  0  0  0  0  0  0  0
  1  7  1  0  0  0  0
  1  2  1  0  0  0  0
  2  8  1  1  0  0  0
  3  9  1  0  0  0  0
  3  2  1  0  0  0  0
  4  3  1  0  0  0  0
  5 12  1  0  0  0  0
  5  4  1  0  0  0  0
  5  6  1  0  0  0  0
  6 14  1  6  0  0  0
  6  1  1  0  0  0  0
 10  3  1  0  0  0  0
 11  4  1  0  0  0  0
 13  5  1  0  0  0  0
 15 16  1  0  0  0  0
 16 17  2  0  0  0  0
 16 20  1  0  0  0  0
 17 21  1  0  0  0  0
 18  2  1  0  0  0  0
 18 17  1  0  0  0  0
 19 15  2  0  0  0  0
 19 18  1  0  0  0  0
 22 28  1  0  0  0  0
 22 23  1  0  0  0  0
 23 29  1  0  0  0  0
 24 23  2  0  0  0  0
 24 15  1  0  0  0  0
 25 24  1  0  0  0  0
 26 27  1  0  0  0  0
 26 25  2  0  0  0  0
 27 22  2  0  0  0  0
 30 26  1  0  0  0  0
 31 32  1  0  0  0  0
 31  6  1  0  0  0  0
 33 31  1  0  0  0  0
M  END
>  <minimizedAffinity>
-4.657866

$$$$
