
 OpenBabel03242518533D

 36 37  0  0  1  0  0  0  0  0999 V2000
   45.8410   31.2880   46.6390 C   0  0  2  0  0  0  0  0  0  0  0  0
   45.7330   30.6120   47.9660 C   0  0  0  0  0  0  0  0  0  0  0  0
   44.9910   29.3400   47.7550 C   0  0  0  0  0  0  0  0  0  0  0  0
   44.5170   29.0840   46.3640 C   0  0  0  0  0  0  0  0  0  0  0  0
   45.6680   29.1860   45.3940 C   0  0  0  0  0  0  0  0  0  0  0  0
   46.5180   30.3340   45.6760 C   0  0  2  0  0  0  0  0  0  0  0  0
   44.8230   31.4190   46.2110 H   0  0  0  0  0  0  0  0  0  0  0  0
   45.2270   31.3200   48.6520 H   0  0  0  0  0  0  0  0  0  0  0  0
   46.7340   30.4130   48.4090 H   0  0  0  0  0  0  0  0  0  0  0  0
   45.4910   28.4270   48.1570 H   0  0  0  0  0  0  0  0  0  0  0  0
   44.0540   29.4130   48.3800 H   0  0  0  0  0  0  0  0  0  0  0  0
   44.1100   28.0490   46.3540 H   0  0  0  0  0  0  0  0  0  0  0  0
   43.6410   29.7210   46.0770 H   0  0  0  0  0  0  0  0  0  0  0  0
   45.2080   29.2790   44.3670 H   0  0  0  0  0  0  0  0  0  0  0  0
   46.1470   28.1770   45.3890 H   0  0  0  0  0  0  0  0  0  0  0  0
   46.7740   30.8890   44.7630 H   0  0  0  0  0  0  0  0  0  0  0  0
   47.7490   29.7600   46.2750 C   0  0  0  0  0  0  0  0  0  0  0  0
   48.0670   30.2640   47.2090 H   0  0  0  0  0  0  0  0  0  0  0  0
   47.4720   28.7210   46.6190 H   0  0  0  0  0  0  0  0  0  0  0  0
   48.8450   29.5710   45.3780 N   0  0  0  0  0  0  0  0  0  0  0  0
   49.4740   28.7860   45.6020 H   0  0  0  0  0  0  0  0  0  0  0  0
   49.4050   30.4580   45.2870 H   0  0  0  0  0  0  0  0  0  0  0  0
   46.4770   32.6190   46.6750 C   0  0  0  0  0  0  0  0  0  0  0  0
   47.3760   32.9210   47.4990 O   0  0  0  0  0  0  0  0  0  0  0  0
   44.6060   35.3430   45.1240 C   0  0  0  0  0  0  0  0  0  0  0  0
   45.1470   35.4450   43.8180 C   0  0  0  0  0  0  0  0  0  0  0  0
   46.1700   34.5530   43.5040 C   0  0  0  0  0  0  0  0  0  0  0  0
   46.5130   33.7090   44.4790 N   0  0  0  0  0  0  0  0  0  0  0  0
   46.0120   33.6090   45.6930 C   0  0  0  0  0  0  0  0  0  0  0  0
   45.0250   34.4580   46.0250 N   0  0  0  0  0  0  0  0  0  0  0  0
   43.8000   36.0490   45.3680 H   0  0  0  0  0  0  0  0  0  0  0  0
   44.7840   36.1770   43.1080 H   0  0  0  0  0  0  0  0  0  0  0  0
   46.7310   34.6440   42.1650 C   0  0  0  0  0  0  0  0  0  0  0  0
   47.4450   33.4940   41.8800 F   0  0  0  0  0  0  0  0  0  0  0  0
   47.5740   35.7090   42.1650 F   0  0  0  0  0  0  0  0  0  0  0  0
   45.7430   34.7330   41.1910 F   0  0  0  0  0  0  0  0  0  0  0  0
  1  7  1  6  0  0  0
  1 23  1  0  0  0  0
  1  2  1  0  0  0  0
  2  9  1  0  0  0  0
  2  8  1  0  0  0  0
  3  2  1  0  0  0  0
  3 10  1  0  0  0  0
  3 11  1  0  0  0  0
  4  3  1  0  0  0  0
  5  6  1  0  0  0  0
  5  4  1  0  0  0  0
  6 16  1  6  0  0  0
  6 17  1  0  0  0  0
  6  1  1  0  0  0  0
 12  4  1  0  0  0  0
 13  4  1  0  0  0  0
 14  5  1  0  0  0  0
 15  5  1  0  0  0  0
 17 19  1  0  0  0  0
 17 18  1  0  0  0  0
 20 21  1  0  0  0  0
 20 17  1  0  0  0  0
 22 20  1  0  0  0  0
 23 24  2  0  0  0  0
 25 31  1  0  0  0  0
 25 30  1  0  0  0  0
 26 25  2  0  0  0  0
 27 26  1  0  0  0  0
 27 28  2  0  0  0  0
 28 29  1  0  0  0  0
 29 30  2  0  0  0  0
 29 23  1  0  0  0  0
 32 26  1  0  0  0  0
 33 27  1  0  0  0  0
 34 33  1  0  0  0  0
 35 33  1  0  0  0  0
 36 33  1  0  0  0  0
M  END
>  <minimizedAffinity>
-5.05145884

>  <minimizedRMSD>
0.468781918

$$$$
