
 OpenBabel03242519443D

 25 26  0  0  1  0  0  0  0  0999 V2000
   36.3470   30.7920   40.0010 C   0  0  2  0  0  0  0  0  0  0  0  0
   37.5630   29.9270   40.1960 C   0  0  1  0  0  0  0  0  0  0  0  0
   38.6120   30.8830   40.4020 O   0  0  0  0  0  0  0  0  0  0  0  0
   38.4040   31.6400   39.2140 C   0  0  0  0  0  0  0  0  0  0  0  0
   36.9690   32.0790   39.4430 C   0  0  2  0  0  0  0  0  0  0  0  0
   35.5880   30.3830   39.3270 H   0  0  0  0  0  0  0  0  0  0  0  0
   37.7850   29.3910   39.2360 H   0  0  0  0  0  0  0  0  0  0  0  0
   38.4520   30.9700   38.3330 H   0  0  0  0  0  0  0  0  0  0  0  0
   39.1120   32.4720   39.1480 H   0  0  0  0  0  0  0  0  0  0  0  0
   36.4770   32.4250   38.5260 H   0  0  0  0  0  0  0  0  0  0  0  0
   37.2190   26.7950   42.0600 C   0  0  0  0  0  0  0  0  0  0  0  0
   37.3310   27.2040   43.4020 C   0  0  0  0  0  0  0  0  0  0  0  0
   37.5220   28.5850   43.6770 C   0  0  0  0  0  0  0  0  0  0  0  0
   37.5870   29.4520   42.6340 N   0  0  0  0  0  0  0  0  0  0  0  0
   37.4730   29.0160   41.3420 C   0  0  0  0  0  0  0  0  0  0  0  0
   37.2930   27.7210   41.0680 N   0  0  0  0  0  0  0  0  0  0  0  0
   37.2860   26.5510   44.2440 H   0  0  0  0  0  0  0  0  0  0  0  0
   37.6150   28.9640   44.6870 H   0  0  0  0  0  0  0  0  0  0  0  0
   37.0300   25.4060   41.8200 N   0  0  0  0  0  0  0  0  0  0  0  0
   37.6350   25.2210   40.9830 H   0  0  0  0  0  0  0  0  0  0  0  0
   36.3600   25.0000   42.5340 H   0  0  0  0  0  0  0  0  0  0  0  0
   35.7320   31.0640   41.2540 O   0  0  0  0  0  0  0  0  0  0  0  0
   34.7700   31.2710   41.1530 H   0  0  0  0  0  0  0  0  0  0  0  0
   36.9890   33.0550   40.4370 O   0  0  0  0  0  0  0  0  0  0  0  0
   36.1220   33.1860   40.8760 H   0  0  0  0  0  0  0  0  0  0  0  0
  1  6  1  6  0  0  0
  1  2  1  0  0  0  0
  1 22  1  0  0  0  0
  2  7  1  6  0  0  0
  2  3  1  0  0  0  0
  2 15  1  0  0  0  0
  4  5  1  0  0  0  0
  4  3  1  0  0  0  0
  5 10  1  6  0  0  0
  5  1  1  0  0  0  0
  5 24  1  0  0  0  0
  8  4  1  0  0  0  0
  9  4  1  0  0  0  0
 11 12  1  0  0  0  0
 12 13  2  0  0  0  0
 12 17  1  0  0  0  0
 13 18  1  0  0  0  0
 14 13  1  0  0  0  0
 15 14  2  0  0  0  0
 16 15  1  0  0  0  0
 16 11  2  0  0  0  0
 19 11  1  0  0  0  0
 19 21  1  0  0  0  0
 20 19  1  0  0  0  0
 23 22  1  0  0  0  0
 24 25  1  0  0  0  0
M  END
>  <minimizedAffinity>
-5.21948147

$$$$

 OpenBabel03242519443D

 25 26  0  0  1  0  0  0  0  0999 V2000
   41.5250   31.9090   37.3500 C   0  0  2  0  0  0  0  0  0  0  0  0
   41.1840   31.8960   38.8160 C   0  0  1  0  0  0  0  0  0  0  0  0
   41.5980   33.1960   39.2560 O   0  0  0  0  0  0  0  0  0  0  0  0
   42.9410   33.1270   38.7910 C   0  0  0  0  0  0  0  0  0  0  0  0
   42.6850   32.9130   37.3100 C   0  0  2  0  0  0  0  0  0  0  0  0
   41.8130   30.9400   36.9300 H   0  0  0  0  0  0  0  0  0  0  0  0
   41.8380   31.1450   39.3330 H   0  0  0  0  0  0  0  0  0  0  0  0
   43.4370   32.2320   39.2160 H   0  0  0  0  0  0  0  0  0  0  0  0
   43.4830   34.0520   39.0130 H   0  0  0  0  0  0  0  0  0  0  0  0
   43.5610   32.5270   36.7760 H   0  0  0  0  0  0  0  0  0  0  0  0
   37.6900   32.7070   39.5460 C   0  0  0  0  0  0  0  0  0  0  0  0
   37.0690   31.4450   39.5920 C   0  0  0  0  0  0  0  0  0  0  0  0
   37.8650   30.2880   39.3760 C   0  0  0  0  0  0  0  0  0  0  0  0
   39.1910   30.4490   39.1350 N   0  0  0  0  0  0  0  0  0  0  0  0
   39.7600   31.6920   39.0980 C   0  0  0  0  0  0  0  0  0  0  0  0
   39.0250   32.7890   39.3000 N   0  0  0  0  0  0  0  0  0  0  0  0
   36.0310   31.2830   39.7780 H   0  0  0  0  0  0  0  0  0  0  0  0
   37.4480   29.2900   39.3990 H   0  0  0  0  0  0  0  0  0  0  0  0
   36.8640   33.8440   39.7650 N   0  0  0  0  0  0  0  0  0  0  0  0
   37.2190   34.5400   39.0650 H   0  0  0  0  0  0  0  0  0  0  0  0
   36.1690   33.6460   40.5410 H   0  0  0  0  0  0  0  0  0  0  0  0
   40.4300   32.4140   36.5960 O   0  0  0  0  0  0  0  0  0  0  0  0
   40.4450   32.0870   35.6630 H   0  0  0  0  0  0  0  0  0  0  0  0
   42.2340   34.1240   36.7890 O   0  0  0  0  0  0  0  0  0  0  0  0
   41.7540   34.0310   35.9380 H   0  0  0  0  0  0  0  0  0  0  0  0
  1  6  1  6  0  0  0
  1  2  1  0  0  0  0
  2 15  1  0  0  0  0
  2  3  1  0  0  0  0
  2  7  1  1  0  0  0
  4  9  1  0  0  0  0
  4  8  1  0  0  0  0
  4  3  1  0  0  0  0
  5 10  1  6  0  0  0
  5  1  1  0  0  0  0
  5  4  1  0  0  0  0
 11 12  1  0  0  0  0
 11 19  1  0  0  0  0
 12 17  1  0  0  0  0
 13 18  1  0  0  0  0
 13 12  2  0  0  0  0
 14 13  1  0  0  0  0
 15 14  2  0  0  0  0
 15 16  1  0  0  0  0
 16 11  2  0  0  0  0
 19 21  1  0  0  0  0
 20 19  1  0  0  0  0
 22  1  1  0  0  0  0
 23 22  1  0  0  0  0
 24  5  1  0  0  0  0
 25 24  1  0  0  0  0
M  END
>  <minimizedAffinity>
-4.95508432

$$$$

 OpenBabel03242519443D

 25 26  0  0  1  0  0  0  0  0999 V2000
   40.3820   30.6920   38.0060 C   0  0  2  0  0  0  0  0  0  0  0  0
   40.1000   31.1140   39.4230 C   0  0  1  0  0  0  0  0  0  0  0  0
   39.6760   32.4760   39.2770 O   0  0  0  0  0  0  0  0  0  0  0  0
   40.8120   32.9450   38.5600 C   0  0  0  0  0  0  0  0  0  0  0  0
   40.7410   32.0310   37.3490 C   0  0  2  0  0  0  0  0  0  0  0  0
   41.1840   29.9560   37.8900 H   0  0  0  0  0  0  0  0  0  0  0  0
   41.0640   31.1250   39.9960 H   0  0  0  0  0  0  0  0  0  0  0  0
   41.7330   32.7260   39.1370 H   0  0  0  0  0  0  0  0  0  0  0  0
   40.7130   34.0070   38.3140 H   0  0  0  0  0  0  0  0  0  0  0  0
   41.6830   31.9900   36.7890 H   0  0  0  0  0  0  0  0  0  0  0  0
   36.8850   30.3090   40.9780 C   0  0  0  0  0  0  0  0  0  0  0  0
   37.0120   28.9440   41.2920 C   0  0  0  0  0  0  0  0  0  0  0  0
   38.2280   28.2830   40.9710 C   0  0  0  0  0  0  0  0  0  0  0  0
   39.2170   28.9970   40.3770 N   0  0  0  0  0  0  0  0  0  0  0  0
   39.0580   30.3250   40.0870 C   0  0  0  0  0  0  0  0  0  0  0  0
   37.9200   30.9600   40.3830 N   0  0  0  0  0  0  0  0  0  0  0  0
   36.2550   28.3530   41.7580 H   0  0  0  0  0  0  0  0  0  0  0  0
   38.3880   27.2340   41.1860 H   0  0  0  0  0  0  0  0  0  0  0  0
   35.6550   30.9400   41.3120 N   0  0  0  0  0  0  0  0  0  0  0  0
   35.4690   31.5610   40.4870 H   0  0  0  0  0  0  0  0  0  0  0  0
   35.3150   30.6000   42.2570 H   0  0  0  0  0  0  0  0  0  0  0  0
   39.2040   30.1670   37.4070 O   0  0  0  0  0  0  0  0  0  0  0  0
   39.4150   29.5430   36.6680 H   0  0  0  0  0  0  0  0  0  0  0  0
   39.6750   32.4660   36.5650 O   0  0  0  0  0  0  0  0  0  0  0  0
   39.3460   31.7870   35.9380 H   0  0  0  0  0  0  0  0  0  0  0  0
  1  6  1  6  0  0  0
  1  2  1  0  0  0  0
  2  7  1  1  0  0  0
  2 15  1  0  0  0  0
  3  2  1  0  0  0  0
  4  8  1  0  0  0  0
  4  3  1  0  0  0  0
  5 10  1  6  0  0  0
  5  1  1  0  0  0  0
  5  4  1  0  0  0  0
  9  4  1  0  0  0  0
 11 12  1  0  0  0  0
 11 19  1  0  0  0  0
 12 17  1  0  0  0  0
 13 18  1  0  0  0  0
 13 12  2  0  0  0  0
 14 13  1  0  0  0  0
 15 14  2  0  0  0  0
 15 16  1  0  0  0  0
 16 11  2  0  0  0  0
 19 21  1  0  0  0  0
 20 19  1  0  0  0  0
 22  1  1  0  0  0  0
 23 22  1  0  0  0  0
 24  5  1  0  0  0  0
 25 24  1  0  0  0  0
M  END
>  <minimizedAffinity>
-4.73768806

$$$$

 OpenBabel03242519443D

 25 26  0  0  1  0  0  0  0  0999 V2000
   38.2970   29.0540   43.0020 C   0  0  2  0  0  0  0  0  0  0  0  0
   38.8920   29.3040   41.6420 C   0  0  1  0  0  0  0  0  0  0  0  0
   38.5590   28.1120   40.9180 O   0  0  0  0  0  0  0  0  0  0  0  0
   39.1260   27.1800   41.8320 C   0  0  0  0  0  0  0  0  0  0  0  0
   38.3200   27.5210   43.0730 C   0  0  2  0  0  0  0  0  0  0  0  0
   38.8390   29.5070   43.8380 H   0  0  0  0  0  0  0  0  0  0  0  0
   40.0090   29.3360   41.7360 H   0  0  0  0  0  0  0  0  0  0  0  0
   40.1930   27.4260   42.0020 H   0  0  0  0  0  0  0  0  0  0  0  0
   38.9820   26.1510   41.4860 H   0  0  0  0  0  0  0  0  0  0  0  0
   38.7780   27.1460   43.9970 H   0  0  0  0  0  0  0  0  0  0  0  0
   38.3690   32.8250   40.7860 C   0  0  0  0  0  0  0  0  0  0  0  0
   37.4430   32.7650   39.7290 C   0  0  0  0  0  0  0  0  0  0  0  0
   36.9790   31.4920   39.3030 C   0  0  0  0  0  0  0  0  0  0  0  0
   37.4490   30.3860   39.9340 N   0  0  0  0  0  0  0  0  0  0  0  0
   38.3500   30.4830   40.9590 C   0  0  0  0  0  0  0  0  0  0  0  0
   38.7950   31.6740   41.3710 N   0  0  0  0  0  0  0  0  0  0  0  0
   37.0540   33.6130   39.2110 H   0  0  0  0  0  0  0  0  0  0  0  0
   36.2660   31.3780   38.4960 H   0  0  0  0  0  0  0  0  0  0  0  0
   38.8140   34.1150   41.1860 N   0  0  0  0  0  0  0  0  0  0  0  0
   39.8370   33.9740   41.3660 H   0  0  0  0  0  0  0  0  0  0  0  0
   38.0030   34.7980   41.1800 H   0  0  0  0  0  0  0  0  0  0  0  0
   36.9520   29.5130   43.0410 O   0  0  0  0  0  0  0  0  0  0  0  0
   36.6650   29.7310   43.9620 H   0  0  0  0  0  0  0  0  0  0  0  0
   37.0320   27.0270   42.8790 O   0  0  0  0  0  0  0  0  0  0  0  0
   36.3600   27.4460   43.4580 H   0  0  0  0  0  0  0  0  0  0  0  0
  1 22  1  0  0  0  0
  1  5  1  0  0  0  0
  1  6  1  1  0  0  0
  2  7  1  1  0  0  0
  2  1  1  0  0  0  0
  3  2  1  0  0  0  0
  3  4  1  0  0  0  0
  4  8  1  0  0  0  0
  4  5  1  0  0  0  0
  5 10  1  1  0  0  0
  9  4  1  0  0  0  0
 11 19  1  0  0  0  0
 11 16  1  0  0  0  0
 12 11  2  0  0  0  0
 13 12  1  0  0  0  0
 13 14  2  0  0  0  0
 14 15  1  0  0  0  0
 15 16  2  0  0  0  0
 15  2  1  0  0  0  0
 17 12  1  0  0  0  0
 18 13  1  0  0  0  0
 19 20  1  0  0  0  0
 21 19  1  0  0  0  0
 22 23  1  0  0  0  0
 24  5  1  0  0  0  0
 24 25  1  0  0  0  0
M  END
>  <minimizedAffinity>
-4.72395325

$$$$

 OpenBabel03242519443D

 25 26  0  0  1  0  0  0  0  0999 V2000
   36.3090   28.1800   41.3300 C   0  0  2  0  0  0  0  0  0  0  0  0
   37.7440   28.0520   40.8940 C   0  0  1  0  0  0  0  0  0  0  0  0
   38.1490   29.4150   40.7100 O   0  0  0  0  0  0  0  0  0  0  0  0
   37.1150   29.7910   39.8070 C   0  0  0  0  0  0  0  0  0  0  0  0
   35.9040   29.5080   40.6780 C   0  0  2  0  0  0  0  0  0  0  0  0
   35.6530   27.3600   41.0200 H   0  0  0  0  0  0  0  0  0  0  0  0
   37.7740   27.5560   39.8890 H   0  0  0  0  0  0  0  0  0  0  0  0
   37.1130   29.1070   38.9350 H   0  0  0  0  0  0  0  0  0  0  0  0
   37.2090   30.8430   39.5160 H   0  0  0  0  0  0  0  0  0  0  0  0
   34.9720   29.4330   40.1050 H   0  0  0  0  0  0  0  0  0  0  0  0
   39.2800   25.3580   42.8390 C   0  0  0  0  0  0  0  0  0  0  0  0
   40.2130   26.0340   43.6460 C   0  0  0  0  0  0  0  0  0  0  0  0
   40.3150   27.4460   43.5290 C   0  0  0  0  0  0  0  0  0  0  0  0
   39.5070   28.0840   42.6440 N   0  0  0  0  0  0  0  0  0  0  0  0
   38.6110   27.3920   41.8750 C   0  0  0  0  0  0  0  0  0  0  0  0
   38.5040   26.0640   41.9750 N   0  0  0  0  0  0  0  0  0  0  0  0
   40.8630   25.5650   44.3500 H   0  0  0  0  0  0  0  0  0  0  0  0
   41.0120   28.0250   44.1210 H   0  0  0  0  0  0  0  0  0  0  0  0
   39.2050   23.9450   42.9810 N   0  0  0  0  0  0  0  0  0  0  0  0
   39.0910   23.6080   41.9940 H   0  0  0  0  0  0  0  0  0  0  0  0
   39.2840   23.6760   44.0030 H   0  0  0  0  0  0  0  0  0  0  0  0
   36.2340   28.3000   42.7450 O   0  0  0  0  0  0  0  0  0  0  0  0
   35.3590   27.9970   43.0940 H   0  0  0  0  0  0  0  0  0  0  0  0
   35.8510   30.5060   41.6490 O   0  0  0  0  0  0  0  0  0  0  0  0
   35.3130   30.2630   42.4330 H   0  0  0  0  0  0  0  0  0  0  0  0
  1  6  1  6  0  0  0
  1 22  1  0  0  0  0
  2  7  1  6  0  0  0
  2  1  1  0  0  0  0
  2 15  1  0  0  0  0
  3  2  1  0  0  0  0
  4  5  1  0  0  0  0
  4  3  1  0  0  0  0
  5 10  1  6  0  0  0
  5  1  1  0  0  0  0
  5 24  1  0  0  0  0
  8  4  1  0  0  0  0
  9  4  1  0  0  0  0
 11 19  1  0  0  0  0
 11 12  1  0  0  0  0
 12 17  1  0  0  0  0
 13 12  2  0  0  0  0
 13 18  1  0  0  0  0
 14 13  1  0  0  0  0
 15 16  1  0  0  0  0
 15 14  2  0  0  0  0
 16 11  2  0  0  0  0
 19 21  1  0  0  0  0
 20 19  1  0  0  0  0
 22 23  1  0  0  0  0
 24 25  1  0  0  0  0
M  END
>  <minimizedAffinity>
-4.72194052

$$$$

 OpenBabel03242519443D

 25 26  0  0  1  0  0  0  0  0999 V2000
   38.3100   28.2650   42.7110 C   0  0  2  0  0  0  0  0  0  0  0  0
   38.3160   28.7360   41.2810 C   0  0  1  0  0  0  0  0  0  0  0  0
   36.9600   28.5240   40.8650 O   0  0  0  0  0  0  0  0  0  0  0  0
   36.8780   27.1450   41.2070 C   0  0  0  0  0  0  0  0  0  0  0  0
   37.1730   27.2360   42.6940 C   0  0  2  0  0  0  0  0  0  0  0  0
   39.2500   27.8260   43.0600 H   0  0  0  0  0  0  0  0  0  0  0  0
   38.9620   28.0480   40.6760 H   0  0  0  0  0  0  0  0  0  0  0  0
   37.6900   26.5860   40.7010 H   0  0  0  0  0  0  0  0  0  0  0  0
   35.8860   26.7410   40.9810 H   0  0  0  0  0  0  0  0  0  0  0  0
   37.4650   26.2740   43.1320 H   0  0  0  0  0  0  0  0  0  0  0  0
   37.9600   32.3010   40.5280 C   0  0  0  0  0  0  0  0  0  0  0  0
   39.2380   32.8190   40.8090 C   0  0  0  0  0  0  0  0  0  0  0  0
   40.2480   31.9270   41.2600 C   0  0  0  0  0  0  0  0  0  0  0  0
   39.9380   30.6130   41.3990 N   0  0  0  0  0  0  0  0  0  0  0  0
   38.6840   30.1460   41.1160 C   0  0  0  0  0  0  0  0  0  0  0  0
   37.7240   30.9720   40.6910 N   0  0  0  0  0  0  0  0  0  0  0  0
   39.5150   33.8440   40.7110 H   0  0  0  0  0  0  0  0  0  0  0  0
   41.2500   32.2630   41.4930 H   0  0  0  0  0  0  0  0  0  0  0  0
   36.9720   33.2210   40.0800 N   0  0  0  0  0  0  0  0  0  0  0  0
   36.1050   32.9070   40.5790 H   0  0  0  0  0  0  0  0  0  0  0  0
   37.4010   33.9150   39.4030 H   0  0  0  0  0  0  0  0  0  0  0  0
   37.9700   29.3390   43.5790 O   0  0  0  0  0  0  0  0  0  0  0  0
   38.3250   29.1990   44.4920 H   0  0  0  0  0  0  0  0  0  0  0  0
   36.0450   27.7790   43.3060 O   0  0  0  0  0  0  0  0  0  0  0  0
   36.2250   28.1630   44.1910 H   0  0  0  0  0  0  0  0  0  0  0  0
  1  6  1  1  0  0  0
  1 22  1  0  0  0  0
  2  7  1  6  0  0  0
  2  1  1  0  0  0  0
  3  4  1  0  0  0  0
  3  2  1  0  0  0  0
  4  5  1  0  0  0  0
  5  1  1  0  0  0  0
  5 10  1  1  0  0  0
  5 24  1  0  0  0  0
  8  4  1  0  0  0  0
  9  4  1  0  0  0  0
 11 16  2  0  0  0  0
 11 12  1  0  0  0  0
 12 13  2  0  0  0  0
 13 14  1  0  0  0  0
 13 18  1  0  0  0  0
 15  2  1  0  0  0  0
 15 14  2  0  0  0  0
 16 15  1  0  0  0  0
 17 12  1  0  0  0  0
 19 11  1  0  0  0  0
 19 20  1  0  0  0  0
 21 19  1  0  0  0  0
 22 23  1  0  0  0  0
 24 25  1  0  0  0  0
M  END
>  <minimizedAffinity>
-4.69022131

$$$$

 OpenBabel03242519443D

 25 26  0  0  1  0  0  0  0  0999 V2000
   38.1720   32.9890   39.5290 C   0  0  2  0  0  0  0  0  0  0  0  0
   38.4720   31.5320   39.7590 C   0  0  1  0  0  0  0  0  0  0  0  0
   39.0780   31.5280   41.0590 O   0  0  0  0  0  0  0  0  0  0  0  0
   40.1020   32.4780   40.7850 C   0  0  0  0  0  0  0  0  0  0  0  0
   39.2450   33.6670   40.3910 C   0  0  2  0  0  0  0  0  0  0  0  0
   38.2230   33.3150   38.4860 H   0  0  0  0  0  0  0  0  0  0  0  0
   39.2540   31.2030   39.0260 H   0  0  0  0  0  0  0  0  0  0  0  0
   40.6970   32.1430   39.9120 H   0  0  0  0  0  0  0  0  0  0  0  0
   40.7210   32.6570   41.6710 H   0  0  0  0  0  0  0  0  0  0  0  0
   39.8040   34.4350   39.8440 H   0  0  0  0  0  0  0  0  0  0  0  0
   35.6820   29.5670   38.4340 C   0  0  0  0  0  0  0  0  0  0  0  0
   35.0950   29.0200   39.5890 C   0  0  0  0  0  0  0  0  0  0  0  0
   35.6610   29.3370   40.8540 C   0  0  0  0  0  0  0  0  0  0  0  0
   36.7440   30.1530   40.8930 N   0  0  0  0  0  0  0  0  0  0  0  0
   37.2880   30.6670   39.7480 C   0  0  0  0  0  0  0  0  0  0  0  0
   36.7660   30.3790   38.5520 N   0  0  0  0  0  0  0  0  0  0  0  0
   34.2450   28.3750   39.5940 H   0  0  0  0  0  0  0  0  0  0  0  0
   35.2570   28.9480   41.7790 H   0  0  0  0  0  0  0  0  0  0  0  0
   35.0910   29.2300   37.1850 N   0  0  0  0  0  0  0  0  0  0  0  0
   35.9180   29.0820   36.5570 H   0  0  0  0  0  0  0  0  0  0  0  0
   34.0340   29.2310   37.2690 H   0  0  0  0  0  0  0  0  0  0  0  0
   36.8810   33.3090   40.0330 O   0  0  0  0  0  0  0  0  0  0  0  0
   36.4940   34.0970   39.5770 H   0  0  0  0  0  0  0  0  0  0  0  0
   38.6620   34.1610   41.5560 O   0  0  0  0  0  0  0  0  0  0  0  0
   37.8690   34.7150   41.3940 H   0  0  0  0  0  0  0  0  0  0  0  0
  1  6  1  6  0  0  0
  1  2  1  0  0  0  0
  1 22  1  0  0  0  0
  1  5  1  0  0  0  0
  2  7  1  6  0  0  0
  2  3  1  0  0  0  0
  4  3  1  0  0  0  0
  4  9  1  0  0  0  0
  5 10  1  6  0  0  0
  5  4  1  0  0  0  0
  5 24  1  0  0  0  0
  8  4  1  0  0  0  0
 11 16  2  0  0  0  0
 11 12  1  0  0  0  0
 12 17  1  0  0  0  0
 12 13  2  0  0  0  0
 13 14  1  0  0  0  0
 13 18  1  0  0  0  0
 15  2  1  0  0  0  0
 15 14  2  0  0  0  0
 16 15  1  0  0  0  0
 19 21  1  0  0  0  0
 19 11  1  0  0  0  0
 20 19  1  0  0  0  0
 23 22  1  0  0  0  0
 25 24  1  0  0  0  0
M  END
>  <minimizedAffinity>
-4.586555

$$$$

 OpenBabel03242519443D

 25 26  0  0  1  0  0  0  0  0999 V2000
   37.2750   27.7460   41.3010 C   0  0  2  0  0  0  0  0  0  0  0  0
   36.9290   28.9820   42.0880 C   0  0  1  0  0  0  0  0  0  0  0  0
   37.2830   28.6210   43.4290 O   0  0  0  0  0  0  0  0  0  0  0  0
   36.5070   27.4310   43.5090 C   0  0  0  0  0  0  0  0  0  0  0  0
   37.1240   26.6500   42.3630 C   0  0  2  0  0  0  0  0  0  0  0  0
   36.6410   27.5570   40.4290 H   0  0  0  0  0  0  0  0  0  0  0  0
   35.8170   29.1270   42.0640 H   0  0  0  0  0  0  0  0  0  0  0  0
   35.4480   27.6600   43.2750 H   0  0  0  0  0  0  0  0  0  0  0  0
   36.6260   26.9470   44.4840 H   0  0  0  0  0  0  0  0  0  0  0  0
   36.4960   25.8160   42.0260 H   0  0  0  0  0  0  0  0  0  0  0  0
   37.5630   32.2490   40.5620 C   0  0  0  0  0  0  0  0  0  0  0  0
   38.9130   32.4930   40.8730 C   0  0  0  0  0  0  0  0  0  0  0  0
   39.6270   31.5150   41.6160 C   0  0  0  0  0  0  0  0  0  0  0  0
   38.9760   30.3850   41.9940 N   0  0  0  0  0  0  0  0  0  0  0  0
   37.6620   30.1820   41.6720 C   0  0  0  0  0  0  0  0  0  0  0  0
   36.9780   31.0920   40.9740 N   0  0  0  0  0  0  0  0  0  0  0  0
   39.4540   33.3690   40.5940 H   0  0  0  0  0  0  0  0  0  0  0  0
   40.6670   31.6430   41.8870 H   0  0  0  0  0  0  0  0  0  0  0  0
   36.8780   33.2490   39.8180 N   0  0  0  0  0  0  0  0  0  0  0  0
   35.9310   33.2800   40.2680 H   0  0  0  0  0  0  0  0  0  0  0  0
   37.5120   33.6410   39.0640 H   0  0  0  0  0  0  0  0  0  0  0  0
   38.6270   27.8050   40.8640 O   0  0  0  0  0  0  0  0  0  0  0  0
   38.7770   27.2540   40.0570 H   0  0  0  0  0  0  0  0  0  0  0  0
   38.3850   26.2300   42.7810 O   0  0  0  0  0  0  0  0  0  0  0  0
   38.9850   25.9930   42.0410 H   0  0  0  0  0  0  0  0  0  0  0  0
  1  6  1  6  0  0  0
  1  2  1  0  0  0  0
  1  5  1  0  0  0  0
  2  7  1  6  0  0  0
  2  3  1  0  0  0  0
  3  4  1  0  0  0  0
  4  9  1  0  0  0  0
  5 10  1  6  0  0  0
  5 24  1  0  0  0  0
  5  4  1  0  0  0  0
  8  4  1  0  0  0  0
 11 12  2  0  0  0  0
 11 16  1  0  0  0  0
 12 13  1  0  0  0  0
 13 18  1  0  0  0  0
 13 14  2  0  0  0  0
 15 14  1  0  0  0  0
 15  2  1  0  0  0  0
 16 15  2  0  0  0  0
 17 12  1  0  0  0  0
 19 20  1  0  0  0  0
 19 11  1  0  0  0  0
 21 19  1  0  0  0  0
 22  1  1  0  0  0  0
 23 22  1  0  0  0  0
 25 24  1  0  0  0  0
M  END
>  <minimizedAffinity>
-4.5532546

$$$$

 OpenBabel03242519443D

 25 26  0  0  1  0  0  0  0  0999 V2000
   40.1680   30.8670   38.3810 C   0  0  2  0  0  0  0  0  0  0  0  0
   39.5710   31.5380   39.5890 C   0  0  1  0  0  0  0  0  0  0  0  0
   39.3650   32.8850   39.1430 O   0  0  0  0  0  0  0  0  0  0  0  0
   40.6980   33.1410   38.7160 C   0  0  0  0  0  0  0  0  0  0  0  0
   40.8440   32.0480   37.6730 C   0  0  2  0  0  0  0  0  0  0  0  0
   40.8790   30.0630   38.5980 H   0  0  0  0  0  0  0  0  0  0  0  0
   40.3420   31.5710   40.4030 H   0  0  0  0  0  0  0  0  0  0  0  0
   41.4000   32.9530   39.5530 H   0  0  0  0  0  0  0  0  0  0  0  0
   40.7930   34.1530   38.3070 H   0  0  0  0  0  0  0  0  0  0  0  0
   41.8890   31.8440   37.4110 H   0  0  0  0  0  0  0  0  0  0  0  0
   37.1630   29.8450   41.7660 C   0  0  0  0  0  0  0  0  0  0  0  0
   35.9800   29.8540   41.0060 C   0  0  0  0  0  0  0  0  0  0  0  0
   36.0060   30.4460   39.7140 C   0  0  0  0  0  0  0  0  0  0  0  0
   37.1730   30.9770   39.2680 N   0  0  0  0  0  0  0  0  0  0  0  0
   38.3040   30.9500   40.0360 C   0  0  0  0  0  0  0  0  0  0  0  0
   38.2950   30.3970   41.2520 N   0  0  0  0  0  0  0  0  0  0  0  0
   35.0470   29.4470   41.3250 H   0  0  0  0  0  0  0  0  0  0  0  0
   35.1300   30.4840   39.0800 H   0  0  0  0  0  0  0  0  0  0  0  0
   37.1010   29.2470   43.0550 N   0  0  0  0  0  0  0  0  0  0  0  0
   37.6790   29.8900   43.6490 H   0  0  0  0  0  0  0  0  0  0  0  0
   36.5120   28.3660   43.0200 H   0  0  0  0  0  0  0  0  0  0  0  0
   39.1390   30.3400   37.5540 O   0  0  0  0  0  0  0  0  0  0  0  0
   39.4620   29.5880   36.9980 H   0  0  0  0  0  0  0  0  0  0  0  0
   40.0830   32.4260   36.5690 O   0  0  0  0  0  0  0  0  0  0  0  0
   39.8550   31.6790   35.9750 H   0  0  0  0  0  0  0  0  0  0  0  0
  1  6  1  1  0  0  0
  1  2  1  0  0  0  0
  2 15  1  0  0  0  0
  2  7  1  1  0  0  0
  3  2  1  0  0  0  0
  4  3  1  0  0  0  0
  4  8  1  0  0  0  0
  5 10  1  6  0  0  0
  5  1  1  0  0  0  0
  5  4  1  0  0  0  0
  9  4  1  0  0  0  0
 11 19  1  0  0  0  0
 12 17  1  0  0  0  0
 12 11  2  0  0  0  0
 13 12  1  0  0  0  0
 14 13  2  0  0  0  0
 14 15  1  0  0  0  0
 15 16  2  0  0  0  0
 16 11  1  0  0  0  0
 18 13  1  0  0  0  0
 19 20  1  0  0  0  0
 21 19  1  0  0  0  0
 22  1  1  0  0  0  0
 23 22  1  0  0  0  0
 24  5  1  0  0  0  0
 25 24  1  0  0  0  0
M  END
>  <minimizedAffinity>
-4.50436974

$$$$
