
 OpenBabel03252508423D

 25 26  0  0  0  0  0  0  0  0999 V2000
   46.3670   34.3870   41.5120 C   0  0  0  0  0  0  0  0  0  0  0  0
   47.6760   34.7440   41.2810 C   0  0  0  0  0  0  0  0  0  0  0  0
   48.2790   34.4680   40.0720 C   0  0  0  0  0  0  0  0  0  0  0  0
   47.5470   33.8320   39.1110 C   0  0  0  0  0  0  0  0  0  0  0  0
   46.2310   33.4520   39.2900 C   0  0  0  0  0  0  0  0  0  0  0  0
   45.6800   33.7580   40.5310 C   0  0  0  0  0  0  0  0  0  0  0  0
   49.3090   34.7570   39.9180 H   0  0  0  0  0  0  0  0  0  0  0  0
   48.0680   33.6370   38.1750 H   0  0  0  0  0  0  0  0  0  0  0  0
   45.6790   32.9540   38.5210 H   0  0  0  0  0  0  0  0  0  0  0  0
   44.6490   33.4740   40.7090 H   0  0  0  0  0  0  0  0  0  0  0  0
   44.6150   36.1230   44.3750 C   0  0  0  0  0  0  0  0  0  0  0  0
   45.1130   35.9000   43.0730 C   0  0  0  0  0  0  0  0  0  0  0  0
   45.8160   34.7240   42.8080 C   0  0  0  0  0  0  0  0  0  0  0  0
   45.9740   33.8620   43.8320 N   0  0  0  0  0  0  0  0  0  0  0  0
   45.4920   34.0890   45.0770 C   0  0  0  0  0  0  0  0  0  0  0  0
   44.8120   35.2190   45.3510 N   0  0  0  0  0  0  0  0  0  0  0  0
   44.0810   37.0420   44.5240 H   0  0  0  0  0  0  0  0  0  0  0  0
   45.0070   36.5580   42.2490 H   0  0  0  0  0  0  0  0  0  0  0  0
   45.6910   33.3050   45.8130 H   0  0  0  0  0  0  0  0  0  0  0  0
   48.4700   35.4460   42.3550 C   0  0  0  0  0  0  0  0  0  0  0  0
   49.2200   36.0920   41.8570 H   0  0  0  0  0  0  0  0  0  0  0  0
   47.7370   36.0360   42.9270 H   0  0  0  0  0  0  0  0  0  0  0  0
   49.1620   34.4670   43.1090 N   0  0  0  0  0  0  0  0  0  0  0  0
   48.6520   33.9050   43.7840 H   0  0  0  0  0  0  0  0  0  0  0  0
   50.0220   34.1180   42.7050 H   0  0  0  0  0  0  0  0  0  0  0  0
  1 13  1  0  0  0  0
  2  1  1  0  0  0  0
  2 20  1  0  0  0  0
  3  2  2  0  0  0  0
  4  5  2  0  0  0  0
  4  3  1  0  0  0  0
  5  6  1  0  0  0  0
  6 10  1  0  0  0  0
  6  1  2  0  0  0  0
  7  3  1  0  0  0  0
  8  4  1  0  0  0  0
  9  5  1  0  0  0  0
 11 17  1  0  0  0  0
 11 16  1  0  0  0  0
 12 11  2  0  0  0  0
 13 12  1  0  0  0  0
 13 14  2  0  0  0  0
 14 15  1  0  0  0  0
 15 16  2  0  0  0  0
 15 19  1  0  0  0  0
 18 12  1  0  0  0  0
 20 22  1  0  0  0  0
 20 23  1  0  0  0  0
 21 20  1  0  0  0  0
 23 24  1  0  0  0  0
 25 23  1  0  0  0  0
M  END
>  <minimizedAffinity>
-4.76274395

>  <minimizedRMSD>
0.272390336

$$$$
