
 OpenBabel03242514403D

 36 38  0  0  0  0  0  0  0  0999 V2000
   36.5610   30.2020   41.1980 C   0  0  0  0  0  0  0  0  0  0  0  0
   35.4850   29.5780   40.8360 O   0  0  0  0  0  0  0  0  0  0  0  0
   37.3880   29.1920   41.8980 C   0  0  0  0  0  0  0  0  0  0  0  0
   36.9910   28.3890   42.9870 C   0  0  0  0  0  0  0  0  0  0  0  0
   37.9650   27.5390   43.4370 C   0  0  0  0  0  0  0  0  0  0  0  0
   39.1800   27.4830   42.8870 C   0  0  0  0  0  0  0  0  0  0  0  0
   39.0500   28.7800   41.5180 S   0  0  0  0  0  0  0  0  0  0  0  0
   36.0060   28.4400   43.4280 H   0  0  0  0  0  0  0  0  0  0  0  0
   37.8530   26.8470   44.2600 H   0  0  0  0  0  0  0  0  0  0  0  0
   40.4130   26.7620   43.0630 C   0  0  0  0  0  0  0  0  0  0  0  0
   40.7630   25.7330   42.2380 C   0  0  0  0  0  0  0  0  0  0  0  0
   41.9900   25.1520   42.5570 C   0  0  0  0  0  0  0  0  0  0  0  0
   42.7420   25.6020   43.6070 C   0  0  0  0  0  0  0  0  0  0  0  0
   42.3460   26.6420   44.4080 C   0  0  0  0  0  0  0  0  0  0  0  0
   41.1470   27.2070   44.0940 N   0  0  0  0  0  0  0  0  0  0  0  0
   40.1520   25.3990   41.4190 H   0  0  0  0  0  0  0  0  0  0  0  0
   42.3590   24.3240   41.9600 H   0  0  0  0  0  0  0  0  0  0  0  0
   43.6940   25.1460   43.8490 H   0  0  0  0  0  0  0  0  0  0  0  0
   42.9320   27.0080   45.2430 H   0  0  0  0  0  0  0  0  0  0  0  0
   36.5280   31.4790   40.8190 O   0  0  0  0  0  0  0  0  0  0  0  0
   37.0170   33.6460   39.5060 O   0  0  0  0  0  0  0  0  0  0  0  0
   37.4310   32.2050   39.6140 P   0  0  2  0  0  0  0  0  0  0  0  0
   37.0850   31.4660   38.1690 O   0  0  0  0  0  0  0  0  0  0  0  0
   36.1200   31.4140   38.0660 H   0  0  0  0  0  0  0  0  0  0  0  0
   39.1110   32.0840   40.0140 O   0  0  0  0  0  0  0  0  0  0  0  0
   40.4390   32.0890   38.0430 C   0  0  0  0  0  0  0  0  0  0  0  0
   40.0690   32.6980   39.2250 C   0  0  0  0  0  0  0  0  0  0  0  0
   40.6900   33.9080   39.5570 C   0  0  0  0  0  0  0  0  0  0  0  0
   41.6160   34.4210   38.7100 N   0  0  0  0  0  0  0  0  0  0  0  0
   41.9490   33.7970   37.5680 C   0  0  0  0  0  0  0  0  0  0  0  0
   41.3680   32.6430   37.2350 N   0  0  0  0  0  0  0  0  0  0  0  0
   40.0460   31.1630   37.6690 H   0  0  0  0  0  0  0  0  0  0  0  0
   40.4040   34.3840   40.4770 H   0  0  0  0  0  0  0  0  0  0  0  0
   42.9310   34.3700   36.7010 N   0  0  0  0  0  0  0  0  0  0  0  0
   42.9290   35.2870   36.1900 H   0  0  0  0  0  0  0  0  0  0  0  0
   43.7160   33.7080   36.6340 H   0  0  0  0  0  0  0  0  0  0  0  0
  1  3  1  0  0  0  0
  2  1  2  0  0  0  0
  3  4  2  0  0  0  0
  4  8  1  0  0  0  0
  4  5  1  0  0  0  0
  5  9  1  0  0  0  0
  6 10  1  0  0  0  0
  6  5  2  0  0  0  0
  7  3  1  0  0  0  0
  7  6  1  0  0  0  0
 10 15  1  0  0  0  0
 11 12  1  0  0  0  0
 11 10  2  0  0  0  0
 12 13  2  0  0  0  0
 13 18  1  0  0  0  0
 13 14  1  0  0  0  0
 14 19  1  0  0  0  0
 15 14  2  0  0  0  0
 16 11  1  0  0  0  0
 17 12  1  0  0  0  0
 20  1  1  0  0  0  0
 22 21  2  6  0  0  0
 22 25  1  0  0  0  0
 22 20  1  0  0  0  0
 23 22  1  0  0  0  0
 24 23  1  0  0  0  0
 26 27  1  0  0  0  0
 27 28  2  0  0  0  0
 27 25  1  0  0  0  0
 28 33  1  0  0  0  0
 29 28  1  0  0  0  0
 30 29  2  0  0  0  0
 31 30  1  0  0  0  0
 31 26  2  0  0  0  0
 32 26  1  0  0  0  0
 34 30  1  0  0  0  0
 35 34  1  0  0  0  0
 36 34  1  0  0  0  0
M  END
>  <minimizedAffinity>
-6.34842968

$$$$

 OpenBabel03242514403D

 36 38  0  0  0  0  0  0  0  0999 V2000
   37.5440   32.5850   40.1840 C   0  0  0  0  0  0  0  0  0  0  0  0
   37.1930   32.6770   38.9400 O   0  0  0  0  0  0  0  0  0  0  0  0
   38.7730   33.4010   40.3100 C   0  0  0  0  0  0  0  0  0  0  0  0
   38.8790   34.7950   40.1250 C   0  0  0  0  0  0  0  0  0  0  0  0
   40.1440   35.2870   40.3060 C   0  0  0  0  0  0  0  0  0  0  0  0
   41.1780   34.5090   40.6280 C   0  0  0  0  0  0  0  0  0  0  0  0
   40.3700   32.8030   40.7170 S   0  0  0  0  0  0  0  0  0  0  0  0
   38.0360   35.4200   39.8650 H   0  0  0  0  0  0  0  0  0  0  0  0
   40.4250   36.3270   40.2080 H   0  0  0  0  0  0  0  0  0  0  0  0
   42.5870   34.6390   40.8910 C   0  0  0  0  0  0  0  0  0  0  0  0
   43.0500   35.2980   41.9930 C   0  0  0  0  0  0  0  0  0  0  0  0
   44.4410   35.3240   42.0850 C   0  0  0  0  0  0  0  0  0  0  0  0
   45.2320   34.7320   41.1390 C   0  0  0  0  0  0  0  0  0  0  0  0
   44.7170   34.0800   40.0480 C   0  0  0  0  0  0  0  0  0  0  0  0
   43.3580   34.0570   39.9610 N   0  0  0  0  0  0  0  0  0  0  0  0
   42.4060   35.7550   42.7210 H   0  0  0  0  0  0  0  0  0  0  0  0
   44.9110   35.8250   42.9270 H   0  0  0  0  0  0  0  0  0  0  0  0
   46.3120   34.7560   41.2170 H   0  0  0  0  0  0  0  0  0  0  0  0
   45.3320   33.6070   39.2910 H   0  0  0  0  0  0  0  0  0  0  0  0
   36.6980   31.8150   40.8680 O   0  0  0  0  0  0  0  0  0  0  0  0
   37.3430   29.6120   39.6890 O   0  0  0  0  0  0  0  0  0  0  0  0
   36.6560   30.1450   40.9150 P   0  0  2  0  0  0  0  0  0  0  0  0
   35.0740   29.6470   40.8690 O   0  0  0  0  0  0  0  0  0  0  0  0
   34.6220   30.1080   40.1420 H   0  0  0  0  0  0  0  0  0  0  0  0
   37.4620   29.5980   42.3470 O   0  0  0  0  0  0  0  0  0  0  0  0
   36.9790   27.2820   42.1190 C   0  0  0  0  0  0  0  0  0  0  0  0
   37.8670   28.2790   42.4680 C   0  0  0  0  0  0  0  0  0  0  0  0
   39.1330   27.8940   42.9260 C   0  0  0  0  0  0  0  0  0  0  0  0
   39.4250   26.5730   43.0050 N   0  0  0  0  0  0  0  0  0  0  0  0
   38.5330   25.6320   42.6560 C   0  0  0  0  0  0  0  0  0  0  0  0
   37.3220   25.9800   42.2170 N   0  0  0  0  0  0  0  0  0  0  0  0
   35.9820   27.4350   41.7550 H   0  0  0  0  0  0  0  0  0  0  0  0
   39.8270   28.6690   43.1980 H   0  0  0  0  0  0  0  0  0  0  0  0
   38.8780   24.2480   42.7530 N   0  0  0  0  0  0  0  0  0  0  0  0
   39.6310   23.7030   42.2650 H   0  0  0  0  0  0  0  0  0  0  0  0
   38.2350   23.8100   43.4270 H   0  0  0  0  0  0  0  0  0  0  0  0
  1  3  1  0  0  0  0
  1 20  1  0  0  0  0
  2  1  2  0  0  0  0
  3  7  1  0  0  0  0
  4  5  1  0  0  0  0
  4  3  2  0  0  0  0
  5  6  2  0  0  0  0
  6  7  1  0  0  0  0
  6 10  1  0  0  0  0
  8  4  1  0  0  0  0
  9  5  1  0  0  0  0
 10 11  1  0  0  0  0
 11 12  2  0  0  0  0
 11 16  1  0  0  0  0
 12 17  1  0  0  0  0
 13 18  1  0  0  0  0
 13 12  1  0  0  0  0
 14 13  2  0  0  0  0
 15 14  1  0  0  0  0
 15 10  2  0  0  0  0
 19 14  1  0  0  0  0
 20 22  1  0  0  0  0
 22 21  2  6  0  0  0
 22 25  1  0  0  0  0
 23 22  1  0  0  0  0
 24 23  1  0  0  0  0
 25 27  1  0  0  0  0
 26 31  2  0  0  0  0
 26 27  1  0  0  0  0
 27 28  2  0  0  0  0
 28 29  1  0  0  0  0
 28 33  1  0  0  0  0
 30 34  1  0  0  0  0
 30 29  2  0  0  0  0
 31 30  1  0  0  0  0
 32 26  1  0  0  0  0
 34 36  1  0  0  0  0
 35 34  1  0  0  0  0
M  END
>  <minimizedAffinity>
-6.15839243

$$$$

 OpenBabel03242514403D

 36 38  0  0  0  0  0  0  0  0999 V2000
   39.5130   34.0880   39.9910 C   0  0  0  0  0  0  0  0  0  0  0  0
   38.7910   35.1010   40.3530 O   0  0  0  0  0  0  0  0  0  0  0  0
   38.7220   32.8890   40.3510 C   0  0  0  0  0  0  0  0  0  0  0  0
   37.3820   32.6280   39.9950 C   0  0  0  0  0  0  0  0  0  0  0  0
   36.9020   31.4360   40.4680 C   0  0  0  0  0  0  0  0  0  0  0  0
   37.6440   30.6020   41.1990 C   0  0  0  0  0  0  0  0  0  0  0  0
   39.2870   31.5300   41.3040 S   0  0  0  0  0  0  0  0  0  0  0  0
   36.7870   33.3080   39.4030 H   0  0  0  0  0  0  0  0  0  0  0  0
   35.9020   31.0600   40.3010 H   0  0  0  0  0  0  0  0  0  0  0  0
   37.5110   29.3230   41.8470 C   0  0  0  0  0  0  0  0  0  0  0  0
   37.7490   29.1710   43.1810 C   0  0  0  0  0  0  0  0  0  0  0  0
   37.5700   27.8650   43.6360 C   0  0  0  0  0  0  0  0  0  0  0  0
   37.1910   26.8590   42.7900 C   0  0  0  0  0  0  0  0  0  0  0  0
   36.9620   27.0640   41.4530 C   0  0  0  0  0  0  0  0  0  0  0  0
   37.1390   28.3410   41.0130 N   0  0  0  0  0  0  0  0  0  0  0  0
   38.0470   29.9790   43.8240 H   0  0  0  0  0  0  0  0  0  0  0  0
   37.7350   27.6380   44.6850 H   0  0  0  0  0  0  0  0  0  0  0  0
   37.0530   25.8470   43.1500 H   0  0  0  0  0  0  0  0  0  0  0  0
   36.6610   26.2770   40.7730 H   0  0  0  0  0  0  0  0  0  0  0  0
   40.6630   34.4850   39.4470 O   0  0  0  0  0  0  0  0  0  0  0  0
   42.4270   34.6450   37.5700 O   0  0  0  0  0  0  0  0  0  0  0  0
   41.6070   33.6530   38.3480 P   0  0  2  0  0  0  0  0  0  0  0  0
   40.6140   32.8640   37.2780 O   0  0  0  0  0  0  0  0  0  0  0  0
   39.9490   33.4910   36.9470 H   0  0  0  0  0  0  0  0  0  0  0  0
   42.6370   32.5540   39.2020 O   0  0  0  0  0  0  0  0  0  0  0  0
   42.8960   32.1510   41.5300 C   0  0  0  0  0  0  0  0  0  0  0  0
   43.1960   32.9110   40.4170 C   0  0  0  0  0  0  0  0  0  0  0  0
   44.0540   34.0060   40.5870 C   0  0  0  0  0  0  0  0  0  0  0  0
   44.5450   34.2650   41.8230 N   0  0  0  0  0  0  0  0  0  0  0  0
   44.2290   33.5010   42.8820 C   0  0  0  0  0  0  0  0  0  0  0  0
   43.4140   32.4550   42.7400 N   0  0  0  0  0  0  0  0  0  0  0  0
   42.2560   31.2910   41.5430 H   0  0  0  0  0  0  0  0  0  0  0  0
   44.2880   34.5990   39.7220 H   0  0  0  0  0  0  0  0  0  0  0  0
   44.7680   33.8070   44.1700 N   0  0  0  0  0  0  0  0  0  0  0  0
   45.7650   33.8330   44.4970 H   0  0  0  0  0  0  0  0  0  0  0  0
   43.9810   34.0200   44.7980 H   0  0  0  0  0  0  0  0  0  0  0  0
  1  3  1  0  0  0  0
  1  2  2  0  0  0  0
  3  7  1  0  0  0  0
  4  3  2  0  0  0  0
  4  5  1  0  0  0  0
  5  6  2  0  0  0  0
  6  7  1  0  0  0  0
  6 10  1  0  0  0  0
  8  4  1  0  0  0  0
  9  5  1  0  0  0  0
 10 11  1  0  0  0  0
 11 12  2  0  0  0  0
 11 16  1  0  0  0  0
 12 17  1  0  0  0  0
 13 18  1  0  0  0  0
 13 12  1  0  0  0  0
 14 13  2  0  0  0  0
 15 14  1  0  0  0  0
 15 10  2  0  0  0  0
 19 14  1  0  0  0  0
 20  1  1  0  0  0  0
 22 21  2  6  0  0  0
 22 25  1  0  0  0  0
 22 20  1  0  0  0  0
 23 22  1  0  0  0  0
 24 23  1  0  0  0  0
 25 27  1  0  0  0  0
 26 32  1  0  0  0  0
 26 31  1  0  0  0  0
 27 28  1  0  0  0  0
 27 26  2  0  0  0  0
 28 29  2  0  0  0  0
 29 30  1  0  0  0  0
 30 34  1  0  0  0  0
 31 30  2  0  0  0  0
 33 28  1  0  0  0  0
 34 35  1  0  0  0  0
 34 36  1  0  0  0  0
M  END
>  <minimizedAffinity>
-6.14868259

$$$$

 OpenBabel03242514403D

 36 38  0  0  0  0  0  0  0  0999 V2000
   38.2110   32.6310   39.7540 C   0  0  0  0  0  0  0  0  0  0  0  0
   37.1980   33.4390   39.7590 O   0  0  0  0  0  0  0  0  0  0  0  0
   39.3840   33.4660   40.1010 C   0  0  0  0  0  0  0  0  0  0  0  0
   39.4350   34.8750   40.1280 C   0  0  0  0  0  0  0  0  0  0  0  0
   40.6560   35.3810   40.4850 C   0  0  0  0  0  0  0  0  0  0  0  0
   41.6980   34.6030   40.7800 C   0  0  0  0  0  0  0  0  0  0  0  0
   40.9710   32.8730   40.5540 S   0  0  0  0  0  0  0  0  0  0  0  0
   38.5870   35.4990   39.8880 H   0  0  0  0  0  0  0  0  0  0  0  0
   40.8920   36.4340   40.5630 H   0  0  0  0  0  0  0  0  0  0  0  0
   43.0740   34.7450   41.1800 C   0  0  0  0  0  0  0  0  0  0  0  0
   44.0910   34.2210   40.4370 C   0  0  0  0  0  0  0  0  0  0  0  0
   45.3560   34.4560   40.9760 C   0  0  0  0  0  0  0  0  0  0  0  0
   45.5180   35.1520   42.1420 C   0  0  0  0  0  0  0  0  0  0  0  0
   44.4610   35.6610   42.8520 C   0  0  0  0  0  0  0  0  0  0  0  0
   43.2280   35.4290   42.3230 N   0  0  0  0  0  0  0  0  0  0  0  0
   43.9360   33.6770   39.5240 H   0  0  0  0  0  0  0  0  0  0  0  0
   46.2340   34.0790   40.4600 H   0  0  0  0  0  0  0  0  0  0  0  0
   46.5030   35.3320   42.5540 H   0  0  0  0  0  0  0  0  0  0  0  0
   44.5760   36.2150   43.7770 H   0  0  0  0  0  0  0  0  0  0  0  0
   37.8360   31.3900   39.4480 O   0  0  0  0  0  0  0  0  0  0  0  0
   36.3100   29.3100   39.5320 O   0  0  0  0  0  0  0  0  0  0  0  0
   36.9950   30.3160   40.4140 P   0  0  2  0  0  0  0  0  0  0  0  0
   35.8230   31.1480   41.2440 O   0  0  0  0  0  0  0  0  0  0  0  0
   35.3280   31.7020   40.6160 H   0  0  0  0  0  0  0  0  0  0  0  0
   38.1050   29.5280   41.4840 O   0  0  0  0  0  0  0  0  0  0  0  0
   38.9800   27.3360   41.1950 C   0  0  0  0  0  0  0  0  0  0  0  0
   38.0100   28.1670   41.7210 C   0  0  0  0  0  0  0  0  0  0  0  0
   36.9820   27.5770   42.4680 C   0  0  0  0  0  0  0  0  0  0  0  0
   36.9870   26.2330   42.6380 N   0  0  0  0  0  0  0  0  0  0  0  0
   37.9490   25.4590   42.1100 C   0  0  0  0  0  0  0  0  0  0  0  0
   38.9360   26.0020   41.3960 N   0  0  0  0  0  0  0  0  0  0  0  0
   39.8180   27.6530   40.6070 H   0  0  0  0  0  0  0  0  0  0  0  0
   36.2260   28.2220   42.8780 H   0  0  0  0  0  0  0  0  0  0  0  0
   37.9190   24.0440   42.3120 N   0  0  0  0  0  0  0  0  0  0  0  0
   37.9700   23.4860   43.2000 H   0  0  0  0  0  0  0  0  0  0  0  0
   37.8330   23.5960   41.3890 H   0  0  0  0  0  0  0  0  0  0  0  0
  1  2  2  0  0  0  0
  1  3  1  0  0  0  0
  3  4  2  0  0  0  0
  3  7  1  0  0  0  0
  4  5  1  0  0  0  0
  5  9  1  0  0  0  0
  5  6  2  0  0  0  0
  6 10  1  0  0  0  0
  7  6  1  0  0  0  0
  8  4  1  0  0  0  0
 10 15  1  0  0  0  0
 11 12  1  0  0  0  0
 11 10  2  0  0  0  0
 12 13  2  0  0  0  0
 13 18  1  0  0  0  0
 13 14  1  0  0  0  0
 14 19  1  0  0  0  0
 15 14  2  0  0  0  0
 16 11  1  0  0  0  0
 17 12  1  0  0  0  0
 20  1  1  0  0  0  0
 20 22  1  0  0  0  0
 22 21  2  6  0  0  0
 22 23  1  0  0  0  0
 22 25  1  0  0  0  0
 24 23  1  0  0  0  0
 25 27  1  0  0  0  0
 26 31  2  0  0  0  0
 26 27  1  0  0  0  0
 27 28  2  0  0  0  0
 28 29  1  0  0  0  0
 28 33  1  0  0  0  0
 30 34  1  0  0  0  0
 30 29  2  0  0  0  0
 31 30  1  0  0  0  0
 32 26  1  0  0  0  0
 34 35  1  0  0  0  0
 36 34  1  0  0  0  0
M  END
>  <minimizedAffinity>
-6.04814482

$$$$

 OpenBabel03242514403D

 36 38  0  0  0  0  0  0  0  0999 V2000
   39.7340   34.4560   39.9480 C   0  0  0  0  0  0  0  0  0  0  0  0
   38.9370   35.4720   40.0530 O   0  0  0  0  0  0  0  0  0  0  0  0
   38.9180   33.2740   40.3100 C   0  0  0  0  0  0  0  0  0  0  0  0
   37.6040   32.9960   39.8800 C   0  0  0  0  0  0  0  0  0  0  0  0
   37.0920   31.8260   40.3740 C   0  0  0  0  0  0  0  0  0  0  0  0
   37.7820   31.0280   41.1910 C   0  0  0  0  0  0  0  0  0  0  0  0
   39.4170   31.9610   41.3610 S   0  0  0  0  0  0  0  0  0  0  0  0
   37.0510   33.6470   39.2180 H   0  0  0  0  0  0  0  0  0  0  0  0
   36.1040   31.4420   40.1600 H   0  0  0  0  0  0  0  0  0  0  0  0
   37.6040   29.7810   41.8870 C   0  0  0  0  0  0  0  0  0  0  0  0
   38.4030   29.4280   42.9360 C   0  0  0  0  0  0  0  0  0  0  0  0
   38.0850   28.1880   43.4880 C   0  0  0  0  0  0  0  0  0  0  0  0
   37.0600   27.4280   42.9970 C   0  0  0  0  0  0  0  0  0  0  0  0
   36.2840   27.8280   41.9390 C   0  0  0  0  0  0  0  0  0  0  0  0
   36.5980   29.0390   41.4020 N   0  0  0  0  0  0  0  0  0  0  0  0
   39.2030   30.0450   43.3020 H   0  0  0  0  0  0  0  0  0  0  0  0
   38.6630   27.8140   44.3290 H   0  0  0  0  0  0  0  0  0  0  0  0
   36.8180   26.4660   43.4310 H   0  0  0  0  0  0  0  0  0  0  0  0
   35.4690   27.2350   41.5400 H   0  0  0  0  0  0  0  0  0  0  0  0
   40.9530   34.8360   39.5650 O   0  0  0  0  0  0  0  0  0  0  0  0
   42.9240   33.1930   39.3000 O   0  0  0  0  0  0  0  0  0  0  0  0
   41.9760   34.0470   38.5060 P   0  0  2  0  0  0  0  0  0  0  0  0
   42.8740   35.1770   37.6870 O   0  0  0  0  0  0  0  0  0  0  0  0
   43.2530   35.8020   38.3290 H   0  0  0  0  0  0  0  0  0  0  0  0
   41.0350   33.0690   37.4310 O   0  0  0  0  0  0  0  0  0  0  0  0
   42.3530   31.2650   36.6190 C   0  0  0  0  0  0  0  0  0  0  0  0
   41.2600   31.7060   37.3380 C   0  0  0  0  0  0  0  0  0  0  0  0
   40.4390   30.7410   37.9350 C   0  0  0  0  0  0  0  0  0  0  0  0
   40.7530   29.4310   37.7800 N   0  0  0  0  0  0  0  0  0  0  0  0
   41.8260   29.0420   37.0730 C   0  0  0  0  0  0  0  0  0  0  0  0
   42.6200   29.9470   36.4970 N   0  0  0  0  0  0  0  0  0  0  0  0
   43.0610   31.8930   36.1140 H   0  0  0  0  0  0  0  0  0  0  0  0
   39.5880   31.0820   38.4950 H   0  0  0  0  0  0  0  0  0  0  0  0
   42.1240   27.6510   36.9330 N   0  0  0  0  0  0  0  0  0  0  0  0
   42.3550   26.9320   37.6620 H   0  0  0  0  0  0  0  0  0  0  0  0
   42.0790   27.4190   35.9310 H   0  0  0  0  0  0  0  0  0  0  0  0
  1  2  2  0  0  0  0
  1  3  1  0  0  0  0
  3  7  1  0  0  0  0
  4  3  2  0  0  0  0
  4  5  1  0  0  0  0
  5  6  2  0  0  0  0
  6  7  1  0  0  0  0
  6 10  1  0  0  0  0
  8  4  1  0  0  0  0
  9  5  1  0  0  0  0
 10 11  1  0  0  0  0
 11 16  1  0  0  0  0
 11 12  2  0  0  0  0
 12 17  1  0  0  0  0
 13 18  1  0  0  0  0
 13 12  1  0  0  0  0
 14 13  2  0  0  0  0
 15 10  2  0  0  0  0
 15 14  1  0  0  0  0
 19 14  1  0  0  0  0
 20  1  1  0  0  0  0
 22 21  2  1  0  0  0
 22 20  1  0  0  0  0
 23 24  1  0  0  0  0
 23 22  1  0  0  0  0
 25 22  1  0  0  0  0
 26 27  1  0  0  0  0
 27 25  1  0  0  0  0
 27 28  2  0  0  0  0
 28 33  1  0  0  0  0
 29 28  1  0  0  0  0
 30 29  2  0  0  0  0
 31 26  2  0  0  0  0
 31 30  1  0  0  0  0
 32 26  1  0  0  0  0
 34 30  1  0  0  0  0
 34 35  1  0  0  0  0
 36 34  1  0  0  0  0
M  END
>  <minimizedAffinity>
-6.04028654

$$$$

 OpenBabel03242514403D

 36 38  0  0  0  0  0  0  0  0999 V2000
   37.4130   31.9610   39.2140 C   0  0  0  0  0  0  0  0  0  0  0  0
   37.3320   31.8320   37.9280 O   0  0  0  0  0  0  0  0  0  0  0  0
   36.9990   30.6530   39.7700 C   0  0  0  0  0  0  0  0  0  0  0  0
   35.8200   30.3830   40.4960 C   0  0  0  0  0  0  0  0  0  0  0  0
   35.6940   29.0780   40.8900 C   0  0  0  0  0  0  0  0  0  0  0  0
   36.6110   28.1510   40.6080 C   0  0  0  0  0  0  0  0  0  0  0  0
   37.8940   29.1500   39.6440 S   0  0  0  0  0  0  0  0  0  0  0  0
   35.0810   31.1390   40.7210 H   0  0  0  0  0  0  0  0  0  0  0  0
   34.8630   28.6770   41.4540 H   0  0  0  0  0  0  0  0  0  0  0  0
   36.8320   26.7460   40.8330 C   0  0  0  0  0  0  0  0  0  0  0  0
   37.1050   26.2570   42.0770 C   0  0  0  0  0  0  0  0  0  0  0  0
   37.2890   24.8750   42.1060 C   0  0  0  0  0  0  0  0  0  0  0  0
   37.1970   24.1170   40.9710 C   0  0  0  0  0  0  0  0  0  0  0  0
   36.9180   24.6580   39.7420 C   0  0  0  0  0  0  0  0  0  0  0  0
   36.7400   26.0080   39.7170 N   0  0  0  0  0  0  0  0  0  0  0  0
   37.1730   26.8750   42.9530 H   0  0  0  0  0  0  0  0  0  0  0  0
   37.5120   24.3860   43.0500 H   0  0  0  0  0  0  0  0  0  0  0  0
   37.3400   23.0440   41.0010 H   0  0  0  0  0  0  0  0  0  0  0  0
   36.8420   24.0690   38.8350 H   0  0  0  0  0  0  0  0  0  0  0  0
   37.8260   33.1830   39.5510 O   0  0  0  0  0  0  0  0  0  0  0  0
   39.7910   32.3330   40.9920 O   0  0  0  0  0  0  0  0  0  0  0  0
   39.1990   33.5880   40.4140 P   0  0  2  0  0  0  0  0  0  0  0  0
   38.7650   34.5740   41.6770 O   0  0  0  0  0  0  0  0  0  0  0  0
   38.0170   34.1710   42.1470 H   0  0  0  0  0  0  0  0  0  0  0  0
   40.3290   34.3590   39.3530 O   0  0  0  0  0  0  0  0  0  0  0  0
   42.5520   33.8490   38.6850 C   0  0  0  0  0  0  0  0  0  0  0  0
   41.1970   33.6060   38.5810 C   0  0  0  0  0  0  0  0  0  0  0  0
   40.7800   32.6050   37.6940 C   0  0  0  0  0  0  0  0  0  0  0  0
   41.7170   31.9280   36.9860 N   0  0  0  0  0  0  0  0  0  0  0  0
   43.0270   32.1940   37.1160 C   0  0  0  0  0  0  0  0  0  0  0  0
   43.4430   33.1440   37.9550 N   0  0  0  0  0  0  0  0  0  0  0  0
   43.0060   34.5830   39.3210 H   0  0  0  0  0  0  0  0  0  0  0  0
   39.7260   32.4140   37.6110 H   0  0  0  0  0  0  0  0  0  0  0  0
   43.9850   31.4580   36.3510 N   0  0  0  0  0  0  0  0  0  0  0  0
   44.2030   30.4310   36.3490 H   0  0  0  0  0  0  0  0  0  0  0  0
   44.4830   32.1240   35.7450 H   0  0  0  0  0  0  0  0  0  0  0  0
  1 20  1  0  0  0  0
  1  3  1  0  0  0  0
  2  1  2  0  0  0  0
  3  4  2  0  0  0  0
  4  8  1  0  0  0  0
  4  5  1  0  0  0  0
  5  9  1  0  0  0  0
  6 10  1  0  0  0  0
  6  5  2  0  0  0  0
  7  3  1  0  0  0  0
  7  6  1  0  0  0  0
 10 11  1  0  0  0  0
 11 12  2  0  0  0  0
 11 16  1  0  0  0  0
 12 17  1  0  0  0  0
 13 18  1  0  0  0  0
 13 12  1  0  0  0  0
 14 13  2  0  0  0  0
 15 14  1  0  0  0  0
 15 10  2  0  0  0  0
 19 14  1  0  0  0  0
 20 22  1  0  0  0  0
 22 21  2  1  0  0  0
 22 23  1  0  0  0  0
 23 24  1  0  0  0  0
 25 22  1  0  0  0  0
 26 32  1  0  0  0  0
 27 26  1  0  0  0  0
 27 25  1  0  0  0  0
 28 27  2  0  0  0  0
 29 30  2  0  0  0  0
 29 28  1  0  0  0  0
 30 31  1  0  0  0  0
 31 26  2  0  0  0  0
 33 28  1  0  0  0  0
 34 30  1  0  0  0  0
 35 34  1  0  0  0  0
 36 34  1  0  0  0  0
M  END
>  <minimizedAffinity>
-5.96499729

$$$$

 OpenBabel03242514403D

 36 38  0  0  0  0  0  0  0  0999 V2000
   37.0400   30.5080   37.7540 C   0  0  0  0  0  0  0  0  0  0  0  0
   36.7730   30.2790   36.5070 O   0  0  0  0  0  0  0  0  0  0  0  0
   36.9620   29.1890   38.4240 C   0  0  0  0  0  0  0  0  0  0  0  0
   35.9770   28.2000   38.2210 C   0  0  0  0  0  0  0  0  0  0  0  0
   36.1530   27.0740   38.9790 C   0  0  0  0  0  0  0  0  0  0  0  0
   37.1690   26.9350   39.8330 C   0  0  0  0  0  0  0  0  0  0  0  0
   38.0840   28.5740   39.6230 S   0  0  0  0  0  0  0  0  0  0  0  0
   35.1570   28.3200   37.5280 H   0  0  0  0  0  0  0  0  0  0  0  0
   35.5050   26.2090   38.9640 H   0  0  0  0  0  0  0  0  0  0  0  0
   37.6730   25.9560   40.7600 C   0  0  0  0  0  0  0  0  0  0  0  0
   36.9920   24.8040   41.0240 C   0  0  0  0  0  0  0  0  0  0  0  0
   37.6310   23.9750   41.9460 C   0  0  0  0  0  0  0  0  0  0  0  0
   38.8270   24.3210   42.5100 C   0  0  0  0  0  0  0  0  0  0  0  0
   39.4740   25.4930   42.2100 C   0  0  0  0  0  0  0  0  0  0  0  0
   38.8470   26.3000   41.3100 N   0  0  0  0  0  0  0  0  0  0  0  0
   36.0520   24.5560   40.5670 H   0  0  0  0  0  0  0  0  0  0  0  0
   37.1690   23.0320   42.2240 H   0  0  0  0  0  0  0  0  0  0  0  0
   39.3180   23.6720   43.2240 H   0  0  0  0  0  0  0  0  0  0  0  0
   40.4220   25.7790   42.6500 H   0  0  0  0  0  0  0  0  0  0  0  0
   37.2800   31.8010   37.9670 O   0  0  0  0  0  0  0  0  0  0  0  0
   36.5520   31.9230   40.4400 O   0  0  0  0  0  0  0  0  0  0  0  0
   37.4680   32.5700   39.4390 P   0  0  2  0  0  0  0  0  0  0  0  0
   37.0060   34.1560   39.2770 O   0  0  0  0  0  0  0  0  0  0  0  0
   36.1390   34.1860   38.8380 H   0  0  0  0  0  0  0  0  0  0  0  0
   39.1170   32.4280   39.9450 O   0  0  0  0  0  0  0  0  0  0  0  0
   40.6030   32.2630   38.0970 C   0  0  0  0  0  0  0  0  0  0  0  0
   40.1380   32.9740   39.1850 C   0  0  0  0  0  0  0  0  0  0  0  0
   40.7310   34.2140   39.4550 C   0  0  0  0  0  0  0  0  0  0  0  0
   41.7240   34.6540   38.6440 N   0  0  0  0  0  0  0  0  0  0  0  0
   42.1490   33.9310   37.5950 C   0  0  0  0  0  0  0  0  0  0  0  0
   41.5960   32.7480   37.3220 N   0  0  0  0  0  0  0  0  0  0  0  0
   40.2410   31.3050   37.7790 H   0  0  0  0  0  0  0  0  0  0  0  0
   40.3700   34.7700   40.3020 H   0  0  0  0  0  0  0  0  0  0  0  0
   43.1990   34.4290   36.7620 N   0  0  0  0  0  0  0  0  0  0  0  0
   43.2400   35.2960   36.1710 H   0  0  0  0  0  0  0  0  0  0  0  0
   43.9860   33.7690   36.8200 H   0  0  0  0  0  0  0  0  0  0  0  0
  1 20  1  0  0  0  0
  1  3  1  0  0  0  0
  2  1  2  0  0  0  0
  3  7  1  0  0  0  0
  4  3  2  0  0  0  0
  4  5  1  0  0  0  0
  5  6  2  0  0  0  0
  6 10  1  0  0  0  0
  7  6  1  0  0  0  0
  8  4  1  0  0  0  0
  9  5  1  0  0  0  0
 10 11  2  0  0  0  0
 10 15  1  0  0  0  0
 11 12  1  0  0  0  0
 12 17  1  0  0  0  0
 12 13  2  0  0  0  0
 13 18  1  0  0  0  0
 14 13  1  0  0  0  0
 14 19  1  0  0  0  0
 15 14  2  0  0  0  0
 16 11  1  0  0  0  0
 20 22  1  0  0  0  0
 22 25  1  0  0  0  0
 22 21  2  1  0  0  0
 23 22  1  0  0  0  0
 24 23  1  0  0  0  0
 26 27  1  0  0  0  0
 27 28  2  0  0  0  0
 27 25  1  0  0  0  0
 28 33  1  0  0  0  0
 29 28  1  0  0  0  0
 30 29  2  0  0  0  0
 31 30  1  0  0  0  0
 31 26  2  0  0  0  0
 32 26  1  0  0  0  0
 34 36  1  0  0  0  0
 34 30  1  0  0  0  0
 35 34  1  0  0  0  0
M  END
>  <minimizedAffinity>
-5.94139624

$$$$

 OpenBabel03242514403D

 36 38  0  0  0  0  0  0  0  0999 V2000
   37.9000   29.5170   42.1910 C   0  0  0  0  0  0  0  0  0  0  0  0
   36.9150   30.1450   41.6300 O   0  0  0  0  0  0  0  0  0  0  0  0
   37.5710   28.0780   42.0700 C   0  0  0  0  0  0  0  0  0  0  0  0
   37.0330   27.2500   43.0770 C   0  0  0  0  0  0  0  0  0  0  0  0
   36.8300   25.9550   42.6840 C   0  0  0  0  0  0  0  0  0  0  0  0
   37.1190   25.5220   41.4560 C   0  0  0  0  0  0  0  0  0  0  0  0
   37.7860   27.0890   40.6370 S   0  0  0  0  0  0  0  0  0  0  0  0
   36.8000   27.6070   44.0700 H   0  0  0  0  0  0  0  0  0  0  0  0
   36.4260   25.1720   43.3120 H   0  0  0  0  0  0  0  0  0  0  0  0
   37.0540   24.3000   40.6970 C   0  0  0  0  0  0  0  0  0  0  0  0
   36.0210   24.0440   39.8440 C   0  0  0  0  0  0  0  0  0  0  0  0
   36.1240   22.8150   39.1940 C   0  0  0  0  0  0  0  0  0  0  0  0
   37.1790   21.9730   39.4190 C   0  0  0  0  0  0  0  0  0  0  0  0
   38.1950   22.2780   40.2880 C   0  0  0  0  0  0  0  0  0  0  0  0
   38.0910   23.4800   40.9210 N   0  0  0  0  0  0  0  0  0  0  0  0
   35.2030   24.7230   39.6860 H   0  0  0  0  0  0  0  0  0  0  0  0
   35.3500   22.5150   38.4930 H   0  0  0  0  0  0  0  0  0  0  0  0
   37.2520   21.0200   38.9110 H   0  0  0  0  0  0  0  0  0  0  0  0
   39.0360   21.6210   40.4750 H   0  0  0  0  0  0  0  0  0  0  0  0
   38.8140   30.3690   42.6540 O   0  0  0  0  0  0  0  0  0  0  0  0
   40.7620   29.9550   41.0130 O   0  0  0  0  0  0  0  0  0  0  0  0
   40.0950   31.0380   41.8150 P   0  0  2  0  0  0  0  0  0  0  0  0
   41.2030   31.6200   42.9040 O   0  0  0  0  0  0  0  0  0  0  0  0
   41.3830   30.9310   43.5660 H   0  0  0  0  0  0  0  0  0  0  0  0
   39.5000   32.2850   40.7720 O   0  0  0  0  0  0  0  0  0  0  0  0
   41.1140   33.8420   39.9840 C   0  0  0  0  0  0  0  0  0  0  0  0
   40.2800   32.7700   39.7360 C   0  0  0  0  0  0  0  0  0  0  0  0
   40.2750   32.2330   38.4420 C   0  0  0  0  0  0  0  0  0  0  0  0
   41.0810   32.7860   37.5030 N   0  0  0  0  0  0  0  0  0  0  0  0
   41.8780   33.8300   37.7830 C   0  0  0  0  0  0  0  0  0  0  0  0
   41.8970   34.3540   39.0100 N   0  0  0  0  0  0  0  0  0  0  0  0
   41.2160   34.3470   40.9240 H   0  0  0  0  0  0  0  0  0  0  0  0
   39.6270   31.3980   38.2470 H   0  0  0  0  0  0  0  0  0  0  0  0
   42.7140   34.3850   36.7650 N   0  0  0  0  0  0  0  0  0  0  0  0
   43.4950   33.9470   36.2180 H   0  0  0  0  0  0  0  0  0  0  0  0
   42.4260   35.3630   36.6210 H   0  0  0  0  0  0  0  0  0  0  0  0
  1 20  1  0  0  0  0
  2  1  2  0  0  0  0
  3  1  1  0  0  0  0
  3  4  2  0  0  0  0
  4  8  1  0  0  0  0
  5  4  1  0  0  0  0
  5  9  1  0  0  0  0
  6  5  2  0  0  0  0
  7  6  1  0  0  0  0
  7  3  1  0  0  0  0
 10 15  1  0  0  0  0
 10  6  1  0  0  0  0
 11 10  2  0  0  0  0
 12 13  2  0  0  0  0
 12 11  1  0  0  0  0
 13 14  1  0  0  0  0
 14 19  1  0  0  0  0
 14 15  2  0  0  0  0
 16 11  1  0  0  0  0
 17 12  1  0  0  0  0
 18 13  1  0  0  0  0
 22 21  2  6  0  0  0
 22 20  1  0  0  0  0
 22 23  1  0  0  0  0
 23 24  1  0  0  0  0
 25 22  1  0  0  0  0
 26 32  1  0  0  0  0
 27 26  1  0  0  0  0
 27 25  1  0  0  0  0
 28 27  2  0  0  0  0
 29 30  2  0  0  0  0
 29 28  1  0  0  0  0
 30 31  1  0  0  0  0
 31 26  2  0  0  0  0
 33 28  1  0  0  0  0
 34 30  1  0  0  0  0
 35 34  1  0  0  0  0
 36 34  1  0  0  0  0
M  END
>  <minimizedAffinity>
-5.93058634

$$$$

 OpenBabel03242514403D

 36 38  0  0  0  0  0  0  0  0999 V2000
   36.2190   29.9830   40.8410 C   0  0  0  0  0  0  0  0  0  0  0  0
   34.9810   29.9750   40.4590 O   0  0  0  0  0  0  0  0  0  0  0  0
   36.5850   28.5600   41.0280 C   0  0  0  0  0  0  0  0  0  0  0  0
   36.6910   27.8740   42.2550 C   0  0  0  0  0  0  0  0  0  0  0  0
   37.0490   26.5590   42.1290 C   0  0  0  0  0  0  0  0  0  0  0  0
   37.2740   25.9860   40.9460 C   0  0  0  0  0  0  0  0  0  0  0  0
   36.9680   27.4190   39.7530 S   0  0  0  0  0  0  0  0  0  0  0  0
   36.5070   28.3450   43.2110 H   0  0  0  0  0  0  0  0  0  0  0  0
   37.1810   25.8700   42.9530 H   0  0  0  0  0  0  0  0  0  0  0  0
   37.6490   24.6980   40.4230 C   0  0  0  0  0  0  0  0  0  0  0  0
   37.5480   23.5650   41.1770 C   0  0  0  0  0  0  0  0  0  0  0  0
   37.9540   22.4110   40.5070 C   0  0  0  0  0  0  0  0  0  0  0  0
   38.4040   22.4530   39.2160 C   0  0  0  0  0  0  0  0  0  0  0  0
   38.4850   23.6200   38.5000 C   0  0  0  0  0  0  0  0  0  0  0  0
   38.0890   24.7450   39.1570 N   0  0  0  0  0  0  0  0  0  0  0  0
   37.1920   23.5600   42.1900 H   0  0  0  0  0  0  0  0  0  0  0  0
   37.9130   21.4540   41.0200 H   0  0  0  0  0  0  0  0  0  0  0  0
   38.7170   21.5530   38.7030 H   0  0  0  0  0  0  0  0  0  0  0  0
   38.8390   23.6680   37.4770 H   0  0  0  0  0  0  0  0  0  0  0  0
   36.6900   31.2270   40.9210 O   0  0  0  0  0  0  0  0  0  0  0  0
   37.0840   33.5130   39.7890 O   0  0  0  0  0  0  0  0  0  0  0  0
   37.5220   32.0750   39.7450 P   0  0  2  0  0  0  0  0  0  0  0  0
   37.1160   31.4650   38.2560 O   0  0  0  0  0  0  0  0  0  0  0  0
   36.1470   31.4040   38.1960 H   0  0  0  0  0  0  0  0  0  0  0  0
   39.2220   31.9500   40.0510 O   0  0  0  0  0  0  0  0  0  0  0  0
   40.5160   32.0170   38.0580 C   0  0  0  0  0  0  0  0  0  0  0  0
   40.1340   32.6100   39.2450 C   0  0  0  0  0  0  0  0  0  0  0  0
   40.6950   33.8530   39.5630 C   0  0  0  0  0  0  0  0  0  0  0  0
   41.5800   34.4100   38.7000 N   0  0  0  0  0  0  0  0  0  0  0  0
   41.9260   33.8000   37.5540 C   0  0  0  0  0  0  0  0  0  0  0  0
   41.4020   32.6160   37.2340 N   0  0  0  0  0  0  0  0  0  0  0  0
   40.1660   31.0710   37.6940 H   0  0  0  0  0  0  0  0  0  0  0  0
   40.3990   34.3170   40.4860 H   0  0  0  0  0  0  0  0  0  0  0  0
   42.8630   34.4200   36.6700 N   0  0  0  0  0  0  0  0  0  0  0  0
   42.8050   35.3340   36.1560 H   0  0  0  0  0  0  0  0  0  0  0  0
   43.6800   33.8000   36.5920 H   0  0  0  0  0  0  0  0  0  0  0  0
  1 20  1  0  0  0  0
  1  3  1  0  0  0  0
  2  1  2  0  0  0  0
  3  4  2  0  0  0  0
  4  8  1  0  0  0  0
  5  4  1  0  0  0  0
  5  9  1  0  0  0  0
  6  5  2  0  0  0  0
  7  6  1  0  0  0  0
  7  3  1  0  0  0  0
 10  6  1  0  0  0  0
 10 11  1  0  0  0  0
 11 16  1  0  0  0  0
 12 17  1  0  0  0  0
 12 11  2  0  0  0  0
 13 12  1  0  0  0  0
 14 15  1  0  0  0  0
 14 13  2  0  0  0  0
 15 10  2  0  0  0  0
 18 13  1  0  0  0  0
 19 14  1  0  0  0  0
 22 21  2  1  0  0  0
 22 25  1  0  0  0  0
 22 20  1  0  0  0  0
 23 22  1  0  0  0  0
 24 23  1  0  0  0  0
 26 27  1  0  0  0  0
 27 28  2  0  0  0  0
 27 25  1  0  0  0  0
 28 33  1  0  0  0  0
 29 28  1  0  0  0  0
 30 29  2  0  0  0  0
 31 30  1  0  0  0  0
 31 26  2  0  0  0  0
 32 26  1  0  0  0  0
 34 30  1  0  0  0  0
 35 34  1  0  0  0  0
 36 34  1  0  0  0  0
M  END
>  <minimizedAffinity>
-5.90403509

$$$$
