
 OpenBabel03242516533D

 45 48  0  0  1  0  0  0  0  0999 V2000
   47.7970   32.7570   41.6590 C   0  0  1  0  0  0  0  0  0  0  0  0
   47.4200   32.1300   40.3890 C   0  0  0  0  0  0  0  0  0  0  0  0
   48.4360   32.6330   39.3600 C   0  0  0  0  0  0  0  0  0  0  0  0
   48.1340   34.0960   39.1380 C   0  0  0  0  0  0  0  0  0  0  0  0
   48.1200   34.9150   40.3850 C   0  0  0  0  0  0  0  0  0  0  0  0
   47.6350   34.2820   41.6100 C   0  0  1  0  0  0  0  0  0  0  0  0
   48.9140   32.6450   41.7990 H   0  0  0  0  0  0  0  0  0  0  0  0
   47.4670   31.0290   40.5040 H   0  0  0  0  0  0  0  0  0  0  0  0
   46.3930   32.3490   40.0450 H   0  0  0  0  0  0  0  0  0  0  0  0
   49.4430   32.4760   39.7750 H   0  0  0  0  0  0  0  0  0  0  0  0
   48.2550   32.1320   38.3930 H   0  0  0  0  0  0  0  0  0  0  0  0
   47.1170   34.1490   38.6660 H   0  0  0  0  0  0  0  0  0  0  0  0
   48.8490   34.5360   38.4240 H   0  0  0  0  0  0  0  0  0  0  0  0
   47.5120   35.8200   40.1770 H   0  0  0  0  0  0  0  0  0  0  0  0
   49.1620   35.3240   40.5090 H   0  0  0  0  0  0  0  0  0  0  0  0
   48.2590   34.6520   42.4760 H   0  0  0  0  0  0  0  0  0  0  0  0
   45.3450   30.9180   43.8560 C   0  0  0  0  0  0  0  0  0  0  0  0
   46.0070   31.4490   42.7560 C   0  0  0  0  0  0  0  0  0  0  0  0
   47.1590   32.2340   42.8500 C   0  0  0  0  0  0  0  0  0  0  0  0
   47.5900   32.4430   44.0890 N   0  0  0  0  0  0  0  0  0  0  0  0
   46.9630   31.9380   45.1830 C   0  0  0  0  0  0  0  0  0  0  0  0
   45.8580   31.1870   45.0700 N   0  0  0  0  0  0  0  0  0  0  0  0
   44.4560   30.3130   43.7500 H   0  0  0  0  0  0  0  0  0  0  0  0
   45.5680   31.2060   41.8080 H   0  0  0  0  0  0  0  0  0  0  0  0
   47.3180   32.1160   46.1930 H   0  0  0  0  0  0  0  0  0  0  0  0
   46.2610   34.6890   41.9760 C   0  0  0  0  0  0  0  0  0  0  0  0
   45.8580   35.2510   43.1740 C   0  0  0  0  0  0  0  0  0  0  0  0
   44.4990   35.5770   43.2750 C   0  0  0  0  0  0  0  0  0  0  0  0
   43.6890   35.3140   42.1940 C   0  0  0  0  0  0  0  0  0  0  0  0
   44.1060   34.7580   41.0180 C   0  0  0  0  0  0  0  0  0  0  0  0
   45.4270   34.4430   40.9180 N   0  0  0  0  0  0  0  0  0  0  0  0
   46.6100   35.3940   43.9070 H   0  0  0  0  0  0  0  0  0  0  0  0
   44.1730   36.0080   44.1860 H   0  0  0  0  0  0  0  0  0  0  0  0
   42.6330   35.5810   42.3110 H   0  0  0  0  0  0  0  0  0  0  0  0
   43.1740   34.5200   39.8920 C   0  0  0  0  0  0  0  0  0  0  0  0
   42.2250   35.3510   39.7650 O   0  0  0  0  0  0  0  0  0  0  0  0
   43.2650   33.4150   38.9170 C   0  0  0  0  0  0  0  0  0  0  0  0
   42.2820   32.5290   38.5440 C   0  0  0  0  0  0  0  0  0  0  0  0
   41.3560   32.7960   39.0760 H   0  0  0  0  0  0  0  0  0  0  0  0
   42.4780   31.5130   37.6440 C   0  0  0  0  0  3  0  0  0  0  0  0
   43.7360   31.3890   37.0940 C   0  0  0  0  0  0  0  0  0  0  0  0
   43.8370   30.5640   36.3810 H   0  0  0  0  0  0  0  0  0  0  0  0
   44.7870   32.2230   37.3980 C   0  0  0  0  0  0  0  0  0  0  0  0
   45.7580   32.0810   36.9370 H   0  0  0  0  0  0  0  0  0  0  0  0
   44.5220   33.2380   38.3220 C   0  0  0  0  0  3  0  0  0  0  0  0
  1  7  1  1  0  0  0
  1 19  1  0  0  0  0
  2  8  1  0  0  0  0
  2  1  1  0  0  0  0
  3 10  1  0  0  0  0
  3  2  1  0  0  0  0
  4  3  1  0  0  0  0
  4  5  1  0  0  0  0
  5 15  1  0  0  0  0
  5  6  1  0  0  0  0
  6  1  1  0  0  0  0
  6 26  1  0  0  0  0
  6 16  1  1  0  0  0
  9  2  1  0  0  0  0
 11  3  1  0  0  0  0
 12  4  1  0  0  0  0
 13  4  1  0  0  0  0
 14  5  1  0  0  0  0
 17 22  1  0  0  0  0
 18 19  1  0  0  0  0
 18 17  2  0  0  0  0
 19 20  2  0  0  0  0
 20 21  1  0  0  0  0
 21 25  1  0  0  0  0
 22 21  2  0  0  0  0
 23 17  1  0  0  0  0
 24 18  1  0  0  0  0
 26 27  1  0  0  0  0
 27 28  2  0  0  0  0
 27 32  1  0  0  0  0
 28 33  1  0  0  0  0
 29 34  1  0  0  0  0
 29 28  1  0  0  0  0
 30 29  2  0  0  0  0
 31 30  1  0  0  0  0
 31 26  2  0  0  0  0
 35 30  1  0  0  0  0
 36 35  2  0  0  0  0
 37 35  1  0  0  0  0
 38 37  1  0  0  0  0
 38 39  1  0  0  0  0
 40 38  2  0  0  0  0
 41 43  2  0  0  0  0
 41 40  1  0  0  0  0
 42 41  1  0  0  0  0
 43 45  1  0  0  0  0
 44 43  1  0  0  0  0
 45 37  2  0  0  0  0
M  END
>  <minimizedAffinity>
-5.41403294

>  <minimizedRMSD>
0.530140877

$$$$
