
 OpenBabel03242516533D

 45 48  0  0  1  0  0  0  0  0999 V2000
   47.8450   32.9060   41.8100 C   0  0  1  0  0  0  0  0  0  0  0  0
   47.5280   32.2870   40.5200 C   0  0  0  0  0  0  0  0  0  0  0  0
   48.5630   32.8300   39.5330 C   0  0  0  0  0  0  0  0  0  0  0  0
   48.2290   34.2880   39.3190 C   0  0  0  0  0  0  0  0  0  0  0  0
   48.1510   35.0890   40.5750 C   0  0  0  0  0  0  0  0  0  0  0  0
   47.6430   34.4270   41.7750 C   0  0  1  0  0  0  0  0  0  0  0  0
   48.9590   32.8220   41.9860 H   0  0  0  0  0  0  0  0  0  0  0  0
   47.6010   31.1860   40.6220 H   0  0  0  0  0  0  0  0  0  0  0  0
   46.5070   32.4830   40.1440 H   0  0  0  0  0  0  0  0  0  0  0  0
   49.5590   32.6950   39.9800 H   0  0  0  0  0  0  0  0  0  0  0  0
   48.4290   32.3380   38.5540 H   0  0  0  0  0  0  0  0  0  0  0  0
   47.2270   34.3190   38.8140 H   0  0  0  0  0  0  0  0  0  0  0  0
   48.9550   34.7560   38.6360 H   0  0  0  0  0  0  0  0  0  0  0  0
   47.5250   35.9800   40.3580 H   0  0  0  0  0  0  0  0  0  0  0  0
   49.1770   35.5240   40.7400 H   0  0  0  0  0  0  0  0  0  0  0  0
   48.2270   34.8020   42.6660 H   0  0  0  0  0  0  0  0  0  0  0  0
   45.3950   30.9410   43.8980 C   0  0  0  0  0  0  0  0  0  0  0  0
   46.0770   31.5060   42.8270 C   0  0  0  0  0  0  0  0  0  0  0  0
   47.1820   32.3500   42.9720 C   0  0  0  0  0  0  0  0  0  0  0  0
   47.5440   32.5800   44.2290 N   0  0  0  0  0  0  0  0  0  0  0  0
   46.8960   32.0430   45.2940 C   0  0  0  0  0  0  0  0  0  0  0  0
   45.8370   31.2360   45.1330 N   0  0  0  0  0  0  0  0  0  0  0  0
   44.5440   30.2910   43.7530 H   0  0  0  0  0  0  0  0  0  0  0  0
   45.6940   31.2420   41.8610 H   0  0  0  0  0  0  0  0  0  0  0  0
   47.1960   32.2380   46.3190 H   0  0  0  0  0  0  0  0  0  0  0  0
   46.2470   34.7920   42.0990 C   0  0  0  0  0  0  0  0  0  0  0  0
   45.7920   35.3450   43.2820 C   0  0  0  0  0  0  0  0  0  0  0  0
   44.4200   35.6280   43.3430 C   0  0  0  0  0  0  0  0  0  0  0  0
   43.6510   35.3360   42.2410 C   0  0  0  0  0  0  0  0  0  0  0  0
   44.1190   34.7890   41.0790 C   0  0  0  0  0  0  0  0  0  0  0  0
   45.4510   34.5150   41.0190 N   0  0  0  0  0  0  0  0  0  0  0  0
   46.5170   35.5150   44.0360 H   0  0  0  0  0  0  0  0  0  0  0  0
   44.0550   36.0530   44.2420 H   0  0  0  0  0  0  0  0  0  0  0  0
   42.5840   35.5700   42.3260 H   0  0  0  0  0  0  0  0  0  0  0  0
   43.2280   34.5170   39.9280 C   0  0  0  0  0  0  0  0  0  0  0  0
   42.2440   35.3030   39.7840 O   0  0  0  0  0  0  0  0  0  0  0  0
   43.3960   33.4260   38.9480 C   0  0  0  0  0  0  0  0  0  0  0  0
   44.5380   33.0560   38.2760 C   0  0  0  0  0  0  0  0  0  0  0  0
   45.3640   33.7000   38.6180 H   0  0  0  0  0  0  0  0  0  0  0  0
   44.5820   32.0370   37.3590 C   0  0  0  0  0  3  0  0  0  0  0  0
   43.4070   31.3590   37.1100 C   0  0  0  0  0  0  0  0  0  0  0  0
   43.4990   30.5560   36.3720 H   0  0  0  0  0  0  0  0  0  0  0  0
   42.2140   31.6490   37.7270 C   0  0  0  0  0  0  0  0  0  0  0  0
   41.3180   31.0860   37.4940 H   0  0  0  0  0  0  0  0  0  0  0  0
   42.2350   32.6980   38.6530 C   0  0  0  0  0  3  0  0  0  0  0  0
  1  7  1  1  0  0  0
  1 19  1  0  0  0  0
  2  8  1  0  0  0  0
  2  1  1  0  0  0  0
  3 10  1  0  0  0  0
  3  2  1  0  0  0  0
  4  3  1  0  0  0  0
  4  5  1  0  0  0  0
  5 15  1  0  0  0  0
  5  6  1  0  0  0  0
  6  1  1  0  0  0  0
  6 26  1  0  0  0  0
  6 16  1  1  0  0  0
  9  2  1  0  0  0  0
 11  3  1  0  0  0  0
 12  4  1  0  0  0  0
 13  4  1  0  0  0  0
 14  5  1  0  0  0  0
 17 22  1  0  0  0  0
 18 19  1  0  0  0  0
 18 17  2  0  0  0  0
 19 20  2  0  0  0  0
 20 21  1  0  0  0  0
 21 25  1  0  0  0  0
 22 21  2  0  0  0  0
 23 17  1  0  0  0  0
 24 18  1  0  0  0  0
 26 27  1  0  0  0  0
 27 28  2  0  0  0  0
 27 32  1  0  0  0  0
 28 33  1  0  0  0  0
 29 34  1  0  0  0  0
 29 28  1  0  0  0  0
 30 29  2  0  0  0  0
 31 30  1  0  0  0  0
 31 26  2  0  0  0  0
 35 30  1  0  0  0  0
 36 35  2  0  0  0  0
 37 35  1  0  0  0  0
 38 39  1  0  0  0  0
 38 37  2  0  0  0  0
 40 38  1  0  0  0  0
 41 40  2  0  0  0  0
 41 43  1  0  0  0  0
 42 41  1  0  0  0  0
 43 45  2  0  0  0  0
 44 43  1  0  0  0  0
 45 37  1  0  0  0  0
M  END
>  <minimizedAffinity>
-5.49624777

>  <minimizedRMSD>
0.493379712

$$$$
