
 OpenBabel03242516533D

 45 48  0  0  1  0  0  0  0  0999 V2000
   47.8450   32.9070   41.8110 C   0  0  1  0  0  0  0  0  0  0  0  0
   47.5280   32.2870   40.5210 C   0  0  0  0  0  0  0  0  0  0  0  0
   48.5630   32.8300   39.5340 C   0  0  0  0  0  0  0  0  0  0  0  0
   48.2300   34.2880   39.3200 C   0  0  0  0  0  0  0  0  0  0  0  0
   48.1510   35.0890   40.5760 C   0  0  0  0  0  0  0  0  0  0  0  0
   47.6430   34.4270   41.7760 C   0  0  1  0  0  0  0  0  0  0  0  0
   48.9590   32.8220   41.9880 H   0  0  0  0  0  0  0  0  0  0  0  0
   47.6010   31.1860   40.6240 H   0  0  0  0  0  0  0  0  0  0  0  0
   46.5070   32.4820   40.1450 H   0  0  0  0  0  0  0  0  0  0  0  0
   49.5600   32.6950   39.9810 H   0  0  0  0  0  0  0  0  0  0  0  0
   48.4300   32.3380   38.5550 H   0  0  0  0  0  0  0  0  0  0  0  0
   47.2270   34.3190   38.8150 H   0  0  0  0  0  0  0  0  0  0  0  0
   48.9560   34.7560   38.6370 H   0  0  0  0  0  0  0  0  0  0  0  0
   47.5250   35.9800   40.3590 H   0  0  0  0  0  0  0  0  0  0  0  0
   49.1770   35.5240   40.7410 H   0  0  0  0  0  0  0  0  0  0  0  0
   48.2260   34.8020   42.6670 H   0  0  0  0  0  0  0  0  0  0  0  0
   45.3950   30.9410   43.8990 C   0  0  0  0  0  0  0  0  0  0  0  0
   46.0770   31.5060   42.8280 C   0  0  0  0  0  0  0  0  0  0  0  0
   47.1820   32.3500   42.9730 C   0  0  0  0  0  0  0  0  0  0  0  0
   47.5440   32.5810   44.2300 N   0  0  0  0  0  0  0  0  0  0  0  0
   46.8960   32.0430   45.2950 C   0  0  0  0  0  0  0  0  0  0  0  0
   45.8370   31.2360   45.1340 N   0  0  0  0  0  0  0  0  0  0  0  0
   44.5450   30.2910   43.7540 H   0  0  0  0  0  0  0  0  0  0  0  0
   45.6950   31.2410   41.8620 H   0  0  0  0  0  0  0  0  0  0  0  0
   47.1950   32.2390   46.3200 H   0  0  0  0  0  0  0  0  0  0  0  0
   46.2470   34.7920   42.1000 C   0  0  0  0  0  0  0  0  0  0  0  0
   45.7910   35.3450   43.2830 C   0  0  0  0  0  0  0  0  0  0  0  0
   44.4200   35.6280   43.3430 C   0  0  0  0  0  0  0  0  0  0  0  0
   43.6510   35.3360   42.2410 C   0  0  0  0  0  0  0  0  0  0  0  0
   44.1190   34.7890   41.0790 C   0  0  0  0  0  0  0  0  0  0  0  0
   45.4510   34.5150   41.0200 N   0  0  0  0  0  0  0  0  0  0  0  0
   46.5160   35.5150   44.0360 H   0  0  0  0  0  0  0  0  0  0  0  0
   44.0540   36.0530   44.2420 H   0  0  0  0  0  0  0  0  0  0  0  0
   42.5840   35.5700   42.3260 H   0  0  0  0  0  0  0  0  0  0  0  0
   43.2280   34.5170   39.9280 C   0  0  0  0  0  0  0  0  0  0  0  0
   42.2440   35.3040   39.7830 O   0  0  0  0  0  0  0  0  0  0  0  0
   43.3960   33.4250   38.9480 C   0  0  0  0  0  0  0  0  0  0  0  0
   44.5390   33.0550   38.2770 C   0  0  0  0  0  0  0  0  0  0  0  0
   45.3640   33.6990   38.6180 H   0  0  0  0  0  0  0  0  0  0  0  0
   44.5820   32.0360   37.3600 C   0  0  0  0  0  3  0  0  0  0  0  0
   43.4080   31.3590   37.1100 C   0  0  0  0  0  0  0  0  0  0  0  0
   43.5000   30.5550   36.3730 H   0  0  0  0  0  0  0  0  0  0  0  0
   42.2140   31.6490   37.7280 C   0  0  0  0  0  0  0  0  0  0  0  0
   41.3180   31.0850   37.4940 H   0  0  0  0  0  0  0  0  0  0  0  0
   42.2360   32.6980   38.6520 C   0  0  0  0  0  3  0  0  0  0  0  0
  1  7  1  1  0  0  0
  1 19  1  0  0  0  0
  2  8  1  0  0  0  0
  2  1  1  0  0  0  0
  3 10  1  0  0  0  0
  3  2  1  0  0  0  0
  4  3  1  0  0  0  0
  4  5  1  0  0  0  0
  5 15  1  0  0  0  0
  5  6  1  0  0  0  0
  6  1  1  0  0  0  0
  6 26  1  0  0  0  0
  6 16  1  1  0  0  0
  9  2  1  0  0  0  0
 11  3  1  0  0  0  0
 12  4  1  0  0  0  0
 13  4  1  0  0  0  0
 14  5  1  0  0  0  0
 17 22  1  0  0  0  0
 18 19  1  0  0  0  0
 18 17  2  0  0  0  0
 19 20  2  0  0  0  0
 20 21  1  0  0  0  0
 21 25  1  0  0  0  0
 22 21  2  0  0  0  0
 23 17  1  0  0  0  0
 24 18  1  0  0  0  0
 26 27  1  0  0  0  0
 27 28  2  0  0  0  0
 27 32  1  0  0  0  0
 28 33  1  0  0  0  0
 29 34  1  0  0  0  0
 29 28  1  0  0  0  0
 30 29  2  0  0  0  0
 31 30  1  0  0  0  0
 31 26  2  0  0  0  0
 35 30  1  0  0  0  0
 36 35  2  0  0  0  0
 37 35  1  0  0  0  0
 38 39  1  0  0  0  0
 38 37  2  0  0  0  0
 40 38  1  0  0  0  0
 41 40  2  0  0  0  0
 41 43  1  0  0  0  0
 42 41  1  0  0  0  0
 43 45  2  0  0  0  0
 44 43  1  0  0  0  0
 45 37  1  0  0  0  0
M  END
>  <minimizedAffinity>
-5.49613667

>  <minimizedRMSD>
0.515055776

$$$$
