
 OpenBabel03252509193D

 43 46  0  0  1  0  0  0  0  0999 V2000
   49.1950   28.8700   48.3620 C   0  0  1  0  0  0  0  0  0  0  0  0
   49.4020   28.0800   47.1180 C   0  0  0  0  0  0  0  0  0  0  0  0
   50.8060   27.5670   46.9420 C   0  0  0  0  0  0  0  0  0  0  0  0
   51.3880   26.9960   48.2070 C   0  0  0  0  0  0  0  0  0  0  0  0
   51.1290   27.8650   49.3960 C   0  0  0  0  0  0  0  0  0  0  0  0
   50.5740   29.2400   48.9570 C   0  0  2  0  0  0  0  0  0  0  0  0
   48.7230   28.2390   49.1130 H   0  0  0  0  0  0  0  0  0  0  0  0
   48.7040   27.2120   47.0740 H   0  0  0  0  0  0  0  0  0  0  0  0
   49.1760   28.7270   46.2420 H   0  0  0  0  0  0  0  0  0  0  0  0
   50.7830   26.7690   46.1830 H   0  0  0  0  0  0  0  0  0  0  0  0
   51.5020   28.3540   46.5620 H   0  0  0  0  0  0  0  0  0  0  0  0
   52.4810   26.8810   48.0570 H   0  0  0  0  0  0  0  0  0  0  0  0
   50.9190   25.9980   48.4390 H   0  0  0  0  0  0  0  0  0  0  0  0
   50.4710   27.4390   50.1580 H   0  0  0  0  0  0  0  0  0  0  0  0
   52.0880   28.1220   49.9110 H   0  0  0  0  0  0  0  0  0  0  0  0
   51.2270   29.6520   48.1630 H   0  0  0  0  0  0  0  0  0  0  0  0
   46.9850   32.0470   47.0190 C   0  0  0  0  0  0  0  0  0  0  0  0
   47.0480   31.9810   48.4060 C   0  0  0  0  0  0  0  0  0  0  0  0
   47.7360   30.9860   48.9540 C   0  0  0  0  0  0  0  0  0  0  0  0
   48.3840   30.0290   48.1490 C   0  0  0  0  0  0  0  0  0  0  0  0
   47.9720   30.5900   46.4680 S   0  0  0  0  0  0  0  0  0  0  0  0
   46.5520   32.7190   49.0140 H   0  0  0  0  0  0  0  0  0  0  0  0
   47.8900   30.7760   49.9980 H   0  0  0  0  0  0  0  0  0  0  0  0
   44.7210   34.7650   45.8510 C   0  0  0  0  0  0  0  0  0  0  0  0
   45.1500   34.9080   44.5300 C   0  0  0  0  0  0  0  0  0  0  0  0
   46.1920   34.0790   44.1030 C   0  0  0  0  0  0  0  0  0  0  0  0
   46.7330   33.1790   44.9870 N   0  0  0  0  0  0  0  0  0  0  0  0
   46.2820   33.0850   46.2440 C   0  0  0  0  0  0  0  0  0  0  0  0
   45.2740   33.8830   46.6670 N   0  0  0  0  0  0  0  0  0  0  0  0
   43.9260   35.3960   46.1830 H   0  0  0  0  0  0  0  0  0  0  0  0
   44.7440   35.6080   43.8090 H   0  0  0  0  0  0  0  0  0  0  0  0
   46.6050   34.1110   43.0830 H   0  0  0  0  0  0  0  0  0  0  0  0
   50.4260   30.0930   50.1190 C   0  0  0  0  0  0  0  0  0  0  0  0
   49.8020   29.7200   51.1190 O   0  0  0  0  0  0  0  0  0  0  0  0
   50.7550   31.3690   50.6620 C   0  0  0  0  0  0  0  0  0  0  0  0
   51.1590   31.7380   51.9280 C   0  0  0  0  0  0  0  0  0  0  0  0
   51.0030   30.9220   52.6620 H   0  0  0  0  0  0  0  0  0  0  0  0
   51.6350   32.8760   52.4930 C   0  0  0  0  0  0  0  0  0  0  0  0
   51.7270   33.8760   51.5800 C   0  0  0  0  0  0  0  0  0  0  0  0
   52.1010   34.8530   51.8930 H   0  0  0  0  0  0  0  0  0  0  0  0
   51.3900   33.7890   50.2530 C   0  0  0  0  0  0  0  0  0  0  0  0
   51.4710   34.5920   49.5530 H   0  0  0  0  0  0  0  0  0  0  0  0
   50.9250   32.5450   49.8720 C   0  0  0  0  0  0  0  0  0  0  0  0
  1  6  1  0  0  0  0
  1  7  1  1  0  0  0
  2  1  1  0  0  0  0
  3  2  1  0  0  0  0
  3  4  1  0  0  0  0
  4 13  1  0  0  0  0
  4  5  1  0  0  0  0
  5 15  1  0  0  0  0
  5 14  1  0  0  0  0
  6 16  1  6  0  0  0
  6  5  1  0  0  0  0
  6 33  1  0  0  0  0
  8  2  1  0  0  0  0
  9  2  1  0  0  0  0
 10  3  1  0  0  0  0
 11  3  1  0  0  0  0
 12  4  1  0  0  0  0
 17 18  2  0  0  0  0
 18 19  1  0  0  0  0
 18 22  1  0  0  0  0
 19 23  1  0  0  0  0
 20  1  1  0  0  0  0
 20 19  2  0  0  0  0
 21 17  1  0  0  0  0
 21 20  1  0  0  0  0
 24 30  1  0  0  0  0
 24 29  1  0  0  0  0
 25 24  2  0  0  0  0
 26 25  1  0  0  0  0
 26 27  2  0  0  0  0
 27 28  1  0  0  0  0
 28 29  2  0  0  0  0
 28 17  1  0  0  0  0
 31 25  1  0  0  0  0
 32 26  1  0  0  0  0
 33 35  1  0  0  0  0
 33 34  2  0  0  0  0
 35 36  1  0  0  0  0
 36 38  2  0  0  0  0
 36 37  1  0  0  0  0
 39 40  1  0  0  0  0
 39 38  1  0  0  0  0
 41 39  2  0  0  0  0
 42 41  1  0  0  0  0
 43 41  1  0  0  0  0
 43 35  2  0  0  0  0
M  END
>  <minimizedAffinity>
-5.43950272

>  <minimizedRMSD>
2.61797547

$$$$
