
 OpenBabel03242516533D

 45 48  0  0  1  0  0  0  0  0999 V2000
   47.8450   32.8970   41.8110 C   0  0  1  0  0  0  0  0  0  0  0  0
   47.5190   32.2510   40.5370 C   0  0  0  0  0  0  0  0  0  0  0  0
   48.5450   32.7750   39.5300 C   0  0  0  0  0  0  0  0  0  0  0  0
   48.2070   34.2280   39.2900 C   0  0  0  0  0  0  0  0  0  0  0  0
   48.1380   35.0550   40.5300 C   0  0  0  0  0  0  0  0  0  0  0  0
   47.6410   34.4160   41.7470 C   0  0  1  0  0  0  0  0  0  0  0  0
   48.9610   32.8170   41.9800 H   0  0  0  0  0  0  0  0  0  0  0  0
   47.5950   31.1520   40.6610 H   0  0  0  0  0  0  0  0  0  0  0  0
   46.4950   32.4370   40.1660 H   0  0  0  0  0  0  0  0  0  0  0  0
   49.5450   32.6510   39.9710 H   0  0  0  0  0  0  0  0  0  0  0  0
   48.4040   32.2640   38.5630 H   0  0  0  0  0  0  0  0  0  0  0  0
   47.2010   34.2480   38.7920 H   0  0  0  0  0  0  0  0  0  0  0  0
   48.9270   34.6830   38.5910 H   0  0  0  0  0  0  0  0  0  0  0  0
   47.5090   35.9400   40.3000 H   0  0  0  0  0  0  0  0  0  0  0  0
   49.1640   35.4940   40.6770 H   0  0  0  0  0  0  0  0  0  0  0  0
   48.2310   34.8100   42.6260 H   0  0  0  0  0  0  0  0  0  0  0  0
   45.4100   30.9780   43.9590 C   0  0  0  0  0  0  0  0  0  0  0  0
   46.0830   31.5210   42.8710 C   0  0  0  0  0  0  0  0  0  0  0  0
   47.1930   32.3630   42.9900 C   0  0  0  0  0  0  0  0  0  0  0  0
   47.5700   32.6130   44.2390 N   0  0  0  0  0  0  0  0  0  0  0  0
   46.9320   32.0960   45.3190 C   0  0  0  0  0  0  0  0  0  0  0  0
   45.8680   31.2910   45.1830 N   0  0  0  0  0  0  0  0  0  0  0  0
   44.5550   30.3290   43.8340 H   0  0  0  0  0  0  0  0  0  0  0  0
   45.6890   31.2420   41.9140 H   0  0  0  0  0  0  0  0  0  0  0  0
   47.2440   32.3070   46.3380 H   0  0  0  0  0  0  0  0  0  0  0  0
   46.2470   34.7850   42.0750 C   0  0  0  0  0  0  0  0  0  0  0  0
   45.7970   35.3450   43.2580 C   0  0  0  0  0  0  0  0  0  0  0  0
   44.4270   35.6310   43.3230 C   0  0  0  0  0  0  0  0  0  0  0  0
   43.6530   35.3350   42.2250 C   0  0  0  0  0  0  0  0  0  0  0  0
   44.1150   34.7820   41.0640 C   0  0  0  0  0  0  0  0  0  0  0  0
   45.4460   34.5050   41.0000 N   0  0  0  0  0  0  0  0  0  0  0  0
   46.5260   35.5160   44.0080 H   0  0  0  0  0  0  0  0  0  0  0  0
   44.0660   36.0600   44.2210 H   0  0  0  0  0  0  0  0  0  0  0  0
   42.5860   35.5720   42.3130 H   0  0  0  0  0  0  0  0  0  0  0  0
   43.2190   34.5080   39.9170 C   0  0  0  0  0  0  0  0  0  0  0  0
   42.2280   35.2870   39.7810 O   0  0  0  0  0  0  0  0  0  0  0  0
   43.3880   33.4200   38.9320 C   0  0  0  0  0  0  0  0  0  0  0  0
   44.5280   33.0650   38.2480 C   0  0  0  0  0  0  0  0  0  0  0  0
   45.3490   33.7170   38.5830 H   0  0  0  0  0  0  0  0  0  0  0  0
   44.5740   32.0480   37.3280 C   0  0  0  0  0  3  0  0  0  0  0  0
   43.4040   31.3580   37.0900 C   0  0  0  0  0  0  0  0  0  0  0  0
   43.4970   30.5580   36.3490 H   0  0  0  0  0  0  0  0  0  0  0  0
   42.2130   31.6340   37.7220 C   0  0  0  0  0  0  0  0  0  0  0  0
   41.3210   31.0600   37.4950 H   0  0  0  0  0  0  0  0  0  0  0  0
   42.2330   32.6810   38.6480 C   0  0  0  0  0  3  0  0  0  0  0  0
  1  7  1  1  0  0  0
  1 19  1  0  0  0  0
  2  8  1  0  0  0  0
  2  1  1  0  0  0  0
  3 10  1  0  0  0  0
  3  2  1  0  0  0  0
  4  3  1  0  0  0  0
  4  5  1  0  0  0  0
  5 15  1  0  0  0  0
  5  6  1  0  0  0  0
  6  1  1  0  0  0  0
  6 26  1  0  0  0  0
  6 16  1  1  0  0  0
  9  2  1  0  0  0  0
 11  3  1  0  0  0  0
 12  4  1  0  0  0  0
 13  4  1  0  0  0  0
 14  5  1  0  0  0  0
 17 22  1  0  0  0  0
 18 19  1  0  0  0  0
 18 17  2  0  0  0  0
 19 20  2  0  0  0  0
 20 21  1  0  0  0  0
 21 25  1  0  0  0  0
 22 21  2  0  0  0  0
 23 17  1  0  0  0  0
 24 18  1  0  0  0  0
 26 27  1  0  0  0  0
 27 28  2  0  0  0  0
 27 32  1  0  0  0  0
 28 33  1  0  0  0  0
 29 34  1  0  0  0  0
 29 28  1  0  0  0  0
 30 29  2  0  0  0  0
 31 30  1  0  0  0  0
 31 26  2  0  0  0  0
 35 30  1  0  0  0  0
 36 35  2  0  0  0  0
 37 35  1  0  0  0  0
 38 39  1  0  0  0  0
 38 37  2  0  0  0  0
 40 38  1  0  0  0  0
 41 40  2  0  0  0  0
 41 43  1  0  0  0  0
 42 41  1  0  0  0  0
 43 45  2  0  0  0  0
 44 43  1  0  0  0  0
 45 37  1  0  0  0  0
M  END
>  <minimizedAffinity>
-5.49570942

>  <minimizedRMSD>
0.53156507

$$$$
