
 OpenBabel03242523553D

 45 48  0  0  1  0  0  0  0  0999 V2000
   42.8100   34.5230   38.7220 C   0  0  1  0  0  0  0  0  0  0  0  0
   42.9680   35.1790   40.0850 C   0  0  1  0  0  0  0  0  0  0  0  0
   41.6810   35.4120   40.6140 O   0  0  0  0  0  0  0  0  0  0  0  0
   40.7500   35.7640   39.6340 C   0  0  0  0  0  0  0  0  0  0  0  0
   40.4300   34.6020   38.7140 C   0  0  2  0  0  0  0  0  0  0  0  0
   41.6370   33.6070   38.8300 C   0  0  1  0  0  0  0  0  0  0  0  0
   43.7430   34.0070   38.4100 H   0  0  0  0  0  0  0  0  0  0  0  0
   43.5640   36.0920   40.0610 H   0  0  0  0  0  0  0  0  0  0  0  0
   41.0470   36.6710   39.0730 H   0  0  0  0  0  0  0  0  0  0  0  0
   39.8260   35.9880   40.1800 H   0  0  0  0  0  0  0  0  0  0  0  0
   39.5030   34.0730   39.0090 H   0  0  0  0  0  0  0  0  0  0  0  0
   41.4320   33.3420   39.9220 H   0  0  0  0  0  0  0  0  0  0  0  0
   42.5920   35.4890   37.7290 O   0  0  0  0  0  0  0  0  0  0  0  0
   43.4480   35.8420   37.4010 H   0  0  0  0  0  0  0  0  0  0  0  0
   40.4390   35.0310   37.3970 O   0  0  0  0  0  0  0  0  0  0  0  0
   39.7680   34.5760   36.8270 H   0  0  0  0  0  0  0  0  0  0  0  0
   43.4920   34.1760   40.9220 O   0  0  0  0  0  0  0  0  0  0  0  0
   44.5920   34.3090   41.6720 C   0  0  0  0  0  0  0  0  0  0  0  0
   45.8590   34.4260   41.0810 C   0  0  0  0  0  0  0  0  0  0  0  0
   46.9660   34.5630   41.8990 C   0  0  0  0  0  0  0  0  0  0  0  0
   46.7930   34.5810   43.2730 N   0  0  0  0  0  0  0  0  0  0  0  0
   45.5550   34.4650   43.8070 C   0  0  0  0  0  0  0  0  0  0  0  0
   44.4640   34.3300   43.0100 N   0  0  0  0  0  0  0  0  0  0  0  0
   45.9990   34.4120   40.0200 H   0  0  0  0  0  0  0  0  0  0  0  0
   45.4080   34.4780   44.8860 H   0  0  0  0  0  0  0  0  0  0  0  0
   48.3500   34.6700   41.3480 C   0  0  0  0  0  0  0  0  0  0  0  0
   49.0600   36.0110   41.5150 C   0  0  0  0  0  0  0  0  0  0  0  0
   49.4880   34.7040   42.2090 C   0  0  0  0  0  0  0  0  0  0  0  0
   48.4110   34.2120   40.3260 H   0  0  0  0  0  0  0  0  0  0  0  0
   48.5940   36.7860   42.1190 H   0  0  0  0  0  0  0  0  0  0  0  0
   49.7320   36.2870   40.6770 H   0  0  0  0  0  0  0  0  0  0  0  0
   50.4320   34.2170   41.8650 H   0  0  0  0  0  0  0  0  0  0  0  0
   49.4180   34.7070   43.3150 H   0  0  0  0  0  0  0  0  0  0  0  0
   41.4820   32.6740   37.8810 O   0  0  0  0  0  0  0  0  0  0  0  0
   40.8110   31.5160   37.8740 C   0  0  0  0  0  0  0  0  0  0  0  0
   39.5460   31.4570   37.4760 O   0  0  0  0  0  0  0  0  0  0  0  0
   41.1650   30.0970   38.2380 C   0  0  0  0  0  0  0  0  0  0  0  0
   42.0630   29.4030   37.5180 C   0  0  0  0  0  0  0  0  0  0  0  0
   42.5820   29.7440   36.6620 H   0  0  0  0  0  0  0  0  0  0  0  0
   42.4000   28.0870   37.8680 C   0  0  0  0  0  3  0  0  0  0  0  0
   41.8260   27.4680   38.9550 C   0  0  0  0  0  0  0  0  0  0  0  0
   42.0980   26.4560   39.2090 H   0  0  0  0  0  0  0  0  0  0  0  0
   40.9020   28.1300   39.7280 C   0  0  0  0  0  0  0  0  0  0  0  0
   40.4050   27.7210   40.5940 H   0  0  0  0  0  0  0  0  0  0  0  0
   40.6270   29.4000   39.3260 C   0  0  0  0  0  3  0  0  0  0  0  0
  1  7  1  6  0  0  0
  1  6  1  0  0  0  0
  1  2  1  0  0  0  0
  2  8  1  6  0  0  0
  2  3  1  0  0  0  0
  2 17  1  0  0  0  0
  4 10  1  0  0  0  0
  4  3  1  0  0  0  0
  5  6  1  0  0  0  0
  5 11  1  1  0  0  0
  5  4  1  0  0  0  0
  6 12  1  1  0  0  0
  9  4  1  0  0  0  0
 13  1  1  0  0  0  0
 14 13  1  0  0  0  0
 15  5  1  0  0  0  0
 16 15  1  0  0  0  0
 17 18  1  0  0  0  0
 18 23  1  0  0  0  0
 19 18  2  0  0  0  0
 19 20  1  0  0  0  0
 20 21  2  0  0  0  0
 21 22  1  0  0  0  0
 22 25  1  0  0  0  0
 23 22  2  0  0  0  0
 24 19  1  0  0  0  0
 26 27  1  0  0  0  0
 26 20  1  0  0  0  0
 26 28  1  0  0  0  0
 27 30  1  0  0  0  0
 27 28  1  0  0  0  0
 28 33  1  0  0  0  0
 29 26  1  0  0  0  0
 31 27  1  0  0  0  0
 32 28  1  0  0  0  0
 34  6  1  0  0  0  0
 35 34  1  0  0  0  0
 35 37  1  0  0  0  0
 36 35  2  0  0  0  0
 37 45  1  0  0  0  0
 38 40  1  0  0  0  0
 38 37  2  0  0  0  0
 39 38  1  0  0  0  0
 40 41  2  0  0  0  0
 41 42  1  0  0  0  0
 41 43  1  0  0  0  0
 43 44  1  0  0  0  0
 45 43  2  0  0  0  0
M  END
>  <minimizedAffinity>
-5.65318584

>  <minimizedRMSD>
0.169861898

$$$$
