
 OpenBabel03242523553D

 45 48  0  0  1  0  0  0  0  0999 V2000
   42.7920   34.3410   38.9170 C   0  0  1  0  0  0  0  0  0  0  0  0
   43.0080   35.1620   40.1780 C   0  0  1  0  0  0  0  0  0  0  0  0
   41.7460   35.5770   40.6560 O   0  0  0  0  0  0  0  0  0  0  0  0
   40.8490   35.8700   39.6260 C   0  0  0  0  0  0  0  0  0  0  0  0
   40.4280   34.6250   38.8700 C   0  0  2  0  0  0  0  0  0  0  0  0
   41.5420   33.5550   39.1360 C   0  0  1  0  0  0  0  0  0  0  0  0
   43.6750   33.7080   38.6890 H   0  0  0  0  0  0  0  0  0  0  0  0
   43.6810   36.0080   40.0370 H   0  0  0  0  0  0  0  0  0  0  0  0
   41.2240   36.6630   38.9490 H   0  0  0  0  0  0  0  0  0  0  0  0
   39.9490   36.2470   40.1260 H   0  0  0  0  0  0  0  0  0  0  0  0
   39.4580   34.2250   39.2250 H   0  0  0  0  0  0  0  0  0  0  0  0
   41.3160   33.4610   40.2520 H   0  0  0  0  0  0  0  0  0  0  0  0
   42.6590   35.1760   37.7980 O   0  0  0  0  0  0  0  0  0  0  0  0
   43.5420   35.4050   37.4350 H   0  0  0  0  0  0  0  0  0  0  0  0
   40.4730   34.8670   37.5070 O   0  0  0  0  0  0  0  0  0  0  0  0
   39.7650   34.3970   36.9980 H   0  0  0  0  0  0  0  0  0  0  0  0
   43.4420   34.2420   41.1510 O   0  0  0  0  0  0  0  0  0  0  0  0
   44.5820   34.3490   41.8440 C   0  0  0  0  0  0  0  0  0  0  0  0
   45.8150   34.4760   41.1890 C   0  0  0  0  0  0  0  0  0  0  0  0
   46.9660   34.5850   41.9490 C   0  0  0  0  0  0  0  0  0  0  0  0
   46.8670   34.5660   43.3310 N   0  0  0  0  0  0  0  0  0  0  0  0
   45.6600   34.4410   43.9270 C   0  0  0  0  0  0  0  0  0  0  0  0
   44.5260   34.3330   43.1870 N   0  0  0  0  0  0  0  0  0  0  0  0
   45.8980   34.4920   40.1220 H   0  0  0  0  0  0  0  0  0  0  0  0
   45.5710   34.4240   45.0130 H   0  0  0  0  0  0  0  0  0  0  0  0
   48.3180   34.7010   41.3270 C   0  0  0  0  0  0  0  0  0  0  0  0
   49.0580   36.0230   41.5180 C   0  0  0  0  0  0  0  0  0  0  0  0
   49.5030   34.6780   42.1230 C   0  0  0  0  0  0  0  0  0  0  0  0
   48.3150   34.2930   40.2830 H   0  0  0  0  0  0  0  0  0  0  0  0
   48.6380   36.7740   42.1840 H   0  0  0  0  0  0  0  0  0  0  0  0
   49.6870   36.3310   40.6580 H   0  0  0  0  0  0  0  0  0  0  0  0
   50.4180   34.1970   41.7040 H   0  0  0  0  0  0  0  0  0  0  0  0
   49.4940   34.6290   43.2310 H   0  0  0  0  0  0  0  0  0  0  0  0
   41.3060   32.5170   38.3230 O   0  0  0  0  0  0  0  0  0  0  0  0
   40.3850   31.5460   38.3640 C   0  0  0  0  0  0  0  0  0  0  0  0
   39.9880   30.9270   37.2590 O   0  0  0  0  0  0  0  0  0  0  0  0
   39.5960   30.8970   39.4720 C   0  0  0  0  0  0  0  0  0  0  0  0
   39.9460   29.6920   39.9540 C   0  0  0  0  0  0  0  0  0  0  0  0
   40.7540   29.0930   39.6260 H   0  0  0  0  0  0  0  0  0  0  0  0
   39.2160   29.0970   40.9960 C   0  0  0  0  0  3  0  0  0  0  0  0
   38.1270   29.7260   41.5540 C   0  0  0  0  0  0  0  0  0  0  0  0
   37.5810   29.2530   42.3530 H   0  0  0  0  0  0  0  0  0  0  0  0
   37.7250   30.9590   41.1010 C   0  0  0  0  0  0  0  0  0  0  0  0
   36.8850   31.5200   41.4800 H   0  0  0  0  0  0  0  0  0  0  0  0
   38.4800   31.4700   40.0900 C   0  0  0  0  0  3  0  0  0  0  0  0
  1  7  1  6  0  0  0
  1  6  1  0  0  0  0
  1  2  1  0  0  0  0
  2  8  1  6  0  0  0
  2  3  1  0  0  0  0
  2 17  1  0  0  0  0
  4 10  1  0  0  0  0
  4  3  1  0  0  0  0
  5  6  1  0  0  0  0
  5 11  1  1  0  0  0
  5  4  1  0  0  0  0
  6 12  1  1  0  0  0
  9  4  1  0  0  0  0
 13  1  1  0  0  0  0
 14 13  1  0  0  0  0
 15  5  1  0  0  0  0
 16 15  1  0  0  0  0
 17 18  1  0  0  0  0
 18 23  1  0  0  0  0
 19 18  2  0  0  0  0
 19 20  1  0  0  0  0
 20 21  2  0  0  0  0
 21 22  1  0  0  0  0
 22 25  1  0  0  0  0
 23 22  2  0  0  0  0
 24 19  1  0  0  0  0
 26 27  1  0  0  0  0
 26 20  1  0  0  0  0
 26 28  1  0  0  0  0
 27 28  1  0  0  0  0
 27 30  1  0  0  0  0
 28 33  1  0  0  0  0
 29 26  1  0  0  0  0
 31 27  1  0  0  0  0
 32 28  1  0  0  0  0
 34 35  1  0  0  0  0
 34  6  1  0  0  0  0
 35 37  1  0  0  0  0
 36 35  2  0  0  0  0
 37 38  2  0  0  0  0
 37 45  1  0  0  0  0
 38 40  1  0  0  0  0
 39 38  1  0  0  0  0
 40 41  2  0  0  0  0
 41 42  1  0  0  0  0
 43 44  1  0  0  0  0
 43 41  1  0  0  0  0
 45 43  2  0  0  0  0
M  END
>  <minimizedAffinity>
-6.35254812

>  <minimizedRMSD>
1.99272835

$$$$
