
 OpenBabel03242523543D

 45 48  0  0  1  0  0  0  0  0999 V2000
   42.8150   34.5180   38.7320 C   0  0  1  0  0  0  0  0  0  0  0  0
   42.9690   35.1770   40.0930 C   0  0  1  0  0  0  0  0  0  0  0  0
   41.6800   35.4120   40.6180 O   0  0  0  0  0  0  0  0  0  0  0  0
   40.7530   35.7620   39.6340 C   0  0  0  0  0  0  0  0  0  0  0  0
   40.4350   34.5990   38.7150 C   0  0  2  0  0  0  0  0  0  0  0  0
   41.6410   33.6030   38.8380 C   0  0  1  0  0  0  0  0  0  0  0  0
   43.7480   34.0000   38.4230 H   0  0  0  0  0  0  0  0  0  0  0  0
   43.5660   36.0900   40.0690 H   0  0  0  0  0  0  0  0  0  0  0  0
   41.0520   36.6680   39.0710 H   0  0  0  0  0  0  0  0  0  0  0  0
   39.8270   35.9880   40.1770 H   0  0  0  0  0  0  0  0  0  0  0  0
   39.5070   34.0710   39.0090 H   0  0  0  0  0  0  0  0  0  0  0  0
   41.4330   33.3410   39.9300 H   0  0  0  0  0  0  0  0  0  0  0  0
   42.6010   35.4810   37.7350 O   0  0  0  0  0  0  0  0  0  0  0  0
   43.4580   35.8330   37.4090 H   0  0  0  0  0  0  0  0  0  0  0  0
   40.4480   35.0250   37.3980 O   0  0  0  0  0  0  0  0  0  0  0  0
   39.7790   34.5680   36.8270 H   0  0  0  0  0  0  0  0  0  0  0  0
   43.4900   34.1760   40.9340 O   0  0  0  0  0  0  0  0  0  0  0  0
   44.5930   34.3070   41.6800 C   0  0  0  0  0  0  0  0  0  0  0  0
   45.8560   34.4290   41.0840 C   0  0  0  0  0  0  0  0  0  0  0  0
   46.9670   34.5630   41.8990 C   0  0  0  0  0  0  0  0  0  0  0  0
   46.8000   34.5740   43.2740 N   0  0  0  0  0  0  0  0  0  0  0  0
   45.5650   34.4530   43.8120 C   0  0  0  0  0  0  0  0  0  0  0  0
   44.4700   34.3210   43.0190 N   0  0  0  0  0  0  0  0  0  0  0  0
   45.9930   34.4210   40.0230 H   0  0  0  0  0  0  0  0  0  0  0  0
   45.4220   34.4600   44.8920 H   0  0  0  0  0  0  0  0  0  0  0  0
   48.3480   34.6760   41.3420 C   0  0  0  0  0  0  0  0  0  0  0  0
   49.0600   36.0150   41.5190 C   0  0  0  0  0  0  0  0  0  0  0  0
   49.4910   34.7010   42.1980 C   0  0  0  0  0  0  0  0  0  0  0  0
   48.4050   34.2270   40.3160 H   0  0  0  0  0  0  0  0  0  0  0  0
   48.5960   36.7840   42.1330 H   0  0  0  0  0  0  0  0  0  0  0  0
   49.7280   36.2980   40.6800 H   0  0  0  0  0  0  0  0  0  0  0  0
   50.4320   34.2170   41.8450 H   0  0  0  0  0  0  0  0  0  0  0  0
   49.4250   34.6940   43.3050 H   0  0  0  0  0  0  0  0  0  0  0  0
   41.4880   32.6680   37.8910 O   0  0  0  0  0  0  0  0  0  0  0  0
   40.8250   31.5050   37.8880 C   0  0  0  0  0  0  0  0  0  0  0  0
   39.5680   31.4310   37.4650 O   0  0  0  0  0  0  0  0  0  0  0  0
   41.1800   30.0940   38.2820 C   0  0  0  0  0  0  0  0  0  0  0  0
   42.1320   29.8540   39.1990 C   0  0  0  0  0  0  0  0  0  0  0  0
   42.7120   30.5760   39.7110 H   0  0  0  0  0  0  0  0  0  0  0  0
   42.4510   28.5380   39.5750 C   0  0  0  0  0  3  0  0  0  0  0  0
   41.8020   27.4610   39.0170 C   0  0  0  0  0  0  0  0  0  0  0  0
   42.0600   26.4590   39.3170 H   0  0  0  0  0  0  0  0  0  0  0  0
   40.8210   27.6480   38.0740 C   0  0  0  0  0  0  0  0  0  0  0  0
   40.2640   26.8630   37.5880 H   0  0  0  0  0  0  0  0  0  0  0  0
   40.5670   28.9490   37.7630 C   0  0  0  0  0  3  0  0  0  0  0  0
  1  7  1  6  0  0  0
  1  6  1  0  0  0  0
  1  2  1  0  0  0  0
  2  8  1  6  0  0  0
  2  3  1  0  0  0  0
  2 17  1  0  0  0  0
  4 10  1  0  0  0  0
  4  3  1  0  0  0  0
  5  6  1  0  0  0  0
  5 11  1  1  0  0  0
  5  4  1  0  0  0  0
  6 12  1  1  0  0  0
  9  4  1  0  0  0  0
 13  1  1  0  0  0  0
 14 13  1  0  0  0  0
 15  5  1  0  0  0  0
 16 15  1  0  0  0  0
 17 18  1  0  0  0  0
 18 23  1  0  0  0  0
 19 18  2  0  0  0  0
 19 20  1  0  0  0  0
 20 21  2  0  0  0  0
 21 22  1  0  0  0  0
 22 25  1  0  0  0  0
 23 22  2  0  0  0  0
 24 19  1  0  0  0  0
 26 27  1  0  0  0  0
 26 20  1  0  0  0  0
 26 28  1  0  0  0  0
 27 30  1  0  0  0  0
 27 28  1  0  0  0  0
 28 33  1  0  0  0  0
 29 26  1  0  0  0  0
 31 27  1  0  0  0  0
 32 28  1  0  0  0  0
 34  6  1  0  0  0  0
 35 34  1  0  0  0  0
 35 37  1  0  0  0  0
 36 35  2  0  0  0  0
 37 38  1  0  0  0  0
 38 40  2  0  0  0  0
 38 39  1  0  0  0  0
 41 42  1  0  0  0  0
 41 40  1  0  0  0  0
 43 41  2  0  0  0  0
 44 43  1  0  0  0  0
 45 43  1  0  0  0  0
 45 37  2  0  0  0  0
M  END
>  <minimizedAffinity>
-5.60532761

>  <minimizedRMSD>
0.146815017

$$$$
