
 OpenBabel03242523543D

 45 48  0  0  1  0  0  0  0  0999 V2000
   42.8180   34.4920   38.7640 C   0  0  1  0  0  0  0  0  0  0  0  0
   42.9650   35.1780   40.1130 C   0  0  1  0  0  0  0  0  0  0  0  0
   41.6720   35.4150   40.6290 O   0  0  0  0  0  0  0  0  0  0  0  0
   40.7460   35.7410   39.6370 C   0  0  0  0  0  0  0  0  0  0  0  0
   40.4380   34.5580   38.7390 C   0  0  2  0  0  0  0  0  0  0  0  0
   41.6480   33.5730   38.8840 C   0  0  1  0  0  0  0  0  0  0  0  0
   43.7550   33.9740   38.4680 H   0  0  0  0  0  0  0  0  0  0  0  0
   43.5560   36.0940   40.0730 H   0  0  0  0  0  0  0  0  0  0  0  0
   41.0420   36.6380   39.0570 H   0  0  0  0  0  0  0  0  0  0  0  0
   39.8180   35.9720   40.1720 H   0  0  0  0  0  0  0  0  0  0  0  0
   39.5110   34.0310   39.0410 H   0  0  0  0  0  0  0  0  0  0  0  0
   41.4390   33.3300   39.9810 H   0  0  0  0  0  0  0  0  0  0  0  0
   42.6010   35.4350   37.7490 O   0  0  0  0  0  0  0  0  0  0  0  0
   43.4570   35.7850   37.4180 H   0  0  0  0  0  0  0  0  0  0  0  0
   40.4520   34.9590   37.4140 O   0  0  0  0  0  0  0  0  0  0  0  0
   39.7870   34.4880   36.8500 H   0  0  0  0  0  0  0  0  0  0  0  0
   43.4880   34.1960   40.9740 O   0  0  0  0  0  0  0  0  0  0  0  0
   44.5970   34.3420   41.7090 C   0  0  0  0  0  0  0  0  0  0  0  0
   45.8570   34.4450   41.1010 C   0  0  0  0  0  0  0  0  0  0  0  0
   46.9740   34.5960   41.9030 C   0  0  0  0  0  0  0  0  0  0  0  0
   46.8170   34.6410   43.2790 N   0  0  0  0  0  0  0  0  0  0  0  0
   45.5860   34.5370   43.8290 C   0  0  0  0  0  0  0  0  0  0  0  0
   44.4840   34.3890   43.0470 N   0  0  0  0  0  0  0  0  0  0  0  0
   45.9850   34.4110   40.0390 H   0  0  0  0  0  0  0  0  0  0  0  0
   45.4510   34.5710   44.9100 H   0  0  0  0  0  0  0  0  0  0  0  0
   48.3510   34.6910   41.3340 C   0  0  0  0  0  0  0  0  0  0  0  0
   49.0800   36.0220   41.5000 C   0  0  0  0  0  0  0  0  0  0  0  0
   49.5020   34.7050   42.1790 C   0  0  0  0  0  0  0  0  0  0  0  0
   48.3930   34.2390   40.3080 H   0  0  0  0  0  0  0  0  0  0  0  0
   48.6310   36.7980   42.1170 H   0  0  0  0  0  0  0  0  0  0  0  0
   49.7440   36.2950   40.6550 H   0  0  0  0  0  0  0  0  0  0  0  0
   50.4340   34.2090   41.8190 H   0  0  0  0  0  0  0  0  0  0  0  0
   49.4460   34.7010   43.2870 H   0  0  0  0  0  0  0  0  0  0  0  0
   41.5050   32.6180   37.9550 O   0  0  0  0  0  0  0  0  0  0  0  0
   40.8420   31.4550   37.9700 C   0  0  0  0  0  0  0  0  0  0  0  0
   39.6690   31.3230   37.3620 O   0  0  0  0  0  0  0  0  0  0  0  0
   41.1210   30.0980   38.5640 C   0  0  0  0  0  0  0  0  0  0  0  0
   41.9240   29.2230   37.9370 C   0  0  0  0  0  0  0  0  0  0  0  0
   42.4140   29.3690   37.0100 H   0  0  0  0  0  0  0  0  0  0  0  0
   42.1920   27.9640   38.5000 C   0  0  0  0  0  3  0  0  0  0  0  0
   41.6450   27.5900   39.7060 C   0  0  0  0  0  0  0  0  0  0  0  0
   41.8630   26.6210   40.1220 H   0  0  0  0  0  0  0  0  0  0  0  0
   40.8160   28.4460   40.3910 C   0  0  0  0  0  0  0  0  0  0  0  0
   40.3450   28.2350   41.3380 H   0  0  0  0  0  0  0  0  0  0  0  0
   40.6040   29.6460   39.7820 C   0  0  0  0  0  3  0  0  0  0  0  0
  1  7  1  6  0  0  0
  1  6  1  0  0  0  0
  1  2  1  0  0  0  0
  2  8  1  6  0  0  0
  2  3  1  0  0  0  0
  2 17  1  0  0  0  0
  4 10  1  0  0  0  0
  4  3  1  0  0  0  0
  5  6  1  0  0  0  0
  5 11  1  1  0  0  0
  5  4  1  0  0  0  0
  6 12  1  1  0  0  0
  9  4  1  0  0  0  0
 13  1  1  0  0  0  0
 14 13  1  0  0  0  0
 15  5  1  0  0  0  0
 16 15  1  0  0  0  0
 17 18  1  0  0  0  0
 18 23  1  0  0  0  0
 19 18  2  0  0  0  0
 19 20  1  0  0  0  0
 20 21  2  0  0  0  0
 21 22  1  0  0  0  0
 22 25  1  0  0  0  0
 23 22  2  0  0  0  0
 24 19  1  0  0  0  0
 26 27  1  0  0  0  0
 26 20  1  0  0  0  0
 26 28  1  0  0  0  0
 27 30  1  0  0  0  0
 27 28  1  0  0  0  0
 28 33  1  0  0  0  0
 29 26  1  0  0  0  0
 31 27  1  0  0  0  0
 32 28  1  0  0  0  0
 34 35  1  0  0  0  0
 34  6  1  0  0  0  0
 35 37  1  0  0  0  0
 36 35  2  0  0  0  0
 37 45  1  0  0  0  0
 38 40  1  0  0  0  0
 38 37  2  0  0  0  0
 39 38  1  0  0  0  0
 40 41  2  0  0  0  0
 41 42  1  0  0  0  0
 41 43  1  0  0  0  0
 43 44  1  0  0  0  0
 45 43  2  0  0  0  0
M  END
>  <minimizedAffinity>
-5.67688513

>  <minimizedRMSD>
0.295639753

$$$$
