
 OpenBabel03242523563D

 45 48  0  0  1  0  0  0  0  0999 V2000
   36.8880   30.4770   40.5930 C   0  0  1  0  0  0  0  0  0  0  0  0
   36.5430   29.8460   39.2540 C   0  0  1  0  0  0  0  0  0  0  0  0
   37.0880   30.6540   38.2330 O   0  0  0  0  0  0  0  0  0  0  0  0
   37.0390   32.0160   38.5370 C   0  0  0  0  0  0  0  0  0  0  0  0
   37.9840   32.3770   39.6670 C   0  0  2  0  0  0  0  0  0  0  0  0
   38.2600   31.0470   40.4490 C   0  0  1  0  0  0  0  0  0  0  0  0
   36.8020   29.7420   41.4220 H   0  0  0  0  0  0  0  0  0  0  0  0
   35.4740   29.6850   39.1110 H   0  0  0  0  0  0  0  0  0  0  0  0
   36.0070   32.3710   38.7270 H   0  0  0  0  0  0  0  0  0  0  0  0
   37.4170   32.5260   37.6440 H   0  0  0  0  0  0  0  0  0  0  0  0
   38.9480   32.7790   39.2970 H   0  0  0  0  0  0  0  0  0  0  0  0
   38.8150   30.5450   39.5850 H   0  0  0  0  0  0  0  0  0  0  0  0
   35.9680   31.4840   40.9190 O   0  0  0  0  0  0  0  0  0  0  0  0
   35.1810   31.0980   41.3630 H   0  0  0  0  0  0  0  0  0  0  0  0
   37.3390   33.2030   40.5720 O   0  0  0  0  0  0  0  0  0  0  0  0
   37.9320   33.8840   40.9800 H   0  0  0  0  0  0  0  0  0  0  0  0
   37.3120   28.6690   39.1880 O   0  0  0  0  0  0  0  0  0  0  0  0
   36.8070   27.4360   39.0650 C   0  0  0  0  0  0  0  0  0  0  0  0
   37.1200   26.4320   39.9920 C   0  0  0  0  0  0  0  0  0  0  0  0
   36.5710   25.1730   39.8220 C   0  0  0  0  0  0  0  0  0  0  0  0
   35.7310   24.9420   38.7450 N   0  0  0  0  0  0  0  0  0  0  0  0
   35.4530   25.9350   37.8710 C   0  0  0  0  0  0  0  0  0  0  0  0
   35.9880   27.1740   38.0320 N   0  0  0  0  0  0  0  0  0  0  0  0
   37.7680   26.6040   40.8260 H   0  0  0  0  0  0  0  0  0  0  0  0
   34.7940   25.7630   37.0210 H   0  0  0  0  0  0  0  0  0  0  0  0
   36.8730   24.0450   40.7540 C   0  0  0  0  0  0  0  0  0  0  0  0
   38.2620   24.0220   41.3880 C   0  0  0  0  0  0  0  0  0  0  0  0
   36.9510   24.2520   42.1640 C   0  0  0  0  0  0  0  0  0  0  0  0
   36.5150   23.0700   40.3310 H   0  0  0  0  0  0  0  0  0  0  0  0
   38.9270   24.8700   41.2370 H   0  0  0  0  0  0  0  0  0  0  0  0
   38.6800   23.0080   41.5510 H   0  0  0  0  0  0  0  0  0  0  0  0
   36.5990   23.4390   42.8430 H   0  0  0  0  0  0  0  0  0  0  0  0
   36.8500   25.2480   42.6430 H   0  0  0  0  0  0  0  0  0  0  0  0
   38.9250   31.3670   41.5670 O   0  0  0  0  0  0  0  0  0  0  0  0
   39.6730   30.6310   42.3990 C   0  0  0  0  0  0  0  0  0  0  0  0
   40.7080   31.1580   43.0420 O   0  0  0  0  0  0  0  0  0  0  0  0
   39.6320   29.1930   42.8490 C   0  0  0  0  0  0  0  0  0  0  0  0
   38.4850   28.6350   43.2740 C   0  0  0  0  0  0  0  0  0  0  0  0
   37.5420   29.1110   43.3460 H   0  0  0  0  0  0  0  0  0  0  0  0
   38.4480   27.2920   43.6800 C   0  0  0  0  0  3  0  0  0  0  0  0
   39.5790   26.5080   43.6560 C   0  0  0  0  0  0  0  0  0  0  0  0
   39.5310   25.4790   43.9720 H   0  0  0  0  0  0  0  0  0  0  0  0
   40.7790   27.0270   43.2330 C   0  0  0  0  0  0  0  0  0  0  0  0
   41.7110   26.4850   43.1830 H   0  0  0  0  0  0  0  0  0  0  0  0
   40.7360   28.3350   42.8560 C   0  0  0  0  0  3  0  0  0  0  0  0
  1 13  1  0  0  0  0
  1  7  1  1  0  0  0
  2  8  1  6  0  0  0
  2  1  1  0  0  0  0
  3  4  1  0  0  0  0
  3  2  1  0  0  0  0
  4  9  1  0  0  0  0
  4  5  1  0  0  0  0
  5 11  1  6  0  0  0
  5  6  1  0  0  0  0
  5 15  1  0  0  0  0
  6 12  1  6  0  0  0
  6  1  1  0  0  0  0
  6 34  1  0  0  0  0
 10  4  1  0  0  0  0
 13 14  1  0  0  0  0
 15 16  1  0  0  0  0
 17  2  1  0  0  0  0
 18 17  1  0  0  0  0
 18 19  1  0  0  0  0
 19 24  1  0  0  0  0
 20 19  2  0  0  0  0
 20 26  1  0  0  0  0
 21 20  1  0  0  0  0
 22 23  1  0  0  0  0
 22 21  2  0  0  0  0
 23 18  2  0  0  0  0
 25 22  1  0  0  0  0
 26 27  1  0  0  0  0
 26 28  1  0  0  0  0
 27 31  1  0  0  0  0
 27 28  1  0  0  0  0
 28 33  1  0  0  0  0
 28 32  1  0  0  0  0
 29 26  1  0  0  0  0
 30 27  1  0  0  0  0
 34 35  1  0  0  0  0
 35 37  1  0  0  0  0
 35 36  2  0  0  0  0
 37 45  2  0  0  0  0
 37 38  1  0  0  0  0
 38 39  1  0  0  0  0
 38 40  2  0  0  0  0
 41 40  1  0  0  0  0
 41 42  1  0  0  0  0
 43 41  2  0  0  0  0
 44 43  1  0  0  0  0
 45 43  1  0  0  0  0
M  END
>  <minimizedAffinity>
-6.34968662

$$$$

 OpenBabel03242523563D

 45 48  0  0  1  0  0  0  0  0999 V2000
   39.9880   31.2790   40.3150 C   0  0  1  0  0  0  0  0  0  0  0  0
   41.2380   31.3160   41.1780 C   0  0  1  0  0  0  0  0  0  0  0  0
   41.5930   32.6680   41.3810 O   0  0  0  0  0  0  0  0  0  0  0  0
   41.3400   33.4660   40.2640 C   0  0  0  0  0  0  0  0  0  0  0  0
   39.8540   33.6370   40.0160 C   0  0  2  0  0  0  0  0  0  0  0  0
   39.1490   32.4380   40.7390 C   0  0  1  0  0  0  0  0  0  0  0  0
   39.4640   30.3030   40.4010 H   0  0  0  0  0  0  0  0  0  0  0  0
   42.0680   30.7410   40.7660 H   0  0  0  0  0  0  0  0  0  0  0  0
   41.8760   33.1140   39.3600 H   0  0  0  0  0  0  0  0  0  0  0  0
   41.7250   34.4580   40.5240 H   0  0  0  0  0  0  0  0  0  0  0  0
   39.4630   34.5850   40.4350 H   0  0  0  0  0  0  0  0  0  0  0  0
   39.4380   32.7810   41.7890 H   0  0  0  0  0  0  0  0  0  0  0  0
   40.3190   31.3810   38.9560 O   0  0  0  0  0  0  0  0  0  0  0  0
   40.5350   30.4960   38.5880 H   0  0  0  0  0  0  0  0  0  0  0  0
   39.5800   33.4620   38.6690 O   0  0  0  0  0  0  0  0  0  0  0  0
   38.8490   34.0420   38.3350 H   0  0  0  0  0  0  0  0  0  0  0  0
   40.8230   30.8900   42.4530 O   0  0  0  0  0  0  0  0  0  0  0  0
   40.5150   29.6260   42.7690 C   0  0  0  0  0  0  0  0  0  0  0  0
   39.1790   29.2180   42.8890 C   0  0  0  0  0  0  0  0  0  0  0  0
   38.9120   27.9000   43.2170 C   0  0  0  0  0  0  0  0  0  0  0  0
   39.9670   27.0250   43.4150 N   0  0  0  0  0  0  0  0  0  0  0  0
   41.2430   27.4560   43.2920 C   0  0  0  0  0  0  0  0  0  0  0  0
   41.5130   28.7490   42.9710 N   0  0  0  0  0  0  0  0  0  0  0  0
   38.3590   29.8880   42.7370 H   0  0  0  0  0  0  0  0  0  0  0  0
   42.0810   26.7770   43.4470 H   0  0  0  0  0  0  0  0  0  0  0  0
   37.5170   27.3930   43.3840 C   0  0  0  0  0  0  0  0  0  0  0  0
   36.5090   27.7630   42.2980 C   0  0  0  0  0  0  0  0  0  0  0  0
   37.0130   26.3330   42.5710 C   0  0  0  0  0  0  0  0  0  0  0  0
   37.1650   27.5290   44.4400 H   0  0  0  0  0  0  0  0  0  0  0  0
   36.8600   28.2700   41.4020 H   0  0  0  0  0  0  0  0  0  0  0  0
   35.4750   27.9260   42.6630 H   0  0  0  0  0  0  0  0  0  0  0  0
   36.2970   25.6070   43.0240 H   0  0  0  0  0  0  0  0  0  0  0  0
   37.5910   25.8670   41.7470 H   0  0  0  0  0  0  0  0  0  0  0  0
   37.8610   32.4460   40.3700 O   0  0  0  0  0  0  0  0  0  0  0  0
   36.9580   31.4630   40.2700 C   0  0  0  0  0  0  0  0  0  0  0  0
   36.2320   31.0870   41.3160 O   0  0  0  0  0  0  0  0  0  0  0  0
   36.4970   30.5740   39.1440 C   0  0  0  0  0  0  0  0  0  0  0  0
   37.0500   30.6660   37.9220 C   0  0  0  0  0  0  0  0  0  0  0  0
   37.8160   31.3350   37.6260 H   0  0  0  0  0  0  0  0  0  0  0  0
   36.6280   29.8270   36.8780 C   0  0  0  0  0  3  0  0  0  0  0  0
   35.6390   28.8900   37.0720 C   0  0  0  0  0  0  0  0  0  0  0  0
   35.3280   28.2550   36.2580 H   0  0  0  0  0  0  0  0  0  0  0  0
   35.0380   28.7530   38.3000 C   0  0  0  0  0  0  0  0  0  0  0  0
   34.2570   28.0470   38.5390 H   0  0  0  0  0  0  0  0  0  0  0  0
   35.5000   29.6010   39.2610 C   0  0  0  0  0  3  0  0  0  0  0  0
  1  7  1  1  0  0  0
  1  6  1  0  0  0  0
  1  2  1  0  0  0  0
  2  8  1  6  0  0  0
  2  3  1  0  0  0  0
  2 17  1  0  0  0  0
  4 10  1  0  0  0  0
  4  3  1  0  0  0  0
  5  4  1  0  0  0  0
  5 11  1  1  0  0  0
  5  6  1  0  0  0  0
  6 12  1  1  0  0  0
  9  4  1  0  0  0  0
 13  1  1  0  0  0  0
 14 13  1  0  0  0  0
 15  5  1  0  0  0  0
 16 15  1  0  0  0  0
 17 18  1  0  0  0  0
 18 19  2  0  0  0  0
 18 23  1  0  0  0  0
 19 20  1  0  0  0  0
 20 26  1  0  0  0  0
 20 21  2  0  0  0  0
 22 21  1  0  0  0  0
 22 25  1  0  0  0  0
 23 22  2  0  0  0  0
 24 19  1  0  0  0  0
 26 29  1  0  0  0  0
 27 28  1  0  0  0  0
 27 31  1  0  0  0  0
 27 26  1  0  0  0  0
 28 32  1  0  0  0  0
 28 26  1  0  0  0  0
 30 27  1  0  0  0  0
 33 28  1  0  0  0  0
 34  6  1  0  0  0  0
 35 34  1  0  0  0  0
 35 36  2  0  0  0  0
 37 45  1  0  0  0  0
 37 35  1  0  0  0  0
 38 37  2  0  0  0  0
 39 38  1  0  0  0  0
 40 41  2  0  0  0  0
 40 38  1  0  0  0  0
 41 43  1  0  0  0  0
 42 41  1  0  0  0  0
 43 44  1  0  0  0  0
 43 45  2  0  0  0  0
M  END
>  <minimizedAffinity>
-6.08756447

$$$$

 OpenBabel03242523563D

 45 48  0  0  1  0  0  0  0  0999 V2000
   35.8140   28.7710   40.1050 C   0  0  1  0  0  0  0  0  0  0  0  0
   36.2670   28.8650   38.6570 C   0  0  1  0  0  0  0  0  0  0  0  0
   37.0780   30.0130   38.5230 O   0  0  0  0  0  0  0  0  0  0  0  0
   36.6470   31.0750   39.3210 C   0  0  0  0  0  0  0  0  0  0  0  0
   36.8590   30.7960   40.7960 C   0  0  2  0  0  0  0  0  0  0  0  0
   36.9620   29.2380   40.9360 C   0  0  1  0  0  0  0  0  0  0  0  0
   35.4770   27.7430   40.3590 H   0  0  0  0  0  0  0  0  0  0  0  0
   35.4430   28.8700   37.9430 H   0  0  0  0  0  0  0  0  0  0  0  0
   35.6050   31.3770   39.0990 H   0  0  0  0  0  0  0  0  0  0  0  0
   37.3070   31.9130   39.0670 H   0  0  0  0  0  0  0  0  0  0  0  0
   37.7930   31.2510   41.1810 H   0  0  0  0  0  0  0  0  0  0  0  0
   37.9400   29.1570   40.3520 H   0  0  0  0  0  0  0  0  0  0  0  0
   34.6860   29.5760   40.3250 O   0  0  0  0  0  0  0  0  0  0  0  0
   33.8660   29.0880   40.0920 H   0  0  0  0  0  0  0  0  0  0  0  0
   35.7250   31.1510   41.5070 O   0  0  0  0  0  0  0  0  0  0  0  0
   35.9200   31.5160   42.4080 H   0  0  0  0  0  0  0  0  0  0  0  0
   37.1700   27.8010   38.4810 O   0  0  0  0  0  0  0  0  0  0  0  0
   36.8150   26.5270   38.2740 C   0  0  0  0  0  0  0  0  0  0  0  0
   37.1320   25.5290   39.2060 C   0  0  0  0  0  0  0  0  0  0  0  0
   36.7420   24.2270   38.9470 C   0  0  0  0  0  0  0  0  0  0  0  0
   36.0490   23.9480   37.7800 N   0  0  0  0  0  0  0  0  0  0  0  0
   35.7610   24.9380   36.9050 C   0  0  0  0  0  0  0  0  0  0  0  0
   36.1420   26.2180   37.1510 N   0  0  0  0  0  0  0  0  0  0  0  0
   37.6670   25.7380   40.1090 H   0  0  0  0  0  0  0  0  0  0  0  0
   35.2180   24.7290   35.9840 H   0  0  0  0  0  0  0  0  0  0  0  0
   37.0610   23.1050   39.8790 C   0  0  0  0  0  0  0  0  0  0  0  0
   37.0540   21.6940   39.2950 C   0  0  0  0  0  0  0  0  0  0  0  0
   38.3120   22.4190   39.8100 C   0  0  0  0  0  0  0  0  0  0  0  0
   36.5230   23.2290   40.8550 H   0  0  0  0  0  0  0  0  0  0  0  0
   36.9360   21.5670   38.2210 H   0  0  0  0  0  0  0  0  0  0  0  0
   36.7030   20.9060   39.9910 H   0  0  0  0  0  0  0  0  0  0  0  0
   38.7720   22.0520   40.7580 H   0  0  0  0  0  0  0  0  0  0  0  0
   39.0850   22.6340   39.0440 H   0  0  0  0  0  0  0  0  0  0  0  0
   36.9450   28.9490   42.2450 O   0  0  0  0  0  0  0  0  0  0  0  0
   37.1210   27.7970   42.9030 C   0  0  0  0  0  0  0  0  0  0  0  0
   36.1620   27.2880   43.6680 O   0  0  0  0  0  0  0  0  0  0  0  0
   38.2570   26.8120   43.0060 C   0  0  0  0  0  0  0  0  0  0  0  0
   38.1280   25.5580   42.5400 C   0  0  0  0  0  0  0  0  0  0  0  0
   37.2670   25.1400   42.0850 H   0  0  0  0  0  0  0  0  0  0  0  0
   39.1930   24.6470   42.6250 C   0  0  0  0  0  3  0  0  0  0  0  0
   40.3960   25.0070   43.1860 C   0  0  0  0  0  0  0  0  0  0  0  0
   41.2020   24.2940   43.2420 H   0  0  0  0  0  0  0  0  0  0  0  0
   40.5840   26.2760   43.6800 C   0  0  0  0  0  0  0  0  0  0  0  0
   41.4920   26.6410   44.1350 H   0  0  0  0  0  0  0  0  0  0  0  0
   39.5070   27.1010   43.5620 C   0  0  0  0  0  3  0  0  0  0  0  0
  1 13  1  0  0  0  0
  1  7  1  1  0  0  0
  1  6  1  0  0  0  0
  2  8  1  6  0  0  0
  2  1  1  0  0  0  0
  3  2  1  0  0  0  0
  3  4  1  0  0  0  0
  4  5  1  0  0  0  0
  5  6  1  0  0  0  0
  5 11  1  1  0  0  0
  5 15  1  0  0  0  0
  6 12  1  6  0  0  0
  6 34  1  0  0  0  0
  9  4  1  0  0  0  0
 10  4  1  0  0  0  0
 14 13  1  0  0  0  0
 15 16  1  0  0  0  0
 17  2  1  0  0  0  0
 18 17  1  0  0  0  0
 18 19  1  0  0  0  0
 19 24  1  0  0  0  0
 20 19  2  0  0  0  0
 20 26  1  0  0  0  0
 21 20  1  0  0  0  0
 22 23  1  0  0  0  0
 22 21  2  0  0  0  0
 23 18  2  0  0  0  0
 25 22  1  0  0  0  0
 26 29  1  0  0  0  0
 27 28  1  0  0  0  0
 27 26  1  0  0  0  0
 27 31  1  0  0  0  0
 28 26  1  0  0  0  0
 28 32  1  0  0  0  0
 30 27  1  0  0  0  0
 33 28  1  0  0  0  0
 34 35  1  0  0  0  0
 35 37  1  0  0  0  0
 35 36  2  0  0  0  0
 37 45  1  0  0  0  0
 38 40  1  0  0  0  0
 38 37  2  0  0  0  0
 39 38  1  0  0  0  0
 40 41  2  0  0  0  0
 41 42  1  0  0  0  0
 41 43  1  0  0  0  0
 43 44  1  0  0  0  0
 45 43  2  0  0  0  0
M  END
>  <minimizedAffinity>
-6.08265543

$$$$

 OpenBabel03242523563D

 45 48  0  0  1  0  0  0  0  0999 V2000
   40.1990   30.2590   38.3760 C   0  0  1  0  0  0  0  0  0  0  0  0
   41.5810   29.8030   38.8160 C   0  0  1  0  0  0  0  0  0  0  0  0
   42.4560   30.9080   38.7400 O   0  0  0  0  0  0  0  0  0  0  0  0
   42.1720   31.7470   37.6600 C   0  0  0  0  0  0  0  0  0  0  0  0
   40.8600   32.4850   37.8470 C   0  0  2  0  0  0  0  0  0  0  0  0
   40.0340   31.6520   38.8870 C   0  0  1  0  0  0  0  0  0  0  0  0
   39.4090   29.5640   38.7320 H   0  0  0  0  0  0  0  0  0  0  0  0
   41.9590   28.9510   38.2490 H   0  0  0  0  0  0  0  0  0  0  0  0
   42.2180   31.2190   36.6880 H   0  0  0  0  0  0  0  0  0  0  0  0
   42.9590   32.5100   37.6720 H   0  0  0  0  0  0  0  0  0  0  0  0
   41.0060   33.5080   38.2450 H   0  0  0  0  0  0  0  0  0  0  0  0
   40.7510   31.8500   39.7540 H   0  0  0  0  0  0  0  0  0  0  0  0
   40.0900   30.2310   36.9780 O   0  0  0  0  0  0  0  0  0  0  0  0
   39.8320   29.3330   36.6730 H   0  0  0  0  0  0  0  0  0  0  0  0
   40.1240   32.4360   36.6750 O   0  0  0  0  0  0  0  0  0  0  0  0
   39.5950   33.2570   36.5050 H   0  0  0  0  0  0  0  0  0  0  0  0
   41.4700   29.5650   40.1990 O   0  0  0  0  0  0  0  0  0  0  0  0
   40.9040   28.4810   40.7420 C   0  0  0  0  0  0  0  0  0  0  0  0
   39.9280   28.6010   41.7420 C   0  0  0  0  0  0  0  0  0  0  0  0
   39.3720   27.4500   42.2710 C   0  0  0  0  0  0  0  0  0  0  0  0
   39.7910   26.2170   41.7990 N   0  0  0  0  0  0  0  0  0  0  0  0
   40.7350   26.1420   40.8340 C   0  0  0  0  0  0  0  0  0  0  0  0
   41.2870   27.2670   40.3100 N   0  0  0  0  0  0  0  0  0  0  0  0
   39.6000   29.5500   42.1110 H   0  0  0  0  0  0  0  0  0  0  0  0
   41.0720   25.1770   40.4560 H   0  0  0  0  0  0  0  0  0  0  0  0
   38.3440   27.4930   43.3540 C   0  0  0  0  0  0  0  0  0  0  0  0
   37.4900   28.7550   43.4500 C   0  0  0  0  0  0  0  0  0  0  0  0
   36.9530   27.3650   43.0580 C   0  0  0  0  0  0  0  0  0  0  0  0
   38.7660   27.1180   44.3220 H   0  0  0  0  0  0  0  0  0  0  0  0
   37.5740   29.5120   42.6720 H   0  0  0  0  0  0  0  0  0  0  0  0
   37.2060   29.0450   44.4820 H   0  0  0  0  0  0  0  0  0  0  0  0
   36.2980   26.8360   43.7900 H   0  0  0  0  0  0  0  0  0  0  0  0
   36.5520   27.2830   42.0270 H   0  0  0  0  0  0  0  0  0  0  0  0
   38.7960   32.1630   38.9200 O   0  0  0  0  0  0  0  0  0  0  0  0
   37.6910   31.7760   39.5700 C   0  0  0  0  0  0  0  0  0  0  0  0
   37.3040   32.3780   40.6880 O   0  0  0  0  0  0  0  0  0  0  0  0
   36.6500   30.7140   39.3260 C   0  0  0  0  0  0  0  0  0  0  0  0
   36.4000   30.2650   38.0830 C   0  0  0  0  0  0  0  0  0  0  0  0
   36.8670   30.5910   37.1900 H   0  0  0  0  0  0  0  0  0  0  0  0
   35.4400   29.2660   37.8610 C   0  0  0  0  0  3  0  0  0  0  0  0
   34.7280   28.7170   38.9020 C   0  0  0  0  0  0  0  0  0  0  0  0
   33.9940   27.9500   38.7120 H   0  0  0  0  0  0  0  0  0  0  0  0
   34.9410   29.1380   40.1930 C   0  0  0  0  0  0  0  0  0  0  0  0
   34.4290   28.7630   41.0660 H   0  0  0  0  0  0  0  0  0  0  0  0
   35.8870   30.1090   40.3280 C   0  0  0  0  0  3  0  0  0  0  0  0
  1  7  1  1  0  0  0
  1  2  1  0  0  0  0
  1  6  1  0  0  0  0
  2  8  1  6  0  0  0
  2 17  1  0  0  0  0
  3  2  1  0  0  0  0
  4 10  1  0  0  0  0
  4  5  1  0  0  0  0
  4  3  1  0  0  0  0
  5 11  1  1  0  0  0
  5  6  1  0  0  0  0
  6 34  1  0  0  0  0
  6 12  1  1  0  0  0
  9  4  1  0  0  0  0
 13  1  1  0  0  0  0
 14 13  1  0  0  0  0
 15  5  1  0  0  0  0
 16 15  1  0  0  0  0
 17 18  1  0  0  0  0
 18 19  1  0  0  0  0
 19 24  1  0  0  0  0
 19 20  2  0  0  0  0
 20 26  1  0  0  0  0
 21 20  1  0  0  0  0
 22 21  2  0  0  0  0
 23 18  2  0  0  0  0
 23 22  1  0  0  0  0
 25 22  1  0  0  0  0
 26 27  1  0  0  0  0
 26 29  1  0  0  0  0
 27 31  1  0  0  0  0
 28 26  1  0  0  0  0
 28 27  1  0  0  0  0
 28 32  1  0  0  0  0
 30 27  1  0  0  0  0
 33 28  1  0  0  0  0
 34 35  1  0  0  0  0
 35 36  2  0  0  0  0
 37 35  1  0  0  0  0
 37 45  1  0  0  0  0
 38 37  2  0  0  0  0
 39 38  1  0  0  0  0
 40 38  1  0  0  0  0
 40 41  2  0  0  0  0
 41 43  1  0  0  0  0
 42 41  1  0  0  0  0
 43 45  2  0  0  0  0
 43 44  1  0  0  0  0
M  END
>  <minimizedAffinity>
-6.03200197

$$$$

 OpenBabel03242523563D

 45 48  0  0  1  0  0  0  0  0999 V2000
   38.8630   31.5440   39.9610 C   0  0  1  0  0  0  0  0  0  0  0  0
   39.6000   32.3690   41.0030 C   0  0  1  0  0  0  0  0  0  0  0  0
   38.9180   33.5950   41.1590 O   0  0  0  0  0  0  0  0  0  0  0  0
   38.3840   34.0710   39.9590 C   0  0  0  0  0  0  0  0  0  0  0  0
   37.2350   33.2110   39.4700 C   0  0  2  0  0  0  0  0  0  0  0  0
   37.4090   31.8140   40.1610 C   0  0  1  0  0  0  0  0  0  0  0  0
   39.1240   30.4670   40.0360 H   0  0  0  0  0  0  0  0  0  0  0  0
   40.6540   32.5230   40.7700 H   0  0  0  0  0  0  0  0  0  0  0  0
   39.1560   34.2180   39.1790 H   0  0  0  0  0  0  0  0  0  0  0  0
   37.9540   35.0500   40.2030 H   0  0  0  0  0  0  0  0  0  0  0  0
   36.2470   33.6270   39.7520 H   0  0  0  0  0  0  0  0  0  0  0  0
   37.2150   32.2090   41.2160 H   0  0  0  0  0  0  0  0  0  0  0  0
   39.2590   31.9120   38.6660 O   0  0  0  0  0  0  0  0  0  0  0  0
   40.0690   31.4220   38.4040 H   0  0  0  0  0  0  0  0  0  0  0  0
   37.3770   32.9660   38.1150 O   0  0  0  0  0  0  0  0  0  0  0  0
   36.5150   32.9200   37.6280 H   0  0  0  0  0  0  0  0  0  0  0  0
   39.3750   31.7100   42.2260 O   0  0  0  0  0  0  0  0  0  0  0  0
   39.6730   30.4270   42.4640 C   0  0  0  0  0  0  0  0  0  0  0  0
   38.6830   29.5180   42.8630 C   0  0  0  0  0  0  0  0  0  0  0  0
   39.0400   28.2020   43.0970 C   0  0  0  0  0  0  0  0  0  0  0  0
   40.3620   27.8210   42.9290 N   0  0  0  0  0  0  0  0  0  0  0  0
   41.2890   28.7260   42.5440 C   0  0  0  0  0  0  0  0  0  0  0  0
   40.9460   30.0200   42.3130 N   0  0  0  0  0  0  0  0  0  0  0  0
   37.6610   29.8060   42.9950 H   0  0  0  0  0  0  0  0  0  0  0  0
   42.3310   28.4370   42.4100 H   0  0  0  0  0  0  0  0  0  0  0  0
   38.0490   27.1790   43.5450 C   0  0  0  0  0  0  0  0  0  0  0  0
   36.5830   27.4380   43.2050 C   0  0  0  0  0  0  0  0  0  0  0  0
   37.4280   26.2930   42.6140 C   0  0  0  0  0  0  0  0  0  0  0  0
   38.2530   26.8580   44.6000 H   0  0  0  0  0  0  0  0  0  0  0  0
   36.3300   28.2770   42.5600 H   0  0  0  0  0  0  0  0  0  0  0  0
   35.8610   27.0830   43.9680 H   0  0  0  0  0  0  0  0  0  0  0  0
   37.1940   25.2520   42.9410 H   0  0  0  0  0  0  0  0  0  0  0  0
   37.5950   26.3420   41.5180 H   0  0  0  0  0  0  0  0  0  0  0  0
   36.5320   30.9730   39.5960 O   0  0  0  0  0  0  0  0  0  0  0  0
   36.2140   29.7030   39.8740 C   0  0  0  0  0  0  0  0  0  0  0  0
   35.1310   29.4030   40.5810 O   0  0  0  0  0  0  0  0  0  0  0  0
   36.8380   28.3710   39.5460 C   0  0  0  0  0  0  0  0  0  0  0  0
   36.0740   27.3030   39.2570 C   0  0  0  0  0  0  0  0  0  0  0  0
   35.0160   27.2720   39.2380 H   0  0  0  0  0  0  0  0  0  0  0  0
   36.6590   26.0670   38.9390 C   0  0  0  0  0  3  0  0  0  0  0  0
   38.0260   25.9110   38.9110 C   0  0  0  0  0  0  0  0  0  0  0  0
   38.4570   24.9540   38.6650 H   0  0  0  0  0  0  0  0  0  0  0  0
   38.8550   26.9680   39.1980 C   0  0  0  0  0  0  0  0  0  0  0  0
   39.9340   26.9330   39.2010 H   0  0  0  0  0  0  0  0  0  0  0  0
   38.2150   28.1320   39.4980 C   0  0  0  0  0  3  0  0  0  0  0  0
  1  7  1  1  0  0  0
  1  6  1  0  0  0  0
  1  2  1  0  0  0  0
  2  8  1  6  0  0  0
  2  3  1  0  0  0  0
  2 17  1  0  0  0  0
  4 10  1  0  0  0  0
  4  3  1  0  0  0  0
  5 11  1  1  0  0  0
  5  4  1  0  0  0  0
  5  6  1  0  0  0  0
  6 12  1  1  0  0  0
  9  4  1  0  0  0  0
 13  1  1  0  0  0  0
 14 13  1  0  0  0  0
 15  5  1  0  0  0  0
 16 15  1  0  0  0  0
 17 18  1  0  0  0  0
 18 19  1  0  0  0  0
 19 24  1  0  0  0  0
 19 20  2  0  0  0  0
 20 26  1  0  0  0  0
 21 20  1  0  0  0  0
 22 21  2  0  0  0  0
 23 18  2  0  0  0  0
 23 22  1  0  0  0  0
 25 22  1  0  0  0  0
 26 29  1  0  0  0  0
 27 26  1  0  0  0  0
 27 31  1  0  0  0  0
 28 32  1  0  0  0  0
 28 27  1  0  0  0  0
 28 26  1  0  0  0  0
 30 27  1  0  0  0  0
 33 28  1  0  0  0  0
 34 35  1  0  0  0  0
 34  6  1  0  0  0  0
 35 36  2  0  0  0  0
 37 35  1  0  0  0  0
 38 37  2  0  0  0  0
 39 38  1  0  0  0  0
 40 38  1  0  0  0  0
 41 40  2  0  0  0  0
 41 43  1  0  0  0  0
 42 41  1  0  0  0  0
 43 44  1  0  0  0  0
 43 45  2  0  0  0  0
 45 37  1  0  0  0  0
M  END
>  <minimizedAffinity>
-5.82372332

$$$$

 OpenBabel03242523563D

 45 48  0  0  1  0  0  0  0  0999 V2000
   38.9480   31.3980   39.9310 C   0  0  1  0  0  0  0  0  0  0  0  0
   39.7200   32.2470   40.9280 C   0  0  1  0  0  0  0  0  0  0  0  0
   38.9920   33.4350   41.1540 O   0  0  0  0  0  0  0  0  0  0  0  0
   38.3460   33.8980   40.0050 C   0  0  0  0  0  0  0  0  0  0  0  0
   37.2070   32.9870   39.5900 C   0  0  2  0  0  0  0  0  0  0  0  0
   37.5020   31.5930   40.2440 C   0  0  1  0  0  0  0  0  0  0  0  0
   39.2670   30.3340   39.9700 H   0  0  0  0  0  0  0  0  0  0  0  0
   40.7450   32.4570   40.6190 H   0  0  0  0  0  0  0  0  0  0  0  0
   39.0500   34.0920   39.1720 H   0  0  0  0  0  0  0  0  0  0  0  0
   37.8890   34.8510   40.2950 H   0  0  0  0  0  0  0  0  0  0  0  0
   36.2250   33.3490   39.9510 H   0  0  0  0  0  0  0  0  0  0  0  0
   37.3690   31.9640   41.3160 H   0  0  0  0  0  0  0  0  0  0  0  0
   39.2260   31.8010   38.6170 O   0  0  0  0  0  0  0  0  0  0  0  0
   40.0380   31.3560   38.2870 H   0  0  0  0  0  0  0  0  0  0  0  0
   37.2590   32.7650   38.2240 O   0  0  0  0  0  0  0  0  0  0  0  0
   36.3660   32.6820   37.8020 H   0  0  0  0  0  0  0  0  0  0  0  0
   39.6210   31.5620   42.1540 O   0  0  0  0  0  0  0  0  0  0  0  0
   40.4310   30.5680   42.5380 C   0  0  0  0  0  0  0  0  0  0  0  0
   39.9530   29.2550   42.6600 C   0  0  0  0  0  0  0  0  0  0  0  0
   40.8300   28.2620   43.0590 C   0  0  0  0  0  0  0  0  0  0  0  0
   42.1490   28.5910   43.3240 N   0  0  0  0  0  0  0  0  0  0  0  0
   42.5730   29.8690   43.1960 C   0  0  0  0  0  0  0  0  0  0  0  0
   41.7180   30.8490   42.8050 N   0  0  0  0  0  0  0  0  0  0  0  0
   38.9360   28.9950   42.4560 H   0  0  0  0  0  0  0  0  0  0  0  0
   43.6080   30.1380   43.4030 H   0  0  0  0  0  0  0  0  0  0  0  0
   40.3940   26.8440   43.2330 C   0  0  0  0  0  0  0  0  0  0  0  0
   40.7290   25.8710   42.1050 C   0  0  0  0  0  0  0  0  0  0  0  0
   41.3360   25.8100   43.5200 C   0  0  0  0  0  0  0  0  0  0  0  0
   39.3430   26.7930   43.6230 H   0  0  0  0  0  0  0  0  0  0  0  0
   41.3630   26.2070   41.2870 H   0  0  0  0  0  0  0  0  0  0  0  0
   39.9700   25.0810   41.9340 H   0  0  0  0  0  0  0  0  0  0  0  0
   41.0220   24.9720   44.1850 H   0  0  0  0  0  0  0  0  0  0  0  0
   42.4310   25.9790   43.5760 H   0  0  0  0  0  0  0  0  0  0  0  0
   36.6280   30.7150   39.7330 O   0  0  0  0  0  0  0  0  0  0  0  0
   36.6760   29.3830   39.6060 C   0  0  0  0  0  0  0  0  0  0  0  0
   36.6540   28.8050   38.4120 O   0  0  0  0  0  0  0  0  0  0  0  0
   36.7660   28.2400   40.5850 C   0  0  0  0  0  0  0  0  0  0  0  0
   37.0600   26.9960   40.1670 C   0  0  0  0  0  0  0  0  0  0  0  0
   37.2410   26.6930   39.1690 H   0  0  0  0  0  0  0  0  0  0  0  0
   37.1560   25.9360   41.0830 C   0  0  0  0  0  3  0  0  0  0  0  0
   36.9540   26.1360   42.4290 C   0  0  0  0  0  0  0  0  0  0  0  0
   37.0320   25.3100   43.1170 H   0  0  0  0  0  0  0  0  0  0  0  0
   36.6490   27.3860   42.9110 C   0  0  0  0  0  0  0  0  0  0  0  0
   36.4750   27.6310   43.9480 H   0  0  0  0  0  0  0  0  0  0  0  0
   36.5730   28.3620   41.9640 C   0  0  0  0  0  3  0  0  0  0  0  0
  1  7  1  1  0  0  0
  1  6  1  0  0  0  0
  1  2  1  0  0  0  0
  2  8  1  6  0  0  0
  2  3  1  0  0  0  0
  2 17  1  0  0  0  0
  4 10  1  0  0  0  0
  4  3  1  0  0  0  0
  5 11  1  1  0  0  0
  5  4  1  0  0  0  0
  5  6  1  0  0  0  0
  6 12  1  1  0  0  0
  9  4  1  0  0  0  0
 13  1  1  0  0  0  0
 14 13  1  0  0  0  0
 15  5  1  0  0  0  0
 16 15  1  0  0  0  0
 17 18  1  0  0  0  0
 18 19  2  0  0  0  0
 18 23  1  0  0  0  0
 19 20  1  0  0  0  0
 20 26  1  0  0  0  0
 20 21  2  0  0  0  0
 22 21  1  0  0  0  0
 22 25  1  0  0  0  0
 23 22  2  0  0  0  0
 24 19  1  0  0  0  0
 26 28  1  0  0  0  0
 26 29  1  0  0  0  0
 27 26  1  0  0  0  0
 27 28  1  0  0  0  0
 28 33  1  0  0  0  0
 28 32  1  0  0  0  0
 30 27  1  0  0  0  0
 31 27  1  0  0  0  0
 34  6  1  0  0  0  0
 35 34  1  0  0  0  0
 35 37  1  0  0  0  0
 36 35  2  0  0  0  0
 37 45  1  0  0  0  0
 38 37  2  0  0  0  0
 38 40  1  0  0  0  0
 39 38  1  0  0  0  0
 40 41  2  0  0  0  0
 41 43  1  0  0  0  0
 41 42  1  0  0  0  0
 43 44  1  0  0  0  0
 45 43  2  0  0  0  0
M  END
>  <minimizedAffinity>
-5.80534124

$$$$

 OpenBabel03242523563D

 45 48  0  0  1  0  0  0  0  0999 V2000
   34.8820   28.0110   38.0680 C   0  0  1  0  0  0  0  0  0  0  0  0
   36.2680   28.6290   38.1440 C   0  0  1  0  0  0  0  0  0  0  0  0
   36.5440   29.2480   36.9060 O   0  0  0  0  0  0  0  0  0  0  0  0
   36.0150   28.5440   35.8220 C   0  0  0  0  0  0  0  0  0  0  0  0
   34.5000   28.6030   35.7930 C   0  0  2  0  0  0  0  0  0  0  0  0
   34.0490   28.9450   37.2550 C   0  0  1  0  0  0  0  0  0  0  0  0
   34.4660   27.8190   39.0800 H   0  0  0  0  0  0  0  0  0  0  0  0
   37.0470   27.9170   38.4200 H   0  0  0  0  0  0  0  0  0  0  0  0
   36.3930   27.5050   35.7650 H   0  0  0  0  0  0  0  0  0  0  0  0
   36.3610   29.0820   34.9320 H   0  0  0  0  0  0  0  0  0  0  0  0
   34.1220   29.3890   35.1110 H   0  0  0  0  0  0  0  0  0  0  0  0
   34.5070   29.9920   37.2510 H   0  0  0  0  0  0  0  0  0  0  0  0
   34.9350   26.7460   37.4640 O   0  0  0  0  0  0  0  0  0  0  0  0
   35.1470   26.0570   38.1310 H   0  0  0  0  0  0  0  0  0  0  0  0
   33.9870   27.3420   35.5400 O   0  0  0  0  0  0  0  0  0  0  0  0
   33.1610   27.3530   34.9930 H   0  0  0  0  0  0  0  0  0  0  0  0
   36.1440   29.7120   39.0330 O   0  0  0  0  0  0  0  0  0  0  0  0
   36.9790   29.9640   40.0480 C   0  0  0  0  0  0  0  0  0  0  0  0
   36.9460   29.1920   41.2180 C   0  0  0  0  0  0  0  0  0  0  0  0
   37.8310   29.4910   42.2390 C   0  0  0  0  0  0  0  0  0  0  0  0
   38.7230   30.5390   42.0760 N   0  0  0  0  0  0  0  0  0  0  0  0
   38.7250   31.2610   40.9320 C   0  0  0  0  0  0  0  0  0  0  0  0
   37.8580   30.9740   39.9260 N   0  0  0  0  0  0  0  0  0  0  0  0
   36.2600   28.3820   41.3510 H   0  0  0  0  0  0  0  0  0  0  0  0
   39.4210   32.0880   40.7940 H   0  0  0  0  0  0  0  0  0  0  0  0
   37.8440   28.7310   43.5240 C   0  0  0  0  0  0  0  0  0  0  0  0
   36.8140   27.6150   43.6800 C   0  0  0  0  0  0  0  0  0  0  0  0
   38.3360   27.3920   43.5870 C   0  0  0  0  0  0  0  0  0  0  0  0
   37.9440   29.4250   44.3990 H   0  0  0  0  0  0  0  0  0  0  0  0
   36.2000   27.3380   42.8250 H   0  0  0  0  0  0  0  0  0  0  0  0
   36.4280   27.4810   44.7100 H   0  0  0  0  0  0  0  0  0  0  0  0
   38.8710   27.0630   44.5090 H   0  0  0  0  0  0  0  0  0  0  0  0
   38.6810   26.8250   42.6980 H   0  0  0  0  0  0  0  0  0  0  0  0
   32.7170   28.8040   37.3090 O   0  0  0  0  0  0  0  0  0  0  0  0
   31.7260   29.7040   37.2840 C   0  0  0  0  0  0  0  0  0  0  0  0
   30.9590   29.9120   38.3470 O   0  0  0  0  0  0  0  0  0  0  0  0
   31.2010   30.6560   36.2400 C   0  0  0  0  0  0  0  0  0  0  0  0
   30.3710   31.6590   36.5750 C   0  0  0  0  0  0  0  0  0  0  0  0
   30.0060   31.8760   37.5450 H   0  0  0  0  0  0  0  0  0  0  0  0
   29.8950   32.5520   35.6020 C   0  0  0  0  0  3  0  0  0  0  0  0
   30.2610   32.4300   34.2820 C   0  0  0  0  0  0  0  0  0  0  0  0
   29.8850   33.1250   33.5490 H   0  0  0  0  0  0  0  0  0  0  0  0
   31.1070   31.4230   33.8820 C   0  0  0  0  0  0  0  0  0  0  0  0
   31.4440   31.2540   32.8710 H   0  0  0  0  0  0  0  0  0  0  0  0
   31.5260   30.5970   34.8810 C   0  0  0  0  0  3  0  0  0  0  0  0
  1  2  1  0  0  0  0
  1  7  1  1  0  0  0
  2  8  1  1  0  0  0
  2 17  1  0  0  0  0
  3  2  1  0  0  0  0
  4  3  1  0  0  0  0
  5 11  1  6  0  0  0
  5  4  1  0  0  0  0
  5  6  1  0  0  0  0
  6 12  1  1  0  0  0
  6 34  1  0  0  0  0
  6  1  1  0  0  0  0
  9  4  1  0  0  0  0
 10  4  1  0  0  0  0
 13  1  1  0  0  0  0
 13 14  1  0  0  0  0
 15  5  1  0  0  0  0
 16 15  1  0  0  0  0
 17 18  1  0  0  0  0
 18 19  1  0  0  0  0
 19 24  1  0  0  0  0
 19 20  2  0  0  0  0
 20 26  1  0  0  0  0
 21 20  1  0  0  0  0
 22 21  2  0  0  0  0
 23 18  2  0  0  0  0
 23 22  1  0  0  0  0
 25 22  1  0  0  0  0
 26 28  1  0  0  0  0
 26 27  1  0  0  0  0
 26 29  1  0  0  0  0
 27 31  1  0  0  0  0
 28 27  1  0  0  0  0
 28 32  1  0  0  0  0
 30 27  1  0  0  0  0
 33 28  1  0  0  0  0
 35 34  1  0  0  0  0
 35 36  2  0  0  0  0
 37 38  1  0  0  0  0
 37 35  1  0  0  0  0
 38 39  1  0  0  0  0
 40 38  2  0  0  0  0
 41 40  1  0  0  0  0
 42 41  1  0  0  0  0
 43 41  2  0  0  0  0
 43 45  1  0  0  0  0
 44 43  1  0  0  0  0
 45 37  2  0  0  0  0
M  END
>  <minimizedAffinity>
-5.77057123

$$$$

 OpenBabel03242523563D

 45 48  0  0  1  0  0  0  0  0999 V2000
   39.2680   32.1450   40.7390 C   0  0  1  0  0  0  0  0  0  0  0  0
   38.7930   32.3170   39.3050 C   0  0  1  0  0  0  0  0  0  0  0  0
   39.8910   32.7390   38.5240 O   0  0  0  0  0  0  0  0  0  0  0  0
   40.7460   33.5990   39.2160 C   0  0  0  0  0  0  0  0  0  0  0  0
   41.4940   32.8830   40.3240 C   0  0  2  0  0  0  0  0  0  0  0  0
   40.6550   31.6010   40.6600 C   0  0  1  0  0  0  0  0  0  0  0  0
   38.5760   31.5000   41.3210 H   0  0  0  0  0  0  0  0  0  0  0  0
   37.9450   32.9960   39.2060 H   0  0  0  0  0  0  0  0  0  0  0  0
   40.2290   34.5080   39.5820 H   0  0  0  0  0  0  0  0  0  0  0  0
   41.5010   33.9070   38.4840 H   0  0  0  0  0  0  0  0  0  0  0  0
   42.5110   32.5720   40.0130 H   0  0  0  0  0  0  0  0  0  0  0  0
   40.8360   31.1050   39.6470 H   0  0  0  0  0  0  0  0  0  0  0  0
   39.2580   33.3740   41.4150 O   0  0  0  0  0  0  0  0  0  0  0  0
   38.3670   33.5520   41.7880 H   0  0  0  0  0  0  0  0  0  0  0  0
   41.4670   33.6480   41.4790 O   0  0  0  0  0  0  0  0  0  0  0  0
   42.2940   33.5780   42.0200 H   0  0  0  0  0  0  0  0  0  0  0  0
   38.5390   31.0130   38.8390 O   0  0  0  0  0  0  0  0  0  0  0  0
   37.5950   30.2010   39.3280 C   0  0  0  0  0  0  0  0  0  0  0  0
   37.8300   28.8260   39.4700 C   0  0  0  0  0  0  0  0  0  0  0  0
   36.8220   28.0270   39.9820 C   0  0  0  0  0  0  0  0  0  0  0  0
   35.6160   28.6070   40.3390 N   0  0  0  0  0  0  0  0  0  0  0  0
   35.4260   29.9370   40.1870 C   0  0  0  0  0  0  0  0  0  0  0  0
   36.4110   30.7270   39.6840 N   0  0  0  0  0  0  0  0  0  0  0  0
   38.7590   28.3720   39.1960 H   0  0  0  0  0  0  0  0  0  0  0  0
   34.4810   30.4030   40.4640 H   0  0  0  0  0  0  0  0  0  0  0  0
   36.9860   26.5520   40.1430 C   0  0  0  0  0  0  0  0  0  0  0  0
   37.0760   25.7200   38.8660 C   0  0  0  0  0  0  0  0  0  0  0  0
   38.2320   25.9110   39.8660 C   0  0  0  0  0  0  0  0  0  0  0  0
   36.2960   26.1560   40.9330 H   0  0  0  0  0  0  0  0  0  0  0  0
   37.1360   26.2290   37.9060 H   0  0  0  0  0  0  0  0  0  0  0  0
   36.6160   24.7130   38.9350 H   0  0  0  0  0  0  0  0  0  0  0  0
   38.5320   25.0350   40.4880 H   0  0  0  0  0  0  0  0  0  0  0  0
   39.1190   26.4460   39.4710 H   0  0  0  0  0  0  0  0  0  0  0  0
   41.1780   31.0560   41.7670 O   0  0  0  0  0  0  0  0  0  0  0  0
   41.0490   29.8370   42.3040 C   0  0  0  0  0  0  0  0  0  0  0  0
   42.1090   29.0690   42.5290 O   0  0  0  0  0  0  0  0  0  0  0  0
   39.8750   29.0200   42.7790 C   0  0  0  0  0  0  0  0  0  0  0  0
   38.6790   29.5930   42.9970 C   0  0  0  0  0  0  0  0  0  0  0  0
   38.4400   30.6180   42.8780 H   0  0  0  0  0  0  0  0  0  0  0  0
   37.5830   28.8270   43.4260 C   0  0  0  0  0  3  0  0  0  0  0  0
   37.6990   27.4720   43.6360 C   0  0  0  0  0  0  0  0  0  0  0  0
   36.8470   26.9010   43.9660 H   0  0  0  0  0  0  0  0  0  0  0  0
   38.8990   26.8340   43.4300 C   0  0  0  0  0  0  0  0  0  0  0  0
   39.0780   25.7790   43.5710 H   0  0  0  0  0  0  0  0  0  0  0  0
   39.9130   27.6430   43.0150 C   0  0  0  0  0  3  0  0  0  0  0  0
  1  7  1  1  0  0  0
  1 13  1  0  0  0  0
  2  8  1  6  0  0  0
  2  1  1  0  0  0  0
  3  4  1  0  0  0  0
  3  2  1  0  0  0  0
  4  9  1  0  0  0  0
  4  5  1  0  0  0  0
  5 11  1  6  0  0  0
  5  6  1  0  0  0  0
  5 15  1  0  0  0  0
  6 12  1  6  0  0  0
  6  1  1  0  0  0  0
  6 34  1  0  0  0  0
 10  4  1  0  0  0  0
 13 14  1  0  0  0  0
 15 16  1  0  0  0  0
 17  2  1  0  0  0  0
 17 18  1  0  0  0  0
 18 19  2  0  0  0  0
 18 23  1  0  0  0  0
 19 20  1  0  0  0  0
 20 26  1  0  0  0  0
 20 21  2  0  0  0  0
 22 21  1  0  0  0  0
 22 25  1  0  0  0  0
 23 22  2  0  0  0  0
 24 19  1  0  0  0  0
 26 29  1  0  0  0  0
 27 31  1  0  0  0  0
 27 28  1  0  0  0  0
 27 26  1  0  0  0  0
 28 26  1  0  0  0  0
 28 32  1  0  0  0  0
 30 27  1  0  0  0  0
 33 28  1  0  0  0  0
 34 35  1  0  0  0  0
 35 36  2  0  0  0  0
 35 37  1  0  0  0  0
 37 38  2  0  0  0  0
 37 45  1  0  0  0  0
 38 40  1  0  0  0  0
 39 38  1  0  0  0  0
 40 41  2  0  0  0  0
 41 42  1  0  0  0  0
 43 44  1  0  0  0  0
 43 41  1  0  0  0  0
 45 43  2  0  0  0  0
M  END
>  <minimizedAffinity>
-5.7344594

$$$$

 OpenBabel03242523563D

 45 48  0  0  1  0  0  0  0  0999 V2000
   36.3770   29.5560   36.4410 C   0  0  1  0  0  0  0  0  0  0  0  0
   35.7060   28.3300   35.8440 C   0  0  1  0  0  0  0  0  0  0  0  0
   36.4650   27.1940   36.2020 O   0  0  0  0  0  0  0  0  0  0  0  0
   37.8370   27.4490   36.2310 C   0  0  0  0  0  0  0  0  0  0  0  0
   38.2180   28.3690   37.3750 C   0  0  2  0  0  0  0  0  0  0  0  0
   36.9100   29.1390   37.7700 C   0  0  1  0  0  0  0  0  0  0  0  0
   35.6740   30.4150   36.4990 H   0  0  0  0  0  0  0  0  0  0  0  0
   35.5640   28.3930   34.7640 H   0  0  0  0  0  0  0  0  0  0  0  0
   38.2230   27.8130   35.2580 H   0  0  0  0  0  0  0  0  0  0  0  0
   38.3070   26.4820   36.4440 H   0  0  0  0  0  0  0  0  0  0  0  0
   38.5850   27.8130   38.2590 H   0  0  0  0  0  0  0  0  0  0  0  0
   36.3660   28.2080   38.1480 H   0  0  0  0  0  0  0  0  0  0  0  0
   37.4150   30.0060   35.6120 O   0  0  0  0  0  0  0  0  0  0  0  0
   37.0630   30.6030   34.9160 H   0  0  0  0  0  0  0  0  0  0  0  0
   39.0900   29.3450   36.9210 O   0  0  0  0  0  0  0  0  0  0  0  0
   39.7720   29.6090   37.5910 H   0  0  0  0  0  0  0  0  0  0  0  0
   34.5110   28.1690   36.5690 O   0  0  0  0  0  0  0  0  0  0  0  0
   33.3700   28.8170   36.3070 C   0  0  0  0  0  0  0  0  0  0  0  0
   32.5330   29.2520   37.3450 C   0  0  0  0  0  0  0  0  0  0  0  0
   31.3630   29.9190   37.0230 C   0  0  0  0  0  0  0  0  0  0  0  0
   31.0550   30.1370   35.6900 N   0  0  0  0  0  0  0  0  0  0  0  0
   31.8870   29.7020   34.7170 C   0  0  0  0  0  0  0  0  0  0  0  0
   33.0360   29.0470   35.0250 N   0  0  0  0  0  0  0  0  0  0  0  0
   32.7650   29.0860   38.3760 H   0  0  0  0  0  0  0  0  0  0  0  0
   31.6530   29.8690   33.6660 H   0  0  0  0  0  0  0  0  0  0  0  0
   30.4090   30.3930   38.0690 C   0  0  0  0  0  0  0  0  0  0  0  0
   29.8240   31.7920   37.8900 C   0  0  0  0  0  0  0  0  0  0  0  0
   29.0090   30.4870   37.8050 C   0  0  0  0  0  0  0  0  0  0  0  0
   30.7880   30.1530   39.0960 H   0  0  0  0  0  0  0  0  0  0  0  0
   30.0240   32.3360   36.9690 H   0  0  0  0  0  0  0  0  0  0  0  0
   29.6450   32.3440   38.8360 H   0  0  0  0  0  0  0  0  0  0  0  0
   28.2940   30.2660   38.6320 H   0  0  0  0  0  0  0  0  0  0  0  0
   28.5580   30.2720   36.8140 H   0  0  0  0  0  0  0  0  0  0  0  0
   37.2550   30.1010   38.6360 O   0  0  0  0  0  0  0  0  0  0  0  0
   36.9600   30.2820   39.9300 C   0  0  0  0  0  0  0  0  0  0  0  0
   36.4050   31.4090   40.3580 O   0  0  0  0  0  0  0  0  0  0  0  0
   37.1070   29.4330   41.1660 C   0  0  0  0  0  0  0  0  0  0  0  0
   36.3500   28.3360   41.3440 C   0  0  0  0  0  0  0  0  0  0  0  0
   35.6060   27.9710   40.6860 H   0  0  0  0  0  0  0  0  0  0  0  0
   36.5000   27.5400   42.4910 C   0  0  0  0  0  3  0  0  0  0  0  0
   37.4210   27.8550   43.4630 C   0  0  0  0  0  0  0  0  0  0  0  0
   37.5210   27.2320   44.3370 H   0  0  0  0  0  0  0  0  0  0  0  0
   38.2210   28.9650   43.3340 C   0  0  0  0  0  0  0  0  0  0  0  0
   38.9650   29.2850   44.0460 H   0  0  0  0  0  0  0  0  0  0  0  0
   38.0170   29.6870   42.1970 C   0  0  0  0  0  3  0  0  0  0  0  0
  1  7  1  1  0  0  0
  1  6  1  0  0  0  0
  2  8  1  6  0  0  0
  2  3  1  0  0  0  0
  2  1  1  0  0  0  0
  2 17  1  0  0  0  0
  3  4  1  0  0  0  0
  4 10  1  0  0  0  0
  4  5  1  0  0  0  0
  5  6  1  0  0  0  0
  5 11  1  1  0  0  0
  6 12  1  1  0  0  0
  6 34  1  0  0  0  0
  9  4  1  0  0  0  0
 13  1  1  0  0  0  0
 14 13  1  0  0  0  0
 15  5  1  0  0  0  0
 15 16  1  0  0  0  0
 18 17  1  0  0  0  0
 18 19  1  0  0  0  0
 19 24  1  0  0  0  0
 20 19  2  0  0  0  0
 20 26  1  0  0  0  0
 21 20  1  0  0  0  0
 22 23  1  0  0  0  0
 22 21  2  0  0  0  0
 23 18  2  0  0  0  0
 25 22  1  0  0  0  0
 26 29  1  0  0  0  0
 27 26  1  0  0  0  0
 27 31  1  0  0  0  0
 28 27  1  0  0  0  0
 28 26  1  0  0  0  0
 28 32  1  0  0  0  0
 30 27  1  0  0  0  0
 33 28  1  0  0  0  0
 34 35  1  0  0  0  0
 35 36  2  0  0  0  0
 35 37  1  0  0  0  0
 37 38  2  0  0  0  0
 37 45  1  0  0  0  0
 38 40  1  0  0  0  0
 39 38  1  0  0  0  0
 40 41  2  0  0  0  0
 41 42  1  0  0  0  0
 43 41  1  0  0  0  0
 43 44  1  0  0  0  0
 45 43  2  0  0  0  0
M  END
>  <minimizedAffinity>
-5.69490147

$$$$
