
 OpenBabel03242523553D

 45 48  0  0  1  0  0  0  0  0999 V2000
   42.8970   34.2020   39.1750 C   0  0  1  0  0  0  0  0  0  0  0  0
   43.1020   35.1200   40.3690 C   0  0  1  0  0  0  0  0  0  0  0  0
   41.8410   35.6130   40.7680 O   0  0  0  0  0  0  0  0  0  0  0  0
   40.9870   35.8460   39.6880 C   0  0  0  0  0  0  0  0  0  0  0  0
   40.5470   34.5550   39.0250 C   0  0  2  0  0  0  0  0  0  0  0  0
   41.6160   33.4760   39.4170 C   0  0  1  0  0  0  0  0  0  0  0  0
   43.7650   33.5240   39.0300 H   0  0  0  0  0  0  0  0  0  0  0  0
   43.8080   35.9290   40.1800 H   0  0  0  0  0  0  0  0  0  0  0  0
   41.4100   36.5650   38.9600 H   0  0  0  0  0  0  0  0  0  0  0  0
   40.0850   36.2910   40.1240 H   0  0  0  0  0  0  0  0  0  0  0  0
   39.5530   34.2170   39.3800 H   0  0  0  0  0  0  0  0  0  0  0  0
   41.3520   33.4850   40.5290 H   0  0  0  0  0  0  0  0  0  0  0  0
   42.8270   34.9430   37.9860 O   0  0  0  0  0  0  0  0  0  0  0  0
   43.7290   35.1110   37.6340 H   0  0  0  0  0  0  0  0  0  0  0  0
   40.6420   34.6780   37.6490 O   0  0  0  0  0  0  0  0  0  0  0  0
   39.9340   34.1890   37.1580 H   0  0  0  0  0  0  0  0  0  0  0  0
   43.4750   34.2720   41.4290 O   0  0  0  0  0  0  0  0  0  0  0  0
   44.6530   34.3200   42.0630 C   0  0  0  0  0  0  0  0  0  0  0  0
   45.8470   34.5070   41.3530 C   0  0  0  0  0  0  0  0  0  0  0  0
   47.0390   34.5500   42.0530 C   0  0  0  0  0  0  0  0  0  0  0  0
   47.0190   34.4090   43.4310 N   0  0  0  0  0  0  0  0  0  0  0  0
   45.8470   34.2300   44.0820 C   0  0  0  0  0  0  0  0  0  0  0  0
   44.6730   34.1860   43.4010 N   0  0  0  0  0  0  0  0  0  0  0  0
   45.8700   34.6160   40.2890 H   0  0  0  0  0  0  0  0  0  0  0  0
   45.8200   34.1170   45.1650 H   0  0  0  0  0  0  0  0  0  0  0  0
   48.3550   34.7230   41.3680 C   0  0  0  0  0  0  0  0  0  0  0  0
   49.0690   36.0580   41.5660 C   0  0  0  0  0  0  0  0  0  0  0  0
   49.5790   34.7070   42.1020 C   0  0  0  0  0  0  0  0  0  0  0  0
   48.3090   34.3490   40.3120 H   0  0  0  0  0  0  0  0  0  0  0  0
   48.6650   36.7750   42.2770 H   0  0  0  0  0  0  0  0  0  0  0  0
   49.6450   36.4100   40.6860 H   0  0  0  0  0  0  0  0  0  0  0  0
   50.4840   34.2640   41.6220 H   0  0  0  0  0  0  0  0  0  0  0  0
   49.6280   34.6210   43.2070 H   0  0  0  0  0  0  0  0  0  0  0  0
   41.3690   32.3810   38.6860 O   0  0  0  0  0  0  0  0  0  0  0  0
   40.3540   31.5080   38.7060 C   0  0  0  0  0  0  0  0  0  0  0  0
   39.8190   31.0490   37.5810 O   0  0  0  0  0  0  0  0  0  0  0  0
   39.5770   30.8310   39.8050 C   0  0  0  0  0  0  0  0  0  0  0  0
   40.2070   30.2580   40.8450 C   0  0  0  0  0  0  0  0  0  0  0  0
   41.2540   30.2100   40.9980 H   0  0  0  0  0  0  0  0  0  0  0  0
   39.4790   29.6400   41.8740 C   0  0  0  0  0  3  0  0  0  0  0  0
   38.1040   29.6010   41.8520 C   0  0  0  0  0  0  0  0  0  0  0  0
   37.5630   29.1230   42.6500 H   0  0  0  0  0  0  0  0  0  0  0  0
   37.4070   30.1710   40.8130 C   0  0  0  0  0  0  0  0  0  0  0  0
   36.3320   30.1860   40.7160 H   0  0  0  0  0  0  0  0  0  0  0  0
   38.1810   30.7500   39.8540 C   0  0  0  0  0  3  0  0  0  0  0  0
  1  7  1  6  0  0  0
  1  6  1  0  0  0  0
  1  2  1  0  0  0  0
  2  8  1  6  0  0  0
  2  3  1  0  0  0  0
  2 17  1  0  0  0  0
  4 10  1  0  0  0  0
  4  3  1  0  0  0  0
  5 11  1  1  0  0  0
  5  6  1  0  0  0  0
  5  4  1  0  0  0  0
  6 12  1  1  0  0  0
  9  4  1  0  0  0  0
 13  1  1  0  0  0  0
 14 13  1  0  0  0  0
 15  5  1  0  0  0  0
 16 15  1  0  0  0  0
 17 18  1  0  0  0  0
 18 23  1  0  0  0  0
 19 20  1  0  0  0  0
 19 18  2  0  0  0  0
 20 21  2  0  0  0  0
 21 22  1  0  0  0  0
 22 25  1  0  0  0  0
 23 22  2  0  0  0  0
 24 19  1  0  0  0  0
 26 27  1  0  0  0  0
 26 20  1  0  0  0  0
 26 28  1  0  0  0  0
 27 28  1  0  0  0  0
 27 30  1  0  0  0  0
 28 33  1  0  0  0  0
 29 26  1  0  0  0  0
 31 27  1  0  0  0  0
 32 28  1  0  0  0  0
 34 35  1  0  0  0  0
 34  6  1  0  0  0  0
 35 37  1  0  0  0  0
 36 35  2  0  0  0  0
 37 45  2  0  0  0  0
 37 38  1  0  0  0  0
 38 39  1  0  0  0  0
 38 40  2  0  0  0  0
 41 40  1  0  0  0  0
 41 42  1  0  0  0  0
 43 41  2  0  0  0  0
 44 43  1  0  0  0  0
 45 43  1  0  0  0  0
M  END
>  <minimizedAffinity>
-6.33147526

>  <minimizedRMSD>
1.99692142

$$$$
