
 OpenBabel03242523553D

 45 48  0  0  1  0  0  0  0  0999 V2000
   42.8180   34.5160   38.7330 C   0  0  1  0  0  0  0  0  0  0  0  0
   42.9700   35.1750   40.0940 C   0  0  1  0  0  0  0  0  0  0  0  0
   41.6800   35.4050   40.6200 O   0  0  0  0  0  0  0  0  0  0  0  0
   40.7510   35.7530   39.6360 C   0  0  0  0  0  0  0  0  0  0  0  0
   40.4380   34.5890   38.7170 C   0  0  2  0  0  0  0  0  0  0  0  0
   41.6470   33.5980   38.8390 C   0  0  1  0  0  0  0  0  0  0  0  0
   43.7530   34.0020   38.4240 H   0  0  0  0  0  0  0  0  0  0  0  0
   43.5630   36.0900   40.0710 H   0  0  0  0  0  0  0  0  0  0  0  0
   41.0480   36.6600   39.0740 H   0  0  0  0  0  0  0  0  0  0  0  0
   39.8260   35.9750   40.1790 H   0  0  0  0  0  0  0  0  0  0  0  0
   39.5110   34.0580   39.0110 H   0  0  0  0  0  0  0  0  0  0  0  0
   41.4400   33.3340   39.9310 H   0  0  0  0  0  0  0  0  0  0  0  0
   42.6000   35.4800   37.7370 O   0  0  0  0  0  0  0  0  0  0  0  0
   43.4560   35.8340   37.4110 H   0  0  0  0  0  0  0  0  0  0  0  0
   40.4490   35.0160   37.4000 O   0  0  0  0  0  0  0  0  0  0  0  0
   39.7810   34.5570   36.8290 H   0  0  0  0  0  0  0  0  0  0  0  0
   43.4940   34.1750   40.9350 O   0  0  0  0  0  0  0  0  0  0  0  0
   44.5970   34.3090   41.6810 C   0  0  0  0  0  0  0  0  0  0  0  0
   45.8610   34.4290   41.0860 C   0  0  0  0  0  0  0  0  0  0  0  0
   46.9710   34.5670   41.9000 C   0  0  0  0  0  0  0  0  0  0  0  0
   46.8020   34.5840   43.2750 N   0  0  0  0  0  0  0  0  0  0  0  0
   45.5670   34.4650   43.8130 C   0  0  0  0  0  0  0  0  0  0  0  0
   44.4730   34.3290   43.0190 N   0  0  0  0  0  0  0  0  0  0  0  0
   45.9980   34.4170   40.0250 H   0  0  0  0  0  0  0  0  0  0  0  0
   45.4240   34.4760   44.8930 H   0  0  0  0  0  0  0  0  0  0  0  0
   48.3520   34.6780   41.3440 C   0  0  0  0  0  0  0  0  0  0  0  0
   49.0640   36.0170   41.5170 C   0  0  0  0  0  0  0  0  0  0  0  0
   49.4940   34.7050   42.2000 C   0  0  0  0  0  0  0  0  0  0  0  0
   48.4090   34.2270   40.3190 H   0  0  0  0  0  0  0  0  0  0  0  0
   48.6000   36.7880   42.1290 H   0  0  0  0  0  0  0  0  0  0  0  0
   49.7330   36.2990   40.6780 H   0  0  0  0  0  0  0  0  0  0  0  0
   50.4360   34.2210   41.8500 H   0  0  0  0  0  0  0  0  0  0  0  0
   49.4280   34.7010   43.3080 H   0  0  0  0  0  0  0  0  0  0  0  0
   41.4980   32.6620   37.8910 O   0  0  0  0  0  0  0  0  0  0  0  0
   40.8400   31.4960   37.8880 C   0  0  0  0  0  0  0  0  0  0  0  0
   39.5850   31.4150   37.4630 O   0  0  0  0  0  0  0  0  0  0  0  0
   41.2020   30.0880   38.2840 C   0  0  0  0  0  0  0  0  0  0  0  0
   40.5740   29.4740   39.3030 C   0  0  0  0  0  0  0  0  0  0  0  0
   39.8110   29.8840   39.9110 H   0  0  0  0  0  0  0  0  0  0  0  0
   40.9030   28.1570   39.6600 C   0  0  0  0  0  3  0  0  0  0  0  0
   41.8750   27.4570   38.9830 C   0  0  0  0  0  0  0  0  0  0  0  0
   42.1150   26.4470   39.2710 H   0  0  0  0  0  0  0  0  0  0  0  0
   42.5500   28.0340   37.9340 C   0  0  0  0  0  0  0  0  0  0  0  0
   43.3220   27.5590   37.3500 H   0  0  0  0  0  0  0  0  0  0  0  0
   42.1750   29.3110   37.6470 C   0  0  0  0  0  3  0  0  0  0  0  0
  1  7  1  6  0  0  0
  1  6  1  0  0  0  0
  1  2  1  0  0  0  0
  2  8  1  6  0  0  0
  2  3  1  0  0  0  0
  2 17  1  0  0  0  0
  4 10  1  0  0  0  0
  4  3  1  0  0  0  0
  5  6  1  0  0  0  0
  5 11  1  1  0  0  0
  5  4  1  0  0  0  0
  6 12  1  1  0  0  0
  9  4  1  0  0  0  0
 13  1  1  0  0  0  0
 14 13  1  0  0  0  0
 15  5  1  0  0  0  0
 16 15  1  0  0  0  0
 17 18  1  0  0  0  0
 18 23  1  0  0  0  0
 19 18  2  0  0  0  0
 19 20  1  0  0  0  0
 20 21  2  0  0  0  0
 21 22  1  0  0  0  0
 22 25  1  0  0  0  0
 23 22  2  0  0  0  0
 24 19  1  0  0  0  0
 26 27  1  0  0  0  0
 26 20  1  0  0  0  0
 26 28  1  0  0  0  0
 27 30  1  0  0  0  0
 27 28  1  0  0  0  0
 28 33  1  0  0  0  0
 29 26  1  0  0  0  0
 31 27  1  0  0  0  0
 32 28  1  0  0  0  0
 34  6  1  0  0  0  0
 35 34  1  0  0  0  0
 35 37  1  0  0  0  0
 36 35  2  0  0  0  0
 37 38  1  0  0  0  0
 38 40  2  0  0  0  0
 38 39  1  0  0  0  0
 41 42  1  0  0  0  0
 41 40  1  0  0  0  0
 43 41  2  0  0  0  0
 44 43  1  0  0  0  0
 45 43  1  0  0  0  0
 45 37  2  0  0  0  0
M  END
>  <minimizedAffinity>
-5.65009451

>  <minimizedRMSD>
0.131822333

$$$$
