
 OpenBabel03242523553D

 45 48  0  0  1  0  0  0  0  0999 V2000
   42.8190   34.5170   38.7490 C   0  0  1  0  0  0  0  0  0  0  0  0
   42.9600   35.1860   40.1070 C   0  0  1  0  0  0  0  0  0  0  0  0
   41.6670   35.4050   40.6270 O   0  0  0  0  0  0  0  0  0  0  0  0
   40.7370   35.7370   39.6400 C   0  0  0  0  0  0  0  0  0  0  0  0
   40.4380   34.5650   38.7260 C   0  0  2  0  0  0  0  0  0  0  0  0
   41.6570   33.5870   38.8570 C   0  0  1  0  0  0  0  0  0  0  0  0
   43.7600   34.0110   38.4450 H   0  0  0  0  0  0  0  0  0  0  0  0
   43.5440   36.1070   40.0800 H   0  0  0  0  0  0  0  0  0  0  0  0
   41.0250   36.6440   39.0730 H   0  0  0  0  0  0  0  0  0  0  0  0
   39.8070   35.9530   40.1790 H   0  0  0  0  0  0  0  0  0  0  0  0
   39.5160   34.0250   39.0200 H   0  0  0  0  0  0  0  0  0  0  0  0
   41.4500   33.3270   39.9500 H   0  0  0  0  0  0  0  0  0  0  0  0
   42.5940   35.4730   37.7470 O   0  0  0  0  0  0  0  0  0  0  0  0
   43.4470   35.8350   37.4210 H   0  0  0  0  0  0  0  0  0  0  0  0
   40.4490   34.9840   37.4060 O   0  0  0  0  0  0  0  0  0  0  0  0
   39.7870   34.5150   36.8360 H   0  0  0  0  0  0  0  0  0  0  0  0
   43.4920   34.1960   40.9540 O   0  0  0  0  0  0  0  0  0  0  0  0
   44.5980   34.3430   41.6950 C   0  0  0  0  0  0  0  0  0  0  0  0
   45.8600   34.4450   41.0930 C   0  0  0  0  0  0  0  0  0  0  0  0
   46.9730   34.5970   41.9020 C   0  0  0  0  0  0  0  0  0  0  0  0
   46.8090   34.6440   43.2760 N   0  0  0  0  0  0  0  0  0  0  0  0
   45.5750   34.5410   43.8200 C   0  0  0  0  0  0  0  0  0  0  0  0
   44.4780   34.3910   43.0330 N   0  0  0  0  0  0  0  0  0  0  0  0
   45.9940   34.4090   40.0330 H   0  0  0  0  0  0  0  0  0  0  0  0
   45.4340   34.5760   44.9000 H   0  0  0  0  0  0  0  0  0  0  0  0
   48.3530   34.6910   41.3400 C   0  0  0  0  0  0  0  0  0  0  0  0
   49.0800   36.0230   41.5050 C   0  0  0  0  0  0  0  0  0  0  0  0
   49.4990   34.7090   42.1910 C   0  0  0  0  0  0  0  0  0  0  0  0
   48.4010   34.2350   40.3160 H   0  0  0  0  0  0  0  0  0  0  0  0
   48.6270   36.8010   42.1160 H   0  0  0  0  0  0  0  0  0  0  0  0
   49.7490   36.2940   40.6620 H   0  0  0  0  0  0  0  0  0  0  0  0
   50.4340   34.2130   41.8390 H   0  0  0  0  0  0  0  0  0  0  0  0
   49.4380   34.7100   43.2990 H   0  0  0  0  0  0  0  0  0  0  0  0
   41.5210   32.6440   37.9140 O   0  0  0  0  0  0  0  0  0  0  0  0
   40.9180   31.4490   37.9330 C   0  0  0  0  0  0  0  0  0  0  0  0
   39.6840   31.2930   37.4700 O   0  0  0  0  0  0  0  0  0  0  0  0
   41.3320   30.0740   38.3910 C   0  0  0  0  0  0  0  0  0  0  0  0
   40.5080   29.3190   39.1380 C   0  0  0  0  0  0  0  0  0  0  0  0
   39.5420   29.5860   39.4780 H   0  0  0  0  0  0  0  0  0  0  0  0
   40.8910   28.0330   39.5510 C   0  0  0  0  0  3  0  0  0  0  0  0
   42.1160   27.5080   39.2080 C   0  0  0  0  0  0  0  0  0  0  0  0
   42.3930   26.5190   39.5350 H   0  0  0  0  0  0  0  0  0  0  0  0
   42.9990   28.2360   38.4460 C   0  0  0  0  0  0  0  0  0  0  0  0
   43.9760   27.9030   38.1320 H   0  0  0  0  0  0  0  0  0  0  0  0
   42.5560   29.4720   38.0840 C   0  0  0  0  0  3  0  0  0  0  0  0
  1  7  1  6  0  0  0
  1  6  1  0  0  0  0
  1  2  1  0  0  0  0
  2  8  1  6  0  0  0
  2  3  1  0  0  0  0
  2 17  1  0  0  0  0
  4 10  1  0  0  0  0
  4  3  1  0  0  0  0
  5  6  1  0  0  0  0
  5 11  1  1  0  0  0
  5  4  1  0  0  0  0
  6 12  1  1  0  0  0
  9  4  1  0  0  0  0
 13  1  1  0  0  0  0
 14 13  1  0  0  0  0
 15  5  1  0  0  0  0
 16 15  1  0  0  0  0
 17 18  1  0  0  0  0
 18 23  1  0  0  0  0
 19 18  2  0  0  0  0
 19 20  1  0  0  0  0
 20 21  2  0  0  0  0
 21 22  1  0  0  0  0
 22 25  1  0  0  0  0
 23 22  2  0  0  0  0
 24 19  1  0  0  0  0
 26 27  1  0  0  0  0
 26 20  1  0  0  0  0
 26 28  1  0  0  0  0
 27 30  1  0  0  0  0
 27 28  1  0  0  0  0
 28 33  1  0  0  0  0
 29 26  1  0  0  0  0
 31 27  1  0  0  0  0
 32 28  1  0  0  0  0
 34 35  1  0  0  0  0
 34  6  1  0  0  0  0
 35 37  1  0  0  0  0
 36 35  2  0  0  0  0
 37 38  1  0  0  0  0
 38 39  1  0  0  0  0
 38 40  2  0  0  0  0
 41 42  1  0  0  0  0
 41 40  1  0  0  0  0
 43 41  2  0  0  0  0
 44 43  1  0  0  0  0
 45 37  2  0  0  0  0
 45 43  1  0  0  0  0
M  END
>  <minimizedAffinity>
-5.63446093

>  <minimizedRMSD>
0.0828156844

$$$$
