
 OpenBabel03242523543D

 45 48  0  0  1  0  0  0  0  0999 V2000
   42.8200   34.5270   38.7380 C   0  0  1  0  0  0  0  0  0  0  0  0
   42.9630   35.1780   40.1040 C   0  0  1  0  0  0  0  0  0  0  0  0
   41.6690   35.3960   40.6260 O   0  0  0  0  0  0  0  0  0  0  0  0
   40.7420   35.7430   39.6420 C   0  0  0  0  0  0  0  0  0  0  0  0
   40.4390   34.5830   38.7130 C   0  0  2  0  0  0  0  0  0  0  0  0
   41.6540   33.5990   38.8330 C   0  0  1  0  0  0  0  0  0  0  0  0
   43.7600   34.0210   38.4290 H   0  0  0  0  0  0  0  0  0  0  0  0
   43.5490   36.0970   40.0890 H   0  0  0  0  0  0  0  0  0  0  0  0
   41.0340   36.6560   39.0860 H   0  0  0  0  0  0  0  0  0  0  0  0
   39.8120   35.9560   40.1820 H   0  0  0  0  0  0  0  0  0  0  0  0
   39.5150   34.0440   39.0000 H   0  0  0  0  0  0  0  0  0  0  0  0
   41.4450   33.3270   39.9230 H   0  0  0  0  0  0  0  0  0  0  0  0
   42.5990   35.4950   37.7470 O   0  0  0  0  0  0  0  0  0  0  0  0
   43.4540   35.8580   37.4270 H   0  0  0  0  0  0  0  0  0  0  0  0
   40.4530   35.0190   37.3990 O   0  0  0  0  0  0  0  0  0  0  0  0
   39.7900   34.5590   36.8230 H   0  0  0  0  0  0  0  0  0  0  0  0
   43.4900   34.1760   40.9400 O   0  0  0  0  0  0  0  0  0  0  0  0
   44.5940   34.3100   41.6840 C   0  0  0  0  0  0  0  0  0  0  0  0
   45.8570   34.4310   41.0860 C   0  0  0  0  0  0  0  0  0  0  0  0
   46.9690   34.5680   41.8990 C   0  0  0  0  0  0  0  0  0  0  0  0
   46.8030   34.5840   43.2740 N   0  0  0  0  0  0  0  0  0  0  0  0
   45.5690   34.4640   43.8140 C   0  0  0  0  0  0  0  0  0  0  0  0
   44.4730   34.3280   43.0230 N   0  0  0  0  0  0  0  0  0  0  0  0
   45.9920   34.4200   40.0250 H   0  0  0  0  0  0  0  0  0  0  0  0
   45.4280   34.4730   44.8950 H   0  0  0  0  0  0  0  0  0  0  0  0
   48.3490   34.6810   41.3400 C   0  0  0  0  0  0  0  0  0  0  0  0
   49.0630   36.0180   41.5200 C   0  0  0  0  0  0  0  0  0  0  0  0
   49.4930   34.7010   42.1940 C   0  0  0  0  0  0  0  0  0  0  0  0
   48.4030   34.2360   40.3120 H   0  0  0  0  0  0  0  0  0  0  0  0
   48.6020   36.7860   42.1370 H   0  0  0  0  0  0  0  0  0  0  0  0
   49.7300   36.3030   40.6810 H   0  0  0  0  0  0  0  0  0  0  0  0
   50.4330   34.2170   41.8380 H   0  0  0  0  0  0  0  0  0  0  0  0
   49.4300   34.6900   43.3010 H   0  0  0  0  0  0  0  0  0  0  0  0
   41.5150   32.6690   37.8790 O   0  0  0  0  0  0  0  0  0  0  0  0
   40.8810   31.4900   37.8720 C   0  0  0  0  0  0  0  0  0  0  0  0
   39.6090   31.3960   37.5020 O   0  0  0  0  0  0  0  0  0  0  0  0
   41.2880   30.0790   38.2100 C   0  0  0  0  0  0  0  0  0  0  0  0
   40.7300   29.0310   37.5820 C   0  0  0  0  0  0  0  0  0  0  0  0
   39.9830   29.0700   36.8320 H   0  0  0  0  0  0  0  0  0  0  0  0
   41.1220   27.7170   37.8880 C   0  0  0  0  0  3  0  0  0  0  0  0
   42.0840   27.4650   38.8400 C   0  0  0  0  0  0  0  0  0  0  0  0
   42.3720   26.4500   39.0620 H   0  0  0  0  0  0  0  0  0  0  0  0
   42.6870   28.4990   39.5150 C   0  0  0  0  0  0  0  0  0  0  0  0
   43.4480   28.3900   40.2720 H   0  0  0  0  0  0  0  0  0  0  0  0
   42.2560   29.7400   39.1620 C   0  0  0  0  0  3  0  0  0  0  0  0
  1  7  1  6  0  0  0
  1  6  1  0  0  0  0
  1  2  1  0  0  0  0
  2  8  1  6  0  0  0
  2  3  1  0  0  0  0
  2 17  1  0  0  0  0
  4 10  1  0  0  0  0
  4  3  1  0  0  0  0
  5  6  1  0  0  0  0
  5 11  1  1  0  0  0
  5  4  1  0  0  0  0
  6 12  1  1  0  0  0
  9  4  1  0  0  0  0
 13  1  1  0  0  0  0
 14 13  1  0  0  0  0
 15  5  1  0  0  0  0
 16 15  1  0  0  0  0
 17 18  1  0  0  0  0
 18 23  1  0  0  0  0
 19 18  2  0  0  0  0
 19 20  1  0  0  0  0
 20 21  2  0  0  0  0
 21 22  1  0  0  0  0
 22 25  1  0  0  0  0
 23 22  2  0  0  0  0
 24 19  1  0  0  0  0
 26 27  1  0  0  0  0
 26 20  1  0  0  0  0
 26 28  1  0  0  0  0
 27 30  1  0  0  0  0
 27 28  1  0  0  0  0
 28 33  1  0  0  0  0
 29 26  1  0  0  0  0
 31 27  1  0  0  0  0
 32 28  1  0  0  0  0
 34  6  1  0  0  0  0
 35 34  1  0  0  0  0
 35 37  1  0  0  0  0
 36 35  2  0  0  0  0
 37 45  1  0  0  0  0
 38 40  1  0  0  0  0
 38 37  2  0  0  0  0
 39 38  1  0  0  0  0
 40 41  2  0  0  0  0
 41 42  1  0  0  0  0
 41 43  1  0  0  0  0
 43 44  1  0  0  0  0
 45 43  2  0  0  0  0
M  END
>  <minimizedAffinity>
-5.60495853

>  <minimizedRMSD>
0.118405789

$$$$
