
 OpenBabel03242523543D

 45 48  0  0  1  0  0  0  0  0999 V2000
   42.7950   34.3040   38.9840 C   0  0  1  0  0  0  0  0  0  0  0  0
   43.0110   35.1670   40.2160 C   0  0  1  0  0  0  0  0  0  0  0  0
   41.7500   35.6180   40.6650 O   0  0  0  0  0  0  0  0  0  0  0  0
   40.8690   35.8870   39.6160 C   0  0  0  0  0  0  0  0  0  0  0  0
   40.4370   34.6210   38.9010 C   0  0  2  0  0  0  0  0  0  0  0  0
   41.5320   33.5450   39.2180 C   0  0  1  0  0  0  0  0  0  0  0  0
   43.6710   33.6490   38.7890 H   0  0  0  0  0  0  0  0  0  0  0  0
   43.6990   35.9970   40.0510 H   0  0  0  0  0  0  0  0  0  0  0  0
   41.2640   36.6480   38.9140 H   0  0  0  0  0  0  0  0  0  0  0  0
   39.9700   36.2950   40.0910 H   0  0  0  0  0  0  0  0  0  0  0  0
   39.4570   34.2490   39.2590 H   0  0  0  0  0  0  0  0  0  0  0  0
   41.2930   33.4960   40.3340 H   0  0  0  0  0  0  0  0  0  0  0  0
   42.6870   35.0990   37.8340 O   0  0  0  0  0  0  0  0  0  0  0  0
   43.5770   35.3010   37.4720 H   0  0  0  0  0  0  0  0  0  0  0  0
   40.5000   34.8120   37.5310 O   0  0  0  0  0  0  0  0  0  0  0  0
   39.7890   34.3340   37.0310 H   0  0  0  0  0  0  0  0  0  0  0  0
   43.4200   34.2770   41.2270 O   0  0  0  0  0  0  0  0  0  0  0  0
   44.5730   34.3690   41.9000 C   0  0  0  0  0  0  0  0  0  0  0  0
   45.7950   34.4960   41.2240 C   0  0  0  0  0  0  0  0  0  0  0  0
   46.9600   34.5890   41.9650 C   0  0  0  0  0  0  0  0  0  0  0  0
   46.8870   34.5550   43.3470 N   0  0  0  0  0  0  0  0  0  0  0  0
   45.6890   34.4310   43.9640 C   0  0  0  0  0  0  0  0  0  0  0  0
   44.5420   34.3390   43.2430 N   0  0  0  0  0  0  0  0  0  0  0  0
   45.8590   34.5230   40.1560 H   0  0  0  0  0  0  0  0  0  0  0  0
   45.6210   34.4020   45.0510 H   0  0  0  0  0  0  0  0  0  0  0  0
   48.3020   34.7050   41.3190 C   0  0  0  0  0  0  0  0  0  0  0  0
   49.0540   36.0190   41.5130 C   0  0  0  0  0  0  0  0  0  0  0  0
   49.5010   34.6630   42.0930 C   0  0  0  0  0  0  0  0  0  0  0  0
   48.2780   34.3100   40.2700 H   0  0  0  0  0  0  0  0  0  0  0  0
   48.6520   36.7640   42.1970 H   0  0  0  0  0  0  0  0  0  0  0  0
   49.6700   36.3330   40.6460 H   0  0  0  0  0  0  0  0  0  0  0  0
   50.4050   34.1810   41.6520 H   0  0  0  0  0  0  0  0  0  0  0  0
   49.5120   34.6000   43.2010 H   0  0  0  0  0  0  0  0  0  0  0  0
   41.2880   32.4810   38.4400 O   0  0  0  0  0  0  0  0  0  0  0  0
   40.3000   31.5780   38.4530 C   0  0  0  0  0  0  0  0  0  0  0  0
   39.8340   31.0520   37.3270 O   0  0  0  0  0  0  0  0  0  0  0  0
   39.4920   30.9240   39.5450 C   0  0  0  0  0  0  0  0  0  0  0  0
   40.0190   30.7190   40.7640 C   0  0  0  0  0  0  0  0  0  0  0  0
   40.9990   30.9650   41.0770 H   0  0  0  0  0  0  0  0  0  0  0  0
   39.2580   30.1230   41.7840 C   0  0  0  0  0  3  0  0  0  0  0  0
   37.9580   29.7320   41.5670 C   0  0  0  0  0  0  0  0  0  0  0  0
   37.3890   29.2770   42.3610 H   0  0  0  0  0  0  0  0  0  0  0  0
   37.3670   29.9180   40.3400 C   0  0  0  0  0  0  0  0  0  0  0  0
   36.3560   29.6420   40.0850 H   0  0  0  0  0  0  0  0  0  0  0  0
   38.1660   30.5010   39.4040 C   0  0  0  0  0  3  0  0  0  0  0  0
  1  7  1  6  0  0  0
  1  6  1  0  0  0  0
  1  2  1  0  0  0  0
  2  8  1  6  0  0  0
  2  3  1  0  0  0  0
  2 17  1  0  0  0  0
  4 10  1  0  0  0  0
  4  3  1  0  0  0  0
  5  6  1  0  0  0  0
  5 11  1  1  0  0  0
  5  4  1  0  0  0  0
  6 12  1  1  0  0  0
  9  4  1  0  0  0  0
 13  1  1  0  0  0  0
 14 13  1  0  0  0  0
 15  5  1  0  0  0  0
 16 15  1  0  0  0  0
 17 18  1  0  0  0  0
 18 23  1  0  0  0  0
 19 18  2  0  0  0  0
 19 20  1  0  0  0  0
 20 21  2  0  0  0  0
 21 22  1  0  0  0  0
 22 25  1  0  0  0  0
 23 22  2  0  0  0  0
 24 19  1  0  0  0  0
 26 27  1  0  0  0  0
 26 20  1  0  0  0  0
 26 28  1  0  0  0  0
 27 28  1  0  0  0  0
 27 30  1  0  0  0  0
 28 33  1  0  0  0  0
 29 26  1  0  0  0  0
 31 27  1  0  0  0  0
 32 28  1  0  0  0  0
 34 35  1  0  0  0  0
 34  6  1  0  0  0  0
 35 37  1  0  0  0  0
 36 35  2  0  0  0  0
 37 38  1  0  0  0  0
 38 39  1  0  0  0  0
 38 40  2  0  0  0  0
 41 40  1  0  0  0  0
 41 42  1  0  0  0  0
 43 41  2  0  0  0  0
 44 43  1  0  0  0  0
 45 37  2  0  0  0  0
 45 43  1  0  0  0  0
M  END
>  <minimizedAffinity>
-6.36968279

>  <minimizedRMSD>
1.94692075

$$$$
