
 OpenBabel03242523543D

 45 48  0  0  1  0  0  0  0  0999 V2000
   42.6710   34.4380   38.8910 C   0  0  1  0  0  0  0  0  0  0  0  0
   42.9910   35.1830   40.1770 C   0  0  1  0  0  0  0  0  0  0  0  0
   41.7740   35.5770   40.7730 O   0  0  0  0  0  0  0  0  0  0  0  0
   40.8050   35.9360   39.8340 C   0  0  0  0  0  0  0  0  0  0  0  0
   40.3130   34.7400   39.0420 C   0  0  2  0  0  0  0  0  0  0  0  0
   41.4330   33.6480   39.1600 C   0  0  1  0  0  0  0  0  0  0  0  0
   43.5270   33.8130   38.5600 H   0  0  0  0  0  0  0  0  0  0  0  0
   43.6610   36.0310   40.0330 H   0  0  0  0  0  0  0  0  0  0  0  0
   41.1360   36.7640   39.1760 H   0  0  0  0  0  0  0  0  0  0  0  0
   39.9490   36.2890   40.4220 H   0  0  0  0  0  0  0  0  0  0  0  0
   39.3690   34.3260   39.4470 H   0  0  0  0  0  0  0  0  0  0  0  0
   41.2920   33.4920   40.2820 H   0  0  0  0  0  0  0  0  0  0  0  0
   42.4620   35.3370   37.8350 O   0  0  0  0  0  0  0  0  0  0  0  0
   43.3180   35.5810   37.4190 H   0  0  0  0  0  0  0  0  0  0  0  0
   40.2580   35.0600   37.6960 O   0  0  0  0  0  0  0  0  0  0  0  0
   39.5070   34.6250   37.2160 H   0  0  0  0  0  0  0  0  0  0  0  0
   43.4880   34.2050   41.0590 O   0  0  0  0  0  0  0  0  0  0  0  0
   44.6120   34.3280   41.7760 C   0  0  0  0  0  0  0  0  0  0  0  0
   45.8580   34.4580   41.1460 C   0  0  0  0  0  0  0  0  0  0  0  0
   46.9910   34.5830   41.9310 C   0  0  0  0  0  0  0  0  0  0  0  0
   46.8620   34.5770   43.3100 N   0  0  0  0  0  0  0  0  0  0  0  0
   45.6430   34.4490   43.8810 C   0  0  0  0  0  0  0  0  0  0  0  0
   44.5260   34.3250   43.1170 N   0  0  0  0  0  0  0  0  0  0  0  0
   45.9640   34.4630   40.0820 H   0  0  0  0  0  0  0  0  0  0  0  0
   45.5310   34.4420   44.9650 H   0  0  0  0  0  0  0  0  0  0  0  0
   48.3560   34.7040   41.3370 C   0  0  0  0  0  0  0  0  0  0  0  0
   49.0760   36.0380   41.5190 C   0  0  0  0  0  0  0  0  0  0  0  0
   49.5220   34.7100   42.1600 C   0  0  0  0  0  0  0  0  0  0  0  0
   48.3820   34.2750   40.3010 H   0  0  0  0  0  0  0  0  0  0  0  0
   48.6320   36.7960   42.1610 H   0  0  0  0  0  0  0  0  0  0  0  0
   49.7210   36.3360   40.6670 H   0  0  0  0  0  0  0  0  0  0  0  0
   50.4520   34.2310   41.7720 H   0  0  0  0  0  0  0  0  0  0  0  0
   49.4890   34.6820   43.2690 H   0  0  0  0  0  0  0  0  0  0  0  0
   41.1240   32.6610   38.3090 O   0  0  0  0  0  0  0  0  0  0  0  0
   40.2340   31.6640   38.3890 C   0  0  0  0  0  0  0  0  0  0  0  0
   39.8190   31.0230   37.3020 O   0  0  0  0  0  0  0  0  0  0  0  0
   39.5020   31.0020   39.5280 C   0  0  0  0  0  0  0  0  0  0  0  0
   38.3990   31.5600   40.0570 C   0  0  0  0  0  0  0  0  0  0  0  0
   37.9530   32.4740   39.7640 H   0  0  0  0  0  0  0  0  0  0  0  0
   37.7120   30.9330   41.1090 C   0  0  0  0  0  3  0  0  0  0  0  0
   38.1430   29.7340   41.6280 C   0  0  0  0  0  0  0  0  0  0  0  0
   37.6020   29.2680   42.4350 H   0  0  0  0  0  0  0  0  0  0  0  0
   39.2650   29.1180   41.1250 C   0  0  0  0  0  0  0  0  0  0  0  0
   39.6690   28.1810   41.4720 H   0  0  0  0  0  0  0  0  0  0  0  0
   39.8760   29.7860   40.1080 C   0  0  0  0  0  3  0  0  0  0  0  0
  1  7  1  6  0  0  0
  1  6  1  0  0  0  0
  1  2  1  0  0  0  0
  2  8  1  6  0  0  0
  2  3  1  0  0  0  0
  2 17  1  0  0  0  0
  4 10  1  0  0  0  0
  4  3  1  0  0  0  0
  5  6  1  0  0  0  0
  5 11  1  1  0  0  0
  5  4  1  0  0  0  0
  6 12  1  1  0  0  0
  9  4  1  0  0  0  0
 13  1  1  0  0  0  0
 14 13  1  0  0  0  0
 15  5  1  0  0  0  0
 16 15  1  0  0  0  0
 17 18  1  0  0  0  0
 18 23  1  0  0  0  0
 19 18  2  0  0  0  0
 19 20  1  0  0  0  0
 20 21  2  0  0  0  0
 21 22  1  0  0  0  0
 22 25  1  0  0  0  0
 23 22  2  0  0  0  0
 24 19  1  0  0  0  0
 26 27  1  0  0  0  0
 26 20  1  0  0  0  0
 26 28  1  0  0  0  0
 27 28  1  0  0  0  0
 27 30  1  0  0  0  0
 28 33  1  0  0  0  0
 29 26  1  0  0  0  0
 31 27  1  0  0  0  0
 32 28  1  0  0  0  0
 34 35  1  0  0  0  0
 34  6  1  0  0  0  0
 35 37  1  0  0  0  0
 36 35  2  0  0  0  0
 37 38  2  0  0  0  0
 37 45  1  0  0  0  0
 38 40  1  0  0  0  0
 39 38  1  0  0  0  0
 40 41  2  0  0  0  0
 41 42  1  0  0  0  0
 43 44  1  0  0  0  0
 43 41  1  0  0  0  0
 45 43  2  0  0  0  0
M  END
>  <minimizedAffinity>
-6.35355425

>  <minimizedRMSD>
1.97067225

$$$$
