
 OpenBabel03242523553D

 45 48  0  0  1  0  0  0  0  0999 V2000
   42.8150   34.5000   38.7590 C   0  0  1  0  0  0  0  0  0  0  0  0
   42.9680   35.1880   40.1060 C   0  0  1  0  0  0  0  0  0  0  0  0
   41.6780   35.4350   40.6240 O   0  0  0  0  0  0  0  0  0  0  0  0
   40.7530   35.7660   39.6320 C   0  0  0  0  0  0  0  0  0  0  0  0
   40.4350   34.5830   38.7380 C   0  0  2  0  0  0  0  0  0  0  0  0
   41.6390   33.5890   38.8840 C   0  0  1  0  0  0  0  0  0  0  0  0
   43.7480   33.9740   38.4630 H   0  0  0  0  0  0  0  0  0  0  0  0
   43.5650   36.0990   40.0640 H   0  0  0  0  0  0  0  0  0  0  0  0
   41.0540   36.6590   39.0510 H   0  0  0  0  0  0  0  0  0  0  0  0
   39.8270   36.0040   40.1690 H   0  0  0  0  0  0  0  0  0  0  0  0
   39.5050   34.0630   39.0420 H   0  0  0  0  0  0  0  0  0  0  0  0
   41.4290   33.3500   39.9810 H   0  0  0  0  0  0  0  0  0  0  0  0
   42.6030   35.4420   37.7420 O   0  0  0  0  0  0  0  0  0  0  0  0
   43.4610   35.7850   37.4100 H   0  0  0  0  0  0  0  0  0  0  0  0
   40.4500   34.9810   37.4120 O   0  0  0  0  0  0  0  0  0  0  0  0
   39.7810   34.5130   36.8500 H   0  0  0  0  0  0  0  0  0  0  0  0
   43.4860   34.2040   40.9690 O   0  0  0  0  0  0  0  0  0  0  0  0
   44.5940   34.3450   41.7060 C   0  0  0  0  0  0  0  0  0  0  0  0
   45.8550   34.4480   41.1000 C   0  0  0  0  0  0  0  0  0  0  0  0
   46.9710   34.5940   41.9040 C   0  0  0  0  0  0  0  0  0  0  0  0
   46.8120   34.6360   43.2800 N   0  0  0  0  0  0  0  0  0  0  0  0
   45.5800   34.5330   43.8280 C   0  0  0  0  0  0  0  0  0  0  0  0
   44.4800   34.3890   43.0440 N   0  0  0  0  0  0  0  0  0  0  0  0
   45.9840   34.4170   40.0380 H   0  0  0  0  0  0  0  0  0  0  0  0
   45.4440   34.5630   44.9090 H   0  0  0  0  0  0  0  0  0  0  0  0
   48.3490   34.6890   41.3370 C   0  0  0  0  0  0  0  0  0  0  0  0
   49.0770   36.0210   41.5000 C   0  0  0  0  0  0  0  0  0  0  0  0
   49.4980   34.7060   42.1840 C   0  0  0  0  0  0  0  0  0  0  0  0
   48.3930   34.2330   40.3130 H   0  0  0  0  0  0  0  0  0  0  0  0
   48.6260   36.7990   42.1130 H   0  0  0  0  0  0  0  0  0  0  0  0
   49.7420   36.2920   40.6550 H   0  0  0  0  0  0  0  0  0  0  0  0
   50.4320   34.2100   41.8280 H   0  0  0  0  0  0  0  0  0  0  0  0
   49.4410   34.7060   43.2920 H   0  0  0  0  0  0  0  0  0  0  0  0
   41.4870   32.6330   37.9570 O   0  0  0  0  0  0  0  0  0  0  0  0
   40.8030   31.4830   37.9700 C   0  0  0  0  0  0  0  0  0  0  0  0
   39.5900   31.3960   37.4360 O   0  0  0  0  0  0  0  0  0  0  0  0
   41.0930   30.0980   38.4890 C   0  0  0  0  0  0  0  0  0  0  0  0
   42.1590   29.8640   39.2740 C   0  0  0  0  0  0  0  0  0  0  0  0
   42.8770   30.5750   39.5880 H   0  0  0  0  0  0  0  0  0  0  0  0
   42.4170   28.5750   39.7680 C   0  0  0  0  0  3  0  0  0  0  0  0
   41.5920   27.5170   39.4660 C   0  0  0  0  0  0  0  0  0  0  0  0
   41.8070   26.5350   39.8550 H   0  0  0  0  0  0  0  0  0  0  0  0
   40.4880   27.6980   38.6680 C   0  0  0  0  0  0  0  0  0  0  0  0
   39.7900   26.9260   38.3830 H   0  0  0  0  0  0  0  0  0  0  0  0
   40.3030   28.9730   38.2280 C   0  0  0  0  0  3  0  0  0  0  0  0
  1  7  1  6  0  0  0
  1  6  1  0  0  0  0
  1  2  1  0  0  0  0
  2  8  1  6  0  0  0
  2  3  1  0  0  0  0
  2 17  1  0  0  0  0
  4 10  1  0  0  0  0
  4  3  1  0  0  0  0
  5  6  1  0  0  0  0
  5 11  1  1  0  0  0
  5  4  1  0  0  0  0
  6 12  1  1  0  0  0
  9  4  1  0  0  0  0
 13  1  1  0  0  0  0
 14 13  1  0  0  0  0
 15  5  1  0  0  0  0
 16 15  1  0  0  0  0
 17 18  1  0  0  0  0
 18 23  1  0  0  0  0
 19 18  2  0  0  0  0
 19 20  1  0  0  0  0
 20 21  2  0  0  0  0
 21 22  1  0  0  0  0
 22 25  1  0  0  0  0
 23 22  2  0  0  0  0
 24 19  1  0  0  0  0
 26 27  1  0  0  0  0
 26 20  1  0  0  0  0
 26 28  1  0  0  0  0
 27 30  1  0  0  0  0
 27 28  1  0  0  0  0
 28 33  1  0  0  0  0
 29 26  1  0  0  0  0
 31 27  1  0  0  0  0
 32 28  1  0  0  0  0
 34 35  1  0  0  0  0
 34  6  1  0  0  0  0
 35 37  1  0  0  0  0
 36 35  2  0  0  0  0
 37 38  1  0  0  0  0
 38 39  1  0  0  0  0
 38 40  2  0  0  0  0
 41 40  1  0  0  0  0
 41 42  1  0  0  0  0
 43 41  2  0  0  0  0
 44 43  1  0  0  0  0
 45 37  2  0  0  0  0
 45 43  1  0  0  0  0
M  END
>  <minimizedAffinity>
-5.63906002

>  <minimizedRMSD>
0.243173912

$$$$
