
 OpenBabel03242523543D

 45 48  0  0  1  0  0  0  0  0999 V2000
   42.8170   34.5200   38.7450 C   0  0  1  0  0  0  0  0  0  0  0  0
   42.9600   35.1840   40.1050 C   0  0  1  0  0  0  0  0  0  0  0  0
   41.6670   35.4060   40.6250 O   0  0  0  0  0  0  0  0  0  0  0  0
   40.7390   35.7440   39.6380 C   0  0  0  0  0  0  0  0  0  0  0  0
   40.4370   34.5750   38.7210 C   0  0  2  0  0  0  0  0  0  0  0  0
   41.6520   33.5930   38.8490 C   0  0  1  0  0  0  0  0  0  0  0  0
   43.7570   34.0120   38.4400 H   0  0  0  0  0  0  0  0  0  0  0  0
   43.5460   36.1030   40.0810 H   0  0  0  0  0  0  0  0  0  0  0  0
   41.0300   36.6520   39.0740 H   0  0  0  0  0  0  0  0  0  0  0  0
   39.8090   35.9610   40.1770 H   0  0  0  0  0  0  0  0  0  0  0  0
   39.5130   34.0380   39.0130 H   0  0  0  0  0  0  0  0  0  0  0  0
   41.4440   33.3310   39.9410 H   0  0  0  0  0  0  0  0  0  0  0  0
   42.5960   35.4800   37.7460 O   0  0  0  0  0  0  0  0  0  0  0  0
   43.4500   35.8400   37.4210 H   0  0  0  0  0  0  0  0  0  0  0  0
   40.4490   34.9990   37.4020 O   0  0  0  0  0  0  0  0  0  0  0  0
   39.7870   34.5340   36.8300 H   0  0  0  0  0  0  0  0  0  0  0  0
   43.4880   34.1900   40.9500 O   0  0  0  0  0  0  0  0  0  0  0  0
   44.5940   34.3310   41.6910 C   0  0  0  0  0  0  0  0  0  0  0  0
   45.8560   34.4380   41.0910 C   0  0  0  0  0  0  0  0  0  0  0  0
   46.9690   34.5830   41.9010 C   0  0  0  0  0  0  0  0  0  0  0  0
   46.8040   34.6190   43.2760 N   0  0  0  0  0  0  0  0  0  0  0  0
   45.5700   34.5120   43.8180 C   0  0  0  0  0  0  0  0  0  0  0  0
   44.4730   34.3690   43.0300 N   0  0  0  0  0  0  0  0  0  0  0  0
   45.9900   34.4110   40.0300 H   0  0  0  0  0  0  0  0  0  0  0  0
   45.4300   34.5380   44.8980 H   0  0  0  0  0  0  0  0  0  0  0  0
   48.3490   34.6820   41.3400 C   0  0  0  0  0  0  0  0  0  0  0  0
   49.0710   36.0170   41.5050 C   0  0  0  0  0  0  0  0  0  0  0  0
   49.4940   34.7040   42.1920 C   0  0  0  0  0  0  0  0  0  0  0  0
   48.3990   34.2270   40.3160 H   0  0  0  0  0  0  0  0  0  0  0  0
   48.6150   36.7940   42.1160 H   0  0  0  0  0  0  0  0  0  0  0  0
   49.7390   36.2900   40.6630 H   0  0  0  0  0  0  0  0  0  0  0  0
   50.4310   34.2110   41.8400 H   0  0  0  0  0  0  0  0  0  0  0  0
   49.4320   34.7050   43.3000 H   0  0  0  0  0  0  0  0  0  0  0  0
   41.5130   32.6540   37.9040 O   0  0  0  0  0  0  0  0  0  0  0  0
   40.8730   31.4790   37.9050 C   0  0  0  0  0  0  0  0  0  0  0  0
   39.6230   31.3760   37.4670 O   0  0  0  0  0  0  0  0  0  0  0  0
   41.2510   30.0800   38.3180 C   0  0  0  0  0  0  0  0  0  0  0  0
   40.3250   29.1080   38.3930 C   0  0  0  0  0  0  0  0  0  0  0  0
   39.2900   29.2080   38.1950 H   0  0  0  0  0  0  0  0  0  0  0  0
   40.6840   27.8030   38.7640 C   0  0  0  0  0  3  0  0  0  0  0  0
   41.9870   27.4780   39.0620 C   0  0  0  0  0  0  0  0  0  0  0  0
   42.2430   26.4700   39.3450 H   0  0  0  0  0  0  0  0  0  0  0  0
   42.9740   28.4320   39.0020 C   0  0  0  0  0  0  0  0  0  0  0  0
   44.0180   28.2640   39.2190 H   0  0  0  0  0  0  0  0  0  0  0  0
   42.5510   29.6710   38.6350 C   0  0  0  0  0  3  0  0  0  0  0  0
  1  7  1  6  0  0  0
  1  6  1  0  0  0  0
  1  2  1  0  0  0  0
  2  8  1  6  0  0  0
  2  3  1  0  0  0  0
  2 17  1  0  0  0  0
  4 10  1  0  0  0  0
  4  3  1  0  0  0  0
  5  6  1  0  0  0  0
  5 11  1  1  0  0  0
  5  4  1  0  0  0  0
  6 12  1  1  0  0  0
  9  4  1  0  0  0  0
 13  1  1  0  0  0  0
 14 13  1  0  0  0  0
 15  5  1  0  0  0  0
 16 15  1  0  0  0  0
 17 18  1  0  0  0  0
 18 23  1  0  0  0  0
 19 18  2  0  0  0  0
 19 20  1  0  0  0  0
 20 21  2  0  0  0  0
 21 22  1  0  0  0  0
 22 25  1  0  0  0  0
 23 22  2  0  0  0  0
 24 19  1  0  0  0  0
 26 27  1  0  0  0  0
 26 20  1  0  0  0  0
 26 28  1  0  0  0  0
 27 30  1  0  0  0  0
 27 28  1  0  0  0  0
 28 33  1  0  0  0  0
 29 26  1  0  0  0  0
 31 27  1  0  0  0  0
 32 28  1  0  0  0  0
 34 35  1  0  0  0  0
 34  6  1  0  0  0  0
 35 37  1  0  0  0  0
 36 35  2  0  0  0  0
 37 38  2  0  0  0  0
 37 45  1  0  0  0  0
 38 40  1  0  0  0  0
 39 38  1  0  0  0  0
 40 41  2  0  0  0  0
 41 42  1  0  0  0  0
 43 41  1  0  0  0  0
 43 44  1  0  0  0  0
 45 43  2  0  0  0  0
M  END
>  <minimizedAffinity>
-5.61341429

>  <minimizedRMSD>
0.112245575

$$$$
