
 OpenBabel03242521173D

 38 40  0  0  0  0  0  0  0  0999 V2000
   44.5670   35.5280   44.8920 C   0  0  0  0  0  0  0  0  0  0  0  0
   45.1500   35.5270   43.6080 C   0  0  0  0  0  0  0  0  0  0  0  0
   46.1710   34.6120   43.3710 C   0  0  0  0  0  0  0  0  0  0  0  0
   46.5510   33.7720   44.3890 N   0  0  0  0  0  0  0  0  0  0  0  0
   45.9690   33.8090   45.5920 C   0  0  0  0  0  0  0  0  0  0  0  0
   44.9660   34.6900   45.8640 N   0  0  0  0  0  0  0  0  0  0  0  0
   43.7840   36.2270   45.0770 H   0  0  0  0  0  0  0  0  0  0  0  0
   44.8260   36.2000   42.8370 H   0  0  0  0  0  0  0  0  0  0  0  0
   46.7700   34.5950   42.0850 N   0  0  0  0  0  0  0  0  0  0  0  0
   47.9650   35.2230   41.9360 C   0  0  0  0  0  0  0  0  0  0  0  0
   48.5620   35.2130   40.6760 C   0  0  0  0  0  0  0  0  0  0  0  0
   47.9250   34.5770   39.6590 C   0  0  0  0  0  0  0  0  0  0  0  0
   48.4800   34.5760   38.5210 O   0  0  0  0  0  0  0  0  0  0  0  0
   46.7370   33.9480   39.7960 N   0  0  0  0  0  0  0  0  0  0  0  0
   46.1960   33.9860   41.0390 C   0  0  0  0  0  0  0  0  0  0  0  0
   45.1060   33.4400   41.2760 O   0  0  0  0  0  0  0  0  0  0  0  0
   48.4520   35.7240   42.7630 H   0  0  0  0  0  0  0  0  0  0  0  0
   49.5100   35.7110   40.5570 H   0  0  0  0  0  0  0  0  0  0  0  0
   46.2780   33.4740   39.0070 H   0  0  0  0  0  0  0  0  0  0  0  0
   46.5600   32.8020   46.5080 C   0  0  0  0  0  0  0  0  0  0  0  0
   46.9330   31.8960   45.9730 H   0  0  0  0  0  0  0  0  0  0  0  0
   47.4850   33.2780   46.9360 H   0  0  0  0  0  0  0  0  0  0  0  0
   45.6010   32.4440   47.6170 C   0  0  0  0  0  0  0  0  0  0  0  0
   46.1550   32.3550   48.5520 H   0  0  0  0  0  0  0  0  0  0  0  0
   44.8980   33.3150   47.7540 H   0  0  0  0  0  0  0  0  0  0  0  0
   45.3870   30.0050   47.6040 C   0  0  0  0  0  0  0  0  0  0  0  0
   46.4660   29.9880   48.2230 O   0  0  0  0  0  0  0  0  0  0  0  0
   44.8780   31.2550   47.2510 N   0  0  0  0  0  0  0  0  0  0  0  0
   43.9810   31.3270   46.7270 H   0  0  0  0  0  0  0  0  0  0  0  0
   44.7360   28.7360   47.2940 C   0  0  0  0  0  0  0  0  0  0  0  0
   43.9650   28.6830   46.1540 C   0  0  0  0  0  0  0  0  0  0  0  0
   43.8370   29.5450   45.5000 H   0  0  0  0  0  0  0  0  0  0  0  0
   43.2980   27.5170   45.7660 C   0  0  0  0  0  0  0  0  0  0  0  0
   43.4840   26.4480   46.6180 C   0  0  0  0  0  0  0  0  0  0  0  0
   42.9690   25.5230   46.3300 H   0  0  0  0  0  0  0  0  0  0  0  0
   44.2380   26.4290   47.7720 C   0  0  0  0  0  0  0  0  0  0  0  0
   44.3060   25.5220   48.3590 H   0  0  0  0  0  0  0  0  0  0  0  0
   44.8640   27.6160   48.0870 C   0  0  0  0  0  0  0  0  0  0  0  0
  1  7  1  0  0  0  0
  1  6  1  0  0  0  0
  2  1  2  0  0  0  0
  3  2  1  0  0  0  0
  3  4  2  0  0  0  0
  4  5  1  0  0  0  0
  5  6  2  0  0  0  0
  5 20  1  0  0  0  0
  8  2  1  0  0  0  0
  9  3  1  0  0  0  0
 10  9  1  0  0  0  0
 10 17  1  0  0  0  0
 11 10  2  0  0  0  0
 12 14  1  0  0  0  0
 12 11  1  0  0  0  0
 13 12  2  0  0  0  0
 14 15  1  0  0  0  0
 15 16  2  0  0  0  0
 15  9  1  0  0  0  0
 18 11  1  0  0  0  0
 19 14  1  0  0  0  0
 20 22  1  0  0  0  0
 20 23  1  0  0  0  0
 21 20  1  0  0  0  0
 23 25  1  0  0  0  0
 23 24  1  0  0  0  0
 26 27  2  0  0  0  0
 28 26  1  0  0  0  0
 28 23  1  0  0  0  0
 29 28  1  0  0  0  0
 30 26  1  0  0  0  0
 30 38  1  0  0  0  0
 31 30  2  0  0  0  0
 32 31  1  0  0  0  0
 33 31  1  0  0  0  0
 33 34  2  0  0  0  0
 34 36  1  0  0  0  0
 35 34  1  0  0  0  0
 36 38  2  0  0  0  0
 36 37  1  0  0  0  0
M  END
>  <minimizedAffinity>
-6.65380096

>  <minimizedRMSD>
1.46234417

$$$$
