
 OpenBabel03252506213D

 35 37  0  0  0  0  0  0  0  0999 V2000
   44.6590   35.0530   41.9430 C   0  0  0  0  0  0  0  0  0  0  0  0
   43.5070   35.1390   41.1480 C   0  0  0  0  0  0  0  0  0  0  0  0
   43.4820   34.4080   39.9540 C   0  0  0  0  0  0  0  0  0  0  0  0
   44.5650   33.6590   39.6290 N   0  0  0  0  0  0  0  0  0  0  0  0
   45.6490   33.6050   40.4200 C   0  0  0  0  0  0  0  0  0  0  0  0
   45.7030   34.2960   41.5740 N   0  0  0  0  0  0  0  0  0  0  0  0
   42.6650   35.7410   41.4320 H   0  0  0  0  0  0  0  0  0  0  0  0
   42.6220   34.4320   39.2970 H   0  0  0  0  0  0  0  0  0  0  0  0
   48.3040   35.0480   40.1820 Cl  0  0  0  0  0  0  0  0  0  0  0  0
   48.0330   33.3640   39.8590 C   0  0  0  0  0  0  0  0  0  0  0  0
   46.7870   32.7610   39.9880 C   0  0  0  0  0  0  0  0  0  0  0  0
   46.5530   31.4400   39.7390 C   0  0  0  0  0  0  0  0  0  0  0  0
   47.6180   30.6820   39.3420 C   0  0  0  0  0  0  0  0  0  0  0  0
   48.8950   31.1700   39.1810 C   0  0  0  0  0  0  0  0  0  0  0  0
   49.0450   32.5170   39.4530 C   0  0  0  0  0  0  0  0  0  0  0  0
   45.5780   31.0330   39.8540 H   0  0  0  0  0  0  0  0  0  0  0  0
   47.4590   29.6250   39.1370 H   0  0  0  0  0  0  0  0  0  0  0  0
   49.7530   30.5790   38.8650 H   0  0  0  0  0  0  0  0  0  0  0  0
   50.0340   32.9650   39.3450 H   0  0  0  0  0  0  0  0  0  0  0  0
   44.6910   35.8170   43.1940 C   0  0  0  0  0  3  0  0  0  0  0  0
   45.1150   37.0490   43.1620 C   0  0  0  0  0  3  0  0  0  0  0  0
   45.1680   37.8710   44.4030 C   0  0  0  0  0  0  0  0  0  0  0  0
   46.1090   37.5880   44.9510 H   0  0  0  0  0  0  0  0  0  0  0  0
   44.2950   37.6950   45.0590 H   0  0  0  0  0  0  0  0  0  0  0  0
   45.3400   39.2530   44.0270 N   0  0  0  0  0  0  0  0  0  0  0  0
   45.7160   39.5410   43.0970 H   0  0  0  0  0  0  0  0  0  0  0  0
   44.9880   40.2750   44.9520 C   0  0  0  0  0  0  0  0  0  0  0  0
   44.5910   41.5260   44.5340 C   0  0  0  0  0  0  0  0  0  0  0  0
   44.5340   41.7790   43.4820 H   0  0  0  0  0  0  0  0  0  0  0  0
   44.2410   42.5500   45.4020 C   0  0  0  0  0  3  0  0  0  0  0  0
   44.2900   42.3040   46.7590 C   0  0  0  0  0  0  0  0  0  0  0  0
   44.0160   43.1010   47.4460 H   0  0  0  0  0  0  0  0  0  0  0  0
   44.6830   41.0590   47.1830 C   0  0  0  0  0  0  0  0  0  0  0  0
   44.7160   40.8840   48.2690 H   0  0  0  0  0  0  0  0  0  0  0  0
   45.0250   40.0640   46.3140 C   0  0  0  0  0  3  0  0  0  0  0  0
  1 20  1  0  0  0  0
  2  7  1  0  0  0  0
  2  1  2  0  0  0  0
  3  2  1  0  0  0  0
  4  3  2  0  0  0  0
  4  5  1  0  0  0  0
  5  6  2  0  0  0  0
  6  1  1  0  0  0  0
  8  3  1  0  0  0  0
 10 11  1  0  0  0  0
 10  9  1  0  0  0  0
 11  5  1  0  0  0  0
 12 16  1  0  0  0  0
 12 11  2  0  0  0  0
 13 12  1  0  0  0  0
 14 13  2  0  0  0  0
 14 15  1  0  0  0  0
 15 10  2  0  0  0  0
 17 13  1  0  0  0  0
 18 14  1  0  0  0  0
 19 15  1  0  0  0  0
 21 20  2  0  0  0  0
 21 22  1  0  0  0  0
 22 23  1  0  0  0  0
 22 24  1  0  0  0  0
 25 22  1  0  0  0  0
 25 27  1  0  0  0  0
 26 25  1  0  0  0  0
 27 35  1  0  0  0  0
 28 27  2  0  0  0  0
 28 30  1  0  0  0  0
 29 28  1  0  0  0  0
 30 31  2  0  0  0  0
 31 33  1  0  0  0  0
 31 32  1  0  0  0  0
 33 34  1  0  0  0  0
 35 33  2  0  0  0  0
M  END
>  <minimizedAffinity>
-3.9102757

>  <minimizedRMSD>
2.12407041

$$$$
