
 OpenBabel03252506223D

 35 37  0  0  0  0  0  0  0  0999 V2000
   44.6330   35.0060   41.9740 C   0  0  0  0  0  0  0  0  0  0  0  0
   43.5530   35.0730   41.0840 C   0  0  0  0  0  0  0  0  0  0  0  0
   43.6230   34.3080   39.9120 C   0  0  0  0  0  0  0  0  0  0  0  0
   44.7240   33.5450   39.7010 N   0  0  0  0  0  0  0  0  0  0  0  0
   45.7370   33.5090   40.5820 C   0  0  0  0  0  0  0  0  0  0  0  0
   45.6990   34.2330   41.7170 N   0  0  0  0  0  0  0  0  0  0  0  0
   42.6940   35.6870   41.2780 H   0  0  0  0  0  0  0  0  0  0  0  0
   42.8210   34.3170   39.1850 H   0  0  0  0  0  0  0  0  0  0  0  0
   48.3400   34.9870   40.1040 Cl  0  0  0  0  0  0  0  0  0  0  0  0
   48.1250   33.2660   40.0410 C   0  0  0  0  0  0  0  0  0  0  0  0
   46.9010   32.6480   40.2710 C   0  0  0  0  0  0  0  0  0  0  0  0
   46.7120   31.2980   40.2260 C   0  0  0  0  0  0  0  0  0  0  0  0
   47.8010   30.5240   39.9380 C   0  0  0  0  0  0  0  0  0  0  0  0
   49.0590   31.0250   39.6930 C   0  0  0  0  0  0  0  0  0  0  0  0
   49.1640   32.4010   39.7580 C   0  0  0  0  0  0  0  0  0  0  0  0
   45.7520   30.8810   40.4110 H   0  0  0  0  0  0  0  0  0  0  0  0
   47.6770   29.4430   39.8970 H   0  0  0  0  0  0  0  0  0  0  0  0
   49.9360   30.4210   39.4620 H   0  0  0  0  0  0  0  0  0  0  0  0
   50.1370   32.8600   39.5740 H   0  0  0  0  0  0  0  0  0  0  0  0
   44.5650   35.8050   43.2010 C   0  0  0  0  0  3  0  0  0  0  0  0
   45.1540   36.9670   43.2220 C   0  0  0  0  0  3  0  0  0  0  0  0
   45.1170   37.8210   44.4420 C   0  0  0  0  0  0  0  0  0  0  0  0
   46.0090   37.5460   45.0700 H   0  0  0  0  0  0  0  0  0  0  0  0
   44.1920   37.6700   45.0300 H   0  0  0  0  0  0  0  0  0  0  0  0
   45.3320   39.1910   44.0450 N   0  0  0  0  0  0  0  0  0  0  0  0
   45.7350   39.4530   43.1180 H   0  0  0  0  0  0  0  0  0  0  0  0
   44.9860   40.2390   44.9440 C   0  0  0  0  0  0  0  0  0  0  0  0
   45.0140   40.0610   46.3100 C   0  0  0  0  0  0  0  0  0  0  0  0
   45.3010   39.1140   46.7510 H   0  0  0  0  0  0  0  0  0  0  0  0
   44.6840   41.0550   47.2200 C   0  0  0  0  0  3  0  0  0  0  0  0
   44.3070   42.2910   46.7340 C   0  0  0  0  0  0  0  0  0  0  0  0
   44.0480   43.0750   47.4400 H   0  0  0  0  0  0  0  0  0  0  0  0
   44.2770   42.4740   45.3730 C   0  0  0  0  0  0  0  0  0  0  0  0
   43.9740   43.4670   45.0060 H   0  0  0  0  0  0  0  0  0  0  0  0
   44.6040   41.4850   44.4940 C   0  0  0  0  0  3  0  0  0  0  0  0
  1 20  1  0  0  0  0
  2  7  1  0  0  0  0
  2  1  2  0  0  0  0
  3  2  1  0  0  0  0
  4  3  2  0  0  0  0
  4  5  1  0  0  0  0
  5  6  2  0  0  0  0
  6  1  1  0  0  0  0
  8  3  1  0  0  0  0
 10  9  1  0  0  0  0
 10 11  1  0  0  0  0
 11  5  1  0  0  0  0
 12 11  2  0  0  0  0
 12 16  1  0  0  0  0
 13 12  1  0  0  0  0
 14 15  1  0  0  0  0
 14 13  2  0  0  0  0
 15 10  2  0  0  0  0
 17 13  1  0  0  0  0
 18 14  1  0  0  0  0
 19 15  1  0  0  0  0
 20 21  2  0  0  0  0
 21 22  1  0  0  0  0
 22 24  1  0  0  0  0
 22 23  1  0  0  0  0
 25 22  1  0  0  0  0
 25 27  1  0  0  0  0
 26 25  1  0  0  0  0
 27 28  1  0  0  0  0
 28 29  1  0  0  0  0
 28 30  2  0  0  0  0
 31 30  1  0  0  0  0
 31 32  1  0  0  0  0
 33 31  2  0  0  0  0
 34 33  1  0  0  0  0
 35 27  2  0  0  0  0
 35 33  1  0  0  0  0
M  END
>  <minimizedAffinity>
-3.78842974

>  <minimizedRMSD>
1.93854117

$$$$
