
 OpenBabel03252506213D

 35 37  0  0  0  0  0  0  0  0999 V2000
   44.7260   35.0730   42.1240 C   0  0  0  0  0  0  0  0  0  0  0  0
   43.6290   35.1730   41.2570 C   0  0  0  0  0  0  0  0  0  0  0  0
   43.6530   34.4080   40.0840 C   0  0  0  0  0  0  0  0  0  0  0  0
   44.7260   33.6130   39.8480 N   0  0  0  0  0  0  0  0  0  0  0  0
   45.7560   33.5460   40.7080 C   0  0  0  0  0  0  0  0  0  0  0  0
   45.7630   34.2700   41.8440 N   0  0  0  0  0  0  0  0  0  0  0  0
   42.7930   35.8120   41.4690 H   0  0  0  0  0  0  0  0  0  0  0  0
   42.8360   34.4420   39.3730 H   0  0  0  0  0  0  0  0  0  0  0  0
   48.3350   34.9570   39.9690 Cl  0  0  0  0  0  0  0  0  0  0  0  0
   48.1000   33.2380   40.0240 C   0  0  0  0  0  0  0  0  0  0  0  0
   46.8880   32.6530   40.3720 C   0  0  0  0  0  0  0  0  0  0  0  0
   46.6830   31.3050   40.4220 C   0  0  0  0  0  0  0  0  0  0  0  0
   47.7410   30.5000   40.1090 C   0  0  0  0  0  0  0  0  0  0  0  0
   48.9850   30.9670   39.7500 C   0  0  0  0  0  0  0  0  0  0  0  0
   49.1080   32.3440   39.7250 C   0  0  0  0  0  0  0  0  0  0  0  0
   45.7330   30.9130   40.6950 H   0  0  0  0  0  0  0  0  0  0  0  0
   47.6040   29.4200   40.1410 H   0  0  0  0  0  0  0  0  0  0  0  0
   49.8380   30.3390   39.4980 H   0  0  0  0  0  0  0  0  0  0  0  0
   50.0710   32.7770   39.4480 H   0  0  0  0  0  0  0  0  0  0  0  0
   44.7070   35.8720   43.3530 C   0  0  0  0  0  3  0  0  0  0  0  0
   45.1500   37.0970   43.3070 C   0  0  0  0  0  3  0  0  0  0  0  0
   45.1530   37.9540   44.5250 C   0  0  0  0  0  0  0  0  0  0  0  0
   46.0770   37.6950   45.1140 H   0  0  0  0  0  0  0  0  0  0  0  0
   44.2590   37.7910   45.1550 H   0  0  0  0  0  0  0  0  0  0  0  0
   45.3290   39.3260   44.1160 N   0  0  0  0  0  0  0  0  0  0  0  0
   45.7150   39.5910   43.1830 H   0  0  0  0  0  0  0  0  0  0  0  0
   44.9670   40.3710   45.0110 C   0  0  0  0  0  0  0  0  0  0  0  0
   44.5850   41.6140   44.5580 C   0  0  0  0  0  0  0  0  0  0  0  0
   44.5460   41.8430   43.4990 H   0  0  0  0  0  0  0  0  0  0  0  0
   44.2240   42.6590   45.3950 C   0  0  0  0  0  3  0  0  0  0  0  0
   44.2490   42.4470   46.7590 C   0  0  0  0  0  0  0  0  0  0  0  0
   43.9680   43.2600   47.4220 H   0  0  0  0  0  0  0  0  0  0  0  0
   44.6300   41.2090   47.2180 C   0  0  0  0  0  0  0  0  0  0  0  0
   44.6420   41.0590   48.3080 H   0  0  0  0  0  0  0  0  0  0  0  0
   44.9810   40.1930   46.3780 C   0  0  0  0  0  3  0  0  0  0  0  0
  1 20  1  0  0  0  0
  2  7  1  0  0  0  0
  2  1  2  0  0  0  0
  3  2  1  0  0  0  0
  4  3  2  0  0  0  0
  4  5  1  0  0  0  0
  5  6  2  0  0  0  0
  6  1  1  0  0  0  0
  8  3  1  0  0  0  0
  9 10  1  0  0  0  0
 10 11  1  0  0  0  0
 11 12  2  0  0  0  0
 11  5  1  0  0  0  0
 12 16  1  0  0  0  0
 13 17  1  0  0  0  0
 13 12  1  0  0  0  0
 14 13  2  0  0  0  0
 15 14  1  0  0  0  0
 15 10  2  0  0  0  0
 18 14  1  0  0  0  0
 19 15  1  0  0  0  0
 21 20  2  0  0  0  0
 21 22  1  0  0  0  0
 22 23  1  0  0  0  0
 22 24  1  0  0  0  0
 25 22  1  0  0  0  0
 25 27  1  0  0  0  0
 26 25  1  0  0  0  0
 27 35  1  0  0  0  0
 28 27  2  0  0  0  0
 28 30  1  0  0  0  0
 29 28  1  0  0  0  0
 30 31  2  0  0  0  0
 31 33  1  0  0  0  0
 31 32  1  0  0  0  0
 33 34  1  0  0  0  0
 35 33  2  0  0  0  0
M  END
>  <minimizedAffinity>
-3.80768251

>  <minimizedRMSD>
1.81783164

$$$$
