
 OpenBabel03252506213D

 35 37  0  0  0  0  0  0  0  0999 V2000
   44.7250   35.0640   42.1170 C   0  0  0  0  0  0  0  0  0  0  0  0
   43.6290   35.1600   41.2480 C   0  0  0  0  0  0  0  0  0  0  0  0
   43.6550   34.3930   40.0770 C   0  0  0  0  0  0  0  0  0  0  0  0
   44.7310   33.6000   39.8440 N   0  0  0  0  0  0  0  0  0  0  0  0
   45.7600   33.5380   40.7040 C   0  0  0  0  0  0  0  0  0  0  0  0
   45.7640   34.2640   41.8390 N   0  0  0  0  0  0  0  0  0  0  0  0
   42.7910   35.7970   41.4600 H   0  0  0  0  0  0  0  0  0  0  0  0
   42.8390   34.4230   39.3660 H   0  0  0  0  0  0  0  0  0  0  0  0
   48.3360   34.9540   39.9640 Cl  0  0  0  0  0  0  0  0  0  0  0  0
   48.1050   33.2350   40.0220 C   0  0  0  0  0  0  0  0  0  0  0  0
   46.8950   32.6460   40.3710 C   0  0  0  0  0  0  0  0  0  0  0  0
   46.6930   31.2980   40.4230 C   0  0  0  0  0  0  0  0  0  0  0  0
   47.7530   30.4950   40.1120 C   0  0  0  0  0  0  0  0  0  0  0  0
   48.9970   30.9650   39.7530 C   0  0  0  0  0  0  0  0  0  0  0  0
   49.1160   32.3420   39.7250 C   0  0  0  0  0  0  0  0  0  0  0  0
   45.7440   30.9040   40.6970 H   0  0  0  0  0  0  0  0  0  0  0  0
   47.6190   29.4150   40.1460 H   0  0  0  0  0  0  0  0  0  0  0  0
   49.8510   30.3390   39.5030 H   0  0  0  0  0  0  0  0  0  0  0  0
   50.0780   32.7770   39.4490 H   0  0  0  0  0  0  0  0  0  0  0  0
   44.7030   35.8660   43.3440 C   0  0  0  0  0  3  0  0  0  0  0  0
   45.1510   37.0900   43.2980 C   0  0  0  0  0  3  0  0  0  0  0  0
   45.1520   37.9490   44.5150 C   0  0  0  0  0  0  0  0  0  0  0  0
   46.0730   37.6880   45.1070 H   0  0  0  0  0  0  0  0  0  0  0  0
   44.2550   37.7890   45.1410 H   0  0  0  0  0  0  0  0  0  0  0  0
   45.3330   39.3190   44.1040 N   0  0  0  0  0  0  0  0  0  0  0  0
   45.7250   39.5820   43.1720 H   0  0  0  0  0  0  0  0  0  0  0  0
   44.9680   40.3670   44.9940 C   0  0  0  0  0  0  0  0  0  0  0  0
   44.9850   40.1960   46.3600 C   0  0  0  0  0  0  0  0  0  0  0  0
   45.2780   39.2540   46.8100 H   0  0  0  0  0  0  0  0  0  0  0  0
   44.6370   41.1910   47.2640 C   0  0  0  0  0  3  0  0  0  0  0  0
   44.2520   42.4200   46.7690 C   0  0  0  0  0  0  0  0  0  0  0  0
   43.9780   43.2050   47.4680 H   0  0  0  0  0  0  0  0  0  0  0  0
   44.2330   42.5980   45.4060 C   0  0  0  0  0  0  0  0  0  0  0  0
   43.9240   43.5840   45.0310 H   0  0  0  0  0  0  0  0  0  0  0  0
   44.5800   41.6070   44.5340 C   0  0  0  0  0  3  0  0  0  0  0  0
  1 20  1  0  0  0  0
  2  7  1  0  0  0  0
  2  1  2  0  0  0  0
  3  2  1  0  0  0  0
  4  3  2  0  0  0  0
  4  5  1  0  0  0  0
  5  6  2  0  0  0  0
  6  1  1  0  0  0  0
  8  3  1  0  0  0  0
  9 10  1  0  0  0  0
 10 11  1  0  0  0  0
 11 12  2  0  0  0  0
 11  5  1  0  0  0  0
 12 16  1  0  0  0  0
 13 17  1  0  0  0  0
 13 12  1  0  0  0  0
 14 13  2  0  0  0  0
 15 14  1  0  0  0  0
 15 10  2  0  0  0  0
 18 14  1  0  0  0  0
 19 15  1  0  0  0  0
 21 20  2  0  0  0  0
 21 22  1  0  0  0  0
 22 23  1  0  0  0  0
 22 24  1  0  0  0  0
 25 22  1  0  0  0  0
 25 27  1  0  0  0  0
 26 25  1  0  0  0  0
 27 28  1  0  0  0  0
 28 29  1  0  0  0  0
 28 30  2  0  0  0  0
 31 30  1  0  0  0  0
 31 32  1  0  0  0  0
 33 31  2  0  0  0  0
 34 33  1  0  0  0  0
 35 27  2  0  0  0  0
 35 33  1  0  0  0  0
M  END
>  <minimizedAffinity>
-3.75714064

>  <minimizedRMSD>
1.8216871

$$$$
