
 OpenBabel03242523173D

 27 29  0  0  0  0  0  0  0  0999 V2000
   36.3080   27.7060   40.1210 C   0  0  0  0  0  0  0  0  0  0  0  0
   37.0150   27.3970   41.2230 C   0  0  0  0  0  0  0  0  0  0  0  0
   37.8950   26.3560   41.0670 C   0  0  0  0  0  0  0  0  0  0  0  0
   37.9900   25.7230   39.8390 N   0  0  0  0  0  0  0  0  0  0  0  0
   37.2550   26.0800   38.7780 C   0  0  0  0  0  0  0  0  0  0  0  0
   36.3620   27.1190   38.8950 N   0  0  0  0  0  0  0  0  0  0  0  0
   38.5420   25.9890   41.8540 H   0  0  0  0  0  0  0  0  0  0  0  0
   37.4610   25.4650   37.9010 H   0  0  0  0  0  0  0  0  0  0  0  0
   36.8590   28.0100   42.4880 C   0  0  0  0  0  0  0  0  0  0  0  0
   37.4800   27.7910   43.6790 C   0  0  0  0  0  0  0  0  0  0  0  0
   37.9520   29.0570   42.9690 C   0  0  0  0  0  0  0  0  0  0  0  0
   35.9560   28.7640   42.4070 H   0  0  0  0  0  0  0  0  0  0  0  0
   38.2700   27.0120   43.8310 H   0  0  0  0  0  0  0  0  0  0  0  0
   36.9660   27.9710   44.6710 H   0  0  0  0  0  0  0  0  0  0  0  0
   38.8480   29.0570   42.3570 H   0  0  0  0  0  0  0  0  0  0  0  0
   37.6460   30.0100   43.3610 H   0  0  0  0  0  0  0  0  0  0  0  0
   35.3960   28.8470   39.9120 C   0  0  0  0  0  0  0  0  0  0  0  0
   34.2090   29.2790   39.9210 O   0  0  0  0  0  0  0  0  0  0  0  0
   36.1760   30.0660   39.5020 C   0  0  0  0  0  0  0  0  0  0  0  0
   36.4590   31.0410   40.4760 C   0  0  0  0  0  0  0  0  0  0  0  0
   36.1100   30.8970   41.5220 H   0  0  0  0  0  0  0  0  0  0  0  0
   37.1550   32.2140   40.2940 C   0  0  0  0  0  3  0  0  0  0  0  0
   37.6270   32.4740   39.0370 C   0  0  0  0  0  0  0  0  0  0  0  0
   38.1750   33.3650   38.8140 H   0  0  0  0  0  0  0  0  0  0  0  0
   37.3830   31.5420   38.0070 C   0  0  0  0  0  0  0  0  0  0  0  0
   37.7270   31.6770   36.9720 H   0  0  0  0  0  0  0  0  0  0  0  0
   36.6810   30.3890   38.2560 C   0  0  0  0  0  3  0  0  0  0  0  0
  1  2  1  0  0  0  0
  2  9  1  0  0  0  0
  3  2  2  0  0  0  0
  3  7  1  0  0  0  0
  4  3  1  0  0  0  0
  5  6  1  0  0  0  0
  5  4  2  0  0  0  0
  6  1  2  0  0  0  0
  8  5  1  0  0  0  0
  9 11  1  0  0  0  0
  9 10  1  0  0  0  0
 10 13  1  0  0  0  0
 10 14  1  0  0  0  0
 11 16  1  0  0  0  0
 11 10  1  0  0  0  0
 12  9  1  0  0  0  0
 15 11  1  0  0  0  0
 17 18  2  0  0  0  0
 17  1  1  0  0  0  0
 19 17  1  0  0  0  0
 19 20  1  0  0  0  0
 20 21  1  0  0  0  0
 22 20  2  0  0  0  0
 23 22  1  0  0  0  0
 24 23  1  0  0  0  0
 25 27  1  0  0  0  0
 25 23  2  0  0  0  0
 26 25  1  0  0  0  0
 27 19  2  0  0  0  0
M  END
>  <minimizedAffinity>
-4.97036695

$$$$

 OpenBabel03242523173D

 27 29  0  0  0  0  0  0  0  0999 V2000
   38.1700   28.6730   42.4960 C   0  0  0  0  0  0  0  0  0  0  0  0
   38.0590   29.8130   41.7920 C   0  0  0  0  0  0  0  0  0  0  0  0
   39.2530   30.4150   41.4810 C   0  0  0  0  0  0  0  0  0  0  0  0
   40.4380   29.8310   41.8980 N   0  0  0  0  0  0  0  0  0  0  0  0
   40.4800   28.6920   42.6000 C   0  0  0  0  0  0  0  0  0  0  0  0
   39.3040   28.0590   42.9300 N   0  0  0  0  0  0  0  0  0  0  0  0
   39.3370   31.3330   40.9130 H   0  0  0  0  0  0  0  0  0  0  0  0
   41.4990   28.3890   42.8440 H   0  0  0  0  0  0  0  0  0  0  0  0
   36.8390   30.4300   41.4300 C   0  0  0  0  0  0  0  0  0  0  0  0
   36.5740   31.5260   40.6650 C   0  0  0  0  0  0  0  0  0  0  0  0
   36.2740   30.2030   39.9630 C   0  0  0  0  0  0  0  0  0  0  0  0
   35.9760   29.8750   42.0100 H   0  0  0  0  0  0  0  0  0  0  0  0
   37.3680   32.1480   40.1800 H   0  0  0  0  0  0  0  0  0  0  0  0
   35.6700   32.1810   40.8420 H   0  0  0  0  0  0  0  0  0  0  0  0
   36.9930   29.7500   39.2890 H   0  0  0  0  0  0  0  0  0  0  0  0
   35.2470   29.9190   39.8230 H   0  0  0  0  0  0  0  0  0  0  0  0
   37.1060   27.7200   42.8630 C   0  0  0  0  0  0  0  0  0  0  0  0
   36.1980   27.3970   43.6800 O   0  0  0  0  0  0  0  0  0  0  0  0
   37.0240   26.6170   41.8430 C   0  0  0  0  0  0  0  0  0  0  0  0
   37.0190   25.2840   42.2940 C   0  0  0  0  0  0  0  0  0  0  0  0
   37.0720   25.0680   43.3840 H   0  0  0  0  0  0  0  0  0  0  0  0
   36.9490   24.1490   41.5200 C   0  0  0  0  0  3  0  0  0  0  0  0
   36.8780   24.3190   40.1640 C   0  0  0  0  0  0  0  0  0  0  0  0
   36.8230   23.4870   39.4950 H   0  0  0  0  0  0  0  0  0  0  0  0
   36.8780   25.6270   39.6360 C   0  0  0  0  0  0  0  0  0  0  0  0
   36.8230   25.8480   38.5610 H   0  0  0  0  0  0  0  0  0  0  0  0
   36.9490   26.7190   40.4660 C   0  0  0  0  0  3  0  0  0  0  0  0
  1 17  1  0  0  0  0
  1  6  1  0  0  0  0
  2  1  2  0  0  0  0
  3  2  1  0  0  0  0
  3  4  2  0  0  0  0
  4  5  1  0  0  0  0
  5  8  1  0  0  0  0
  5  6  2  0  0  0  0
  7  3  1  0  0  0  0
  9  2  1  0  0  0  0
  9 12  1  0  0  0  0
 10 14  1  0  0  0  0
 10  9  1  0  0  0  0
 11 10  1  0  0  0  0
 11  9  1  0  0  0  0
 13 10  1  0  0  0  0
 15 11  1  0  0  0  0
 16 11  1  0  0  0  0
 17 18  2  0  0  0  0
 19 20  1  0  0  0  0
 19 17  1  0  0  0  0
 20 21  1  0  0  0  0
 22 20  2  0  0  0  0
 23 22  1  0  0  0  0
 24 23  1  0  0  0  0
 25 23  2  0  0  0  0
 25 27  1  0  0  0  0
 26 25  1  0  0  0  0
 27 19  2  0  0  0  0
M  END
>  <minimizedAffinity>
-4.7560029

$$$$

 OpenBabel03242523173D

 27 29  0  0  0  0  0  0  0  0999 V2000
   38.3880   26.5610   42.6840 C   0  0  0  0  0  0  0  0  0  0  0  0
   38.5920   25.6020   41.7620 C   0  0  0  0  0  0  0  0  0  0  0  0
   39.8230   24.9990   41.8250 C   0  0  0  0  0  0  0  0  0  0  0  0
   40.7310   25.4020   42.7890 N   0  0  0  0  0  0  0  0  0  0  0  0
   40.4650   26.3660   43.6790 C   0  0  0  0  0  0  0  0  0  0  0  0
   39.2430   26.9950   43.6500 N   0  0  0  0  0  0  0  0  0  0  0  0
   40.1400   24.2040   41.1600 H   0  0  0  0  0  0  0  0  0  0  0  0
   41.3010   26.5510   44.3560 H   0  0  0  0  0  0  0  0  0  0  0  0
   37.6780   25.2470   40.7420 C   0  0  0  0  0  0  0  0  0  0  0  0
   37.6230   24.1650   39.9180 C   0  0  0  0  0  0  0  0  0  0  0  0
   36.5930   24.1280   41.0450 C   0  0  0  0  0  0  0  0  0  0  0  0
   36.9300   26.1490   40.6080 H   0  0  0  0  0  0  0  0  0  0  0  0
   38.3730   23.3350   39.9360 H   0  0  0  0  0  0  0  0  0  0  0  0
   37.1810   24.2200   38.8780 H   0  0  0  0  0  0  0  0  0  0  0  0
   36.7830   23.5790   41.9610 H   0  0  0  0  0  0  0  0  0  0  0  0
   35.5610   24.3030   40.8020 H   0  0  0  0  0  0  0  0  0  0  0  0
   37.1420   27.2930   42.9780 C   0  0  0  0  0  0  0  0  0  0  0  0
   36.0940   27.3780   43.6790 O   0  0  0  0  0  0  0  0  0  0  0  0
   37.0080   28.4770   42.0600 C   0  0  0  0  0  0  0  0  0  0  0  0
   35.9000   28.5320   41.1930 C   0  0  0  0  0  0  0  0  0  0  0  0
   35.1490   27.7120   41.2020 H   0  0  0  0  0  0  0  0  0  0  0  0
   35.6070   29.5260   40.2890 C   0  0  0  0  0  3  0  0  0  0  0  0
   36.4760   30.5800   40.2120 C   0  0  0  0  0  0  0  0  0  0  0  0
   36.3200   31.3910   39.5320 H   0  0  0  0  0  0  0  0  0  0  0  0
   37.6100   30.5960   41.0510 C   0  0  0  0  0  0  0  0  0  0  0  0
   38.3550   31.4040   41.0500 H   0  0  0  0  0  0  0  0  0  0  0  0
   37.8450   29.5700   41.9330 C   0  0  0  0  0  3  0  0  0  0  0  0
  1 17  1  0  0  0  0
  1  6  1  0  0  0  0
  2  3  1  0  0  0  0
  2  1  2  0  0  0  0
  3  4  2  0  0  0  0
  4  5  1  0  0  0  0
  5  8  1  0  0  0  0
  6  5  2  0  0  0  0
  7  3  1  0  0  0  0
  9 11  1  0  0  0  0
  9  2  1  0  0  0  0
 10 13  1  0  0  0  0
 10  9  1  0  0  0  0
 10 11  1  0  0  0  0
 11 15  1  0  0  0  0
 12  9  1  0  0  0  0
 14 10  1  0  0  0  0
 16 11  1  0  0  0  0
 17 18  2  0  0  0  0
 19 17  1  0  0  0  0
 20 21  1  0  0  0  0
 20 19  2  0  0  0  0
 22 20  1  0  0  0  0
 23 22  2  0  0  0  0
 23 25  1  0  0  0  0
 24 23  1  0  0  0  0
 25 27  2  0  0  0  0
 26 25  1  0  0  0  0
 27 19  1  0  0  0  0
M  END
>  <minimizedAffinity>
-4.74046421

$$$$

 OpenBabel03242523173D

 27 29  0  0  0  0  0  0  0  0999 V2000
   38.1450   30.4920   39.3840 C   0  0  0  0  0  0  0  0  0  0  0  0
   38.7000   31.7170   39.3890 C   0  0  0  0  0  0  0  0  0  0  0  0
   39.8200   31.8430   38.6060 C   0  0  0  0  0  0  0  0  0  0  0  0
   40.2820   30.7470   37.8970 N   0  0  0  0  0  0  0  0  0  0  0  0
   39.6810   29.5510   37.9360 C   0  0  0  0  0  0  0  0  0  0  0  0
   38.5560   29.3850   38.7080 N   0  0  0  0  0  0  0  0  0  0  0  0
   40.3800   32.7640   38.4960 H   0  0  0  0  0  0  0  0  0  0  0  0
   40.1900   28.8090   37.3190 H   0  0  0  0  0  0  0  0  0  0  0  0
   38.2540   32.8090   40.1700 C   0  0  0  0  0  0  0  0  0  0  0  0
   38.5990   34.1260   40.1590 C   0  0  0  0  0  0  0  0  0  0  0  0
   37.2390   33.8450   39.5260 C   0  0  0  0  0  0  0  0  0  0  0  0
   37.5290   32.3810   40.9950 H   0  0  0  0  0  0  0  0  0  0  0  0
   39.3630   34.5600   39.4650 H   0  0  0  0  0  0  0  0  0  0  0  0
   38.5610   34.7680   41.0900 H   0  0  0  0  0  0  0  0  0  0  0  0
   37.1320   33.7330   38.4520 H   0  0  0  0  0  0  0  0  0  0  0  0
   36.3530   34.1330   40.0630 H   0  0  0  0  0  0  0  0  0  0  0  0
   36.8720   30.0650   39.9940 C   0  0  0  0  0  0  0  0  0  0  0  0
   35.6120   30.0240   39.9150 O   0  0  0  0  0  0  0  0  0  0  0  0
   37.1330   29.3600   41.2970 C   0  0  0  0  0  0  0  0  0  0  0  0
   36.3720   28.2160   41.6060 C   0  0  0  0  0  0  0  0  0  0  0  0
   35.6030   27.8540   40.8900 H   0  0  0  0  0  0  0  0  0  0  0  0
   36.4660   27.4430   42.7390 C   0  0  0  0  0  3  0  0  0  0  0  0
   37.3920   27.8120   43.6760 C   0  0  0  0  0  0  0  0  0  0  0  0
   37.5240   27.2640   44.5850 H   0  0  0  0  0  0  0  0  0  0  0  0
   38.1930   28.9490   43.4370 C   0  0  0  0  0  0  0  0  0  0  0  0
   38.9570   29.3120   44.1380 H   0  0  0  0  0  0  0  0  0  0  0  0
   38.0490   29.6790   42.2830 C   0  0  0  0  0  3  0  0  0  0  0  0
  1  2  1  0  0  0  0
  1 17  1  0  0  0  0
  2  9  1  0  0  0  0
  3  2  2  0  0  0  0
  4  5  2  0  0  0  0
  4  3  1  0  0  0  0
  5  6  1  0  0  0  0
  6  1  2  0  0  0  0
  7  3  1  0  0  0  0
  8  5  1  0  0  0  0
  9 12  1  0  0  0  0
 10  9  1  0  0  0  0
 10 14  1  0  0  0  0
 11 16  1  0  0  0  0
 11 10  1  0  0  0  0
 11  9  1  0  0  0  0
 13 10  1  0  0  0  0
 15 11  1  0  0  0  0
 17 19  1  0  0  0  0
 18 17  2  0  0  0  0
 19 20  2  0  0  0  0
 19 27  1  0  0  0  0
 20 22  1  0  0  0  0
 21 20  1  0  0  0  0
 22 23  2  0  0  0  0
 23 24  1  0  0  0  0
 25 23  1  0  0  0  0
 25 26  1  0  0  0  0
 27 25  2  0  0  0  0
M  END
>  <minimizedAffinity>
-4.73287439

$$$$

 OpenBabel03242523173D

 27 29  0  0  0  0  0  0  0  0999 V2000
   36.3210   27.8870   40.7900 C   0  0  0  0  0  0  0  0  0  0  0  0
   36.8990   26.8570   40.1470 C   0  0  0  0  0  0  0  0  0  0  0  0
   37.5830   25.9860   40.9570 C   0  0  0  0  0  0  0  0  0  0  0  0
   37.6310   26.2190   42.3220 N   0  0  0  0  0  0  0  0  0  0  0  0
   37.0330   27.2690   42.9010 C   0  0  0  0  0  0  0  0  0  0  0  0
   36.3370   28.1630   42.1220 N   0  0  0  0  0  0  0  0  0  0  0  0
   38.0970   25.1030   40.5970 H   0  0  0  0  0  0  0  0  0  0  0  0
   37.1840   27.2910   43.9810 H   0  0  0  0  0  0  0  0  0  0  0  0
   36.8960   26.6680   38.7450 C   0  0  0  0  0  0  0  0  0  0  0  0
   37.1630   25.5730   37.9820 C   0  0  0  0  0  0  0  0  0  0  0  0
   35.6750   25.9000   38.0810 C   0  0  0  0  0  0  0  0  0  0  0  0
   36.7000   27.7190   38.2470 H   0  0  0  0  0  0  0  0  0  0  0  0
   37.4580   24.5800   38.4070 H   0  0  0  0  0  0  0  0  0  0  0  0
   37.5950   25.6550   36.9400 H   0  0  0  0  0  0  0  0  0  0  0  0
   35.0370   25.3990   38.8010 H   0  0  0  0  0  0  0  0  0  0  0  0
   35.1840   26.3170   37.2210 H   0  0  0  0  0  0  0  0  0  0  0  0
   35.4060   28.9070   40.2430 C   0  0  0  0  0  0  0  0  0  0  0  0
   34.2230   29.2230   39.9340 O   0  0  0  0  0  0  0  0  0  0  0  0
   36.1750   30.1440   39.8650 C   0  0  0  0  0  0  0  0  0  0  0  0
   36.6010   30.2890   38.5310 C   0  0  0  0  0  0  0  0  0  0  0  0
   36.3620   29.5000   37.7850 H   0  0  0  0  0  0  0  0  0  0  0  0
   37.3090   31.3410   37.9990 C   0  0  0  0  0  3  0  0  0  0  0  0
   37.6440   32.3630   38.8450 C   0  0  0  0  0  0  0  0  0  0  0  0
   38.1950   33.2150   38.5090 H   0  0  0  0  0  0  0  0  0  0  0  0
   37.2520   32.2890   40.1980 C   0  0  0  0  0  0  0  0  0  0  0  0
   37.4820   33.0660   40.9400 H   0  0  0  0  0  0  0  0  0  0  0  0
   36.5450   31.2090   40.6660 C   0  0  0  0  0  3  0  0  0  0  0  0
  1  6  1  0  0  0  0
  2  1  2  0  0  0  0
  2  3  1  0  0  0  0
  3  4  2  0  0  0  0
  4  5  1  0  0  0  0
  5  8  1  0  0  0  0
  6  5  2  0  0  0  0
  7  3  1  0  0  0  0
  9  2  1  0  0  0  0
 10 11  1  0  0  0  0
 10 13  1  0  0  0  0
 10  9  1  0  0  0  0
 11  9  1  0  0  0  0
 11 15  1  0  0  0  0
 12  9  1  0  0  0  0
 14 10  1  0  0  0  0
 16 11  1  0  0  0  0
 17  1  1  0  0  0  0
 18 17  2  0  0  0  0
 19 17  1  0  0  0  0
 19 27  1  0  0  0  0
 20 19  2  0  0  0  0
 21 20  1  0  0  0  0
 22 20  1  0  0  0  0
 22 23  2  0  0  0  0
 23 25  1  0  0  0  0
 24 23  1  0  0  0  0
 25 27  2  0  0  0  0
 25 26  1  0  0  0  0
M  END
>  <minimizedAffinity>
-4.68232346

$$$$

 OpenBabel03242523173D

 27 29  0  0  0  0  0  0  0  0999 V2000
   37.7670   26.0940   41.9990 C   0  0  0  0  0  0  0  0  0  0  0  0
   39.0590   25.8090   42.2420 C   0  0  0  0  0  0  0  0  0  0  0  0
   39.6440   24.9710   41.3270 C   0  0  0  0  0  0  0  0  0  0  0  0
   38.8970   24.4950   40.2630 N   0  0  0  0  0  0  0  0  0  0  0  0
   37.6100   24.8170   40.0780 C   0  0  0  0  0  0  0  0  0  0  0  0
   36.9880   25.6550   40.9730 N   0  0  0  0  0  0  0  0  0  0  0  0
   40.6790   24.6510   41.3760 H   0  0  0  0  0  0  0  0  0  0  0  0
   37.1850   24.3430   39.1920 H   0  0  0  0  0  0  0  0  0  0  0  0
   39.7910   26.2510   43.3690 C   0  0  0  0  0  0  0  0  0  0  0  0
   41.1130   26.1590   43.6790 C   0  0  0  0  0  0  0  0  0  0  0  0
   40.6860   27.5560   43.2350 C   0  0  0  0  0  0  0  0  0  0  0  0
   39.0160   26.6810   44.1480 H   0  0  0  0  0  0  0  0  0  0  0  0
   41.8700   25.6640   43.0190 H   0  0  0  0  0  0  0  0  0  0  0  0
   41.4800   26.0960   44.7470 H   0  0  0  0  0  0  0  0  0  0  0  0
   40.8190   27.8840   42.2090 H   0  0  0  0  0  0  0  0  0  0  0  0
   40.6180   28.3310   43.9760 H   0  0  0  0  0  0  0  0  0  0  0  0
   36.8980   27.0610   42.6960 C   0  0  0  0  0  0  0  0  0  0  0  0
   36.1270   27.2940   43.6690 O   0  0  0  0  0  0  0  0  0  0  0  0
   36.8870   28.3720   41.9590 C   0  0  0  0  0  0  0  0  0  0  0  0
   35.7740   28.6790   41.1530 C   0  0  0  0  0  0  0  0  0  0  0  0
   34.9300   27.9590   41.0760 H   0  0  0  0  0  0  0  0  0  0  0  0
   35.5820   29.8210   40.4090 C   0  0  0  0  0  3  0  0  0  0  0  0
   36.5700   30.7670   40.4460 C   0  0  0  0  0  0  0  0  0  0  0  0
   36.4970   31.6790   39.8940 H   0  0  0  0  0  0  0  0  0  0  0  0
   37.7160   30.5300   41.2330 C   0  0  0  0  0  0  0  0  0  0  0  0
   38.5530   31.2380   41.3160 H   0  0  0  0  0  0  0  0  0  0  0  0
   37.8460   29.3680   41.9530 C   0  0  0  0  0  3  0  0  0  0  0  0
  1  2  1  0  0  0  0
  1 17  1  0  0  0  0
  2  9  1  0  0  0  0
  3  7  1  0  0  0  0
  3  2  2  0  0  0  0
  4  3  1  0  0  0  0
  5  4  2  0  0  0  0
  5  6  1  0  0  0  0
  6  1  2  0  0  0  0
  8  5  1  0  0  0  0
  9 10  1  0  0  0  0
  9 12  1  0  0  0  0
 10 14  1  0  0  0  0
 11  9  1  0  0  0  0
 11 10  1  0  0  0  0
 11 16  1  0  0  0  0
 13 10  1  0  0  0  0
 15 11  1  0  0  0  0
 17 18  2  0  0  0  0
 19 17  1  0  0  0  0
 20 19  2  0  0  0  0
 21 20  1  0  0  0  0
 22 23  2  0  0  0  0
 22 20  1  0  0  0  0
 23 25  1  0  0  0  0
 24 23  1  0  0  0  0
 25 26  1  0  0  0  0
 25 27  2  0  0  0  0
 27 19  1  0  0  0  0
M  END
>  <minimizedAffinity>
-4.60870695

$$$$

 OpenBabel03242523173D

 27 29  0  0  0  0  0  0  0  0999 V2000
   37.2530   28.8900   41.8000 C   0  0  0  0  0  0  0  0  0  0  0  0
   36.8350   29.1260   40.5430 C   0  0  0  0  0  0  0  0  0  0  0  0
   37.4680   30.1700   39.9150 C   0  0  0  0  0  0  0  0  0  0  0  0
   38.4490   30.8770   40.5900 N   0  0  0  0  0  0  0  0  0  0  0  0
   38.8180   30.5910   41.8450 C   0  0  0  0  0  0  0  0  0  0  0  0
   38.2080   29.5520   42.5080 N   0  0  0  0  0  0  0  0  0  0  0  0
   37.2530   30.4840   38.9010 H   0  0  0  0  0  0  0  0  0  0  0  0
   39.5990   31.2570   42.2130 H   0  0  0  0  0  0  0  0  0  0  0  0
   35.7870   28.4360   39.8910 C   0  0  0  0  0  0  0  0  0  0  0  0
   35.3620   28.4560   38.5980 C   0  0  0  0  0  0  0  0  0  0  0  0
   36.1480   27.1990   38.9640 C   0  0  0  0  0  0  0  0  0  0  0  0
   35.1910   27.8380   40.7140 H   0  0  0  0  0  0  0  0  0  0  0  0
   35.8290   29.0900   37.8030 H   0  0  0  0  0  0  0  0  0  0  0  0
   34.2830   28.2700   38.3140 H   0  0  0  0  0  0  0  0  0  0  0  0
   37.2080   27.1170   38.7480 H   0  0  0  0  0  0  0  0  0  0  0  0
   35.6130   26.2730   39.0740 H   0  0  0  0  0  0  0  0  0  0  0  0
   36.8870   27.7700   42.6880 C   0  0  0  0  0  0  0  0  0  0  0  0
   36.2130   27.3710   43.6790 O   0  0  0  0  0  0  0  0  0  0  0  0
   37.6150   26.5210   42.2740 C   0  0  0  0  0  0  0  0  0  0  0  0
   36.8730   25.3370   42.1010 C   0  0  0  0  0  0  0  0  0  0  0  0
   35.7740   25.3440   42.2670 H   0  0  0  0  0  0  0  0  0  0  0  0
   37.3580   24.1050   41.7270 C   0  0  0  0  0  3  0  0  0  0  0  0
   38.7020   24.0040   41.4970 C   0  0  0  0  0  0  0  0  0  0  0  0
   39.1560   23.0800   41.2060 H   0  0  0  0  0  0  0  0  0  0  0  0
   39.5120   25.1490   41.6500 C   0  0  0  0  0  0  0  0  0  0  0  0
   40.5990   25.1510   41.4840 H   0  0  0  0  0  0  0  0  0  0  0  0
   38.9640   26.3510   42.0250 C   0  0  0  0  0  3  0  0  0  0  0  0
  1  6  1  0  0  0  0
  1 17  1  0  0  0  0
  2  1  2  0  0  0  0
  3  2  1  0  0  0  0
  3  4  2  0  0  0  0
  4  5  1  0  0  0  0
  5  8  1  0  0  0  0
  5  6  2  0  0  0  0
  7  3  1  0  0  0  0
  9  2  1  0  0  0  0
  9 12  1  0  0  0  0
 10 11  1  0  0  0  0
 10  9  1  0  0  0  0
 11 16  1  0  0  0  0
 11  9  1  0  0  0  0
 13 10  1  0  0  0  0
 14 10  1  0  0  0  0
 15 11  1  0  0  0  0
 17 18  2  0  0  0  0
 19 17  1  0  0  0  0
 20 21  1  0  0  0  0
 20 19  1  0  0  0  0
 22 20  2  0  0  0  0
 23 25  2  0  0  0  0
 23 22  1  0  0  0  0
 24 23  1  0  0  0  0
 25 27  1  0  0  0  0
 26 25  1  0  0  0  0
 27 19  2  0  0  0  0
M  END
>  <minimizedAffinity>
-4.60241461

$$$$

 OpenBabel03242523173D

 27 29  0  0  0  0  0  0  0  0999 V2000
   38.5780   28.4570   42.4930 C   0  0  0  0  0  0  0  0  0  0  0  0
   39.7170   27.7440   42.4450 C   0  0  0  0  0  0  0  0  0  0  0  0
   40.8660   28.4930   42.5030 C   0  0  0  0  0  0  0  0  0  0  0  0
   40.7760   29.8710   42.6030 N   0  0  0  0  0  0  0  0  0  0  0  0
   39.6060   30.5220   42.6450 C   0  0  0  0  0  0  0  0  0  0  0  0
   38.4330   29.8060   42.5890 N   0  0  0  0  0  0  0  0  0  0  0  0
   41.8640   28.0710   42.4840 H   0  0  0  0  0  0  0  0  0  0  0  0
   39.7320   31.6030   42.7170 H   0  0  0  0  0  0  0  0  0  0  0  0
   39.7930   26.3410   42.2780 C   0  0  0  0  0  0  0  0  0  0  0  0
   40.8340   25.4730   42.4030 C   0  0  0  0  0  0  0  0  0  0  0  0
   39.8510   25.4200   43.5700 C   0  0  0  0  0  0  0  0  0  0  0  0
   38.7450   25.9750   41.8800 H   0  0  0  0  0  0  0  0  0  0  0  0
   41.8730   25.7880   42.6740 H   0  0  0  0  0  0  0  0  0  0  0  0
   40.9000   24.5190   41.7990 H   0  0  0  0  0  0  0  0  0  0  0  0
   40.0370   25.9730   44.4850 H   0  0  0  0  0  0  0  0  0  0  0  0
   39.1980   24.5710   43.6520 H   0  0  0  0  0  0  0  0  0  0  0  0
   37.1930   27.9580   42.5940 C   0  0  0  0  0  0  0  0  0  0  0  0
   36.2940   27.4460   43.3190 O   0  0  0  0  0  0  0  0  0  0  0  0
   36.4950   28.0950   41.2690 C   0  0  0  0  0  0  0  0  0  0  0  0
   36.7810   27.1570   40.2590 C   0  0  0  0  0  0  0  0  0  0  0  0
   37.5060   26.3370   40.4550 H   0  0  0  0  0  0  0  0  0  0  0  0
   36.2460   27.1170   38.9930 C   0  0  0  0  0  3  0  0  0  0  0  0
   35.3390   28.0870   38.6640 C   0  0  0  0  0  0  0  0  0  0  0  0
   34.8800   28.1250   37.6990 H   0  0  0  0  0  0  0  0  0  0  0  0
   35.0010   29.0630   39.6250 C   0  0  0  0  0  0  0  0  0  0  0  0
   34.2830   29.8740   39.4400 H   0  0  0  0  0  0  0  0  0  0  0  0
   35.5720   29.0460   40.8740 C   0  0  0  0  0  3  0  0  0  0  0  0
  1  6  1  0  0  0  0
  1 17  1  0  0  0  0
  2  1  2  0  0  0  0
  2  3  1  0  0  0  0
  3  4  2  0  0  0  0
  4  5  1  0  0  0  0
  5  8  1  0  0  0  0
  6  5  2  0  0  0  0
  7  3  1  0  0  0  0
  9 10  1  0  0  0  0
  9  2  1  0  0  0  0
  9 11  1  0  0  0  0
 10 13  1  0  0  0  0
 10 11  1  0  0  0  0
 11 16  1  0  0  0  0
 11 15  1  0  0  0  0
 12  9  1  0  0  0  0
 14 10  1  0  0  0  0
 17 18  2  0  0  0  0
 19 17  1  0  0  0  0
 20 21  1  0  0  0  0
 20 19  2  0  0  0  0
 22 20  1  0  0  0  0
 23 22  2  0  0  0  0
 23 25  1  0  0  0  0
 24 23  1  0  0  0  0
 25 27  2  0  0  0  0
 26 25  1  0  0  0  0
 27 19  1  0  0  0  0
M  END
>  <minimizedAffinity>
-4.59275818

$$$$

 OpenBabel03242523173D

 27 29  0  0  0  0  0  0  0  0999 V2000
   38.6030   30.9070   40.5580 C   0  0  0  0  0  0  0  0  0  0  0  0
   39.0700   30.7450   39.3080 C   0  0  0  0  0  0  0  0  0  0  0  0
   40.4110   30.9950   39.1600 C   0  0  0  0  0  0  0  0  0  0  0  0
   41.1580   31.3820   40.2600 N   0  0  0  0  0  0  0  0  0  0  0  0
   40.6290   31.5270   41.4830 C   0  0  0  0  0  0  0  0  0  0  0  0
   39.2880   31.2840   41.6710 N   0  0  0  0  0  0  0  0  0  0  0  0
   40.9430   30.9040   38.2200 H   0  0  0  0  0  0  0  0  0  0  0  0
   41.3660   31.8430   42.2210 H   0  0  0  0  0  0  0  0  0  0  0  0
   38.2820   30.4120   38.1810 C   0  0  0  0  0  0  0  0  0  0  0  0
   36.9470   30.5360   37.9460 C   0  0  0  0  0  0  0  0  0  0  0  0
   37.7940   31.5780   37.2190 C   0  0  0  0  0  0  0  0  0  0  0  0
   38.9840   29.8640   37.4080 H   0  0  0  0  0  0  0  0  0  0  0  0
   36.2240   30.9530   38.6920 H   0  0  0  0  0  0  0  0  0  0  0  0
   36.3860   29.8280   37.2660 H   0  0  0  0  0  0  0  0  0  0  0  0
   37.9420   32.5690   37.6340 H   0  0  0  0  0  0  0  0  0  0  0  0
   37.9220   31.4840   36.1560 H   0  0  0  0  0  0  0  0  0  0  0  0
   37.2600   30.5850   41.0790 C   0  0  0  0  0  0  0  0  0  0  0  0
   36.0900   30.9880   41.3330 O   0  0  0  0  0  0  0  0  0  0  0  0
   37.2070   29.1490   41.5230 C   0  0  0  0  0  0  0  0  0  0  0  0
   37.2930   28.8680   42.8990 C   0  0  0  0  0  0  0  0  0  0  0  0
   37.3950   29.7010   43.6290 H   0  0  0  0  0  0  0  0  0  0  0  0
   37.2620   27.6280   43.4930 C   0  0  0  0  0  3  0  0  0  0  0  0
   37.1340   26.5420   42.6710 C   0  0  0  0  0  0  0  0  0  0  0  0
   37.1050   25.5450   43.0550 H   0  0  0  0  0  0  0  0  0  0  0  0
   37.0410   26.7440   41.2780 C   0  0  0  0  0  0  0  0  0  0  0  0
   36.9380   25.9270   40.5510 H   0  0  0  0  0  0  0  0  0  0  0  0
   37.0790   28.0110   40.7490 C   0  0  0  0  0  3  0  0  0  0  0  0
  1 17  1  0  0  0  0
  1  6  1  0  0  0  0
  2  1  2  0  0  0  0
  3  2  1  0  0  0  0
  3  4  2  0  0  0  0
  4  5  1  0  0  0  0
  5  6  2  0  0  0  0
  5  8  1  0  0  0  0
  7  3  1  0  0  0  0
  9  2  1  0  0  0  0
 10  9  1  0  0  0  0
 10 13  1  0  0  0  0
 11 15  1  0  0  0  0
 11 10  1  0  0  0  0
 11  9  1  0  0  0  0
 12  9  1  0  0  0  0
 14 10  1  0  0  0  0
 16 11  1  0  0  0  0
 17 18  2  0  0  0  0
 17 19  1  0  0  0  0
 19 20  1  0  0  0  0
 20 22  2  0  0  0  0
 20 21  1  0  0  0  0
 23 24  1  0  0  0  0
 23 22  1  0  0  0  0
 25 23  2  0  0  0  0
 26 25  1  0  0  0  0
 27 25  1  0  0  0  0
 27 19  2  0  0  0  0
M  END
>  <minimizedAffinity>
-4.58882618

$$$$
