
 OpenBabel03242516173D

 43 46  0  0  1  0  0  0  0  0999 V2000
   37.9000   27.5750   42.6690 C   0  0  0  0  0  0  0  0  0  0  0  0
   36.7900   27.2230   43.6540 C   0  0  0  0  0  0  0  0  0  0  0  0
   37.4550   28.5270   43.6430 C   0  0  0  0  0  0  0  0  0  0  0  0
   37.0150   26.4090   44.3910 H   0  0  0  0  0  0  0  0  0  0  0  0
   35.7440   27.1400   43.2980 H   0  0  0  0  0  0  0  0  0  0  0  0
   37.7700   28.7390   44.6650 H   0  0  0  0  0  0  0  0  0  0  0  0
   36.8220   29.3770   43.2470 H   0  0  0  0  0  0  0  0  0  0  0  0
   37.4130   27.6790   41.2640 C   0  0  0  0  0  0  0  0  0  0  0  0
   38.4730   28.0520   40.2430 C   0  0  0  0  0  0  0  0  0  0  0  0
   37.7800   27.9810   38.8830 C   0  0  0  0  0  0  0  0  0  0  0  0
   36.9690   29.1160   38.7900 O   0  0  0  0  0  0  0  0  0  0  0  0
   35.8910   28.7880   39.6560 C   0  0  0  0  0  0  0  0  0  0  0  0
   36.3940   28.8180   41.0970 C   0  0  0  0  0  0  0  0  0  0  0  0
   36.9690   26.7220   40.9570 H   0  0  0  0  0  0  0  0  0  0  0  0
   38.8650   29.0710   40.3890 H   0  0  0  0  0  0  0  0  0  0  0  0
   39.2600   27.2820   40.2120 H   0  0  0  0  0  0  0  0  0  0  0  0
   38.5970   28.0680   38.1230 H   0  0  0  0  0  0  0  0  0  0  0  0
   37.2140   27.0350   38.7840 H   0  0  0  0  0  0  0  0  0  0  0  0
   35.0740   29.5090   39.5400 H   0  0  0  0  0  0  0  0  0  0  0  0
   35.5610   27.7640   39.3810 H   0  0  0  0  0  0  0  0  0  0  0  0
   35.5280   28.7170   41.7550 H   0  0  0  0  0  0  0  0  0  0  0  0
   36.9730   29.7710   41.2440 H   0  0  0  0  0  0  0  0  0  0  0  0
   40.3060   27.4590   43.4070 C   0  0  0  0  0  0  0  0  0  0  0  0
   39.1870   26.8360   42.8680 C   0  0  0  0  0  0  0  0  0  0  0  0
   39.3130   25.4850   42.5100 C   0  0  0  0  0  0  0  0  0  0  0  0
   40.5060   24.8480   42.7040 N   0  0  0  0  0  0  0  0  0  0  0  0
   41.5460   25.5070   43.2270 C   0  0  0  0  0  0  0  0  0  0  0  0
   41.4660   26.7760   43.5740 N   0  0  0  0  0  0  0  0  0  0  0  0
   42.8070   24.8940   43.4570 N   0  0  0  0  0  0  0  0  0  0  0  0
   40.1940   28.5040   43.6790 H   0  0  0  0  0  0  0  0  0  0  0  0
   42.9370   24.2900   44.3130 H   0  0  0  0  0  0  0  0  0  0  0  0
   43.4240   25.1830   42.6650 H   0  0  0  0  0  0  0  0  0  0  0  0
   38.2580   24.7320   41.8980 C   0  0  2  0  0  3  0  0  0  0  0  0
   37.3470   24.0290   42.4980 O   0  0  0  0  0  1  0  0  0  0  0  0
   37.6740   24.3450   40.6300 C   0  0  0  0  0  0  0  0  0  0  0  0
   38.2610   24.3410   39.3980 C   0  0  0  0  0  0  0  0  0  0  0  0
   39.3260   24.5950   39.3660 H   0  0  0  0  0  0  0  0  0  0  0  0
   37.5120   24.0250   38.2470 C   0  0  0  0  0  3  0  0  0  0  0  0
   36.1780   23.7140   38.3380 C   0  0  0  0  0  0  0  0  0  0  0  0
   35.6770   23.4860   37.4320 H   0  0  0  0  0  0  0  0  0  0  0  0
   35.5200   23.6980   39.5440 C   0  0  0  0  0  0  0  0  0  0  0  0
   34.4740   23.4570   39.6520 H   0  0  0  0  0  0  0  0  0  0  0  0
   36.3270   24.0180   40.6110 C   0  0  0  0  0  3  0  0  0  0  0  0
  1 24  1  0  0  0  0
  1  3  1  0  0  0  0
  1  2  1  0  0  0  0
  2  4  1  0  0  0  0
  3  2  1  0  0  0  0
  3  6  1  0  0  0  0
  5  2  1  0  0  0  0
  7  3  1  0  0  0  0
  8  1  1  0  0  0  0
  9 15  1  0  0  0  0
  9  8  1  0  0  0  0
 10  9  1  0  0  0  0
 11 10  1  0  0  0  0
 11 12  1  0  0  0  0
 12 13  1  0  0  0  0
 13 22  1  0  0  0  0
 13  8  1  0  0  0  0
 13 21  1  0  0  0  0
 14  8  1  0  0  0  0
 16  9  1  0  0  0  0
 17 10  1  0  0  0  0
 18 10  1  0  0  0  0
 19 12  1  0  0  0  0
 20 12  1  0  0  0  0
 23 28  1  0  0  0  0
 23 30  1  0  0  0  0
 24 23  2  0  0  0  0
 25 26  2  0  0  0  0
 25 24  1  0  0  0  0
 26 27  1  0  0  0  0
 27 29  1  0  0  0  0
 27 28  2  0  0  0  0
 29 31  1  0  0  0  0
 32 29  1  0  0  0  0
 33 34  1  6  0  0  0
 33 25  1  0  0  0  0
 35 33  1  0  0  0  0
 36 35  2  0  0  0  0
 37 36  1  0  0  0  0
 38 39  2  0  0  0  0
 38 36  1  0  0  0  0
 39 41  1  0  0  0  0
 40 39  1  0  0  0  0
 41 42  1  0  0  0  0
 41 43  2  0  0  0  0
 43 35  1  0  0  0  0
M  END
>  <minimizedAffinity>
-5.82823992

$$$$

 OpenBabel03242516173D

 43 46  0  0  1  0  0  0  0  0999 V2000
   38.0630   30.0170   38.3870 C   0  0  0  0  0  0  0  0  0  0  0  0
   38.9930   28.8840   38.8090 C   0  0  0  0  0  0  0  0  0  0  0  0
   39.1150   29.5720   37.5230 C   0  0  0  0  0  0  0  0  0  0  0  0
   38.5230   27.8740   38.9390 H   0  0  0  0  0  0  0  0  0  0  0  0
   39.7520   29.0580   39.5960 H   0  0  0  0  0  0  0  0  0  0  0  0
   39.1590   28.8070   36.7470 H   0  0  0  0  0  0  0  0  0  0  0  0
   40.0080   30.2620   37.4380 H   0  0  0  0  0  0  0  0  0  0  0  0
   38.2540   31.2520   39.2010 C   0  0  0  0  0  0  0  0  0  0  0  0
   37.4070   32.4380   38.7770 C   0  0  0  0  0  0  0  0  0  0  0  0
   37.6780   33.5300   39.8110 C   0  0  0  0  0  0  0  0  0  0  0  0
   38.9450   34.0450   39.5250 O   0  0  0  0  0  0  0  0  0  0  0  0
   39.8020   33.0140   39.9950 C   0  0  0  0  0  0  0  0  0  0  0  0
   39.6790   31.8100   39.0630 C   0  0  0  0  0  0  0  0  0  0  0  0
   38.0300   31.0360   40.2550 H   0  0  0  0  0  0  0  0  0  0  0  0
   37.6780   32.8190   37.7800 H   0  0  0  0  0  0  0  0  0  0  0  0
   36.3370   32.1970   38.8760 H   0  0  0  0  0  0  0  0  0  0  0  0
   36.9190   34.3290   39.6120 H   0  0  0  0  0  0  0  0  0  0  0  0
   37.5970   33.1220   40.8380 H   0  0  0  0  0  0  0  0  0  0  0  0
   40.8430   33.3570   40.0110 H   0  0  0  0  0  0  0  0  0  0  0  0
   39.4540   32.7510   41.0170 H   0  0  0  0  0  0  0  0  0  0  0  0
   40.4510   31.0900   39.3450 H   0  0  0  0  0  0  0  0  0  0  0  0
   39.7620   32.1800   38.0050 H   0  0  0  0  0  0  0  0  0  0  0  0
   36.1640   29.4600   36.8280 C   0  0  0  0  0  0  0  0  0  0  0  0
   36.6460   29.6140   38.1230 C   0  0  0  0  0  0  0  0  0  0  0  0
   35.7460   29.3840   39.1750 C   0  0  0  0  0  0  0  0  0  0  0  0
   34.4600   29.0230   38.8900 N   0  0  0  0  0  0  0  0  0  0  0  0
   34.0600   28.8920   37.6210 C   0  0  0  0  0  0  0  0  0  0  0  0
   34.8760   29.1010   36.6070 N   0  0  0  0  0  0  0  0  0  0  0  0
   32.7380   28.5120   37.2660 N   0  0  0  0  0  0  0  0  0  0  0  0
   36.8720   29.6410   36.0250 H   0  0  0  0  0  0  0  0  0  0  0  0
   32.4660   27.4920   37.3110 H   0  0  0  0  0  0  0  0  0  0  0  0
   32.2380   29.3910   37.0040 H   0  0  0  0  0  0  0  0  0  0  0  0
   36.0900   29.5560   40.5550 C   0  0  2  0  0  3  0  0  0  0  0  0
   35.7800   30.5570   41.3210 O   0  0  0  0  0  1  0  0  0  0  0  0
   36.7900   28.9600   41.6750 C   0  0  0  0  0  0  0  0  0  0  0  0
   37.7600   29.5170   42.4560 C   0  0  0  0  0  0  0  0  0  0  0  0
   37.9950   30.5700   42.2630 H   0  0  0  0  0  0  0  0  0  0  0  0
   38.4080   28.7560   43.4490 C   0  0  0  0  0  3  0  0  0  0  0  0
   38.0800   27.4390   43.6530 C   0  0  0  0  0  0  0  0  0  0  0  0
   38.6080   26.9270   44.4170 H   0  0  0  0  0  0  0  0  0  0  0  0
   37.1140   26.8100   42.9050 C   0  0  0  0  0  0  0  0  0  0  0  0
   36.8300   25.7780   43.0390 H   0  0  0  0  0  0  0  0  0  0  0  0
   36.5360   27.6270   41.9620 C   0  0  0  0  0  3  0  0  0  0  0  0
  1  2  1  0  0  0  0
  1  8  1  0  0  0  0
  2  4  1  0  0  0  0
  2  5  1  0  0  0  0
  3  1  1  0  0  0  0
  3  2  1  0  0  0  0
  6  3  1  0  0  0  0
  7  3  1  0  0  0  0
  8 14  1  0  0  0  0
  9 16  1  0  0  0  0
  9  8  1  0  0  0  0
  9 10  1  0  0  0  0
 10 18  1  0  0  0  0
 11 10  1  0  0  0  0
 11 12  1  0  0  0  0
 12 19  1  0  0  0  0
 12 20  1  0  0  0  0
 13  8  1  0  0  0  0
 13 21  1  0  0  0  0
 13 12  1  0  0  0  0
 15  9  1  0  0  0  0
 17 10  1  0  0  0  0
 22 13  1  0  0  0  0
 23 24  1  0  0  0  0
 24  1  1  0  0  0  0
 24 25  2  0  0  0  0
 25 33  1  0  0  0  0
 26 25  1  0  0  0  0
 27 26  2  0  0  0  0
 28 23  2  0  0  0  0
 28 27  1  0  0  0  0
 29 31  1  0  0  0  0
 29 27  1  0  0  0  0
 30 23  1  0  0  0  0
 32 29  1  0  0  0  0
 33 34  1  6  0  0  0
 33 35  1  0  0  0  0
 35 43  2  0  0  0  0
 35 36  1  0  0  0  0
 36 38  2  0  0  0  0
 37 36  1  0  0  0  0
 38 39  1  0  0  0  0
 39 40  1  0  0  0  0
 41 42  1  0  0  0  0
 41 39  2  0  0  0  0
 43 41  1  0  0  0  0
M  END
>  <minimizedAffinity>
-5.78265238

$$$$

 OpenBabel03242516173D

 43 46  0  0  1  0  0  0  0  0999 V2000
   38.1550   27.9840   42.2660 C   0  0  0  0  0  0  0  0  0  0  0  0
   38.1170   27.4120   43.6800 C   0  0  0  0  0  0  0  0  0  0  0  0
   36.9540   28.0350   43.0450 C   0  0  0  0  0  0  0  0  0  0  0  0
   38.7640   27.9190   44.4420 H   0  0  0  0  0  0  0  0  0  0  0  0
   38.1340   26.3140   43.8300 H   0  0  0  0  0  0  0  0  0  0  0  0
   36.5590   28.7730   43.7450 H   0  0  0  0  0  0  0  0  0  0  0  0
   36.1380   27.3140   42.7400 H   0  0  0  0  0  0  0  0  0  0  0  0
   38.3090   26.9310   41.2220 C   0  0  0  0  0  0  0  0  0  0  0  0
   39.0060   27.3840   39.9510 C   0  0  0  0  0  0  0  0  0  0  0  0
   39.1550   26.1290   39.0930 C   0  0  0  0  0  0  0  0  0  0  0  0
   37.8890   25.8520   38.5680 O   0  0  0  0  0  0  0  0  0  0  0  0
   37.2050   25.3240   39.6960 C   0  0  0  0  0  0  0  0  0  0  0  0
   36.9490   26.4550   40.6890 C   0  0  0  0  0  0  0  0  0  0  0  0
   38.8750   26.0840   41.6340 H   0  0  0  0  0  0  0  0  0  0  0  0
   38.4230   28.1310   39.3900 H   0  0  0  0  0  0  0  0  0  0  0  0
   40.0340   27.7110   40.1760 H   0  0  0  0  0  0  0  0  0  0  0  0
   39.8310   26.4190   38.2480 H   0  0  0  0  0  0  0  0  0  0  0  0
   39.5680   25.2940   39.6920 H   0  0  0  0  0  0  0  0  0  0  0  0
   36.2500   24.8820   39.3920 H   0  0  0  0  0  0  0  0  0  0  0  0
   37.8730   24.5580   40.1440 H   0  0  0  0  0  0  0  0  0  0  0  0
   36.2930   26.0690   41.4720 H   0  0  0  0  0  0  0  0  0  0  0  0
   36.5210   27.3260   40.1200 H   0  0  0  0  0  0  0  0  0  0  0  0
   40.2990   29.2690   42.5870 C   0  0  0  0  0  0  0  0  0  0  0  0
   39.0000   29.2090   42.0970 C   0  0  0  0  0  0  0  0  0  0  0  0
   38.5060   30.3480   41.4420 C   0  0  0  0  0  0  0  0  0  0  0  0
   39.3070   31.4470   41.3120 N   0  0  0  0  0  0  0  0  0  0  0  0
   40.5500   31.4390   41.8080 C   0  0  0  0  0  0  0  0  0  0  0  0
   41.0470   30.3890   42.4300 N   0  0  0  0  0  0  0  0  0  0  0  0
   41.4290   32.5490   41.6960 N   0  0  0  0  0  0  0  0  0  0  0  0
   40.6660   28.3810   43.0910 H   0  0  0  0  0  0  0  0  0  0  0  0
   41.9410   32.7110   40.7870 H   0  0  0  0  0  0  0  0  0  0  0  0
   41.4010   33.0420   42.6180 H   0  0  0  0  0  0  0  0  0  0  0  0
   37.1700   30.4450   40.9330 C   0  0  2  0  0  3  0  0  0  0  0  0
   36.1990   31.1600   41.4130 O   0  0  0  0  0  1  0  0  0  0  0  0
   36.2680   29.9750   39.9020 C   0  0  0  0  0  0  0  0  0  0  0  0
   35.0380   29.4050   40.0550 C   0  0  0  0  0  0  0  0  0  0  0  0
   34.6460   29.3580   41.0770 H   0  0  0  0  0  0  0  0  0  0  0  0
   34.3320   28.9120   38.9400 C   0  0  0  0  0  3  0  0  0  0  0  0
   34.8630   28.9920   37.6770 C   0  0  0  0  0  0  0  0  0  0  0  0
   34.2770   28.6010   36.8850 H   0  0  0  0  0  0  0  0  0  0  0  0
   36.0970   29.5510   37.4460 C   0  0  0  0  0  0  0  0  0  0  0  0
   36.5440   29.6320   36.4680 H   0  0  0  0  0  0  0  0  0  0  0  0
   36.7130   30.0050   38.5890 C   0  0  0  0  0  3  0  0  0  0  0  0
  1  3  1  0  0  0  0
  1  2  1  0  0  0  0
  2  5  1  0  0  0  0
  2  4  1  0  0  0  0
  3  2  1  0  0  0  0
  3  6  1  0  0  0  0
  7  3  1  0  0  0  0
  8 14  1  0  0  0  0
  8  1  1  0  0  0  0
  9 16  1  0  0  0  0
  9  8  1  0  0  0  0
 10 18  1  0  0  0  0
 10  9  1  0  0  0  0
 11 10  1  0  0  0  0
 11 12  1  0  0  0  0
 12 20  1  0  0  0  0
 12 13  1  0  0  0  0
 13  8  1  0  0  0  0
 13 21  1  0  0  0  0
 15  9  1  0  0  0  0
 17 10  1  0  0  0  0
 19 12  1  0  0  0  0
 22 13  1  0  0  0  0
 23 30  1  0  0  0  0
 24  1  1  0  0  0  0
 24 23  2  0  0  0  0
 25 24  1  0  0  0  0
 26 25  2  0  0  0  0
 26 27  1  0  0  0  0
 27 28  2  0  0  0  0
 28 23  1  0  0  0  0
 29 27  1  0  0  0  0
 29 32  1  0  0  0  0
 31 29  1  0  0  0  0
 33 34  1  1  0  0  0
 33 25  1  0  0  0  0
 35 36  1  0  0  0  0
 35 33  1  0  0  0  0
 36 37  1  0  0  0  0
 38 36  2  0  0  0  0
 39 38  1  0  0  0  0
 40 39  1  0  0  0  0
 41 39  2  0  0  0  0
 41 43  1  0  0  0  0
 42 41  1  0  0  0  0
 43 35  2  0  0  0  0
M  END
>  <minimizedAffinity>
-5.67364979

$$$$

 OpenBabel03242516173D

 43 46  0  0  1  0  0  0  0  0999 V2000
   37.5640   28.6500   37.8630 C   0  0  0  0  0  0  0  0  0  0  0  0
   38.8460   28.3930   37.0780 C   0  0  0  0  0  0  0  0  0  0  0  0
   38.5860   27.7950   38.3880 C   0  0  0  0  0  0  0  0  0  0  0  0
   39.5160   29.2770   36.9110 H   0  0  0  0  0  0  0  0  0  0  0  0
   38.8190   27.7570   36.1710 H   0  0  0  0  0  0  0  0  0  0  0  0
   39.4600   27.9870   39.0120 H   0  0  0  0  0  0  0  0  0  0  0  0
   38.3610   26.6870   38.3660 H   0  0  0  0  0  0  0  0  0  0  0  0
   36.3620   28.0470   37.2180 C   0  0  0  0  0  0  0  0  0  0  0  0
   35.1300   28.9330   37.2000 C   0  0  0  0  0  0  0  0  0  0  0  0
   34.0810   28.1650   36.3970 C   0  0  0  0  0  0  0  0  0  0  0  0
   33.6110   27.1440   37.2280 O   0  0  0  0  0  0  0  0  0  0  0  0
   34.6900   26.2200   37.2080 C   0  0  0  0  0  0  0  0  0  0  0  0
   35.8600   26.8150   37.9890 C   0  0  0  0  0  0  0  0  0  0  0  0
   36.5990   27.7760   36.1790 H   0  0  0  0  0  0  0  0  0  0  0  0
   34.7320   29.1280   38.2090 H   0  0  0  0  0  0  0  0  0  0  0  0
   35.3290   29.8500   36.6240 H   0  0  0  0  0  0  0  0  0  0  0  0
   33.2450   28.8900   36.2220 H   0  0  0  0  0  0  0  0  0  0  0  0
   34.5150   27.7890   35.4500 H   0  0  0  0  0  0  0  0  0  0  0  0
   34.3910   25.2710   37.6680 H   0  0  0  0  0  0  0  0  0  0  0  0
   34.9680   26.0760   36.1420 H   0  0  0  0  0  0  0  0  0  0  0  0
   36.6200   26.0380   38.0960 H   0  0  0  0  0  0  0  0  0  0  0  0
   35.4630   27.2060   38.9650 H   0  0  0  0  0  0  0  0  0  0  0  0
   37.6670   31.1520   37.5870 C   0  0  0  0  0  0  0  0  0  0  0  0
   37.4030   30.0440   38.3830 C   0  0  0  0  0  0  0  0  0  0  0  0
   36.9840   30.2850   39.7000 C   0  0  0  0  0  0  0  0  0  0  0  0
   36.8530   31.5730   40.1380 N   0  0  0  0  0  0  0  0  0  0  0  0
   37.1260   32.5950   39.3190 C   0  0  0  0  0  0  0  0  0  0  0  0
   37.5220   32.4080   38.0760 N   0  0  0  0  0  0  0  0  0  0  0  0
   37.0010   33.9530   39.7170 N   0  0  0  0  0  0  0  0  0  0  0  0
   37.9910   30.9490   36.5700 H   0  0  0  0  0  0  0  0  0  0  0  0
   36.0440   34.4000   39.7310 H   0  0  0  0  0  0  0  0  0  0  0  0
   37.9660   34.2850   39.9410 H   0  0  0  0  0  0  0  0  0  0  0  0
   36.7250   29.2410   40.6470 C   0  0  2  0  0  3  0  0  0  0  0  0
   35.5750   28.7150   40.9390 O   0  0  0  0  0  1  0  0  0  0  0  0
   37.3380   28.3550   41.6170 C   0  0  0  0  0  0  0  0  0  0  0  0
   38.3010   28.6510   42.5370 C   0  0  0  0  0  0  0  0  0  0  0  0
   38.6020   29.7020   42.6060 H   0  0  0  0  0  0  0  0  0  0  0  0
   38.8580   27.6380   43.3430 C   0  0  0  0  0  3  0  0  0  0  0  0
   38.4470   26.3340   43.2210 C   0  0  0  0  0  0  0  0  0  0  0  0
   38.9100   25.6250   43.8590 H   0  0  0  0  0  0  0  0  0  0  0  0
   37.4830   25.9610   42.3150 C   0  0  0  0  0  0  0  0  0  0  0  0
   37.1360   24.9480   42.1930 H   0  0  0  0  0  0  0  0  0  0  0  0
   36.9960   27.0120   41.5730 C   0  0  0  0  0  3  0  0  0  0  0  0
  1 24  1  0  0  0  0
  1  3  1  0  0  0  0
  2  1  1  0  0  0  0
  2  3  1  0  0  0  0
  3  6  1  0  0  0  0
  4  2  1  0  0  0  0
  5  2  1  0  0  0  0
  7  3  1  0  0  0  0
  8  1  1  0  0  0  0
  8 13  1  0  0  0  0
  9  8  1  0  0  0  0
  9 15  1  0  0  0  0
 10  9  1  0  0  0  0
 10 11  1  0  0  0  0
 12 11  1  0  0  0  0
 12 19  1  0  0  0  0
 12 13  1  0  0  0  0
 13 21  1  0  0  0  0
 13 22  1  0  0  0  0
 14  8  1  0  0  0  0
 16  9  1  0  0  0  0
 17 10  1  0  0  0  0
 18 10  1  0  0  0  0
 20 12  1  0  0  0  0
 23 28  2  0  0  0  0
 23 24  1  0  0  0  0
 24 25  2  0  0  0  0
 25 26  1  0  0  0  0
 25 33  1  0  0  0  0
 27 29  1  0  0  0  0
 27 26  2  0  0  0  0
 28 27  1  0  0  0  0
 29 31  1  0  0  0  0
 29 32  1  0  0  0  0
 30 23  1  0  0  0  0
 33 34  1  1  0  0  0
 33 35  1  0  0  0  0
 35 36  1  0  0  0  0
 36 37  1  0  0  0  0
 36 38  2  0  0  0  0
 39 38  1  0  0  0  0
 39 40  1  0  0  0  0
 41 39  2  0  0  0  0
 42 41  1  0  0  0  0
 43 35  2  0  0  0  0
 43 41  1  0  0  0  0
M  END
>  <minimizedAffinity>
-5.51459599

$$$$

 OpenBabel03242516173D

 43 46  0  0  1  0  0  0  0  0999 V2000
   40.2220   28.3900   41.8470 C   0  0  0  0  0  0  0  0  0  0  0  0
   41.3050   28.7540   42.8580 C   0  0  0  0  0  0  0  0  0  0  0  0
   40.1910   27.8590   43.1770 C   0  0  0  0  0  0  0  0  0  0  0  0
   41.3560   29.8290   43.1710 H   0  0  0  0  0  0  0  0  0  0  0  0
   42.3260   28.3380   42.7450 H   0  0  0  0  0  0  0  0  0  0  0  0
   39.7420   28.2160   44.1040 H   0  0  0  0  0  0  0  0  0  0  0  0
   40.4750   26.7680   43.2780 H   0  0  0  0  0  0  0  0  0  0  0  0
   40.7350   27.5470   40.7300 C   0  0  0  0  0  0  0  0  0  0  0  0
   40.0680   27.7830   39.3870 C   0  0  0  0  0  0  0  0  0  0  0  0
   40.8270   26.9100   38.3890 C   0  0  0  0  0  0  0  0  0  0  0  0
   40.4140   25.5940   38.6170 O   0  0  0  0  0  0  0  0  0  0  0  0
   41.0910   25.2700   39.8230 C   0  0  0  0  0  0  0  0  0  0  0  0
   40.4550   26.0540   40.9680 C   0  0  0  0  0  0  0  0  0  0  0  0
   41.8140   27.7170   40.6060 H   0  0  0  0  0  0  0  0  0  0  0  0
   39.0070   27.4880   39.3820 H   0  0  0  0  0  0  0  0  0  0  0  0
   40.2340   28.8210   39.0570 H   0  0  0  0  0  0  0  0  0  0  0  0
   40.4640   27.2230   37.3770 H   0  0  0  0  0  0  0  0  0  0  0  0
   41.9190   27.0480   38.5040 H   0  0  0  0  0  0  0  0  0  0  0  0
   41.0150   24.1970   40.0300 H   0  0  0  0  0  0  0  0  0  0  0  0
   42.1510   25.5740   39.6860 H   0  0  0  0  0  0  0  0  0  0  0  0
   40.8800   25.6830   41.9030 H   0  0  0  0  0  0  0  0  0  0  0  0
   39.3390   25.9360   40.8930 H   0  0  0  0  0  0  0  0  0  0  0  0
   39.8030   30.7560   41.0890 C   0  0  0  0  0  0  0  0  0  0  0  0
   39.3080   29.5120   41.4600 C   0  0  0  0  0  0  0  0  0  0  0  0
   37.9150   29.3500   41.4650 C   0  0  0  0  0  0  0  0  0  0  0  0
   37.1160   30.4000   41.1100 N   0  0  0  0  0  0  0  0  0  0  0  0
   37.6570   31.5730   40.7630 C   0  0  0  0  0  0  0  0  0  0  0  0
   38.9620   31.7630   40.7470 N   0  0  0  0  0  0  0  0  0  0  0  0
   36.8770   32.6950   40.3780 N   0  0  0  0  0  0  0  0  0  0  0  0
   40.8830   30.8660   41.0900 H   0  0  0  0  0  0  0  0  0  0  0  0
   36.4900   32.7410   39.3960 H   0  0  0  0  0  0  0  0  0  0  0  0
   36.8280   33.3210   41.2130 H   0  0  0  0  0  0  0  0  0  0  0  0
   37.2650   28.1400   41.8750 C   0  0  2  0  0  3  0  0  0  0  0  0
   36.5820   27.9470   42.9610 O   0  0  0  0  0  1  0  0  0  0  0  0
   37.0110   26.7610   41.5110 C   0  0  0  0  0  0  0  0  0  0  0  0
   37.0640   25.6550   42.3080 C   0  0  0  0  0  0  0  0  0  0  0  0
   37.2520   25.8320   43.3730 H   0  0  0  0  0  0  0  0  0  0  0  0
   36.8820   24.3680   41.7650 C   0  0  0  0  0  3  0  0  0  0  0  0
   36.6490   24.1970   40.4230 C   0  0  0  0  0  0  0  0  0  0  0  0
   36.5220   23.2010   40.0830 H   0  0  0  0  0  0  0  0  0  0  0  0
   36.5830   25.2620   39.5580 C   0  0  0  0  0  0  0  0  0  0  0  0
   36.4010   25.1650   38.5000 H   0  0  0  0  0  0  0  0  0  0  0  0
   36.7720   26.4780   40.1750 C   0  0  0  0  0  3  0  0  0  0  0  0
  1  2  1  0  0  0  0
  1  3  1  0  0  0  0
  2  4  1  0  0  0  0
  2  3  1  0  0  0  0
  3  7  1  0  0  0  0
  3  6  1  0  0  0  0
  5  2  1  0  0  0  0
  8 13  1  0  0  0  0
  8  1  1  0  0  0  0
  9  8  1  0  0  0  0
 10 18  1  0  0  0  0
 10 11  1  0  0  0  0
 10  9  1  0  0  0  0
 11 12  1  0  0  0  0
 12 19  1  0  0  0  0
 12 13  1  0  0  0  0
 13 21  1  0  0  0  0
 14  8  1  0  0  0  0
 15  9  1  0  0  0  0
 16  9  1  0  0  0  0
 17 10  1  0  0  0  0
 20 12  1  0  0  0  0
 22 13  1  0  0  0  0
 23 30  1  0  0  0  0
 23 24  1  0  0  0  0
 24 25  2  0  0  0  0
 24  1  1  0  0  0  0
 25 33  1  0  0  0  0
 26 25  1  0  0  0  0
 27 26  2  0  0  0  0
 28 27  1  0  0  0  0
 28 23  2  0  0  0  0
 29 27  1  0  0  0  0
 29 32  1  0  0  0  0
 31 29  1  0  0  0  0
 33 34  1  1  0  0  0
 35 33  1  0  0  0  0
 35 36  1  0  0  0  0
 36 37  1  0  0  0  0
 38 36  2  0  0  0  0
 39 38  1  0  0  0  0
 40 39  1  0  0  0  0
 41 43  1  0  0  0  0
 41 39  2  0  0  0  0
 42 41  1  0  0  0  0
 43 35  2  0  0  0  0
M  END
>  <minimizedAffinity>
-5.49657106

$$$$

 OpenBabel03242516173D

 43 46  0  0  1  0  0  0  0  0999 V2000
   37.5440   27.4930   42.5110 C   0  0  0  0  0  0  0  0  0  0  0  0
   36.5920   27.2580   43.6800 C   0  0  0  0  0  0  0  0  0  0  0  0
   37.2080   28.5580   43.4090 C   0  0  0  0  0  0  0  0  0  0  0  0
   36.9420   26.5500   44.4750 H   0  0  0  0  0  0  0  0  0  0  0  0
   35.5090   27.1160   43.4890 H   0  0  0  0  0  0  0  0  0  0  0  0
   37.6550   28.9060   44.3410 H   0  0  0  0  0  0  0  0  0  0  0  0
   36.5000   29.3410   43.0010 H   0  0  0  0  0  0  0  0  0  0  0  0
   36.8640   27.4060   41.1870 C   0  0  0  0  0  0  0  0  0  0  0  0
   37.7350   26.9070   40.0490 C   0  0  0  0  0  0  0  0  0  0  0  0
   36.8080   26.7890   38.8400 C   0  0  0  0  0  0  0  0  0  0  0  0
   36.5740   28.0910   38.3890 O   0  0  0  0  0  0  0  0  0  0  0  0
   35.6730   28.5910   39.3670 C   0  0  0  0  0  0  0  0  0  0  0  0
   36.4320   28.7910   40.6770 C   0  0  0  0  0  0  0  0  0  0  0  0
   35.9930   26.7400   41.2640 H   0  0  0  0  0  0  0  0  0  0  0  0
   38.5530   27.6030   39.8030 H   0  0  0  0  0  0  0  0  0  0  0  0
   38.0820   25.8820   40.2560 H   0  0  0  0  0  0  0  0  0  0  0  0
   37.3990   26.2460   38.0590 H   0  0  0  0  0  0  0  0  0  0  0  0
   35.8800   26.2500   39.1130 H   0  0  0  0  0  0  0  0  0  0  0  0
   35.2470   29.5470   39.0440 H   0  0  0  0  0  0  0  0  0  0  0  0
   34.8790   27.8230   39.4920 H   0  0  0  0  0  0  0  0  0  0  0  0
   35.7710   29.3160   41.3690 H   0  0  0  0  0  0  0  0  0  0  0  0
   37.3850   29.3420   40.4450 H   0  0  0  0  0  0  0  0  0  0  0  0
   38.9590   25.4500   42.9230 C   0  0  0  0  0  0  0  0  0  0  0  0
   38.8680   26.8030   42.6190 C   0  0  0  0  0  0  0  0  0  0  0  0
   40.0700   27.5000   42.4230 C   0  0  0  0  0  0  0  0  0  0  0  0
   41.2570   26.8340   42.5340 N   0  0  0  0  0  0  0  0  0  0  0  0
   41.2750   25.5300   42.8310 C   0  0  0  0  0  0  0  0  0  0  0  0
   40.1670   24.8420   43.0230 N   0  0  0  0  0  0  0  0  0  0  0  0
   42.4790   24.7860   42.9520 N   0  0  0  0  0  0  0  0  0  0  0  0
   38.0210   24.9250   43.0720 H   0  0  0  0  0  0  0  0  0  0  0  0
   42.9680   24.4520   42.0780 H   0  0  0  0  0  0  0  0  0  0  0  0
   42.6710   24.7000   43.9760 H   0  0  0  0  0  0  0  0  0  0  0  0
   40.1280   28.9070   42.1540 C   0  0  2  0  0  3  0  0  0  0  0  0
   40.6290   29.8290   42.9170 O   0  0  0  0  0  1  0  0  0  0  0  0
   39.7820   29.9350   41.1950 C   0  0  0  0  0  0  0  0  0  0  0  0
   39.9410   29.9120   39.8400 C   0  0  0  0  0  0  0  0  0  0  0  0
   40.3100   28.9740   39.4100 H   0  0  0  0  0  0  0  0  0  0  0  0
   39.6380   31.0470   39.0620 C   0  0  0  0  0  3  0  0  0  0  0  0
   39.1790   32.2000   39.6470 C   0  0  0  0  0  0  0  0  0  0  0  0
   38.9710   33.0150   39.0010 H   0  0  0  0  0  0  0  0  0  0  0  0
   38.9950   32.2990   41.0050 C   0  0  0  0  0  0  0  0  0  0  0  0
   38.6350   33.1880   41.4970 H   0  0  0  0  0  0  0  0  0  0  0  0
   39.3140   31.1460   41.6840 C   0  0  0  0  0  3  0  0  0  0  0  0
  1 24  1  0  0  0  0
  1  3  1  0  0  0  0
  1  2  1  0  0  0  0
  2  4  1  0  0  0  0
  3  2  1  0  0  0  0
  3  6  1  0  0  0  0
  5  2  1  0  0  0  0
  7  3  1  0  0  0  0
  8 14  1  0  0  0  0
  8  1  1  0  0  0  0
  9 16  1  0  0  0  0
  9  8  1  0  0  0  0
 10 18  1  0  0  0  0
 10  9  1  0  0  0  0
 11 10  1  0  0  0  0
 11 12  1  0  0  0  0
 12 20  1  0  0  0  0
 12 13  1  0  0  0  0
 13  8  1  0  0  0  0
 13 21  1  0  0  0  0
 15  9  1  0  0  0  0
 17 10  1  0  0  0  0
 19 12  1  0  0  0  0
 22 13  1  0  0  0  0
 23 28  1  0  0  0  0
 23 30  1  0  0  0  0
 24 23  2  0  0  0  0
 25 26  2  0  0  0  0
 25 24  1  0  0  0  0
 26 27  1  0  0  0  0
 27 29  1  0  0  0  0
 27 28  2  0  0  0  0
 29 32  1  0  0  0  0
 31 29  1  0  0  0  0
 33 25  1  0  0  0  0
 33 34  1  1  0  0  0
 35 43  1  0  0  0  0
 35 33  1  0  0  0  0
 36 35  2  0  0  0  0
 37 36  1  0  0  0  0
 38 39  2  0  0  0  0
 38 36  1  0  0  0  0
 39 41  1  0  0  0  0
 40 39  1  0  0  0  0
 41 42  1  0  0  0  0
 41 43  2  0  0  0  0
M  END
>  <minimizedAffinity>
-5.4461956

$$$$

 OpenBabel03242516173D

 43 46  0  0  1  0  0  0  0  0999 V2000
   40.6690   30.3430   41.6930 C   0  0  0  0  0  0  0  0  0  0  0  0
   41.4720   31.3560   42.5010 C   0  0  0  0  0  0  0  0  0  0  0  0
   40.1350   30.9100   42.8940 C   0  0  0  0  0  0  0  0  0  0  0  0
   41.6860   32.3370   42.0030 H   0  0  0  0  0  0  0  0  0  0  0  0
   42.3530   31.0220   43.0840 H   0  0  0  0  0  0  0  0  0  0  0  0
   39.5380   31.8020   43.0880 H   0  0  0  0  0  0  0  0  0  0  0  0
   40.1100   30.2240   43.7940 H   0  0  0  0  0  0  0  0  0  0  0  0
   41.2640   28.9760   41.7270 C   0  0  0  0  0  0  0  0  0  0  0  0
   41.0110   28.1340   40.4890 C   0  0  0  0  0  0  0  0  0  0  0  0
   41.8040   26.8440   40.6980 C   0  0  0  0  0  0  0  0  0  0  0  0
   41.0940   26.0870   41.6330 O   0  0  0  0  0  0  0  0  0  0  0  0
   41.3720   26.7700   42.8480 C   0  0  0  0  0  0  0  0  0  0  0  0
   40.6420   28.1110   42.8350 C   0  0  0  0  0  0  0  0  0  0  0  0
   42.3520   29.0520   41.8680 H   0  0  0  0  0  0  0  0  0  0  0  0
   39.9480   27.8800   40.3580 H   0  0  0  0  0  0  0  0  0  0  0  0
   41.4580   28.6140   39.6040 H   0  0  0  0  0  0  0  0  0  0  0  0
   41.7740   26.3090   39.7150 H   0  0  0  0  0  0  0  0  0  0  0  0
   42.8390   27.0720   41.0190 H   0  0  0  0  0  0  0  0  0  0  0  0
   41.0340   26.1800   43.7060 H   0  0  0  0  0  0  0  0  0  0  0  0
   42.4710   26.9270   42.8810 H   0  0  0  0  0  0  0  0  0  0  0  0
   40.7380   28.5530   43.8280 H   0  0  0  0  0  0  0  0  0  0  0  0
   39.5790   27.9250   42.5170 H   0  0  0  0  0  0  0  0  0  0  0  0
   41.0630   31.4430   39.4600 C   0  0  0  0  0  0  0  0  0  0  0  0
   40.1980   30.8230   40.3550 C   0  0  0  0  0  0  0  0  0  0  0  0
   38.8610   30.6720   39.9570 C   0  0  0  0  0  0  0  0  0  0  0  0
   38.4710   31.1290   38.7300 N   0  0  0  0  0  0  0  0  0  0  0  0
   39.3540   31.7170   37.9160 C   0  0  0  0  0  0  0  0  0  0  0  0
   40.6180   31.8780   38.2560 N   0  0  0  0  0  0  0  0  0  0  0  0
   39.0070   32.2040   36.6280 N   0  0  0  0  0  0  0  0  0  0  0  0
   42.0930   31.5530   39.7830 H   0  0  0  0  0  0  0  0  0  0  0  0
   38.9300   31.5230   35.8240 H   0  0  0  0  0  0  0  0  0  0  0  0
   38.8820   33.2370   36.7260 H   0  0  0  0  0  0  0  0  0  0  0  0
   37.8510   30.0990   40.7960 C   0  0  2  0  0  3  0  0  0  0  0  0
   36.7960   30.6900   41.2680 O   0  0  0  0  0  1  0  0  0  0  0  0
   37.4390   28.8920   41.4840 C   0  0  0  0  0  0  0  0  0  0  0  0
   37.1190   28.7410   42.8010 C   0  0  0  0  0  0  0  0  0  0  0  0
   37.0990   29.6540   43.4050 H   0  0  0  0  0  0  0  0  0  0  0  0
   36.8320   27.4660   43.3280 C   0  0  0  0  0  3  0  0  0  0  0  0
   36.8700   26.3490   42.5320 C   0  0  0  0  0  0  0  0  0  0  0  0
   36.6430   25.4220   42.9950 H   0  0  0  0  0  0  0  0  0  0  0  0
   37.1860   26.4230   41.1960 C   0  0  0  0  0  0  0  0  0  0  0  0
   37.2240   25.5680   40.5410 H   0  0  0  0  0  0  0  0  0  0  0  0
   37.4500   27.7040   40.7690 C   0  0  0  0  0  3  0  0  0  0  0  0
  1  8  1  0  0  0  0
  1  2  1  0  0  0  0
  1  3  1  0  0  0  0
  2  3  1  0  0  0  0
  2  5  1  0  0  0  0
  3  6  1  0  0  0  0
  3  7  1  0  0  0  0
  4  2  1  0  0  0  0
  8 14  1  0  0  0  0
  8 13  1  0  0  0  0
  9 10  1  0  0  0  0
  9  8  1  0  0  0  0
 10 18  1  0  0  0  0
 10 11  1  0  0  0  0
 11 12  1  0  0  0  0
 12 20  1  0  0  0  0
 12 19  1  0  0  0  0
 13 12  1  0  0  0  0
 13 21  1  0  0  0  0
 15  9  1  0  0  0  0
 16  9  1  0  0  0  0
 17 10  1  0  0  0  0
 22 13  1  0  0  0  0
 23 30  1  0  0  0  0
 23 24  1  0  0  0  0
 24  1  1  0  0  0  0
 25 24  2  0  0  0  0
 25 33  1  0  0  0  0
 26 25  1  0  0  0  0
 27 28  1  0  0  0  0
 27 26  2  0  0  0  0
 28 23  2  0  0  0  0
 29 32  1  0  0  0  0
 29 27  1  0  0  0  0
 31 29  1  0  0  0  0
 33 34  1  1  0  0  0
 33 35  1  0  0  0  0
 35 36  1  0  0  0  0
 36 38  2  0  0  0  0
 36 37  1  0  0  0  0
 39 40  1  0  0  0  0
 39 38  1  0  0  0  0
 41 39  2  0  0  0  0
 42 41  1  0  0  0  0
 43 41  1  0  0  0  0
 43 35  2  0  0  0  0
M  END
>  <minimizedAffinity>
-5.43264771

$$$$

 OpenBabel03242516173D

 43 46  0  0  1  0  0  0  0  0999 V2000
   37.9400   31.5460   39.3430 C   0  0  0  0  0  0  0  0  0  0  0  0
   37.5930   32.5530   40.4340 C   0  0  0  0  0  0  0  0  0  0  0  0
   37.1730   32.7180   39.0420 C   0  0  0  0  0  0  0  0  0  0  0  0
   38.4520   33.1010   40.9010 H   0  0  0  0  0  0  0  0  0  0  0  0
   36.8400   32.2930   41.2050 H   0  0  0  0  0  0  0  0  0  0  0  0
   37.4550   33.7260   38.7340 H   0  0  0  0  0  0  0  0  0  0  0  0
   36.0690   32.5510   38.8570 H   0  0  0  0  0  0  0  0  0  0  0  0
   37.2450   30.2390   39.5220 C   0  0  0  0  0  0  0  0  0  0  0  0
   36.8480   29.5410   38.2340 C   0  0  0  0  0  0  0  0  0  0  0  0
   36.2710   28.1910   38.6570 C   0  0  0  0  0  0  0  0  0  0  0  0
   34.9990   28.4460   39.1750 O   0  0  0  0  0  0  0  0  0  0  0  0
   35.2980   29.0160   40.4410 C   0  0  0  0  0  0  0  0  0  0  0  0
   35.8880   30.4080   40.2250 C   0  0  0  0  0  0  0  0  0  0  0  0
   37.8880   29.5560   40.0930 H   0  0  0  0  0  0  0  0  0  0  0  0
   36.0810   30.0940   37.6690 H   0  0  0  0  0  0  0  0  0  0  0  0
   37.7440   29.3050   37.6370 H   0  0  0  0  0  0  0  0  0  0  0  0
   36.1560   27.6020   37.7110 H   0  0  0  0  0  0  0  0  0  0  0  0
   36.9430   27.6910   39.3820 H   0  0  0  0  0  0  0  0  0  0  0  0
   34.3900   29.0960   41.0500 H   0  0  0  0  0  0  0  0  0  0  0  0
   36.0430   28.3490   40.9240 H   0  0  0  0  0  0  0  0  0  0  0  0
   35.9690   30.8910   41.2010 H   0  0  0  0  0  0  0  0  0  0  0  0
   35.2310   30.9550   39.4950 H   0  0  0  0  0  0  0  0  0  0  0  0
   39.8490   31.9190   37.7410 C   0  0  0  0  0  0  0  0  0  0  0  0
   39.3900   31.4770   38.9760 C   0  0  0  0  0  0  0  0  0  0  0  0
   40.3410   30.9550   39.8660 C   0  0  0  0  0  0  0  0  0  0  0  0
   41.6540   30.9060   39.4920 N   0  0  0  0  0  0  0  0  0  0  0  0
   42.0290   31.3470   38.2860 C   0  0  0  0  0  0  0  0  0  0  0  0
   41.1640   31.8430   37.4240 N   0  0  0  0  0  0  0  0  0  0  0  0
   43.3800   31.3270   37.8470 N   0  0  0  0  0  0  0  0  0  0  0  0
   39.1010   32.3200   37.0640 H   0  0  0  0  0  0  0  0  0  0  0  0
   44.0400   32.0830   38.1760 H   0  0  0  0  0  0  0  0  0  0  0  0
   43.4740   30.4930   37.2240 H   0  0  0  0  0  0  0  0  0  0  0  0
   40.0030   30.4170   41.1510 C   0  0  2  0  0  3  0  0  0  0  0  0
   40.2480   30.9470   42.3110 O   0  0  0  0  0  1  0  0  0  0  0  0
   39.3870   29.2970   41.8310 C   0  0  0  0  0  0  0  0  0  0  0  0
   39.4830   27.9700   41.5270 C   0  0  0  0  0  0  0  0  0  0  0  0
   40.1670   27.7060   40.7120 H   0  0  0  0  0  0  0  0  0  0  0  0
   38.7330   27.0140   42.2390 C   0  0  0  0  0  3  0  0  0  0  0  0
   37.8880   27.3930   43.2530 C   0  0  0  0  0  0  0  0  0  0  0  0
   37.3550   26.6200   43.7450 H   0  0  0  0  0  0  0  0  0  0  0  0
   37.7380   28.7100   43.6140 C   0  0  0  0  0  0  0  0  0  0  0  0
   37.0860   29.0430   44.4050 H   0  0  0  0  0  0  0  0  0  0  0  0
   38.5080   29.5720   42.8670 C   0  0  0  0  0  3  0  0  0  0  0  0
  1  8  1  0  0  0  0
  1  2  1  0  0  0  0
  2  4  1  0  0  0  0
  2  5  1  0  0  0  0
  3  1  1  0  0  0  0
  3  2  1  0  0  0  0
  6  3  1  0  0  0  0
  7  3  1  0  0  0  0
  8 14  1  0  0  0  0
  8 13  1  0  0  0  0
  9 10  1  0  0  0  0
  9  8  1  0  0  0  0
 10 11  1  0  0  0  0
 10 18  1  0  0  0  0
 11 12  1  0  0  0  0
 12 20  1  0  0  0  0
 12 19  1  0  0  0  0
 13 12  1  0  0  0  0
 13 21  1  0  0  0  0
 15  9  1  0  0  0  0
 16  9  1  0  0  0  0
 17 10  1  0  0  0  0
 22 13  1  0  0  0  0
 23 24  1  0  0  0  0
 24  1  1  0  0  0  0
 24 25  2  0  0  0  0
 25 33  1  0  0  0  0
 26 25  1  0  0  0  0
 27 26  2  0  0  0  0
 28 23  2  0  0  0  0
 28 27  1  0  0  0  0
 29 31  1  0  0  0  0
 29 27  1  0  0  0  0
 30 23  1  0  0  0  0
 32 29  1  0  0  0  0
 33 35  1  0  0  0  0
 33 34  1  1  0  0  0
 35 43  1  0  0  0  0
 36 35  2  0  0  0  0
 36 38  1  0  0  0  0
 37 36  1  0  0  0  0
 38 39  2  0  0  0  0
 39 41  1  0  0  0  0
 39 40  1  0  0  0  0
 41 42  1  0  0  0  0
 43 41  2  0  0  0  0
M  END
>  <minimizedAffinity>
-5.40453148

$$$$

 OpenBabel03242516173D

 43 46  0  0  1  0  0  0  0  0999 V2000
   36.2730   29.0410   39.9480 C   0  0  0  0  0  0  0  0  0  0  0  0
   34.7810   29.2710   39.7330 C   0  0  0  0  0  0  0  0  0  0  0  0
   35.4590   28.0400   39.3260 C   0  0  0  0  0  0  0  0  0  0  0  0
   34.4980   30.0960   39.0280 H   0  0  0  0  0  0  0  0  0  0  0  0
   34.0910   29.2540   40.6000 H   0  0  0  0  0  0  0  0  0  0  0  0
   35.1890   27.8480   38.2870 H   0  0  0  0  0  0  0  0  0  0  0  0
   35.2200   27.1350   39.9620 H   0  0  0  0  0  0  0  0  0  0  0  0
   36.6350   28.9040   41.3880 C   0  0  0  0  0  0  0  0  0  0  0  0
   38.0250   29.3940   41.7500 C   0  0  0  0  0  0  0  0  0  0  0  0
   38.1240   29.2680   43.2700 C   0  0  0  0  0  0  0  0  0  0  0  0
   38.2860   27.9080   43.5470 O   0  0  0  0  0  0  0  0  0  0  0  0
   36.9790   27.3970   43.3220 C   0  0  0  0  0  0  0  0  0  0  0  0
   36.6910   27.4310   41.8230 C   0  0  0  0  0  0  0  0  0  0  0  0
   35.9100   29.4560   42.0030 H   0  0  0  0  0  0  0  0  0  0  0  0
   38.8220   28.7890   41.2910 H   0  0  0  0  0  0  0  0  0  0  0  0
   38.1170   30.4710   41.5370 H   0  0  0  0  0  0  0  0  0  0  0  0
   39.0660   29.8010   43.5560 H   0  0  0  0  0  0  0  0  0  0  0  0
   37.2300   29.7070   43.7550 H   0  0  0  0  0  0  0  0  0  0  0  0
   36.9030   26.3660   43.6850 H   0  0  0  0  0  0  0  0  0  0  0  0
   36.2780   28.0640   43.8680 H   0  0  0  0  0  0  0  0  0  0  0  0
   35.7530   26.8980   41.6520 H   0  0  0  0  0  0  0  0  0  0  0  0
   37.5750   26.9870   41.2890 H   0  0  0  0  0  0  0  0  0  0  0  0
   36.9860   31.2750   39.0260 C   0  0  0  0  0  0  0  0  0  0  0  0
   37.1770   29.9010   39.1200 C   0  0  0  0  0  0  0  0  0  0  0  0
   38.2480   29.3510   38.4010 C   0  0  0  0  0  0  0  0  0  0  0  0
   39.0460   30.1700   37.6540 N   0  0  0  0  0  0  0  0  0  0  0  0
   38.8070   31.4850   37.6060 C   0  0  0  0  0  0  0  0  0  0  0  0
   37.8100   32.0380   38.2670 N   0  0  0  0  0  0  0  0  0  0  0  0
   39.6080   32.3850   36.8530 N   0  0  0  0  0  0  0  0  0  0  0  0
   36.1530   31.6860   39.5880 H   0  0  0  0  0  0  0  0  0  0  0  0
   40.5310   32.7080   37.2490 H   0  0  0  0  0  0  0  0  0  0  0  0
   39.0850   32.5760   35.9680 H   0  0  0  0  0  0  0  0  0  0  0  0
   38.5320   27.9460   38.3640 C   0  0  2  0  0  3  0  0  0  0  0  0
   38.4770   27.1630   37.3310 O   0  0  0  0  0  1  0  0  0  0  0  0
   38.9250   26.8050   39.1650 C   0  0  0  0  0  0  0  0  0  0  0  0
   39.9570   26.7150   40.0530 C   0  0  0  0  0  0  0  0  0  0  0  0
   40.5190   27.6360   40.2410 H   0  0  0  0  0  0  0  0  0  0  0  0
   40.2600   25.4900   40.6790 C   0  0  0  0  0  3  0  0  0  0  0  0
   39.5260   24.3610   40.4120 C   0  0  0  0  0  0  0  0  0  0  0  0
   39.8100   23.4740   40.9190 H   0  0  0  0  0  0  0  0  0  0  0  0
   38.4730   24.3750   39.5290 C   0  0  0  0  0  0  0  0  0  0  0  0
   37.8760   23.5090   39.2960 H   0  0  0  0  0  0  0  0  0  0  0  0
   38.2500   25.6110   38.9660 C   0  0  0  0  0  3  0  0  0  0  0  0
  1  8  1  0  0  0  0
  2  1  1  0  0  0  0
  2  5  1  0  0  0  0
  3  2  1  0  0  0  0
  3  1  1  0  0  0  0
  3  7  1  0  0  0  0
  4  2  1  0  0  0  0
  6  3  1  0  0  0  0
  8  9  1  0  0  0  0
  8 13  1  0  0  0  0
  8 14  1  0  0  0  0
  9 10  1  0  0  0  0
 10 11  1  0  0  0  0
 10 17  1  0  0  0  0
 10 18  1  0  0  0  0
 12 11  1  0  0  0  0
 12 19  1  0  0  0  0
 12 20  1  0  0  0  0
 13 12  1  0  0  0  0
 15  9  1  0  0  0  0
 16  9  1  0  0  0  0
 21 13  1  0  0  0  0
 22 13  1  0  0  0  0
 23 24  1  0  0  0  0
 23 30  1  0  0  0  0
 24  1  1  0  0  0  0
 25 24  2  0  0  0  0
 26 25  1  0  0  0  0
 27 26  2  0  0  0  0
 27 28  1  0  0  0  0
 28 23  2  0  0  0  0
 29 31  1  0  0  0  0
 29 27  1  0  0  0  0
 32 29  1  0  0  0  0
 33 34  1  1  0  0  0
 33 25  1  0  0  0  0
 33 35  1  0  0  0  0
 35 36  1  0  0  0  0
 36 37  1  0  0  0  0
 36 38  2  0  0  0  0
 39 38  1  0  0  0  0
 39 40  1  0  0  0  0
 41 39  2  0  0  0  0
 42 41  1  0  0  0  0
 43 35  2  0  0  0  0
 43 41  1  0  0  0  0
M  END
>  <minimizedAffinity>
-5.3807826

$$$$
