
 OpenBabel03252506213D

 35 37  0  0  0  0  0  0  0  0999 V2000
   44.6330   35.0070   41.9750 C   0  0  0  0  0  0  0  0  0  0  0  0
   43.5520   35.0760   41.0850 C   0  0  0  0  0  0  0  0  0  0  0  0
   43.6220   34.3130   39.9120 C   0  0  0  0  0  0  0  0  0  0  0  0
   44.7230   33.5500   39.6990 N   0  0  0  0  0  0  0  0  0  0  0  0
   45.7360   33.5120   40.5800 C   0  0  0  0  0  0  0  0  0  0  0  0
   45.6990   34.2350   41.7160 N   0  0  0  0  0  0  0  0  0  0  0  0
   42.6940   35.6900   41.2810 H   0  0  0  0  0  0  0  0  0  0  0  0
   42.8200   34.3240   39.1850 H   0  0  0  0  0  0  0  0  0  0  0  0
   48.3400   34.9900   40.1060 Cl  0  0  0  0  0  0  0  0  0  0  0  0
   48.1250   33.2690   40.0390 C   0  0  0  0  0  0  0  0  0  0  0  0
   46.9000   32.6510   40.2670 C   0  0  0  0  0  0  0  0  0  0  0  0
   46.7100   31.3010   40.2190 C   0  0  0  0  0  0  0  0  0  0  0  0
   47.7980   30.5280   39.9290 C   0  0  0  0  0  0  0  0  0  0  0  0
   49.0580   31.0280   39.6860 C   0  0  0  0  0  0  0  0  0  0  0  0
   49.1630   32.4040   39.7540 C   0  0  0  0  0  0  0  0  0  0  0  0
   45.7500   30.8840   40.4030 H   0  0  0  0  0  0  0  0  0  0  0  0
   47.6740   29.4470   39.8850 H   0  0  0  0  0  0  0  0  0  0  0  0
   49.9340   30.4250   39.4540 H   0  0  0  0  0  0  0  0  0  0  0  0
   50.1360   32.8640   39.5710 H   0  0  0  0  0  0  0  0  0  0  0  0
   44.5660   35.8040   43.2030 C   0  0  0  0  0  3  0  0  0  0  0  0
   45.1540   36.9660   43.2260 C   0  0  0  0  0  3  0  0  0  0  0  0
   45.1170   37.8180   44.4470 C   0  0  0  0  0  0  0  0  0  0  0  0
   46.0130   37.5460   45.0720 H   0  0  0  0  0  0  0  0  0  0  0  0
   44.1960   37.6620   45.0380 H   0  0  0  0  0  0  0  0  0  0  0  0
   45.3250   39.1900   44.0520 N   0  0  0  0  0  0  0  0  0  0  0  0
   45.7200   39.4550   43.1230 H   0  0  0  0  0  0  0  0  0  0  0  0
   44.9840   40.2340   44.9560 C   0  0  0  0  0  0  0  0  0  0  0  0
   44.6030   41.4810   44.5130 C   0  0  0  0  0  0  0  0  0  0  0  0
   44.5490   41.7140   43.4560 H   0  0  0  0  0  0  0  0  0  0  0  0
   44.2630   42.5260   45.3600 C   0  0  0  0  0  3  0  0  0  0  0  0
   44.3080   42.3070   46.7220 C   0  0  0  0  0  0  0  0  0  0  0  0
   44.0430   43.1200   47.3930 H   0  0  0  0  0  0  0  0  0  0  0  0
   44.6860   41.0650   47.1710 C   0  0  0  0  0  0  0  0  0  0  0  0
   44.7160   40.9110   48.2600 H   0  0  0  0  0  0  0  0  0  0  0  0
   45.0180   40.0490   46.3220 C   0  0  0  0  0  3  0  0  0  0  0  0
  1 20  1  0  0  0  0
  2  7  1  0  0  0  0
  2  1  2  0  0  0  0
  3  2  1  0  0  0  0
  4  3  2  0  0  0  0
  4  5  1  0  0  0  0
  5  6  2  0  0  0  0
  6  1  1  0  0  0  0
  8  3  1  0  0  0  0
 10  9  1  0  0  0  0
 10 11  1  0  0  0  0
 11  5  1  0  0  0  0
 12 11  2  0  0  0  0
 12 16  1  0  0  0  0
 13 12  1  0  0  0  0
 14 15  1  0  0  0  0
 14 13  2  0  0  0  0
 15 10  2  0  0  0  0
 17 13  1  0  0  0  0
 18 14  1  0  0  0  0
 19 15  1  0  0  0  0
 20 21  2  0  0  0  0
 21 22  1  0  0  0  0
 22 24  1  0  0  0  0
 22 23  1  0  0  0  0
 25 22  1  0  0  0  0
 25 27  1  0  0  0  0
 26 25  1  0  0  0  0
 27 35  1  0  0  0  0
 28 27  2  0  0  0  0
 28 30  1  0  0  0  0
 29 28  1  0  0  0  0
 30 31  2  0  0  0  0
 31 33  1  0  0  0  0
 31 32  1  0  0  0  0
 33 34  1  0  0  0  0
 35 33  2  0  0  0  0
M  END
>  <minimizedAffinity>
-3.83204985

>  <minimizedRMSD>
2.02952361

$$$$
