
 OpenBabel03252506213D

 35 37  0  0  0  0  0  0  0  0999 V2000
   44.8200   35.0010   42.1620 C   0  0  0  0  0  0  0  0  0  0  0  0
   43.7620   35.0720   41.2450 C   0  0  0  0  0  0  0  0  0  0  0  0
   43.8500   34.2900   40.0860 C   0  0  0  0  0  0  0  0  0  0  0  0
   44.9450   33.5090   39.9110 N   0  0  0  0  0  0  0  0  0  0  0  0
   45.9350   33.4710   40.8170 C   0  0  0  0  0  0  0  0  0  0  0  0
   45.8810   34.2110   41.9410 N   0  0  0  0  0  0  0  0  0  0  0  0
   42.9080   35.7000   41.4110 H   0  0  0  0  0  0  0  0  0  0  0  0
   43.0660   34.3010   39.3400 H   0  0  0  0  0  0  0  0  0  0  0  0
   48.3380   34.8470   39.5830 Cl  0  0  0  0  0  0  0  0  0  0  0  0
   48.2290   33.1610   39.9790 C   0  0  0  0  0  0  0  0  0  0  0  0
   47.0950   32.5900   40.5450 C   0  0  0  0  0  0  0  0  0  0  0  0
   46.9890   31.2670   40.8640 C   0  0  0  0  0  0  0  0  0  0  0  0
   48.0710   30.4740   40.6050 C   0  0  0  0  0  0  0  0  0  0  0  0
   49.2440   30.9290   40.0470 C   0  0  0  0  0  0  0  0  0  0  0  0
   49.2680   32.2800   39.7550 C   0  0  0  0  0  0  0  0  0  0  0  0
   46.0960   30.8860   41.2960 H   0  0  0  0  0  0  0  0  0  0  0  0
   48.0120   29.4150   40.8500 H   0  0  0  0  0  0  0  0  0  0  0  0
   50.1140   30.3100   39.8350 H   0  0  0  0  0  0  0  0  0  0  0  0
   50.1710   32.7020   39.3110 H   0  0  0  0  0  0  0  0  0  0  0  0
   44.7340   35.8180   43.3770 C   0  0  0  0  0  3  0  0  0  0  0  0
   45.1780   37.0420   43.3380 C   0  0  0  0  0  3  0  0  0  0  0  0
   45.1150   37.9160   44.5420 C   0  0  0  0  0  0  0  0  0  0  0  0
   46.0020   37.6610   45.1870 H   0  0  0  0  0  0  0  0  0  0  0  0
   44.1850   37.7650   45.1210 H   0  0  0  0  0  0  0  0  0  0  0  0
   45.3220   39.2820   44.1260 N   0  0  0  0  0  0  0  0  0  0  0  0
   45.7250   39.5320   43.1960 H   0  0  0  0  0  0  0  0  0  0  0  0
   44.9660   40.3400   45.0070 C   0  0  0  0  0  0  0  0  0  0  0  0
   44.5890   41.5780   44.5380 C   0  0  0  0  0  0  0  0  0  0  0  0
   44.5500   41.7940   43.4760 H   0  0  0  0  0  0  0  0  0  0  0  0
   44.2350   42.6370   45.3620 C   0  0  0  0  0  3  0  0  0  0  0  0
   44.2600   42.4410   46.7280 C   0  0  0  0  0  0  0  0  0  0  0  0
   43.9840   43.2650   47.3820 H   0  0  0  0  0  0  0  0  0  0  0  0
   44.6340   41.2080   47.2030 C   0  0  0  0  0  0  0  0  0  0  0  0
   44.6480   41.0710   48.2950 H   0  0  0  0  0  0  0  0  0  0  0  0
   44.9800   40.1790   46.3760 C   0  0  0  0  0  3  0  0  0  0  0  0
  1 20  1  0  0  0  0
  2  7  1  0  0  0  0
  2  1  2  0  0  0  0
  3  2  1  0  0  0  0
  4  3  2  0  0  0  0
  4  5  1  0  0  0  0
  5  6  2  0  0  0  0
  6  1  1  0  0  0  0
  8  3  1  0  0  0  0
  9 10  1  0  0  0  0
 10 11  1  0  0  0  0
 11  5  1  0  0  0  0
 11 12  2  0  0  0  0
 12 16  1  0  0  0  0
 13 17  1  0  0  0  0
 13 12  1  0  0  0  0
 14 13  2  0  0  0  0
 15 10  2  0  0  0  0
 15 14  1  0  0  0  0
 18 14  1  0  0  0  0
 19 15  1  0  0  0  0
 21 20  2  0  0  0  0
 21 22  1  0  0  0  0
 22 24  1  0  0  0  0
 22 23  1  0  0  0  0
 25 22  1  0  0  0  0
 25 27  1  0  0  0  0
 26 25  1  0  0  0  0
 27 35  1  0  0  0  0
 28 27  2  0  0  0  0
 28 30  1  0  0  0  0
 29 28  1  0  0  0  0
 30 31  2  0  0  0  0
 31 33  1  0  0  0  0
 31 32  1  0  0  0  0
 33 34  1  0  0  0  0
 35 33  2  0  0  0  0
M  END
>  <minimizedAffinity>
-3.73151517

>  <minimizedRMSD>
1.71573591

$$$$
