
 OpenBabel03252506213D

 35 37  0  0  0  0  0  0  0  0999 V2000
   44.7230   35.0790   42.0950 C   0  0  0  0  0  0  0  0  0  0  0  0
   43.5990   35.1630   41.2610 C   0  0  0  0  0  0  0  0  0  0  0  0
   43.6030   34.4050   40.0830 C   0  0  0  0  0  0  0  0  0  0  0  0
   44.6850   33.6340   39.8100 N   0  0  0  0  0  0  0  0  0  0  0  0
   45.7410   33.5830   40.6380 C   0  0  0  0  0  0  0  0  0  0  0  0
   45.7670   34.2990   41.7780 N   0  0  0  0  0  0  0  0  0  0  0  0
   42.7570   35.7830   41.5030 H   0  0  0  0  0  0  0  0  0  0  0  0
   42.7650   34.4270   39.3980 H   0  0  0  0  0  0  0  0  0  0  0  0
   48.3560   35.0320   40.1390 Cl  0  0  0  0  0  0  0  0  0  0  0  0
   48.1080   33.3190   40.0200 C   0  0  0  0  0  0  0  0  0  0  0  0
   46.8800   32.7140   40.2620 C   0  0  0  0  0  0  0  0  0  0  0  0
   46.6650   31.3700   40.1730 C   0  0  0  0  0  0  0  0  0  0  0  0
   47.7300   30.5880   39.8260 C   0  0  0  0  0  0  0  0  0  0  0  0
   48.9900   31.0760   39.5630 C   0  0  0  0  0  0  0  0  0  0  0  0
   49.1220   32.4470   39.6750 C   0  0  0  0  0  0  0  0  0  0  0  0
   45.7030   30.9630   40.3710 H   0  0  0  0  0  0  0  0  0  0  0  0
   47.5850   29.5120   39.7480 H   0  0  0  0  0  0  0  0  0  0  0  0
   49.8490   30.4660   39.2850 H   0  0  0  0  0  0  0  0  0  0  0  0
   50.0980   32.8960   39.4790 H   0  0  0  0  0  0  0  0  0  0  0  0
   44.7250   35.8700   43.3290 C   0  0  0  0  0  3  0  0  0  0  0  0
   45.1380   37.1050   43.2780 C   0  0  0  0  0  3  0  0  0  0  0  0
   45.1610   37.9550   44.5010 C   0  0  0  0  0  0  0  0  0  0  0  0
   46.0890   37.6860   45.0770 H   0  0  0  0  0  0  0  0  0  0  0  0
   44.2720   37.7930   45.1400 H   0  0  0  0  0  0  0  0  0  0  0  0
   45.3410   39.3280   44.0990 N   0  0  0  0  0  0  0  0  0  0  0  0
   45.7350   39.5960   43.1700 H   0  0  0  0  0  0  0  0  0  0  0  0
   44.9720   40.3700   44.9940 C   0  0  0  0  0  0  0  0  0  0  0  0
   44.9880   40.1930   46.3590 C   0  0  0  0  0  0  0  0  0  0  0  0
   45.2840   39.2480   46.8040 H   0  0  0  0  0  0  0  0  0  0  0  0
   44.6360   41.1800   47.2670 C   0  0  0  0  0  3  0  0  0  0  0  0
   44.2470   42.4110   46.7780 C   0  0  0  0  0  0  0  0  0  0  0  0
   43.9700   43.1920   47.4810 H   0  0  0  0  0  0  0  0  0  0  0  0
   44.2280   42.5960   45.4170 C   0  0  0  0  0  0  0  0  0  0  0  0
   43.9160   43.5840   45.0470 H   0  0  0  0  0  0  0  0  0  0  0  0
   44.5790   41.6110   44.5400 C   0  0  0  0  0  3  0  0  0  0  0  0
  1 20  1  0  0  0  0
  2  7  1  0  0  0  0
  2  1  2  0  0  0  0
  3  2  1  0  0  0  0
  4  3  2  0  0  0  0
  4  5  1  0  0  0  0
  5  6  2  0  0  0  0
  6  1  1  0  0  0  0
  8  3  1  0  0  0  0
 10  9  1  0  0  0  0
 10 11  1  0  0  0  0
 11  5  1  0  0  0  0
 12 11  2  0  0  0  0
 12 16  1  0  0  0  0
 13 12  1  0  0  0  0
 14 15  1  0  0  0  0
 14 13  2  0  0  0  0
 15 10  2  0  0  0  0
 17 13  1  0  0  0  0
 18 14  1  0  0  0  0
 19 15  1  0  0  0  0
 21 20  2  0  0  0  0
 21 22  1  0  0  0  0
 22 23  1  0  0  0  0
 22 24  1  0  0  0  0
 25 22  1  0  0  0  0
 25 27  1  0  0  0  0
 26 25  1  0  0  0  0
 27 28  1  0  0  0  0
 28 29  1  0  0  0  0
 28 30  2  0  0  0  0
 31 30  1  0  0  0  0
 31 32  1  0  0  0  0
 33 31  2  0  0  0  0
 34 33  1  0  0  0  0
 35 27  2  0  0  0  0
 35 33  1  0  0  0  0
M  END
>  <minimizedAffinity>
-3.81752324

>  <minimizedRMSD>
1.83147705

$$$$
