
 OpenBabel03252501113D

 20 21  0  0  0  0  0  0  0  0999 V2000
   47.3270   34.9760   41.9340 C   0  0  0  0  0  0  0  0  0  0  0  0
   48.4200   35.6310   41.9290 O   0  0  0  0  0  0  0  0  0  0  0  0
   44.6660   35.9920   44.2720 C   0  0  0  0  0  0  0  0  0  0  0  0
   45.5490   35.9570   43.1710 C   0  0  0  0  0  0  0  0  0  0  0  0
   46.4810   34.9060   43.0920 C   0  0  0  0  0  0  0  0  0  0  0  0
   46.4740   33.9790   44.0920 N   0  0  0  0  0  0  0  0  0  0  0  0
   45.6190   34.0490   45.1210 C   0  0  0  0  0  0  0  0  0  0  0  0
   44.7070   35.0550   45.2200 N   0  0  0  0  0  0  0  0  0  0  0  0
   43.9160   36.7630   44.4110 H   0  0  0  0  0  0  0  0  0  0  0  0
   45.4680   36.7540   42.4230 H   0  0  0  0  0  0  0  0  0  0  0  0
   45.7910   33.2150   45.7920 H   0  0  0  0  0  0  0  0  0  0  0  0
   47.0780   34.3310   40.6350 C   0  0  0  0  0  0  0  0  0  0  0  0
   48.0350   34.4040   39.6400 C   0  0  0  0  0  0  0  0  0  0  0  0
   48.9790   34.9360   39.8060 H   0  0  0  0  0  0  0  0  0  0  0  0
   47.8850   33.8270   38.3740 C   0  0  0  0  0  0  0  0  0  0  0  0
   46.6970   33.1380   38.1110 C   0  0  0  0  0  0  0  0  0  0  0  0
   46.6140   32.7050   37.1280 H   0  0  0  0  0  0  0  0  0  0  0  0
   45.7200   33.0510   39.0990 C   0  0  0  0  0  0  0  0  0  0  0  0
   44.8120   32.5090   38.8630 H   0  0  0  0  0  0  0  0  0  0  0  0
   45.9190   33.6390   40.3300 C   0  0  0  0  0  0  0  0  0  0  0  0
  1  5  1  0  0  0  0
  2  1  2  0  0  0  0
  3  9  1  0  0  0  0
  3  8  1  0  0  0  0
  4  3  2  0  0  0  0
  5  4  1  0  0  0  0
  5  6  2  0  0  0  0
  6  7  1  0  0  0  0
  7  8  2  0  0  0  0
  7 11  1  0  0  0  0
 10  4  1  0  0  0  0
 12  1  1  0  0  0  0
 13 14  1  0  0  0  0
 13 12  2  0  0  0  0
 15 13  1  0  0  0  0
 16 15  2  0  0  0  0
 16 18  1  0  0  0  0
 17 16  1  0  0  0  0
 18 20  2  0  0  0  0
 19 18  1  0  0  0  0
 20 12  1  0  0  0  0
M  END
>  <minimizedAffinity>
-4.55314398

>  <minimizedRMSD>
0.624195397

$$$$
