
 OpenBabel03252508513D

 28 30  0  0  0  0  0  0  0  0999 V2000
   45.7750   34.2470   41.0530 C   0  0  0  0  0  0  0  0  0  0  0  0
   46.4170   34.7730   42.1670 C   0  0  0  0  0  0  0  0  0  0  0  0
   47.7940   35.0010   42.0330 C   0  0  0  0  0  0  0  0  0  0  0  0
   48.4070   34.7030   40.8510 N   0  0  0  0  0  0  0  0  0  0  0  0
   47.7360   34.2020   39.8190 C   0  0  0  0  0  0  0  0  0  0  0  0
   46.4160   33.9690   39.9070 N   0  0  0  0  0  0  0  0  0  0  0  0
   48.3120   35.4100   42.8900 H   0  0  0  0  0  0  0  0  0  0  0  0
   48.2790   33.9860   38.9050 H   0  0  0  0  0  0  0  0  0  0  0  0
   45.6740   35.0540   43.3760 C   0  0  0  0  0  0  0  0  0  0  0  0
   45.1210   36.2930   43.6460 C   0  0  0  0  0  0  0  0  0  0  0  0
   44.5200   36.1100   44.8770 C   0  0  0  0  0  0  0  0  0  0  0  0
   44.6950   34.8520   45.3210 N   0  0  0  0  0  0  0  0  0  0  0  0
   45.3960   34.2310   44.3970 N   0  0  0  0  0  0  0  0  0  0  0  0
   45.1220   37.2180   43.0780 H   0  0  0  0  0  0  0  0  0  0  0  0
   43.9770   36.8780   45.4150 H   0  0  0  0  0  0  0  0  0  0  0  0
   44.3220   34.4940   46.2340 H   0  0  0  0  0  0  0  0  0  0  0  0
   44.4170   34.0070   41.1420 O   0  0  0  0  0  0  0  0  0  0  0  0
   43.3990   34.8180   40.7370 C   0  0  0  0  0  0  0  0  0  0  0  0
   43.1990   36.0420   41.0730 O   0  0  0  0  0  0  0  0  0  0  0  0
   42.3230   34.3750   39.8040 C   0  0  0  0  0  0  0  0  0  0  0  0
   41.1450   35.0990   39.6090 C   0  0  0  0  0  0  0  0  0  0  0  0
   41.0280   36.0280   40.1730 H   0  0  0  0  0  0  0  0  0  0  0  0
   40.1080   34.7650   38.7730 C   0  0  0  0  0  3  0  0  0  0  0  0
   40.2600   33.5940   38.0640 C   0  0  0  0  0  0  0  0  0  0  0  0
   39.4780   33.2740   37.3900 H   0  0  0  0  0  0  0  0  0  0  0  0
   41.3850   32.8120   38.1910 C   0  0  0  0  0  0  0  0  0  0  0  0
   41.4920   31.8960   37.6300 H   0  0  0  0  0  0  0  0  0  0  0  0
   42.3750   33.2270   39.0520 C   0  0  0  0  0  3  0  0  0  0  0  0
  1 17  1  0  0  0  0
  1  2  1  0  0  0  0
  2  9  1  0  0  0  0
  3  2  2  0  0  0  0
  3  7  1  0  0  0  0
  4  3  1  0  0  0  0
  5  6  1  0  0  0  0
  5  4  2  0  0  0  0
  6  1  2  0  0  0  0
  8  5  1  0  0  0  0
  9 10  1  0  0  0  0
  9 13  2  0  0  0  0
 10 11  2  0  0  0  0
 11 12  1  0  0  0  0
 11 15  1  0  0  0  0
 12 16  1  0  0  0  0
 13 12  1  0  0  0  0
 14 10  1  0  0  0  0
 18 19  2  0  0  0  0
 18 17  1  0  0  0  0
 20 18  1  0  0  0  0
 21 20  1  0  0  0  0
 21 22  1  0  0  0  0
 23 21  2  0  0  0  0
 24 26  2  0  0  0  0
 24 23  1  0  0  0  0
 25 24  1  0  0  0  0
 26 28  1  0  0  0  0
 27 26  1  0  0  0  0
 28 20  2  0  0  0  0
M  END
>  <minimizedAffinity>
-5.55117989

>  <minimizedRMSD>
1.04439652

$$$$
