
 OpenBabel03242522523D

 26 27  0  0  0  0  0  0  0  0999 V2000
   34.8630   29.2710   39.6260 O   0  0  0  0  0  0  0  0  0  0  0  0
   35.9800   29.5510   40.6650 P   0  0  2  0  0  0  0  0  0  0  0  0
   35.5450   31.0000   41.3970 O   0  0  0  0  0  0  0  0  0  0  0  0
   36.2590   31.2520   42.0370 H   0  0  0  0  0  0  0  0  0  0  0  0
   37.4290   29.7260   39.8180 O   0  0  0  0  0  0  0  0  0  0  0  0
   40.5250   31.1520   41.0880 C   0  0  0  0  0  0  0  0  0  0  0  0
   39.5410   30.2120   40.7020 C   0  0  0  0  0  0  0  0  0  0  0  0
   38.3580   30.6790   40.1800 C   0  0  0  0  0  0  0  0  0  0  0  0
   38.1940   32.0150   40.0600 N   0  0  0  0  0  0  0  0  0  0  0  0
   39.1230   32.9050   40.4240 C   0  0  0  0  0  0  0  0  0  0  0  0
   40.2960   32.4720   40.9410 N   0  0  0  0  0  0  0  0  0  0  0  0
   41.4820   30.8810   41.5070 H   0  0  0  0  0  0  0  0  0  0  0  0
   39.8750   29.2080   40.8780 H   0  0  0  0  0  0  0  0  0  0  0  0
   38.8050   33.9240   40.2510 H   0  0  0  0  0  0  0  0  0  0  0  0
   36.0440   28.2990   41.7470 O   0  0  0  0  0  0  0  0  0  0  0  0
   37.0330   27.7580   42.4810 C   0  0  0  0  0  0  0  0  0  0  0  0
   37.4200   28.5600   43.4590 O   0  0  0  0  0  0  0  0  0  0  0  0
   37.9360   26.5670   42.6700 C   0  0  0  0  0  0  0  0  0  0  0  0
   37.6000   25.3710   42.1590 C   0  0  0  0  0  0  0  0  0  0  0  0
   36.7410   25.1230   41.5940 H   0  0  0  0  0  0  0  0  0  0  0  0
   38.4750   24.2950   42.3850 C   0  0  0  0  0  3  0  0  0  0  0  0
   39.6340   24.4650   43.1030 C   0  0  0  0  0  0  0  0  0  0  0  0
   40.2560   23.5910   43.2350 H   0  0  0  0  0  0  0  0  0  0  0  0
   40.0290   25.6610   43.6470 C   0  0  0  0  0  0  0  0  0  0  0  0
   40.9220   25.8250   44.2100 H   0  0  0  0  0  0  0  0  0  0  0  0
   39.1410   26.6480   43.3900 C   0  0  0  0  0  3  0  0  0  0  0  0
  2  1  2  6  0  0  0
  2  3  1  0  0  0  0
  2 15  1  0  0  0  0
  3  4  1  0  0  0  0
  5  8  1  0  0  0  0
  5  2  1  0  0  0  0
  6 12  1  0  0  0  0
  7 13  1  0  0  0  0
  7  6  2  0  0  0  0
  8  7  1  0  0  0  0
  9  8  2  0  0  0  0
  9 10  1  0  0  0  0
 10 11  2  0  0  0  0
 11  6  1  0  0  0  0
 14 10  1  0  0  0  0
 15 16  1  0  0  0  0
 16 18  1  0  0  0  0
 16 17  2  0  0  0  0
 18 26  1  0  0  0  0
 19 21  1  0  0  0  0
 19 18  2  0  0  0  0
 20 19  1  0  0  0  0
 21 22  2  0  0  0  0
 22 23  1  0  0  0  0
 22 24  1  0  0  0  0
 24 25  1  0  0  0  0
 26 24  2  0  0  0  0
M  END
>  <minimizedAffinity>
-5.35675144

$$$$

 OpenBabel03242522523D

 26 27  0  0  0  0  0  0  0  0999 V2000
   38.2430   31.7380   38.8280 O   0  0  0  0  0  0  0  0  0  0  0  0
   37.6120   32.5570   39.9840 P   0  0  2  0  0  0  0  0  0  0  0  0
   36.9170   33.8960   39.2450 O   0  0  0  0  0  0  0  0  0  0  0  0
   36.5430   34.4830   39.9510 H   0  0  0  0  0  0  0  0  0  0  0  0
   38.8630   33.0310   41.0130 O   0  0  0  0  0  0  0  0  0  0  0  0
   42.3880   32.2530   40.5690 C   0  0  0  0  0  0  0  0  0  0  0  0
   41.0450   32.1850   41.0060 C   0  0  0  0  0  0  0  0  0  0  0  0
   40.1610   33.1380   40.5590 C   0  0  0  0  0  0  0  0  0  0  0  0
   40.6200   34.0940   39.7220 N   0  0  0  0  0  0  0  0  0  0  0  0
   41.8890   34.1600   39.3070 C   0  0  0  0  0  0  0  0  0  0  0  0
   42.7800   33.2350   39.7320 N   0  0  0  0  0  0  0  0  0  0  0  0
   43.1530   31.5510   40.8650 H   0  0  0  0  0  0  0  0  0  0  0  0
   40.8940   31.3490   41.6620 H   0  0  0  0  0  0  0  0  0  0  0  0
   42.0600   34.9960   38.6420 H   0  0  0  0  0  0  0  0  0  0  0  0
   36.4910   31.6220   40.7660 O   0  0  0  0  0  0  0  0  0  0  0  0
   36.4460   30.3240   41.1140 C   0  0  0  0  0  0  0  0  0  0  0  0
   35.4090   29.7030   40.5780 O   0  0  0  0  0  0  0  0  0  0  0  0
   37.1080   29.2210   41.8980 C   0  0  0  0  0  0  0  0  0  0  0  0
   36.4560   28.0720   42.1370 C   0  0  0  0  0  0  0  0  0  0  0  0
   35.4830   27.7980   41.8270 H   0  0  0  0  0  0  0  0  0  0  0  0
   37.1200   27.0880   42.8900 C   0  0  0  0  0  3  0  0  0  0  0  0
   38.3930   27.3000   43.3630 C   0  0  0  0  0  0  0  0  0  0  0  0
   38.8390   26.4970   43.9340 H   0  0  0  0  0  0  0  0  0  0  0  0
   39.1080   28.4510   43.1490 C   0  0  0  0  0  0  0  0  0  0  0  0
   40.0970   28.6460   43.5020 H   0  0  0  0  0  0  0  0  0  0  0  0
   38.4070   29.3490   42.4190 C   0  0  0  0  0  3  0  0  0  0  0  0
  2  1  2  6  0  0  0
  2 15  1  0  0  0  0
  2  5  1  0  0  0  0
  3  4  1  0  0  0  0
  3  2  1  0  0  0  0
  6 12  1  0  0  0  0
  6  7  1  0  0  0  0
  7 13  1  0  0  0  0
  8  7  2  0  0  0  0
  8  5  1  0  0  0  0
  9  8  1  0  0  0  0
 10  9  2  0  0  0  0
 10 11  1  0  0  0  0
 11  6  2  0  0  0  0
 14 10  1  0  0  0  0
 15 16  1  0  0  0  0
 16 18  1  0  0  0  0
 17 16  2  0  0  0  0
 18 19  2  0  0  0  0
 18 26  1  0  0  0  0
 19 21  1  0  0  0  0
 20 19  1  0  0  0  0
 21 22  2  0  0  0  0
 22 23  1  0  0  0  0
 24 22  1  0  0  0  0
 24 25  1  0  0  0  0
 26 24  2  0  0  0  0
M  END
>  <minimizedAffinity>
-5.15389585

$$$$

 OpenBabel03242522523D

 26 27  0  0  0  0  0  0  0  0999 V2000
   37.0280   29.4490   39.6940 O   0  0  0  0  0  0  0  0  0  0  0  0
   36.8950   29.9680   41.1500 P   0  0  2  0  0  0  0  0  0  0  0  0
   35.8540   31.2820   41.0540 O   0  0  0  0  0  0  0  0  0  0  0  0
   35.7760   31.6850   41.9570 H   0  0  0  0  0  0  0  0  0  0  0  0
   38.4280   30.4620   41.6550 O   0  0  0  0  0  0  0  0  0  0  0  0
   40.9910   32.8660   40.7190 C   0  0  0  0  0  0  0  0  0  0  0  0
   40.3650   31.6870   41.1860 C   0  0  0  0  0  0  0  0  0  0  0  0
   38.9920   31.6310   41.1910 C   0  0  0  0  0  0  0  0  0  0  0  0
   38.3060   32.7080   40.7490 N   0  0  0  0  0  0  0  0  0  0  0  0
   38.8940   33.8240   40.3080 C   0  0  0  0  0  0  0  0  0  0  0  0
   40.2450   33.9060   40.2920 N   0  0  0  0  0  0  0  0  0  0  0  0
   42.0600   33.0030   40.6770 H   0  0  0  0  0  0  0  0  0  0  0  0
   41.0930   30.9570   41.4850 H   0  0  0  0  0  0  0  0  0  0  0  0
   38.1770   34.5720   39.9980 H   0  0  0  0  0  0  0  0  0  0  0  0
   36.2900   28.7590   42.1060 O   0  0  0  0  0  0  0  0  0  0  0  0
   36.7030   27.5130   42.3980 C   0  0  0  0  0  0  0  0  0  0  0  0
   36.3250   27.1360   43.6080 O   0  0  0  0  0  0  0  0  0  0  0  0
   37.4550   26.3030   41.9080 C   0  0  0  0  0  0  0  0  0  0  0  0
   37.0040   25.0670   42.1790 C   0  0  0  0  0  0  0  0  0  0  0  0
   36.1320   24.7940   42.7110 H   0  0  0  0  0  0  0  0  0  0  0  0
   37.7600   23.9790   41.7100 C   0  0  0  0  0  3  0  0  0  0  0  0
   38.9200   24.1770   41.0010 C   0  0  0  0  0  0  0  0  0  0  0  0
   39.4470   23.2910   40.6730 H   0  0  0  0  0  0  0  0  0  0  0  0
   39.4280   25.4140   40.6940 C   0  0  0  0  0  0  0  0  0  0  0  0
   40.3250   25.6010   40.1450 H   0  0  0  0  0  0  0  0  0  0  0  0
   38.6500   26.4100   41.1750 C   0  0  0  0  0  3  0  0  0  0  0  0
  2  1  2  6  0  0  0
  2  5  1  0  0  0  0
  2 15  1  0  0  0  0
  3  2  1  0  0  0  0
  3  4  1  0  0  0  0
  6  7  1  0  0  0  0
  7  8  2  0  0  0  0
  7 13  1  0  0  0  0
  8  5  1  0  0  0  0
  9  8  1  0  0  0  0
 10  9  2  0  0  0  0
 11 10  1  0  0  0  0
 11  6  2  0  0  0  0
 12  6  1  0  0  0  0
 14 10  1  0  0  0  0
 15 16  1  0  0  0  0
 16 17  2  0  0  0  0
 18 19  1  0  0  0  0
 18 16  1  0  0  0  0
 19 20  1  0  0  0  0
 21 19  2  0  0  0  0
 22 21  1  0  0  0  0
 23 22  1  0  0  0  0
 24 22  2  0  0  0  0
 24 26  1  0  0  0  0
 25 24  1  0  0  0  0
 26 18  2  0  0  0  0
M  END
>  <minimizedAffinity>
-4.99743748

$$$$

 OpenBabel03242522523D

 26 27  0  0  0  0  0  0  0  0999 V2000
   37.0290   31.5070   38.3380 O   0  0  0  0  0  0  0  0  0  0  0  0
   37.2170   31.9050   39.8250 P   0  0  2  0  0  0  0  0  0  0  0  0
   36.7730   33.5230   39.9060 O   0  0  0  0  0  0  0  0  0  0  0  0
   36.9260   33.8420   40.8330 H   0  0  0  0  0  0  0  0  0  0  0  0
   38.8520   31.7190   40.1990 O   0  0  0  0  0  0  0  0  0  0  0  0
   39.9630   29.2310   42.6080 C   0  0  0  0  0  0  0  0  0  0  0  0
   39.4640   30.4340   42.0560 C   0  0  0  0  0  0  0  0  0  0  0  0
   39.3430   30.5270   40.6900 C   0  0  0  0  0  0  0  0  0  0  0  0
   39.7060   29.4630   39.9410 N   0  0  0  0  0  0  0  0  0  0  0  0
   40.1770   28.3250   40.4600 C   0  0  0  0  0  0  0  0  0  0  0  0
   40.3070   28.2060   41.8020 N   0  0  0  0  0  0  0  0  0  0  0  0
   40.0940   29.0640   43.6660 H   0  0  0  0  0  0  0  0  0  0  0  0
   39.2350   31.1460   42.8260 H   0  0  0  0  0  0  0  0  0  0  0  0
   40.4120   27.5930   39.6990 H   0  0  0  0  0  0  0  0  0  0  0  0
   36.2550   30.9440   40.7710 O   0  0  0  0  0  0  0  0  0  0  0  0
   35.9640   29.6310   40.7660 C   0  0  0  0  0  0  0  0  0  0  0  0
   34.8340   29.3770   40.1290 O   0  0  0  0  0  0  0  0  0  0  0  0
   36.4000   28.2570   41.2040 C   0  0  0  0  0  0  0  0  0  0  0  0
   36.5920   27.2840   40.2980 C   0  0  0  0  0  0  0  0  0  0  0  0
   36.4880   27.3430   39.2470 H   0  0  0  0  0  0  0  0  0  0  0  0
   36.9800   26.0190   40.7700 C   0  0  0  0  0  3  0  0  0  0  0  0
   37.1560   25.7900   42.1130 C   0  0  0  0  0  0  0  0  0  0  0  0
   37.4560   24.7910   42.4000 H   0  0  0  0  0  0  0  0  0  0  0  0
   36.9760   26.7430   43.0830 C   0  0  0  0  0  0  0  0  0  0  0  0
   37.1050   26.5970   44.1330 H   0  0  0  0  0  0  0  0  0  0  0  0
   36.6040   27.9320   42.5560 C   0  0  0  0  0  3  0  0  0  0  0  0
  2  1  2  6  0  0  0
  2  3  1  0  0  0  0
  2  5  1  0  0  0  0
  2 15  1  0  0  0  0
  3  4  1  0  0  0  0
  5  8  1  0  0  0  0
  6 12  1  0  0  0  0
  7  6  1  0  0  0  0
  7 13  1  0  0  0  0
  8  7  2  0  0  0  0
  9 10  2  0  0  0  0
  9  8  1  0  0  0  0
 10 11  1  0  0  0  0
 11  6  2  0  0  0  0
 14 10  1  0  0  0  0
 16 15  1  0  0  0  0
 16 18  1  0  0  0  0
 17 16  2  0  0  0  0
 18 26  1  0  0  0  0
 19 21  1  0  0  0  0
 19 18  2  0  0  0  0
 20 19  1  0  0  0  0
 21 22  2  0  0  0  0
 22 23  1  0  0  0  0
 22 24  1  0  0  0  0
 24 25  1  0  0  0  0
 26 24  2  0  0  0  0
M  END
>  <minimizedAffinity>
-4.93789101

$$$$

 OpenBabel03242522523D

 26 27  0  0  0  0  0  0  0  0999 V2000
   39.8120   30.0510   38.3700 O   0  0  0  0  0  0  0  0  0  0  0  0
   38.9190   31.3110   38.5190 P   0  0  2  0  0  0  0  0  0  0  0  0
   38.7160   31.8920   36.9570 O   0  0  0  0  0  0  0  0  0  0  0  0
   38.1920   32.7330   37.0030 H   0  0  0  0  0  0  0  0  0  0  0  0
   39.7670   32.4260   39.4610 O   0  0  0  0  0  0  0  0  0  0  0  0
   42.9700   34.1460   39.5620 C   0  0  0  0  0  0  0  0  0  0  0  0
   41.7540   33.5500   39.9720 C   0  0  0  0  0  0  0  0  0  0  0  0
   40.9410   32.9940   39.0140 C   0  0  0  0  0  0  0  0  0  0  0  0
   41.3440   33.0430   37.7250 N   0  0  0  0  0  0  0  0  0  0  0  0
   42.4930   33.6050   37.3350 C   0  0  0  0  0  0  0  0  0  0  0  0
   43.3120   34.1600   38.2580 N   0  0  0  0  0  0  0  0  0  0  0  0
   43.6720   34.6070   40.2400 H   0  0  0  0  0  0  0  0  0  0  0  0
   41.6310   33.6170   41.0360 H   0  0  0  0  0  0  0  0  0  0  0  0
   42.6360   33.5450   36.2650 H   0  0  0  0  0  0  0  0  0  0  0  0
   37.4810   30.8790   39.2180 O   0  0  0  0  0  0  0  0  0  0  0  0
   37.1390   30.4490   40.4460 C   0  0  0  0  0  0  0  0  0  0  0  0
   36.1850   31.1890   40.9820 O   0  0  0  0  0  0  0  0  0  0  0  0
   37.3980   29.4310   41.5260 C   0  0  0  0  0  0  0  0  0  0  0  0
   38.5020   29.5130   42.2870 C   0  0  0  0  0  0  0  0  0  0  0  0
   39.2670   30.2430   42.2480 H   0  0  0  0  0  0  0  0  0  0  0  0
   38.6960   28.5230   43.2650 C   0  0  0  0  0  3  0  0  0  0  0  0
   37.7850   27.5080   43.4340 C   0  0  0  0  0  0  0  0  0  0  0  0
   38.0030   26.7840   44.2070 H   0  0  0  0  0  0  0  0  0  0  0  0
   36.6410   27.3740   42.6890 C   0  0  0  0  0  0  0  0  0  0  0  0
   35.9150   26.5980   42.7950 H   0  0  0  0  0  0  0  0  0  0  0  0
   36.5220   28.3590   41.7700 C   0  0  0  0  0  3  0  0  0  0  0  0
  2  1  2  6  0  0  0
  2 15  1  0  0  0  0
  2  5  1  0  0  0  0
  3  4  1  0  0  0  0
  3  2  1  0  0  0  0
  6  7  1  0  0  0  0
  6 12  1  0  0  0  0
  7 13  1  0  0  0  0
  8  5  1  0  0  0  0
  8  7  2  0  0  0  0
  9  8  1  0  0  0  0
 10  9  2  0  0  0  0
 10 11  1  0  0  0  0
 11  6  2  0  0  0  0
 14 10  1  0  0  0  0
 15 16  1  0  0  0  0
 16 17  2  0  0  0  0
 16 18  1  0  0  0  0
 18 26  2  0  0  0  0
 18 19  1  0  0  0  0
 19 21  2  0  0  0  0
 20 19  1  0  0  0  0
 21 22  1  0  0  0  0
 22 23  1  0  0  0  0
 24 25  1  0  0  0  0
 24 22  2  0  0  0  0
 26 24  1  0  0  0  0
M  END
>  <minimizedAffinity>
-4.77659464

$$$$

 OpenBabel03242522523D

 26 27  0  0  0  0  0  0  0  0999 V2000
   37.2050   33.8820   39.5210 O   0  0  0  0  0  0  0  0  0  0  0  0
   38.0350   32.5720   39.5110 P   0  0  2  0  0  0  0  0  0  0  0  0
   39.4650   32.9650   38.7240 O   0  0  0  0  0  0  0  0  0  0  0  0
   40.0140   32.1420   38.6440 H   0  0  0  0  0  0  0  0  0  0  0  0
   37.1670   31.4260   38.6270 O   0  0  0  0  0  0  0  0  0  0  0  0
   35.3720   28.8490   40.4620 C   0  0  0  0  0  0  0  0  0  0  0  0
   35.7180   30.0990   39.8980 C   0  0  0  0  0  0  0  0  0  0  0  0
   36.8720   30.1870   39.1570 C   0  0  0  0  0  0  0  0  0  0  0  0
   37.6210   29.0730   39.0030 N   0  0  0  0  0  0  0  0  0  0  0  0
   37.2960   27.8900   39.5350 C   0  0  0  0  0  0  0  0  0  0  0  0
   36.1650   27.7760   40.2700 N   0  0  0  0  0  0  0  0  0  0  0  0
   34.4880   28.6830   41.0580 H   0  0  0  0  0  0  0  0  0  0  0  0
   34.9860   30.8470   40.1390 H   0  0  0  0  0  0  0  0  0  0  0  0
   38.0210   27.1220   39.3010 H   0  0  0  0  0  0  0  0  0  0  0  0
   38.2950   32.0800   41.0710 O   0  0  0  0  0  0  0  0  0  0  0  0
   39.0710   31.1320   41.6270 C   0  0  0  0  0  0  0  0  0  0  0  0
   40.3560   31.4330   41.5450 O   0  0  0  0  0  0  0  0  0  0  0  0
   39.1000   29.8040   42.3370 C   0  0  0  0  0  0  0  0  0  0  0  0
   40.2210   29.0640   42.3490 C   0  0  0  0  0  0  0  0  0  0  0  0
   41.1580   29.2940   41.9160 H   0  0  0  0  0  0  0  0  0  0  0  0
   40.1800   27.8250   43.0120 C   0  0  0  0  0  3  0  0  0  0  0  0
   39.0290   27.3900   43.6250 C   0  0  0  0  0  0  0  0  0  0  0  0
   39.0740   26.4270   44.1150 H   0  0  0  0  0  0  0  0  0  0  0  0
   37.8560   28.1020   43.6460 C   0  0  0  0  0  0  0  0  0  0  0  0
   36.9470   27.7920   44.1130 H   0  0  0  0  0  0  0  0  0  0  0  0
   37.9720   29.2790   42.9900 C   0  0  0  0  0  3  0  0  0  0  0  0
  2  1  2  1  0  0  0
  2 15  1  0  0  0  0
  3  2  1  0  0  0  0
  4  3  1  0  0  0  0
  5  8  1  0  0  0  0
  5  2  1  0  0  0  0
  6 12  1  0  0  0  0
  7 13  1  0  0  0  0
  7  6  2  0  0  0  0
  8  7  1  0  0  0  0
  9  8  2  0  0  0  0
  9 10  1  0  0  0  0
 10 11  2  0  0  0  0
 11  6  1  0  0  0  0
 14 10  1  0  0  0  0
 15 16  1  0  0  0  0
 16 18  1  0  0  0  0
 17 16  2  0  0  0  0
 18 19  2  0  0  0  0
 18 26  1  0  0  0  0
 19 21  1  0  0  0  0
 20 19  1  0  0  0  0
 21 22  2  0  0  0  0
 22 24  1  0  0  0  0
 22 23  1  0  0  0  0
 24 25  1  0  0  0  0
 26 24  2  0  0  0  0
M  END
>  <minimizedAffinity>
-4.72244167

$$$$

 OpenBabel03242522523D

 26 27  0  0  0  0  0  0  0  0999 V2000
   35.8980   28.6600   41.2480 O   0  0  0  0  0  0  0  0  0  0  0  0
   37.1730   29.3820   41.7590 P   0  0  2  0  0  0  0  0  0  0  0  0
   37.0270   29.3980   43.4320 O   0  0  0  0  0  0  0  0  0  0  0  0
   37.7970   29.8980   43.8080 H   0  0  0  0  0  0  0  0  0  0  0  0
   37.1470   30.9540   41.1460 O   0  0  0  0  0  0  0  0  0  0  0  0
   37.6200   31.4540   37.5750 C   0  0  0  0  0  0  0  0  0  0  0  0
   37.0200   31.1420   38.8180 C   0  0  0  0  0  0  0  0  0  0  0  0
   37.7740   31.2700   39.9600 C   0  0  0  0  0  0  0  0  0  0  0  0
   39.0530   31.6890   39.8400 N   0  0  0  0  0  0  0  0  0  0  0  0
   39.6220   31.9850   38.6660 C   0  0  0  0  0  0  0  0  0  0  0  0
   38.9030   31.8670   37.5260 N   0  0  0  0  0  0  0  0  0  0  0  0
   37.1090   31.3840   36.6270 H   0  0  0  0  0  0  0  0  0  0  0  0
   36.0010   30.8340   38.6870 H   0  0  0  0  0  0  0  0  0  0  0  0
   40.6510   32.3000   38.7770 H   0  0  0  0  0  0  0  0  0  0  0  0
   38.5110   28.5460   41.2560 O   0  0  0  0  0  0  0  0  0  0  0  0
   38.7010   27.3080   40.7660 C   0  0  0  0  0  0  0  0  0  0  0  0
   39.6360   27.2830   39.8320 O   0  0  0  0  0  0  0  0  0  0  0  0
   38.2760   25.8640   40.8310 C   0  0  0  0  0  0  0  0  0  0  0  0
   37.2150   25.4990   41.5690 C   0  0  0  0  0  0  0  0  0  0  0  0
   36.5790   26.1180   42.1440 H   0  0  0  0  0  0  0  0  0  0  0  0
   36.8800   24.1350   41.6030 C   0  0  0  0  0  3  0  0  0  0  0  0
   37.6160   23.2090   40.9040 C   0  0  0  0  0  0  0  0  0  0  0  0
   37.2970   22.1780   40.9790 H   0  0  0  0  0  0  0  0  0  0  0  0
   38.7080   23.5220   40.1330 C   0  0  0  0  0  0  0  0  0  0  0  0
   39.2990   22.8270   39.5790 H   0  0  0  0  0  0  0  0  0  0  0  0
   38.9690   24.8490   40.1480 C   0  0  0  0  0  3  0  0  0  0  0  0
  2  1  2  6  0  0  0
  2  3  1  0  0  0  0
  3  4  1  0  0  0  0
  5  2  1  0  0  0  0
  6  7  1  0  0  0  0
  7  8  2  0  0  0  0
  8  5  1  0  0  0  0
  9  8  1  0  0  0  0
 10 14  1  0  0  0  0
 10  9  2  0  0  0  0
 11  6  2  0  0  0  0
 11 10  1  0  0  0  0
 12  6  1  0  0  0  0
 13  7  1  0  0  0  0
 15  2  1  0  0  0  0
 16 18  1  0  0  0  0
 16 15  1  0  0  0  0
 17 16  2  0  0  0  0
 18 19  1  0  0  0  0
 19 21  2  0  0  0  0
 19 20  1  0  0  0  0
 22 23  1  0  0  0  0
 22 21  1  0  0  0  0
 24 26  1  0  0  0  0
 24 22  2  0  0  0  0
 25 24  1  0  0  0  0
 26 18  2  0  0  0  0
M  END
>  <minimizedAffinity>
-4.50219679

$$$$

 OpenBabel03242522523D

 26 27  0  0  0  0  0  0  0  0999 V2000
   38.2340   30.7700   41.3230 O   0  0  0  0  0  0  0  0  0  0  0  0
   36.9130   30.0390   40.9630 P   0  0  2  0  0  0  0  0  0  0  0  0
   35.6890   31.0890   41.4320 O   0  0  0  0  0  0  0  0  0  0  0  0
   34.8170   30.6440   41.2710 H   0  0  0  0  0  0  0  0  0  0  0  0
   36.8550   28.6170   41.8700 O   0  0  0  0  0  0  0  0  0  0  0  0
   39.4680   26.8440   43.6750 C   0  0  0  0  0  0  0  0  0  0  0  0
   38.3140   27.6140   43.4000 C   0  0  0  0  0  0  0  0  0  0  0  0
   37.9880   27.8610   42.0870 C   0  0  0  0  0  0  0  0  0  0  0  0
   38.7860   27.3530   41.1230 N   0  0  0  0  0  0  0  0  0  0  0  0
   39.8770   26.6240   41.3800 C   0  0  0  0  0  0  0  0  0  0  0  0
   40.2210   26.3670   42.6630 N   0  0  0  0  0  0  0  0  0  0  0  0
   39.8030   26.5980   44.6710 H   0  0  0  0  0  0  0  0  0  0  0  0
   37.8250   27.9140   44.3070 H   0  0  0  0  0  0  0  0  0  0  0  0
   40.3830   26.3100   40.4770 H   0  0  0  0  0  0  0  0  0  0  0  0
   36.8850   29.7350   39.3350 O   0  0  0  0  0  0  0  0  0  0  0  0
   37.7120   30.0440   38.3190 C   0  0  0  0  0  0  0  0  0  0  0  0
   37.0950   30.0050   37.1500 O   0  0  0  0  0  0  0  0  0  0  0  0
   39.1130   30.4310   37.9280 C   0  0  0  0  0  0  0  0  0  0  0  0
   39.4380   31.7230   37.7540 C   0  0  0  0  0  0  0  0  0  0  0  0
   38.8180   32.5720   37.8710 H   0  0  0  0  0  0  0  0  0  0  0  0
   40.7580   32.0190   37.3710 C   0  0  0  0  0  3  0  0  0  0  0  0
   41.6800   31.0190   37.1820 C   0  0  0  0  0  0  0  0  0  0  0  0
   42.6750   31.3240   36.8870 H   0  0  0  0  0  0  0  0  0  0  0  0
   41.4070   29.6840   37.3450 C   0  0  0  0  0  0  0  0  0  0  0  0
   42.1000   28.8840   37.2050 H   0  0  0  0  0  0  0  0  0  0  0  0
   40.1220   29.4760   37.7130 C   0  0  0  0  0  3  0  0  0  0  0  0
  2  1  2  1  0  0  0
  2  3  1  0  0  0  0
  2  5  1  0  0  0  0
  4  3  1  0  0  0  0
  5  8  1  0  0  0  0
  6 12  1  0  0  0  0
  7  6  1  0  0  0  0
  7 13  1  0  0  0  0
  8  7  2  0  0  0  0
  9 10  2  0  0  0  0
  9  8  1  0  0  0  0
 10 11  1  0  0  0  0
 11  6  2  0  0  0  0
 14 10  1  0  0  0  0
 15  2  1  0  0  0  0
 16 15  1  0  0  0  0
 17 16  2  0  0  0  0
 18 16  1  0  0  0  0
 19 20  1  0  0  0  0
 19 18  1  0  0  0  0
 21 19  2  0  0  0  0
 22 24  2  0  0  0  0
 22 21  1  0  0  0  0
 23 22  1  0  0  0  0
 24 26  1  0  0  0  0
 25 24  1  0  0  0  0
 26 18  2  0  0  0  0
M  END
>  <minimizedAffinity>
-4.4128356

$$$$

 OpenBabel03242522523D

 26 27  0  0  0  0  0  0  0  0999 V2000
   38.1040   28.6700   36.9910 O   0  0  0  0  0  0  0  0  0  0  0  0
   36.8920   29.6130   37.2090 P   0  0  2  0  0  0  0  0  0  0  0  0
   35.7870   29.1890   36.0170 O   0  0  0  0  0  0  0  0  0  0  0  0
   35.0100   29.8020   36.0800 H   0  0  0  0  0  0  0  0  0  0  0  0
   37.4320   31.1960   36.9800 O   0  0  0  0  0  0  0  0  0  0  0  0
   39.8020   32.6520   39.3230 C   0  0  0  0  0  0  0  0  0  0  0  0
   39.2640   31.8970   38.2540 C   0  0  0  0  0  0  0  0  0  0  0  0
   37.9090   31.9490   38.0320 C   0  0  0  0  0  0  0  0  0  0  0  0
   37.1550   32.7190   38.8470 N   0  0  0  0  0  0  0  0  0  0  0  0
   37.6610   33.4340   39.8570 C   0  0  0  0  0  0  0  0  0  0  0  0
   38.9920   33.4010   40.0990 N   0  0  0  0  0  0  0  0  0  0  0  0
   40.8510   32.6750   39.5750 H   0  0  0  0  0  0  0  0  0  0  0  0
   40.0350   31.3610   37.7340 H   0  0  0  0  0  0  0  0  0  0  0  0
   36.8990   33.9840   40.3930 H   0  0  0  0  0  0  0  0  0  0  0  0
   36.2880   29.3820   38.7330 O   0  0  0  0  0  0  0  0  0  0  0  0
   36.7830   28.8230   39.8520 C   0  0  0  0  0  0  0  0  0  0  0  0
   37.5480   29.6630   40.5280 O   0  0  0  0  0  0  0  0  0  0  0  0
   36.8430   27.5820   40.7030 C   0  0  0  0  0  0  0  0  0  0  0  0
   36.8390   27.6750   42.0430 C   0  0  0  0  0  0  0  0  0  0  0  0
   36.7840   28.5500   42.6340 H   0  0  0  0  0  0  0  0  0  0  0  0
   36.9150   26.4820   42.7820 C   0  0  0  0  0  3  0  0  0  0  0  0
   36.9910   25.2640   42.1500 C   0  0  0  0  0  0  0  0  0  0  0  0
   37.0470   24.3900   42.7860 H   0  0  0  0  0  0  0  0  0  0  0  0
   36.9980   25.1070   40.7870 C   0  0  0  0  0  0  0  0  0  0  0  0
   37.0560   24.1760   40.2680 H   0  0  0  0  0  0  0  0  0  0  0  0
   36.9230   26.2940   40.1450 C   0  0  0  0  0  3  0  0  0  0  0  0
  2  1  2  6  0  0  0
  2 15  1  0  0  0  0
  3  4  1  0  0  0  0
  3  2  1  0  0  0  0
  5  2  1  0  0  0  0
  5  8  1  0  0  0  0
  6 12  1  0  0  0  0
  6 11  1  0  0  0  0
  7  6  2  0  0  0  0
  8  7  1  0  0  0  0
  8  9  2  0  0  0  0
  9 10  1  0  0  0  0
 10 11  2  0  0  0  0
 10 14  1  0  0  0  0
 13  7  1  0  0  0  0
 15 16  1  0  0  0  0
 16 17  2  0  0  0  0
 16 18  1  0  0  0  0
 18 19  1  0  0  0  0
 19 20  1  0  0  0  0
 19 21  2  0  0  0  0
 22 21  1  0  0  0  0
 22 23  1  0  0  0  0
 24 22  2  0  0  0  0
 25 24  1  0  0  0  0
 26 18  2  0  0  0  0
 26 24  1  0  0  0  0
M  END
>  <minimizedAffinity>
-4.35604429

$$$$
