
 OpenBabel03252508513D

 28 30  0  0  0  0  0  0  0  0999 V2000
   45.9000   34.2040   41.0410 C   0  0  0  0  0  0  0  0  0  0  0  0
   46.5000   34.7950   42.1470 C   0  0  0  0  0  0  0  0  0  0  0  0
   47.8580   35.1160   42.0110 C   0  0  0  0  0  0  0  0  0  0  0  0
   48.4950   34.8380   40.8370 N   0  0  0  0  0  0  0  0  0  0  0  0
   47.8640   34.2710   39.8130 C   0  0  0  0  0  0  0  0  0  0  0  0
   46.5640   33.9480   39.9030 N   0  0  0  0  0  0  0  0  0  0  0  0
   48.3430   35.5760   42.8620 H   0  0  0  0  0  0  0  0  0  0  0  0
   48.4250   34.0760   38.9050 H   0  0  0  0  0  0  0  0  0  0  0  0
   45.7330   35.0480   43.3480 C   0  0  0  0  0  0  0  0  0  0  0  0
   45.0940   36.2500   43.5900 C   0  0  0  0  0  0  0  0  0  0  0  0
   44.5020   36.0500   44.8230 C   0  0  0  0  0  0  0  0  0  0  0  0
   44.7640   34.8160   45.2940 N   0  0  0  0  0  0  0  0  0  0  0  0
   45.5110   34.2270   44.3840 N   0  0  0  0  0  0  0  0  0  0  0  0
   45.0320   37.1610   43.0040 H   0  0  0  0  0  0  0  0  0  0  0  0
   43.9040   36.7880   45.3440 H   0  0  0  0  0  0  0  0  0  0  0  0
   44.4130   34.4520   46.2130 H   0  0  0  0  0  0  0  0  0  0  0  0
   44.5610   33.8720   41.1320 O   0  0  0  0  0  0  0  0  0  0  0  0
   43.4940   34.5770   40.6600 C   0  0  0  0  0  0  0  0  0  0  0  0
   43.3040   35.8450   40.7420 O   0  0  0  0  0  0  0  0  0  0  0  0
   42.3440   33.9440   39.9520 C   0  0  0  0  0  0  0  0  0  0  0  0
   41.7570   32.7510   40.3800 C   0  0  0  0  0  0  0  0  0  0  0  0
   42.1740   32.2790   41.2740 H   0  0  0  0  0  0  0  0  0  0  0  0
   40.7010   32.1010   39.7890 C   0  0  0  0  0  3  0  0  0  0  0  0
   40.1800   32.6990   38.6640 C   0  0  0  0  0  0  0  0  0  0  0  0
   39.3470   32.2380   38.1530 H   0  0  0  0  0  0  0  0  0  0  0  0
   40.6920   33.8770   38.1680 C   0  0  0  0  0  0  0  0  0  0  0  0
   40.2740   34.3350   37.2850 H   0  0  0  0  0  0  0  0  0  0  0  0
   41.7510   34.4580   38.8250 C   0  0  0  0  0  3  0  0  0  0  0  0
  1 17  1  0  0  0  0
  1  2  1  0  0  0  0
  2  9  1  0  0  0  0
  3  2  2  0  0  0  0
  3  7  1  0  0  0  0
  4  3  1  0  0  0  0
  5  6  1  0  0  0  0
  5  4  2  0  0  0  0
  6  1  2  0  0  0  0
  8  5  1  0  0  0  0
  9 10  1  0  0  0  0
  9 13  2  0  0  0  0
 10 11  2  0  0  0  0
 11 12  1  0  0  0  0
 11 15  1  0  0  0  0
 12 16  1  0  0  0  0
 13 12  1  0  0  0  0
 14 10  1  0  0  0  0
 18 19  2  0  0  0  0
 18 17  1  0  0  0  0
 20 21  1  0  0  0  0
 20 18  1  0  0  0  0
 21 22  1  0  0  0  0
 23 21  2  0  0  0  0
 24 23  1  0  0  0  0
 25 24  1  0  0  0  0
 26 24  2  0  0  0  0
 26 28  1  0  0  0  0
 27 26  1  0  0  0  0
 28 20  2  0  0  0  0
M  END
>  <minimizedAffinity>
-5.30971289

>  <minimizedRMSD>
0.715731561

$$$$
