
 OpenBabel03252508003D

 29 31  0  0  1  0  0  0  0  0999 V2000
   46.5870   34.6850   43.1310 C   0  0  0  0  0  0  0  0  0  0  0  0
   45.5520   35.6380   43.3390 C   0  0  0  0  0  0  0  0  0  0  0  0
   44.7570   35.4700   44.4790 C   0  0  0  0  0  0  0  0  0  0  0  0
   45.0230   34.4200   45.3020 N   0  0  0  0  0  0  0  0  0  0  0  0
   46.0280   33.5360   45.0500 C   0  0  0  0  0  0  0  0  0  0  0  0
   46.7960   33.6590   43.9920 N   0  0  0  0  0  0  0  0  0  0  0  0
   45.2970   36.4910   42.7260 H   0  0  0  0  0  0  0  0  0  0  0  0
   43.9350   36.1370   44.7450 H   0  0  0  0  0  0  0  0  0  0  0  0
   46.2560   32.4210   46.0220 C   0  0  1  0  0  0  0  0  0  0  0  0
   47.0020   32.7220   47.3060 C   0  0  0  0  0  0  0  0  0  0  0  0
   45.5150   32.5490   47.2930 C   0  0  1  0  0  0  0  0  0  0  0  0
   46.3770   31.4090   45.5960 H   0  0  0  0  0  0  0  0  0  0  0  0
   47.4650   33.7150   47.3880 H   0  0  0  0  0  0  0  0  0  0  0  0
   47.5850   31.8620   47.7060 H   0  0  0  0  0  0  0  0  0  0  0  0
   45.1000   31.6800   47.8240 H   0  0  0  0  0  0  0  0  0  0  0  0
   44.7820   33.7920   47.5810 N   0  0  0  0  0  0  0  0  0  0  0  0
   45.2300   34.3120   48.3790 H   0  0  0  0  0  0  0  0  0  0  0  0
   43.7890   33.5800   47.7880 H   0  0  0  0  0  0  0  0  0  0  0  0
   47.3820   34.9190   41.9710 C   0  0  1  0  0  0  0  0  0  0  0  0
   48.4070   35.6990   41.9490 O   0  0  0  0  0  0  0  0  0  0  0  0
   47.2570   34.3720   40.5980 C   0  0  0  0  0  0  0  0  0  0  0  0
   48.2690   34.6720   39.6600 C   0  0  0  0  0  0  0  0  0  0  0  0
   49.1520   35.2820   39.8990 H   0  0  0  0  0  0  0  0  0  0  0  0
   48.1530   34.1630   38.3600 C   0  0  0  0  0  0  0  0  0  0  0  0
   47.0660   33.3700   37.9530 C   0  0  0  0  0  0  0  0  0  0  0  0
   47.0770   33.0370   36.9190 H   0  0  0  0  0  0  0  0  0  0  0  0
   46.1230   33.1150   38.8890 C   0  0  0  0  0  0  0  0  0  0  0  0
   45.2820   32.5020   38.5730 H   0  0  0  0  0  0  0  0  0  0  0  0
   46.2070   33.5910   40.1530 C   0  0  0  0  0  0  0  0  0  0  0  0
  1  2  2  0  0  0  0
  1  6  1  0  0  0  0
  2  3  1  0  0  0  0
  3  8  1  0  0  0  0
  3  4  2  0  0  0  0
  5  4  1  0  0  0  0
  5  9  1  0  0  0  0
  6  5  2  0  0  0  0
  7  2  1  0  0  0  0
  9 12  1  6  0  0  0
  9 11  1  0  0  0  0
  9 10  1  0  0  0  0
 10 13  1  0  0  0  0
 10 14  1  0  0  0  0
 11 10  1  0  0  0  0
 11 16  1  0  0  0  0
 11 15  1  1  0  0  0
 16 18  1  0  0  0  0
 16 17  1  0  0  0  0
 19 20  1  1  0  0  0
 19  1  1  0  0  0  0
 21 19  1  0  0  0  0
 22 23  1  0  0  0  0
 22 21  2  0  0  0  0
 24 22  1  0  0  0  0
 25 24  2  0  0  0  0
 25 27  1  0  0  0  0
 26 25  1  0  0  0  0
 27 29  2  0  0  0  0
 28 27  1  0  0  0  0
 29 21  1  0  0  0  0
M  END
>  <minimizedAffinity>
-5.97816324

>  <minimizedRMSD>
0.857370794

$$$$
