
 OpenBabel03252503103D

 27 29  0  0  1  0  0  0  0  0999 V2000
   36.1010   28.7260   38.1300 C   0  0  0  0  0  0  0  0  0  0  0  0
   36.6370   29.8030   38.8680 C   0  0  0  0  0  0  0  0  0  0  0  0
   37.2140   30.8200   38.1590 C   0  0  0  0  0  0  0  0  0  0  0  0
   37.2770   30.8110   36.8080 N   0  0  0  0  0  0  0  0  0  0  0  0
   36.7420   29.7440   36.1140 C   0  0  0  0  0  0  0  0  0  0  0  0
   36.1660   28.7210   36.7640 N   0  0  0  0  0  0  0  0  0  0  0  0
   35.6160   27.8700   38.5490 H   0  0  0  0  0  0  0  0  0  0  0  0
   36.8250   29.7880   35.0450 H   0  0  0  0  0  0  0  0  0  0  0  0
   37.7640   31.8920   38.8440 C   0  0  0  0  0  0  0  0  0  0  0  0
   37.2510   33.0680   39.3220 C   0  0  0  0  0  0  0  0  0  0  0  0
   37.9860   33.9690   39.9600 C   0  0  0  0  0  0  0  0  0  0  0  0
   39.3500   33.6590   40.1330 C   0  0  0  0  0  0  0  0  0  0  0  0
   39.5080   31.9780   39.3130 S   0  0  0  0  0  0  0  0  0  0  0  0
   36.3340   33.5210   39.3410 H   0  0  0  0  0  0  0  0  0  0  0  0
   37.9880   34.9160   40.4460 H   0  0  0  0  0  0  0  0  0  0  0  0
   40.3150   33.9660   40.5260 H   0  0  0  0  0  0  0  0  0  0  0  0
   36.4670   29.7310   40.2640 C   0  0  2  0  0  3  0  0  0  0  0  0
   35.4130   30.3280   40.7490 O   0  0  0  0  0  1  0  0  0  0  0  0
   37.1390   29.1870   41.4470 C   0  0  0  0  0  0  0  0  0  0  0  0
   36.3900   28.1090   41.9180 C   0  0  0  0  0  0  0  0  0  0  0  0
   35.4630   27.7020   41.5150 H   0  0  0  0  0  0  0  0  0  0  0  0
   36.7570   27.3540   43.0420 C   0  0  0  0  0  3  0  0  0  0  0  0
   37.9490   27.7970   43.6390 C   0  0  0  0  0  0  0  0  0  0  0  0
   38.3250   27.2920   44.5220 H   0  0  0  0  0  0  0  0  0  0  0  0
   38.6830   28.8460   43.1860 C   0  0  0  0  0  0  0  0  0  0  0  0
   39.6060   29.2390   43.5950 H   0  0  0  0  0  0  0  0  0  0  0  0
   38.2890   29.5750   42.0630 C   0  0  0  0  0  3  0  0  0  0  0  0
  1  7  1  0  0  0  0
  1  2  1  0  0  0  0
  2 17  1  0  0  0  0
  3  9  1  0  0  0  0
  3  2  2  0  0  0  0
  4  3  1  0  0  0  0
  5  6  1  0  0  0  0
  5  4  2  0  0  0  0
  6  1  2  0  0  0  0
  8  5  1  0  0  0  0
  9 13  1  0  0  0  0
  9 10  2  0  0  0  0
 10 14  1  0  0  0  0
 10 11  1  0  0  0  0
 11 12  2  0  0  0  0
 11 15  1  0  0  0  0
 12 16  1  0  0  0  0
 13 12  1  0  0  0  0
 17 18  1  1  0  0  0
 17 19  1  0  0  0  0
 19 20  2  0  0  0  0
 19 27  1  0  0  0  0
 20 22  1  0  0  0  0
 21 20  1  0  0  0  0
 22 23  2  0  0  0  0
 23 24  1  0  0  0  0
 25 26  1  0  0  0  0
 25 23  1  0  0  0  0
 27 25  2  0  0  0  0
M  END
>  <minimizedAffinity>
-5.31288099

$$$$

 OpenBabel03252503103D

 27 29  0  0  1  0  0  0  0  0999 V2000
   35.5040   26.9420   38.0890 C   0  0  0  0  0  0  0  0  0  0  0  0
   35.9900   27.5380   39.2720 C   0  0  0  0  0  0  0  0  0  0  0  0
   36.6460   26.7250   40.1560 C   0  0  0  0  0  0  0  0  0  0  0  0
   36.8310   25.4070   39.9220 N   0  0  0  0  0  0  0  0  0  0  0  0
   36.3450   24.8530   38.7530 C   0  0  0  0  0  0  0  0  0  0  0  0
   35.6940   25.6080   37.8550 N   0  0  0  0  0  0  0  0  0  0  0  0
   34.9820   27.4540   37.3080 H   0  0  0  0  0  0  0  0  0  0  0  0
   36.5160   23.8020   38.6240 H   0  0  0  0  0  0  0  0  0  0  0  0
   37.1290   27.2660   41.3370 C   0  0  0  0  0  0  0  0  0  0  0  0
   36.5990   27.4190   42.5900 C   0  0  0  0  0  0  0  0  0  0  0  0
   37.2630   27.9840   43.5900 C   0  0  0  0  0  0  0  0  0  0  0  0
   38.5700   28.4300   43.3050 C   0  0  0  0  0  0  0  0  0  0  0  0
   38.7820   27.9820   41.4950 S   0  0  0  0  0  0  0  0  0  0  0  0
   35.7170   27.1880   43.0540 H   0  0  0  0  0  0  0  0  0  0  0  0
   37.2320   28.2710   44.6140 H   0  0  0  0  0  0  0  0  0  0  0  0
   39.4750   28.9030   43.6730 H   0  0  0  0  0  0  0  0  0  0  0  0
   35.7880   28.9260   39.3840 C   0  0  2  0  0  3  0  0  0  0  0  0
   34.6520   29.3050   39.9000 O   0  0  0  0  0  1  0  0  0  0  0  0
   36.4700   30.1860   39.0720 C   0  0  0  0  0  0  0  0  0  0  0  0
   36.5730   30.9290   40.2480 C   0  0  0  0  0  0  0  0  0  0  0  0
   36.2250   30.6670   41.2470 H   0  0  0  0  0  0  0  0  0  0  0  0
   37.1800   32.1920   40.3050 C   0  0  0  0  0  3  0  0  0  0  0  0
   37.6700   32.6250   39.0610 C   0  0  0  0  0  0  0  0  0  0  0  0
   38.1530   33.5940   38.9840 H   0  0  0  0  0  0  0  0  0  0  0  0
   37.5730   31.9080   37.9130 C   0  0  0  0  0  0  0  0  0  0  0  0
   37.9260   32.1780   36.9260 H   0  0  0  0  0  0  0  0  0  0  0  0
   36.9620   30.6520   37.8930 C   0  0  0  0  0  3  0  0  0  0  0  0
  1  2  1  0  0  0  0
  2 17  1  0  0  0  0
  2  3  2  0  0  0  0
  3  9  1  0  0  0  0
  4  3  1  0  0  0  0
  5  4  2  0  0  0  0
  6  1  2  0  0  0  0
  6  5  1  0  0  0  0
  7  1  1  0  0  0  0
  8  5  1  0  0  0  0
  9 13  1  0  0  0  0
  9 10  2  0  0  0  0
 10 14  1  0  0  0  0
 10 11  1  0  0  0  0
 11 15  1  0  0  0  0
 12 11  2  0  0  0  0
 12 16  1  0  0  0  0
 13 12  1  0  0  0  0
 17 18  1  6  0  0  0
 19 17  1  0  0  0  0
 19 20  1  0  0  0  0
 20 22  2  0  0  0  0
 20 21  1  0  0  0  0
 23 22  1  0  0  0  0
 24 23  1  0  0  0  0
 25 23  2  0  0  0  0
 26 25  1  0  0  0  0
 27 25  1  0  0  0  0
 27 19  2  0  0  0  0
M  END
>  <minimizedAffinity>
-5.13630199

$$$$

 OpenBabel03252503103D

 27 29  0  0  1  0  0  0  0  0999 V2000
   39.8460   26.9100   43.3890 C   0  0  0  0  0  0  0  0  0  0  0  0
   38.8600   27.5660   42.6220 C   0  0  0  0  0  0  0  0  0  0  0  0
   39.1750   28.8010   42.1250 C   0  0  0  0  0  0  0  0  0  0  0  0
   40.3750   29.3820   42.3490 N   0  0  0  0  0  0  0  0  0  0  0  0
   41.3200   28.7140   43.1020 C   0  0  0  0  0  0  0  0  0  0  0  0
   41.0590   27.5010   43.6130 N   0  0  0  0  0  0  0  0  0  0  0  0
   39.7410   25.9410   43.8330 H   0  0  0  0  0  0  0  0  0  0  0  0
   42.2520   29.2260   43.2510 H   0  0  0  0  0  0  0  0  0  0  0  0
   38.2320   29.4860   41.3760 C   0  0  0  0  0  0  0  0  0  0  0  0
   37.0450   30.0960   41.6840 C   0  0  0  0  0  0  0  0  0  0  0  0
   36.2900   30.7030   40.7780 C   0  0  0  0  0  0  0  0  0  0  0  0
   36.7710   30.6970   39.4520 C   0  0  0  0  0  0  0  0  0  0  0  0
   38.3880   29.7550   39.5950 S   0  0  0  0  0  0  0  0  0  0  0  0
   36.4910   30.2510   42.5290 H   0  0  0  0  0  0  0  0  0  0  0  0
   35.3920   31.2470   40.6050 H   0  0  0  0  0  0  0  0  0  0  0  0
   36.6100   30.9950   38.4210 H   0  0  0  0  0  0  0  0  0  0  0  0
   37.6710   26.8430   42.4100 C   0  0  2  0  0  3  0  0  0  0  0  0
   36.7020   27.0630   43.2550 O   0  0  0  0  0  1  0  0  0  0  0  0
   37.1210   25.8350   41.5000 C   0  0  0  0  0  0  0  0  0  0  0  0
   36.8420   26.4520   40.2800 C   0  0  0  0  0  0  0  0  0  0  0  0
   36.9870   27.4960   40.0020 H   0  0  0  0  0  0  0  0  0  0  0  0
   36.3060   25.7680   39.1800 C   0  0  0  0  0  3  0  0  0  0  0  0
   36.0820   24.4040   39.4340 C   0  0  0  0  0  0  0  0  0  0  0  0
   35.6610   23.7770   38.6560 H   0  0  0  0  0  0  0  0  0  0  0  0
   36.3500   23.7970   40.6180 C   0  0  0  0  0  0  0  0  0  0  0  0
   36.2040   22.7560   40.8810 H   0  0  0  0  0  0  0  0  0  0  0  0
   36.8850   24.5090   41.6930 C   0  0  0  0  0  3  0  0  0  0  0  0
  1  6  1  0  0  0  0
  1  7  1  0  0  0  0
  2  1  2  0  0  0  0
  3  4  2  0  0  0  0
  3  2  1  0  0  0  0
  4  5  1  0  0  0  0
  5  8  1  0  0  0  0
  5  6  2  0  0  0  0
  9 10  2  0  0  0  0
  9  3  1  0  0  0  0
 10 14  1  0  0  0  0
 11 10  1  0  0  0  0
 12 13  1  0  0  0  0
 12 11  2  0  0  0  0
 13  9  1  0  0  0  0
 15 11  1  0  0  0  0
 16 12  1  0  0  0  0
 17  2  1  0  0  0  0
 17 18  1  1  0  0  0
 19 27  1  0  0  0  0
 19 17  1  0  0  0  0
 20 19  2  0  0  0  0
 21 20  1  0  0  0  0
 22 23  2  0  0  0  0
 22 20  1  0  0  0  0
 23 25  1  0  0  0  0
 24 23  1  0  0  0  0
 25 26  1  0  0  0  0
 25 27  2  0  0  0  0
M  END
>  <minimizedAffinity>
-4.97794867

$$$$

 OpenBabel03252503103D

 27 29  0  0  1  0  0  0  0  0999 V2000
   39.7830   32.0410   40.6510 C   0  0  0  0  0  0  0  0  0  0  0  0
   38.8830   31.0170   41.0140 C   0  0  0  0  0  0  0  0  0  0  0  0
   39.3480   30.0470   41.8590 C   0  0  0  0  0  0  0  0  0  0  0  0
   40.6130   30.0540   42.3360 N   0  0  0  0  0  0  0  0  0  0  0  0
   41.4710   31.0700   41.9630 C   0  0  0  0  0  0  0  0  0  0  0  0
   41.0620   32.0440   41.1360 N   0  0  0  0  0  0  0  0  0  0  0  0
   39.5560   32.8640   40.0070 H   0  0  0  0  0  0  0  0  0  0  0  0
   42.4630   31.0210   42.3680 H   0  0  0  0  0  0  0  0  0  0  0  0
   38.5010   29.0160   42.2330 C   0  0  0  0  0  0  0  0  0  0  0  0
   37.6010   28.8580   43.2530 C   0  0  0  0  0  0  0  0  0  0  0  0
   36.8860   27.7530   43.4190 C   0  0  0  0  0  0  0  0  0  0  0  0
   37.0920   26.7230   42.4790 C   0  0  0  0  0  0  0  0  0  0  0  0
   38.3900   27.4510   41.3340 S   0  0  0  0  0  0  0  0  0  0  0  0
   37.2630   29.4230   44.0350 H   0  0  0  0  0  0  0  0  0  0  0  0
   36.1510   27.2630   44.0130 H   0  0  0  0  0  0  0  0  0  0  0  0
   36.8290   25.7240   42.1450 H   0  0  0  0  0  0  0  0  0  0  0  0
   37.5780   31.1420   40.5020 C   0  0  2  0  0  3  0  0  0  0  0  0
   37.0000   32.3000   40.6660 O   0  0  0  0  0  1  0  0  0  0  0  0
   36.5640   30.3390   39.8110 C   0  0  0  0  0  0  0  0  0  0  0  0
   36.8990   30.2830   38.4580 C   0  0  0  0  0  0  0  0  0  0  0  0
   37.7510   30.7380   37.9530 H   0  0  0  0  0  0  0  0  0  0  0  0
   36.1380   29.5860   37.5090 C   0  0  0  0  0  3  0  0  0  0  0  0
   35.0100   28.9550   38.0610 C   0  0  0  0  0  0  0  0  0  0  0  0
   34.3420   28.3930   37.4180 H   0  0  0  0  0  0  0  0  0  0  0  0
   34.6780   29.0060   39.3770 C   0  0  0  0  0  0  0  0  0  0  0  0
   33.8290   28.5460   39.8680 H   0  0  0  0  0  0  0  0  0  0  0  0
   35.4600   29.7080   40.2950 C   0  0  0  0  0  3  0  0  0  0  0  0
  1  2  2  0  0  0  0
  1  6  1  0  0  0  0
  2  3  1  0  0  0  0
  3  9  1  0  0  0  0
  3  4  2  0  0  0  0
  5  4  1  0  0  0  0
  5  8  1  0  0  0  0
  6  5  2  0  0  0  0
  7  1  1  0  0  0  0
  9 10  2  0  0  0  0
 10 11  1  0  0  0  0
 10 14  1  0  0  0  0
 11 15  1  0  0  0  0
 12 11  2  0  0  0  0
 13  9  1  0  0  0  0
 13 12  1  0  0  0  0
 16 12  1  0  0  0  0
 17 18  1  1  0  0  0
 17  2  1  0  0  0  0
 19 27  1  0  0  0  0
 19 17  1  0  0  0  0
 20 19  2  0  0  0  0
 21 20  1  0  0  0  0
 22 23  2  0  0  0  0
 22 20  1  0  0  0  0
 23 25  1  0  0  0  0
 24 23  1  0  0  0  0
 25 26  1  0  0  0  0
 25 27  2  0  0  0  0
M  END
>  <minimizedAffinity>
-4.97773123

$$$$

 OpenBabel03252503103D

 27 29  0  0  1  0  0  0  0  0999 V2000
   35.7530   29.5900   38.3640 C   0  0  0  0  0  0  0  0  0  0  0  0
   36.3240   29.4230   39.6430 C   0  0  0  0  0  0  0  0  0  0  0  0
   36.6000   28.1440   40.0420 C   0  0  0  0  0  0  0  0  0  0  0  0
   36.3460   27.0740   39.2550 N   0  0  0  0  0  0  0  0  0  0  0  0
   35.7880   27.2700   38.0070 C   0  0  0  0  0  0  0  0  0  0  0  0
   35.4980   28.5050   37.5710 N   0  0  0  0  0  0  0  0  0  0  0  0
   35.4930   30.5280   37.9210 H   0  0  0  0  0  0  0  0  0  0  0  0
   35.6040   26.3840   37.4290 H   0  0  0  0  0  0  0  0  0  0  0  0
   37.1500   27.9330   41.2960 C   0  0  0  0  0  0  0  0  0  0  0  0
   36.6180   27.8200   42.5520 C   0  0  0  0  0  0  0  0  0  0  0  0
   37.3580   27.6180   43.6340 C   0  0  0  0  0  0  0  0  0  0  0  0
   38.7500   27.5170   43.4340 C   0  0  0  0  0  0  0  0  0  0  0  0
   38.9250   27.7360   41.5780 S   0  0  0  0  0  0  0  0  0  0  0  0
   35.6810   27.8430   42.9630 H   0  0  0  0  0  0  0  0  0  0  0  0
   37.3520   27.4820   44.6900 H   0  0  0  0  0  0  0  0  0  0  0  0
   39.7290   27.3710   43.8800 H   0  0  0  0  0  0  0  0  0  0  0  0
   36.5950   30.6100   40.3510 C   0  0  2  0  0  3  0  0  0  0  0  0
   35.8020   30.8800   41.3500 O   0  0  0  0  0  1  0  0  0  0  0  0
   37.5280   31.7400   40.3260 C   0  0  0  0  0  0  0  0  0  0  0  0
   38.6980   31.3540   40.9790 C   0  0  0  0  0  0  0  0  0  0  0  0
   38.9300   30.3950   41.4430 H   0  0  0  0  0  0  0  0  0  0  0  0
   39.8060   32.2010   41.1310 C   0  0  0  0  0  3  0  0  0  0  0  0
   39.6110   33.4700   40.5610 C   0  0  0  0  0  0  0  0  0  0  0  0
   40.3990   34.2130   40.6270 H   0  0  0  0  0  0  0  0  0  0  0  0
   38.4750   33.8530   39.9250 C   0  0  0  0  0  0  0  0  0  0  0  0
   38.2580   34.8090   39.4650 H   0  0  0  0  0  0  0  0  0  0  0  0
   37.3920   32.9830   39.7910 C   0  0  0  0  0  3  0  0  0  0  0  0
  1  2  1  0  0  0  0
  2  3  2  0  0  0  0
  2 17  1  0  0  0  0
  3  9  1  0  0  0  0
  4  3  1  0  0  0  0
  5  4  2  0  0  0  0
  6  5  1  0  0  0  0
  6  1  2  0  0  0  0
  7  1  1  0  0  0  0
  8  5  1  0  0  0  0
  9 13  1  0  0  0  0
  9 10  2  0  0  0  0
 10 14  1  0  0  0  0
 10 11  1  0  0  0  0
 11 15  1  0  0  0  0
 12 11  2  0  0  0  0
 12 16  1  0  0  0  0
 13 12  1  0  0  0  0
 17 18  1  6  0  0  0
 19 17  1  0  0  0  0
 19 20  1  0  0  0  0
 20 22  2  0  0  0  0
 20 21  1  0  0  0  0
 23 24  1  0  0  0  0
 23 22  1  0  0  0  0
 25 23  2  0  0  0  0
 26 25  1  0  0  0  0
 27 25  1  0  0  0  0
 27 19  2  0  0  0  0
M  END
>  <minimizedAffinity>
-4.95323992

$$$$

 OpenBabel03252503103D

 27 29  0  0  1  0  0  0  0  0999 V2000
   37.2440   32.1690   39.8330 C   0  0  0  0  0  0  0  0  0  0  0  0
   38.2920   31.4120   40.4000 C   0  0  0  0  0  0  0  0  0  0  0  0
   39.3950   32.0970   40.8310 C   0  0  0  0  0  0  0  0  0  0  0  0
   39.4920   33.4420   40.7270 N   0  0  0  0  0  0  0  0  0  0  0  0
   38.4490   34.1550   40.1700 C   0  0  0  0  0  0  0  0  0  0  0  0
   37.3470   33.5290   39.7310 N   0  0  0  0  0  0  0  0  0  0  0  0
   36.3230   31.7690   39.4630 H   0  0  0  0  0  0  0  0  0  0  0  0
   38.5850   35.2180   40.1090 H   0  0  0  0  0  0  0  0  0  0  0  0
   40.4530   31.3930   41.3830 C   0  0  0  0  0  0  0  0  0  0  0  0
   40.7840   31.0400   42.6630 C   0  0  0  0  0  0  0  0  0  0  0  0
   41.8770   30.3500   42.9610 C   0  0  0  0  0  0  0  0  0  0  0  0
   42.7030   29.9820   41.8790 C   0  0  0  0  0  0  0  0  0  0  0  0
   41.8010   30.7000   40.3980 S   0  0  0  0  0  0  0  0  0  0  0  0
   40.3770   31.1630   43.5930 H   0  0  0  0  0  0  0  0  0  0  0  0
   42.4520   29.9090   43.7410 H   0  0  0  0  0  0  0  0  0  0  0  0
   43.6060   29.4780   41.5490 H   0  0  0  0  0  0  0  0  0  0  0  0
   38.0580   30.0280   40.5060 C   0  0  2  0  0  3  0  0  0  0  0  0
   38.1510   29.3400   39.4010 O   0  0  0  0  0  1  0  0  0  0  0  0
   37.6960   29.0280   41.5140 C   0  0  0  0  0  0  0  0  0  0  0  0
   37.4190   27.8280   40.8580 C   0  0  0  0  0  0  0  0  0  0  0  0
   37.4510   27.6180   39.7890 H   0  0  0  0  0  0  0  0  0  0  0  0
   37.0430   26.6560   41.5310 C   0  0  0  0  0  3  0  0  0  0  0  0
   36.9750   26.8190   42.9250 C   0  0  0  0  0  0  0  0  0  0  0  0
   36.6850   25.9790   43.5480 H   0  0  0  0  0  0  0  0  0  0  0  0
   37.2430   27.9830   43.5700 C   0  0  0  0  0  0  0  0  0  0  0  0
   37.2110   28.1780   44.6350 H   0  0  0  0  0  0  0  0  0  0  0  0
   37.6160   29.1300   42.8680 C   0  0  0  0  0  3  0  0  0  0  0  0
  1  2  1  0  0  0  0
  2 17  1  0  0  0  0
  2  3  2  0  0  0  0
  3  9  1  0  0  0  0
  4  3  1  0  0  0  0
  5  4  2  0  0  0  0
  6  1  2  0  0  0  0
  6  5  1  0  0  0  0
  7  1  1  0  0  0  0
  8  5  1  0  0  0  0
  9 10  2  0  0  0  0
 10 11  1  0  0  0  0
 10 14  1  0  0  0  0
 11 15  1  0  0  0  0
 12 11  2  0  0  0  0
 13  9  1  0  0  0  0
 13 12  1  0  0  0  0
 16 12  1  0  0  0  0
 17 18  1  6  0  0  0
 17 19  1  0  0  0  0
 19 27  1  0  0  0  0
 20 19  2  0  0  0  0
 20 22  1  0  0  0  0
 21 20  1  0  0  0  0
 22 23  2  0  0  0  0
 23 24  1  0  0  0  0
 23 25  1  0  0  0  0
 25 26  1  0  0  0  0
 27 25  2  0  0  0  0
M  END
>  <minimizedAffinity>
-4.88315868

$$$$

 OpenBabel03252503103D

 27 29  0  0  1  0  0  0  0  0999 V2000
   36.1300   30.0220   41.1240 C   0  0  0  0  0  0  0  0  0  0  0  0
   37.2190   29.1920   41.4620 C   0  0  0  0  0  0  0  0  0  0  0  0
   38.4720   29.7280   41.3440 C   0  0  0  0  0  0  0  0  0  0  0  0
   38.6760   30.9970   40.9250 N   0  0  0  0  0  0  0  0  0  0  0  0
   37.5890   31.7860   40.6030 C   0  0  0  0  0  0  0  0  0  0  0  0
   36.3400   31.3060   40.7010 N   0  0  0  0  0  0  0  0  0  0  0  0
   35.0990   29.7400   41.1750 H   0  0  0  0  0  0  0  0  0  0  0  0
   37.8110   32.7820   40.2710 H   0  0  0  0  0  0  0  0  0  0  0  0
   39.5720   28.9440   41.6540 C   0  0  0  0  0  0  0  0  0  0  0  0
   40.2210   28.6500   42.8240 C   0  0  0  0  0  0  0  0  0  0  0  0
   41.2830   27.8580   42.8800 C   0  0  0  0  0  0  0  0  0  0  0  0
   41.7270   27.3140   41.6570 C   0  0  0  0  0  0  0  0  0  0  0  0
   40.5120   28.0220   40.4150 S   0  0  0  0  0  0  0  0  0  0  0  0
   40.1100   28.8910   43.8110 H   0  0  0  0  0  0  0  0  0  0  0  0
   42.0130   27.4100   43.5120 H   0  0  0  0  0  0  0  0  0  0  0  0
   42.4460   26.6810   41.1460 H   0  0  0  0  0  0  0  0  0  0  0  0
   36.8860   27.9100   41.9380 C   0  0  2  0  0  3  0  0  0  0  0  0
   36.3980   27.8500   43.1460 O   0  0  0  0  0  1  0  0  0  0  0  0
   36.9260   26.5100   41.5050 C   0  0  0  0  0  0  0  0  0  0  0  0
   36.7320   26.4740   40.1240 C   0  0  0  0  0  0  0  0  0  0  0  0
   36.5740   27.3090   39.4410 H   0  0  0  0  0  0  0  0  0  0  0  0
   36.7180   25.2830   39.3830 C   0  0  0  0  0  3  0  0  0  0  0  0
   36.9180   24.1390   40.1740 C   0  0  0  0  0  0  0  0  0  0  0  0
   36.9180   23.1600   39.7080 H   0  0  0  0  0  0  0  0  0  0  0  0
   37.1070   24.1660   41.5180 C   0  0  0  0  0  0  0  0  0  0  0  0
   37.2670   23.3290   42.1860 H   0  0  0  0  0  0  0  0  0  0  0  0
   37.1160   25.3710   42.2240 C   0  0  0  0  0  3  0  0  0  0  0  0
  1  7  1  0  0  0  0
  1  2  1  0  0  0  0
  2 17  1  0  0  0  0
  3  2  2  0  0  0  0
  3  9  1  0  0  0  0
  4  3  1  0  0  0  0
  5  6  1  0  0  0  0
  5  4  2  0  0  0  0
  6  1  2  0  0  0  0
  8  5  1  0  0  0  0
  9 10  2  0  0  0  0
 10 11  1  0  0  0  0
 10 14  1  0  0  0  0
 11 15  1  0  0  0  0
 12 11  2  0  0  0  0
 13  9  1  0  0  0  0
 13 12  1  0  0  0  0
 16 12  1  0  0  0  0
 17 18  1  1  0  0  0
 19 17  1  0  0  0  0
 19 27  1  0  0  0  0
 20 19  2  0  0  0  0
 21 20  1  0  0  0  0
 22 20  1  0  0  0  0
 22 23  2  0  0  0  0
 23 25  1  0  0  0  0
 24 23  1  0  0  0  0
 25 26  1  0  0  0  0
 25 27  2  0  0  0  0
M  END
>  <minimizedAffinity>
-4.76618433

$$$$

 OpenBabel03252503103D

 27 29  0  0  1  0  0  0  0  0999 V2000
   40.8760   31.7220   40.3730 C   0  0  0  0  0  0  0  0  0  0  0  0
   39.7220   30.9520   40.6230 C   0  0  0  0  0  0  0  0  0  0  0  0
   38.8500   30.7770   39.5820 C   0  0  0  0  0  0  0  0  0  0  0  0
   39.0720   31.3120   38.3610 N   0  0  0  0  0  0  0  0  0  0  0  0
   40.2130   32.0610   38.1470 C   0  0  0  0  0  0  0  0  0  0  0  0
   41.0980   32.2610   39.1360 N   0  0  0  0  0  0  0  0  0  0  0  0
   41.6450   31.9340   41.0880 H   0  0  0  0  0  0  0  0  0  0  0  0
   40.3330   32.4640   37.1600 H   0  0  0  0  0  0  0  0  0  0  0  0
   37.6970   30.0370   39.7860 C   0  0  0  0  0  0  0  0  0  0  0  0
   37.3500   28.7390   39.5210 C   0  0  0  0  0  0  0  0  0  0  0  0
   36.1550   28.2390   39.8070 C   0  0  0  0  0  0  0  0  0  0  0  0
   35.2350   29.1170   40.4140 C   0  0  0  0  0  0  0  0  0  0  0  0
   36.2040   30.7190   40.5440 S   0  0  0  0  0  0  0  0  0  0  0  0
   37.8070   27.9200   39.1130 H   0  0  0  0  0  0  0  0  0  0  0  0
   35.5350   27.3750   39.7760 H   0  0  0  0  0  0  0  0  0  0  0  0
   34.2390   29.2570   40.8250 H   0  0  0  0  0  0  0  0  0  0  0  0
   39.6220   30.4000   41.9140 C   0  0  2  0  0  3  0  0  0  0  0  0
   39.9100   31.1960   42.9060 O   0  0  0  0  0  1  0  0  0  0  0  0
   39.3000   29.1270   42.5660 C   0  0  0  0  0  0  0  0  0  0  0  0
   40.4450   28.3300   42.5580 C   0  0  0  0  0  0  0  0  0  0  0  0
   41.4290   28.5640   42.1520 H   0  0  0  0  0  0  0  0  0  0  0  0
   40.4850   27.0420   43.1110 C   0  0  0  0  0  3  0  0  0  0  0  0
   39.2590   26.6420   43.6680 C   0  0  0  0  0  0  0  0  0  0  0  0
   39.1700   25.6590   44.1170 H   0  0  0  0  0  0  0  0  0  0  0  0
   38.1410   27.4120   43.6790 C   0  0  0  0  0  0  0  0  0  0  0  0
   37.1680   27.1690   44.0890 H   0  0  0  0  0  0  0  0  0  0  0  0
   38.1370   28.6910   43.1210 C   0  0  0  0  0  3  0  0  0  0  0  0
  1  2  1  0  0  0  0
  1  7  1  0  0  0  0
  2 17  1  0  0  0  0
  3  9  1  0  0  0  0
  3  2  2  0  0  0  0
  4  3  1  0  0  0  0
  5  4  2  0  0  0  0
  5  6  1  0  0  0  0
  6  1  2  0  0  0  0
  8  5  1  0  0  0  0
  9 13  1  0  0  0  0
 10  9  2  0  0  0  0
 10 11  1  0  0  0  0
 11 12  2  0  0  0  0
 12 13  1  0  0  0  0
 12 16  1  0  0  0  0
 14 10  1  0  0  0  0
 15 11  1  0  0  0  0
 17 19  1  0  0  0  0
 17 18  1  6  0  0  0
 19 27  1  0  0  0  0
 20 19  2  0  0  0  0
 20 22  1  0  0  0  0
 21 20  1  0  0  0  0
 22 23  2  0  0  0  0
 23 25  1  0  0  0  0
 23 24  1  0  0  0  0
 25 26  1  0  0  0  0
 27 25  2  0  0  0  0
M  END
>  <minimizedAffinity>
-4.75571489

$$$$

 OpenBabel03252503103D

 27 29  0  0  1  0  0  0  0  0999 V2000
   36.2680   29.5360   40.7540 C   0  0  0  0  0  0  0  0  0  0  0  0
   36.8890   28.3330   41.1510 C   0  0  0  0  0  0  0  0  0  0  0  0
   36.6930   27.2370   40.3560 C   0  0  0  0  0  0  0  0  0  0  0  0
   35.9400   27.2870   39.2340 N   0  0  0  0  0  0  0  0  0  0  0  0
   35.3460   28.4790   38.8710 C   0  0  0  0  0  0  0  0  0  0  0  0
   35.5070   29.5820   39.6180 N   0  0  0  0  0  0  0  0  0  0  0  0
   36.3390   30.4690   41.2720 H   0  0  0  0  0  0  0  0  0  0  0  0
   34.7560   28.4570   37.9750 H   0  0  0  0  0  0  0  0  0  0  0  0
   37.2760   26.0320   40.7140 C   0  0  0  0  0  0  0  0  0  0  0  0
   36.9500   25.0610   41.6240 C   0  0  0  0  0  0  0  0  0  0  0  0
   37.6770   23.9660   41.8010 C   0  0  0  0  0  0  0  0  0  0  0  0
   38.8260   23.8360   40.9930 C   0  0  0  0  0  0  0  0  0  0  0  0
   38.7920   25.4010   39.9590 S   0  0  0  0  0  0  0  0  0  0  0  0
   36.2000   24.9040   42.3010 H   0  0  0  0  0  0  0  0  0  0  0  0
   37.7740   23.0530   42.3400 H   0  0  0  0  0  0  0  0  0  0  0  0
   39.6900   23.2370   40.7240 H   0  0  0  0  0  0  0  0  0  0  0  0
   37.6930   28.4130   42.3040 C   0  0  2  0  0  3  0  0  0  0  0  0
   37.1240   28.8990   43.3720 O   0  0  0  0  0  1  0  0  0  0  0  0
   39.0650   28.1300   42.7340 C   0  0  0  0  0  0  0  0  0  0  0  0
   39.8740   29.1960   42.3410 C   0  0  0  0  0  0  0  0  0  0  0  0
   39.5880   30.1010   41.8060 H   0  0  0  0  0  0  0  0  0  0  0  0
   41.2510   29.2490   42.6010 C   0  0  0  0  0  3  0  0  0  0  0  0
   41.7250   28.1230   43.2940 C   0  0  0  0  0  0  0  0  0  0  0  0
   42.7790   28.0510   43.5420 H   0  0  0  0  0  0  0  0  0  0  0  0
   40.9440   27.0810   43.6800 C   0  0  0  0  0  0  0  0  0  0  0  0
   41.2410   26.1870   44.2140 H   0  0  0  0  0  0  0  0  0  0  0  0
   39.5760   27.0620   43.4050 C   0  0  0  0  0  3  0  0  0  0  0  0
  1  2  1  0  0  0  0
  1  7  1  0  0  0  0
  2 17  1  0  0  0  0
  3  9  1  0  0  0  0
  3  2  2  0  0  0  0
  4  3  1  0  0  0  0
  5  4  2  0  0  0  0
  5  6  1  0  0  0  0
  6  1  2  0  0  0  0
  8  5  1  0  0  0  0
  9 10  2  0  0  0  0
 10 11  1  0  0  0  0
 10 14  1  0  0  0  0
 11 15  1  0  0  0  0
 12 11  2  0  0  0  0
 13  9  1  0  0  0  0
 13 12  1  0  0  0  0
 16 12  1  0  0  0  0
 17 19  1  0  0  0  0
 17 18  1  6  0  0  0
 19 27  1  0  0  0  0
 20 22  1  0  0  0  0
 20 19  2  0  0  0  0
 21 20  1  0  0  0  0
 22 23  2  0  0  0  0
 23 24  1  0  0  0  0
 23 25  1  0  0  0  0
 25 26  1  0  0  0  0
 27 25  2  0  0  0  0
M  END
>  <minimizedAffinity>
-4.73188972

$$$$
