
 OpenBabel03252508513D

 28 30  0  0  0  0  0  0  0  0999 V2000
   45.7600   34.2510   41.0450 C   0  0  0  0  0  0  0  0  0  0  0  0
   46.4070   34.7650   42.1630 C   0  0  0  0  0  0  0  0  0  0  0  0
   47.7870   34.9750   42.0330 C   0  0  0  0  0  0  0  0  0  0  0  0
   48.3990   34.6730   40.8510 N   0  0  0  0  0  0  0  0  0  0  0  0
   47.7230   34.1840   39.8160 C   0  0  0  0  0  0  0  0  0  0  0  0
   46.4000   33.9680   39.9000 N   0  0  0  0  0  0  0  0  0  0  0  0
   48.3080   35.3730   42.8930 H   0  0  0  0  0  0  0  0  0  0  0  0
   48.2660   33.9640   38.9020 H   0  0  0  0  0  0  0  0  0  0  0  0
   45.6640   35.0520   43.3710 C   0  0  0  0  0  0  0  0  0  0  0  0
   45.1250   36.2970   43.6420 C   0  0  0  0  0  0  0  0  0  0  0  0
   44.5190   36.1180   44.8720 C   0  0  0  0  0  0  0  0  0  0  0  0
   44.6790   34.8570   45.3140 N   0  0  0  0  0  0  0  0  0  0  0  0
   45.3750   34.2290   44.3890 N   0  0  0  0  0  0  0  0  0  0  0  0
   45.1380   37.2230   43.0770 H   0  0  0  0  0  0  0  0  0  0  0  0
   43.9850   36.8910   45.4110 H   0  0  0  0  0  0  0  0  0  0  0  0
   44.2990   34.5010   46.2250 H   0  0  0  0  0  0  0  0  0  0  0  0
   44.3980   34.0290   41.1310 O   0  0  0  0  0  0  0  0  0  0  0  0
   43.3920   34.8590   40.7320 C   0  0  0  0  0  0  0  0  0  0  0  0
   43.2220   36.0880   41.0630 O   0  0  0  0  0  0  0  0  0  0  0  0
   42.2960   34.4320   39.8150 C   0  0  0  0  0  0  0  0  0  0  0  0
   42.3580   33.2620   39.0550 C   0  0  0  0  0  0  0  0  0  0  0  0
   43.2580   32.6470   39.1540 H   0  0  0  0  0  0  0  0  0  0  0  0
   41.4010   32.7970   38.1890 C   0  0  0  0  0  3  0  0  0  0  0  0
   40.2700   33.5750   38.0690 C   0  0  0  0  0  0  0  0  0  0  0  0
   39.4780   33.2640   37.4020 H   0  0  0  0  0  0  0  0  0  0  0  0
   40.1180   34.7450   38.7760 C   0  0  0  0  0  0  0  0  0  0  0  0
   39.2280   35.3460   38.6720 H   0  0  0  0  0  0  0  0  0  0  0  0
   41.1310   35.1340   39.6220 C   0  0  0  0  0  3  0  0  0  0  0  0
  1 17  1  0  0  0  0
  1  2  1  0  0  0  0
  2  9  1  0  0  0  0
  3  2  2  0  0  0  0
  3  7  1  0  0  0  0
  4  3  1  0  0  0  0
  5  6  1  0  0  0  0
  5  4  2  0  0  0  0
  6  1  2  0  0  0  0
  8  5  1  0  0  0  0
  9 10  1  0  0  0  0
  9 13  2  0  0  0  0
 10 11  2  0  0  0  0
 11 12  1  0  0  0  0
 11 15  1  0  0  0  0
 12 16  1  0  0  0  0
 13 12  1  0  0  0  0
 14 10  1  0  0  0  0
 18 19  2  0  0  0  0
 18 17  1  0  0  0  0
 20 18  1  0  0  0  0
 21 22  1  0  0  0  0
 21 20  2  0  0  0  0
 23 21  1  0  0  0  0
 24 23  2  0  0  0  0
 24 26  1  0  0  0  0
 25 24  1  0  0  0  0
 26 28  2  0  0  0  0
 27 26  1  0  0  0  0
 28 20  1  0  0  0  0
M  END
>  <minimizedAffinity>
-5.51861238

>  <minimizedRMSD>
1.02966738

$$$$
