
 OpenBabel03252508503D

 28 30  0  0  0  0  0  0  0  0999 V2000
   45.7970   34.2460   41.0550 C   0  0  0  0  0  0  0  0  0  0  0  0
   46.4330   34.7820   42.1690 C   0  0  0  0  0  0  0  0  0  0  0  0
   47.8070   35.0270   42.0350 C   0  0  0  0  0  0  0  0  0  0  0  0
   48.4240   34.7350   40.8540 N   0  0  0  0  0  0  0  0  0  0  0  0
   47.7590   34.2230   39.8220 C   0  0  0  0  0  0  0  0  0  0  0  0
   46.4430   33.9730   39.9100 N   0  0  0  0  0  0  0  0  0  0  0  0
   48.3190   35.4440   42.8920 H   0  0  0  0  0  0  0  0  0  0  0  0
   48.3060   34.0120   38.9090 H   0  0  0  0  0  0  0  0  0  0  0  0
   45.6850   35.0560   43.3770 C   0  0  0  0  0  0  0  0  0  0  0  0
   45.1190   36.2900   43.6450 C   0  0  0  0  0  0  0  0  0  0  0  0
   44.5180   36.1000   44.8760 C   0  0  0  0  0  0  0  0  0  0  0  0
   44.7060   34.8440   45.3210 N   0  0  0  0  0  0  0  0  0  0  0  0
   45.4150   34.2300   44.3970 N   0  0  0  0  0  0  0  0  0  0  0  0
   45.1110   37.2140   43.0770 H   0  0  0  0  0  0  0  0  0  0  0  0
   43.9670   36.8630   45.4130 H   0  0  0  0  0  0  0  0  0  0  0  0
   44.3350   34.4830   46.2330 H   0  0  0  0  0  0  0  0  0  0  0  0
   44.4420   33.9890   41.1450 O   0  0  0  0  0  0  0  0  0  0  0  0
   43.4140   34.7860   40.7370 C   0  0  0  0  0  0  0  0  0  0  0  0
   43.2040   36.0100   41.0640 O   0  0  0  0  0  0  0  0  0  0  0  0
   42.3390   34.3240   39.8120 C   0  0  0  0  0  0  0  0  0  0  0  0
   42.4170   33.1260   39.1000 C   0  0  0  0  0  0  0  0  0  0  0  0
   43.3130   32.5160   39.2420 H   0  0  0  0  0  0  0  0  0  0  0  0
   41.4770   32.6270   38.2320 C   0  0  0  0  0  3  0  0  0  0  0  0
   40.3510   33.3990   38.0570 C   0  0  0  0  0  0  0  0  0  0  0  0
   39.5720   33.0630   37.3850 H   0  0  0  0  0  0  0  0  0  0  0  0
   40.1840   34.5960   38.7150 C   0  0  0  0  0  0  0  0  0  0  0  0
   39.2960   35.1920   38.5690 H   0  0  0  0  0  0  0  0  0  0  0  0
   41.1790   35.0180   39.5670 C   0  0  0  0  0  3  0  0  0  0  0  0
  1 17  1  0  0  0  0
  1  2  1  0  0  0  0
  2  9  1  0  0  0  0
  3  2  2  0  0  0  0
  3  7  1  0  0  0  0
  4  3  1  0  0  0  0
  5  6  1  0  0  0  0
  5  4  2  0  0  0  0
  6  1  2  0  0  0  0
  8  5  1  0  0  0  0
  9 10  1  0  0  0  0
  9 13  2  0  0  0  0
 10 11  2  0  0  0  0
 11 12  1  0  0  0  0
 11 15  1  0  0  0  0
 12 16  1  0  0  0  0
 13 12  1  0  0  0  0
 14 10  1  0  0  0  0
 18 19  2  0  0  0  0
 18 17  1  0  0  0  0
 20 18  1  0  0  0  0
 21 22  1  0  0  0  0
 21 20  2  0  0  0  0
 23 21  1  0  0  0  0
 24 23  2  0  0  0  0
 24 26  1  0  0  0  0
 25 24  1  0  0  0  0
 26 28  2  0  0  0  0
 27 26  1  0  0  0  0
 28 20  1  0  0  0  0
M  END
>  <minimizedAffinity>
-5.49771738

>  <minimizedRMSD>
0.9952932

$$$$
