
 OpenBabel03252508523D

 28 30  0  0  0  0  0  0  0  0999 V2000
   39.6170   31.5910   41.2180 C   0  0  0  0  0  0  0  0  0  0  0  0
   38.6680   31.6090   40.2020 C   0  0  0  0  0  0  0  0  0  0  0  0
   38.9930   32.3680   39.0700 C   0  0  0  0  0  0  0  0  0  0  0  0
   40.1870   33.0270   39.0300 N   0  0  0  0  0  0  0  0  0  0  0  0
   41.0550   32.9710   40.0360 C   0  0  0  0  0  0  0  0  0  0  0  0
   40.7810   32.2540   41.1380 N   0  0  0  0  0  0  0  0  0  0  0  0
   38.2670   32.3950   38.2690 H   0  0  0  0  0  0  0  0  0  0  0  0
   41.9880   33.5170   39.9440 H   0  0  0  0  0  0  0  0  0  0  0  0
   37.4300   30.8730   40.3450 C   0  0  0  0  0  0  0  0  0  0  0  0
   37.1650   29.7090   39.6460 C   0  0  0  0  0  0  0  0  0  0  0  0
   35.9000   29.3610   40.0810 C   0  0  0  0  0  0  0  0  0  0  0  0
   35.4320   30.2490   40.9780 N   0  0  0  0  0  0  0  0  0  0  0  0
   36.3750   31.1560   41.1220 N   0  0  0  0  0  0  0  0  0  0  0  0
   37.7560   29.1550   38.9240 H   0  0  0  0  0  0  0  0  0  0  0  0
   35.3550   28.4860   39.7460 H   0  0  0  0  0  0  0  0  0  0  0  0
   34.4920   30.1790   41.4380 H   0  0  0  0  0  0  0  0  0  0  0  0
   39.3360   30.8540   42.3530 O   0  0  0  0  0  0  0  0  0  0  0  0
   39.6810   29.5610   42.6130 C   0  0  0  0  0  0  0  0  0  0  0  0
   40.8570   29.1050   42.8560 O   0  0  0  0  0  0  0  0  0  0  0  0
   38.6950   28.4420   42.6490 C   0  0  0  0  0  0  0  0  0  0  0  0
   38.8640   27.2610   41.9250 C   0  0  0  0  0  0  0  0  0  0  0  0
   39.7650   27.1730   41.3120 H   0  0  0  0  0  0  0  0  0  0  0  0
   38.0100   26.1860   41.9010 C   0  0  0  0  0  3  0  0  0  0  0  0
   36.8750   26.3020   42.6750 C   0  0  0  0  0  0  0  0  0  0  0  0
   36.1630   25.4910   42.6990 H   0  0  0  0  0  0  0  0  0  0  0  0
   36.6230   27.4290   43.4230 C   0  0  0  0  0  0  0  0  0  0  0  0
   35.7310   27.5070   44.0250 H   0  0  0  0  0  0  0  0  0  0  0  0
   37.5360   28.4570   43.3860 C   0  0  0  0  0  3  0  0  0  0  0  0
  1 17  1  0  0  0  0
  2  9  1  0  0  0  0
  2  1  2  0  0  0  0
  3  2  1  0  0  0  0
  4  3  2  0  0  0  0
  4  5  1  0  0  0  0
  5  6  2  0  0  0  0
  6  1  1  0  0  0  0
  7  3  1  0  0  0  0
  8  5  1  0  0  0  0
  9 13  2  0  0  0  0
 10 11  2  0  0  0  0
 10  9  1  0  0  0  0
 11 12  1  0  0  0  0
 12 13  1  0  0  0  0
 12 16  1  0  0  0  0
 14 10  1  0  0  0  0
 15 11  1  0  0  0  0
 17 18  1  0  0  0  0
 18 20  1  0  0  0  0
 18 19  2  0  0  0  0
 20 28  1  0  0  0  0
 21 20  2  0  0  0  0
 22 21  1  0  0  0  0
 23 21  1  0  0  0  0
 23 24  2  0  0  0  0
 24 25  1  0  0  0  0
 24 26  1  0  0  0  0
 26 27  1  0  0  0  0
 28 26  2  0  0  0  0
M  END
>  <minimizedAffinity>
-5.32432699

$$$$

 OpenBabel03252508523D

 28 30  0  0  0  0  0  0  0  0999 V2000
   36.9140   25.9220   40.4240 C   0  0  0  0  0  0  0  0  0  0  0  0
   37.5060   25.9690   41.6810 C   0  0  0  0  0  0  0  0  0  0  0  0
   38.0420   24.7630   42.1540 C   0  0  0  0  0  0  0  0  0  0  0  0
   37.9560   23.6450   41.3770 N   0  0  0  0  0  0  0  0  0  0  0  0
   37.3760   23.6640   40.1800 C   0  0  0  0  0  0  0  0  0  0  0  0
   36.8510   24.7990   39.6920 N   0  0  0  0  0  0  0  0  0  0  0  0
   38.5070   24.7800   43.1310 H   0  0  0  0  0  0  0  0  0  0  0  0
   37.3390   22.7420   39.6100 H   0  0  0  0  0  0  0  0  0  0  0  0
   37.5450   27.2090   42.4250 C   0  0  0  0  0  0  0  0  0  0  0  0
   38.6740   28.0070   42.4940 C   0  0  0  0  0  0  0  0  0  0  0  0
   38.2670   29.0610   43.2920 C   0  0  0  0  0  0  0  0  0  0  0  0
   36.9870   28.9120   43.6790 N   0  0  0  0  0  0  0  0  0  0  0  0
   36.5700   27.7840   43.1420 N   0  0  0  0  0  0  0  0  0  0  0  0
   39.6600   27.8940   42.0560 H   0  0  0  0  0  0  0  0  0  0  0  0
   38.8960   29.8980   43.5700 H   0  0  0  0  0  0  0  0  0  0  0  0
   36.4750   29.5950   44.2880 H   0  0  0  0  0  0  0  0  0  0  0  0
   36.3730   27.0900   39.9200 O   0  0  0  0  0  0  0  0  0  0  0  0
   36.8860   27.8930   38.9450 C   0  0  0  0  0  0  0  0  0  0  0  0
   37.3680   27.5280   37.8120 O   0  0  0  0  0  0  0  0  0  0  0  0
   36.9660   29.3770   39.0670 C   0  0  0  0  0  0  0  0  0  0  0  0
   36.5660   30.0650   40.2150 C   0  0  0  0  0  0  0  0  0  0  0  0
   36.1800   29.4700   41.0470 H   0  0  0  0  0  0  0  0  0  0  0  0
   36.6050   31.4230   40.4100 C   0  0  0  0  0  3  0  0  0  0  0  0
   37.0910   32.1690   39.3580 C   0  0  0  0  0  0  0  0  0  0  0  0
   37.1470   33.2440   39.4490 H   0  0  0  0  0  0  0  0  0  0  0  0
   37.5090   31.5800   38.1880 C   0  0  0  0  0  0  0  0  0  0  0  0
   37.8880   32.1750   37.3710 H   0  0  0  0  0  0  0  0  0  0  0  0
   37.4330   30.2100   38.0810 C   0  0  0  0  0  3  0  0  0  0  0  0
  1  2  1  0  0  0  0
  2  3  2  0  0  0  0
  2  9  1  0  0  0  0
  3  7  1  0  0  0  0
  4  3  1  0  0  0  0
  5  4  2  0  0  0  0
  6  5  1  0  0  0  0
  6  1  2  0  0  0  0
  8  5  1  0  0  0  0
  9 10  1  0  0  0  0
  9 13  2  0  0  0  0
 10 11  2  0  0  0  0
 11 15  1  0  0  0  0
 11 12  1  0  0  0  0
 12 16  1  0  0  0  0
 13 12  1  0  0  0  0
 14 10  1  0  0  0  0
 17  1  1  0  0  0  0
 18 20  1  0  0  0  0
 18 17  1  0  0  0  0
 19 18  2  0  0  0  0
 20 21  1  0  0  0  0
 21 23  2  0  0  0  0
 21 22  1  0  0  0  0
 24 25  1  0  0  0  0
 24 23  1  0  0  0  0
 26 24  2  0  0  0  0
 27 26  1  0  0  0  0
 28 26  1  0  0  0  0
 28 20  2  0  0  0  0
M  END
>  <minimizedAffinity>
-5.14537239

$$$$

 OpenBabel03252508523D

 28 30  0  0  0  0  0  0  0  0999 V2000
   37.0240   28.2960   37.6960 C   0  0  0  0  0  0  0  0  0  0  0  0
   36.0040   29.1890   38.0020 C   0  0  0  0  0  0  0  0  0  0  0  0
   34.9190   29.2100   37.1140 C   0  0  0  0  0  0  0  0  0  0  0  0
   34.9250   28.3790   36.0330 N   0  0  0  0  0  0  0  0  0  0  0  0
   35.9330   27.5450   35.7950 C   0  0  0  0  0  0  0  0  0  0  0  0
   36.9910   27.4940   36.6210 N   0  0  0  0  0  0  0  0  0  0  0  0
   34.1150   29.9000   37.3350 H   0  0  0  0  0  0  0  0  0  0  0  0
   35.8800   26.9070   34.9180 H   0  0  0  0  0  0  0  0  0  0  0  0
   36.0940   30.0290   39.1770 C   0  0  0  0  0  0  0  0  0  0  0  0
   36.9410   31.1200   39.2550 C   0  0  0  0  0  0  0  0  0  0  0  0
   36.7040   31.6130   40.5240 C   0  0  0  0  0  0  0  0  0  0  0  0
   35.7810   30.8760   41.1680 N   0  0  0  0  0  0  0  0  0  0  0  0
   35.4260   29.9220   40.3330 N   0  0  0  0  0  0  0  0  0  0  0  0
   37.6410   31.5380   38.5390 H   0  0  0  0  0  0  0  0  0  0  0  0
   37.1960   32.4810   40.9470 H   0  0  0  0  0  0  0  0  0  0  0  0
   35.4490   31.0720   42.1440 H   0  0  0  0  0  0  0  0  0  0  0  0
   38.1130   28.2420   38.5460 O   0  0  0  0  0  0  0  0  0  0  0  0
   38.3180   27.3810   39.5830 C   0  0  0  0  0  0  0  0  0  0  0  0
   38.7760   26.1830   39.5190 O   0  0  0  0  0  0  0  0  0  0  0  0
   38.0230   27.7270   41.0040 C   0  0  0  0  0  0  0  0  0  0  0  0
   37.0230   27.0940   41.7440 C   0  0  0  0  0  0  0  0  0  0  0  0
   36.4440   26.3140   41.2420 H   0  0  0  0  0  0  0  0  0  0  0  0
   36.6860   27.3490   43.0510 C   0  0  0  0  0  3  0  0  0  0  0  0
   37.4180   28.3340   43.6790 C   0  0  0  0  0  0  0  0  0  0  0  0
   37.2020   28.5820   44.7080 H   0  0  0  0  0  0  0  0  0  0  0  0
   38.4230   29.0120   43.0300 C   0  0  0  0  0  0  0  0  0  0  0  0
   38.9890   29.7810   43.5340 H   0  0  0  0  0  0  0  0  0  0  0  0
   38.6910   28.6890   41.7200 C   0  0  0  0  0  3  0  0  0  0  0  0
  1  2  1  0  0  0  0
  1 17  1  0  0  0  0
  2  9  1  0  0  0  0
  3  7  1  0  0  0  0
  3  2  2  0  0  0  0
  4  3  1  0  0  0  0
  5  4  2  0  0  0  0
  5  6  1  0  0  0  0
  6  1  2  0  0  0  0
  8  5  1  0  0  0  0
  9 10  1  0  0  0  0
  9 13  2  0  0  0  0
 10 11  2  0  0  0  0
 11 15  1  0  0  0  0
 11 12  1  0  0  0  0
 12 16  1  0  0  0  0
 13 12  1  0  0  0  0
 14 10  1  0  0  0  0
 17 18  1  0  0  0  0
 18 20  1  0  0  0  0
 19 18  2  0  0  0  0
 20 28  2  0  0  0  0
 20 21  1  0  0  0  0
 21 23  2  0  0  0  0
 22 21  1  0  0  0  0
 23 24  1  0  0  0  0
 24 25  1  0  0  0  0
 26 27  1  0  0  0  0
 26 24  2  0  0  0  0
 28 26  1  0  0  0  0
M  END
>  <minimizedAffinity>
-5.11534834

$$$$

 OpenBabel03252508523D

 28 30  0  0  0  0  0  0  0  0999 V2000
   38.3950   28.9920   38.0300 C   0  0  0  0  0  0  0  0  0  0  0  0
   37.4060   29.9480   37.8310 C   0  0  0  0  0  0  0  0  0  0  0  0
   36.6580   29.8220   36.6510 C   0  0  0  0  0  0  0  0  0  0  0  0
   36.9340   28.7980   35.7920 N   0  0  0  0  0  0  0  0  0  0  0  0
   37.8950   27.9130   36.0410 C   0  0  0  0  0  0  0  0  0  0  0  0
   38.6340   27.9990   37.1590 N   0  0  0  0  0  0  0  0  0  0  0  0
   35.8830   30.5570   36.4780 H   0  0  0  0  0  0  0  0  0  0  0  0
   38.0670   27.1220   35.3190 H   0  0  0  0  0  0  0  0  0  0  0  0
   37.1930   30.9950   38.8060 C   0  0  0  0  0  0  0  0  0  0  0  0
   37.7080   32.2710   38.6610 C   0  0  0  0  0  0  0  0  0  0  0  0
   37.2680   32.9200   39.7990 C   0  0  0  0  0  0  0  0  0  0  0  0
   36.5400   32.0980   40.5770 N   0  0  0  0  0  0  0  0  0  0  0  0
   36.5070   30.9380   39.9560 N   0  0  0  0  0  0  0  0  0  0  0  0
   38.3120   32.7160   37.8770 H   0  0  0  0  0  0  0  0  0  0  0  0
   37.4800   33.9560   40.0350 H   0  0  0  0  0  0  0  0  0  0  0  0
   36.1070   32.3840   41.4890 H   0  0  0  0  0  0  0  0  0  0  0  0
   39.1560   29.0790   39.1800 O   0  0  0  0  0  0  0  0  0  0  0  0
   39.3650   28.1100   40.1170 C   0  0  0  0  0  0  0  0  0  0  0  0
   40.2850   27.2140   40.1150 O   0  0  0  0  0  0  0  0  0  0  0  0
   38.5100   27.9460   41.3280 C   0  0  0  0  0  0  0  0  0  0  0  0
   38.4610   28.8930   42.3530 C   0  0  0  0  0  0  0  0  0  0  0  0
   39.0840   29.7850   42.2420 H   0  0  0  0  0  0  0  0  0  0  0  0
   37.7060   28.8220   43.4970 C   0  0  0  0  0  3  0  0  0  0  0  0
   36.9240   27.6960   43.6330 C   0  0  0  0  0  0  0  0  0  0  0  0
   36.3060   27.5800   44.5120 H   0  0  0  0  0  0  0  0  0  0  0  0
   36.9070   26.7090   42.6750 C   0  0  0  0  0  0  0  0  0  0  0  0
   36.2890   25.8320   42.7930 H   0  0  0  0  0  0  0  0  0  0  0  0
   37.6960   26.8650   41.5600 C   0  0  0  0  0  3  0  0  0  0  0  0
  1 17  1  0  0  0  0
  2  1  1  0  0  0  0
  2  9  1  0  0  0  0
  3  2  2  0  0  0  0
  4  5  2  0  0  0  0
  4  3  1  0  0  0  0
  5  6  1  0  0  0  0
  6  1  2  0  0  0  0
  7  3  1  0  0  0  0
  8  5  1  0  0  0  0
  9 13  2  0  0  0  0
 10  9  1  0  0  0  0
 10 11  2  0  0  0  0
 11 15  1  0  0  0  0
 11 12  1  0  0  0  0
 12 16  1  0  0  0  0
 13 12  1  0  0  0  0
 14 10  1  0  0  0  0
 17 18  1  0  0  0  0
 18 20  1  0  0  0  0
 19 18  2  0  0  0  0
 20 28  2  0  0  0  0
 20 21  1  0  0  0  0
 21 23  2  0  0  0  0
 22 21  1  0  0  0  0
 23 24  1  0  0  0  0
 24 25  1  0  0  0  0
 26 27  1  0  0  0  0
 26 24  2  0  0  0  0
 28 26  1  0  0  0  0
M  END
>  <minimizedAffinity>
-5.07552385

$$$$

 OpenBabel03252508523D

 28 30  0  0  0  0  0  0  0  0999 V2000
   38.1290   30.5410   40.6950 C   0  0  0  0  0  0  0  0  0  0  0  0
   37.1690   31.0320   39.8180 C   0  0  0  0  0  0  0  0  0  0  0  0
   37.1930   32.4150   39.5920 C   0  0  0  0  0  0  0  0  0  0  0  0
   38.1290   33.1790   40.2260 N   0  0  0  0  0  0  0  0  0  0  0  0
   39.0230   32.6490   41.0550 C   0  0  0  0  0  0  0  0  0  0  0  0
   39.0330   31.3280   41.2990 N   0  0  0  0  0  0  0  0  0  0  0  0
   36.4530   32.8160   38.9120 H   0  0  0  0  0  0  0  0  0  0  0  0
   39.7420   33.3080   41.5300 H   0  0  0  0  0  0  0  0  0  0  0  0
   36.2190   30.1350   39.1960 C   0  0  0  0  0  0  0  0  0  0  0  0
   35.1390   29.5990   39.8730 C   0  0  0  0  0  0  0  0  0  0  0  0
   34.5200   28.8190   38.9140 C   0  0  0  0  0  0  0  0  0  0  0  0
   35.1770   28.8780   37.7410 N   0  0  0  0  0  0  0  0  0  0  0  0
   36.2030   29.6800   37.9350 N   0  0  0  0  0  0  0  0  0  0  0  0
   34.8040   29.7190   40.8980 H   0  0  0  0  0  0  0  0  0  0  0  0
   33.6230   28.2360   39.0830 H   0  0  0  0  0  0  0  0  0  0  0  0
   34.8820   28.3630   36.8760 H   0  0  0  0  0  0  0  0  0  0  0  0
   38.1410   29.1820   40.9460 O   0  0  0  0  0  0  0  0  0  0  0  0
   37.9810   28.5550   42.1470 C   0  0  0  0  0  0  0  0  0  0  0  0
   37.3580   29.0000   43.1780 O   0  0  0  0  0  0  0  0  0  0  0  0
   38.5350   27.2020   42.4430 C   0  0  0  0  0  0  0  0  0  0  0  0
   39.5760   26.9930   43.3490 C   0  0  0  0  0  0  0  0  0  0  0  0
   39.9870   27.8720   43.8520 H   0  0  0  0  0  0  0  0  0  0  0  0
   40.1430   25.7870   43.6800 C   0  0  0  0  0  3  0  0  0  0  0  0
   39.6220   24.6820   43.0420 C   0  0  0  0  0  0  0  0  0  0  0  0
   40.0250   23.7030   43.2590 H   0  0  0  0  0  0  0  0  0  0  0  0
   38.5950   24.7900   42.1340 C   0  0  0  0  0  0  0  0  0  0  0  0
   38.1950   23.9160   41.6420 H   0  0  0  0  0  0  0  0  0  0  0  0
   38.0880   26.0390   41.8640 C   0  0  0  0  0  3  0  0  0  0  0  0
  1 17  1  0  0  0  0
  1  6  1  0  0  0  0
  2  1  2  0  0  0  0
  3  2  1  0  0  0  0
  3  4  2  0  0  0  0
  4  5  1  0  0  0  0
  5  6  2  0  0  0  0
  5  8  1  0  0  0  0
  7  3  1  0  0  0  0
  9  2  1  0  0  0  0
  9 10  1  0  0  0  0
 10 14  1  0  0  0  0
 11 15  1  0  0  0  0
 11 10  2  0  0  0  0
 12 13  1  0  0  0  0
 12 11  1  0  0  0  0
 13  9  2  0  0  0  0
 16 12  1  0  0  0  0
 17 18  1  0  0  0  0
 18 20  1  0  0  0  0
 18 19  2  0  0  0  0
 20 21  1  0  0  0  0
 21 23  2  0  0  0  0
 21 22  1  0  0  0  0
 24 25  1  0  0  0  0
 24 23  1  0  0  0  0
 26 24  2  0  0  0  0
 27 26  1  0  0  0  0
 28 26  1  0  0  0  0
 28 20  2  0  0  0  0
M  END
>  <minimizedAffinity>
-5.04673195

$$$$

 OpenBabel03252508523D

 28 30  0  0  0  0  0  0  0  0999 V2000
   37.7100   29.8590   38.8530 C   0  0  0  0  0  0  0  0  0  0  0  0
   37.6470   30.6760   39.9750 C   0  0  0  0  0  0  0  0  0  0  0  0
   37.5490   32.0530   39.7280 C   0  0  0  0  0  0  0  0  0  0  0  0
   37.5220   32.4990   38.4390 N   0  0  0  0  0  0  0  0  0  0  0  0
   37.5860   31.6650   37.4060 C   0  0  0  0  0  0  0  0  0  0  0  0
   37.6800   30.3390   37.6000 N   0  0  0  0  0  0  0  0  0  0  0  0
   37.4990   32.7060   40.5900 H   0  0  0  0  0  0  0  0  0  0  0  0
   37.5600   32.0800   36.4040 H   0  0  0  0  0  0  0  0  0  0  0  0
   37.6820   30.1010   41.3030 C   0  0  0  0  0  0  0  0  0  0  0  0
   38.8630   29.7950   41.9550 C   0  0  0  0  0  0  0  0  0  0  0  0
   38.4310   29.2790   43.1630 C   0  0  0  0  0  0  0  0  0  0  0  0
   37.0870   29.2740   43.2370 N   0  0  0  0  0  0  0  0  0  0  0  0
   36.6550   29.7760   42.1000 N   0  0  0  0  0  0  0  0  0  0  0  0
   39.8990   29.9050   41.6530 H   0  0  0  0  0  0  0  0  0  0  0  0
   39.0880   28.9260   43.9490 H   0  0  0  0  0  0  0  0  0  0  0  0
   36.5460   28.9270   44.0660 H   0  0  0  0  0  0  0  0  0  0  0  0
   37.8070   28.4940   39.0510 O   0  0  0  0  0  0  0  0  0  0  0  0
   36.8030   27.5730   39.0100 C   0  0  0  0  0  0  0  0  0  0  0  0
   35.7590   27.5950   38.2620 O   0  0  0  0  0  0  0  0  0  0  0  0
   36.7740   26.3560   39.8720 C   0  0  0  0  0  0  0  0  0  0  0  0
   37.1940   26.3620   41.2030 C   0  0  0  0  0  0  0  0  0  0  0  0
   37.5550   27.3090   41.6110 H   0  0  0  0  0  0  0  0  0  0  0  0
   37.2000   25.2920   42.0640 C   0  0  0  0  0  3  0  0  0  0  0  0
   36.7440   24.0990   41.5450 C   0  0  0  0  0  0  0  0  0  0  0  0
   36.7240   23.2190   42.1720 H   0  0  0  0  0  0  0  0  0  0  0  0
   36.3100   23.9970   40.2440 C   0  0  0  0  0  0  0  0  0  0  0  0
   35.9550   23.0570   39.8500 H   0  0  0  0  0  0  0  0  0  0  0  0
   36.3390   25.1220   39.4540 C   0  0  0  0  0  3  0  0  0  0  0  0
  1 17  1  0  0  0  0
  1  2  1  0  0  0  0
  2  9  1  0  0  0  0
  3  2  2  0  0  0  0
  3  7  1  0  0  0  0
  4  3  1  0  0  0  0
  5  6  1  0  0  0  0
  5  4  2  0  0  0  0
  6  1  2  0  0  0  0
  8  5  1  0  0  0  0
  9 10  1  0  0  0  0
  9 13  2  0  0  0  0
 10 11  2  0  0  0  0
 11 12  1  0  0  0  0
 11 15  1  0  0  0  0
 12 16  1  0  0  0  0
 13 12  1  0  0  0  0
 14 10  1  0  0  0  0
 18 17  1  0  0  0  0
 18 20  1  0  0  0  0
 19 18  2  0  0  0  0
 20 21  1  0  0  0  0
 21 22  1  0  0  0  0
 21 23  2  0  0  0  0
 24 23  1  0  0  0  0
 24 25  1  0  0  0  0
 26 24  2  0  0  0  0
 27 26  1  0  0  0  0
 28 20  2  0  0  0  0
 28 26  1  0  0  0  0
M  END
>  <minimizedAffinity>
-4.98945093

$$$$

 OpenBabel03252508523D

 28 30  0  0  0  0  0  0  0  0999 V2000
   38.2860   28.5910   42.7960 C   0  0  0  0  0  0  0  0  0  0  0  0
   39.6180   28.9230   42.5770 C   0  0  0  0  0  0  0  0  0  0  0  0
   40.5620   27.9570   42.9530 C   0  0  0  0  0  0  0  0  0  0  0  0
   40.1330   26.7810   43.4960 N   0  0  0  0  0  0  0  0  0  0  0  0
   38.8420   26.5220   43.6790 C   0  0  0  0  0  0  0  0  0  0  0  0
   37.9060   27.4210   43.3320 N   0  0  0  0  0  0  0  0  0  0  0  0
   41.6040   28.1980   42.7910 H   0  0  0  0  0  0  0  0  0  0  0  0
   38.5630   25.5680   44.1150 H   0  0  0  0  0  0  0  0  0  0  0  0
   39.9670   30.2000   41.9940 C   0  0  0  0  0  0  0  0  0  0  0  0
   40.3950   30.3350   40.6850 C   0  0  0  0  0  0  0  0  0  0  0  0
   40.6130   31.6950   40.5620 C   0  0  0  0  0  0  0  0  0  0  0  0
   40.3370   32.3370   41.7130 N   0  0  0  0  0  0  0  0  0  0  0  0
   39.9480   31.4120   42.5650 N   0  0  0  0  0  0  0  0  0  0  0  0
   40.5440   29.6010   39.9000 H   0  0  0  0  0  0  0  0  0  0  0  0
   40.9590   32.1810   39.6590 H   0  0  0  0  0  0  0  0  0  0  0  0
   40.4320   33.3730   41.8440 H   0  0  0  0  0  0  0  0  0  0  0  0
   37.3220   29.5150   42.4390 O   0  0  0  0  0  0  0  0  0  0  0  0
   36.5620   29.5320   41.3070 C   0  0  0  0  0  0  0  0  0  0  0  0
   35.5180   28.8250   41.0620 O   0  0  0  0  0  0  0  0  0  0  0  0
   36.8540   30.4120   40.1390 C   0  0  0  0  0  0  0  0  0  0  0  0
   36.9440   31.8010   40.2420 C   0  0  0  0  0  0  0  0  0  0  0  0
   36.7900   32.2420   41.2310 H   0  0  0  0  0  0  0  0  0  0  0  0
   37.2080   32.6830   39.2230 C   0  0  0  0  0  3  0  0  0  0  0  0
   37.4000   32.1230   37.9780 C   0  0  0  0  0  0  0  0  0  0  0  0
   37.6120   32.7630   37.1340 H   0  0  0  0  0  0  0  0  0  0  0  0
   37.3310   30.7640   37.7790 C   0  0  0  0  0  0  0  0  0  0  0  0
   37.4850   30.3380   36.7990 H   0  0  0  0  0  0  0  0  0  0  0  0
   37.0620   29.9570   38.8600 C   0  0  0  0  0  3  0  0  0  0  0  0
  1  6  1  0  0  0  0
  2  1  2  0  0  0  0
  2  3  1  0  0  0  0
  3  4  2  0  0  0  0
  4  5  1  0  0  0  0
  5  8  1  0  0  0  0
  6  5  2  0  0  0  0
  7  3  1  0  0  0  0
  9 13  2  0  0  0  0
  9  2  1  0  0  0  0
 10  9  1  0  0  0  0
 11 10  2  0  0  0  0
 11 12  1  0  0  0  0
 12 16  1  0  0  0  0
 12 13  1  0  0  0  0
 14 10  1  0  0  0  0
 15 11  1  0  0  0  0
 17  1  1  0  0  0  0
 18 17  1  0  0  0  0
 19 18  2  0  0  0  0
 20 21  1  0  0  0  0
 20 18  1  0  0  0  0
 21 22  1  0  0  0  0
 23 21  2  0  0  0  0
 24 23  1  0  0  0  0
 25 24  1  0  0  0  0
 26 24  2  0  0  0  0
 26 28  1  0  0  0  0
 27 26  1  0  0  0  0
 28 20  2  0  0  0  0
M  END
>  <minimizedAffinity>
-4.96229362

$$$$

 OpenBabel03252508523D

 28 30  0  0  0  0  0  0  0  0999 V2000
   38.2090   30.5100   40.4270 C   0  0  0  0  0  0  0  0  0  0  0  0
   37.1520   31.0110   39.6760 C   0  0  0  0  0  0  0  0  0  0  0  0
   37.0630   32.4080   39.5950 C   0  0  0  0  0  0  0  0  0  0  0  0
   37.9910   33.1740   40.2370 N   0  0  0  0  0  0  0  0  0  0  0  0
   38.9820   32.6340   40.9410 C   0  0  0  0  0  0  0  0  0  0  0  0
   39.1020   31.3000   41.0440 N   0  0  0  0  0  0  0  0  0  0  0  0
   36.2460   32.8170   39.0150 H   0  0  0  0  0  0  0  0  0  0  0  0
   39.6890   33.2960   41.4290 H   0  0  0  0  0  0  0  0  0  0  0  0
   36.2200   30.1100   39.0330 C   0  0  0  0  0  0  0  0  0  0  0  0
   36.3560   29.7050   37.7170 C   0  0  0  0  0  0  0  0  0  0  0  0
   35.2690   28.8710   37.5300 C   0  0  0  0  0  0  0  0  0  0  0  0
   34.5290   28.7780   38.6500 N   0  0  0  0  0  0  0  0  0  0  0  0
   35.1230   29.5360   39.5470 N   0  0  0  0  0  0  0  0  0  0  0  0
   37.1020   29.9430   36.9670 H   0  0  0  0  0  0  0  0  0  0  0  0
   35.0420   28.3580   36.6030 H   0  0  0  0  0  0  0  0  0  0  0  0
   33.6590   28.1980   38.7320 H   0  0  0  0  0  0  0  0  0  0  0  0
   38.3340   29.1380   40.5340 O   0  0  0  0  0  0  0  0  0  0  0  0
   37.8470   28.3310   41.5200 C   0  0  0  0  0  0  0  0  0  0  0  0
   37.7030   28.6240   42.7620 O   0  0  0  0  0  0  0  0  0  0  0  0
   37.3970   26.9290   41.2810 C   0  0  0  0  0  0  0  0  0  0  0  0
   37.3130   25.9780   42.2990 C   0  0  0  0  0  0  0  0  0  0  0  0
   37.5950   26.2950   43.3070 H   0  0  0  0  0  0  0  0  0  0  0  0
   36.9110   24.6720   42.1680 C   0  0  0  0  0  3  0  0  0  0  0  0
   36.5580   24.2760   40.8950 C   0  0  0  0  0  0  0  0  0  0  0  0
   36.2320   23.2600   40.7260 H   0  0  0  0  0  0  0  0  0  0  0  0
   36.6080   25.1430   39.8290 C   0  0  0  0  0  0  0  0  0  0  0  0
   36.3280   24.8210   38.8380 H   0  0  0  0  0  0  0  0  0  0  0  0
   37.0240   26.4350   40.0550 C   0  0  0  0  0  3  0  0  0  0  0  0
  1 17  1  0  0  0  0
  1  6  1  0  0  0  0
  2  1  2  0  0  0  0
  3  2  1  0  0  0  0
  3  4  2  0  0  0  0
  4  5  1  0  0  0  0
  5  6  2  0  0  0  0
  5  8  1  0  0  0  0
  7  3  1  0  0  0  0
  9 13  2  0  0  0  0
  9  2  1  0  0  0  0
 10  9  1  0  0  0  0
 11 10  2  0  0  0  0
 11 12  1  0  0  0  0
 12 16  1  0  0  0  0
 12 13  1  0  0  0  0
 14 10  1  0  0  0  0
 15 11  1  0  0  0  0
 17 18  1  0  0  0  0
 18 19  2  0  0  0  0
 20 18  1  0  0  0  0
 20 21  1  0  0  0  0
 21 22  1  0  0  0  0
 23 21  2  0  0  0  0
 24 23  1  0  0  0  0
 25 24  1  0  0  0  0
 26 28  1  0  0  0  0
 26 24  2  0  0  0  0
 27 26  1  0  0  0  0
 28 20  2  0  0  0  0
M  END
>  <minimizedAffinity>
-4.93834925

$$$$

 OpenBabel03252508523D

 28 30  0  0  0  0  0  0  0  0999 V2000
   36.3340   29.8270   40.4170 C   0  0  0  0  0  0  0  0  0  0  0  0
   36.9790   30.6290   39.4820 C   0  0  0  0  0  0  0  0  0  0  0  0
   36.5640   30.4780   38.1520 C   0  0  0  0  0  0  0  0  0  0  0  0
   35.5800   29.5790   37.8580 N   0  0  0  0  0  0  0  0  0  0  0  0
   35.0000   28.8400   38.7990 C   0  0  0  0  0  0  0  0  0  0  0  0
   35.3690   28.9550   40.0850 N   0  0  0  0  0  0  0  0  0  0  0  0
   37.0550   31.0930   37.4090 H   0  0  0  0  0  0  0  0  0  0  0  0
   34.2240   28.1430   38.5030 H   0  0  0  0  0  0  0  0  0  0  0  0
   38.0120   31.5530   39.8990 C   0  0  0  0  0  0  0  0  0  0  0  0
   37.7580   32.8830   40.1830 C   0  0  0  0  0  0  0  0  0  0  0  0
   39.0030   33.3740   40.5290 C   0  0  0  0  0  0  0  0  0  0  0  0
   39.9420   32.4120   40.4600 N   0  0  0  0  0  0  0  0  0  0  0  0
   39.3190   31.3180   40.0770 N   0  0  0  0  0  0  0  0  0  0  0  0
   36.8390   33.4590   40.1600 H   0  0  0  0  0  0  0  0  0  0  0  0
   39.1990   34.3990   40.8200 H   0  0  0  0  0  0  0  0  0  0  0  0
   40.9560   32.5650   40.6810 H   0  0  0  0  0  0  0  0  0  0  0  0
   36.7120   29.9450   41.7410 O   0  0  0  0  0  0  0  0  0  0  0  0
   37.6280   29.1940   42.4160 C   0  0  0  0  0  0  0  0  0  0  0  0
   38.4390   29.5930   43.3280 O   0  0  0  0  0  0  0  0  0  0  0  0
   37.8270   27.7350   42.1740 C   0  0  0  0  0  0  0  0  0  0  0  0
   38.9620   27.2210   41.5440 C   0  0  0  0  0  0  0  0  0  0  0  0
   39.7250   27.9350   41.2220 H   0  0  0  0  0  0  0  0  0  0  0  0
   39.2240   25.8990   41.2820 C   0  0  0  0  0  3  0  0  0  0  0  0
   38.2600   25.0020   41.6880 C   0  0  0  0  0  0  0  0  0  0  0  0
   38.4070   23.9470   41.5110 H   0  0  0  0  0  0  0  0  0  0  0  0
   37.1090   25.4160   42.3170 C   0  0  0  0  0  0  0  0  0  0  0  0
   36.3610   24.7030   42.6300 H   0  0  0  0  0  0  0  0  0  0  0  0
   36.9300   26.7610   42.5380 C   0  0  0  0  0  3  0  0  0  0  0  0
  1 17  1  0  0  0  0
  2  9  1  0  0  0  0
  2  1  2  0  0  0  0
  3  2  1  0  0  0  0
  4  3  2  0  0  0  0
  4  5  1  0  0  0  0
  5  6  2  0  0  0  0
  6  1  1  0  0  0  0
  7  3  1  0  0  0  0
  8  5  1  0  0  0  0
  9 13  2  0  0  0  0
  9 10  1  0  0  0  0
 10 11  2  0  0  0  0
 11 15  1  0  0  0  0
 12 11  1  0  0  0  0
 12 16  1  0  0  0  0
 13 12  1  0  0  0  0
 14 10  1  0  0  0  0
 17 18  1  0  0  0  0
 18 19  2  0  0  0  0
 20 18  1  0  0  0  0
 20 28  1  0  0  0  0
 21 20  2  0  0  0  0
 22 21  1  0  0  0  0
 23 21  1  0  0  0  0
 23 24  2  0  0  0  0
 24 26  1  0  0  0  0
 25 24  1  0  0  0  0
 26 28  2  0  0  0  0
 26 27  1  0  0  0  0
M  END
>  <minimizedAffinity>
-4.92594814

$$$$
