
 OpenBabel03242517003D

 32 34  0  0  0  0  0  0  0  0999 V2000
   46.5890   34.7420   42.0110 C   0  0  0  0  0  0  0  0  0  0  0  0
   47.8920   35.2380   41.9420 C   0  0  0  0  0  0  0  0  0  0  0  0
   48.6040   35.0470   40.7720 C   0  0  0  0  0  0  0  0  0  0  0  0
   48.0120   34.3780   39.7120 C   0  0  0  0  0  0  0  0  0  0  0  0
   46.7430   33.8850   39.7560 C   0  0  0  0  0  0  0  0  0  0  0  0
   46.0480   34.0960   40.9610 C   0  0  0  0  0  0  0  0  0  0  0  0
   48.3350   35.7570   42.7790 H   0  0  0  0  0  0  0  0  0  0  0  0
   49.6090   35.4460   40.7600 H   0  0  0  0  0  0  0  0  0  0  0  0
   48.6000   34.2440   38.8040 H   0  0  0  0  0  0  0  0  0  0  0  0
   46.2730   33.3600   38.9300 H   0  0  0  0  0  0  0  0  0  0  0  0
   44.4940   36.1970   44.8050 C   0  0  0  0  0  0  0  0  0  0  0  0
   45.1260   36.0850   43.5480 C   0  0  0  0  0  0  0  0  0  0  0  0
   45.8890   34.9750   43.2680 C   0  0  0  0  0  0  0  0  0  0  0  0
   45.9770   34.0470   44.2490 N   0  0  0  0  0  0  0  0  0  0  0  0
   45.3870   34.1290   45.4540 C   0  0  0  0  0  0  0  0  0  0  0  0
   44.6290   35.2390   45.7230 N   0  0  0  0  0  0  0  0  0  0  0  0
   43.8980   37.1010   44.9780 H   0  0  0  0  0  0  0  0  0  0  0  0
   45.0530   36.8240   42.7690 H   0  0  0  0  0  0  0  0  0  0  0  0
   45.5190   33.3340   46.1760 H   0  0  0  0  0  0  0  0  0  0  0  0
   43.4260   34.1050   40.8310 C   0  0  0  0  0  0  0  0  0  0  0  0
   43.1670   35.1850   40.2500 O   0  0  0  0  0  0  0  0  0  0  0  0
   44.7250   33.6290   41.1340 N   0  0  0  0  0  0  0  0  0  0  0  0
   44.9200   32.7160   41.6050 H   0  0  0  0  0  0  0  0  0  0  0  0
   42.2760   33.2950   41.2130 C   0  0  0  0  0  0  0  0  0  0  0  0
   41.0340   33.8920   41.1830 C   0  0  0  0  0  0  0  0  0  0  0  0
   40.8540   34.9360   40.8910 H   0  0  0  0  0  0  0  0  0  0  0  0
   39.8770   33.1840   41.5370 C   0  0  0  0  0  0  0  0  0  0  0  0
   39.9280   31.8720   41.9260 C   0  0  0  0  0  0  0  0  0  0  0  0
   39.0230   31.3610   42.1900 H   0  0  0  0  0  0  0  0  0  0  0  0
   41.1660   31.2700   41.9590 C   0  0  0  0  0  0  0  0  0  0  0  0
   41.2730   30.2360   42.2580 H   0  0  0  0  0  0  0  0  0  0  0  0
   42.2920   31.9770   41.6100 C   0  0  0  0  0  0  0  0  0  0  0  0
  1 13  1  0  0  0  0
  2  1  1  0  0  0  0
  2  7  1  0  0  0  0
  3  2  2  0  0  0  0
  4  5  2  0  0  0  0
  4  3  1  0  0  0  0
  5  6  1  0  0  0  0
  6 22  1  0  0  0  0
  6  1  2  0  0  0  0
  8  3  1  0  0  0  0
  9  4  1  0  0  0  0
 10  5  1  0  0  0  0
 11 17  1  0  0  0  0
 11 16  1  0  0  0  0
 12 11  2  0  0  0  0
 13 12  1  0  0  0  0
 13 14  2  0  0  0  0
 14 15  1  0  0  0  0
 15 16  2  0  0  0  0
 15 19  1  0  0  0  0
 18 12  1  0  0  0  0
 20 22  1  0  0  0  0
 20 24  1  0  0  0  0
 21 20  2  0  0  0  0
 22 23  1  0  0  0  0
 24 32  1  0  0  0  0
 25 24  2  0  0  0  0
 25 27  1  0  0  0  0
 26 25  1  0  0  0  0
 27 28  2  0  0  0  0
 28 30  1  0  0  0  0
 28 29  1  0  0  0  0
 30 31  1  0  0  0  0
 32 30  2  0  0  0  0
M  END
>  <minimizedAffinity>
-6.3898468

>  <minimizedRMSD>
0.711234212

$$$$
