
 OpenBabel03252508513D

 28 30  0  0  0  0  0  0  0  0999 V2000
   46.0860   34.1870   41.0310 C   0  0  0  0  0  0  0  0  0  0  0  0
   46.6180   34.8420   42.1360 C   0  0  0  0  0  0  0  0  0  0  0  0
   47.9480   35.2670   42.0170 C   0  0  0  0  0  0  0  0  0  0  0  0
   48.6260   35.0220   40.8590 N   0  0  0  0  0  0  0  0  0  0  0  0
   48.0610   34.3890   39.8350 C   0  0  0  0  0  0  0  0  0  0  0  0
   46.7880   33.9660   39.9090 N   0  0  0  0  0  0  0  0  0  0  0  0
   48.3800   35.7790   42.8670 H   0  0  0  0  0  0  0  0  0  0  0  0
   48.6520   34.2230   38.9400 H   0  0  0  0  0  0  0  0  0  0  0  0
   45.8120   35.0530   43.3190 C   0  0  0  0  0  0  0  0  0  0  0  0
   45.0690   36.2010   43.5260 C   0  0  0  0  0  0  0  0  0  0  0  0
   44.4750   35.9770   44.7540 C   0  0  0  0  0  0  0  0  0  0  0  0
   44.8330   34.7800   45.2550 N   0  0  0  0  0  0  0  0  0  0  0  0
   45.6420   34.2380   44.3700 N   0  0  0  0  0  0  0  0  0  0  0  0
   44.9400   37.0910   42.9180 H   0  0  0  0  0  0  0  0  0  0  0  0
   43.8090   36.6720   45.2490 H   0  0  0  0  0  0  0  0  0  0  0  0
   44.4980   34.4060   46.1760 H   0  0  0  0  0  0  0  0  0  0  0  0
   44.7770   33.7510   41.1060 O   0  0  0  0  0  0  0  0  0  0  0  0
   43.6820   34.2930   40.4990 C   0  0  0  0  0  0  0  0  0  0  0  0
   43.2750   35.5080   40.5760 O   0  0  0  0  0  0  0  0  0  0  0  0
   42.7610   33.5110   39.6250 C   0  0  0  0  0  0  0  0  0  0  0  0
   41.3720   33.6070   39.7120 C   0  0  0  0  0  0  0  0  0  0  0  0
   40.9610   34.2910   40.4600 H   0  0  0  0  0  0  0  0  0  0  0  0
   40.4550   32.9260   38.9510 C   0  0  0  0  0  3  0  0  0  0  0  0
   40.9750   32.0650   38.0100 C   0  0  0  0  0  0  0  0  0  0  0  0
   40.3060   31.4990   37.3770 H   0  0  0  0  0  0  0  0  0  0  0  0
   42.3320   31.9040   37.8490 C   0  0  0  0  0  0  0  0  0  0  0  0
   42.7270   31.2260   37.1090 H   0  0  0  0  0  0  0  0  0  0  0  0
   43.1770   32.6280   38.6580 C   0  0  0  0  0  3  0  0  0  0  0  0
  1 17  1  0  0  0  0
  1  2  1  0  0  0  0
  2  9  1  0  0  0  0
  3  2  2  0  0  0  0
  3  7  1  0  0  0  0
  4  3  1  0  0  0  0
  5  6  1  0  0  0  0
  5  4  2  0  0  0  0
  6  1  2  0  0  0  0
  8  5  1  0  0  0  0
  9 10  1  0  0  0  0
  9 13  2  0  0  0  0
 10 11  2  0  0  0  0
 11 15  1  0  0  0  0
 11 12  1  0  0  0  0
 12 16  1  0  0  0  0
 13 12  1  0  0  0  0
 14 10  1  0  0  0  0
 18 19  2  0  0  0  0
 18 17  1  0  0  0  0
 20 21  1  0  0  0  0
 20 18  1  0  0  0  0
 21 22  1  0  0  0  0
 23 21  2  0  0  0  0
 24 23  1  0  0  0  0
 25 24  1  0  0  0  0
 26 24  2  0  0  0  0
 26 28  1  0  0  0  0
 27 26  1  0  0  0  0
 28 20  2  0  0  0  0
M  END
>  <minimizedAffinity>
-5.18885422

>  <minimizedRMSD>
0.168401778

$$$$
