
 OpenBabel03242520203D

 35 37  0  0  0  0  0  0  0  0999 V2000
   35.6320   28.6370   37.6490 C   0  0  0  0  0  0  0  0  0  0  0  0
   35.6330   29.4920   36.9690 H   0  0  0  0  0  0  0  0  0  0  0  0
   36.4390   27.9150   37.3450 H   0  0  0  0  0  0  0  0  0  0  0  0
   36.4550   28.7370   41.3380 C   0  0  0  0  0  0  0  0  0  0  0  0
   36.1120   28.2350   40.0630 C   0  0  0  0  0  0  0  0  0  0  0  0
   35.9840   29.1220   39.0040 C   0  0  0  0  0  0  0  0  0  0  0  0
   36.2000   30.4470   39.2660 N   0  0  0  0  0  0  0  0  0  0  0  0
   36.5310   30.8820   40.5190 C   0  0  0  0  0  0  0  0  0  0  0  0
   36.6560   30.0360   41.5370 N   0  0  0  0  0  0  0  0  0  0  0  0
   35.9550   27.1680   39.9390 H   0  0  0  0  0  0  0  0  0  0  0  0
   36.6950   31.9420   40.6870 H   0  0  0  0  0  0  0  0  0  0  0  0
   36.5820   27.7860   42.4710 C   0  0  0  0  0  0  0  0  0  0  0  0
   38.0640   27.3130   42.6810 C   0  0  0  0  0  0  0  0  0  0  0  0
   37.2740   28.0440   43.6790 C   0  0  0  0  0  0  0  0  0  0  0  0
   35.8610   26.9240   42.3950 H   0  0  0  0  0  0  0  0  0  0  0  0
   38.1960   26.2210   42.7050 H   0  0  0  0  0  0  0  0  0  0  0  0
   38.8400   27.8250   42.0920 H   0  0  0  0  0  0  0  0  0  0  0  0
   37.6630   29.0340   44.0030 H   0  0  0  0  0  0  0  0  0  0  0  0
   36.9510   27.4590   44.5920 H   0  0  0  0  0  0  0  0  0  0  0  0
   34.3160   27.8860   37.6800 C   0  0  0  0  0  0  0  0  0  0  0  0
   34.4170   27.1630   38.5390 H   0  0  0  0  0  0  0  0  0  0  0  0
   34.2030   27.3050   36.7620 H   0  0  0  0  0  0  0  0  0  0  0  0
   32.4530   29.2180   36.8530 C   0  0  0  0  0  0  0  0  0  0  0  0
   32.6610   28.9330   35.6390 O   0  0  0  0  0  0  0  0  0  0  0  0
   33.1900   28.7460   37.9640 N   0  0  0  0  0  0  0  0  0  0  0  0
   32.9840   28.9680   38.9390 H   0  0  0  0  0  0  0  0  0  0  0  0
   31.3280   30.1260   37.0550 C   0  0  0  0  0  0  0  0  0  0  0  0
   30.5460   30.0420   38.1900 C   0  0  0  0  0  0  0  0  0  0  0  0
   30.7430   29.2960   38.9760 H   0  0  0  0  0  0  0  0  0  0  0  0
   29.4510   30.8720   38.4620 C   0  0  0  0  0  3  0  0  0  0  0  0
   29.1280   31.8380   37.5340 C   0  0  0  0  0  0  0  0  0  0  0  0
   28.2950   32.5060   37.6890 H   0  0  0  0  0  0  0  0  0  0  0  0
   29.8800   31.9590   36.3860 C   0  0  0  0  0  0  0  0  0  0  0  0
   29.6470   32.7190   35.6290 H   0  0  0  0  0  0  0  0  0  0  0  0
   30.9490   31.1150   36.1700 C   0  0  0  0  0  3  0  0  0  0  0  0
  1 20  1  0  0  0  0
  1  6  1  0  0  0  0
  2  1  1  0  0  0  0
  3  1  1  0  0  0  0
  4  9  1  0  0  0  0
  4 12  1  0  0  0  0
  5  4  2  0  0  0  0
  6  7  2  0  0  0  0
  6  5  1  0  0  0  0
  7  8  1  0  0  0  0
  8 11  1  0  0  0  0
  8  9  2  0  0  0  0
 10  5  1  0  0  0  0
 12 13  1  0  0  0  0
 12 14  1  0  0  0  0
 13 16  1  0  0  0  0
 13 14  1  0  0  0  0
 14 18  1  0  0  0  0
 14 19  1  0  0  0  0
 15 12  1  0  0  0  0
 17 13  1  0  0  0  0
 20 25  1  0  0  0  0
 20 21  1  0  0  0  0
 22 20  1  0  0  0  0
 23 27  1  0  0  0  0
 23 25  1  0  0  0  0
 24 23  2  0  0  0  0
 25 26  1  0  0  0  0
 27 28  1  0  0  0  0
 28 30  2  0  0  0  0
 28 29  1  0  0  0  0
 31 32  1  0  0  0  0
 31 30  1  0  0  0  0
 33 31  2  0  0  0  0
 34 33  1  0  0  0  0
 35 33  1  0  0  0  0
 35 27  2  0  0  0  0
M  END
>  <minimizedAffinity>
-5.31212664

$$$$

 OpenBabel03242520203D

 35 37  0  0  0  0  0  0  0  0999 V2000
   38.1530   27.5080   43.6260 C   0  0  0  0  0  0  0  0  0  0  0  0
   38.1710   27.2810   44.6940 H   0  0  0  0  0  0  0  0  0  0  0  0
   39.0460   28.1400   43.3630 H   0  0  0  0  0  0  0  0  0  0  0  0
   37.4070   24.4990   41.4640 C   0  0  0  0  0  0  0  0  0  0  0  0
   37.2280   25.7090   42.1690 C   0  0  0  0  0  0  0  0  0  0  0  0
   38.2960   26.2370   42.8790 C   0  0  0  0  0  0  0  0  0  0  0  0
   39.4730   25.5410   42.8530 N   0  0  0  0  0  0  0  0  0  0  0  0
   39.5950   24.3720   42.1530 C   0  0  0  0  0  0  0  0  0  0  0  0
   38.5740   23.8620   41.4700 N   0  0  0  0  0  0  0  0  0  0  0  0
   36.2600   26.2000   42.1410 H   0  0  0  0  0  0  0  0  0  0  0  0
   40.5450   23.8480   42.1560 H   0  0  0  0  0  0  0  0  0  0  0  0
   36.2580   23.9310   40.7120 C   0  0  0  0  0  0  0  0  0  0  0  0
   36.1920   24.4720   39.2410 C   0  0  0  0  0  0  0  0  0  0  0  0
   36.3600   23.0590   39.6020 C   0  0  0  0  0  0  0  0  0  0  0  0
   35.2810   24.0500   41.2610 H   0  0  0  0  0  0  0  0  0  0  0  0
   35.2210   24.9050   38.9560 H   0  0  0  0  0  0  0  0  0  0  0  0
   37.0460   25.0700   38.8880 H   0  0  0  0  0  0  0  0  0  0  0  0
   37.2920   22.5590   39.2560 H   0  0  0  0  0  0  0  0  0  0  0  0
   35.4800   22.3790   39.3980 H   0  0  0  0  0  0  0  0  0  0  0  0
   36.9070   28.2470   43.1820 C   0  0  0  0  0  0  0  0  0  0  0  0
   36.2580   28.2970   44.1030 H   0  0  0  0  0  0  0  0  0  0  0  0
   36.3790   27.6580   42.4300 H   0  0  0  0  0  0  0  0  0  0  0  0
   37.4340   29.8120   41.3920 C   0  0  0  0  0  0  0  0  0  0  0  0
   37.4090   28.9320   40.4850 O   0  0  0  0  0  0  0  0  0  0  0  0
   37.1810   29.6050   42.7680 N   0  0  0  0  0  0  0  0  0  0  0  0
   37.1790   30.3370   43.4790 H   0  0  0  0  0  0  0  0  0  0  0  0
   37.7610   31.1470   40.9030 C   0  0  0  0  0  0  0  0  0  0  0  0
   36.9450   31.7860   39.9910 C   0  0  0  0  0  0  0  0  0  0  0  0
   36.0260   31.3160   39.6060 H   0  0  0  0  0  0  0  0  0  0  0  0
   37.1840   33.0660   39.4710 C   0  0  0  0  0  3  0  0  0  0  0  0
   38.3120   33.7330   39.8960 C   0  0  0  0  0  0  0  0  0  0  0  0
   38.5480   34.7200   39.5310 H   0  0  0  0  0  0  0  0  0  0  0  0
   39.1560   33.1350   40.8050 C   0  0  0  0  0  0  0  0  0  0  0  0
   40.0620   33.6410   41.1630 H   0  0  0  0  0  0  0  0  0  0  0  0
   38.8710   31.8730   41.2850 C   0  0  0  0  0  3  0  0  0  0  0  0
  1  2  1  0  0  0  0
  3  1  1  0  0  0  0
  4  9  2  0  0  0  0
  4  5  1  0  0  0  0
  5  6  2  0  0  0  0
  6  1  1  0  0  0  0
  7  6  1  0  0  0  0
  8 11  1  0  0  0  0
  8  7  2  0  0  0  0
  9  8  1  0  0  0  0
 10  5  1  0  0  0  0
 12 15  1  0  0  0  0
 12  4  1  0  0  0  0
 13 14  1  0  0  0  0
 13 12  1  0  0  0  0
 14 12  1  0  0  0  0
 16 13  1  0  0  0  0
 17 13  1  0  0  0  0
 18 14  1  0  0  0  0
 19 14  1  0  0  0  0
 20  1  1  0  0  0  0
 20 21  1  0  0  0  0
 22 20  1  0  0  0  0
 23 25  1  0  0  0  0
 24 23  2  0  0  0  0
 25 20  1  0  0  0  0
 25 26  1  0  0  0  0
 27 35  1  0  0  0  0
 27 23  1  0  0  0  0
 28 27  2  0  0  0  0
 29 28  1  0  0  0  0
 30 31  2  0  0  0  0
 30 28  1  0  0  0  0
 31 33  1  0  0  0  0
 32 31  1  0  0  0  0
 33 34  1  0  0  0  0
 33 35  2  0  0  0  0
M  END
>  <minimizedAffinity>
-5.28597403

$$$$

 OpenBabel03242520203D

 35 37  0  0  0  0  0  0  0  0999 V2000
   35.5270   28.8390   37.3700 C   0  0  0  0  0  0  0  0  0  0  0  0
   35.3990   29.4980   36.5090 H   0  0  0  0  0  0  0  0  0  0  0  0
   36.3740   28.1260   37.1730 H   0  0  0  0  0  0  0  0  0  0  0  0
   37.1130   31.5300   39.5000 C   0  0  0  0  0  0  0  0  0  0  0  0
   36.7610   30.7620   38.3680 C   0  0  0  0  0  0  0  0  0  0  0  0
   35.9280   29.6660   38.5320 C   0  0  0  0  0  0  0  0  0  0  0  0
   35.4960   29.3910   39.8000 N   0  0  0  0  0  0  0  0  0  0  0  0
   35.8660   30.1660   40.8650 C   0  0  0  0  0  0  0  0  0  0  0  0
   36.6640   31.2190   40.7120 N   0  0  0  0  0  0  0  0  0  0  0  0
   37.1480   31.0470   37.3930 H   0  0  0  0  0  0  0  0  0  0  0  0
   35.5020   29.9150   41.8560 H   0  0  0  0  0  0  0  0  0  0  0  0
   38.0130   32.6980   39.3210 C   0  0  0  0  0  0  0  0  0  0  0  0
   37.2310   34.0570   39.3750 C   0  0  0  0  0  0  0  0  0  0  0  0
   38.2940   33.6700   40.3110 C   0  0  0  0  0  0  0  0  0  0  0  0
   38.6610   32.6080   38.4040 H   0  0  0  0  0  0  0  0  0  0  0  0
   37.4050   34.7190   38.5130 H   0  0  0  0  0  0  0  0  0  0  0  0
   36.1730   34.0140   39.6750 H   0  0  0  0  0  0  0  0  0  0  0  0
   38.0170   33.5980   41.3850 H   0  0  0  0  0  0  0  0  0  0  0  0
   39.2730   34.2290   40.2200 H   0  0  0  0  0  0  0  0  0  0  0  0
   34.2930   28.0240   37.7000 C   0  0  0  0  0  0  0  0  0  0  0  0
   34.5700   27.4450   38.6270 H   0  0  0  0  0  0  0  0  0  0  0  0
   34.1020   27.3050   36.9000 H   0  0  0  0  0  0  0  0  0  0  0  0
   32.3430   29.2710   36.9450 C   0  0  0  0  0  0  0  0  0  0  0  0
   32.5020   28.9700   35.7270 O   0  0  0  0  0  0  0  0  0  0  0  0
   33.1510   28.8470   38.0250 N   0  0  0  0  0  0  0  0  0  0  0  0
   32.9860   29.0800   39.0060 H   0  0  0  0  0  0  0  0  0  0  0  0
   31.1960   30.1410   37.1870 C   0  0  0  0  0  0  0  0  0  0  0  0
   30.4050   29.9720   38.3050 C   0  0  0  0  0  0  0  0  0  0  0  0
   30.6090   29.1850   39.0480 H   0  0  0  0  0  0  0  0  0  0  0  0
   29.2880   30.7610   38.6140 C   0  0  0  0  0  3  0  0  0  0  0  0
   28.9540   31.7740   37.7410 C   0  0  0  0  0  0  0  0  0  0  0  0
   28.1060   32.4140   37.9260 H   0  0  0  0  0  0  0  0  0  0  0  0
   29.7160   31.9790   36.6120 C   0  0  0  0  0  0  0  0  0  0  0  0
   29.4750   32.7780   35.8980 H   0  0  0  0  0  0  0  0  0  0  0  0
   30.8060   31.1720   36.3580 C   0  0  0  0  0  3  0  0  0  0  0  0
  1 20  1  0  0  0  0
  1  6  1  0  0  0  0
  2  1  1  0  0  0  0
  3  1  1  0  0  0  0
  4  9  1  0  0  0  0
  5  6  1  0  0  0  0
  5  4  2  0  0  0  0
  6  7  2  0  0  0  0
  7  8  1  0  0  0  0
  8 11  1  0  0  0  0
  9  8  2  0  0  0  0
 10  5  1  0  0  0  0
 12 13  1  0  0  0  0
 12  4  1  0  0  0  0
 12 14  1  0  0  0  0
 13 17  1  0  0  0  0
 13 14  1  0  0  0  0
 14 18  1  0  0  0  0
 15 12  1  0  0  0  0
 16 13  1  0  0  0  0
 19 14  1  0  0  0  0
 20 25  1  0  0  0  0
 20 21  1  0  0  0  0
 22 20  1  0  0  0  0
 23 27  1  0  0  0  0
 23 25  1  0  0  0  0
 24 23  2  0  0  0  0
 25 26  1  0  0  0  0
 27 28  1  0  0  0  0
 28 30  2  0  0  0  0
 28 29  1  0  0  0  0
 31 32  1  0  0  0  0
 31 30  1  0  0  0  0
 33 31  2  0  0  0  0
 34 33  1  0  0  0  0
 35 33  1  0  0  0  0
 35 27  2  0  0  0  0
M  END
>  <minimizedAffinity>
-5.12856674

$$$$

 OpenBabel03242520203D

 35 37  0  0  0  0  0  0  0  0999 V2000
   36.5890   27.3010   43.2730 C   0  0  0  0  0  0  0  0  0  0  0  0
   35.5440   27.6160   43.2320 H   0  0  0  0  0  0  0  0  0  0  0  0
   36.7050   26.4870   44.0410 H   0  0  0  0  0  0  0  0  0  0  0  0
   37.9810   24.9840   40.6300 C   0  0  0  0  0  0  0  0  0  0  0  0
   37.6680   25.5230   41.8970 C   0  0  0  0  0  0  0  0  0  0  0  0
   36.9450   26.7050   41.9650 C   0  0  0  0  0  0  0  0  0  0  0  0
   36.5780   27.2850   40.7810 N   0  0  0  0  0  0  0  0  0  0  0  0
   36.9060   26.7220   39.5790 C   0  0  0  0  0  0  0  0  0  0  0  0
   37.5970   25.5890   39.5090 N   0  0  0  0  0  0  0  0  0  0  0  0
   37.9980   25.0020   42.7910 H   0  0  0  0  0  0  0  0  0  0  0  0
   36.5960   27.2120   38.6610 H   0  0  0  0  0  0  0  0  0  0  0  0
   38.7620   23.7240   40.5610 C   0  0  0  0  0  0  0  0  0  0  0  0
   37.8400   22.4680   40.3760 C   0  0  0  0  0  0  0  0  0  0  0  0
   38.8710   22.8920   39.4210 C   0  0  0  0  0  0  0  0  0  0  0  0
   39.4780   23.6110   41.4240 H   0  0  0  0  0  0  0  0  0  0  0  0
   38.0020   21.6690   41.1160 H   0  0  0  0  0  0  0  0  0  0  0  0
   36.7740   22.6550   40.1760 H   0  0  0  0  0  0  0  0  0  0  0  0
   38.5290   23.1530   38.3950 H   0  0  0  0  0  0  0  0  0  0  0  0
   39.7890   22.2360   39.3470 H   0  0  0  0  0  0  0  0  0  0  0  0
   37.5480   28.4200   43.6250 C   0  0  0  0  0  0  0  0  0  0  0  0
   38.5650   28.0300   43.3330 H   0  0  0  0  0  0  0  0  0  0  0  0
   37.5470   28.5790   44.7060 H   0  0  0  0  0  0  0  0  0  0  0  0
   38.3260   30.0250   41.9670 C   0  0  0  0  0  0  0  0  0  0  0  0
   39.4110   29.4160   41.7440 O   0  0  0  0  0  0  0  0  0  0  0  0
   37.3070   29.6230   42.8610 N   0  0  0  0  0  0  0  0  0  0  0  0
   36.4240   30.1170   43.0030 H   0  0  0  0  0  0  0  0  0  0  0  0
   38.1750   31.2530   41.1920 C   0  0  0  0  0  0  0  0  0  0  0  0
   39.0910   32.2790   41.3080 C   0  0  0  0  0  0  0  0  0  0  0  0
   39.9600   32.2080   41.9810 H   0  0  0  0  0  0  0  0  0  0  0  0
   39.0230   33.4880   40.6020 C   0  0  0  0  0  3  0  0  0  0  0  0
   37.9680   33.6680   39.7340 C   0  0  0  0  0  0  0  0  0  0  0  0
   37.8620   34.5760   39.1640 H   0  0  0  0  0  0  0  0  0  0  0  0
   37.0290   32.6700   39.5860 C   0  0  0  0  0  0  0  0  0  0  0  0
   36.1780   32.7840   38.9020 H   0  0  0  0  0  0  0  0  0  0  0  0
   37.1470   31.5000   40.3060 C   0  0  0  0  0  3  0  0  0  0  0  0
  1 20  1  0  0  0  0
  1  3  1  0  0  0  0
  2  1  1  0  0  0  0
  4  5  1  0  0  0  0
  5  6  2  0  0  0  0
  5 10  1  0  0  0  0
  6  1  1  0  0  0  0
  7  6  1  0  0  0  0
  8  7  2  0  0  0  0
  9  8  1  0  0  0  0
  9  4  2  0  0  0  0
 11  8  1  0  0  0  0
 12  4  1  0  0  0  0
 12 15  1  0  0  0  0
 13 12  1  0  0  0  0
 13 16  1  0  0  0  0
 14 13  1  0  0  0  0
 14 12  1  0  0  0  0
 17 13  1  0  0  0  0
 18 14  1  0  0  0  0
 19 14  1  0  0  0  0
 20 22  1  0  0  0  0
 21 20  1  0  0  0  0
 23 25  1  0  0  0  0
 24 23  2  0  0  0  0
 25 26  1  0  0  0  0
 25 20  1  0  0  0  0
 27 28  1  0  0  0  0
 27 23  1  0  0  0  0
 28 29  1  0  0  0  0
 30 28  2  0  0  0  0
 31 30  1  0  0  0  0
 32 31  1  0  0  0  0
 33 31  2  0  0  0  0
 33 35  1  0  0  0  0
 34 33  1  0  0  0  0
 35 27  2  0  0  0  0
M  END
>  <minimizedAffinity>
-5.07707548

$$$$

 OpenBabel03242520203D

 35 37  0  0  0  0  0  0  0  0999 V2000
   36.5760   30.9470   39.9930 C   0  0  0  0  0  0  0  0  0  0  0  0
   35.7400   31.4660   39.5180 H   0  0  0  0  0  0  0  0  0  0  0  0
   36.9750   30.1620   39.2940 H   0  0  0  0  0  0  0  0  0  0  0  0
   39.9300   32.4740   40.8360 C   0  0  0  0  0  0  0  0  0  0  0  0
   38.9120   31.5120   40.6560 C   0  0  0  0  0  0  0  0  0  0  0  0
   37.6690   31.9250   40.2030 C   0  0  0  0  0  0  0  0  0  0  0  0
   37.5020   33.2600   39.9580 N   0  0  0  0  0  0  0  0  0  0  0  0
   38.5200   34.1540   40.1490 C   0  0  0  0  0  0  0  0  0  0  0  0
   39.7150   33.7620   40.5820 N   0  0  0  0  0  0  0  0  0  0  0  0
   39.1250   30.4690   40.8750 H   0  0  0  0  0  0  0  0  0  0  0  0
   38.3500   35.2060   39.9430 H   0  0  0  0  0  0  0  0  0  0  0  0
   41.2580   32.0290   41.3300 C   0  0  0  0  0  0  0  0  0  0  0  0
   42.2760   31.8030   40.1580 C   0  0  0  0  0  0  0  0  0  0  0  0
   42.4550   32.7790   41.2400 C   0  0  0  0  0  0  0  0  0  0  0  0
   41.1870   31.1400   42.0190 H   0  0  0  0  0  0  0  0  0  0  0  0
   42.7610   30.8140   40.1580 H   0  0  0  0  0  0  0  0  0  0  0  0
   41.9630   32.1260   39.1530 H   0  0  0  0  0  0  0  0  0  0  0  0
   42.5280   33.8490   40.9450 H   0  0  0  0  0  0  0  0  0  0  0  0
   43.2650   32.5500   41.9960 H   0  0  0  0  0  0  0  0  0  0  0  0
   36.2100   30.2730   41.3000 C   0  0  0  0  0  0  0  0  0  0  0  0
   35.0840   30.3140   41.3390 H   0  0  0  0  0  0  0  0  0  0  0  0
   36.5970   30.8580   42.1370 H   0  0  0  0  0  0  0  0  0  0  0  0
   37.4380   28.4820   42.4020 C   0  0  0  0  0  0  0  0  0  0  0  0
   37.8530   29.2160   43.3440 O   0  0  0  0  0  0  0  0  0  0  0  0
   36.5980   28.8810   41.3370 N   0  0  0  0  0  0  0  0  0  0  0  0
   36.2510   28.2620   40.6020 H   0  0  0  0  0  0  0  0  0  0  0  0
   37.9080   27.1030   42.4850 C   0  0  0  0  0  0  0  0  0  0  0  0
   39.1120   26.8010   43.0900 C   0  0  0  0  0  0  0  0  0  0  0  0
   39.7530   27.5820   43.5280 H   0  0  0  0  0  0  0  0  0  0  0  0
   39.6360   25.5070   43.2130 C   0  0  0  0  0  3  0  0  0  0  0  0
   38.9020   24.4630   42.6930 C   0  0  0  0  0  0  0  0  0  0  0  0
   39.2550   23.4460   42.7580 H   0  0  0  0  0  0  0  0  0  0  0  0
   37.6950   24.7170   42.0800 C   0  0  0  0  0  0  0  0  0  0  0  0
   37.0880   23.9050   41.6570 H   0  0  0  0  0  0  0  0  0  0  0  0
   37.2270   26.0110   41.9880 C   0  0  0  0  0  3  0  0  0  0  0  0
  1  6  1  0  0  0  0
  1 20  1  0  0  0  0
  2  1  1  0  0  0  0
  3  1  1  0  0  0  0
  4 12  1  0  0  0  0
  5  4  1  0  0  0  0
  5 10  1  0  0  0  0
  6  5  2  0  0  0  0
  7  8  2  0  0  0  0
  7  6  1  0  0  0  0
  8  9  1  0  0  0  0
  9  4  2  0  0  0  0
 11  8  1  0  0  0  0
 12 15  1  0  0  0  0
 13 16  1  0  0  0  0
 13 14  1  0  0  0  0
 13 12  1  0  0  0  0
 14 12  1  0  0  0  0
 14 19  1  0  0  0  0
 17 13  1  0  0  0  0
 18 14  1  0  0  0  0
 20 25  1  0  0  0  0
 20 21  1  0  0  0  0
 20 22  1  0  0  0  0
 23 27  1  0  0  0  0
 23 24  2  0  0  0  0
 25 23  1  0  0  0  0
 26 25  1  0  0  0  0
 27 28  1  0  0  0  0
 28 30  2  0  0  0  0
 28 29  1  0  0  0  0
 31 32  1  0  0  0  0
 31 30  1  0  0  0  0
 33 31  2  0  0  0  0
 34 33  1  0  0  0  0
 35 33  1  0  0  0  0
 35 27  2  0  0  0  0
M  END
>  <minimizedAffinity>
-5.0120635

$$$$

 OpenBabel03242520203D

 35 37  0  0  0  0  0  0  0  0999 V2000
   38.6550   29.0340   43.0240 C   0  0  0  0  0  0  0  0  0  0  0  0
   39.5050   28.5380   42.5490 H   0  0  0  0  0  0  0  0  0  0  0  0
   39.0200   29.6700   43.8760 H   0  0  0  0  0  0  0  0  0  0  0  0
   38.1950   31.7700   40.4560 C   0  0  0  0  0  0  0  0  0  0  0  0
   38.8130   30.9170   41.3960 C   0  0  0  0  0  0  0  0  0  0  0  0
   38.0460   29.9550   42.0360 C   0  0  0  0  0  0  0  0  0  0  0  0
   36.7180   29.8940   41.7130 N   0  0  0  0  0  0  0  0  0  0  0  0
   36.1670   30.7450   40.7940 C   0  0  0  0  0  0  0  0  0  0  0  0
   36.8990   31.6680   40.1770 N   0  0  0  0  0  0  0  0  0  0  0  0
   39.8740   31.0310   41.5980 H   0  0  0  0  0  0  0  0  0  0  0  0
   35.1090   30.6660   40.5630 H   0  0  0  0  0  0  0  0  0  0  0  0
   39.0180   32.8050   39.7790 C   0  0  0  0  0  0  0  0  0  0  0  0
   39.0250   34.1610   40.5670 C   0  0  0  0  0  0  0  0  0  0  0  0
   40.2190   33.3550   40.2900 C   0  0  0  0  0  0  0  0  0  0  0  0
   38.7430   32.9360   38.6950 H   0  0  0  0  0  0  0  0  0  0  0  0
   38.7430   35.0400   39.9680 H   0  0  0  0  0  0  0  0  0  0  0  0
   38.5640   34.1610   41.5680 H   0  0  0  0  0  0  0  0  0  0  0  0
   40.7840   32.9720   41.1680 H   0  0  0  0  0  0  0  0  0  0  0  0
   40.9510   33.7800   39.5390 H   0  0  0  0  0  0  0  0  0  0  0  0
   37.6150   28.0740   43.5650 C   0  0  0  0  0  0  0  0  0  0  0  0
   36.7410   28.7270   43.8490 H   0  0  0  0  0  0  0  0  0  0  0  0
   37.9910   27.6000   44.4750 H   0  0  0  0  0  0  0  0  0  0  0  0
   37.9300   25.9670   42.3860 C   0  0  0  0  0  0  0  0  0  0  0  0
   38.9700   25.6500   43.0320 O   0  0  0  0  0  0  0  0  0  0  0  0
   37.1520   27.1340   42.5700 N   0  0  0  0  0  0  0  0  0  0  0  0
   36.2990   27.3550   42.0550 H   0  0  0  0  0  0  0  0  0  0  0  0
   37.5520   24.9900   41.3700 C   0  0  0  0  0  0  0  0  0  0  0  0
   38.0620   23.7070   41.3980 C   0  0  0  0  0  0  0  0  0  0  0  0
   38.7640   23.3790   42.1810 H   0  0  0  0  0  0  0  0  0  0  0  0
   37.7520   22.7090   40.4650 C   0  0  0  0  0  3  0  0  0  0  0  0
   36.8800   23.0280   39.4460 C   0  0  0  0  0  0  0  0  0  0  0  0
   36.6050   22.3010   38.6990 H   0  0  0  0  0  0  0  0  0  0  0  0
   36.3460   24.2960   39.3780 C   0  0  0  0  0  0  0  0  0  0  0  0
   35.6490   24.5790   38.5790 H   0  0  0  0  0  0  0  0  0  0  0  0
   36.6860   25.2390   40.3250 C   0  0  0  0  0  3  0  0  0  0  0  0
  1 20  1  0  0  0  0
  1  3  1  0  0  0  0
  2  1  1  0  0  0  0
  4  5  1  0  0  0  0
  5 10  1  0  0  0  0
  5  6  2  0  0  0  0
  6  1  1  0  0  0  0
  7  6  1  0  0  0  0
  8  7  2  0  0  0  0
  9  4  2  0  0  0  0
  9  8  1  0  0  0  0
 11  8  1  0  0  0  0
 12 14  1  0  0  0  0
 12  4  1  0  0  0  0
 12 13  1  0  0  0  0
 13 17  1  0  0  0  0
 14 13  1  0  0  0  0
 14 18  1  0  0  0  0
 15 12  1  0  0  0  0
 16 13  1  0  0  0  0
 19 14  1  0  0  0  0
 20 21  1  0  0  0  0
 20 22  1  0  0  0  0
 23 25  1  0  0  0  0
 23 24  2  0  0  0  0
 25 20  1  0  0  0  0
 26 25  1  0  0  0  0
 27 28  1  0  0  0  0
 27 23  1  0  0  0  0
 28 29  1  0  0  0  0
 30 28  2  0  0  0  0
 31 30  1  0  0  0  0
 32 31  1  0  0  0  0
 33 31  2  0  0  0  0
 33 35  1  0  0  0  0
 34 33  1  0  0  0  0
 35 27  2  0  0  0  0
M  END
>  <minimizedAffinity>
-5.00873089

$$$$

 OpenBabel03242520203D

 35 37  0  0  0  0  0  0  0  0999 V2000
   40.2940   30.3350   42.4160 C   0  0  0  0  0  0  0  0  0  0  0  0
   40.9790   29.5700   42.0420 H   0  0  0  0  0  0  0  0  0  0  0  0
   40.7710   30.8750   43.2790 H   0  0  0  0  0  0  0  0  0  0  0  0
   38.7960   32.2890   39.5470 C   0  0  0  0  0  0  0  0  0  0  0  0
   38.9540   31.3100   40.5530 C   0  0  0  0  0  0  0  0  0  0  0  0
   40.0920   31.3380   41.3450 C   0  0  0  0  0  0  0  0  0  0  0  0
   41.0050   32.3260   41.0970 N   0  0  0  0  0  0  0  0  0  0  0  0
   40.8040   33.2520   40.1110 C   0  0  0  0  0  0  0  0  0  0  0  0
   39.7140   33.2300   39.3490 N   0  0  0  0  0  0  0  0  0  0  0  0
   38.1830   30.5570   40.6850 H   0  0  0  0  0  0  0  0  0  0  0  0
   41.5520   34.0220   39.9440 H   0  0  0  0  0  0  0  0  0  0  0  0
   37.5800   32.2500   38.6950 C   0  0  0  0  0  0  0  0  0  0  0  0
   37.8240   31.4720   37.3550 C   0  0  0  0  0  0  0  0  0  0  0  0
   36.8440   31.0830   38.3770 C   0  0  0  0  0  0  0  0  0  0  0  0
   37.1370   33.2720   38.5270 H   0  0  0  0  0  0  0  0  0  0  0  0
   37.5520   32.0300   36.4460 H   0  0  0  0  0  0  0  0  0  0  0  0
   38.7790   30.9330   37.2560 H   0  0  0  0  0  0  0  0  0  0  0  0
   36.9780   30.0850   38.8490 H   0  0  0  0  0  0  0  0  0  0  0  0
   35.7540   31.2190   38.1060 H   0  0  0  0  0  0  0  0  0  0  0  0
   38.9630   29.7830   42.8830 C   0  0  0  0  0  0  0  0  0  0  0  0
   38.1900   30.4400   42.3900 H   0  0  0  0  0  0  0  0  0  0  0  0
   38.8710   29.9110   43.9650 H   0  0  0  0  0  0  0  0  0  0  0  0
   37.4720   28.1530   41.8590 C   0  0  0  0  0  0  0  0  0  0  0  0
   36.5410   28.9850   41.6600 O   0  0  0  0  0  0  0  0  0  0  0  0
   38.7330   28.4280   42.4380 N   0  0  0  0  0  0  0  0  0  0  0  0
   39.4810   27.7440   42.5620 H   0  0  0  0  0  0  0  0  0  0  0  0
   37.1470   26.7990   41.4240 C   0  0  0  0  0  0  0  0  0  0  0  0
   37.1700   25.7450   42.3150 C   0  0  0  0  0  0  0  0  0  0  0  0
   37.4300   25.8880   43.3760 H   0  0  0  0  0  0  0  0  0  0  0  0
   36.8720   24.4170   41.9820 C   0  0  0  0  0  3  0  0  0  0  0  0
   36.5340   24.1400   40.6750 C   0  0  0  0  0  0  0  0  0  0  0  0
   36.2950   23.1370   40.3600 H   0  0  0  0  0  0  0  0  0  0  0  0
   36.4990   25.1610   39.7500 C   0  0  0  0  0  0  0  0  0  0  0  0
   36.2340   24.9720   38.7020 H   0  0  0  0  0  0  0  0  0  0  0  0
   36.8010   26.4510   40.1340 C   0  0  0  0  0  3  0  0  0  0  0  0
  1 20  1  0  0  0  0
  1  3  1  0  0  0  0
  2  1  1  0  0  0  0
  4  5  1  0  0  0  0
  5 10  1  0  0  0  0
  5  6  2  0  0  0  0
  6  1  1  0  0  0  0
  7  6  1  0  0  0  0
  8  7  2  0  0  0  0
  9  4  2  0  0  0  0
  9  8  1  0  0  0  0
 11  8  1  0  0  0  0
 12  4  1  0  0  0  0
 13 14  1  0  0  0  0
 13 12  1  0  0  0  0
 14 12  1  0  0  0  0
 14 18  1  0  0  0  0
 15 12  1  0  0  0  0
 16 13  1  0  0  0  0
 17 13  1  0  0  0  0
 19 14  1  0  0  0  0
 20 22  1  0  0  0  0
 21 20  1  0  0  0  0
 23 25  1  0  0  0  0
 24 23  2  0  0  0  0
 25 26  1  0  0  0  0
 25 20  1  0  0  0  0
 27 23  1  0  0  0  0
 27 28  1  0  0  0  0
 28 29  1  0  0  0  0
 30 28  2  0  0  0  0
 31 30  1  0  0  0  0
 32 31  1  0  0  0  0
 33 35  1  0  0  0  0
 33 31  2  0  0  0  0
 34 33  1  0  0  0  0
 35 27  2  0  0  0  0
M  END
>  <minimizedAffinity>
-4.9785161

$$$$

 OpenBabel03242520203D

 35 37  0  0  0  0  0  0  0  0999 V2000
   40.8100   28.0310   43.1620 C   0  0  0  0  0  0  0  0  0  0  0  0
   40.9740   28.6270   44.0640 H   0  0  0  0  0  0  0  0  0  0  0  0
   41.3350   27.0420   43.2670 H   0  0  0  0  0  0  0  0  0  0  0  0
   37.5320   26.2310   42.6060 C   0  0  0  0  0  0  0  0  0  0  0  0
   38.9210   26.4750   42.6860 C   0  0  0  0  0  0  0  0  0  0  0  0
   39.3620   27.7350   43.0590 C   0  0  0  0  0  0  0  0  0  0  0  0
   38.4100   28.6800   43.3270 N   0  0  0  0  0  0  0  0  0  0  0  0
   37.0750   28.3940   43.2350 C   0  0  0  0  0  0  0  0  0  0  0  0
   36.6470   27.1860   42.8790 N   0  0  0  0  0  0  0  0  0  0  0  0
   39.6140   25.6710   42.4550 H   0  0  0  0  0  0  0  0  0  0  0  0
   36.3490   29.1700   43.4570 H   0  0  0  0  0  0  0  0  0  0  0  0
   37.0640   24.8830   42.1980 C   0  0  0  0  0  0  0  0  0  0  0  0
   36.8570   24.7750   40.6470 C   0  0  0  0  0  0  0  0  0  0  0  0
   37.8060   23.9630   41.4180 C   0  0  0  0  0  0  0  0  0  0  0  0
   36.1600   24.5450   42.7790 H   0  0  0  0  0  0  0  0  0  0  0  0
   35.8650   24.4090   40.3420 H   0  0  0  0  0  0  0  0  0  0  0  0
   37.2070   25.6210   40.0350 H   0  0  0  0  0  0  0  0  0  0  0  0
   38.8820   24.0590   41.1540 H   0  0  0  0  0  0  0  0  0  0  0  0
   37.5520   22.8670   41.5340 H   0  0  0  0  0  0  0  0  0  0  0  0
   41.3070   28.6960   41.8950 C   0  0  0  0  0  0  0  0  0  0  0  0
   41.5390   27.8430   41.1940 H   0  0  0  0  0  0  0  0  0  0  0  0
   42.2410   29.2260   42.1000 H   0  0  0  0  0  0  0  0  0  0  0  0
   40.4360   30.9180   41.4140 C   0  0  0  0  0  0  0  0  0  0  0  0
   41.3710   31.5210   42.0160 O   0  0  0  0  0  0  0  0  0  0  0  0
   40.3000   29.5190   41.2640 N   0  0  0  0  0  0  0  0  0  0  0  0
   39.5510   29.0550   40.7490 H   0  0  0  0  0  0  0  0  0  0  0  0
   39.4350   31.8140   40.8440 C   0  0  0  0  0  0  0  0  0  0  0  0
   38.2160   31.3310   40.4140 C   0  0  0  0  0  0  0  0  0  0  0  0
   37.9560   30.2630   40.4880 H   0  0  0  0  0  0  0  0  0  0  0  0
   37.2010   32.1200   39.8560 C   0  0  0  0  0  3  0  0  0  0  0  0
   37.4350   33.4720   39.7240 C   0  0  0  0  0  0  0  0  0  0  0  0
   36.6920   34.1290   39.3010 H   0  0  0  0  0  0  0  0  0  0  0  0
   38.6380   33.9990   40.1390 C   0  0  0  0  0  0  0  0  0  0  0  0
   38.8540   35.0710   40.0470 H   0  0  0  0  0  0  0  0  0  0  0  0
   39.6010   33.1750   40.6820 C   0  0  0  0  0  3  0  0  0  0  0  0
  1  3  1  0  0  0  0
  1  2  1  0  0  0  0
  4  5  2  0  0  0  0
  4  9  1  0  0  0  0
  5  6  1  0  0  0  0
  6  1  1  0  0  0  0
  6  7  2  0  0  0  0
  8  7  1  0  0  0  0
  8 11  1  0  0  0  0
  9  8  2  0  0  0  0
 10  5  1  0  0  0  0
 12  4  1  0  0  0  0
 12 15  1  0  0  0  0
 13 14  1  0  0  0  0
 13 12  1  0  0  0  0
 14 19  1  0  0  0  0
 14 12  1  0  0  0  0
 16 13  1  0  0  0  0
 17 13  1  0  0  0  0
 18 14  1  0  0  0  0
 20 22  1  0  0  0  0
 20  1  1  0  0  0  0
 21 20  1  0  0  0  0
 23 24  2  0  0  0  0
 25 23  1  0  0  0  0
 25 20  1  0  0  0  0
 26 25  1  0  0  0  0
 27 23  1  0  0  0  0
 28 29  1  0  0  0  0
 28 27  2  0  0  0  0
 30 28  1  0  0  0  0
 31 30  2  0  0  0  0
 31 33  1  0  0  0  0
 32 31  1  0  0  0  0
 33 35  2  0  0  0  0
 34 33  1  0  0  0  0
 35 27  1  0  0  0  0
M  END
>  <minimizedAffinity>
-4.90082121

$$$$

 OpenBabel03242520203D

 35 37  0  0  0  0  0  0  0  0999 V2000
   37.6990   30.9730   37.2810 C   0  0  0  0  0  0  0  0  0  0  0  0
   37.5620   31.5280   36.3490 H   0  0  0  0  0  0  0  0  0  0  0  0
   38.5420   30.2380   37.1580 H   0  0  0  0  0  0  0  0  0  0  0  0
   39.8020   32.9350   39.7340 C   0  0  0  0  0  0  0  0  0  0  0  0
   39.4430   32.0050   38.7340 C   0  0  0  0  0  0  0  0  0  0  0  0
   38.1180   31.9290   38.3320 C   0  0  0  0  0  0  0  0  0  0  0  0
   37.2280   32.7710   38.9410 N   0  0  0  0  0  0  0  0  0  0  0  0
   37.6270   33.6550   39.9050 C   0  0  0  0  0  0  0  0  0  0  0  0
   38.8960   33.7320   40.2930 N   0  0  0  0  0  0  0  0  0  0  0  0
   40.2100   31.3700   38.3010 H   0  0  0  0  0  0  0  0  0  0  0  0
   36.8910   34.3080   40.3650 H   0  0  0  0  0  0  0  0  0  0  0  0
   41.2200   33.0070   40.1690 C   0  0  0  0  0  0  0  0  0  0  0  0
   42.0720   33.9500   39.2480 C   0  0  0  0  0  0  0  0  0  0  0  0
   41.8580   34.1610   40.6850 C   0  0  0  0  0  0  0  0  0  0  0  0
   41.6870   31.9890   40.2940 H   0  0  0  0  0  0  0  0  0  0  0  0
   42.9840   33.4880   38.8400 H   0  0  0  0  0  0  0  0  0  0  0  0
   41.5250   34.5480   38.5030 H   0  0  0  0  0  0  0  0  0  0  0  0
   41.3480   35.1020   40.9850 H   0  0  0  0  0  0  0  0  0  0  0  0
   42.7540   33.9980   41.3560 H   0  0  0  0  0  0  0  0  0  0  0  0
   36.4680   30.2080   37.7200 C   0  0  0  0  0  0  0  0  0  0  0  0
   36.0090   29.8260   36.7640 H   0  0  0  0  0  0  0  0  0  0  0  0
   35.7550   30.8930   38.1850 H   0  0  0  0  0  0  0  0  0  0  0  0
   36.2080   29.0180   39.8290 C   0  0  0  0  0  0  0  0  0  0  0  0
   35.4120   29.8670   40.3220 O   0  0  0  0  0  0  0  0  0  0  0  0
   36.7860   29.0600   38.5390 N   0  0  0  0  0  0  0  0  0  0  0  0
   37.4050   28.3470   38.1520 H   0  0  0  0  0  0  0  0  0  0  0  0
   36.5160   27.9130   40.7320 C   0  0  0  0  0  0  0  0  0  0  0  0
   36.7830   26.6510   40.2400 C   0  0  0  0  0  0  0  0  0  0  0  0
   36.7750   26.4360   39.1590 H   0  0  0  0  0  0  0  0  0  0  0  0
   37.0880   25.5370   41.0340 C   0  0  0  0  0  3  0  0  0  0  0  0
   37.1230   25.7110   42.4010 C   0  0  0  0  0  0  0  0  0  0  0  0
   37.3510   24.8910   43.0620 H   0  0  0  0  0  0  0  0  0  0  0  0
   36.8620   26.9530   42.9370 C   0  0  0  0  0  0  0  0  0  0  0  0
   36.8830   27.1220   44.0210 H   0  0  0  0  0  0  0  0  0  0  0  0
   36.5690   28.0150   42.1070 C   0  0  0  0  0  3  0  0  0  0  0  0
  1 20  1  0  0  0  0
  1  6  1  0  0  0  0
  2  1  1  0  0  0  0
  3  1  1  0  0  0  0
  4 12  1  0  0  0  0
  4  9  1  0  0  0  0
  5  4  2  0  0  0  0
  6  5  1  0  0  0  0
  6  7  2  0  0  0  0
  7  8  1  0  0  0  0
  8  9  2  0  0  0  0
  8 11  1  0  0  0  0
 10  5  1  0  0  0  0
 12 15  1  0  0  0  0
 12 14  1  0  0  0  0
 13 12  1  0  0  0  0
 13 14  1  0  0  0  0
 14 18  1  0  0  0  0
 14 19  1  0  0  0  0
 16 13  1  0  0  0  0
 17 13  1  0  0  0  0
 20 22  1  0  0  0  0
 20 25  1  0  0  0  0
 21 20  1  0  0  0  0
 23 24  2  0  0  0  0
 23 27  1  0  0  0  0
 25 23  1  0  0  0  0
 26 25  1  0  0  0  0
 27 35  1  0  0  0  0
 28 27  2  0  0  0  0
 28 30  1  0  0  0  0
 29 28  1  0  0  0  0
 30 31  2  0  0  0  0
 31 33  1  0  0  0  0
 31 32  1  0  0  0  0
 33 34  1  0  0  0  0
 35 33  2  0  0  0  0
M  END
>  <minimizedAffinity>
-4.85112429

$$$$
