
 OpenBabel03242519433D

 29 30  0  0  0  0  0  0  0  0999 V2000
   38.2790   27.7350   39.1750 O   0  0  0  0  0  0  0  0  0  0  0  0
   37.6780   29.1010   39.5960 P   0  0  2  0  0  0  0  0  0  0  0  0
   38.4330   30.3440   38.6850 O   0  0  0  0  0  0  0  0  0  0  0  0
   37.4340   33.7120   39.6460 C   0  0  0  0  0  0  0  0  0  0  0  0
   37.3840   32.4090   39.0910 C   0  0  0  0  0  0  0  0  0  0  0  0
   38.5160   31.6010   39.2400 C   0  0  0  0  0  0  0  0  0  0  0  0
   39.5810   32.0980   39.8970 N   0  0  0  0  0  0  0  0  0  0  0  0
   39.6010   33.3460   40.4170 C   0  0  0  0  0  0  0  0  0  0  0  0
   38.5350   34.1540   40.2960 N   0  0  0  0  0  0  0  0  0  0  0  0
   36.5540   34.3330   39.5270 H   0  0  0  0  0  0  0  0  0  0  0  0
   36.4820   32.1060   38.5830 H   0  0  0  0  0  0  0  0  0  0  0  0
   40.5300   33.6220   40.9260 H   0  0  0  0  0  0  0  0  0  0  0  0
   37.9870   29.3550   41.2040 O   0  0  0  0  0  0  0  0  0  0  0  0
   38.2600   28.4640   42.1920 C   0  0  0  0  0  0  0  0  0  0  0  0
   37.8960   28.8070   43.4610 O   0  0  0  0  0  0  0  0  0  0  0  0
   38.8260   27.1340   42.5560 C   0  0  0  0  0  0  0  0  0  0  0  0
   39.9020   27.0560   43.3350 C   0  0  0  0  0  0  0  0  0  0  0  0
   40.5040   27.8140   43.7650 H   0  0  0  0  0  0  0  0  0  0  0  0
   40.3710   25.7740   43.6770 C   0  0  0  0  0  3  0  0  0  0  0  0
   39.7680   24.6260   43.2410 C   0  0  0  0  0  0  0  0  0  0  0  0
   40.1590   23.6580   43.5240 H   0  0  0  0  0  0  0  0  0  0  0  0
   38.6600   24.6230   42.4370 C   0  0  0  0  0  0  0  0  0  0  0  0
   38.1050   23.7940   42.0350 H   0  0  0  0  0  0  0  0  0  0  0  0
   38.2720   25.9000   42.1540 C   0  0  0  0  0  3  0  0  0  0  0  0
   36.0680   29.0590   39.1980 O   0  0  0  0  0  0  0  0  0  0  0  0
   35.2460   29.3320   40.2820 C   0  0  0  0  0  0  0  0  0  0  0  0
   35.3300   28.3590   41.2660 F   0  0  0  0  0  0  0  0  0  0  0  0
   35.4850   30.5810   40.7580 F   0  0  0  0  0  0  0  0  0  0  0  0
   33.9440   29.2830   39.7970 F   0  0  0  0  0  0  0  0  0  0  0  0
  2  1  2  6  0  0  0
  2 13  1  0  0  0  0
  3  6  1  0  0  0  0
  3  2  1  0  0  0  0
  4  9  1  0  0  0  0
  5  6  1  0  0  0  0
  5  4  2  0  0  0  0
  6  7  2  0  0  0  0
  7  8  1  0  0  0  0
  8 12  1  0  0  0  0
  9  8  2  0  0  0  0
 10  4  1  0  0  0  0
 11  5  1  0  0  0  0
 13 14  1  0  0  0  0
 14 16  1  0  0  0  0
 14 15  2  0  0  0  0
 16 17  1  0  0  0  0
 17 19  2  0  0  0  0
 17 18  1  0  0  0  0
 20 21  1  0  0  0  0
 20 19  1  0  0  0  0
 22 20  2  0  0  0  0
 23 22  1  0  0  0  0
 24 22  1  0  0  0  0
 24 16  2  0  0  0  0
 25  2  1  0  0  0  0
 25 26  1  0  0  0  0
 26 28  1  0  0  0  0
 26 27  1  0  0  0  0
 29 26  1  0  0  0  0
M  END
>  <minimizedAffinity>
-5.26173973

$$$$

 OpenBabel03242519433D

 29 30  0  0  0  0  0  0  0  0999 V2000
   38.1080   26.7390   40.2800 O   0  0  0  0  0  0  0  0  0  0  0  0
   37.5190   26.8130   41.7130 P   0  0  2  0  0  0  0  0  0  0  0  0
   36.8630   25.2810   42.1230 O   0  0  0  0  0  0  0  0  0  0  0  0
   36.1890   22.8670   39.4790 C   0  0  0  0  0  0  0  0  0  0  0  0
   36.0150   23.9450   40.3830 C   0  0  0  0  0  0  0  0  0  0  0  0
   37.0690   24.2310   41.2560 C   0  0  0  0  0  0  0  0  0  0  0  0
   38.1830   23.4760   41.1910 N   0  0  0  0  0  0  0  0  0  0  0  0
   38.3220   22.4540   40.3180 C   0  0  0  0  0  0  0  0  0  0  0  0
   37.3320   22.1460   39.4620 N   0  0  0  0  0  0  0  0  0  0  0  0
   35.3680   22.6510   38.8060 H   0  0  0  0  0  0  0  0  0  0  0  0
   35.0820   24.4880   40.3550 H   0  0  0  0  0  0  0  0  0  0  0  0
   39.2780   21.9240   40.3720 H   0  0  0  0  0  0  0  0  0  0  0  0
   36.3050   27.9390   41.7400 O   0  0  0  0  0  0  0  0  0  0  0  0
   36.0230   28.9410   40.8690 C   0  0  0  0  0  0  0  0  0  0  0  0
   34.7290   29.0640   40.4530 O   0  0  0  0  0  0  0  0  0  0  0  0
   36.5390   30.1000   40.0850 C   0  0  0  0  0  0  0  0  0  0  0  0
   36.7540   29.9800   38.7780 C   0  0  0  0  0  0  0  0  0  0  0  0
   36.6480   29.1480   38.1300 H   0  0  0  0  0  0  0  0  0  0  0  0
   37.2060   31.1160   38.0820 C   0  0  0  0  0  3  0  0  0  0  0  0
   37.4280   32.3190   38.6940 C   0  0  0  0  0  0  0  0  0  0  0  0
   37.7760   33.1700   38.1260 H   0  0  0  0  0  0  0  0  0  0  0  0
   37.2310   32.5210   40.0340 C   0  0  0  0  0  0  0  0  0  0  0  0
   37.3700   33.4110   40.6220 H   0  0  0  0  0  0  0  0  0  0  0  0
   36.7950   31.3750   40.6320 C   0  0  0  0  0  3  0  0  0  0  0  0
   38.7860   27.1350   42.7340 O   0  0  0  0  0  0  0  0  0  0  0  0
   39.1260   28.4800   42.7520 C   0  0  0  0  0  0  0  0  0  0  0  0
   39.2530   29.0080   41.4770 F   0  0  0  0  0  0  0  0  0  0  0  0
   38.2570   29.1800   43.5240 F   0  0  0  0  0  0  0  0  0  0  0  0
   40.3890   28.5490   43.3290 F   0  0  0  0  0  0  0  0  0  0  0  0
  2  1  2  6  0  0  0
  2 13  1  0  0  0  0
  2  3  1  0  0  0  0
  2 25  1  0  0  0  0
  4  5  1  0  0  0  0
  5  6  2  0  0  0  0
  6  3  1  0  0  0  0
  7  6  1  0  0  0  0
  8 12  1  0  0  0  0
  8  7  2  0  0  0  0
  9  4  2  0  0  0  0
  9  8  1  0  0  0  0
 10  4  1  0  0  0  0
 11  5  1  0  0  0  0
 14 13  1  0  0  0  0
 15 14  2  0  0  0  0
 16 24  1  0  0  0  0
 16 14  1  0  0  0  0
 17 16  2  0  0  0  0
 18 17  1  0  0  0  0
 19 20  2  0  0  0  0
 19 17  1  0  0  0  0
 20 22  1  0  0  0  0
 21 20  1  0  0  0  0
 22 23  1  0  0  0  0
 22 24  2  0  0  0  0
 25 26  1  0  0  0  0
 26 29  1  0  0  0  0
 26 28  1  0  0  0  0
 27 26  1  0  0  0  0
M  END
>  <minimizedAffinity>
-5.08634567

$$$$

 OpenBabel03242519433D

 29 30  0  0  0  0  0  0  0  0999 V2000
   38.0610   28.7270   39.7650 O   0  0  0  0  0  0  0  0  0  0  0  0
   36.8850   29.5140   40.3990 P   0  0  2  0  0  0  0  0  0  0  0  0
   37.4950   30.9630   41.0880 O   0  0  0  0  0  0  0  0  0  0  0  0
   40.7630   30.6270   42.6630 C   0  0  0  0  0  0  0  0  0  0  0  0
   39.3660   30.5240   42.4440 C   0  0  0  0  0  0  0  0  0  0  0  0
   38.8560   31.0780   41.2660 C   0  0  0  0  0  0  0  0  0  0  0  0
   39.7100   31.6700   40.4090 N   0  0  0  0  0  0  0  0  0  0  0  0
   41.0390   31.7540   40.6440 C   0  0  0  0  0  0  0  0  0  0  0  0
   41.5690   31.2360   41.7640 N   0  0  0  0  0  0  0  0  0  0  0  0
   41.1510   30.1970   43.5790 H   0  0  0  0  0  0  0  0  0  0  0  0
   38.7680   30.0290   43.1940 H   0  0  0  0  0  0  0  0  0  0  0  0
   41.6160   32.2610   39.8650 H   0  0  0  0  0  0  0  0  0  0  0  0
   36.2060   28.5960   41.6000 O   0  0  0  0  0  0  0  0  0  0  0  0
   36.7730   27.6780   42.4230 C   0  0  0  0  0  0  0  0  0  0  0  0
   36.1510   27.4340   43.6130 O   0  0  0  0  0  0  0  0  0  0  0  0
   37.8800   26.7010   42.6350 C   0  0  0  0  0  0  0  0  0  0  0  0
   38.8610   26.9770   43.4910 C   0  0  0  0  0  0  0  0  0  0  0  0
   39.0440   27.8350   44.0840 H   0  0  0  0  0  0  0  0  0  0  0  0
   39.8590   26.0040   43.6780 C   0  0  0  0  0  3  0  0  0  0  0  0
   39.8550   24.8040   43.0210 C   0  0  0  0  0  0  0  0  0  0  0  0
   40.6400   24.0810   43.1910 H   0  0  0  0  0  0  0  0  0  0  0  0
   38.8820   24.4470   42.1250 C   0  0  0  0  0  0  0  0  0  0  0  0
   38.7740   23.5430   41.5530 H   0  0  0  0  0  0  0  0  0  0  0  0
   37.9570   25.4420   42.0020 C   0  0  0  0  0  3  0  0  0  0  0  0
   35.8530   29.9120   39.1630 O   0  0  0  0  0  0  0  0  0  0  0  0
   34.8310   28.9860   39.0060 C   0  0  0  0  0  0  0  0  0  0  0  0
   35.3040   27.6840   38.9460 F   0  0  0  0  0  0  0  0  0  0  0  0
   33.8840   29.1560   39.9630 F   0  0  0  0  0  0  0  0  0  0  0  0
   34.2620   29.2500   37.7650 F   0  0  0  0  0  0  0  0  0  0  0  0
  2  1  2  6  0  0  0
  2  3  1  0  0  0  0
  2 13  1  0  0  0  0
  3  6  1  0  0  0  0
  4 10  1  0  0  0  0
  5  4  1  0  0  0  0
  5 11  1  0  0  0  0
  6  5  2  0  0  0  0
  7  8  2  0  0  0  0
  7  6  1  0  0  0  0
  8  9  1  0  0  0  0
  9  4  2  0  0  0  0
 12  8  1  0  0  0  0
 13 14  1  0  0  0  0
 14 16  1  0  0  0  0
 14 15  2  0  0  0  0
 16 17  1  0  0  0  0
 17 19  2  0  0  0  0
 17 18  1  0  0  0  0
 20 21  1  0  0  0  0
 20 19  1  0  0  0  0
 22 20  2  0  0  0  0
 23 22  1  0  0  0  0
 24 22  1  0  0  0  0
 24 16  2  0  0  0  0
 25  2  1  0  0  0  0
 26 25  1  0  0  0  0
 26 28  1  0  0  0  0
 27 26  1  0  0  0  0
 29 26  1  0  0  0  0
M  END
>  <minimizedAffinity>
-5.04228973

$$$$

 OpenBabel03242519433D

 29 30  0  0  0  0  0  0  0  0999 V2000
   41.1650   31.2400   39.9590 O   0  0  0  0  0  0  0  0  0  0  0  0
   39.6290   31.3070   40.1640 P   0  0  2  0  0  0  0  0  0  0  0  0
   39.2910   31.2230   41.8450 O   0  0  0  0  0  0  0  0  0  0  0  0
   39.5720   27.8520   43.1940 C   0  0  0  0  0  0  0  0  0  0  0  0
   39.9340   29.1100   42.6540 C   0  0  0  0  0  0  0  0  0  0  0  0
   38.9030   30.0120   42.3730 C   0  0  0  0  0  0  0  0  0  0  0  0
   37.6340   29.6400   42.6300 N   0  0  0  0  0  0  0  0  0  0  0  0
   37.3170   28.4320   43.1460 C   0  0  0  0  0  0  0  0  0  0  0  0
   38.2780   27.5370   43.4300 N   0  0  0  0  0  0  0  0  0  0  0  0
   40.3760   27.1580   43.4100 H   0  0  0  0  0  0  0  0  0  0  0  0
   40.9810   29.3110   42.4850 H   0  0  0  0  0  0  0  0  0  0  0  0
   36.2480   28.2610   43.3050 H   0  0  0  0  0  0  0  0  0  0  0  0
   38.9260   30.0090   39.4120 O   0  0  0  0  0  0  0  0  0  0  0  0
   37.8290   29.9500   38.6170 C   0  0  0  0  0  0  0  0  0  0  0  0
   37.9400   30.4620   37.3570 O   0  0  0  0  0  0  0  0  0  0  0  0
   36.4070   29.5230   38.4750 C   0  0  0  0  0  0  0  0  0  0  0  0
   35.6380   29.3940   39.5540 C   0  0  0  0  0  0  0  0  0  0  0  0
   35.8570   29.5210   40.5830 H   0  0  0  0  0  0  0  0  0  0  0  0
   34.2950   29.0240   39.3590 C   0  0  0  0  0  3  0  0  0  0  0  0
   33.7630   28.7950   38.1190 C   0  0  0  0  0  0  0  0  0  0  0  0
   32.7260   28.5110   38.0090 H   0  0  0  0  0  0  0  0  0  0  0  0
   34.4900   28.9050   36.9640 C   0  0  0  0  0  0  0  0  0  0  0  0
   34.1850   28.7510   35.9440 H   0  0  0  0  0  0  0  0  0  0  0  0
   35.7760   29.2660   37.2400 C   0  0  0  0  0  3  0  0  0  0  0  0
   39.1350   32.7870   39.6000 O   0  0  0  0  0  0  0  0  0  0  0  0
   38.0660   33.2990   40.3200 C   0  0  0  0  0  0  0  0  0  0  0  0
   37.1510   32.3210   40.6740 F   0  0  0  0  0  0  0  0  0  0  0  0
   38.5090   34.0120   41.3870 F   0  0  0  0  0  0  0  0  0  0  0  0
   37.3990   34.1610   39.4570 F   0  0  0  0  0  0  0  0  0  0  0  0
  2  1  2  6  0  0  0
  2  3  1  0  0  0  0
  3  6  1  0  0  0  0
  4 10  1  0  0  0  0
  4  9  1  0  0  0  0
  5  4  2  0  0  0  0
  6  7  2  0  0  0  0
  6  5  1  0  0  0  0
  7  8  1  0  0  0  0
  8 12  1  0  0  0  0
  8  9  2  0  0  0  0
 11  5  1  0  0  0  0
 13  2  1  0  0  0  0
 14 13  1  0  0  0  0
 15 14  2  0  0  0  0
 16 14  1  0  0  0  0
 16 17  1  0  0  0  0
 17 18  1  0  0  0  0
 19 17  2  0  0  0  0
 20 19  1  0  0  0  0
 21 20  1  0  0  0  0
 22 24  1  0  0  0  0
 22 20  2  0  0  0  0
 23 22  1  0  0  0  0
 24 16  2  0  0  0  0
 25  2  1  0  0  0  0
 25 26  1  0  0  0  0
 26 27  1  0  0  0  0
 26 28  1  0  0  0  0
 29 26  1  0  0  0  0
M  END
>  <minimizedAffinity>
-4.98923206

$$$$

 OpenBabel03242519433D

 29 30  0  0  0  0  0  0  0  0999 V2000
   36.1750   29.2410   36.7340 O   0  0  0  0  0  0  0  0  0  0  0  0
   36.8140   29.9070   37.9790 P   0  0  2  0  0  0  0  0  0  0  0  0
   37.3760   31.4700   37.5450 O   0  0  0  0  0  0  0  0  0  0  0  0
   38.2040   33.8000   40.2190 C   0  0  0  0  0  0  0  0  0  0  0  0
   37.4490   33.0650   39.2720 C   0  0  0  0  0  0  0  0  0  0  0  0
   38.1410   32.1640   38.4560 C   0  0  0  0  0  0  0  0  0  0  0  0
   39.4730   32.0440   38.6120 N   0  0  0  0  0  0  0  0  0  0  0  0
   40.1680   32.7590   39.5250 C   0  0  0  0  0  0  0  0  0  0  0  0
   39.5420   33.6350   40.3280 N   0  0  0  0  0  0  0  0  0  0  0  0
   37.6620   34.4960   40.8480 H   0  0  0  0  0  0  0  0  0  0  0  0
   36.3840   33.2350   39.2260 H   0  0  0  0  0  0  0  0  0  0  0  0
   41.2450   32.5630   39.5460 H   0  0  0  0  0  0  0  0  0  0  0  0
   38.1040   28.9950   38.4780 O   0  0  0  0  0  0  0  0  0  0  0  0
   38.4780   28.6220   39.7280 C   0  0  0  0  0  0  0  0  0  0  0  0
   39.8060   28.3920   39.9420 O   0  0  0  0  0  0  0  0  0  0  0  0
   38.0520   28.3300   41.1270 C   0  0  0  0  0  0  0  0  0  0  0  0
   38.2550   29.2290   42.0880 C   0  0  0  0  0  0  0  0  0  0  0  0
   38.7210   30.1800   42.0630 H   0  0  0  0  0  0  0  0  0  0  0  0
   37.8000   28.9160   43.3820 C   0  0  0  0  0  3  0  0  0  0  0  0
   37.1670   27.7400   43.6800 C   0  0  0  0  0  0  0  0  0  0  0  0
   36.8320   27.5350   44.6870 H   0  0  0  0  0  0  0  0  0  0  0  0
   36.9230   26.7670   42.7470 C   0  0  0  0  0  0  0  0  0  0  0  0
   36.4410   25.8130   42.8610 H   0  0  0  0  0  0  0  0  0  0  0  0
   37.3940   27.1480   41.5250 C   0  0  0  0  0  3  0  0  0  0  0  0
   35.6070   30.0750   39.1050 O   0  0  0  0  0  0  0  0  0  0  0  0
   34.7550   28.9800   39.1370 C   0  0  0  0  0  0  0  0  0  0  0  0
   33.6960   29.1100   38.2520 F   0  0  0  0  0  0  0  0  0  0  0  0
   35.4520   27.8290   38.9540 F   0  0  0  0  0  0  0  0  0  0  0  0
   34.1980   28.9640   40.4110 F   0  0  0  0  0  0  0  0  0  0  0  0
  2  1  2  6  0  0  0
  2 13  1  0  0  0  0
  2 25  1  0  0  0  0
  3  2  1  0  0  0  0
  3  6  1  0  0  0  0
  4  9  1  0  0  0  0
  4 10  1  0  0  0  0
  5  4  2  0  0  0  0
  6  7  2  0  0  0  0
  6  5  1  0  0  0  0
  7  8  1  0  0  0  0
  8 12  1  0  0  0  0
  8  9  2  0  0  0  0
 11  5  1  0  0  0  0
 13 14  1  0  0  0  0
 14 15  2  0  0  0  0
 14 16  1  0  0  0  0
 16 24  2  0  0  0  0
 16 17  1  0  0  0  0
 17 19  2  0  0  0  0
 18 17  1  0  0  0  0
 19 20  1  0  0  0  0
 20 21  1  0  0  0  0
 22 23  1  0  0  0  0
 22 20  2  0  0  0  0
 24 22  1  0  0  0  0
 25 26  1  0  0  0  0
 26 29  1  0  0  0  0
 27 26  1  0  0  0  0
 28 26  1  0  0  0  0
M  END
>  <minimizedAffinity>
-4.98313332

$$$$

 OpenBabel03242519433D

 29 30  0  0  0  0  0  0  0  0999 V2000
   37.5220   28.5220   38.0640 O   0  0  0  0  0  0  0  0  0  0  0  0
   36.4760   29.6500   37.8690 P   0  0  2  0  0  0  0  0  0  0  0  0
   37.2900   31.0830   37.3900 O   0  0  0  0  0  0  0  0  0  0  0  0
   39.5290   32.4320   39.9270 C   0  0  0  0  0  0  0  0  0  0  0  0
   39.0120   31.5920   38.9100 C   0  0  0  0  0  0  0  0  0  0  0  0
   37.7640   31.9240   38.3730 C   0  0  0  0  0  0  0  0  0  0  0  0
   37.1280   33.0140   38.8440 N   0  0  0  0  0  0  0  0  0  0  0  0
   37.6470   33.7980   39.8150 C   0  0  0  0  0  0  0  0  0  0  0  0
   38.8420   33.5140   40.3580 N   0  0  0  0  0  0  0  0  0  0  0  0
   40.4960   32.1690   40.3390 H   0  0  0  0  0  0  0  0  0  0  0  0
   39.6010   30.7410   38.6020 H   0  0  0  0  0  0  0  0  0  0  0  0
   37.0250   34.6510   40.1040 H   0  0  0  0  0  0  0  0  0  0  0  0
   35.7060   29.9280   39.3090 O   0  0  0  0  0  0  0  0  0  0  0  0
   36.1870   29.8910   40.5770 C   0  0  0  0  0  0  0  0  0  0  0  0
   36.0420   31.0160   41.3360 O   0  0  0  0  0  0  0  0  0  0  0  0
   36.8630   29.0870   41.6360 C   0  0  0  0  0  0  0  0  0  0  0  0
   37.9420   29.5660   42.2520 C   0  0  0  0  0  0  0  0  0  0  0  0
   38.4780   30.4700   42.1120 H   0  0  0  0  0  0  0  0  0  0  0  0
   38.5170   28.7820   43.2680 C   0  0  0  0  0  3  0  0  0  0  0  0
   38.0140   27.5650   43.6370 C   0  0  0  0  0  0  0  0  0  0  0  0
   38.4850   26.9900   44.4220 H   0  0  0  0  0  0  0  0  0  0  0  0
   36.9100   27.0040   43.0510 C   0  0  0  0  0  0  0  0  0  0  0  0
   36.4280   26.0650   43.2530 H   0  0  0  0  0  0  0  0  0  0  0  0
   36.4160   27.8260   42.0810 C   0  0  0  0  0  3  0  0  0  0  0  0
   35.4810   29.1710   36.6310 O   0  0  0  0  0  0  0  0  0  0  0  0
   34.3600   28.4910   37.0850 C   0  0  0  0  0  0  0  0  0  0  0  0
   34.6700   27.5430   38.0470 F   0  0  0  0  0  0  0  0  0  0  0  0
   33.4090   29.3670   37.5000 F   0  0  0  0  0  0  0  0  0  0  0  0
   33.8680   27.7880   35.9900 F   0  0  0  0  0  0  0  0  0  0  0  0
  2  1  2  1  0  0  0
  2 13  1  0  0  0  0
  3  2  1  0  0  0  0
  3  6  1  0  0  0  0
  4 10  1  0  0  0  0
  4  9  1  0  0  0  0
  5  4  2  0  0  0  0
  6  7  2  0  0  0  0
  6  5  1  0  0  0  0
  7  8  1  0  0  0  0
  8 12  1  0  0  0  0
  8  9  2  0  0  0  0
 11  5  1  0  0  0  0
 13 14  1  0  0  0  0
 14 15  2  0  0  0  0
 14 16  1  0  0  0  0
 16 24  2  0  0  0  0
 16 17  1  0  0  0  0
 17 19  2  0  0  0  0
 18 17  1  0  0  0  0
 19 20  1  0  0  0  0
 20 21  1  0  0  0  0
 22 23  1  0  0  0  0
 22 20  2  0  0  0  0
 24 22  1  0  0  0  0
 25 26  1  0  0  0  0
 25  2  1  0  0  0  0
 26 28  1  0  0  0  0
 26 27  1  0  0  0  0
 29 26  1  0  0  0  0
M  END
>  <minimizedAffinity>
-4.96099615

$$$$

 OpenBabel03242519433D

 29 30  0  0  0  0  0  0  0  0999 V2000
   38.5580   29.9660   37.5520 O   0  0  0  0  0  0  0  0  0  0  0  0
   38.9020   31.3050   38.2550 P   0  0  2  0  0  0  0  0  0  0  0  0
   39.8760   32.2480   37.2030 O   0  0  0  0  0  0  0  0  0  0  0  0
   43.4170   33.0170   37.5710 C   0  0  0  0  0  0  0  0  0  0  0  0
   42.0100   33.1780   37.5410 C   0  0  0  0  0  0  0  0  0  0  0  0
   41.2390   32.0540   37.2260 C   0  0  0  0  0  0  0  0  0  0  0  0
   41.8690   30.8910   36.9730 N   0  0  0  0  0  0  0  0  0  0  0  0
   43.2140   30.7660   37.0100 C   0  0  0  0  0  0  0  0  0  0  0  0
   43.9910   31.8220   37.3070 N   0  0  0  0  0  0  0  0  0  0  0  0
   44.0080   33.8920   37.8150 H   0  0  0  0  0  0  0  0  0  0  0  0
   41.6040   34.1540   37.7590 H   0  0  0  0  0  0  0  0  0  0  0  0
   43.5940   29.7650   36.7840 H   0  0  0  0  0  0  0  0  0  0  0  0
   39.7620   30.9850   39.6350 O   0  0  0  0  0  0  0  0  0  0  0  0
   39.3470   30.4790   40.8240 C   0  0  0  0  0  0  0  0  0  0  0  0
   39.9540   30.9500   41.9510 O   0  0  0  0  0  0  0  0  0  0  0  0
   38.4200   29.5510   41.5340 C   0  0  0  0  0  0  0  0  0  0  0  0
   37.2630   29.2060   40.9750 C   0  0  0  0  0  0  0  0  0  0  0  0
   36.8170   29.5020   40.0610 H   0  0  0  0  0  0  0  0  0  0  0  0
   36.4440   28.2990   41.6720 C   0  0  0  0  0  3  0  0  0  0  0  0
   36.7920   27.7700   42.8860 C   0  0  0  0  0  0  0  0  0  0  0  0
   36.1360   27.0760   43.3920 H   0  0  0  0  0  0  0  0  0  0  0  0
   37.9640   28.0770   43.5250 C   0  0  0  0  0  0  0  0  0  0  0  0
   38.3420   27.7290   44.4690 H   0  0  0  0  0  0  0  0  0  0  0  0
   38.6960   28.9580   42.7840 C   0  0  0  0  0  3  0  0  0  0  0  0
   37.4670   32.1000   38.5000 O   0  0  0  0  0  0  0  0  0  0  0  0
   37.5630   33.0780   39.4790 C   0  0  0  0  0  0  0  0  0  0  0  0
   37.1150   32.6360   40.7130 F   0  0  0  0  0  0  0  0  0  0  0  0
   38.8240   33.5800   39.5280 F   0  0  0  0  0  0  0  0  0  0  0  0
   36.6960   34.0940   39.0920 F   0  0  0  0  0  0  0  0  0  0  0  0
  2  1  2  6  0  0  0
  2 25  1  0  0  0  0
  2 13  1  0  0  0  0
  3  6  1  0  0  0  0
  3  2  1  0  0  0  0
  4 10  1  0  0  0  0
  5  4  1  0  0  0  0
  5 11  1  0  0  0  0
  6  5  2  0  0  0  0
  7  8  2  0  0  0  0
  7  6  1  0  0  0  0
  8  9  1  0  0  0  0
  9  4  2  0  0  0  0
 12  8  1  0  0  0  0
 13 14  1  0  0  0  0
 14 16  1  0  0  0  0
 14 15  2  0  0  0  0
 16 24  1  0  0  0  0
 17 16  2  0  0  0  0
 17 19  1  0  0  0  0
 18 17  1  0  0  0  0
 19 20  2  0  0  0  0
 20 21  1  0  0  0  0
 20 22  1  0  0  0  0
 22 23  1  0  0  0  0
 24 22  2  0  0  0  0
 25 26  1  0  0  0  0
 26 28  1  0  0  0  0
 26 27  1  0  0  0  0
 29 26  1  0  0  0  0
M  END
>  <minimizedAffinity>
-4.93819714

$$$$

 OpenBabel03242519433D

 29 30  0  0  0  0  0  0  0  0999 V2000
   36.3650   31.1380   41.4190 O   0  0  0  0  0  0  0  0  0  0  0  0
   37.5850   30.1810   41.4030 P   0  0  2  0  0  0  0  0  0  0  0  0
   38.9900   31.0660   41.8360 O   0  0  0  0  0  0  0  0  0  0  0  0
   39.6340   34.1030   39.9320 C   0  0  0  0  0  0  0  0  0  0  0  0
   39.0820   33.2170   40.8900 C   0  0  0  0  0  0  0  0  0  0  0  0
   39.5520   31.9000   40.8950 C   0  0  0  0  0  0  0  0  0  0  0  0
   40.4950   31.5480   40.0010 N   0  0  0  0  0  0  0  0  0  0  0  0
   41.0050   32.4150   39.0980 C   0  0  0  0  0  0  0  0  0  0  0  0
   40.5800   33.6890   39.0590 N   0  0  0  0  0  0  0  0  0  0  0  0
   39.2650   35.1220   39.9330 H   0  0  0  0  0  0  0  0  0  0  0  0
   38.3290   33.5980   41.5630 H   0  0  0  0  0  0  0  0  0  0  0  0
   41.7650   31.9980   38.4310 H   0  0  0  0  0  0  0  0  0  0  0  0
   37.7810   29.5820   39.8710 O   0  0  0  0  0  0  0  0  0  0  0  0
   37.1270   29.8890   38.7230 C   0  0  0  0  0  0  0  0  0  0  0  0
   37.5500   30.9900   38.0360 O   0  0  0  0  0  0  0  0  0  0  0  0
   36.0470   29.5240   37.7610 C   0  0  0  0  0  0  0  0  0  0  0  0
   36.2800   29.5580   36.4510 C   0  0  0  0  0  0  0  0  0  0  0  0
   37.1430   29.8420   35.9060 H   0  0  0  0  0  0  0  0  0  0  0  0
   35.2380   29.1680   35.5910 C   0  0  0  0  0  3  0  0  0  0  0  0
   34.0140   28.7610   36.0490 C   0  0  0  0  0  0  0  0  0  0  0  0
   33.2370   28.4690   35.3570 H   0  0  0  0  0  0  0  0  0  0  0  0
   33.6980   28.7000   37.3800 C   0  0  0  0  0  0  0  0  0  0  0  0
   32.7810   28.4010   37.8550 H   0  0  0  0  0  0  0  0  0  0  0  0
   34.7590   29.0930   38.1420 C   0  0  0  0  0  3  0  0  0  0  0  0
   37.3060   29.0320   42.5670 O   0  0  0  0  0  0  0  0  0  0  0  0
   36.4970   28.0010   42.1110 C   0  0  0  0  0  0  0  0  0  0  0  0
   35.4080   28.4630   41.3900 F   0  0  0  0  0  0  0  0  0  0  0  0
   37.2310   27.0880   41.4240 F   0  0  0  0  0  0  0  0  0  0  0  0
   35.9790   27.3880   43.2480 F   0  0  0  0  0  0  0  0  0  0  0  0
  2  1  2  6  0  0  0
  2  3  1  0  0  0  0
  2 25  1  0  0  0  0
  4 10  1  0  0  0  0
  4  5  1  0  0  0  0
  5  6  2  0  0  0  0
  5 11  1  0  0  0  0
  6  3  1  0  0  0  0
  7  6  1  0  0  0  0
  8  7  2  0  0  0  0
  9  8  1  0  0  0  0
  9  4  2  0  0  0  0
 12  8  1  0  0  0  0
 13  2  1  0  0  0  0
 14 13  1  0  0  0  0
 15 14  2  0  0  0  0
 16 24  1  0  0  0  0
 16 14  1  0  0  0  0
 17 16  2  0  0  0  0
 18 17  1  0  0  0  0
 19 20  2  0  0  0  0
 19 17  1  0  0  0  0
 20 22  1  0  0  0  0
 21 20  1  0  0  0  0
 22 23  1  0  0  0  0
 22 24  2  0  0  0  0
 26 25  1  0  0  0  0
 26 29  1  0  0  0  0
 27 26  1  0  0  0  0
 28 26  1  0  0  0  0
M  END
>  <minimizedAffinity>
-4.9349699

$$$$

 OpenBabel03242519433D

 29 30  0  0  0  0  0  0  0  0999 V2000
   37.3160   30.3560   37.0340 O   0  0  0  0  0  0  0  0  0  0  0  0
   36.3690   29.6540   38.0410 P   0  0  2  0  0  0  0  0  0  0  0  0
   36.2640   30.6090   39.4630 O   0  0  0  0  0  0  0  0  0  0  0  0
   38.3330   33.5710   39.9230 C   0  0  0  0  0  0  0  0  0  0  0  0
   37.2320   32.7500   39.5770 C   0  0  0  0  0  0  0  0  0  0  0  0
   37.3520   31.3770   39.8140 C   0  0  0  0  0  0  0  0  0  0  0  0
   38.4950   30.9140   40.3550 N   0  0  0  0  0  0  0  0  0  0  0  0
   39.5300   31.7210   40.6760 C   0  0  0  0  0  0  0  0  0  0  0  0
   39.4560   33.0460   40.4630 N   0  0  0  0  0  0  0  0  0  0  0  0
   38.2340   34.6340   39.7360 H   0  0  0  0  0  0  0  0  0  0  0  0
   36.3600   33.2200   39.1480 H   0  0  0  0  0  0  0  0  0  0  0  0
   40.3980   31.2140   41.1080 H   0  0  0  0  0  0  0  0  0  0  0  0
   37.0020   28.1740   38.4370 O   0  0  0  0  0  0  0  0  0  0  0  0
   37.0120   27.5200   39.6250 C   0  0  0  0  0  0  0  0  0  0  0  0
   36.3310   26.3400   39.6960 O   0  0  0  0  0  0  0  0  0  0  0  0
   37.4930   27.4950   41.0360 C   0  0  0  0  0  0  0  0  0  0  0  0
   38.7950   27.4090   41.2970 C   0  0  0  0  0  0  0  0  0  0  0  0
   39.6290   27.3210   40.6490 H   0  0  0  0  0  0  0  0  0  0  0  0
   39.1960   27.4280   42.6460 C   0  0  0  0  0  3  0  0  0  0  0  0
   38.3050   27.5290   43.6800 C   0  0  0  0  0  0  0  0  0  0  0  0
   38.6510   27.5390   44.7040 H   0  0  0  0  0  0  0  0  0  0  0  0
   36.9520   27.6210   43.4930 C   0  0  0  0  0  0  0  0  0  0  0  0
   36.1630   27.7030   44.2190 H   0  0  0  0  0  0  0  0  0  0  0  0
   36.6500   27.5960   42.1630 C   0  0  0  0  0  3  0  0  0  0  0  0
   34.8710   29.5990   37.3300 O   0  0  0  0  0  0  0  0  0  0  0  0
   33.9860   28.7830   38.0190 C   0  0  0  0  0  0  0  0  0  0  0  0
   34.1280   27.4470   37.6810 F   0  0  0  0  0  0  0  0  0  0  0  0
   34.0830   28.9980   39.3560 F   0  0  0  0  0  0  0  0  0  0  0  0
   32.7140   29.1570   37.6010 F   0  0  0  0  0  0  0  0  0  0  0  0
  2  1  2  6  0  0  0
  2 13  1  0  0  0  0
  2  3  1  0  0  0  0
  3  6  1  0  0  0  0
  4  9  1  0  0  0  0
  5  6  1  0  0  0  0
  5  4  2  0  0  0  0
  6  7  2  0  0  0  0
  7  8  1  0  0  0  0
  8 12  1  0  0  0  0
  9  8  2  0  0  0  0
 10  4  1  0  0  0  0
 11  5  1  0  0  0  0
 13 14  1  0  0  0  0
 14 15  2  0  0  0  0
 14 16  1  0  0  0  0
 16 17  2  0  0  0  0
 16 24  1  0  0  0  0
 17 19  1  0  0  0  0
 18 17  1  0  0  0  0
 19 20  2  0  0  0  0
 20 21  1  0  0  0  0
 22 20  1  0  0  0  0
 22 23  1  0  0  0  0
 24 22  2  0  0  0  0
 25 26  1  0  0  0  0
 25  2  1  0  0  0  0
 26 28  1  0  0  0  0
 27 26  1  0  0  0  0
 29 26  1  0  0  0  0
M  END
>  <minimizedAffinity>
-4.89751434

$$$$
