
 OpenBabel03252507163D

 29 31  0  0  0  0  0  0  0  0999 V2000
   45.1890   36.1930   43.5140 C   0  0  0  0  0  0  0  0  0  0  0  0
   45.8080   35.0000   43.1270 C   0  0  0  0  0  0  0  0  0  0  0  0
   45.8070   33.9390   44.0380 C   0  0  0  0  0  0  0  0  0  0  0  0
   45.2180   34.1230   45.2250 N   0  0  0  0  0  0  0  0  0  0  0  0
   44.6200   35.2830   45.5910 C   0  0  0  0  0  0  0  0  0  0  0  0
   44.6200   36.2900   44.7280 N   0  0  0  0  0  0  0  0  0  0  0  0
   45.1470   37.0620   42.8710 H   0  0  0  0  0  0  0  0  0  0  0  0
   44.1860   35.2790   46.5800 H   0  0  0  0  0  0  0  0  0  0  0  0
   46.4440   32.6950   43.6540 C   0  0  0  0  0  0  0  0  0  0  0  0
   45.6680   31.6460   43.2000 C   0  0  0  0  0  0  0  0  0  0  0  0
   46.2970   30.4810   42.8360 C   0  0  0  0  0  0  0  0  0  0  0  0
   47.6850   30.2990   42.9000 C   0  0  0  0  0  0  0  0  0  0  0  0
   48.4000   31.3990   43.3670 C   0  0  0  0  0  0  0  0  0  0  0  0
   47.7600   32.5230   43.7140 N   0  0  0  0  0  0  0  0  0  0  0  0
   44.5790   31.7310   43.1300 H   0  0  0  0  0  0  0  0  0  0  0  0
   45.7170   29.6170   42.4710 H   0  0  0  0  0  0  0  0  0  0  0  0
   48.1870   29.3990   42.6210 H   0  0  0  0  0  0  0  0  0  0  0  0
   49.4750   31.3140   43.4350 H   0  0  0  0  0  0  0  0  0  0  0  0
   46.4180   34.8760   41.8300 C   0  0  0  0  0  0  0  0  0  0  0  0
   47.5930   35.3120   41.7140 O   0  0  0  0  0  0  0  0  0  0  0  0
   45.6340   34.2530   40.7400 C   0  0  0  0  0  0  0  0  0  0  0  0
   44.2500   34.4570   40.7300 C   0  0  0  0  0  0  0  0  0  0  0  0
   43.7150   35.0350   41.4330 H   0  0  0  0  0  0  0  0  0  0  0  0
   43.7170   33.7670   39.6340 C   0  0  0  0  0  3  0  0  0  0  0  0
   44.3360   33.0120   38.6930 C   0  0  0  0  0  0  0  0  0  0  0  0
   43.7560   32.5520   37.9090 H   0  0  0  0  0  0  0  0  0  0  0  0
   45.7030   32.9040   38.8340 C   0  0  0  0  0  0  0  0  0  0  0  0
   46.2560   32.3170   38.1220 H   0  0  0  0  0  0  0  0  0  0  0  0
   46.3840   33.5190   39.8580 C   0  0  0  0  0  3  0  0  0  0  0  0
  1  6  1  0  0  0  0
  2  1  2  0  0  0  0
  2  3  1  0  0  0  0
  3  4  2  0  0  0  0
  4  5  1  0  0  0  0
  5  8  1  0  0  0  0
  6  5  2  0  0  0  0
  7  1  1  0  0  0  0
  9 14  1  0  0  0  0
  9  3  1  0  0  0  0
 10  9  2  0  0  0  0
 11 12  2  0  0  0  0
 11 10  1  0  0  0  0
 12 13  1  0  0  0  0
 13 18  1  0  0  0  0
 13 14  2  0  0  0  0
 15 10  1  0  0  0  0
 16 11  1  0  0  0  0
 17 12  1  0  0  0  0
 19  2  1  0  0  0  0
 20 19  2  0  0  0  0
 21 19  1  0  0  0  0
 22 21  1  0  0  0  0
 22 23  1  0  0  0  0
 24 22  2  0  0  0  0
 25 27  2  0  0  0  0
 25 24  1  0  0  0  0
 26 25  1  0  0  0  0
 27 29  1  0  0  0  0
 28 27  1  0  0  0  0
 29 21  2  0  0  0  0
M  END
>  <minimizedAffinity>
-4.61718702

>  <minimizedRMSD>
0.677028775

$$$$
