
 OpenBabel03242512273D

 22 23  0  0  0  0  0  0  0  0999 V2000
   44.9100   35.0400   44.4810 C   0  0  0  0  0  0  0  0  0  0  0  0
   45.8710   34.9080   43.4780 C   0  0  0  0  0  0  0  0  0  0  0  0
   46.9300   34.0030   43.6730 C   0  0  0  0  0  0  0  0  0  0  0  0
   46.9400   33.3190   44.8330 N   0  0  0  0  0  0  0  0  0  0  0  0
   46.0150   33.4520   45.7890 C   0  0  0  0  0  0  0  0  0  0  0  0
   44.9890   34.3240   45.6090 N   0  0  0  0  0  0  0  0  0  0  0  0
   43.8420   35.9600   44.2630 N   0  0  0  0  0  0  0  0  0  0  0  0
   45.8660   35.4580   42.5410 H   0  0  0  0  0  0  0  0  0  0  0  0
   47.7200   33.8100   42.9930 H   0  0  0  0  0  0  0  0  0  0  0  0
   43.1410   35.6610   43.5400 H   0  0  0  0  0  0  0  0  0  0  0  0
   43.8060   36.8460   44.8070 H   0  0  0  0  0  0  0  0  0  0  0  0
   46.0320   32.7070   47.0320 C   0  0  0  0  0  0  0  0  0  0  0  0
   45.0950   32.7940   47.8880 O   0  0  0  0  0  0  0  0  0  0  0  0
   47.1000   31.7940   47.4270 C   0  0  0  0  0  0  0  0  0  0  0  0
   47.4040   30.6250   46.7630 C   0  0  0  0  0  0  0  0  0  0  0  0
   46.8580   30.3360   45.8930 H   0  0  0  0  0  0  0  0  0  0  0  0
   48.4000   29.7480   47.1280 C   0  0  0  0  0  0  0  0  0  0  0  0
   49.1690   30.0420   48.2460 C   0  0  0  0  0  0  0  0  0  0  0  0
   49.9510   29.3620   48.5430 H   0  0  0  0  0  0  0  0  0  0  0  0
   48.9180   31.1930   48.9530 C   0  0  0  0  0  0  0  0  0  0  0  0
   49.5300   31.3940   49.8150 H   0  0  0  0  0  0  0  0  0  0  0  0
   47.9050   32.0200   48.5240 C   0  0  0  0  0  0  0  0  0  0  0  0
  1  6  1  0  0  0  0
  2  3  1  0  0  0  0
  2  1  2  0  0  0  0
  3  4  2  0  0  0  0
  4  5  1  0  0  0  0
  5 12  1  0  0  0  0
  6  5  2  0  0  0  0
  7  1  1  0  0  0  0
  7 11  1  0  0  0  0
  8  2  1  0  0  0  0
  9  3  1  0  0  0  0
 10  7  1  0  0  0  0
 12 14  1  0  0  0  0
 12 13  2  0  0  0  0
 14 22  1  0  0  0  0
 15 17  1  0  0  0  0
 15 14  2  0  0  0  0
 16 15  1  0  0  0  0
 17 18  2  0  0  0  0
 18 19  1  0  0  0  0
 18 20  1  0  0  0  0
 20 21  1  0  0  0  0
 22 20  2  0  0  0  0
M  END
>  <minimizedAffinity>
-5.09094763

>  <minimizedRMSD>
0.572359502

$$$$
