
 OpenBabel03252507163D

 29 31  0  0  0  0  0  0  0  0999 V2000
   45.2350   36.2200   43.5180 C   0  0  0  0  0  0  0  0  0  0  0  0
   45.8590   35.0270   43.1390 C   0  0  0  0  0  0  0  0  0  0  0  0
   45.8250   33.9580   44.0400 C   0  0  0  0  0  0  0  0  0  0  0  0
   45.2010   34.1340   45.2100 N   0  0  0  0  0  0  0  0  0  0  0  0
   44.5990   35.2950   45.5690 C   0  0  0  0  0  0  0  0  0  0  0  0
   44.6300   36.3100   44.7150 N   0  0  0  0  0  0  0  0  0  0  0  0
   45.2170   37.0950   42.8820 H   0  0  0  0  0  0  0  0  0  0  0  0
   44.1360   35.2850   46.5440 H   0  0  0  0  0  0  0  0  0  0  0  0
   46.4670   32.7140   43.6640 C   0  0  0  0  0  0  0  0  0  0  0  0
   45.6930   31.6510   43.2390 C   0  0  0  0  0  0  0  0  0  0  0  0
   46.3250   30.4860   42.8830 C   0  0  0  0  0  0  0  0  0  0  0  0
   47.7160   30.3170   42.9260 C   0  0  0  0  0  0  0  0  0  0  0  0
   48.4290   31.4300   43.3640 C   0  0  0  0  0  0  0  0  0  0  0  0
   47.7840   32.5540   43.7050 N   0  0  0  0  0  0  0  0  0  0  0  0
   44.6020   31.7260   43.1860 H   0  0  0  0  0  0  0  0  0  0  0  0
   45.7470   29.6120   42.5400 H   0  0  0  0  0  0  0  0  0  0  0  0
   48.2210   29.4180   42.6520 H   0  0  0  0  0  0  0  0  0  0  0  0
   49.5060   31.3560   43.4150 H   0  0  0  0  0  0  0  0  0  0  0  0
   46.5070   34.9100   41.8600 C   0  0  0  0  0  0  0  0  0  0  0  0
   47.6610   35.4040   41.7630 O   0  0  0  0  0  0  0  0  0  0  0  0
   45.7830   34.2280   40.7640 C   0  0  0  0  0  0  0  0  0  0  0  0
   44.3930   34.3710   40.7090 C   0  0  0  0  0  0  0  0  0  0  0  0
   43.8120   34.9410   41.3800 H   0  0  0  0  0  0  0  0  0  0  0  0
   43.9230   33.6330   39.6150 C   0  0  0  0  0  3  0  0  0  0  0  0
   44.6010   32.8840   38.7110 C   0  0  0  0  0  0  0  0  0  0  0  0
   44.0660   32.3810   37.9220 H   0  0  0  0  0  0  0  0  0  0  0  0
   45.9670   32.8390   38.8950 C   0  0  0  0  0  0  0  0  0  0  0  0
   46.5670   32.2590   38.2140 H   0  0  0  0  0  0  0  0  0  0  0  0
   46.5900   33.5080   39.9220 C   0  0  0  0  0  3  0  0  0  0  0  0
  1  6  1  0  0  0  0
  2  1  2  0  0  0  0
  2  3  1  0  0  0  0
  3  4  2  0  0  0  0
  4  5  1  0  0  0  0
  5  8  1  0  0  0  0
  6  5  2  0  0  0  0
  7  1  1  0  0  0  0
  9 14  1  0  0  0  0
  9  3  1  0  0  0  0
 10  9  2  0  0  0  0
 11 12  2  0  0  0  0
 11 10  1  0  0  0  0
 12 13  1  0  0  0  0
 13 18  1  0  0  0  0
 13 14  2  0  0  0  0
 15 10  1  0  0  0  0
 16 11  1  0  0  0  0
 17 12  1  0  0  0  0
 19  2  1  0  0  0  0
 20 19  2  0  0  0  0
 21 19  1  0  0  0  0
 22 21  1  0  0  0  0
 22 23  1  0  0  0  0
 24 22  2  0  0  0  0
 25 27  2  0  0  0  0
 25 24  1  0  0  0  0
 26 25  1  0  0  0  0
 27 29  1  0  0  0  0
 28 27  1  0  0  0  0
 29 21  2  0  0  0  0
M  END
>  <minimizedAffinity>
-4.57984877

>  <minimizedRMSD>
0.456096292

$$$$
