
 OpenBabel03242512053D

 20 21  0  0  0  0  0  0  0  0999 V2000
   47.6730   35.0140   41.7380 C   0  0  0  0  0  0  0  0  0  0  0  0
   48.7320   35.6580   41.9150 O   0  0  0  0  0  0  0  0  0  0  0  0
   45.7120   35.8200   42.9390 C   0  0  0  0  0  0  0  0  0  0  0  0
   46.7630   34.9030   42.8290 C   0  0  0  0  0  0  0  0  0  0  0  0
   46.8670   33.9090   43.8150 C   0  0  0  0  0  0  0  0  0  0  0  0
   45.9480   33.8890   44.8160 N   0  0  0  0  0  0  0  0  0  0  0  0
   44.9490   34.7950   44.8820 C   0  0  0  0  0  0  0  0  0  0  0  0
   44.8320   35.7580   43.9450 N   0  0  0  0  0  0  0  0  0  0  0  0
   45.5750   36.6180   42.2040 H   0  0  0  0  0  0  0  0  0  0  0  0
   47.6690   33.1830   43.7610 H   0  0  0  0  0  0  0  0  0  0  0  0
   44.3200   34.6240   45.7430 H   0  0  0  0  0  0  0  0  0  0  0  0
   47.3150   34.3700   40.4770 C   0  0  0  0  0  0  0  0  0  0  0  0
   48.2120   34.5330   39.4420 C   0  0  0  0  0  0  0  0  0  0  0  0
   49.1340   35.0870   39.4940 H   0  0  0  0  0  0  0  0  0  0  0  0
   47.9640   33.9610   38.2080 C   0  0  0  0  0  0  0  0  0  0  0  0
   46.8010   33.2300   38.0480 C   0  0  0  0  0  0  0  0  0  0  0  0
   46.6250   32.7870   37.0640 H   0  0  0  0  0  0  0  0  0  0  0  0
   45.9300   33.0860   39.0880 C   0  0  0  0  0  0  0  0  0  0  0  0
   45.0320   32.5000   38.8990 H   0  0  0  0  0  0  0  0  0  0  0  0
   46.1580   33.6500   40.3340 C   0  0  0  0  0  0  0  0  0  0  0  0
  1  2  2  0  0  0  0
  1  4  1  0  0  0  0
  3  8  1  0  0  0  0
  4  3  2  0  0  0  0
  4  5  1  0  0  0  0
  5  6  2  0  0  0  0
  6  7  1  0  0  0  0
  7 11  1  0  0  0  0
  8  7  2  0  0  0  0
  9  3  1  0  0  0  0
 10  5  1  0  0  0  0
 12  1  1  0  0  0  0
 13 14  1  0  0  0  0
 13 12  2  0  0  0  0
 15 13  1  0  0  0  0
 16 15  2  0  0  0  0
 16 18  1  0  0  0  0
 17 16  1  0  0  0  0
 18 20  2  0  0  0  0
 19 18  1  0  0  0  0
 20 12  1  0  0  0  0
M  END
>  <minimizedAffinity>
-4.36145544

>  <minimizedRMSD>
1.32278192

$$$$
