
 OpenBabel03252507163D

 29 31  0  0  0  0  0  0  0  0999 V2000
   45.1780   36.1900   43.5540 C   0  0  0  0  0  0  0  0  0  0  0  0
   45.8060   35.0040   43.1570 C   0  0  0  0  0  0  0  0  0  0  0  0
   45.8100   33.9360   44.0580 C   0  0  0  0  0  0  0  0  0  0  0  0
   45.2170   34.1040   45.2450 N   0  0  0  0  0  0  0  0  0  0  0  0
   44.6110   35.2570   45.6210 C   0  0  0  0  0  0  0  0  0  0  0  0
   44.6060   36.2720   44.7680 N   0  0  0  0  0  0  0  0  0  0  0  0
   45.1320   37.0650   42.9190 H   0  0  0  0  0  0  0  0  0  0  0  0
   44.1750   35.2410   46.6090 H   0  0  0  0  0  0  0  0  0  0  0  0
   46.4560   32.6990   43.6640 C   0  0  0  0  0  0  0  0  0  0  0  0
   45.6850   31.6380   43.2270 C   0  0  0  0  0  0  0  0  0  0  0  0
   46.3220   30.4810   42.8530 C   0  0  0  0  0  0  0  0  0  0  0  0
   47.7130   30.3180   42.8900 C   0  0  0  0  0  0  0  0  0  0  0  0
   48.4230   31.4280   43.3400 C   0  0  0  0  0  0  0  0  0  0  0  0
   47.7740   32.5440   43.6980 N   0  0  0  0  0  0  0  0  0  0  0  0
   44.5940   31.7090   43.1790 H   0  0  0  0  0  0  0  0  0  0  0  0
   45.7460   29.6090   42.5010 H   0  0  0  0  0  0  0  0  0  0  0  0
   48.2220   29.4240   42.6020 H   0  0  0  0  0  0  0  0  0  0  0  0
   49.5000   31.3580   43.3870 H   0  0  0  0  0  0  0  0  0  0  0  0
   46.4190   34.8960   41.8600 C   0  0  0  0  0  0  0  0  0  0  0  0
   47.5800   35.3700   41.7420 O   0  0  0  0  0  0  0  0  0  0  0  0
   45.6560   34.2450   40.7730 C   0  0  0  0  0  0  0  0  0  0  0  0
   44.2730   34.4500   40.7290 C   0  0  0  0  0  0  0  0  0  0  0  0
   43.7250   35.0470   41.4050 H   0  0  0  0  0  0  0  0  0  0  0  0
   43.7610   33.7310   39.6410 C   0  0  0  0  0  3  0  0  0  0  0  0
   44.3970   32.9510   38.7330 C   0  0  0  0  0  0  0  0  0  0  0  0
   43.8330   32.4700   37.9510 H   0  0  0  0  0  0  0  0  0  0  0  0
   45.7620   32.8450   38.9050 C   0  0  0  0  0  0  0  0  0  0  0  0
   46.3280   32.2380   38.2210 H   0  0  0  0  0  0  0  0  0  0  0  0
   46.4220   33.4870   39.9260 C   0  0  0  0  0  3  0  0  0  0  0  0
  1  6  1  0  0  0  0
  2  1  2  0  0  0  0
  2  3  1  0  0  0  0
  3  4  2  0  0  0  0
  4  5  1  0  0  0  0
  5  8  1  0  0  0  0
  6  5  2  0  0  0  0
  7  1  1  0  0  0  0
  9 14  1  0  0  0  0
  9  3  1  0  0  0  0
 10  9  2  0  0  0  0
 11 12  2  0  0  0  0
 11 10  1  0  0  0  0
 12 13  1  0  0  0  0
 13 18  1  0  0  0  0
 13 14  2  0  0  0  0
 15 10  1  0  0  0  0
 16 11  1  0  0  0  0
 17 12  1  0  0  0  0
 19  2  1  0  0  0  0
 20 19  2  0  0  0  0
 21 19  1  0  0  0  0
 22 21  1  0  0  0  0
 22 23  1  0  0  0  0
 24 22  2  0  0  0  0
 25 27  2  0  0  0  0
 25 24  1  0  0  0  0
 26 25  1  0  0  0  0
 27 29  1  0  0  0  0
 28 27  1  0  0  0  0
 29 21  2  0  0  0  0
M  END
>  <minimizedAffinity>
-4.59438419

>  <minimizedRMSD>
0.596272469

$$$$
