
 OpenBabel03252507463D

 37 39  0  0  0  0  0  0  0  0999 V2000
   46.9470   34.3260   40.9770 C   0  0  0  0  0  0  0  0  0  0  0  0
   47.0740   35.0860   40.1520 H   0  0  0  0  0  0  0  0  0  0  0  0
   46.3970   33.4610   40.6140 H   0  0  0  0  0  0  0  0  0  0  0  0
   48.3140   33.9990   41.4230 C   0  0  0  0  0  0  0  0  0  0  0  0
   48.8120   32.7730   41.0220 C   0  0  0  0  0  0  0  0  0  0  0  0
   50.0970   32.3790   41.3970 C   0  0  0  0  0  0  0  0  0  0  0  0
   50.8200   33.2540   42.1650 N   0  0  0  0  0  0  0  0  0  0  0  0
   50.2910   34.4550   42.5380 C   0  0  0  0  0  0  0  0  0  0  0  0
   49.0650   34.7980   42.1640 N   0  0  0  0  0  0  0  0  0  0  0  0
   50.5290   31.4270   41.1060 H   0  0  0  0  0  0  0  0  0  0  0  0
   50.8660   35.1420   43.1450 H   0  0  0  0  0  0  0  0  0  0  0  0
   47.8280   31.6610   40.0160 S   0  0  0  0  0  0  0  0  0  0  0  0
   48.1220   32.0690   38.3100 C   0  0  0  0  0  0  0  0  0  0  0  0
   48.0360   31.1200   37.3370 C   0  0  0  0  0  0  0  0  0  0  0  0
   47.7830   30.0840   37.5940 H   0  0  0  0  0  0  0  0  0  0  0  0
   48.2540   31.3910   36.0170 C   0  0  0  0  0  3  0  0  0  0  0  0
   48.5790   32.6740   35.5990 C   0  0  0  0  0  0  0  0  0  0  0  0
   48.7560   32.9170   34.5610 H   0  0  0  0  0  0  0  0  0  0  0  0
   48.6730   33.6570   36.5650 C   0  0  0  0  0  0  0  0  0  0  0  0
   48.9250   34.6570   36.2500 H   0  0  0  0  0  0  0  0  0  0  0  0
   48.4450   33.3370   37.8840 C   0  0  0  0  0  3  0  0  0  0  0  0
   46.1250   35.0030   42.0270 C   0  0  0  0  0  0  0  0  0  0  0  0
   46.2620   34.4240   42.9870 H   0  0  0  0  0  0  0  0  0  0  0  0
   46.4640   36.0300   42.2760 H   0  0  0  0  0  0  0  0  0  0  0  0
   44.6590   34.9720   41.7580 C   0  0  0  0  0  0  0  0  0  0  0  0
   43.7540   35.4590   42.7460 C   0  0  0  0  0  0  0  0  0  0  0  0
   42.1130   35.2130   41.9640 S   0  0  0  0  0  0  0  0  0  0  0  0
   42.9410   34.4810   40.4100 C   0  0  0  0  0  0  0  0  0  0  0  0
   44.0450   34.5400   40.6930 N   0  0  0  0  0  0  0  0  0  0  0  0
   44.0080   35.8730   43.7210 H   0  0  0  0  0  0  0  0  0  0  0  0
   42.2150   34.0370   39.3010 O   0  0  0  0  0  0  0  0  0  0  0  0
   40.3250   34.5750   37.5250 O   0  0  0  0  0  0  0  0  0  0  0  0
   41.4220   35.2190   38.3700 P   0  0  0  0  0  0  0  0  0  0  0  0
   40.7350   36.3420   39.4240 O   0  0  0  0  0  0  0  0  0  0  0  0
   39.8930   35.9690   39.8250 H   0  0  0  0  0  0  0  0  0  0  0  0
   42.5480   36.0030   37.3780 O   0  0  0  0  0  0  0  0  0  0  0  0
   42.9970   36.6900   37.9570 H   0  0  0  0  0  0  0  0  0  0  0  0
  1  4  1  0  0  0  0
  1 22  1  0  0  0  0
  2  1  1  0  0  0  0
  3  1  1  0  0  0  0
  4  9  1  0  0  0  0
  5  6  1  0  0  0  0
  5  4  2  0  0  0  0
  6  7  2  0  0  0  0
  7  8  1  0  0  0  0
  8 11  1  0  0  0  0
  9  8  2  0  0  0  0
 10  6  1  0  0  0  0
 12  5  1  0  0  0  0
 13 12  1  0  0  0  0
 14 15  1  0  0  0  0
 14 13  2  0  0  0  0
 16 14  1  0  0  0  0
 17 16  2  0  0  0  0
 17 19  1  0  0  0  0
 18 17  1  0  0  0  0
 19 21  2  0  0  0  0
 20 19  1  0  0  0  0
 21 13  1  0  0  0  0
 22 24  1  0  0  0  0
 22 23  1  0  0  0  0
 25 22  1  0  0  0  0
 25 26  2  0  0  0  0
 26 30  1  0  0  0  0
 27 26  1  0  0  0  0
 28 29  2  0  0  0  0
 28 27  1  0  0  0  0
 29 25  1  0  0  0  0
 31 28  1  0  0  0  0
 32 33  2  0  0  0  0
 33 31  1  0  0  0  0
 33 34  1  0  0  0  0
 34 35  1  0  0  0  0
 36 37  1  0  0  0  0
 36 33  1  0  0  0  0
M  END
>  <minimizedAffinity>
-4.90951252

>  <minimizedRMSD>
0.318256855

$$$$
