
 OpenBabel03252507463D

 37 39  0  0  0  0  0  0  0  0999 V2000
   47.1780   34.4380   40.9250 C   0  0  0  0  0  0  0  0  0  0  0  0
   47.3860   35.3060   40.2350 H   0  0  0  0  0  0  0  0  0  0  0  0
   46.5980   33.6750   40.4110 H   0  0  0  0  0  0  0  0  0  0  0  0
   48.5010   33.9610   41.3670 C   0  0  0  0  0  0  0  0  0  0  0  0
   48.8600   32.6890   40.9590 C   0  0  0  0  0  0  0  0  0  0  0  0
   50.0950   32.1550   41.3300 C   0  0  0  0  0  0  0  0  0  0  0  0
   50.9110   32.9410   42.1010 N   0  0  0  0  0  0  0  0  0  0  0  0
   50.5170   34.1910   42.4810 C   0  0  0  0  0  0  0  0  0  0  0  0
   49.3360   34.6680   42.1110 N   0  0  0  0  0  0  0  0  0  0  0  0
   50.4200   31.1630   41.0330 H   0  0  0  0  0  0  0  0  0  0  0  0
   51.1650   34.8070   43.0910 H   0  0  0  0  0  0  0  0  0  0  0  0
   47.7600   31.6970   39.9500 S   0  0  0  0  0  0  0  0  0  0  0  0
   48.1930   31.9690   38.2460 C   0  0  0  0  0  0  0  0  0  0  0  0
   48.9670   31.0780   37.5680 C   0  0  0  0  0  0  0  0  0  0  0  0
   49.3380   30.1750   38.0680 H   0  0  0  0  0  0  0  0  0  0  0  0
   49.3220   31.2490   36.2630 C   0  0  0  0  0  3  0  0  0  0  0  0
   48.9000   32.3630   35.5490 C   0  0  0  0  0  0  0  0  0  0  0  0
   49.1650   32.5240   34.5150 H   0  0  0  0  0  0  0  0  0  0  0  0
   48.1120   33.2840   36.2120 C   0  0  0  0  0  0  0  0  0  0  0  0
   47.7780   34.1530   35.6680 H   0  0  0  0  0  0  0  0  0  0  0  0
   47.7790   33.0690   37.5310 C   0  0  0  0  0  3  0  0  0  0  0  0
   46.3450   34.9960   42.0360 C   0  0  0  0  0  0  0  0  0  0  0  0
   46.5040   34.3370   42.9390 H   0  0  0  0  0  0  0  0  0  0  0  0
   46.6590   36.0050   42.3740 H   0  0  0  0  0  0  0  0  0  0  0  0
   44.8790   34.9490   41.7720 C   0  0  0  0  0  0  0  0  0  0  0  0
   43.9750   35.4660   42.7450 C   0  0  0  0  0  0  0  0  0  0  0  0
   42.3330   35.1870   41.9770 S   0  0  0  0  0  0  0  0  0  0  0  0
   43.1600   34.4060   40.4450 C   0  0  0  0  0  0  0  0  0  0  0  0
   44.2640   34.4800   40.7240 N   0  0  0  0  0  0  0  0  0  0  0  0
   44.2290   35.9140   43.7060 H   0  0  0  0  0  0  0  0  0  0  0  0
   42.4330   33.9230   39.3540 O   0  0  0  0  0  0  0  0  0  0  0  0
   40.4690   34.3450   37.6280 O   0  0  0  0  0  0  0  0  0  0  0  0
   41.5380   35.0560   38.4550 P   0  0  0  0  0  0  0  0  0  0  0  0
   40.7980   36.1180   39.5380 O   0  0  0  0  0  0  0  0  0  0  0  0
   39.9940   35.6820   39.9530 H   0  0  0  0  0  0  0  0  0  0  0  0
   42.5830   35.9280   37.4480 O   0  0  0  0  0  0  0  0  0  0  0  0
   42.9960   36.6390   38.0250 H   0  0  0  0  0  0  0  0  0  0  0  0
  1  4  1  0  0  0  0
  1 22  1  0  0  0  0
  2  1  1  0  0  0  0
  3  1  1  0  0  0  0
  4  9  1  0  0  0  0
  5  6  1  0  0  0  0
  5  4  2  0  0  0  0
  6  7  2  0  0  0  0
  7  8  1  0  0  0  0
  8 11  1  0  0  0  0
  9  8  2  0  0  0  0
 10  6  1  0  0  0  0
 12  5  1  0  0  0  0
 13 12  1  0  0  0  0
 14 15  1  0  0  0  0
 14 13  1  0  0  0  0
 16 14  2  0  0  0  0
 17 19  2  0  0  0  0
 17 16  1  0  0  0  0
 18 17  1  0  0  0  0
 19 21  1  0  0  0  0
 20 19  1  0  0  0  0
 21 13  2  0  0  0  0
 22 24  1  0  0  0  0
 22 23  1  0  0  0  0
 25 22  1  0  0  0  0
 25 26  2  0  0  0  0
 26 30  1  0  0  0  0
 27 26  1  0  0  0  0
 28 29  2  0  0  0  0
 28 27  1  0  0  0  0
 29 25  1  0  0  0  0
 31 28  1  0  0  0  0
 32 33  2  0  0  0  0
 33 31  1  0  0  0  0
 33 34  1  0  0  0  0
 34 35  1  0  0  0  0
 36 37  1  0  0  0  0
 36 33  1  0  0  0  0
M  END
>  <minimizedAffinity>
-4.8599391

>  <minimizedRMSD>
0.298510343

$$$$
