
 OpenBabel03252507463D

 37 39  0  0  0  0  0  0  0  0999 V2000
   47.0630   34.2460   40.9600 C   0  0  0  0  0  0  0  0  0  0  0  0
   47.1920   34.9360   40.0760 H   0  0  0  0  0  0  0  0  0  0  0  0
   46.5010   33.3610   40.6700 H   0  0  0  0  0  0  0  0  0  0  0  0
   48.4290   33.9390   41.4220 C   0  0  0  0  0  0  0  0  0  0  0  0
   48.9420   32.7120   41.0420 C   0  0  0  0  0  0  0  0  0  0  0  0
   50.2280   32.3370   41.4340 C   0  0  0  0  0  0  0  0  0  0  0  0
   50.9360   33.2300   42.1960 N   0  0  0  0  0  0  0  0  0  0  0  0
   50.3910   34.4300   42.5480 C   0  0  0  0  0  0  0  0  0  0  0  0
   49.1660   34.7550   42.1580 N   0  0  0  0  0  0  0  0  0  0  0  0
   50.6730   31.3850   41.1600 H   0  0  0  0  0  0  0  0  0  0  0  0
   50.9550   35.1310   43.1500 H   0  0  0  0  0  0  0  0  0  0  0  0
   47.9790   31.5760   40.0440 S   0  0  0  0  0  0  0  0  0  0  0  0
   48.3360   31.9180   38.3350 C   0  0  0  0  0  0  0  0  0  0  0  0
   47.6440   32.8720   37.6510 C   0  0  0  0  0  0  0  0  0  0  0  0
   46.8520   33.4440   38.1490 H   0  0  0  0  0  0  0  0  0  0  0  0
   47.8860   33.1650   36.3420 C   0  0  0  0  0  3  0  0  0  0  0  0
   48.8700   32.4910   35.6310 C   0  0  0  0  0  0  0  0  0  0  0  0
   49.0830   32.7020   34.5930 H   0  0  0  0  0  0  0  0  0  0  0  0
   49.5870   31.5180   36.3000 C   0  0  0  0  0  0  0  0  0  0  0  0
   50.3540   30.9880   35.7570 H   0  0  0  0  0  0  0  0  0  0  0  0
   49.3080   31.2560   37.6220 C   0  0  0  0  0  3  0  0  0  0  0  0
   46.2560   35.0130   41.9580 C   0  0  0  0  0  0  0  0  0  0  0  0
   46.4100   34.5240   42.9640 H   0  0  0  0  0  0  0  0  0  0  0  0
   46.5970   36.0590   42.1080 H   0  0  0  0  0  0  0  0  0  0  0  0
   44.7860   34.9570   41.7170 C   0  0  0  0  0  0  0  0  0  0  0  0
   43.8920   35.4290   42.7200 C   0  0  0  0  0  0  0  0  0  0  0  0
   42.2410   35.1550   41.9700 S   0  0  0  0  0  0  0  0  0  0  0  0
   43.0520   34.4350   40.4000 C   0  0  0  0  0  0  0  0  0  0  0  0
   44.1590   34.5140   40.6640 N   0  0  0  0  0  0  0  0  0  0  0  0
   44.1560   35.8490   43.6910 H   0  0  0  0  0  0  0  0  0  0  0  0
   42.3130   33.9780   39.3060 O   0  0  0  0  0  0  0  0  0  0  0  0
   40.3760   34.4720   37.5680 O   0  0  0  0  0  0  0  0  0  0  0  0
   41.4650   35.1440   38.4020 P   0  0  0  0  0  0  0  0  0  0  0  0
   40.7570   36.2300   39.4810 O   0  0  0  0  0  0  0  0  0  0  0  0
   39.9350   35.8230   39.8910 H   0  0  0  0  0  0  0  0  0  0  0  0
   42.5460   35.9780   37.4020 O   0  0  0  0  0  0  0  0  0  0  0  0
   42.9820   36.6730   37.9830 H   0  0  0  0  0  0  0  0  0  0  0  0
  1  4  1  0  0  0  0
  1 22  1  0  0  0  0
  2  1  1  0  0  0  0
  3  1  1  0  0  0  0
  4  9  1  0  0  0  0
  5  4  2  0  0  0  0
  5  6  1  0  0  0  0
  6  7  2  0  0  0  0
  7  8  1  0  0  0  0
  8 11  1  0  0  0  0
  9  8  2  0  0  0  0
 10  6  1  0  0  0  0
 12  5  1  0  0  0  0
 13 12  1  0  0  0  0
 14 15  1  0  0  0  0
 14 13  1  0  0  0  0
 16 14  2  0  0  0  0
 17 19  2  0  0  0  0
 17 16  1  0  0  0  0
 18 17  1  0  0  0  0
 19 21  1  0  0  0  0
 20 19  1  0  0  0  0
 21 13  2  0  0  0  0
 22 24  1  0  0  0  0
 22 23  1  0  0  0  0
 25 22  1  0  0  0  0
 25 26  2  0  0  0  0
 26 30  1  0  0  0  0
 27 26  1  0  0  0  0
 28 29  2  0  0  0  0
 28 27  1  0  0  0  0
 29 25  1  0  0  0  0
 31 28  1  0  0  0  0
 32 33  2  0  0  0  0
 33 31  1  0  0  0  0
 33 34  1  0  0  0  0
 34 35  1  0  0  0  0
 36 37  1  0  0  0  0
 36 33  1  0  0  0  0
M  END
>  <minimizedAffinity>
-4.84897041

>  <minimizedRMSD>
0.320251107

$$$$
