
 OpenBabel03252509133D

 32 35  0  0  0  0  0  0  0  0999 V2000
   37.3170   33.0060   39.6120 C   0  0  0  0  0  0  0  0  0  0  0  0
   37.6230   31.6490   39.6740 C   0  0  0  0  0  0  0  0  0  0  0  0
   38.8560   31.1810   40.0290 C   0  0  0  0  0  0  0  0  0  0  0  0
   39.8880   32.0650   40.3520 C   0  0  0  0  0  0  0  0  0  0  0  0
   41.1820   31.9670   40.7330 N   0  0  0  0  0  0  0  0  0  0  0  0
   41.6810   33.2200   40.9080 C   0  0  0  0  0  0  0  0  0  0  0  0
   40.6810   34.0740   40.6300 N   0  0  0  0  0  0  0  0  0  0  0  0
   39.5720   33.3930   40.2870 C   0  0  0  0  0  0  0  0  0  0  0  0
   38.3370   33.9120   39.9330 C   0  0  0  0  0  0  0  0  0  0  0  0
   36.3390   33.3550   39.3300 H   0  0  0  0  0  0  0  0  0  0  0  0
   41.5860   31.0140   40.8310 H   0  0  0  0  0  0  0  0  0  0  0  0
   42.7170   33.2500   41.2150 H   0  0  0  0  0  0  0  0  0  0  0  0
   38.1460   34.9770   39.9000 H   0  0  0  0  0  0  0  0  0  0  0  0
   34.7700   29.3590   39.9880 C   0  0  0  0  0  0  0  0  0  0  0  0
   34.6200   28.8560   38.7040 C   0  0  0  0  0  0  0  0  0  0  0  0
   35.5060   29.3090   37.7330 C   0  0  0  0  0  0  0  0  0  0  0  0
   36.4800   30.2200   38.0650 N   0  0  0  0  0  0  0  0  0  0  0  0
   36.5800   30.6810   39.3450 C   0  0  0  0  0  0  0  0  0  0  0  0
   35.7370   30.2580   40.3000 N   0  0  0  0  0  0  0  0  0  0  0  0
   34.0620   28.9820   40.7130 H   0  0  0  0  0  0  0  0  0  0  0  0
   33.8610   28.1400   38.4230 H   0  0  0  0  0  0  0  0  0  0  0  0
   35.4880   28.9900   36.6980 H   0  0  0  0  0  0  0  0  0  0  0  0
   39.2340   29.4330   40.1050 S   0  0  0  0  0  0  0  0  0  0  0  0
   38.3550   28.6370   41.4390 C   0  0  0  0  0  0  0  0  0  0  0  0
   37.7320   27.4020   41.2700 C   0  0  0  0  0  0  0  0  0  0  0  0
   37.7730   26.8970   40.3070 H   0  0  0  0  0  0  0  0  0  0  0  0
   37.0610   26.8080   42.3110 C   0  0  0  0  0  3  0  0  0  0  0  0
   37.0060   27.4430   43.5280 C   0  0  0  0  0  0  0  0  0  0  0  0
   36.4790   26.9790   44.3490 H   0  0  0  0  0  0  0  0  0  0  0  0
   37.6380   28.6830   43.6780 C   0  0  0  0  0  0  0  0  0  0  0  0
   37.5450   29.1200   44.6800 H   0  0  0  0  0  0  0  0  0  0  0  0
   38.3170   29.2970   42.6440 C   0  0  0  0  0  3  0  0  0  0  0  0
  1  2  2  0  0  0  0
  1  9  1  0  0  0  0
  2  3  1  0  0  0  0
  3 23  1  0  0  0  0
  3  4  2  0  0  0  0
  4  5  1  0  0  0  0
  5 11  1  0  0  0  0
  5  6  1  0  0  0  0
  6 12  1  0  0  0  0
  7  6  2  0  0  0  0
  8  4  1  0  0  0  0
  8  7  1  0  0  0  0
  9  8  2  0  0  0  0
 10  1  1  0  0  0  0
 13  9  1  0  0  0  0
 14 19  1  0  0  0  0
 14 20  1  0  0  0  0
 15 14  2  0  0  0  0
 16 17  2  0  0  0  0
 16 15  1  0  0  0  0
 17 18  1  0  0  0  0
 18  2  1  0  0  0  0
 18 19  2  0  0  0  0
 21 15  1  0  0  0  0
 22 16  1  0  0  0  0
 23 24  1  0  0  0  0
 24 32  1  0  0  0  0
 25 24  2  0  0  0  0
 25 27  1  0  0  0  0
 26 25  1  0  0  0  0
 27 28  2  0  0  0  0
 28 30  1  0  0  0  0
 28 29  1  0  0  0  0
 30 31  1  0  0  0  0
 32 30  2  0  0  0  0
M  END
>  <minimizedAffinity>
-6.06309223

$$$$

 OpenBabel03252509133D

 32 35  0  0  0  0  0  0  0  0999 V2000
   37.6700   30.9720   37.1280 C   0  0  0  0  0  0  0  0  0  0  0  0
   37.4250   31.1130   38.4920 C   0  0  0  0  0  0  0  0  0  0  0  0
   36.4680   30.3950   39.1520 C   0  0  0  0  0  0  0  0  0  0  0  0
   35.6760   29.4680   38.4720 C   0  0  0  0  0  0  0  0  0  0  0  0
   34.6760   28.6140   38.7850 N   0  0  0  0  0  0  0  0  0  0  0  0
   34.2980   27.9530   37.6580 C   0  0  0  0  0  0  0  0  0  0  0  0
   35.0760   28.4130   36.6630 N   0  0  0  0  0  0  0  0  0  0  0  0
   35.9290   29.3410   37.1340 C   0  0  0  0  0  0  0  0  0  0  0  0
   36.8870   30.0470   36.4250 C   0  0  0  0  0  0  0  0  0  0  0  0
   38.4290   31.5470   36.6260 H   0  0  0  0  0  0  0  0  0  0  0  0
   34.3570   28.5850   39.7740 H   0  0  0  0  0  0  0  0  0  0  0  0
   33.4970   27.2410   37.8040 H   0  0  0  0  0  0  0  0  0  0  0  0
   37.0420   29.9030   35.3630 H   0  0  0  0  0  0  0  0  0  0  0  0
   38.4690   34.1610   40.2520 C   0  0  0  0  0  0  0  0  0  0  0  0
   39.7520   33.8570   40.6850 C   0  0  0  0  0  0  0  0  0  0  0  0
   40.2520   32.5990   40.3680 C   0  0  0  0  0  0  0  0  0  0  0  0
   39.4810   31.7160   39.6520 N   0  0  0  0  0  0  0  0  0  0  0  0
   38.2250   32.0700   39.2520 C   0  0  0  0  0  0  0  0  0  0  0  0
   37.7210   33.2770   39.5460 N   0  0  0  0  0  0  0  0  0  0  0  0
   38.1180   35.1480   40.5190 H   0  0  0  0  0  0  0  0  0  0  0  0
   40.3730   34.5380   41.2490 H   0  0  0  0  0  0  0  0  0  0  0  0
   41.2370   32.2480   40.6510 H   0  0  0  0  0  0  0  0  0  0  0  0
   36.1660   30.5860   40.9060 S   0  0  0  0  0  0  0  0  0  0  0  0
   37.0090   29.3280   41.8500 C   0  0  0  0  0  0  0  0  0  0  0  0
   36.4390   28.0750   42.0700 C   0  0  0  0  0  0  0  0  0  0  0  0
   35.4570   27.8420   41.6630 H   0  0  0  0  0  0  0  0  0  0  0  0
   37.1060   27.1210   42.8000 C   0  0  0  0  0  3  0  0  0  0  0  0
   38.3450   27.4110   43.3150 C   0  0  0  0  0  0  0  0  0  0  0  0
   38.8730   26.6630   43.8900 H   0  0  0  0  0  0  0  0  0  0  0  0
   38.9000   28.6750   43.0840 C   0  0  0  0  0  0  0  0  0  0  0  0
   39.8910   28.8230   43.5310 H   0  0  0  0  0  0  0  0  0  0  0  0
   38.2460   29.6470   42.3540 C   0  0  0  0  0  3  0  0  0  0  0  0
  1  2  1  0  0  0  0
  2  3  2  0  0  0  0
  2 18  1  0  0  0  0
  3 23  1  0  0  0  0
  4  5  1  0  0  0  0
  4  3  1  0  0  0  0
  5 11  1  0  0  0  0
  6 12  1  0  0  0  0
  6  5  1  0  0  0  0
  7  8  1  0  0  0  0
  7  6  2  0  0  0  0
  8  4  2  0  0  0  0
  9  1  2  0  0  0  0
  9  8  1  0  0  0  0
 10  1  1  0  0  0  0
 13  9  1  0  0  0  0
 14 20  1  0  0  0  0
 14 15  1  0  0  0  0
 15 21  1  0  0  0  0
 16 22  1  0  0  0  0
 16 15  2  0  0  0  0
 17 16  1  0  0  0  0
 18 19  1  0  0  0  0
 18 17  2  0  0  0  0
 19 14  2  0  0  0  0
 23 24  1  0  0  0  0
 24 25  2  0  0  0  0
 24 32  1  0  0  0  0
 25 27  1  0  0  0  0
 26 25  1  0  0  0  0
 27 28  2  0  0  0  0
 28 29  1  0  0  0  0
 30 28  1  0  0  0  0
 30 31  1  0  0  0  0
 32 30  2  0  0  0  0
M  END
>  <minimizedAffinity>
-5.93592691

$$$$

 OpenBabel03252509133D

 32 35  0  0  0  0  0  0  0  0999 V2000
   37.0920   30.1750   36.9290 C   0  0  0  0  0  0  0  0  0  0  0  0
   36.4400   29.5440   37.9850 C   0  0  0  0  0  0  0  0  0  0  0  0
   36.3140   30.1080   39.2230 C   0  0  0  0  0  0  0  0  0  0  0  0
   36.8460   31.3710   39.4880 C   0  0  0  0  0  0  0  0  0  0  0  0
   36.9090   32.2070   40.5490 N   0  0  0  0  0  0  0  0  0  0  0  0
   37.5790   33.3320   40.1800 C   0  0  0  0  0  0  0  0  0  0  0  0
   37.9190   33.1690   38.8890 N   0  0  0  0  0  0  0  0  0  0  0  0
   37.4820   31.9770   38.4410 C   0  0  0  0  0  0  0  0  0  0  0  0
   37.6340   31.4440   37.1720 C   0  0  0  0  0  0  0  0  0  0  0  0
   37.1820   29.7140   35.9600 H   0  0  0  0  0  0  0  0  0  0  0  0
   36.4680   31.8940   41.4380 H   0  0  0  0  0  0  0  0  0  0  0  0
   37.6840   34.0680   40.9640 H   0  0  0  0  0  0  0  0  0  0  0  0
   38.1490   31.9730   36.3810 H   0  0  0  0  0  0  0  0  0  0  0  0
   36.0590   25.8970   37.7920 C   0  0  0  0  0  0  0  0  0  0  0  0
   34.7600   25.7340   37.3340 C   0  0  0  0  0  0  0  0  0  0  0  0
   34.0190   26.8860   37.0920 C   0  0  0  0  0  0  0  0  0  0  0  0
   34.5810   28.1210   37.3090 N   0  0  0  0  0  0  0  0  0  0  0  0
   35.8640   28.2200   37.7620 C   0  0  0  0  0  0  0  0  0  0  0  0
   36.5990   27.1240   38.0020 N   0  0  0  0  0  0  0  0  0  0  0  0
   36.6010   24.9780   37.9680 H   0  0  0  0  0  0  0  0  0  0  0  0
   34.3000   24.7720   37.1570 H   0  0  0  0  0  0  0  0  0  0  0  0
   32.9960   26.8860   36.7340 H   0  0  0  0  0  0  0  0  0  0  0  0
   35.4710   29.2850   40.5700 S   0  0  0  0  0  0  0  0  0  0  0  0
   36.6270   28.4680   41.6570 C   0  0  0  0  0  0  0  0  0  0  0  0
   36.8110   27.0880   41.6250 C   0  0  0  0  0  0  0  0  0  0  0  0
   36.2420   26.4770   40.9260 H   0  0  0  0  0  0  0  0  0  0  0  0
   37.7070   26.4800   42.4710 C   0  0  0  0  0  3  0  0  0  0  0  0
   38.4250   27.2470   43.3550 C   0  0  0  0  0  0  0  0  0  0  0  0
   39.1310   26.7730   44.0220 H   0  0  0  0  0  0  0  0  0  0  0  0
   38.2270   28.6320   43.3720 C   0  0  0  0  0  0  0  0  0  0  0  0
   38.8400   29.1690   44.1080 H   0  0  0  0  0  0  0  0  0  0  0  0
   37.3310   29.2620   42.5310 C   0  0  0  0  0  3  0  0  0  0  0  0
  1  9  2  0  0  0  0
  1  2  1  0  0  0  0
  2  3  2  0  0  0  0
  3  4  1  0  0  0  0
  3 23  1  0  0  0  0
  4  5  1  0  0  0  0
  5 11  1  0  0  0  0
  6  5  1  0  0  0  0
  6 12  1  0  0  0  0
  7  6  2  0  0  0  0
  8  7  1  0  0  0  0
  8  4  2  0  0  0  0
  9  8  1  0  0  0  0
 10  1  1  0  0  0  0
 13  9  1  0  0  0  0
 14 20  1  0  0  0  0
 14 19  1  0  0  0  0
 15 14  2  0  0  0  0
 16 17  2  0  0  0  0
 16 15  1  0  0  0  0
 17 18  1  0  0  0  0
 18  2  1  0  0  0  0
 18 19  2  0  0  0  0
 21 15  1  0  0  0  0
 22 16  1  0  0  0  0
 23 24  1  0  0  0  0
 24 32  1  0  0  0  0
 25 24  2  0  0  0  0
 25 27  1  0  0  0  0
 26 25  1  0  0  0  0
 27 28  2  0  0  0  0
 28 30  1  0  0  0  0
 28 29  1  0  0  0  0
 30 31  1  0  0  0  0
 32 30  2  0  0  0  0
M  END
>  <minimizedAffinity>
-5.73039675

$$$$

 OpenBabel03252509133D

 32 35  0  0  0  0  0  0  0  0999 V2000
   37.3780   28.7470   43.0050 C   0  0  0  0  0  0  0  0  0  0  0  0
   37.5790   29.0090   41.6510 C   0  0  0  0  0  0  0  0  0  0  0  0
   37.5380   28.0360   40.6940 C   0  0  0  0  0  0  0  0  0  0  0  0
   37.2870   26.7060   41.0380 C   0  0  0  0  0  0  0  0  0  0  0  0
   37.1760   25.5270   40.3860 N   0  0  0  0  0  0  0  0  0  0  0  0
   36.9140   24.5490   41.2940 C   0  0  0  0  0  0  0  0  0  0  0  0
   36.8670   25.1450   42.4980 N   0  0  0  0  0  0  0  0  0  0  0  0
   37.0920   26.4660   42.3700 C   0  0  0  0  0  0  0  0  0  0  0  0
   37.1250   27.4200   43.3740 C   0  0  0  0  0  0  0  0  0  0  0  0
   37.4150   29.5280   43.7450 H   0  0  0  0  0  0  0  0  0  0  0  0
   37.2990   25.5320   39.3530 H   0  0  0  0  0  0  0  0  0  0  0  0
   36.8070   23.5600   40.8700 H   0  0  0  0  0  0  0  0  0  0  0  0
   36.9620   27.1690   44.4140 H   0  0  0  0  0  0  0  0  0  0  0  0
   37.1130   32.3980   40.3190 C   0  0  0  0  0  0  0  0  0  0  0  0
   38.3680   32.9730   40.4600 C   0  0  0  0  0  0  0  0  0  0  0  0
   39.3720   32.1870   41.0150 C   0  0  0  0  0  0  0  0  0  0  0  0
   39.0990   30.8960   41.3990 N   0  0  0  0  0  0  0  0  0  0  0  0
   37.8450   30.3840   41.2360 C   0  0  0  0  0  0  0  0  0  0  0  0
   36.8600   31.1220   40.7030 N   0  0  0  0  0  0  0  0  0  0  0  0
   36.3620   33.0420   39.8840 H   0  0  0  0  0  0  0  0  0  0  0  0
   38.6020   33.9860   40.1650 H   0  0  0  0  0  0  0  0  0  0  0  0
   40.3890   32.5250   41.1760 H   0  0  0  0  0  0  0  0  0  0  0  0
   37.7950   28.3880   38.9570 S   0  0  0  0  0  0  0  0  0  0  0  0
   36.2450   28.6280   38.1070 C   0  0  0  0  0  0  0  0  0  0  0  0
   35.0280   28.6030   38.7850 C   0  0  0  0  0  0  0  0  0  0  0  0
   35.0050   28.4350   39.8610 H   0  0  0  0  0  0  0  0  0  0  0  0
   33.8460   28.7910   38.1110 C   0  0  0  0  0  3  0  0  0  0  0  0
   33.8710   29.0030   36.7540 C   0  0  0  0  0  0  0  0  0  0  0  0
   32.9430   29.1510   36.2200 H   0  0  0  0  0  0  0  0  0  0  0  0
   35.1030   29.0240   36.0900 C   0  0  0  0  0  0  0  0  0  0  0  0
   35.0330   29.2000   35.0090 H   0  0  0  0  0  0  0  0  0  0  0  0
   36.3020   28.8380   36.7500 C   0  0  0  0  0  3  0  0  0  0  0  0
  1  9  1  0  0  0  0
  1 10  1  0  0  0  0
  2  1  2  0  0  0  0
  3  4  2  0  0  0  0
  3  2  1  0  0  0  0
  4  8  1  0  0  0  0
  5  4  1  0  0  0  0
  5  6  1  0  0  0  0
  6  7  2  0  0  0  0
  8  7  1  0  0  0  0
  8  9  2  0  0  0  0
  9 13  1  0  0  0  0
 11  5  1  0  0  0  0
 12  6  1  0  0  0  0
 14 15  2  0  0  0  0
 14 19  1  0  0  0  0
 15 16  1  0  0  0  0
 16 22  1  0  0  0  0
 16 17  2  0  0  0  0
 18 17  1  0  0  0  0
 18  2  1  0  0  0  0
 19 18  2  0  0  0  0
 20 14  1  0  0  0  0
 21 15  1  0  0  0  0
 23  3  1  0  0  0  0
 24 25  1  0  0  0  0
 24 23  1  0  0  0  0
 25 26  1  0  0  0  0
 27 25  2  0  0  0  0
 28 27  1  0  0  0  0
 29 28  1  0  0  0  0
 30 32  1  0  0  0  0
 30 28  2  0  0  0  0
 31 30  1  0  0  0  0
 32 24  2  0  0  0  0
M  END
>  <minimizedAffinity>
-5.5025568

$$$$

 OpenBabel03252509133D

 32 35  0  0  0  0  0  0  0  0999 V2000
   36.9290   27.1510   42.2010 C   0  0  0  0  0  0  0  0  0  0  0  0
   37.2290   27.8980   41.0640 C   0  0  0  0  0  0  0  0  0  0  0  0
   38.4590   28.4480   40.8410 C   0  0  0  0  0  0  0  0  0  0  0  0
   39.4930   28.2810   41.7640 C   0  0  0  0  0  0  0  0  0  0  0  0
   40.7860   28.6640   41.8720 N   0  0  0  0  0  0  0  0  0  0  0  0
   41.2900   28.1770   43.0370 C   0  0  0  0  0  0  0  0  0  0  0  0
   40.2940   27.4970   43.6320 N   0  0  0  0  0  0  0  0  0  0  0  0
   39.1830   27.5450   42.8740 C   0  0  0  0  0  0  0  0  0  0  0  0
   37.9520   26.9700   43.1410 C   0  0  0  0  0  0  0  0  0  0  0  0
   35.9530   26.7260   42.3590 H   0  0  0  0  0  0  0  0  0  0  0  0
   41.1850   29.2390   41.1020 H   0  0  0  0  0  0  0  0  0  0  0  0
   42.3250   28.4310   43.2180 H   0  0  0  0  0  0  0  0  0  0  0  0
   37.7650   26.3960   44.0400 H   0  0  0  0  0  0  0  0  0  0  0  0
   34.2850   29.2370   39.3270 C   0  0  0  0  0  0  0  0  0  0  0  0
   34.2210   28.4740   38.1700 C   0  0  0  0  0  0  0  0  0  0  0  0
   35.1950   27.4980   37.9930 C   0  0  0  0  0  0  0  0  0  0  0  0
   36.1700   27.3220   38.9470 N   0  0  0  0  0  0  0  0  0  0  0  0
   36.1830   28.1040   40.0650 C   0  0  0  0  0  0  0  0  0  0  0  0
   35.2540   29.0510   40.2580 N   0  0  0  0  0  0  0  0  0  0  0  0
   33.5100   29.9840   39.4250 H   0  0  0  0  0  0  0  0  0  0  0  0
   33.4630   28.5970   37.4090 H   0  0  0  0  0  0  0  0  0  0  0  0
   35.2500   26.8420   37.1330 H   0  0  0  0  0  0  0  0  0  0  0  0
   38.8300   29.4050   39.3740 S   0  0  0  0  0  0  0  0  0  0  0  0
   38.4980   31.1390   39.6300 C   0  0  0  0  0  0  0  0  0  0  0  0
   37.4110   31.7720   39.0300 C   0  0  0  0  0  0  0  0  0  0  0  0
   36.7380   31.2080   38.3860 H   0  0  0  0  0  0  0  0  0  0  0  0
   37.1740   33.1080   39.2400 C   0  0  0  0  0  3  0  0  0  0  0  0
   38.0210   33.8230   40.0510 C   0  0  0  0  0  0  0  0  0  0  0  0
   37.8380   34.8750   40.2190 H   0  0  0  0  0  0  0  0  0  0  0  0
   39.1080   33.1710   40.6440 C   0  0  0  0  0  0  0  0  0  0  0  0
   39.7330   33.8140   41.2760 H   0  0  0  0  0  0  0  0  0  0  0  0
   39.3630   31.8280   40.4450 C   0  0  0  0  0  3  0  0  0  0  0  0
  1 10  1  0  0  0  0
  1  9  1  0  0  0  0
  2  1  2  0  0  0  0
  3  2  1  0  0  0  0
  3  4  2  0  0  0  0
  4  5  1  0  0  0  0
  4  8  1  0  0  0  0
  5  6  1  0  0  0  0
  6 12  1  0  0  0  0
  6  7  2  0  0  0  0
  8  9  2  0  0  0  0
  8  7  1  0  0  0  0
  9 13  1  0  0  0  0
 11  5  1  0  0  0  0
 14 20  1  0  0  0  0
 14 19  1  0  0  0  0
 15 14  2  0  0  0  0
 16 15  1  0  0  0  0
 16 17  2  0  0  0  0
 17 18  1  0  0  0  0
 18 19  2  0  0  0  0
 18  2  1  0  0  0  0
 21 15  1  0  0  0  0
 22 16  1  0  0  0  0
 23 24  1  0  0  0  0
 23  3  1  0  0  0  0
 24 32  1  0  0  0  0
 25 27  1  0  0  0  0
 25 24  2  0  0  0  0
 26 25  1  0  0  0  0
 27 28  2  0  0  0  0
 28 29  1  0  0  0  0
 28 30  1  0  0  0  0
 30 31  1  0  0  0  0
 32 30  2  0  0  0  0
M  END
>  <minimizedAffinity>
-5.38711834

$$$$

 OpenBabel03252509133D

 32 35  0  0  0  0  0  0  0  0999 V2000
   35.1380   28.1530   38.6350 C   0  0  0  0  0  0  0  0  0  0  0  0
   36.3980   28.7040   38.8550 C   0  0  0  0  0  0  0  0  0  0  0  0
   37.0950   29.3700   37.8880 C   0  0  0  0  0  0  0  0  0  0  0  0
   36.5620   29.5320   36.6080 C   0  0  0  0  0  0  0  0  0  0  0  0
   36.9490   30.1100   35.4480 N   0  0  0  0  0  0  0  0  0  0  0  0
   35.9670   29.9330   34.5230 C   0  0  0  0  0  0  0  0  0  0  0  0
   34.9860   29.2440   35.1310 N   0  0  0  0  0  0  0  0  0  0  0  0
   35.3240   28.9860   36.4080 C   0  0  0  0  0  0  0  0  0  0  0  0
   34.5820   28.3030   37.3580 C   0  0  0  0  0  0  0  0  0  0  0  0
   34.6040   27.6310   39.4110 H   0  0  0  0  0  0  0  0  0  0  0  0
   37.8780   30.5760   35.4270 H   0  0  0  0  0  0  0  0  0  0  0  0
   36.1820   30.3610   33.5540 H   0  0  0  0  0  0  0  0  0  0  0  0
   33.6050   27.8920   37.1410 H   0  0  0  0  0  0  0  0  0  0  0  0
   37.3190   29.3440   42.3500 C   0  0  0  0  0  0  0  0  0  0  0  0
   38.1530   28.2810   42.6630 C   0  0  0  0  0  0  0  0  0  0  0  0
   38.3950   27.3440   41.6640 C   0  0  0  0  0  0  0  0  0  0  0  0
   37.8150   27.4960   40.4270 N   0  0  0  0  0  0  0  0  0  0  0  0
   37.0030   28.5640   40.1770 C   0  0  0  0  0  0  0  0  0  0  0  0
   36.7540   29.4800   41.1250 N   0  0  0  0  0  0  0  0  0  0  0  0
   37.1570   30.0490   43.1550 H   0  0  0  0  0  0  0  0  0  0  0  0
   38.6170   28.1430   43.6290 H   0  0  0  0  0  0  0  0  0  0  0  0
   39.0260   26.4720   41.7870 H   0  0  0  0  0  0  0  0  0  0  0  0
   38.7140   30.0750   38.1850 S   0  0  0  0  0  0  0  0  0  0  0  0
   38.5910   31.6810   38.9530 C   0  0  0  0  0  0  0  0  0  0  0  0
   37.3970   32.4010   38.9550 C   0  0  0  0  0  0  0  0  0  0  0  0
   36.5090   31.9870   38.4810 H   0  0  0  0  0  0  0  0  0  0  0  0
   37.3250   33.6360   39.5520 C   0  0  0  0  0  3  0  0  0  0  0  0
   38.4440   34.1610   40.1510 C   0  0  0  0  0  0  0  0  0  0  0  0
   38.3910   35.1330   40.6220 H   0  0  0  0  0  0  0  0  0  0  0  0
   39.6330   33.4240   40.1380 C   0  0  0  0  0  0  0  0  0  0  0  0
   40.4770   33.9160   40.6380 H   0  0  0  0  0  0  0  0  0  0  0  0
   39.7270   32.1810   39.5430 C   0  0  0  0  0  3  0  0  0  0  0  0
  1  2  1  0  0  0  0
  1 10  1  0  0  0  0
  2 18  1  0  0  0  0
  3 23  1  0  0  0  0
  3  2  2  0  0  0  0
  4  3  1  0  0  0  0
  5  4  1  0  0  0  0
  6  7  2  0  0  0  0
  6  5  1  0  0  0  0
  7  8  1  0  0  0  0
  8  4  2  0  0  0  0
  8  9  1  0  0  0  0
  9  1  2  0  0  0  0
 11  5  1  0  0  0  0
 12  6  1  0  0  0  0
 13  9  1  0  0  0  0
 14 15  1  0  0  0  0
 14 20  1  0  0  0  0
 15 21  1  0  0  0  0
 16 22  1  0  0  0  0
 16 15  2  0  0  0  0
 17 16  1  0  0  0  0
 18 17  2  0  0  0  0
 18 19  1  0  0  0  0
 19 14  2  0  0  0  0
 23 24  1  0  0  0  0
 24 25  2  0  0  0  0
 24 32  1  0  0  0  0
 25 27  1  0  0  0  0
 26 25  1  0  0  0  0
 27 28  2  0  0  0  0
 28 29  1  0  0  0  0
 30 28  1  0  0  0  0
 30 31  1  0  0  0  0
 32 30  2  0  0  0  0
M  END
>  <minimizedAffinity>
-5.30618811

$$$$

 OpenBabel03252509133D

 32 35  0  0  0  0  0  0  0  0999 V2000
   37.6940   29.1190   37.9790 C   0  0  0  0  0  0  0  0  0  0  0  0
   37.6200   28.8030   39.3340 C   0  0  0  0  0  0  0  0  0  0  0  0
   37.4460   29.7450   40.3070 C   0  0  0  0  0  0  0  0  0  0  0  0
   37.3310   31.0970   39.9790 C   0  0  0  0  0  0  0  0  0  0  0  0
   37.1570   32.2590   40.6480 N   0  0  0  0  0  0  0  0  0  0  0  0
   37.1210   33.2790   39.7500 C   0  0  0  0  0  0  0  0  0  0  0  0
   37.2740   32.7260   38.5340 N   0  0  0  0  0  0  0  0  0  0  0  0
   37.4050   31.3910   38.6460 C   0  0  0  0  0  0  0  0  0  0  0  0
   37.5810   30.4700   37.6260 C   0  0  0  0  0  0  0  0  0  0  0  0
   37.8310   28.3620   37.2260 H   0  0  0  0  0  0  0  0  0  0  0  0
   37.0820   32.2130   41.6850 H   0  0  0  0  0  0  0  0  0  0  0  0
   36.9850   34.2580   40.1890 H   0  0  0  0  0  0  0  0  0  0  0  0
   37.6310   30.7640   36.5850 H   0  0  0  0  0  0  0  0  0  0  0  0
   36.7560   25.4300   40.4980 C   0  0  0  0  0  0  0  0  0  0  0  0
   37.9720   24.7630   40.4790 C   0  0  0  0  0  0  0  0  0  0  0  0
   39.0880   25.4800   40.0640 C   0  0  0  0  0  0  0  0  0  0  0  0
   38.9570   26.7980   39.6940 N   0  0  0  0  0  0  0  0  0  0  0  0
   37.7340   27.4020   39.7320 C   0  0  0  0  0  0  0  0  0  0  0  0
   36.6430   26.7300   40.1290 N   0  0  0  0  0  0  0  0  0  0  0  0
   35.9140   24.8360   40.8270 H   0  0  0  0  0  0  0  0  0  0  0  0
   38.0960   23.7280   40.7660 H   0  0  0  0  0  0  0  0  0  0  0  0
   40.0890   25.0690   40.0070 H   0  0  0  0  0  0  0  0  0  0  0  0
   37.3520   29.3220   42.0440 S   0  0  0  0  0  0  0  0  0  0  0  0
   38.8680   28.5700   42.6120 C   0  0  0  0  0  0  0  0  0  0  0  0
   38.8760   27.3280   43.2440 C   0  0  0  0  0  0  0  0  0  0  0  0
   37.9430   26.7900   43.4030 H   0  0  0  0  0  0  0  0  0  0  0  0
   40.0540   26.7680   43.6730 C   0  0  0  0  0  3  0  0  0  0  0  0
   41.2330   27.4440   43.4740 C   0  0  0  0  0  0  0  0  0  0  0  0
   42.1630   27.0060   43.8100 H   0  0  0  0  0  0  0  0  0  0  0  0
   41.2050   28.6900   42.8380 C   0  0  0  0  0  0  0  0  0  0  0  0
   42.1890   29.1610   42.7210 H   0  0  0  0  0  0  0  0  0  0  0  0
   40.0310   29.2710   42.4000 C   0  0  0  0  0  3  0  0  0  0  0  0
  1  2  1  0  0  0  0
  2 18  1  0  0  0  0
  2  3  2  0  0  0  0
  3 23  1  0  0  0  0
  4  3  1  0  0  0  0
  4  5  1  0  0  0  0
  5 11  1  0  0  0  0
  6 12  1  0  0  0  0
  6  5  1  0  0  0  0
  7  8  1  0  0  0  0
  7  6  2  0  0  0  0
  8  4  2  0  0  0  0
  9  1  2  0  0  0  0
  9  8  1  0  0  0  0
 10  1  1  0  0  0  0
 13  9  1  0  0  0  0
 14 20  1  0  0  0  0
 15 14  1  0  0  0  0
 15 21  1  0  0  0  0
 16 15  2  0  0  0  0
 17 18  2  0  0  0  0
 17 16  1  0  0  0  0
 18 19  1  0  0  0  0
 19 14  2  0  0  0  0
 22 16  1  0  0  0  0
 23 24  1  0  0  0  0
 24 25  1  0  0  0  0
 25 26  1  0  0  0  0
 25 27  2  0  0  0  0
 28 27  1  0  0  0  0
 28 29  1  0  0  0  0
 30 28  2  0  0  0  0
 31 30  1  0  0  0  0
 32 24  2  0  0  0  0
 32 30  1  0  0  0  0
M  END
>  <minimizedAffinity>
-5.26063061

$$$$

 OpenBabel03252509133D

 32 35  0  0  0  0  0  0  0  0999 V2000
   37.1650   27.8010   38.7640 C   0  0  0  0  0  0  0  0  0  0  0  0
   37.4410   28.5990   39.8720 C   0  0  0  0  0  0  0  0  0  0  0  0
   37.4690   28.1120   41.1480 C   0  0  0  0  0  0  0  0  0  0  0  0
   37.2180   26.7630   41.4030 C   0  0  0  0  0  0  0  0  0  0  0  0
   37.1640   25.9620   42.4910 N   0  0  0  0  0  0  0  0  0  0  0  0
   36.8650   24.6980   42.0880 C   0  0  0  0  0  0  0  0  0  0  0  0
   36.7390   24.7410   40.7500 N   0  0  0  0  0  0  0  0  0  0  0  0
   36.9500   25.9930   40.3050 C   0  0  0  0  0  0  0  0  0  0  0  0
   36.9100   26.4430   38.9960 C   0  0  0  0  0  0  0  0  0  0  0  0
   37.1480   28.2030   37.7660 H   0  0  0  0  0  0  0  0  0  0  0  0
   37.3450   26.3950   43.4190 H   0  0  0  0  0  0  0  0  0  0  0  0
   36.7970   23.9760   42.8900 H   0  0  0  0  0  0  0  0  0  0  0  0
   36.6930   25.7840   38.1650 H   0  0  0  0  0  0  0  0  0  0  0  0
   39.1760   31.7350   39.0780 C   0  0  0  0  0  0  0  0  0  0  0  0
   38.1990   32.7000   39.2730 C   0  0  0  0  0  0  0  0  0  0  0  0
   36.9420   32.2650   39.6780 C   0  0  0  0  0  0  0  0  0  0  0  0
   36.7110   30.9240   39.8690 N   0  0  0  0  0  0  0  0  0  0  0  0
   37.7110   30.0190   39.6630 C   0  0  0  0  0  0  0  0  0  0  0  0
   38.9310   30.4150   39.2710 N   0  0  0  0  0  0  0  0  0  0  0  0
   40.1390   32.1150   38.7630 H   0  0  0  0  0  0  0  0  0  0  0  0
   38.3620   33.7590   39.1270 H   0  0  0  0  0  0  0  0  0  0  0  0
   36.1010   32.9220   39.8610 H   0  0  0  0  0  0  0  0  0  0  0  0
   37.8260   29.1500   42.5630 S   0  0  0  0  0  0  0  0  0  0  0  0
   39.5770   29.4620   42.7130 C   0  0  0  0  0  0  0  0  0  0  0  0
   40.4920   28.4250   42.8870 C   0  0  0  0  0  0  0  0  0  0  0  0
   40.1460   27.3930   42.9350 H   0  0  0  0  0  0  0  0  0  0  0  0
   41.8350   28.6870   43.0010 C   0  0  0  0  0  3  0  0  0  0  0  0
   42.2750   29.9870   42.9420 C   0  0  0  0  0  0  0  0  0  0  0  0
   43.3310   30.1980   43.0310 H   0  0  0  0  0  0  0  0  0  0  0  0
   41.3410   31.0150   42.7670 C   0  0  0  0  0  0  0  0  0  0  0  0
   41.7770   32.0210   42.7310 H   0  0  0  0  0  0  0  0  0  0  0  0
   39.9870   30.7720   42.6510 C   0  0  0  0  0  3  0  0  0  0  0  0
  1  9  2  0  0  0  0
  1  2  1  0  0  0  0
  2  3  2  0  0  0  0
  3  4  1  0  0  0  0
  3 23  1  0  0  0  0
  4  5  1  0  0  0  0
  5 11  1  0  0  0  0
  6  5  1  0  0  0  0
  6 12  1  0  0  0  0
  7  6  2  0  0  0  0
  8  7  1  0  0  0  0
  8  4  2  0  0  0  0
  9  8  1  0  0  0  0
 10  1  1  0  0  0  0
 13  9  1  0  0  0  0
 14 19  2  0  0  0  0
 14 15  1  0  0  0  0
 15 16  2  0  0  0  0
 16 22  1  0  0  0  0
 16 17  1  0  0  0  0
 18 17  2  0  0  0  0
 18  2  1  0  0  0  0
 19 18  1  0  0  0  0
 20 14  1  0  0  0  0
 21 15  1  0  0  0  0
 23 24  1  0  0  0  0
 24 25  1  0  0  0  0
 25 26  1  0  0  0  0
 25 27  2  0  0  0  0
 28 27  1  0  0  0  0
 28 29  1  0  0  0  0
 30 28  2  0  0  0  0
 31 30  1  0  0  0  0
 32 24  2  0  0  0  0
 32 30  1  0  0  0  0
M  END
>  <minimizedAffinity>
-5.02932501

$$$$

 OpenBabel03252509133D

 32 35  0  0  0  0  0  0  0  0999 V2000
   40.7720   29.3800   40.8880 C   0  0  0  0  0  0  0  0  0  0  0  0
   39.3900   29.4830   41.0210 C   0  0  0  0  0  0  0  0  0  0  0  0
   38.6520   28.6240   41.7850 C   0  0  0  0  0  0  0  0  0  0  0  0
   39.2660   27.5820   42.4830 C   0  0  0  0  0  0  0  0  0  0  0  0
   38.8710   26.5820   43.3030 N   0  0  0  0  0  0  0  0  0  0  0  0
   39.9660   25.8690   43.6800 C   0  0  0  0  0  0  0  0  0  0  0  0
   41.0230   26.4430   43.0810 N   0  0  0  0  0  0  0  0  0  0  0  0
   40.6230   27.4950   42.3430 C   0  0  0  0  0  0  0  0  0  0  0  0
   41.4110   28.3410   41.5800 C   0  0  0  0  0  0  0  0  0  0  0  0
   41.3370   30.0660   40.2810 H   0  0  0  0  0  0  0  0  0  0  0  0
   37.8560   26.5040   43.5160 H   0  0  0  0  0  0  0  0  0  0  0  0
   39.7540   25.0400   44.3410 H   0  0  0  0  0  0  0  0  0  0  0  0
   42.4840   28.2230   41.5080 H   0  0  0  0  0  0  0  0  0  0  0  0
   37.7140   32.6690   40.3030 C   0  0  0  0  0  0  0  0  0  0  0  0
   37.3910   32.5650   38.9580 C   0  0  0  0  0  0  0  0  0  0  0  0
   37.7530   31.3940   38.3020 C   0  0  0  0  0  0  0  0  0  0  0  0
   38.4040   30.3970   38.9890 N   0  0  0  0  0  0  0  0  0  0  0  0
   38.6960   30.5560   40.3130 C   0  0  0  0  0  0  0  0  0  0  0  0
   38.3580   31.6770   40.9660 N   0  0  0  0  0  0  0  0  0  0  0  0
   37.4160   33.5960   40.7740 H   0  0  0  0  0  0  0  0  0  0  0  0
   36.8790   33.3370   38.4000 H   0  0  0  0  0  0  0  0  0  0  0  0
   37.5550   31.1970   37.2550 H   0  0  0  0  0  0  0  0  0  0  0  0
   36.8750   28.7710   41.9480 S   0  0  0  0  0  0  0  0  0  0  0  0
   36.0510   28.4150   40.4050 C   0  0  0  0  0  0  0  0  0  0  0  0
   34.9730   29.1770   39.9600 C   0  0  0  0  0  0  0  0  0  0  0  0
   34.6110   30.0130   40.5560 H   0  0  0  0  0  0  0  0  0  0  0  0
   34.3530   28.8860   38.7690 C   0  0  0  0  0  3  0  0  0  0  0  0
   34.8060   27.8310   38.0140 C   0  0  0  0  0  0  0  0  0  0  0  0
   34.3220   27.5990   37.0760 H   0  0  0  0  0  0  0  0  0  0  0  0
   35.8900   27.0780   38.4780 C   0  0  0  0  0  0  0  0  0  0  0  0
   36.1870   26.2550   37.8150 H   0  0  0  0  0  0  0  0  0  0  0  0
   36.5260   27.3540   39.6720 C   0  0  0  0  0  3  0  0  0  0  0  0
  1  2  2  0  0  0  0
  1  9  1  0  0  0  0
  2  3  1  0  0  0  0
  3 23  1  0  0  0  0
  3  4  2  0  0  0  0
  4  5  1  0  0  0  0
  5 11  1  0  0  0  0
  5  6  1  0  0  0  0
  6 12  1  0  0  0  0
  7  6  2  0  0  0  0
  8  4  1  0  0  0  0
  8  7  1  0  0  0  0
  9  8  2  0  0  0  0
 10  1  1  0  0  0  0
 13  9  1  0  0  0  0
 14 20  1  0  0  0  0
 14 19  1  0  0  0  0
 15 14  2  0  0  0  0
 16 15  1  0  0  0  0
 16 17  2  0  0  0  0
 17 18  1  0  0  0  0
 18 19  2  0  0  0  0
 18  2  1  0  0  0  0
 21 15  1  0  0  0  0
 22 16  1  0  0  0  0
 24 23  1  0  0  0  0
 25 24  1  0  0  0  0
 25 26  1  0  0  0  0
 27 25  2  0  0  0  0
 28 30  2  0  0  0  0
 28 27  1  0  0  0  0
 29 28  1  0  0  0  0
 30 32  1  0  0  0  0
 31 30  1  0  0  0  0
 32 24  2  0  0  0  0
M  END
>  <minimizedAffinity>
-4.99707747

$$$$
