
 OpenBabel03242519103D

 47 50  0  0  1  0  0  0  0  0999 V2000
   48.8630   32.2390   37.1530 C   0  0  0  0  0  0  0  0  0  0  0  0
   48.1060   33.0390   38.0320 C   0  0  0  0  0  0  0  0  0  0  0  0
   46.8210   33.2500   37.5930 C   0  0  0  0  0  0  0  0  0  0  0  0
   46.2600   32.7690   36.4400 C   0  0  0  0  0  0  0  0  0  0  0  0
   47.0390   31.9910   35.6110 C   0  0  0  0  0  0  0  0  0  0  0  0
   48.3320   31.7420   35.9900 C   0  0  0  0  0  0  0  0  0  0  0  0
   46.1800   33.8650   38.2320 H   0  0  0  0  0  0  0  0  0  0  0  0
   45.2290   32.9950   36.1800 H   0  0  0  0  0  0  0  0  0  0  0  0
   46.6300   31.5990   34.6990 H   0  0  0  0  0  0  0  0  0  0  0  0
   49.6310   31.4850   33.9170 C   0  0  0  0  0  0  0  0  0  0  0  0
   49.4070   32.7240   33.6590 O   0  0  0  0  0  0  0  0  0  0  0  0
   49.1120   30.9320   35.1090 N   0  0  0  0  0  0  0  0  0  0  0  0
   49.2710   29.9390   35.3900 H   0  0  0  0  0  0  0  0  0  0  0  0
   50.4110   30.6680   32.9890 C   0  0  0  0  0  0  0  0  0  0  0  0
   49.9000   29.8640   31.9890 C   0  0  0  0  0  0  0  0  0  0  0  0
   48.8230   29.8440   31.8920 H   0  0  0  0  0  0  0  0  0  0  0  0
   50.7340   29.1340   31.1650 C   0  0  0  0  0  0  0  0  0  0  0  0
   52.1030   29.1910   31.3250 C   0  0  0  0  0  0  0  0  0  0  0  0
   52.7370   28.6090   30.6680 H   0  0  0  0  0  0  0  0  0  0  0  0
   52.6790   29.9730   32.3030 C   0  0  0  0  0  0  0  0  0  0  0  0
   53.7440   30.0550   32.4700 H   0  0  0  0  0  0  0  0  0  0  0  0
   51.7930   30.6780   33.0900 C   0  0  0  0  0  0  0  0  0  0  0  0
   48.5960   33.5750   39.2350 N   0  0  0  0  0  0  0  0  0  0  0  0
   49.4860   34.0950   39.0080 H   0  0  0  0  0  0  0  0  0  0  0  0
   47.4830   34.5340   42.4710 N   0  0  0  0  0  0  0  0  0  0  0  0
   47.4650   34.7920   41.0360 C   0  0  0  0  0  0  0  0  0  0  0  0
   48.0960   33.5100   40.5750 C   0  0  2  0  0  0  0  0  0  0  0  0
   49.2970   33.4000   41.4980 C   0  0  0  0  0  0  0  0  0  0  0  0
   48.7770   33.9850   42.7820 C   0  0  0  0  0  0  0  0  0  0  0  0
   46.4460   34.8370   40.6270 H   0  0  0  0  0  0  0  0  0  0  0  0
   48.1090   35.6280   40.7430 H   0  0  0  0  0  0  0  0  0  0  0  0
   47.4650   32.6350   40.7280 H   0  0  0  0  0  0  0  0  0  0  0  0
   49.5890   32.3270   41.6160 H   0  0  0  0  0  0  0  0  0  0  0  0
   50.1150   34.0010   41.0690 H   0  0  0  0  0  0  0  0  0  0  0  0
   48.7540   33.2530   43.6120 H   0  0  0  0  0  0  0  0  0  0  0  0
   49.4290   34.8480   43.0740 H   0  0  0  0  0  0  0  0  0  0  0  0
   44.5710   35.8440   44.3880 C   0  0  0  0  0  0  0  0  0  0  0  0
   45.5080   35.7310   43.3680 C   0  0  0  0  0  0  0  0  0  0  0  0
   46.4850   34.7460   43.4380 C   0  0  0  0  0  0  0  0  0  0  0  0
   46.4470   33.9410   44.5360 N   0  0  0  0  0  0  0  0  0  0  0  0
   45.5550   34.0400   45.5190 C   0  0  0  0  0  0  0  0  0  0  0  0
   44.6090   35.0020   45.4410 N   0  0  0  0  0  0  0  0  0  0  0  0
   43.8490   36.6420   44.2450 H   0  0  0  0  0  0  0  0  0  0  0  0
   45.5440   36.3540   42.5100 H   0  0  0  0  0  0  0  0  0  0  0  0
   45.5920   33.3670   46.3530 H   0  0  0  0  0  0  0  0  0  0  0  0
   51.3200   31.7310   37.8350 N   0  0  0  0  0  0  0  0  0  0  0  0
   50.2340   31.9630   37.5370 C   0  0  0  0  0  0  0  0  0  0  0  0
  1 47  1  0  0  0  0
  1  2  1  0  0  0  0
  2 23  1  0  0  0  0
  3  2  2  0  0  0  0
  3  7  1  0  0  0  0
  4  3  1  0  0  0  0
  5  6  1  0  0  0  0
  5  4  2  0  0  0  0
  6  1  2  0  0  0  0
  8  4  1  0  0  0  0
  9  5  1  0  0  0  0
 10 12  1  0  0  0  0
 11 10  2  0  0  0  0
 12 13  1  0  0  0  0
 12  6  1  0  0  0  0
 14 22  1  0  0  0  0
 14 10  1  0  0  0  0
 15 14  2  0  0  0  0
 16 15  1  0  0  0  0
 17 18  2  0  0  0  0
 17 15  1  0  0  0  0
 18 20  1  0  0  0  0
 19 18  1  0  0  0  0
 20 21  1  0  0  0  0
 20 22  2  0  0  0  0
 23 27  1  0  0  0  0
 24 23  1  0  0  0  0
 25 29  1  0  0  0  0
 25 39  1  0  0  0  0
 26 25  1  0  0  0  0
 27 32  1  1  0  0  0
 27 26  1  0  0  0  0
 27 28  1  0  0  0  0
 28 33  1  0  0  0  0
 28 29  1  0  0  0  0
 29 36  1  0  0  0  0
 29 35  1  0  0  0  0
 30 26  1  0  0  0  0
 31 26  1  0  0  0  0
 34 28  1  0  0  0  0
 37 42  1  0  0  0  0
 38 39  1  0  0  0  0
 38 37  2  0  0  0  0
 39 40  2  0  0  0  0
 40 41  1  0  0  0  0
 41 45  1  0  0  0  0
 42 41  2  0  0  0  0
 43 37  1  0  0  0  0
 44 38  1  0  0  0  0
 47 46  3  0  0  0  0
M  END
>  <minimizedAffinity>
-5.61506271

>  <minimizedRMSD>
0.295312613

$$$$
