
 OpenBabel03242513003D

 35 38  0  0  0  0  0  0  0  0999 V2000
   40.6880   30.9600   40.4290 F   0  0  0  0  0  0  0  0  0  0  0  0
   39.6340   31.8140   40.2300 C   0  0  0  0  0  0  0  0  0  0  0  0
   39.8200   33.0350   39.6350 C   0  0  0  0  0  0  0  0  0  0  0  0
   38.7100   33.8240   39.4740 C   0  0  0  0  0  0  0  0  0  0  0  0
   37.4490   33.4620   39.8720 C   0  0  0  0  0  0  0  0  0  0  0  0
   37.3290   32.2280   40.4600 C   0  0  0  0  0  0  0  0  0  0  0  0
   38.4010   31.3930   40.6480 C   0  0  0  0  0  0  0  0  0  0  0  0
   38.8710   34.7960   38.9990 H   0  0  0  0  0  0  0  0  0  0  0  0
   36.6000   34.1250   39.7220 H   0  0  0  0  0  0  0  0  0  0  0  0
   36.3640   31.8630   40.8040 H   0  0  0  0  0  0  0  0  0  0  0  0
   42.8850   33.7710   37.5250 C   0  0  0  0  0  0  0  0  0  0  0  0
   41.5810   33.4120   37.8880 C   0  0  0  0  0  0  0  0  0  0  0  0
   41.1730   33.4040   39.2170 C   0  0  0  0  0  0  0  0  0  0  0  0
   42.1250   33.7680   40.1380 N   0  0  0  0  0  0  0  0  0  0  0  0
   43.3750   34.1100   39.7600 C   0  0  0  0  0  0  0  0  0  0  0  0
   43.7580   34.1150   38.4900 N   0  0  0  0  0  0  0  0  0  0  0  0
   43.2130   33.7820   36.5120 H   0  0  0  0  0  0  0  0  0  0  0  0
   40.8700   33.1340   37.1220 H   0  0  0  0  0  0  0  0  0  0  0  0
   43.9740   34.3630   40.6210 H   0  0  0  0  0  0  0  0  0  0  0  0
   38.2460   30.0850   41.2770 C   0  0  0  0  0  0  0  0  0  0  0  0
   38.5560   29.7410   42.5630 C   0  0  0  0  0  0  0  0  0  0  0  0
   38.2520   28.4030   42.7440 C   0  0  0  0  0  0  0  0  0  0  0  0
   37.7660   27.9650   41.5700 N   0  0  0  0  0  0  0  0  0  0  0  0
   37.7630   28.9660   40.7010 N   0  0  0  0  0  0  0  0  0  0  0  0
   38.9690   30.4340   43.2840 H   0  0  0  0  0  0  0  0  0  0  0  0
   38.3960   27.8730   43.6600 H   0  0  0  0  0  0  0  0  0  0  0  0
   37.3230   26.6390   41.2990 C   0  0  0  0  0  0  0  0  0  0  0  0
   36.9300   26.2860   40.0250 C   0  0  0  0  0  0  0  0  0  0  0  0
   36.9660   27.0340   39.2430 H   0  0  0  0  0  0  0  0  0  0  0  0
   36.4880   25.0140   39.6890 C   0  0  0  0  0  3  0  0  0  0  0  0
   36.4660   24.1150   40.7190 C   0  0  0  0  0  0  0  0  0  0  0  0
   36.1180   23.1050   40.4650 H   0  0  0  0  0  0  0  0  0  0  0  0
   36.8440   24.4000   42.0150 C   0  0  0  0  0  0  0  0  0  0  0  0
   36.7890   23.6130   42.7570 H   0  0  0  0  0  0  0  0  0  0  0  0
   37.2830   25.6960   42.3050 C   0  0  0  0  0  3  0  0  0  0  0  0
  2  1  1  0  0  0  0
  2  7  1  0  0  0  0
  3  2  2  0  0  0  0
  4  3  1  0  0  0  0
  4  5  2  0  0  0  0
  5  6  1  0  0  0  0
  6  7  2  0  0  0  0
  6 10  1  0  0  0  0
  7 20  1  0  0  0  0
  8  4  1  0  0  0  0
  9  5  1  0  0  0  0
 11 12  2  0  0  0  0
 11 16  1  0  0  0  0
 12 13  1  0  0  0  0
 13  3  1  0  0  0  0
 13 14  2  0  0  0  0
 15 14  1  0  0  0  0
 15 19  1  0  0  0  0
 16 15  2  0  0  0  0
 17 11  1  0  0  0  0
 18 12  1  0  0  0  0
 20 21  1  0  0  0  0
 21 22  2  0  0  0  0
 21 25  1  0  0  0  0
 22 26  1  0  0  0  0
 23 22  1  0  0  0  0
 24 20  2  0  0  0  0
 24 23  1  0  0  0  0
 27 23  1  0  0  0  0
 27 35  1  0  0  0  0
 28 27  2  0  0  0  0
 29 28  1  0  0  0  0
 30 28  1  0  0  0  0
 30 31  2  0  0  0  0
 31 33  1  0  0  0  0
 32 31  1  0  0  0  0
 33 35  2  0  0  0  0
 33 34  1  0  0  0  0
M  END
>  <minimizedAffinity>
-6.01005077

$$$$

 OpenBabel03242513003D

 35 38  0  0  0  0  0  0  0  0999 V2000
   38.0180   26.5000   40.1960 F   0  0  0  0  0  0  0  0  0  0  0  0
   38.6480   26.2700   41.3920 C   0  0  0  0  0  0  0  0  0  0  0  0
   39.1490   25.0300   41.6960 C   0  0  0  0  0  0  0  0  0  0  0  0
   39.7640   24.8900   42.9140 C   0  0  0  0  0  0  0  0  0  0  0  0
   39.9010   25.9050   43.8240 C   0  0  0  0  0  0  0  0  0  0  0  0
   39.3810   27.1220   43.4590 C   0  0  0  0  0  0  0  0  0  0  0  0
   38.7540   27.3250   42.2560 C   0  0  0  0  0  0  0  0  0  0  0  0
   40.1590   23.8960   43.1460 H   0  0  0  0  0  0  0  0  0  0  0  0
   40.3980   25.7430   44.7780 H   0  0  0  0  0  0  0  0  0  0  0  0
   39.4460   27.9810   44.1230 H   0  0  0  0  0  0  0  0  0  0  0  0
   37.9440   21.9210   39.8870 C   0  0  0  0  0  0  0  0  0  0  0  0
   38.0650   22.9310   40.8500 C   0  0  0  0  0  0  0  0  0  0  0  0
   38.9930   23.9580   40.7130 C   0  0  0  0  0  0  0  0  0  0  0  0
   39.7720   23.9140   39.5820 N   0  0  0  0  0  0  0  0  0  0  0  0
   39.6340   22.9290   38.6700 C   0  0  0  0  0  0  0  0  0  0  0  0
   38.7470   21.9520   38.8070 N   0  0  0  0  0  0  0  0  0  0  0  0
   37.2390   21.1290   39.9780 H   0  0  0  0  0  0  0  0  0  0  0  0
   37.4260   22.9190   41.7220 H   0  0  0  0  0  0  0  0  0  0  0  0
   40.3300   23.0660   37.8560 H   0  0  0  0  0  0  0  0  0  0  0  0
   38.2070   28.6290   41.8930 C   0  0  0  0  0  0  0  0  0  0  0  0
   36.8940   29.0050   41.8860 C   0  0  0  0  0  0  0  0  0  0  0  0
   36.8180   30.3260   41.4780 C   0  0  0  0  0  0  0  0  0  0  0  0
   38.0820   30.7210   41.2480 N   0  0  0  0  0  0  0  0  0  0  0  0
   38.9050   29.7120   41.4950 N   0  0  0  0  0  0  0  0  0  0  0  0
   36.0810   28.3460   42.1610 H   0  0  0  0  0  0  0  0  0  0  0  0
   35.9070   30.8740   41.3840 H   0  0  0  0  0  0  0  0  0  0  0  0
   38.4780   32.0170   40.8080 C   0  0  0  0  0  0  0  0  0  0  0  0
   39.7920   32.4190   40.9300 C   0  0  0  0  0  0  0  0  0  0  0  0
   40.5080   31.7330   41.3640 H   0  0  0  0  0  0  0  0  0  0  0  0
   40.2480   33.6650   40.5230 C   0  0  0  0  0  3  0  0  0  0  0  0
   39.2960   34.4850   39.9830 C   0  0  0  0  0  0  0  0  0  0  0  0
   39.6460   35.4740   39.6570 H   0  0  0  0  0  0  0  0  0  0  0  0
   37.9660   34.1470   39.8320 C   0  0  0  0  0  0  0  0  0  0  0  0
   37.2940   34.8730   39.3900 H   0  0  0  0  0  0  0  0  0  0  0  0
   37.5540   32.8800   40.2560 C   0  0  0  0  0  3  0  0  0  0  0  0
  1  2  1  0  0  0  0
  2  3  2  0  0  0  0
  2  7  1  0  0  0  0
  3  4  1  0  0  0  0
  4  8  1  0  0  0  0
  4  5  2  0  0  0  0
  5  9  1  0  0  0  0
  6  5  1  0  0  0  0
  6 10  1  0  0  0  0
  7  6  2  0  0  0  0
 11 17  1  0  0  0  0
 11 12  1  0  0  0  0
 12 18  1  0  0  0  0
 13 12  2  0  0  0  0
 13  3  1  0  0  0  0
 14 13  1  0  0  0  0
 15 16  1  0  0  0  0
 15 14  2  0  0  0  0
 16 11  2  0  0  0  0
 19 15  1  0  0  0  0
 20  7  1  0  0  0  0
 21 20  1  0  0  0  0
 21 25  1  0  0  0  0
 22 21  2  0  0  0  0
 23 22  1  0  0  0  0
 23 24  1  0  0  0  0
 24 20  2  0  0  0  0
 26 22  1  0  0  0  0
 27 28  1  0  0  0  0
 27 23  1  0  0  0  0
 28 29  1  0  0  0  0
 30 28  2  0  0  0  0
 31 30  1  0  0  0  0
 32 31  1  0  0  0  0
 33 31  2  0  0  0  0
 33 35  1  0  0  0  0
 34 33  1  0  0  0  0
 35 27  2  0  0  0  0
M  END
>  <minimizedAffinity>
-5.90798903

$$$$

 OpenBabel03242513003D

 35 38  0  0  0  0  0  0  0  0999 V2000
   37.8010   27.7460   39.7550 F   0  0  0  0  0  0  0  0  0  0  0  0
   37.5720   27.7400   41.1070 C   0  0  0  0  0  0  0  0  0  0  0  0
   37.3700   26.5630   41.7810 C   0  0  0  0  0  0  0  0  0  0  0  0
   37.1490   26.6500   43.1320 C   0  0  0  0  0  0  0  0  0  0  0  0
   37.1190   27.8300   43.8280 C   0  0  0  0  0  0  0  0  0  0  0  0
   37.3290   28.9730   43.0970 C   0  0  0  0  0  0  0  0  0  0  0  0
   37.5550   28.9510   41.7440 C   0  0  0  0  0  0  0  0  0  0  0  0
   36.9890   25.7050   43.6590 H   0  0  0  0  0  0  0  0  0  0  0  0
   36.9390   27.8470   44.9010 H   0  0  0  0  0  0  0  0  0  0  0  0
   37.3210   29.9510   43.5710 H   0  0  0  0  0  0  0  0  0  0  0  0
   38.3830   23.1550   40.4600 C   0  0  0  0  0  0  0  0  0  0  0  0
   38.3810   24.3400   41.2070 C   0  0  0  0  0  0  0  0  0  0  0  0
   37.4060   25.3130   41.0210 C   0  0  0  0  0  0  0  0  0  0  0  0
   36.4570   25.0350   40.0670 N   0  0  0  0  0  0  0  0  0  0  0  0
   36.4830   23.8850   39.3620 C   0  0  0  0  0  0  0  0  0  0  0  0
   37.4170   22.9600   39.5440 N   0  0  0  0  0  0  0  0  0  0  0  0
   39.1230   22.4000   40.5910 H   0  0  0  0  0  0  0  0  0  0  0  0
   39.1520   24.5080   41.9460 H   0  0  0  0  0  0  0  0  0  0  0  0
   35.6600   23.8500   38.6650 H   0  0  0  0  0  0  0  0  0  0  0  0
   37.7740   30.1800   40.9890 C   0  0  0  0  0  0  0  0  0  0  0  0
   36.8290   31.0610   40.5450 C   0  0  0  0  0  0  0  0  0  0  0  0
   37.4680   32.0900   39.8740 C   0  0  0  0  0  0  0  0  0  0  0  0
   38.7820   31.8120   39.9250 N   0  0  0  0  0  0  0  0  0  0  0  0
   38.9620   30.6780   40.5870 N   0  0  0  0  0  0  0  0  0  0  0  0
   35.7680   30.9350   40.7140 H   0  0  0  0  0  0  0  0  0  0  0  0
   36.9650   32.9170   39.4240 H   0  0  0  0  0  0  0  0  0  0  0  0
   39.8200   32.6070   39.3580 C   0  0  0  0  0  0  0  0  0  0  0  0
   40.4300   32.2160   38.1850 C   0  0  0  0  0  0  0  0  0  0  0  0
   40.1050   31.3000   37.7080 H   0  0  0  0  0  0  0  0  0  0  0  0
   41.4470   32.9410   37.5770 C   0  0  0  0  0  3  0  0  0  0  0  0
   41.8120   34.0870   38.2270 C   0  0  0  0  0  0  0  0  0  0  0  0
   42.6160   34.6680   37.7550 H   0  0  0  0  0  0  0  0  0  0  0  0
   41.2450   34.5360   39.4020 C   0  0  0  0  0  0  0  0  0  0  0  0
   41.6090   35.4600   39.8340 H   0  0  0  0  0  0  0  0  0  0  0  0
   40.2240   33.7720   39.9760 C   0  0  0  0  0  3  0  0  0  0  0  0
  1  2  1  0  0  0  0
  2  7  2  0  0  0  0
  2  3  1  0  0  0  0
  3  4  2  0  0  0  0
  4  8  1  0  0  0  0
  4  5  1  0  0  0  0
  5  9  1  0  0  0  0
  6 10  1  0  0  0  0
  6  5  2  0  0  0  0
  7  6  1  0  0  0  0
 11 17  1  0  0  0  0
 11 12  1  0  0  0  0
 12 18  1  0  0  0  0
 13 12  2  0  0  0  0
 13  3  1  0  0  0  0
 14 13  1  0  0  0  0
 15 16  1  0  0  0  0
 15 14  2  0  0  0  0
 16 11  2  0  0  0  0
 19 15  1  0  0  0  0
 20  7  1  0  0  0  0
 21 25  1  0  0  0  0
 21 20  1  0  0  0  0
 22 23  1  0  0  0  0
 22 21  2  0  0  0  0
 23 24  1  0  0  0  0
 24 20  2  0  0  0  0
 26 22  1  0  0  0  0
 27 23  1  0  0  0  0
 27 35  1  0  0  0  0
 28 27  2  0  0  0  0
 29 28  1  0  0  0  0
 30 28  1  0  0  0  0
 30 31  2  0  0  0  0
 31 33  1  0  0  0  0
 32 31  1  0  0  0  0
 33 34  1  0  0  0  0
 33 35  2  0  0  0  0
M  END
>  <minimizedAffinity>
-5.86274147

$$$$

 OpenBabel03242513003D

 35 38  0  0  0  0  0  0  0  0999 V2000
   35.3220   29.2750   39.5520 F   0  0  0  0  0  0  0  0  0  0  0  0
   35.6680   27.9880   39.2290 C   0  0  0  0  0  0  0  0  0  0  0  0
   36.5480   27.2800   40.0070 C   0  0  0  0  0  0  0  0  0  0  0  0
   36.8370   25.9990   39.6100 C   0  0  0  0  0  0  0  0  0  0  0  0
   36.3020   25.4030   38.4980 C   0  0  0  0  0  0  0  0  0  0  0  0
   35.4280   26.1640   37.7620 C   0  0  0  0  0  0  0  0  0  0  0  0
   35.0990   27.4500   38.1070 C   0  0  0  0  0  0  0  0  0  0  0  0
   37.5400   25.4440   40.2380 H   0  0  0  0  0  0  0  0  0  0  0  0
   36.5640   24.3830   38.2250 H   0  0  0  0  0  0  0  0  0  0  0  0
   34.9580   25.7680   36.8650 H   0  0  0  0  0  0  0  0  0  0  0  0
   37.3020   28.2410   43.5980 C   0  0  0  0  0  0  0  0  0  0  0  0
   36.7440   27.5930   42.4880 C   0  0  0  0  0  0  0  0  0  0  0  0
   37.1090   27.9330   41.1900 C   0  0  0  0  0  0  0  0  0  0  0  0
   38.0430   28.9340   41.0730 N   0  0  0  0  0  0  0  0  0  0  0  0
   38.5650   29.5410   42.1600 C   0  0  0  0  0  0  0  0  0  0  0  0
   38.2120   29.2120   43.3960 N   0  0  0  0  0  0  0  0  0  0  0  0
   37.0330   27.9920   44.5980 H   0  0  0  0  0  0  0  0  0  0  0  0
   36.0120   26.8110   42.6370 H   0  0  0  0  0  0  0  0  0  0  0  0
   39.2780   30.2960   41.8660 H   0  0  0  0  0  0  0  0  0  0  0  0
   34.1670   28.2390   37.3070 C   0  0  0  0  0  0  0  0  0  0  0  0
   34.2060   28.4520   35.9580 C   0  0  0  0  0  0  0  0  0  0  0  0
   33.1340   29.2560   35.6100 C   0  0  0  0  0  0  0  0  0  0  0  0
   32.4700   29.5120   36.7500 N   0  0  0  0  0  0  0  0  0  0  0  0
   33.0850   28.9070   37.7570 N   0  0  0  0  0  0  0  0  0  0  0  0
   34.9680   28.0410   35.3090 H   0  0  0  0  0  0  0  0  0  0  0  0
   32.9240   29.5780   34.6140 H   0  0  0  0  0  0  0  0  0  0  0  0
   31.2930   30.3060   36.8640 C   0  0  0  0  0  0  0  0  0  0  0  0
   30.9360   31.1660   35.8460 C   0  0  0  0  0  0  0  0  0  0  0  0
   31.5650   31.2230   34.9670 H   0  0  0  0  0  0  0  0  0  0  0  0
   29.8040   31.9680   35.8900 C   0  0  0  0  0  3  0  0  0  0  0  0
   29.0510   31.8510   37.0250 C   0  0  0  0  0  0  0  0  0  0  0  0
   28.1530   32.4810   37.0710 H   0  0  0  0  0  0  0  0  0  0  0  0
   29.3500   31.0120   38.0800 C   0  0  0  0  0  0  0  0  0  0  0  0
   28.6840   30.9960   38.9340 H   0  0  0  0  0  0  0  0  0  0  0  0
   30.5000   30.2230   37.9900 C   0  0  0  0  0  3  0  0  0  0  0  0
  2  1  1  0  0  0  0
  2  3  1  0  0  0  0
  3 13  1  0  0  0  0
  4  3  2  0  0  0  0
  4  8  1  0  0  0  0
  5  4  1  0  0  0  0
  6  7  1  0  0  0  0
  6  5  2  0  0  0  0
  7  2  2  0  0  0  0
  9  5  1  0  0  0  0
 10  6  1  0  0  0  0
 11 17  1  0  0  0  0
 12 18  1  0  0  0  0
 12 11  2  0  0  0  0
 13 12  1  0  0  0  0
 14 13  2  0  0  0  0
 14 15  1  0  0  0  0
 15 16  2  0  0  0  0
 16 11  1  0  0  0  0
 19 15  1  0  0  0  0
 20 24  2  0  0  0  0
 20  7  1  0  0  0  0
 21 20  1  0  0  0  0
 22 21  2  0  0  0  0
 22 23  1  0  0  0  0
 23 27  1  0  0  0  0
 23 24  1  0  0  0  0
 25 21  1  0  0  0  0
 26 22  1  0  0  0  0
 27 35  1  0  0  0  0
 28 30  1  0  0  0  0
 28 27  2  0  0  0  0
 29 28  1  0  0  0  0
 30 31  2  0  0  0  0
 31 32  1  0  0  0  0
 31 33  1  0  0  0  0
 33 34  1  0  0  0  0
 35 33  2  0  0  0  0
M  END
>  <minimizedAffinity>
-5.84322739

$$$$

 OpenBabel03242513003D

 35 38  0  0  0  0  0  0  0  0999 V2000
   40.4670   31.1740   39.0840 F   0  0  0  0  0  0  0  0  0  0  0  0
   39.7030   32.2620   39.4190 C   0  0  0  0  0  0  0  0  0  0  0  0
   40.2670   33.5050   39.5500 C   0  0  0  0  0  0  0  0  0  0  0  0
   39.4280   34.5360   39.8880 C   0  0  0  0  0  0  0  0  0  0  0  0
   38.0820   34.3900   40.0980 C   0  0  0  0  0  0  0  0  0  0  0  0
   37.5780   33.1220   39.9510 C   0  0  0  0  0  0  0  0  0  0  0  0
   38.3650   32.0500   39.6150 C   0  0  0  0  0  0  0  0  0  0  0  0
   39.8890   35.5230   39.9900 H   0  0  0  0  0  0  0  0  0  0  0  0
   37.4580   35.2410   40.3650 H   0  0  0  0  0  0  0  0  0  0  0  0
   36.5200   32.9180   40.0990 H   0  0  0  0  0  0  0  0  0  0  0  0
   43.6380   34.0260   37.8900 C   0  0  0  0  0  0  0  0  0  0  0  0
   42.2540   33.9010   38.0710 C   0  0  0  0  0  0  0  0  0  0  0  0
   41.7060   33.6410   39.3220 C   0  0  0  0  0  0  0  0  0  0  0  0
   42.6030   33.5170   40.3550 N   0  0  0  0  0  0  0  0  0  0  0  0
   43.9320   33.6410   40.1530 C   0  0  0  0  0  0  0  0  0  0  0  0
   44.4490   33.8890   38.9560 N   0  0  0  0  0  0  0  0  0  0  0  0
   44.0730   34.2240   36.9390 H   0  0  0  0  0  0  0  0  0  0  0  0
   41.5920   34.0090   37.2230 H   0  0  0  0  0  0  0  0  0  0  0  0
   44.4690   33.5120   41.0790 H   0  0  0  0  0  0  0  0  0  0  0  0
   37.8050   30.7100   39.4660 C   0  0  0  0  0  0  0  0  0  0  0  0
   37.1140   30.2150   38.3970 C   0  0  0  0  0  0  0  0  0  0  0  0
   36.7660   28.9030   38.6690 C   0  0  0  0  0  0  0  0  0  0  0  0
   37.2520   28.6310   39.8930 N   0  0  0  0  0  0  0  0  0  0  0  0
   37.8690   29.7060   40.3640 N   0  0  0  0  0  0  0  0  0  0  0  0
   36.8980   30.7890   37.5060 H   0  0  0  0  0  0  0  0  0  0  0  0
   36.2190   28.2750   38.0010 H   0  0  0  0  0  0  0  0  0  0  0  0
   37.1260   27.3890   40.5780 C   0  0  0  0  0  0  0  0  0  0  0  0
   37.0920   27.3580   41.9570 C   0  0  0  0  0  0  0  0  0  0  0  0
   37.1620   28.2910   42.5010 H   0  0  0  0  0  0  0  0  0  0  0  0
   36.9720   26.1850   42.6900 C   0  0  0  0  0  3  0  0  0  0  0  0
   36.8870   25.0410   41.9450 C   0  0  0  0  0  0  0  0  0  0  0  0
   36.7920   24.1060   42.5150 H   0  0  0  0  0  0  0  0  0  0  0  0
   36.9160   25.0000   40.5660 C   0  0  0  0  0  0  0  0  0  0  0  0
   36.8410   24.0370   40.0750 H   0  0  0  0  0  0  0  0  0  0  0  0
   37.0380   26.2070   39.8720 C   0  0  0  0  0  3  0  0  0  0  0  0
  1  2  1  0  0  0  0
  2  3  2  0  0  0  0
  2  7  1  0  0  0  0
  3  4  1  0  0  0  0
  4  8  1  0  0  0  0
  4  5  2  0  0  0  0
  5  9  1  0  0  0  0
  6  5  1  0  0  0  0
  6 10  1  0  0  0  0
  7  6  2  0  0  0  0
 11 12  2  0  0  0  0
 11 16  1  0  0  0  0
 12 13  1  0  0  0  0
 13  3  1  0  0  0  0
 13 14  2  0  0  0  0
 15 14  1  0  0  0  0
 15 19  1  0  0  0  0
 16 15  2  0  0  0  0
 17 11  1  0  0  0  0
 18 12  1  0  0  0  0
 20  7  1  0  0  0  0
 20 24  2  0  0  0  0
 21 22  2  0  0  0  0
 21 20  1  0  0  0  0
 22 23  1  0  0  0  0
 23 24  1  0  0  0  0
 23 27  1  0  0  0  0
 25 21  1  0  0  0  0
 26 22  1  0  0  0  0
 27 28  1  0  0  0  0
 28 29  1  0  0  0  0
 28 30  2  0  0  0  0
 31 32  1  0  0  0  0
 31 30  1  0  0  0  0
 33 31  2  0  0  0  0
 34 33  1  0  0  0  0
 35 33  1  0  0  0  0
 35 27  2  0  0  0  0
M  END
>  <minimizedAffinity>
-5.79021549

$$$$

 OpenBabel03242513003D

 35 38  0  0  0  0  0  0  0  0999 V2000
   32.7850   29.0550   38.6490 F   0  0  0  0  0  0  0  0  0  0  0  0
   33.2000   29.0230   37.3430 C   0  0  0  0  0  0  0  0  0  0  0  0
   32.4170   29.5380   36.3420 C   0  0  0  0  0  0  0  0  0  0  0  0
   32.9120   29.4650   35.0650 C   0  0  0  0  0  0  0  0  0  0  0  0
   34.1240   28.9120   34.7440 C   0  0  0  0  0  0  0  0  0  0  0  0
   34.8610   28.4150   35.7900 C   0  0  0  0  0  0  0  0  0  0  0  0
   34.4210   28.4590   37.0890 C   0  0  0  0  0  0  0  0  0  0  0  0
   32.2780   29.8780   34.2750 H   0  0  0  0  0  0  0  0  0  0  0  0
   34.4720   28.8780   33.7140 H   0  0  0  0  0  0  0  0  0  0  0  0
   35.8340   27.9600   35.6240 H   0  0  0  0  0  0  0  0  0  0  0  0
   28.8170   29.9590   37.4590 C   0  0  0  0  0  0  0  0  0  0  0  0
   30.0390   29.3640   37.1210 C   0  0  0  0  0  0  0  0  0  0  0  0
   31.1260   30.1230   36.7040 C   0  0  0  0  0  0  0  0  0  0  0  0
   30.9210   31.4810   36.6480 N   0  0  0  0  0  0  0  0  0  0  0  0
   29.7330   32.0280   36.9800 C   0  0  0  0  0  0  0  0  0  0  0  0
   28.7000   31.2970   37.3770 N   0  0  0  0  0  0  0  0  0  0  0  0
   27.9750   29.3910   37.7800 H   0  0  0  0  0  0  0  0  0  0  0  0
   30.1460   28.2890   37.1820 H   0  0  0  0  0  0  0  0  0  0  0  0
   29.7680   33.1020   36.8740 H   0  0  0  0  0  0  0  0  0  0  0  0
   35.2230   27.9220   38.1830 C   0  0  0  0  0  0  0  0  0  0  0  0
   35.7690   26.6730   38.2760 C   0  0  0  0  0  0  0  0  0  0  0  0
   36.4520   26.5810   39.4770 C   0  0  0  0  0  0  0  0  0  0  0  0
   36.3080   27.7710   40.0840 N   0  0  0  0  0  0  0  0  0  0  0  0
   35.5770   28.5660   39.3140 N   0  0  0  0  0  0  0  0  0  0  0  0
   35.6590   25.9130   37.5140 H   0  0  0  0  0  0  0  0  0  0  0  0
   36.9750   25.7100   39.8050 H   0  0  0  0  0  0  0  0  0  0  0  0
   36.8500   28.1270   41.3520 C   0  0  0  0  0  0  0  0  0  0  0  0
   37.7210   29.1900   41.4600 C   0  0  0  0  0  0  0  0  0  0  0  0
   37.9820   29.7430   40.5670 H   0  0  0  0  0  0  0  0  0  0  0  0
   38.2870   29.5920   42.6630 C   0  0  0  0  0  3  0  0  0  0  0  0
   37.9200   28.8550   43.7530 C   0  0  0  0  0  0  0  0  0  0  0  0
   38.3610   29.1640   44.7100 H   0  0  0  0  0  0  0  0  0  0  0  0
   37.0540   27.7800   43.7170 C   0  0  0  0  0  0  0  0  0  0  0  0
   36.8290   27.2640   44.6420 H   0  0  0  0  0  0  0  0  0  0  0  0
   36.5090   27.4130   42.4830 C   0  0  0  0  0  3  0  0  0  0  0  0
  2  1  1  0  0  0  0
  3 13  1  0  0  0  0
  3  2  2  0  0  0  0
  4  3  1  0  0  0  0
  5  4  2  0  0  0  0
  5  6  1  0  0  0  0
  6  7  2  0  0  0  0
  7  2  1  0  0  0  0
  7 20  1  0  0  0  0
  8  4  1  0  0  0  0
  9  5  1  0  0  0  0
 10  6  1  0  0  0  0
 11 17  1  0  0  0  0
 12 18  1  0  0  0  0
 12 11  2  0  0  0  0
 13 12  1  0  0  0  0
 14 13  2  0  0  0  0
 14 15  1  0  0  0  0
 15 16  2  0  0  0  0
 16 11  1  0  0  0  0
 19 15  1  0  0  0  0
 20 21  1  0  0  0  0
 20 24  2  0  0  0  0
 21 22  2  0  0  0  0
 22 26  1  0  0  0  0
 22 23  1  0  0  0  0
 23 27  1  0  0  0  0
 24 23  1  0  0  0  0
 25 21  1  0  0  0  0
 27 28  2  0  0  0  0
 27 35  1  0  0  0  0
 28 30  1  0  0  0  0
 29 28  1  0  0  0  0
 30 31  2  0  0  0  0
 31 32  1  0  0  0  0
 33 31  1  0  0  0  0
 33 34  1  0  0  0  0
 35 33  2  0  0  0  0
M  END
>  <minimizedAffinity>
-5.75425673

$$$$

 OpenBabel03242513003D

 35 38  0  0  0  0  0  0  0  0999 V2000
   36.2550   27.0220   38.7830 F   0  0  0  0  0  0  0  0  0  0  0  0
   36.5620   26.4050   39.9680 C   0  0  0  0  0  0  0  0  0  0  0  0
   36.5820   25.0370   40.0660 C   0  0  0  0  0  0  0  0  0  0  0  0
   36.9010   24.5050   41.2890 C   0  0  0  0  0  0  0  0  0  0  0  0
   37.1930   25.2570   42.3980 C   0  0  0  0  0  0  0  0  0  0  0  0
   37.1560   26.6190   42.2360 C   0  0  0  0  0  0  0  0  0  0  0  0
   36.8440   27.2110   41.0380 C   0  0  0  0  0  0  0  0  0  0  0  0
   36.9140   23.4140   41.3550 H   0  0  0  0  0  0  0  0  0  0  0  0
   37.4390   24.7870   43.3480 H   0  0  0  0  0  0  0  0  0  0  0  0
   37.3740   27.2880   43.0640 H   0  0  0  0  0  0  0  0  0  0  0  0
   34.7720   22.8920   37.5140 C   0  0  0  0  0  0  0  0  0  0  0  0
   35.0380   23.6370   38.6710 C   0  0  0  0  0  0  0  0  0  0  0  0
   36.2680   24.2520   38.8720 C   0  0  0  0  0  0  0  0  0  0  0  0
   37.1930   24.0820   37.8700 N   0  0  0  0  0  0  0  0  0  0  0  0
   36.9110   23.3600   36.7660 C   0  0  0  0  0  0  0  0  0  0  0  0
   35.7350   22.7750   36.5810 N   0  0  0  0  0  0  0  0  0  0  0  0
   33.8350   22.4150   37.3460 H   0  0  0  0  0  0  0  0  0  0  0  0
   34.2730   23.7390   39.4280 H   0  0  0  0  0  0  0  0  0  0  0  0
   37.7590   23.3420   36.0990 H   0  0  0  0  0  0  0  0  0  0  0  0
   36.8110   28.6620   40.8910 C   0  0  0  0  0  0  0  0  0  0  0  0
   35.7070   29.4640   40.8160 C   0  0  0  0  0  0  0  0  0  0  0  0
   36.1260   30.7760   40.6820 C   0  0  0  0  0  0  0  0  0  0  0  0
   37.4700   30.7440   40.6790 N   0  0  0  0  0  0  0  0  0  0  0  0
   37.8740   29.4880   40.8040 N   0  0  0  0  0  0  0  0  0  0  0  0
   34.6930   29.0900   40.8580 H   0  0  0  0  0  0  0  0  0  0  0  0
   35.4660   31.6120   40.6010 H   0  0  0  0  0  0  0  0  0  0  0  0
   38.3260   31.8760   40.5620 C   0  0  0  0  0  0  0  0  0  0  0  0
   37.7990   33.1170   40.2710 C   0  0  0  0  0  0  0  0  0  0  0  0
   36.7290   33.2100   40.1350 H   0  0  0  0  0  0  0  0  0  0  0  0
   38.5740   34.2620   40.1420 C   0  0  0  0  0  3  0  0  0  0  0  0
   39.9160   34.0790   40.3250 C   0  0  0  0  0  0  0  0  0  0  0  0
   40.5390   34.9790   40.2240 H   0  0  0  0  0  0  0  0  0  0  0  0
   40.5100   32.8680   40.6170 C   0  0  0  0  0  0  0  0  0  0  0  0
   41.5850   32.8340   40.7430 H   0  0  0  0  0  0  0  0  0  0  0  0
   39.6880   31.7430   40.7380 C   0  0  0  0  0  3  0  0  0  0  0  0
  1  2  1  0  0  0  0
  2  3  2  0  0  0  0
  2  7  1  0  0  0  0
  3  4  1  0  0  0  0
  4  8  1  0  0  0  0
  4  5  2  0  0  0  0
  5  9  1  0  0  0  0
  6  5  1  0  0  0  0
  6 10  1  0  0  0  0
  7  6  2  0  0  0  0
 11 12  1  0  0  0  0
 12 13  2  0  0  0  0
 12 18  1  0  0  0  0
 13  3  1  0  0  0  0
 14 13  1  0  0  0  0
 15 14  2  0  0  0  0
 16 15  1  0  0  0  0
 16 11  2  0  0  0  0
 17 11  1  0  0  0  0
 19 15  1  0  0  0  0
 20  7  1  0  0  0  0
 21 25  1  0  0  0  0
 21 20  1  0  0  0  0
 22 21  2  0  0  0  0
 23 22  1  0  0  0  0
 23 24  1  0  0  0  0
 24 20  2  0  0  0  0
 26 22  1  0  0  0  0
 27 23  1  0  0  0  0
 27 35  1  0  0  0  0
 28 27  2  0  0  0  0
 29 28  1  0  0  0  0
 30 28  1  0  0  0  0
 30 31  2  0  0  0  0
 31 33  1  0  0  0  0
 32 31  1  0  0  0  0
 33 35  2  0  0  0  0
 33 34  1  0  0  0  0
M  END
>  <minimizedAffinity>
-5.6829896

$$$$

 OpenBabel03242513003D

 35 38  0  0  0  0  0  0  0  0999 V2000
   32.7720   29.0800   38.7180 F   0  0  0  0  0  0  0  0  0  0  0  0
   33.4800   29.0740   37.5440 C   0  0  0  0  0  0  0  0  0  0  0  0
   32.8640   29.3470   36.3490 C   0  0  0  0  0  0  0  0  0  0  0  0
   33.6490   29.3200   35.2250 C   0  0  0  0  0  0  0  0  0  0  0  0
   34.9900   29.0380   35.2330 C   0  0  0  0  0  0  0  0  0  0  0  0
   35.5470   28.7730   36.4600 C   0  0  0  0  0  0  0  0  0  0  0  0
   34.8160   28.7850   37.6200 C   0  0  0  0  0  0  0  0  0  0  0  0
   33.1470   29.5390   34.2780 H   0  0  0  0  0  0  0  0  0  0  0  0
   35.5690   29.0280   34.3130 H   0  0  0  0  0  0  0  0  0  0  0  0
   36.6050   28.5400   36.5560 H   0  0  0  0  0  0  0  0  0  0  0  0
   29.5490   31.1900   36.4050 C   0  0  0  0  0  0  0  0  0  0  0  0
   30.9280   30.9410   36.3960 C   0  0  0  0  0  0  0  0  0  0  0  0
   31.4320   29.6460   36.3600 C   0  0  0  0  0  0  0  0  0  0  0  0
   30.4970   28.6400   36.3330 N   0  0  0  0  0  0  0  0  0  0  0  0
   29.1740   28.9080   36.3420 C   0  0  0  0  0  0  0  0  0  0  0  0
   28.6990   30.1460   36.3770 N   0  0  0  0  0  0  0  0  0  0  0  0
   29.1480   32.1760   36.4330 H   0  0  0  0  0  0  0  0  0  0  0  0
   31.6210   31.7710   36.4180 H   0  0  0  0  0  0  0  0  0  0  0  0
   28.6030   27.9930   36.3170 H   0  0  0  0  0  0  0  0  0  0  0  0
   35.4320   28.5000   38.9120 C   0  0  0  0  0  0  0  0  0  0  0  0
   35.4750   29.3140   40.0090 C   0  0  0  0  0  0  0  0  0  0  0  0
   36.1540   28.6540   41.0180 C   0  0  0  0  0  0  0  0  0  0  0  0
   36.5070   27.4590   40.5150 N   0  0  0  0  0  0  0  0  0  0  0  0
   36.0770   27.3700   39.2640 N   0  0  0  0  0  0  0  0  0  0  0  0
   35.0360   30.3030   40.0370 H   0  0  0  0  0  0  0  0  0  0  0  0
   36.3330   29.0620   41.9880 H   0  0  0  0  0  0  0  0  0  0  0  0
   37.2290   26.4470   41.2110 C   0  0  0  0  0  0  0  0  0  0  0  0
   36.9110   25.1170   41.0260 C   0  0  0  0  0  0  0  0  0  0  0  0
   36.1070   24.8630   40.3460 H   0  0  0  0  0  0  0  0  0  0  0  0
   37.5710   24.0790   41.6700 C   0  0  0  0  0  3  0  0  0  0  0  0
   38.5750   24.4650   42.5150 C   0  0  0  0  0  0  0  0  0  0  0  0
   39.1040   23.6520   43.0300 H   0  0  0  0  0  0  0  0  0  0  0  0
   38.9440   25.7740   42.7460 C   0  0  0  0  0  0  0  0  0  0  0  0
   39.7560   25.9690   43.4360 H   0  0  0  0  0  0  0  0  0  0  0  0
   38.2500   26.7850   42.0740 C   0  0  0  0  0  3  0  0  0  0  0  0
  2  7  1  0  0  0  0
  2  1  1  0  0  0  0
  3 13  1  0  0  0  0
  3  2  2  0  0  0  0
  4  5  2  0  0  0  0
  4  3  1  0  0  0  0
  5  6  1  0  0  0  0
  6 10  1  0  0  0  0
  6  7  2  0  0  0  0
  7 20  1  0  0  0  0
  8  4  1  0  0  0  0
  9  5  1  0  0  0  0
 11 17  1  0  0  0  0
 12 11  1  0  0  0  0
 12 18  1  0  0  0  0
 13 12  2  0  0  0  0
 14 15  2  0  0  0  0
 14 13  1  0  0  0  0
 15 16  1  0  0  0  0
 16 11  2  0  0  0  0
 19 15  1  0  0  0  0
 20 24  2  0  0  0  0
 20 21  1  0  0  0  0
 21 25  1  0  0  0  0
 21 22  2  0  0  0  0
 22 26  1  0  0  0  0
 23 22  1  0  0  0  0
 23 27  1  0  0  0  0
 24 23  1  0  0  0  0
 27 35  1  0  0  0  0
 28 27  2  0  0  0  0
 28 30  1  0  0  0  0
 29 28  1  0  0  0  0
 30 31  2  0  0  0  0
 31 33  1  0  0  0  0
 31 32  1  0  0  0  0
 33 34  1  0  0  0  0
 35 33  2  0  0  0  0
M  END
>  <minimizedAffinity>
-5.65016794

$$$$

 OpenBabel03242513003D

 35 38  0  0  0  0  0  0  0  0999 V2000
   37.0880   30.9250   37.2060 F   0  0  0  0  0  0  0  0  0  0  0  0
   36.4700   30.3840   38.3030 C   0  0  0  0  0  0  0  0  0  0  0  0
   35.5870   29.3430   38.1720 C   0  0  0  0  0  0  0  0  0  0  0  0
   35.0160   28.8630   39.3230 C   0  0  0  0  0  0  0  0  0  0  0  0
   35.2770   29.3620   40.5730 C   0  0  0  0  0  0  0  0  0  0  0  0
   36.1690   30.4030   40.6380 C   0  0  0  0  0  0  0  0  0  0  0  0
   36.7740   30.9260   39.5230 C   0  0  0  0  0  0  0  0  0  0  0  0
   34.3130   28.0340   39.2060 H   0  0  0  0  0  0  0  0  0  0  0  0
   34.7970   28.9470   41.4570 H   0  0  0  0  0  0  0  0  0  0  0  0
   36.4330   30.8570   41.5900 H   0  0  0  0  0  0  0  0  0  0  0  0
   33.9050   28.5280   34.8720 C   0  0  0  0  0  0  0  0  0  0  0  0
   34.1240   29.0410   36.1570 C   0  0  0  0  0  0  0  0  0  0  0  0
   35.3210   28.8240   36.8300 C   0  0  0  0  0  0  0  0  0  0  0  0
   36.2610   28.0820   36.1570 N   0  0  0  0  0  0  0  0  0  0  0  0
   36.0230   27.6000   34.9190 C   0  0  0  0  0  0  0  0  0  0  0  0
   34.8790   27.8110   34.2820 N   0  0  0  0  0  0  0  0  0  0  0  0
   32.9940   28.6850   34.3430 H   0  0  0  0  0  0  0  0  0  0  0  0
   33.3490   29.6190   36.6420 H   0  0  0  0  0  0  0  0  0  0  0  0
   36.8760   27.0470   34.5590 H   0  0  0  0  0  0  0  0  0  0  0  0
   37.7190   32.0340   39.6180 C   0  0  0  0  0  0  0  0  0  0  0  0
   37.4330   33.3530   39.8320 C   0  0  0  0  0  0  0  0  0  0  0  0
   38.6220   34.0620   39.8520 C   0  0  0  0  0  0  0  0  0  0  0  0
   39.6000   33.1620   39.6520 N   0  0  0  0  0  0  0  0  0  0  0  0
   39.0610   31.9580   39.5130 N   0  0  0  0  0  0  0  0  0  0  0  0
   36.4290   33.7340   39.9580 H   0  0  0  0  0  0  0  0  0  0  0  0
   38.6900   35.1160   40.0030 H   0  0  0  0  0  0  0  0  0  0  0  0
   40.9940   33.4500   39.5960 C   0  0  0  0  0  0  0  0  0  0  0  0
   41.7810   33.2870   40.7170 C   0  0  0  0  0  0  0  0  0  0  0  0
   41.3190   32.9380   41.6310 H   0  0  0  0  0  0  0  0  0  0  0  0
   43.1440   33.5490   40.7340 C   0  0  0  0  0  3  0  0  0  0  0  0
   43.6680   33.9860   39.5500 C   0  0  0  0  0  0  0  0  0  0  0  0
   44.7460   34.1970   39.5520 H   0  0  0  0  0  0  0  0  0  0  0  0
   42.9390   34.1720   38.3920 C   0  0  0  0  0  0  0  0  0  0  0  0
   43.4540   34.5220   37.5060 H   0  0  0  0  0  0  0  0  0  0  0  0
   41.5690   33.8940   38.4230 C   0  0  0  0  0  3  0  0  0  0  0  0
  1  2  1  0  0  0  0
  2  7  1  0  0  0  0
  3  2  2  0  0  0  0
  3  4  1  0  0  0  0
  4  5  2  0  0  0  0
  5  6  1  0  0  0  0
  5  9  1  0  0  0  0
  6 10  1  0  0  0  0
  7 20  1  0  0  0  0
  7  6  2  0  0  0  0
  8  4  1  0  0  0  0
 11 12  1  0  0  0  0
 12 18  1  0  0  0  0
 12 13  2  0  0  0  0
 13  3  1  0  0  0  0
 14 13  1  0  0  0  0
 15 14  2  0  0  0  0
 16 11  2  0  0  0  0
 16 15  1  0  0  0  0
 17 11  1  0  0  0  0
 19 15  1  0  0  0  0
 20 21  1  0  0  0  0
 21 22  2  0  0  0  0
 21 25  1  0  0  0  0
 22 26  1  0  0  0  0
 23 22  1  0  0  0  0
 24 20  2  0  0  0  0
 24 23  1  0  0  0  0
 27 23  1  0  0  0  0
 27 28  1  0  0  0  0
 28 30  2  0  0  0  0
 28 29  1  0  0  0  0
 31 32  1  0  0  0  0
 31 30  1  0  0  0  0
 33 35  1  0  0  0  0
 33 31  2  0  0  0  0
 34 33  1  0  0  0  0
 35 27  2  0  0  0  0
M  END
>  <minimizedAffinity>
-5.58882809

$$$$
