
 OpenBabel03242513123D

 20 21  0  0  0  0  0  0  0  0999 V2000
   37.0200   27.6850   42.8160 C   0  0  0  0  0  0  0  0  0  0  0  0
   36.1080   27.4040   43.6640 O   0  0  0  0  0  0  0  0  0  0  0  0
   35.7000   29.9050   40.2830 C   0  0  0  0  0  0  0  0  0  0  0  0
   36.6130   30.9540   40.1940 C   0  0  0  0  0  0  0  0  0  0  0  0
   37.7170   30.8730   41.0460 C   0  0  0  0  0  0  0  0  0  0  0  0
   37.8240   29.8140   41.8760 N   0  0  0  0  0  0  0  0  0  0  0  0
   36.9190   28.8290   41.9270 C   0  0  0  0  0  0  0  0  0  0  0  0
   35.8240   28.8550   41.1200 N   0  0  0  0  0  0  0  0  0  0  0  0
   34.8170   29.9090   39.6440 H   0  0  0  0  0  0  0  0  0  0  0  0
   36.4510   31.7670   39.4980 H   0  0  0  0  0  0  0  0  0  0  0  0
   38.4520   31.6490   41.0240 H   0  0  0  0  0  0  0  0  0  0  0  0
   38.1190   26.7240   42.8770 C   0  0  0  0  0  0  0  0  0  0  0  0
   38.0680   25.5730   42.1230 C   0  0  0  0  0  0  0  0  0  0  0  0
   37.2150   25.3520   41.4690 H   0  0  0  0  0  0  0  0  0  0  0  0
   39.0840   24.6080   42.1280 C   0  0  0  0  0  3  0  0  0  0  0  0
   40.1950   24.7920   42.9150 C   0  0  0  0  0  0  0  0  0  0  0  0
   41.0120   24.0950   42.9680 H   0  0  0  0  0  0  0  0  0  0  0  0
   40.2710   25.9350   43.6800 C   0  0  0  0  0  0  0  0  0  0  0  0
   41.1340   26.1040   44.3060 H   0  0  0  0  0  0  0  0  0  0  0  0
   39.2610   26.8580   43.6500 C   0  0  0  0  0  3  0  0  0  0  0  0
  1 12  1  0  0  0  0
  1  2  2  0  0  0  0
  3  8  1  0  0  0  0
  4  3  2  0  0  0  0
  4  5  1  0  0  0  0
  5  6  2  0  0  0  0
  6  7  1  0  0  0  0
  7  1  1  0  0  0  0
  8  7  2  0  0  0  0
  9  3  1  0  0  0  0
 10  4  1  0  0  0  0
 11  5  1  0  0  0  0
 12 20  1  0  0  0  0
 13 15  1  0  0  0  0
 13 12  2  0  0  0  0
 14 13  1  0  0  0  0
 15 16  2  0  0  0  0
 16 17  1  0  0  0  0
 16 18  1  0  0  0  0
 18 19  1  0  0  0  0
 20 18  2  0  0  0  0
M  END
>  <minimizedAffinity>
-4.65952063

$$$$

 OpenBabel03242513123D

 20 21  0  0  0  0  0  0  0  0999 V2000
   35.9230   29.3140   40.4440 C   0  0  0  0  0  0  0  0  0  0  0  0
   34.6600   29.1940   40.3030 O   0  0  0  0  0  0  0  0  0  0  0  0
   37.9530   28.8970   43.4090 C   0  0  0  0  0  0  0  0  0  0  0  0
   38.0470   27.5210   43.6070 C   0  0  0  0  0  0  0  0  0  0  0  0
   37.3800   26.7250   42.6720 C   0  0  0  0  0  0  0  0  0  0  0  0
   36.7060   27.3260   41.6660 N   0  0  0  0  0  0  0  0  0  0  0  0
   36.6440   28.6550   41.5180 C   0  0  0  0  0  0  0  0  0  0  0  0
   37.2750   29.4780   42.3990 N   0  0  0  0  0  0  0  0  0  0  0  0
   38.4520   29.5730   44.1050 H   0  0  0  0  0  0  0  0  0  0  0  0
   38.6090   27.1220   44.4410 H   0  0  0  0  0  0  0  0  0  0  0  0
   37.4150   25.6620   42.7700 H   0  0  0  0  0  0  0  0  0  0  0  0
   36.4950   30.1750   39.4120 C   0  0  0  0  0  0  0  0  0  0  0  0
   36.7350   29.6720   38.1530 C   0  0  0  0  0  0  0  0  0  0  0  0
   36.5070   28.6290   37.8980 H   0  0  0  0  0  0  0  0  0  0  0  0
   37.2800   30.4370   37.1130 C   0  0  0  0  0  3  0  0  0  0  0  0
   37.6010   31.7540   37.3320 C   0  0  0  0  0  0  0  0  0  0  0  0
   38.0200   32.4010   36.5820 H   0  0  0  0  0  0  0  0  0  0  0  0
   37.3710   32.2840   38.5830 C   0  0  0  0  0  0  0  0  0  0  0  0
   37.6130   33.3170   38.7810 H   0  0  0  0  0  0  0  0  0  0  0  0
   36.8370   31.5080   39.5760 C   0  0  0  0  0  3  0  0  0  0  0  0
  1  7  1  0  0  0  0
  2  1  2  0  0  0  0
  3  4  1  0  0  0  0
  3  9  1  0  0  0  0
  4 10  1  0  0  0  0
  5 11  1  0  0  0  0
  5  4  2  0  0  0  0
  6  5  1  0  0  0  0
  7  6  2  0  0  0  0
  7  8  1  0  0  0  0
  8  3  2  0  0  0  0
 12 20  1  0  0  0  0
 12  1  1  0  0  0  0
 13 12  2  0  0  0  0
 14 13  1  0  0  0  0
 15 16  2  0  0  0  0
 15 13  1  0  0  0  0
 16 18  1  0  0  0  0
 17 16  1  0  0  0  0
 18 19  1  0  0  0  0
 18 20  2  0  0  0  0
M  END
>  <minimizedAffinity>
-4.55463552

$$$$

 OpenBabel03242513123D

 20 21  0  0  0  0  0  0  0  0999 V2000
   36.9660   27.6040   42.7540 C   0  0  0  0  0  0  0  0  0  0  0  0
   36.1110   27.3990   43.6800 O   0  0  0  0  0  0  0  0  0  0  0  0
   37.5770   30.6640   40.9240 C   0  0  0  0  0  0  0  0  0  0  0  0
   36.5850   30.7200   39.9480 C   0  0  0  0  0  0  0  0  0  0  0  0
   35.6810   29.6540   39.9370 C   0  0  0  0  0  0  0  0  0  0  0  0
   35.8260   28.6680   40.8490 N   0  0  0  0  0  0  0  0  0  0  0  0
   36.7970   28.6580   41.7690 C   0  0  0  0  0  0  0  0  0  0  0  0
   37.7050   29.6700   41.8260 N   0  0  0  0  0  0  0  0  0  0  0  0
   38.3130   31.4670   40.9850 H   0  0  0  0  0  0  0  0  0  0  0  0
   36.5410   31.5490   39.2540 H   0  0  0  0  0  0  0  0  0  0  0  0
   34.8970   29.6400   39.2110 H   0  0  0  0  0  0  0  0  0  0  0  0
   38.0780   26.6600   42.8370 C   0  0  0  0  0  0  0  0  0  0  0  0
   38.0560   25.5040   42.0890 C   0  0  0  0  0  0  0  0  0  0  0  0
   37.2160   25.2660   41.4250 H   0  0  0  0  0  0  0  0  0  0  0  0
   39.0850   24.5540   42.1160 C   0  0  0  0  0  3  0  0  0  0  0  0
   40.1820   24.7600   42.9180 C   0  0  0  0  0  0  0  0  0  0  0  0
   41.0090   24.0760   42.9880 H   0  0  0  0  0  0  0  0  0  0  0  0
   40.2300   25.9090   43.6770 C   0  0  0  0  0  0  0  0  0  0  0  0
   41.0810   26.0950   44.3140 H   0  0  0  0  0  0  0  0  0  0  0  0
   39.2060   26.8160   43.6260 C   0  0  0  0  0  3  0  0  0  0  0  0
  1 12  1  0  0  0  0
  1  2  2  0  0  0  0
  3  9  1  0  0  0  0
  3  8  1  0  0  0  0
  4  3  2  0  0  0  0
  5  4  1  0  0  0  0
  5  6  2  0  0  0  0
  6  7  1  0  0  0  0
  7  8  2  0  0  0  0
  7  1  1  0  0  0  0
 10  4  1  0  0  0  0
 11  5  1  0  0  0  0
 12 20  1  0  0  0  0
 13 15  1  0  0  0  0
 13 12  2  0  0  0  0
 14 13  1  0  0  0  0
 15 16  2  0  0  0  0
 16 17  1  0  0  0  0
 16 18  1  0  0  0  0
 18 19  1  0  0  0  0
 20 18  2  0  0  0  0
M  END
>  <minimizedAffinity>
-4.55241203

$$$$

 OpenBabel03242513123D

 20 21  0  0  0  0  0  0  0  0999 V2000
   36.2250   29.9920   40.8190 C   0  0  0  0  0  0  0  0  0  0  0  0
   36.0910   31.2390   41.0600 O   0  0  0  0  0  0  0  0  0  0  0  0
   38.6300   28.7420   43.2140 C   0  0  0  0  0  0  0  0  0  0  0  0
   38.1810   27.4710   43.5660 C   0  0  0  0  0  0  0  0  0  0  0  0
   37.0040   27.0470   42.9420 C   0  0  0  0  0  0  0  0  0  0  0  0
   36.3970   27.8750   42.0640 N   0  0  0  0  0  0  0  0  0  0  0  0
   36.8670   29.0910   41.7590 C   0  0  0  0  0  0  0  0  0  0  0  0
   38.0090   29.5540   42.3360 N   0  0  0  0  0  0  0  0  0  0  0  0
   39.5430   29.1300   43.6660 H   0  0  0  0  0  0  0  0  0  0  0  0
   38.7290   26.8710   44.2800 H   0  0  0  0  0  0  0  0  0  0  0  0
   36.6090   26.0810   43.1710 H   0  0  0  0  0  0  0  0  0  0  0  0
   35.6610   29.6370   39.5190 C   0  0  0  0  0  0  0  0  0  0  0  0
   34.3700   29.1660   39.4350 C   0  0  0  0  0  0  0  0  0  0  0  0
   33.7430   29.0490   40.3270 H   0  0  0  0  0  0  0  0  0  0  0  0
   33.7620   28.8080   38.2240 C   0  0  0  0  0  3  0  0  0  0  0  0
   34.4650   28.9200   37.0490 C   0  0  0  0  0  0  0  0  0  0  0  0
   34.0630   28.6640   36.0850 H   0  0  0  0  0  0  0  0  0  0  0  0
   35.7600   29.3880   37.1050 C   0  0  0  0  0  0  0  0  0  0  0  0
   36.3330   29.4860   36.1950 H   0  0  0  0  0  0  0  0  0  0  0  0
   36.3220   29.7290   38.3040 C   0  0  0  0  0  3  0  0  0  0  0  0
  1  2  2  0  0  0  0
  1  7  1  0  0  0  0
  3  4  1  0  0  0  0
  3  9  1  0  0  0  0
  4 10  1  0  0  0  0
  5 11  1  0  0  0  0
  5  4  2  0  0  0  0
  6  5  1  0  0  0  0
  7  6  2  0  0  0  0
  7  8  1  0  0  0  0
  8  3  2  0  0  0  0
 12  1  1  0  0  0  0
 13 12  1  0  0  0  0
 13 14  1  0  0  0  0
 15 13  2  0  0  0  0
 16 18  2  0  0  0  0
 16 15  1  0  0  0  0
 17 16  1  0  0  0  0
 18 20  1  0  0  0  0
 19 18  1  0  0  0  0
 20 12  2  0  0  0  0
M  END
>  <minimizedAffinity>
-4.53556252

$$$$

 OpenBabel03242513123D

 20 21  0  0  0  0  0  0  0  0999 V2000
   35.6850   29.2820   40.2570 C   0  0  0  0  0  0  0  0  0  0  0  0
   34.4380   29.1450   40.0220 O   0  0  0  0  0  0  0  0  0  0  0  0
   37.3470   31.7180   38.1610 C   0  0  0  0  0  0  0  0  0  0  0  0
   37.7890   32.7160   39.0270 C   0  0  0  0  0  0  0  0  0  0  0  0
   37.4930   32.5230   40.3790 C   0  0  0  0  0  0  0  0  0  0  0  0
   36.8180   31.4130   40.7470 N   0  0  0  0  0  0  0  0  0  0  0  0
   36.4130   30.4800   39.8770 C   0  0  0  0  0  0  0  0  0  0  0  0
   36.6730   30.6160   38.5480 N   0  0  0  0  0  0  0  0  0  0  0  0
   37.5460   31.8100   37.0930 H   0  0  0  0  0  0  0  0  0  0  0  0
   38.3250   33.5770   38.6480 H   0  0  0  0  0  0  0  0  0  0  0  0
   37.8060   33.2550   41.0930 H   0  0  0  0  0  0  0  0  0  0  0  0
   36.2330   28.1090   40.9310 C   0  0  0  0  0  0  0  0  0  0  0  0
   36.5750   26.9920   40.2000 C   0  0  0  0  0  0  0  0  0  0  0  0
   36.4460   26.9580   39.1110 H   0  0  0  0  0  0  0  0  0  0  0  0
   37.1070   25.8320   40.7760 C   0  0  0  0  0  3  0  0  0  0  0  0
   37.3070   25.7750   42.1340 C   0  0  0  0  0  0  0  0  0  0  0  0
   37.7120   24.9190   42.6440 H   0  0  0  0  0  0  0  0  0  0  0  0
   36.9740   26.8780   42.8900 C   0  0  0  0  0  0  0  0  0  0  0  0
   37.1220   26.8590   43.9590 H   0  0  0  0  0  0  0  0  0  0  0  0
   36.4570   27.9960   42.2940 C   0  0  0  0  0  3  0  0  0  0  0  0
  1 12  1  0  0  0  0
  2  1  2  0  0  0  0
  3  8  2  0  0  0  0
  3  4  1  0  0  0  0
  4  5  2  0  0  0  0
  5  6  1  0  0  0  0
  5 11  1  0  0  0  0
  7  1  1  0  0  0  0
  7  6  2  0  0  0  0
  8  7  1  0  0  0  0
  9  3  1  0  0  0  0
 10  4  1  0  0  0  0
 12 20  1  0  0  0  0
 13 15  1  0  0  0  0
 13 12  2  0  0  0  0
 14 13  1  0  0  0  0
 15 16  2  0  0  0  0
 16 17  1  0  0  0  0
 16 18  1  0  0  0  0
 18 19  1  0  0  0  0
 20 18  2  0  0  0  0
M  END
>  <minimizedAffinity>
-4.50813198

$$$$

 OpenBabel03242513123D

 20 21  0  0  0  0  0  0  0  0999 V2000
   37.2970   28.3810   42.4060 C   0  0  0  0  0  0  0  0  0  0  0  0
   37.2760   28.2950   43.6800 O   0  0  0  0  0  0  0  0  0  0  0  0
   36.5500   31.4780   40.6930 C   0  0  0  0  0  0  0  0  0  0  0  0
   37.7860   32.0590   40.4160 C   0  0  0  0  0  0  0  0  0  0  0  0
   38.9050   31.3400   40.8440 C   0  0  0  0  0  0  0  0  0  0  0  0
   38.7210   30.1630   41.4790 N   0  0  0  0  0  0  0  0  0  0  0  0
   37.5110   29.6440   41.7230 C   0  0  0  0  0  0  0  0  0  0  0  0
   36.3860   30.3010   41.3290 N   0  0  0  0  0  0  0  0  0  0  0  0
   35.6380   31.9900   40.3850 H   0  0  0  0  0  0  0  0  0  0  0  0
   37.8450   33.0090   39.9010 H   0  0  0  0  0  0  0  0  0  0  0  0
   39.8820   31.7350   40.6610 H   0  0  0  0  0  0  0  0  0  0  0  0
   37.0820   27.0790   41.7800 C   0  0  0  0  0  0  0  0  0  0  0  0
   37.0910   25.9360   42.5490 C   0  0  0  0  0  0  0  0  0  0  0  0
   37.2570   25.9750   43.6330 H   0  0  0  0  0  0  0  0  0  0  0  0
   36.8900   24.6550   42.0200 C   0  0  0  0  0  3  0  0  0  0  0  0
   36.6730   24.5000   40.6720 C   0  0  0  0  0  0  0  0  0  0  0  0
   36.5110   23.5490   40.1970 H   0  0  0  0  0  0  0  0  0  0  0  0
   36.6590   25.6270   39.8790 C   0  0  0  0  0  0  0  0  0  0  0  0
   36.4900   25.5330   38.8170 H   0  0  0  0  0  0  0  0  0  0  0  0
   36.8580   26.8640   40.4290 C   0  0  0  0  0  3  0  0  0  0  0  0
  1  2  2  0  0  0  0
  3  8  1  0  0  0  0
  4  3  2  0  0  0  0
  4  5  1  0  0  0  0
  5  6  2  0  0  0  0
  6  7  1  0  0  0  0
  7  1  1  0  0  0  0
  8  7  2  0  0  0  0
  9  3  1  0  0  0  0
 10  4  1  0  0  0  0
 11  5  1  0  0  0  0
 12  1  1  0  0  0  0
 12 13  1  0  0  0  0
 13 14  1  0  0  0  0
 15 13  2  0  0  0  0
 16 15  1  0  0  0  0
 17 16  1  0  0  0  0
 18 20  1  0  0  0  0
 18 16  2  0  0  0  0
 19 18  1  0  0  0  0
 20 12  2  0  0  0  0
M  END
>  <minimizedAffinity>
-4.4423275

$$$$

 OpenBabel03242513123D

 20 21  0  0  0  0  0  0  0  0999 V2000
   37.3230   28.7060   42.4000 C   0  0  0  0  0  0  0  0  0  0  0  0
   37.3300   28.6860   43.6760 O   0  0  0  0  0  0  0  0  0  0  0  0
   38.9570   31.5160   40.8130 C   0  0  0  0  0  0  0  0  0  0  0  0
   37.9340   32.2660   40.2350 C   0  0  0  0  0  0  0  0  0  0  0  0
   36.6410   31.7660   40.4110 C   0  0  0  0  0  0  0  0  0  0  0  0
   36.4720   30.6230   41.1100 N   0  0  0  0  0  0  0  0  0  0  0  0
   37.4880   29.9370   41.6470 C   0  0  0  0  0  0  0  0  0  0  0  0
   38.7690   30.3760   41.5080 N   0  0  0  0  0  0  0  0  0  0  0  0
   39.9890   31.8530   40.7120 H   0  0  0  0  0  0  0  0  0  0  0  0
   38.1570   33.1730   39.6900 H   0  0  0  0  0  0  0  0  0  0  0  0
   35.8130   32.2970   39.9910 H   0  0  0  0  0  0  0  0  0  0  0  0
   37.1310   27.3680   41.8470 C   0  0  0  0  0  0  0  0  0  0  0  0
   36.9900   27.1990   40.4870 C   0  0  0  0  0  0  0  0  0  0  0  0
   37.0180   28.0510   39.7970 H   0  0  0  0  0  0  0  0  0  0  0  0
   36.8040   25.9480   39.8850 C   0  0  0  0  0  3  0  0  0  0  0  0
   36.7550   24.8170   40.6640 C   0  0  0  0  0  0  0  0  0  0  0  0
   36.6160   23.8250   40.2720 H   0  0  0  0  0  0  0  0  0  0  0  0
   36.8920   24.9570   42.0280 C   0  0  0  0  0  0  0  0  0  0  0  0
   36.8580   24.0840   42.6630 H   0  0  0  0  0  0  0  0  0  0  0  0
   37.0730   26.1950   42.5830 C   0  0  0  0  0  3  0  0  0  0  0  0
  1  2  2  0  0  0  0
  3  8  1  0  0  0  0
  4  5  1  0  0  0  0
  4  3  2  0  0  0  0
  5  6  2  0  0  0  0
  6  7  1  0  0  0  0
  7  1  1  0  0  0  0
  8  7  2  0  0  0  0
  9  3  1  0  0  0  0
 10  4  1  0  0  0  0
 11  5  1  0  0  0  0
 12  1  1  0  0  0  0
 12 20  1  0  0  0  0
 13 12  2  0  0  0  0
 14 13  1  0  0  0  0
 15 13  1  0  0  0  0
 15 16  2  0  0  0  0
 16 18  1  0  0  0  0
 17 16  1  0  0  0  0
 18 20  2  0  0  0  0
 18 19  1  0  0  0  0
M  END
>  <minimizedAffinity>
-4.35063362

$$$$

 OpenBabel03242513123D

 20 21  0  0  0  0  0  0  0  0999 V2000
   37.3000   30.7730   41.1250 C   0  0  0  0  0  0  0  0  0  0  0  0
   36.0580   31.0670   41.0960 O   0  0  0  0  0  0  0  0  0  0  0  0
   39.7390   31.9020   38.7040 C   0  0  0  0  0  0  0  0  0  0  0  0
   40.2190   33.1150   39.1950 C   0  0  0  0  0  0  0  0  0  0  0  0
   39.6690   33.5410   40.4070 C   0  0  0  0  0  0  0  0  0  0  0  0
   38.7350   32.7710   41.0050 N   0  0  0  0  0  0  0  0  0  0  0  0
   38.3050   31.6110   40.4940 C   0  0  0  0  0  0  0  0  0  0  0  0
   38.8060   31.1480   39.3170 N   0  0  0  0  0  0  0  0  0  0  0  0
   40.1290   31.5150   37.7620 H   0  0  0  0  0  0  0  0  0  0  0  0
   40.9710   33.6710   38.6500 H   0  0  0  0  0  0  0  0  0  0  0  0
   39.9960   34.4640   40.8340 H   0  0  0  0  0  0  0  0  0  0  0  0
   37.5370   29.5290   41.8510 C   0  0  0  0  0  0  0  0  0  0  0  0
   38.7230   29.3410   42.5260 C   0  0  0  0  0  0  0  0  0  0  0  0
   39.5070   30.1090   42.5330 H   0  0  0  0  0  0  0  0  0  0  0  0
   39.0200   28.1760   43.2450 C   0  0  0  0  0  3  0  0  0  0  0  0
   38.1030   27.1540   43.2960 C   0  0  0  0  0  0  0  0  0  0  0  0
   38.2620   26.2330   43.8290 H   0  0  0  0  0  0  0  0  0  0  0  0
   36.9070   27.3150   42.6300 C   0  0  0  0  0  0  0  0  0  0  0  0
   36.1690   26.5280   42.6560 H   0  0  0  0  0  0  0  0  0  0  0  0
   36.6500   28.4670   41.9380 C   0  0  0  0  0  3  0  0  0  0  0  0
  1 12  1  0  0  0  0
  2  1  2  0  0  0  0
  3  4  2  0  0  0  0
  3  8  1  0  0  0  0
  4  5  1  0  0  0  0
  5 11  1  0  0  0  0
  5  6  2  0  0  0  0
  7  6  1  0  0  0  0
  7  1  1  0  0  0  0
  8  7  2  0  0  0  0
  9  3  1  0  0  0  0
 10  4  1  0  0  0  0
 12 20  2  0  0  0  0
 12 13  1  0  0  0  0
 13 14  1  0  0  0  0
 13 15  2  0  0  0  0
 15 16  1  0  0  0  0
 16 17  1  0  0  0  0
 18 19  1  0  0  0  0
 18 16  2  0  0  0  0
 20 18  1  0  0  0  0
M  END
>  <minimizedAffinity>
-4.32321167

$$$$

 OpenBabel03242513123D

 20 21  0  0  0  0  0  0  0  0999 V2000
   37.8340   32.9620   39.7990 C   0  0  0  0  0  0  0  0  0  0  0  0
   37.1160   33.9970   39.5920 O   0  0  0  0  0  0  0  0  0  0  0  0
   41.0410   32.0760   41.2200 C   0  0  0  0  0  0  0  0  0  0  0  0
   41.8990   33.1220   40.8850 C   0  0  0  0  0  0  0  0  0  0  0  0
   41.3320   34.1600   40.1420 C   0  0  0  0  0  0  0  0  0  0  0  0
   40.0260   34.0840   39.8080 N   0  0  0  0  0  0  0  0  0  0  0  0
   39.2400   33.0580   40.1530 C   0  0  0  0  0  0  0  0  0  0  0  0
   39.7390   32.0190   40.8760 N   0  0  0  0  0  0  0  0  0  0  0  0
   41.4230   31.2350   41.8000 H   0  0  0  0  0  0  0  0  0  0  0  0
   42.9360   33.1030   41.1950 H   0  0  0  0  0  0  0  0  0  0  0  0
   41.9400   34.9910   39.8540 H   0  0  0  0  0  0  0  0  0  0  0  0
   37.0620   31.7340   39.6300 C   0  0  0  0  0  0  0  0  0  0  0  0
   36.9970   31.1250   38.3960 C   0  0  0  0  0  0  0  0  0  0  0  0
   37.5160   31.5420   37.5240 H   0  0  0  0  0  0  0  0  0  0  0  0
   36.2780   29.9470   38.1600 C   0  0  0  0  0  3  0  0  0  0  0  0
   35.5940   29.3470   39.1890 C   0  0  0  0  0  0  0  0  0  0  0  0
   35.0220   28.4430   39.0810 H   0  0  0  0  0  0  0  0  0  0  0  0
   35.6410   29.9350   40.4350 C   0  0  0  0  0  0  0  0  0  0  0  0
   35.1130   29.4830   41.2600 H   0  0  0  0  0  0  0  0  0  0  0  0
   36.3540   31.0860   40.6310 C   0  0  0  0  0  3  0  0  0  0  0  0
  1  7  1  0  0  0  0
  2  1  2  0  0  0  0
  3  9  1  0  0  0  0
  4 10  1  0  0  0  0
  4  3  1  0  0  0  0
  5  4  2  0  0  0  0
  6  5  1  0  0  0  0
  6  7  2  0  0  0  0
  7  8  1  0  0  0  0
  8  3  2  0  0  0  0
 11  5  1  0  0  0  0
 12  1  1  0  0  0  0
 12 20  1  0  0  0  0
 13 12  2  0  0  0  0
 14 13  1  0  0  0  0
 15 13  1  0  0  0  0
 15 16  2  0  0  0  0
 16 18  1  0  0  0  0
 17 16  1  0  0  0  0
 18 20  2  0  0  0  0
 18 19  1  0  0  0  0
M  END
>  <minimizedAffinity>
-4.22823477

$$$$
