
 OpenBabel03252509123D

 32 35  0  0  0  0  0  0  0  0999 V2000
   47.5350   31.1710   45.0100 C   0  0  0  0  0  0  0  0  0  0  0  0
   47.3130   32.2250   44.1270 C   0  0  0  0  0  0  0  0  0  0  0  0
   46.5120   33.2890   44.4290 C   0  0  0  0  0  0  0  0  0  0  0  0
   45.8670   33.3690   45.6640 C   0  0  0  0  0  0  0  0  0  0  0  0
   45.0350   34.2360   46.2840 N   0  0  0  0  0  0  0  0  0  0  0  0
   44.7390   33.7500   47.5190 C   0  0  0  0  0  0  0  0  0  0  0  0
   45.3970   32.5840   47.6410 N   0  0  0  0  0  0  0  0  0  0  0  0
   46.0950   32.3270   46.5200 C   0  0  0  0  0  0  0  0  0  0  0  0
   46.8980   31.2290   46.2560 C   0  0  0  0  0  0  0  0  0  0  0  0
   48.1700   30.3400   44.7530 H   0  0  0  0  0  0  0  0  0  0  0  0
   44.7570   35.0930   45.7660 H   0  0  0  0  0  0  0  0  0  0  0  0
   44.0740   34.3750   48.0990 H   0  0  0  0  0  0  0  0  0  0  0  0
   47.0410   30.4320   46.9750 H   0  0  0  0  0  0  0  0  0  0  0  0
   47.9870   31.5260   40.5870 C   0  0  0  0  0  0  0  0  0  0  0  0
   49.2090   32.1440   40.3650 C   0  0  0  0  0  0  0  0  0  0  0  0
   49.7980   32.8010   41.4400 C   0  0  0  0  0  0  0  0  0  0  0  0
   49.1670   32.8180   42.6610 N   0  0  0  0  0  0  0  0  0  0  0  0
   47.9640   32.1920   42.8200 C   0  0  0  0  0  0  0  0  0  0  0  0
   47.3770   31.5530   41.7980 N   0  0  0  0  0  0  0  0  0  0  0  0
   47.5650   31.0270   39.7250 H   0  0  0  0  0  0  0  0  0  0  0  0
   49.7210   32.1410   39.4130 H   0  0  0  0  0  0  0  0  0  0  0  0
   50.7480   33.3190   41.3900 H   0  0  0  0  0  0  0  0  0  0  0  0
   46.2380   34.6380   43.2840 S   0  0  0  0  0  0  0  0  0  0  0  0
   44.6770   34.4620   42.4370 C   0  0  0  0  0  0  0  0  0  0  0  0
   43.9510   35.5700   42.0070 C   0  0  0  0  0  0  0  0  0  0  0  0
   44.3290   36.5750   42.1840 H   0  0  0  0  0  0  0  0  0  0  0  0
   42.7500   35.4120   41.3560 C   0  0  0  0  0  3  0  0  0  0  0  0
   42.2690   34.1450   41.1310 C   0  0  0  0  0  0  0  0  0  0  0  0
   41.3250   34.0170   40.6190 H   0  0  0  0  0  0  0  0  0  0  0  0
   43.0130   33.0450   41.5700 C   0  0  0  0  0  0  0  0  0  0  0  0
   42.5570   32.0710   41.3490 H   0  0  0  0  0  0  0  0  0  0  0  0
   44.2210   33.1830   42.2260 C   0  0  0  0  0  3  0  0  0  0  0  0
  1  9  1  0  0  0  0
  2  3  1  0  0  0  0
  2  1  2  0  0  0  0
  3  4  2  0  0  0  0
  4  5  1  0  0  0  0
  4  8  1  0  0  0  0
  5  6  1  0  0  0  0
  6  7  2  0  0  0  0
  6 12  1  0  0  0  0
  8  7  1  0  0  0  0
  9  8  2  0  0  0  0
  9 13  1  0  0  0  0
 10  1  1  0  0  0  0
 11  5  1  0  0  0  0
 14 19  1  0  0  0  0
 15 14  2  0  0  0  0
 15 16  1  0  0  0  0
 16 17  2  0  0  0  0
 17 18  1  0  0  0  0
 18  2  1  0  0  0  0
 19 18  2  0  0  0  0
 20 14  1  0  0  0  0
 21 15  1  0  0  0  0
 22 16  1  0  0  0  0
 23  3  1  0  0  0  0
 24 23  1  0  0  0  0
 25 26  1  0  0  0  0
 25 24  2  0  0  0  0
 27 25  1  0  0  0  0
 28 27  2  0  0  0  0
 28 30  1  0  0  0  0
 29 28  1  0  0  0  0
 30 32  2  0  0  0  0
 31 30  1  0  0  0  0
 32 24  1  0  0  0  0
M  END
>  <minimizedAffinity>
-4.94100714

>  <minimizedRMSD>
2.0064528

$$$$
