
 OpenBabel03252507463D

 37 39  0  0  0  0  0  0  0  0999 V2000
   47.1140   34.3260   40.8980 C   0  0  0  0  0  0  0  0  0  0  0  0
   47.3060   35.1130   40.1130 H   0  0  0  0  0  0  0  0  0  0  0  0
   46.5240   33.5120   40.4830 H   0  0  0  0  0  0  0  0  0  0  0  0
   48.4480   33.8990   41.3610 C   0  0  0  0  0  0  0  0  0  0  0  0
   48.8300   32.6140   41.0200 C   0  0  0  0  0  0  0  0  0  0  0  0
   50.0770   32.1250   41.4150 C   0  0  0  0  0  0  0  0  0  0  0  0
   50.8790   32.9670   42.1390 N   0  0  0  0  0  0  0  0  0  0  0  0
   50.4620   34.2280   42.4530 C   0  0  0  0  0  0  0  0  0  0  0  0
   49.2710   34.6610   42.0620 N   0  0  0  0  0  0  0  0  0  0  0  0
   50.4200   31.1240   41.1710 H   0  0  0  0  0  0  0  0  0  0  0  0
   51.1000   34.8880   43.0270 H   0  0  0  0  0  0  0  0  0  0  0  0
   47.7470   31.5480   40.0700 S   0  0  0  0  0  0  0  0  0  0  0  0
   47.9180   31.9900   38.3550 C   0  0  0  0  0  0  0  0  0  0  0  0
   49.1480   32.1130   37.7820 C   0  0  0  0  0  0  0  0  0  0  0  0
   50.0550   31.9400   38.3750 H   0  0  0  0  0  0  0  0  0  0  0  0
   49.3230   32.4500   36.4720 C   0  0  0  0  0  3  0  0  0  0  0  0
   48.2330   32.6870   35.6460 C   0  0  0  0  0  0  0  0  0  0  0  0
   48.3420   32.9540   34.6050 H   0  0  0  0  0  0  0  0  0  0  0  0
   46.9730   32.5680   36.2010 C   0  0  0  0  0  0  0  0  0  0  0  0
   46.1200   32.7500   35.5670 H   0  0  0  0  0  0  0  0  0  0  0  0
   46.8440   32.2260   37.5280 C   0  0  0  0  0  3  0  0  0  0  0  0
   46.3050   35.0020   41.9590 C   0  0  0  0  0  0  0  0  0  0  0  0
   46.4720   34.4360   42.9220 H   0  0  0  0  0  0  0  0  0  0  0  0
   46.6350   36.0370   42.1900 H   0  0  0  0  0  0  0  0  0  0  0  0
   44.8340   34.9470   41.7240 C   0  0  0  0  0  0  0  0  0  0  0  0
   43.9450   35.4410   42.7220 C   0  0  0  0  0  0  0  0  0  0  0  0
   42.2910   35.1600   41.9810 S   0  0  0  0  0  0  0  0  0  0  0  0
   43.0940   34.4100   40.4220 C   0  0  0  0  0  0  0  0  0  0  0  0
   44.2030   34.4890   40.6810 N   0  0  0  0  0  0  0  0  0  0  0  0
   44.2150   35.8760   43.6840 H   0  0  0  0  0  0  0  0  0  0  0  0
   42.3500   33.9370   39.3380 O   0  0  0  0  0  0  0  0  0  0  0  0
   40.4150   34.3990   37.5890 O   0  0  0  0  0  0  0  0  0  0  0  0
   41.4910   35.0880   38.4260 P   0  0  0  0  0  0  0  0  0  0  0  0
   40.7650   36.1700   39.4980 O   0  0  0  0  0  0  0  0  0  0  0  0
   39.9460   35.7540   39.9060 H   0  0  0  0  0  0  0  0  0  0  0  0
   42.5670   35.9320   37.4280 O   0  0  0  0  0  0  0  0  0  0  0  0
   42.9910   36.6350   38.0070 H   0  0  0  0  0  0  0  0  0  0  0  0
  1  4  1  0  0  0  0
  1 22  1  0  0  0  0
  2  1  1  0  0  0  0
  3  1  1  0  0  0  0
  4  9  1  0  0  0  0
  5  4  2  0  0  0  0
  5  6  1  0  0  0  0
  6  7  2  0  0  0  0
  7  8  1  0  0  0  0
  8 11  1  0  0  0  0
  9  8  2  0  0  0  0
 10  6  1  0  0  0  0
 12  5  1  0  0  0  0
 13 12  1  0  0  0  0
 14 13  1  0  0  0  0
 14 15  1  0  0  0  0
 16 14  2  0  0  0  0
 17 19  2  0  0  0  0
 17 16  1  0  0  0  0
 18 17  1  0  0  0  0
 19 21  1  0  0  0  0
 20 19  1  0  0  0  0
 21 13  2  0  0  0  0
 22 24  1  0  0  0  0
 22 23  1  0  0  0  0
 25 22  1  0  0  0  0
 25 26  2  0  0  0  0
 26 30  1  0  0  0  0
 27 26  1  0  0  0  0
 28 29  2  0  0  0  0
 28 27  1  0  0  0  0
 29 25  1  0  0  0  0
 31 28  1  0  0  0  0
 32 33  2  0  0  0  0
 33 31  1  0  0  0  0
 33 34  1  0  0  0  0
 34 35  1  0  0  0  0
 36 37  1  0  0  0  0
 36 33  1  0  0  0  0
M  END
>  <minimizedAffinity>
-4.83093882

>  <minimizedRMSD>
0.420347422

$$$$
