
 OpenBabel03252507473D

 37 39  0  0  0  0  0  0  0  0999 V2000
   38.8100   29.6590   42.7880 C   0  0  0  0  0  0  0  0  0  0  0  0
   38.2060   29.5840   41.8380 H   0  0  0  0  0  0  0  0  0  0  0  0
   38.1640   29.9030   43.6290 H   0  0  0  0  0  0  0  0  0  0  0  0
   39.4800   28.3540   42.9320 C   0  0  0  0  0  0  0  0  0  0  0  0
   38.6540   27.2450   42.9970 C   0  0  0  0  0  0  0  0  0  0  0  0
   39.2020   25.9690   43.1330 C   0  0  0  0  0  0  0  0  0  0  0  0
   40.5680   25.8770   43.1970 N   0  0  0  0  0  0  0  0  0  0  0  0
   41.3450   26.9970   43.1290 C   0  0  0  0  0  0  0  0  0  0  0  0
   40.7920   28.1950   43.0000 N   0  0  0  0  0  0  0  0  0  0  0  0
   38.5940   25.0710   43.1870 H   0  0  0  0  0  0  0  0  0  0  0  0
   42.4230   26.9180   43.1810 H   0  0  0  0  0  0  0  0  0  0  0  0
   36.8720   27.4150   42.9080 S   0  0  0  0  0  0  0  0  0  0  0  0
   36.4520   27.8700   41.2390 C   0  0  0  0  0  0  0  0  0  0  0  0
   36.9580   27.1830   40.1770 C   0  0  0  0  0  0  0  0  0  0  0  0
   37.6350   26.3350   40.3370 H   0  0  0  0  0  0  0  0  0  0  0  0
   36.6620   27.4990   38.8840 C   0  0  0  0  0  3  0  0  0  0  0  0
   35.8140   28.5570   38.5850 C   0  0  0  0  0  0  0  0  0  0  0  0
   35.5620   28.8290   37.5710 H   0  0  0  0  0  0  0  0  0  0  0  0
   35.2870   29.2710   39.6440 C   0  0  0  0  0  0  0  0  0  0  0  0
   34.6270   30.0950   39.4230 H   0  0  0  0  0  0  0  0  0  0  0  0
   35.6140   28.9160   40.9330 C   0  0  0  0  0  3  0  0  0  0  0  0
   39.7590   30.7950   42.5760 C   0  0  0  0  0  0  0  0  0  0  0  0
   39.6670   31.4820   43.4670 H   0  0  0  0  0  0  0  0  0  0  0  0
   40.8280   30.4960   42.5700 H   0  0  0  0  0  0  0  0  0  0  0  0
   39.4310   31.6430   41.3940 C   0  0  0  0  0  0  0  0  0  0  0  0
   38.0790   31.7450   40.9570 C   0  0  0  0  0  0  0  0  0  0  0  0
   38.1930   32.8690   39.5130 S   0  0  0  0  0  0  0  0  0  0  0  0
   40.0800   33.0140   39.7470 C   0  0  0  0  0  0  0  0  0  0  0  0
   40.2440   32.3460   40.6580 N   0  0  0  0  0  0  0  0  0  0  0  0
   37.2080   31.2590   41.3970 H   0  0  0  0  0  0  0  0  0  0  0  0
   40.8910   33.7900   38.9150 O   0  0  0  0  0  0  0  0  0  0  0  0
   42.4820   31.8840   37.9930 O   0  0  0  0  0  0  0  0  0  0  0  0
   41.5640   33.0230   37.5550 P   0  0  0  0  0  0  0  0  0  0  0  0
   40.3010   32.4020   36.6240 O   0  0  0  0  0  0  0  0  0  0  0  0
   39.9530   31.5550   37.0380 H   0  0  0  0  0  0  0  0  0  0  0  0
   42.4250   34.1560   36.6380 O   0  0  0  0  0  0  0  0  0  0  0  0
   41.7420   34.6440   36.0860 H   0  0  0  0  0  0  0  0  0  0  0  0
  1  4  1  0  0  0  0
  1  3  1  0  0  0  0
  2  1  1  0  0  0  0
  4  5  2  0  0  0  0
  4  9  1  0  0  0  0
  5  6  1  0  0  0  0
  6 10  1  0  0  0  0
  6  7  2  0  0  0  0
  8 11  1  0  0  0  0
  8  7  1  0  0  0  0
  9  8  2  0  0  0  0
 12  5  1  0  0  0  0
 13 12  1  0  0  0  0
 14 15  1  0  0  0  0
 14 13  2  0  0  0  0
 16 14  1  0  0  0  0
 17 16  2  0  0  0  0
 17 19  1  0  0  0  0
 18 17  1  0  0  0  0
 19 21  2  0  0  0  0
 20 19  1  0  0  0  0
 21 13  1  0  0  0  0
 22  1  1  0  0  0  0
 22 23  1  0  0  0  0
 24 22  1  0  0  0  0
 25 22  1  0  0  0  0
 26 25  2  0  0  0  0
 26 30  1  0  0  0  0
 27 28  1  0  0  0  0
 27 26  1  0  0  0  0
 28 29  2  0  0  0  0
 29 25  1  0  0  0  0
 31 28  1  0  0  0  0
 33 32  2  0  0  0  0
 33 31  1  0  0  0  0
 34 35  1  0  0  0  0
 34 33  1  0  0  0  0
 36 33  1  0  0  0  0
 37 36  1  0  0  0  0
M  END
>  <minimizedAffinity>
-6.07215214

$$$$

 OpenBabel03252507473D

 37 39  0  0  0  0  0  0  0  0999 V2000
   36.8630   31.5570   39.4880 C   0  0  0  0  0  0  0  0  0  0  0  0
   35.8000   31.8900   39.6710 H   0  0  0  0  0  0  0  0  0  0  0  0
   37.3280   31.2470   40.4210 H   0  0  0  0  0  0  0  0  0  0  0  0
   36.7690   30.4690   38.4980 C   0  0  0  0  0  0  0  0  0  0  0  0
   36.0820   29.3360   38.8970 C   0  0  0  0  0  0  0  0  0  0  0  0
   35.9430   28.2560   38.0240 C   0  0  0  0  0  0  0  0  0  0  0  0
   36.5100   28.3770   36.7830 N   0  0  0  0  0  0  0  0  0  0  0  0
   37.1780   29.5130   36.4300 C   0  0  0  0  0  0  0  0  0  0  0  0
   37.2920   30.5210   37.2830 N   0  0  0  0  0  0  0  0  0  0  0  0
   35.4130   27.3470   38.2930 H   0  0  0  0  0  0  0  0  0  0  0  0
   37.6250   29.6030   35.4480 H   0  0  0  0  0  0  0  0  0  0  0  0
   35.3570   29.2230   40.5320 S   0  0  0  0  0  0  0  0  0  0  0  0
   36.5870   28.5500   41.6270 C   0  0  0  0  0  0  0  0  0  0  0  0
   36.8060   27.2070   41.6950 C   0  0  0  0  0  0  0  0  0  0  0  0
   36.2240   26.5190   41.0710 H   0  0  0  0  0  0  0  0  0  0  0  0
   37.7390   26.6510   42.5200 C   0  0  0  0  0  3  0  0  0  0  0  0
   38.5240   27.4450   43.3450 C   0  0  0  0  0  0  0  0  0  0  0  0
   39.2700   27.0320   44.0080 H   0  0  0  0  0  0  0  0  0  0  0  0
   38.3220   28.8110   43.2980 C   0  0  0  0  0  0  0  0  0  0  0  0
   38.9270   29.4360   43.9350 H   0  0  0  0  0  0  0  0  0  0  0  0
   37.3690   29.3280   42.4490 C   0  0  0  0  0  3  0  0  0  0  0  0
   37.5840   32.7640   38.9790 C   0  0  0  0  0  0  0  0  0  0  0  0
   37.6150   32.6880   37.8530 H   0  0  0  0  0  0  0  0  0  0  0  0
   37.0560   33.7220   39.1730 H   0  0  0  0  0  0  0  0  0  0  0  0
   39.0100   32.8410   39.4050 C   0  0  0  0  0  0  0  0  0  0  0  0
   39.3440   33.5070   40.6190 C   0  0  0  0  0  0  0  0  0  0  0  0
   41.1680   33.3340   40.7000 S   0  0  0  0  0  0  0  0  0  0  0  0
   41.1700   32.3740   39.0520 C   0  0  0  0  0  0  0  0  0  0  0  0
   40.0580   32.3610   38.7990 N   0  0  0  0  0  0  0  0  0  0  0  0
   38.6580   33.9930   41.3120 H   0  0  0  0  0  0  0  0  0  0  0  0
   42.3380   31.8870   38.4580 O   0  0  0  0  0  0  0  0  0  0  0  0
   44.2080   33.7640   38.4780 O   0  0  0  0  0  0  0  0  0  0  0  0
   43.2670   32.9900   37.5560 P   0  0  0  0  0  0  0  0  0  0  0  0
   44.1720   32.1170   36.4320 O   0  0  0  0  0  0  0  0  0  0  0  0
   44.9610   31.6880   36.8830 H   0  0  0  0  0  0  0  0  0  0  0  0
   42.2370   34.0540   36.7350 O   0  0  0  0  0  0  0  0  0  0  0  0
   41.9300   33.5640   35.9130 H   0  0  0  0  0  0  0  0  0  0  0  0
  1  2  1  0  0  0  0
  1  3  1  0  0  0  0
  4  5  1  0  0  0  0
  4  1  1  0  0  0  0
  5 12  1  0  0  0  0
  6 10  1  0  0  0  0
  6  5  2  0  0  0  0
  7  6  1  0  0  0  0
  8  7  2  0  0  0  0
  8  9  1  0  0  0  0
  9  4  2  0  0  0  0
 11  8  1  0  0  0  0
 12 13  1  0  0  0  0
 13 14  2  0  0  0  0
 13 21  1  0  0  0  0
 14 16  1  0  0  0  0
 15 14  1  0  0  0  0
 16 17  2  0  0  0  0
 17 18  1  0  0  0  0
 19 17  1  0  0  0  0
 19 20  1  0  0  0  0
 21 19  2  0  0  0  0
 22 24  1  0  0  0  0
 22 25  1  0  0  0  0
 22  1  1  0  0  0  0
 23 22  1  0  0  0  0
 25 26  2  0  0  0  0
 26 27  1  0  0  0  0
 26 30  1  0  0  0  0
 28 27  1  0  0  0  0
 29 28  2  0  0  0  0
 29 25  1  0  0  0  0
 31 28  1  0  0  0  0
 33 31  1  0  0  0  0
 33 32  2  0  0  0  0
 34 35  1  0  0  0  0
 34 33  1  0  0  0  0
 36 33  1  0  0  0  0
 37 36  1  0  0  0  0
M  END
>  <minimizedAffinity>
-5.79693031

$$$$

 OpenBabel03252507473D

 37 39  0  0  0  0  0  0  0  0999 V2000
   36.1770   28.9930   40.6360 C   0  0  0  0  0  0  0  0  0  0  0  0
   35.0510   29.0500   40.6980 H   0  0  0  0  0  0  0  0  0  0  0  0
   36.6290   29.5060   41.4830 H   0  0  0  0  0  0  0  0  0  0  0  0
   36.4960   27.5540   40.5920 C   0  0  0  0  0  0  0  0  0  0  0  0
   37.0550   27.0160   41.7380 C   0  0  0  0  0  0  0  0  0  0  0  0
   37.3890   25.6620   41.7870 C   0  0  0  0  0  0  0  0  0  0  0  0
   37.1380   24.9150   40.6660 N   0  0  0  0  0  0  0  0  0  0  0  0
   36.5840   25.4860   39.5570 C   0  0  0  0  0  0  0  0  0  0  0  0
   36.2790   26.7760   39.5440 N   0  0  0  0  0  0  0  0  0  0  0  0
   37.8290   25.1960   42.6630 H   0  0  0  0  0  0  0  0  0  0  0  0
   36.3890   24.8900   38.6750 H   0  0  0  0  0  0  0  0  0  0  0  0
   37.3640   28.0340   43.1810 S   0  0  0  0  0  0  0  0  0  0  0  0
   38.9730   28.7710   42.9910 C   0  0  0  0  0  0  0  0  0  0  0  0
   40.1040   28.0190   43.0860 C   0  0  0  0  0  0  0  0  0  0  0  0
   40.0380   26.9410   43.2820 H   0  0  0  0  0  0  0  0  0  0  0  0
   41.3550   28.5430   42.9470 C   0  0  0  0  0  3  0  0  0  0  0  0
   41.5360   29.8970   42.6980 C   0  0  0  0  0  0  0  0  0  0  0  0
   42.5140   30.3400   42.5830 H   0  0  0  0  0  0  0  0  0  0  0  0
   40.4050   30.6840   42.5970 C   0  0  0  0  0  0  0  0  0  0  0  0
   40.5340   31.7380   42.4030 H   0  0  0  0  0  0  0  0  0  0  0  0
   39.1620   30.1110   42.7440 C   0  0  0  0  0  3  0  0  0  0  0  0
   36.5520   29.7240   39.3870 C   0  0  0  0  0  0  0  0  0  0  0  0
   37.1490   29.0110   38.7450 H   0  0  0  0  0  0  0  0  0  0  0  0
   35.6870   30.0050   38.7500 H   0  0  0  0  0  0  0  0  0  0  0  0
   37.4510   30.8900   39.6160 C   0  0  0  0  0  0  0  0  0  0  0  0
   36.9570   32.0310   40.3120 C   0  0  0  0  0  0  0  0  0  0  0  0
   38.4020   33.1610   40.3370 S   0  0  0  0  0  0  0  0  0  0  0  0
   39.4470   31.8790   39.3870 C   0  0  0  0  0  0  0  0  0  0  0  0
   38.6950   31.0310   39.2540 N   0  0  0  0  0  0  0  0  0  0  0  0
   35.9560   32.1690   40.7200 H   0  0  0  0  0  0  0  0  0  0  0  0
   40.7800   32.1000   39.0310 O   0  0  0  0  0  0  0  0  0  0  0  0
   41.9630   31.0810   36.8920 O   0  0  0  0  0  0  0  0  0  0  0  0
   41.1230   32.2620   37.3730 P   0  0  0  0  0  0  0  0  0  0  0  0
   39.6600   32.2910   36.5350 O   0  0  0  0  0  0  0  0  0  0  0  0
   39.2890   31.3600   36.4560 H   0  0  0  0  0  0  0  0  0  0  0  0
   41.9450   33.7190   37.1080 O   0  0  0  0  0  0  0  0  0  0  0  0
   41.2400   34.4340   37.0830 H   0  0  0  0  0  0  0  0  0  0  0  0
  1  2  1  0  0  0  0
  1  3  1  0  0  0  0
  4  1  1  0  0  0  0
  4  5  1  0  0  0  0
  5  6  2  0  0  0  0
  5 12  1  0  0  0  0
  6 10  1  0  0  0  0
  7  6  1  0  0  0  0
  8  7  2  0  0  0  0
  9  8  1  0  0  0  0
  9  4  2  0  0  0  0
 11  8  1  0  0  0  0
 13 14  1  0  0  0  0
 13 12  1  0  0  0  0
 14 15  1  0  0  0  0
 16 14  2  0  0  0  0
 17 16  1  0  0  0  0
 18 17  1  0  0  0  0
 19 17  2  0  0  0  0
 19 21  1  0  0  0  0
 20 19  1  0  0  0  0
 21 13  2  0  0  0  0
 22 25  1  0  0  0  0
 22  1  1  0  0  0  0
 23 22  1  0  0  0  0
 24 22  1  0  0  0  0
 25 26  2  0  0  0  0
 26 27  1  0  0  0  0
 26 30  1  0  0  0  0
 28 27  1  0  0  0  0
 29 28  2  0  0  0  0
 29 25  1  0  0  0  0
 31 28  1  0  0  0  0
 32 33  2  0  0  0  0
 33 31  1  0  0  0  0
 34 33  1  0  0  0  0
 35 34  1  0  0  0  0
 36 33  1  0  0  0  0
 37 36  1  0  0  0  0
M  END
>  <minimizedAffinity>
-5.7232914

$$$$

 OpenBabel03252507473D

 37 39  0  0  0  0  0  0  0  0999 V2000
   37.0170   26.7910   42.9440 C   0  0  0  0  0  0  0  0  0  0  0  0
   36.0490   26.4560   43.4170 H   0  0  0  0  0  0  0  0  0  0  0  0
   37.7950   26.0480   43.1070 H   0  0  0  0  0  0  0  0  0  0  0  0
   36.7060   27.0020   41.5190 C   0  0  0  0  0  0  0  0  0  0  0  0
   37.1070   26.0020   40.6510 C   0  0  0  0  0  0  0  0  0  0  0  0
   36.8540   26.1160   39.2830 C   0  0  0  0  0  0  0  0  0  0  0  0
   36.2020   27.2450   38.8590 N   0  0  0  0  0  0  0  0  0  0  0  0
   35.8240   28.2070   39.7500 C   0  0  0  0  0  0  0  0  0  0  0  0
   36.0810   28.0670   41.0440 N   0  0  0  0  0  0  0  0  0  0  0  0
   37.1490   25.3570   38.5650 H   0  0  0  0  0  0  0  0  0  0  0  0
   35.3110   29.0970   39.4090 H   0  0  0  0  0  0  0  0  0  0  0  0
   37.9550   24.5420   41.2520 S   0  0  0  0  0  0  0  0  0  0  0  0
   39.6570   24.9790   41.5320 C   0  0  0  0  0  0  0  0  0  0  0  0
   40.4190   25.5060   40.5330 C   0  0  0  0  0  0  0  0  0  0  0  0
   39.9910   25.6690   39.5370 H   0  0  0  0  0  0  0  0  0  0  0  0
   41.7270   25.8550   40.7060 C   0  0  0  0  0  3  0  0  0  0  0  0
   42.3530   25.6850   41.9330 C   0  0  0  0  0  0  0  0  0  0  0  0
   43.3860   25.9520   42.0980 H   0  0  0  0  0  0  0  0  0  0  0  0
   41.6030   25.1520   42.9640 C   0  0  0  0  0  0  0  0  0  0  0  0
   42.0810   25.0150   43.9220 H   0  0  0  0  0  0  0  0  0  0  0  0
   40.2870   24.8140   42.7430 C   0  0  0  0  0  3  0  0  0  0  0  0
   37.4050   28.0450   43.6600 C   0  0  0  0  0  0  0  0  0  0  0  0
   36.4790   28.6870   43.7420 H   0  0  0  0  0  0  0  0  0  0  0  0
   37.7210   27.8860   44.7130 H   0  0  0  0  0  0  0  0  0  0  0  0
   38.3950   28.8800   42.9230 C   0  0  0  0  0  0  0  0  0  0  0  0
   39.7650   28.4870   42.8990 C   0  0  0  0  0  0  0  0  0  0  0  0
   40.5570   29.8000   41.8920 S   0  0  0  0  0  0  0  0  0  0  0  0
   38.8750   30.6730   41.6710 C   0  0  0  0  0  0  0  0  0  0  0  0
   38.1840   29.9800   42.2570 N   0  0  0  0  0  0  0  0  0  0  0  0
   40.2050   27.6100   43.3730 H   0  0  0  0  0  0  0  0  0  0  0  0
   38.7240   31.8550   40.9400 O   0  0  0  0  0  0  0  0  0  0  0  0
   37.3160   31.3570   38.7530 O   0  0  0  0  0  0  0  0  0  0  0  0
   37.2580   32.0660   40.1040 P   0  0  0  0  0  0  0  0  0  0  0  0
   36.0210   31.3990   41.0380 O   0  0  0  0  0  0  0  0  0  0  0  0
   36.0260   30.3980   40.9510 H   0  0  0  0  0  0  0  0  0  0  0  0
   36.9640   33.7200   39.8930 O   0  0  0  0  0  0  0  0  0  0  0  0
   36.5740   34.0460   40.7590 H   0  0  0  0  0  0  0  0  0  0  0  0
  1  3  1  0  0  0  0
  1  2  1  0  0  0  0
  1 22  1  0  0  0  0
  4  1  1  0  0  0  0
  5 12  1  0  0  0  0
  5  4  2  0  0  0  0
  6  5  1  0  0  0  0
  7  6  2  0  0  0  0
  7  8  1  0  0  0  0
  8  9  2  0  0  0  0
  9  4  1  0  0  0  0
 10  6  1  0  0  0  0
 11  8  1  0  0  0  0
 12 13  1  0  0  0  0
 13 21  1  0  0  0  0
 14 16  1  0  0  0  0
 14 13  2  0  0  0  0
 15 14  1  0  0  0  0
 16 17  2  0  0  0  0
 17 18  1  0  0  0  0
 17 19  1  0  0  0  0
 19 20  1  0  0  0  0
 21 19  2  0  0  0  0
 22 23  1  0  0  0  0
 22 24  1  0  0  0  0
 25 22  1  0  0  0  0
 26 25  2  0  0  0  0
 26 30  1  0  0  0  0
 27 26  1  0  0  0  0
 28 27  1  0  0  0  0
 28 29  2  0  0  0  0
 29 25  1  0  0  0  0
 31 28  1  0  0  0  0
 32 33  2  0  0  0  0
 33 31  1  0  0  0  0
 33 34  1  0  0  0  0
 35 34  1  0  0  0  0
 36 33  1  0  0  0  0
 36 37  1  0  0  0  0
M  END
>  <minimizedAffinity>
-5.63710022

$$$$

 OpenBabel03252507473D

 37 39  0  0  0  0  0  0  0  0999 V2000
   36.7830   27.2040   42.1550 C   0  0  0  0  0  0  0  0  0  0  0  0
   36.7770   27.9840   41.3400 H   0  0  0  0  0  0  0  0  0  0  0  0
   35.7990   27.1290   42.6150 H   0  0  0  0  0  0  0  0  0  0  0  0
   37.2130   25.9550   41.5010 C   0  0  0  0  0  0  0  0  0  0  0  0
   37.6460   26.0680   40.1920 C   0  0  0  0  0  0  0  0  0  0  0  0
   38.0730   24.9380   39.4930 C   0  0  0  0  0  0  0  0  0  0  0  0
   38.0410   23.7410   40.1590 N   0  0  0  0  0  0  0  0  0  0  0  0
   37.6060   23.6740   41.4510 C   0  0  0  0  0  0  0  0  0  0  0  0
   37.2070   24.7680   42.0860 N   0  0  0  0  0  0  0  0  0  0  0  0
   38.4210   24.9780   38.4660 H   0  0  0  0  0  0  0  0  0  0  0  0
   37.5820   22.7250   41.9720 H   0  0  0  0  0  0  0  0  0  0  0  0
   37.6720   27.6560   39.3610 S   0  0  0  0  0  0  0  0  0  0  0  0
   36.1000   27.8740   38.5570 C   0  0  0  0  0  0  0  0  0  0  0  0
   35.8040   27.2100   37.4040 C   0  0  0  0  0  0  0  0  0  0  0  0
   36.5360   26.5270   36.9550 H   0  0  0  0  0  0  0  0  0  0  0  0
   34.6120   27.3480   36.7570 C   0  0  0  0  0  3  0  0  0  0  0  0
   33.6260   28.1900   37.2520 C   0  0  0  0  0  0  0  0  0  0  0  0
   32.6730   28.3190   36.7610 H   0  0  0  0  0  0  0  0  0  0  0  0
   33.8990   28.8770   38.4190 C   0  0  0  0  0  0  0  0  0  0  0  0
   33.1400   29.5340   38.8130 H   0  0  0  0  0  0  0  0  0  0  0  0
   35.1160   28.7060   39.0390 C   0  0  0  0  0  3  0  0  0  0  0  0
   37.7480   27.6990   43.1840 C   0  0  0  0  0  0  0  0  0  0  0  0
   37.1440   28.1680   44.0160 H   0  0  0  0  0  0  0  0  0  0  0  0
   38.3260   26.8950   43.6870 H   0  0  0  0  0  0  0  0  0  0  0  0
   38.6470   28.7830   42.6970 C   0  0  0  0  0  0  0  0  0  0  0  0
   40.0580   28.6380   42.8300 C   0  0  0  0  0  0  0  0  0  0  0  0
   40.7080   30.1910   42.1020 S   0  0  0  0  0  0  0  0  0  0  0  0
   38.9330   30.7840   41.7350 C   0  0  0  0  0  0  0  0  0  0  0  0
   38.3170   29.9100   42.1330 N   0  0  0  0  0  0  0  0  0  0  0  0
   40.5930   27.7930   43.2650 H   0  0  0  0  0  0  0  0  0  0  0  0
   38.6530   32.0100   41.1250 O   0  0  0  0  0  0  0  0  0  0  0  0
   37.4460   31.3160   38.8720 O   0  0  0  0  0  0  0  0  0  0  0  0
   37.2500   32.0980   40.1690 P   0  0  0  0  0  0  0  0  0  0  0  0
   35.9750   31.4250   41.0450 O   0  0  0  0  0  0  0  0  0  0  0  0
   36.0330   30.4220   41.0220 H   0  0  0  0  0  0  0  0  0  0  0  0
   36.8970   33.7200   39.8330 O   0  0  0  0  0  0  0  0  0  0  0  0
   36.4260   34.0760   40.6460 H   0  0  0  0  0  0  0  0  0  0  0  0
  1  3  1  0  0  0  0
  1 22  1  0  0  0  0
  2  1  1  0  0  0  0
  4  9  1  0  0  0  0
  4  1  1  0  0  0  0
  5  4  2  0  0  0  0
  6  7  2  0  0  0  0
  6  5  1  0  0  0  0
  7  8  1  0  0  0  0
  8 11  1  0  0  0  0
  8  9  2  0  0  0  0
 10  6  1  0  0  0  0
 12  5  1  0  0  0  0
 13 21  1  0  0  0  0
 13 12  1  0  0  0  0
 14 13  2  0  0  0  0
 15 14  1  0  0  0  0
 16 17  2  0  0  0  0
 16 14  1  0  0  0  0
 17 19  1  0  0  0  0
 18 17  1  0  0  0  0
 19 20  1  0  0  0  0
 19 21  2  0  0  0  0
 22 24  1  0  0  0  0
 22 23  1  0  0  0  0
 25 26  2  0  0  0  0
 25 22  1  0  0  0  0
 26 30  1  0  0  0  0
 27 26  1  0  0  0  0
 28 27  1  0  0  0  0
 28 29  2  0  0  0  0
 29 25  1  0  0  0  0
 31 28  1  0  0  0  0
 32 33  2  0  0  0  0
 33 34  1  0  0  0  0
 33 31  1  0  0  0  0
 35 34  1  0  0  0  0
 36 33  1  0  0  0  0
 36 37  1  0  0  0  0
M  END
>  <minimizedAffinity>
-5.57679558

$$$$

 OpenBabel03252507473D

 37 39  0  0  0  0  0  0  0  0999 V2000
   38.9410   26.0170   38.6190 C   0  0  0  0  0  0  0  0  0  0  0  0
   38.7770   26.7100   39.4950 H   0  0  0  0  0  0  0  0  0  0  0  0
   39.9950   25.9920   38.3480 H   0  0  0  0  0  0  0  0  0  0  0  0
   38.4230   24.7060   39.0520 C   0  0  0  0  0  0  0  0  0  0  0  0
   38.7930   24.2900   40.3180 C   0  0  0  0  0  0  0  0  0  0  0  0
   38.3490   23.0620   40.8110 C   0  0  0  0  0  0  0  0  0  0  0  0
   37.5460   22.3120   39.9920 N   0  0  0  0  0  0  0  0  0  0  0  0
   37.2050   22.7620   38.7500 C   0  0  0  0  0  0  0  0  0  0  0  0
   37.6440   23.9330   38.3120 N   0  0  0  0  0  0  0  0  0  0  0  0
   38.6130   22.6940   41.7980 H   0  0  0  0  0  0  0  0  0  0  0  0
   36.5710   22.1640   38.1070 H   0  0  0  0  0  0  0  0  0  0  0  0
   39.8450   25.3060   41.3540 S   0  0  0  0  0  0  0  0  0  0  0  0
   38.8060   26.4730   42.2050 C   0  0  0  0  0  0  0  0  0  0  0  0
   39.3020   27.6620   42.6460 C   0  0  0  0  0  0  0  0  0  0  0  0
   40.3560   27.9180   42.4820 H   0  0  0  0  0  0  0  0  0  0  0  0
   38.5390   28.5840   43.3020 C   0  0  0  0  0  3  0  0  0  0  0  0
   37.1950   28.3470   43.5540 C   0  0  0  0  0  0  0  0  0  0  0  0
   36.5680   29.0580   44.0700 H   0  0  0  0  0  0  0  0  0  0  0  0
   36.6660   27.1480   43.1180 C   0  0  0  0  0  0  0  0  0  0  0  0
   35.6220   26.9530   43.3090 H   0  0  0  0  0  0  0  0  0  0  0  0
   37.4730   26.2470   42.4600 C   0  0  0  0  0  3  0  0  0  0  0  0
   38.1750   26.6140   37.4820 C   0  0  0  0  0  0  0  0  0  0  0  0
   38.9060   27.2020   36.8540 H   0  0  0  0  0  0  0  0  0  0  0  0
   37.7510   25.8660   36.7790 H   0  0  0  0  0  0  0  0  0  0  0  0
   37.1400   27.6010   37.9030 C   0  0  0  0  0  0  0  0  0  0  0  0
   35.7960   27.1700   38.0920 C   0  0  0  0  0  0  0  0  0  0  0  0
   34.9320   28.7090   38.5930 S   0  0  0  0  0  0  0  0  0  0  0  0
   36.5620   29.6910   38.4600 C   0  0  0  0  0  0  0  0  0  0  0  0
   37.2910   28.8740   38.1380 N   0  0  0  0  0  0  0  0  0  0  0  0
   35.4050   26.1610   37.9630 H   0  0  0  0  0  0  0  0  0  0  0  0
   36.6480   31.0600   38.7290 O   0  0  0  0  0  0  0  0  0  0  0  0
   38.2880   30.9290   40.8040 O   0  0  0  0  0  0  0  0  0  0  0  0
   36.9570   31.5150   40.3380 P   0  0  0  0  0  0  0  0  0  0  0  0
   37.0300   33.2000   40.4010 O   0  0  0  0  0  0  0  0  0  0  0  0
   37.9150   33.5190   40.0490 H   0  0  0  0  0  0  0  0  0  0  0  0
   35.6940   30.9770   41.3280 O   0  0  0  0  0  0  0  0  0  0  0  0
   34.9550   31.6500   41.2270 H   0  0  0  0  0  0  0  0  0  0  0  0
  1  4  1  0  0  0  0
  1  2  1  0  0  0  0
  3  1  1  0  0  0  0
  4  5  1  0  0  0  0
  5  6  2  0  0  0  0
  5 12  1  0  0  0  0
  6 10  1  0  0  0  0
  7  6  1  0  0  0  0
  8  7  2  0  0  0  0
  9  8  1  0  0  0  0
  9  4  2  0  0  0  0
 11  8  1  0  0  0  0
 12 13  1  0  0  0  0
 13 21  2  0  0  0  0
 13 14  1  0  0  0  0
 14 16  2  0  0  0  0
 15 14  1  0  0  0  0
 16 17  1  0  0  0  0
 17 18  1  0  0  0  0
 19 20  1  0  0  0  0
 19 17  2  0  0  0  0
 21 19  1  0  0  0  0
 22 25  1  0  0  0  0
 22  1  1  0  0  0  0
 23 22  1  0  0  0  0
 24 22  1  0  0  0  0
 25 26  2  0  0  0  0
 25 29  1  0  0  0  0
 26 27  1  0  0  0  0
 28 27  1  0  0  0  0
 28 31  1  0  0  0  0
 29 28  2  0  0  0  0
 30 26  1  0  0  0  0
 31 33  1  0  0  0  0
 33 34  1  0  0  0  0
 33 32  2  0  0  0  0
 33 36  1  0  0  0  0
 35 34  1  0  0  0  0
 37 36  1  0  0  0  0
M  END
>  <minimizedAffinity>
-5.52724743

$$$$

 OpenBabel03252507473D

 37 39  0  0  0  0  0  0  0  0999 V2000
   34.7470   28.9630   38.5980 C   0  0  0  0  0  0  0  0  0  0  0  0
   34.8310   29.9570   39.1260 H   0  0  0  0  0  0  0  0  0  0  0  0
   33.7270   28.5880   38.6540 H   0  0  0  0  0  0  0  0  0  0  0  0
   35.1980   29.2120   37.2160 C   0  0  0  0  0  0  0  0  0  0  0  0
   34.2720   28.9670   36.2180 C   0  0  0  0  0  0  0  0  0  0  0  0
   34.6110   29.1760   34.8800 C   0  0  0  0  0  0  0  0  0  0  0  0
   35.8780   29.6260   34.6180 N   0  0  0  0  0  0  0  0  0  0  0  0
   36.7600   29.8550   35.6340 C   0  0  0  0  0  0  0  0  0  0  0  0
   36.4060   29.6470   36.8950 N   0  0  0  0  0  0  0  0  0  0  0  0
   33.9180   28.9970   34.0630 H   0  0  0  0  0  0  0  0  0  0  0  0
   37.7600   30.2100   35.4210 H   0  0  0  0  0  0  0  0  0  0  0  0
   32.6250   28.3790   36.6090 S   0  0  0  0  0  0  0  0  0  0  0  0
   31.5640   29.7990   36.7630 C   0  0  0  0  0  0  0  0  0  0  0  0
   30.8600   30.0280   37.9060 C   0  0  0  0  0  0  0  0  0  0  0  0
   30.9390   29.3350   38.7530 H   0  0  0  0  0  0  0  0  0  0  0  0
   30.0360   31.1030   38.0650 C   0  0  0  0  0  3  0  0  0  0  0  0
   29.8740   32.0330   37.0470 C   0  0  0  0  0  0  0  0  0  0  0  0
   29.2290   32.8930   37.1450 H   0  0  0  0  0  0  0  0  0  0  0  0
   30.5760   31.8250   35.8750 C   0  0  0  0  0  0  0  0  0  0  0  0
   30.4560   32.5410   35.0770 H   0  0  0  0  0  0  0  0  0  0  0  0
   31.3950   30.7250   35.7600 C   0  0  0  0  0  3  0  0  0  0  0  0
   35.6360   28.0270   39.3540 C   0  0  0  0  0  0  0  0  0  0  0  0
   34.9700   27.2950   39.8980 H   0  0  0  0  0  0  0  0  0  0  0  0
   36.2740   27.3880   38.7080 H   0  0  0  0  0  0  0  0  0  0  0  0
   36.4420   28.6880   40.4190 C   0  0  0  0  0  0  0  0  0  0  0  0
   36.5750   28.0580   41.6900 C   0  0  0  0  0  0  0  0  0  0  0  0
   37.6290   29.2310   42.6270 S   0  0  0  0  0  0  0  0  0  0  0  0
   37.7120   30.3940   41.1180 C   0  0  0  0  0  0  0  0  0  0  0  0
   37.0800   29.8220   40.3590 N   0  0  0  0  0  0  0  0  0  0  0  0
   36.1440   27.1060   42.0000 H   0  0  0  0  0  0  0  0  0  0  0  0
   38.4190   31.6000   41.1270 O   0  0  0  0  0  0  0  0  0  0  0  0
   39.4110   33.5760   39.6690 O   0  0  0  0  0  0  0  0  0  0  0  0
   38.2230   32.6220   39.7820 P   0  0  0  0  0  0  0  0  0  0  0  0
   38.1410   31.6600   38.3990 O   0  0  0  0  0  0  0  0  0  0  0  0
   39.0610   31.3500   38.1390 H   0  0  0  0  0  0  0  0  0  0  0  0
   36.7800   33.4920   39.9410 O   0  0  0  0  0  0  0  0  0  0  0  0
   36.0480   32.8740   39.6390 H   0  0  0  0  0  0  0  0  0  0  0  0
  1  3  1  0  0  0  0
  1  2  1  0  0  0  0
  1 22  1  0  0  0  0
  4  1  1  0  0  0  0
  5 12  1  0  0  0  0
  5  4  2  0  0  0  0
  6  5  1  0  0  0  0
  7  6  2  0  0  0  0
  7  8  1  0  0  0  0
  8  9  2  0  0  0  0
  9  4  1  0  0  0  0
 10  6  1  0  0  0  0
 11  8  1  0  0  0  0
 12 13  1  0  0  0  0
 13 14  1  0  0  0  0
 14 16  2  0  0  0  0
 14 15  1  0  0  0  0
 17 18  1  0  0  0  0
 17 16  1  0  0  0  0
 19 17  2  0  0  0  0
 20 19  1  0  0  0  0
 21 19  1  0  0  0  0
 21 13  2  0  0  0  0
 22 23  1  0  0  0  0
 22 25  1  0  0  0  0
 24 22  1  0  0  0  0
 25 26  2  0  0  0  0
 26 30  1  0  0  0  0
 26 27  1  0  0  0  0
 28 31  1  0  0  0  0
 28 27  1  0  0  0  0
 29 25  1  0  0  0  0
 29 28  2  0  0  0  0
 32 33  2  0  0  0  0
 33 36  1  0  0  0  0
 33 31  1  0  0  0  0
 34 33  1  0  0  0  0
 35 34  1  0  0  0  0
 37 36  1  0  0  0  0
M  END
>  <minimizedAffinity>
-5.42023087

$$$$

 OpenBabel03252507473D

 37 39  0  0  0  0  0  0  0  0999 V2000
   39.7270   30.5180   41.3010 C   0  0  0  0  0  0  0  0  0  0  0  0
   39.5790   29.6600   40.5840 H   0  0  0  0  0  0  0  0  0  0  0  0
   40.7870   30.7200   41.4370 H   0  0  0  0  0  0  0  0  0  0  0  0
   38.9910   31.6530   40.7130 C   0  0  0  0  0  0  0  0  0  0  0  0
   38.1720   31.3600   39.6380 C   0  0  0  0  0  0  0  0  0  0  0  0
   37.4370   32.3720   39.0180 C   0  0  0  0  0  0  0  0  0  0  0  0
   37.5690   33.6390   39.5230 N   0  0  0  0  0  0  0  0  0  0  0  0
   38.3880   33.8840   40.5860 C   0  0  0  0  0  0  0  0  0  0  0  0
   39.0730   32.8990   41.1510 N   0  0  0  0  0  0  0  0  0  0  0  0
   36.7820   32.1890   38.1720 H   0  0  0  0  0  0  0  0  0  0  0  0
   38.4890   34.8880   40.9790 H   0  0  0  0  0  0  0  0  0  0  0  0
   38.0310   29.6850   39.0130 S   0  0  0  0  0  0  0  0  0  0  0  0
   36.3170   29.3860   38.6420 C   0  0  0  0  0  0  0  0  0  0  0  0
   35.9000   29.1960   37.3600 C   0  0  0  0  0  0  0  0  0  0  0  0
   36.6210   29.2240   36.5330 H   0  0  0  0  0  0  0  0  0  0  0  0
   34.5960   28.9640   37.0320 C   0  0  0  0  0  3  0  0  0  0  0  0
   33.6150   28.9110   38.0130 C   0  0  0  0  0  0  0  0  0  0  0  0
   32.5750   28.7290   37.7830 H   0  0  0  0  0  0  0  0  0  0  0  0
   34.0100   29.1020   39.3230 C   0  0  0  0  0  0  0  0  0  0  0  0
   33.2540   29.0630   40.0920 H   0  0  0  0  0  0  0  0  0  0  0  0
   35.3370   29.3330   39.6060 C   0  0  0  0  0  3  0  0  0  0  0  0
   39.1630   30.0560   42.6070 C   0  0  0  0  0  0  0  0  0  0  0  0
   39.9130   30.3180   43.4100 H   0  0  0  0  0  0  0  0  0  0  0  0
   38.2380   30.5880   42.9140 H   0  0  0  0  0  0  0  0  0  0  0  0
   38.9900   28.5790   42.7020 C   0  0  0  0  0  0  0  0  0  0  0  0
   37.7180   28.0020   42.4190 C   0  0  0  0  0  0  0  0  0  0  0  0
   38.0100   26.2090   42.6660 S   0  0  0  0  0  0  0  0  0  0  0  0
   39.8320   26.5470   43.1190 C   0  0  0  0  0  0  0  0  0  0  0  0
   39.8800   27.6830   43.0230 N   0  0  0  0  0  0  0  0  0  0  0  0
   36.8090   28.5280   42.1270 H   0  0  0  0  0  0  0  0  0  0  0  0
   40.7320   25.5320   43.4540 O   0  0  0  0  0  0  0  0  0  0  0  0
   42.2350   25.2240   41.2950 O   0  0  0  0  0  0  0  0  0  0  0  0
   42.2870   25.6180   42.7700 P   0  0  0  0  0  0  0  0  0  0  0  0
   42.8340   27.2070   42.9090 O   0  0  0  0  0  0  0  0  0  0  0  0
   42.4000   27.7840   42.2100 H   0  0  0  0  0  0  0  0  0  0  0  0
   43.3330   24.5930   43.6190 O   0  0  0  0  0  0  0  0  0  0  0  0
   43.6130   25.1000   44.4400 H   0  0  0  0  0  0  0  0  0  0  0  0
  1  3  1  0  0  0  0
  1 22  1  0  0  0  0
  2  1  1  0  0  0  0
  4  9  1  0  0  0  0
  4  1  1  0  0  0  0
  5  4  2  0  0  0  0
  6  7  2  0  0  0  0
  6  5  1  0  0  0  0
  7  8  1  0  0  0  0
  8 11  1  0  0  0  0
  8  9  2  0  0  0  0
 10  6  1  0  0  0  0
 12  5  1  0  0  0  0
 13 12  1  0  0  0  0
 13 21  1  0  0  0  0
 14 13  2  0  0  0  0
 15 14  1  0  0  0  0
 16 14  1  0  0  0  0
 16 17  2  0  0  0  0
 17 19  1  0  0  0  0
 18 17  1  0  0  0  0
 19 21  2  0  0  0  0
 19 20  1  0  0  0  0
 22 25  1  0  0  0  0
 22 24  1  0  0  0  0
 22 23  1  0  0  0  0
 25 29  1  0  0  0  0
 26 27  1  0  0  0  0
 26 25  2  0  0  0  0
 27 28  1  0  0  0  0
 28 31  1  0  0  0  0
 29 28  2  0  0  0  0
 30 26  1  0  0  0  0
 32 33  2  0  0  0  0
 33 34  1  0  0  0  0
 33 31  1  0  0  0  0
 33 36  1  0  0  0  0
 35 34  1  0  0  0  0
 36 37  1  0  0  0  0
M  END
>  <minimizedAffinity>
-5.36585331

$$$$

 OpenBabel03252507473D

 37 39  0  0  0  0  0  0  0  0999 V2000
   38.1020   28.6650   38.1140 C   0  0  0  0  0  0  0  0  0  0  0  0
   38.6680   28.1260   38.9280 H   0  0  0  0  0  0  0  0  0  0  0  0
   37.1120   28.2310   37.9890 H   0  0  0  0  0  0  0  0  0  0  0  0
   38.0670   30.0790   38.5310 C   0  0  0  0  0  0  0  0  0  0  0  0
   38.7650   30.3950   39.6820 C   0  0  0  0  0  0  0  0  0  0  0  0
   38.7880   31.7100   40.1510 C   0  0  0  0  0  0  0  0  0  0  0  0
   38.0970   32.6450   39.4250 N   0  0  0  0  0  0  0  0  0  0  0  0
   37.4210   32.2890   38.2950 C   0  0  0  0  0  0  0  0  0  0  0  0
   37.4200   31.0310   37.8770 N   0  0  0  0  0  0  0  0  0  0  0  0
   39.3220   32.0050   41.0480 H   0  0  0  0  0  0  0  0  0  0  0  0
   36.8770   33.0320   37.7260 H   0  0  0  0  0  0  0  0  0  0  0  0
   39.6550   29.1380   40.5980 S   0  0  0  0  0  0  0  0  0  0  0  0
   38.5060   28.3620   41.7120 C   0  0  0  0  0  0  0  0  0  0  0  0
   38.0910   27.0800   41.5120 C   0  0  0  0  0  0  0  0  0  0  0  0
   38.4640   26.5050   40.6550 H   0  0  0  0  0  0  0  0  0  0  0  0
   37.2120   26.4480   42.3410 C   0  0  0  0  0  3  0  0  0  0  0  0
   36.6880   27.0980   43.4510 C   0  0  0  0  0  0  0  0  0  0  0  0
   35.9910   26.6220   44.1250 H   0  0  0  0  0  0  0  0  0  0  0  0
   37.0910   28.3990   43.6780 C   0  0  0  0  0  0  0  0  0  0  0  0
   36.6890   28.9130   44.5380 H   0  0  0  0  0  0  0  0  0  0  0  0
   37.9800   28.9960   42.8140 C   0  0  0  0  0  3  0  0  0  0  0  0
   38.8810   28.4340   36.8590 C   0  0  0  0  0  0  0  0  0  0  0  0
   38.8210   27.3310   36.6230 H   0  0  0  0  0  0  0  0  0  0  0  0
   38.4520   28.9290   35.9620 H   0  0  0  0  0  0  0  0  0  0  0  0
   40.3370   28.7270   36.9890 C   0  0  0  0  0  0  0  0  0  0  0  0
   41.2560   27.6520   37.1560 C   0  0  0  0  0  0  0  0  0  0  0  0
   42.8770   28.5030   37.2640 S   0  0  0  0  0  0  0  0  0  0  0  0
   42.0230   30.1970   37.0630 C   0  0  0  0  0  0  0  0  0  0  0  0
   40.9290   29.8870   36.9710 N   0  0  0  0  0  0  0  0  0  0  0  0
   41.0220   26.5880   37.2030 H   0  0  0  0  0  0  0  0  0  0  0  0
   42.7260   31.4050   37.0530 O   0  0  0  0  0  0  0  0  0  0  0  0
   41.9200   33.0700   38.9490 O   0  0  0  0  0  0  0  0  0  0  0  0
   41.8540   32.8120   37.4440 P   0  0  0  0  0  0  0  0  0  0  0  0
   42.5520   34.1080   36.6200 O   0  0  0  0  0  0  0  0  0  0  0  0
   43.3960   34.3970   37.0840 H   0  0  0  0  0  0  0  0  0  0  0  0
   40.2470   32.6360   36.9440 O   0  0  0  0  0  0  0  0  0  0  0  0
   40.2370   32.8440   35.9610 H   0  0  0  0  0  0  0  0  0  0  0  0
  1  4  1  0  0  0  0
  1  2  1  0  0  0  0
  3  1  1  0  0  0  0
  4  5  1  0  0  0  0
  5  6  2  0  0  0  0
  5 12  1  0  0  0  0
  6 10  1  0  0  0  0
  7  6  1  0  0  0  0
  8  7  2  0  0  0  0
  9  8  1  0  0  0  0
  9  4  2  0  0  0  0
 11  8  1  0  0  0  0
 12 13  1  0  0  0  0
 13 21  1  0  0  0  0
 14 13  2  0  0  0  0
 14 16  1  0  0  0  0
 15 14  1  0  0  0  0
 16 17  2  0  0  0  0
 17 19  1  0  0  0  0
 17 18  1  0  0  0  0
 19 20  1  0  0  0  0
 21 19  2  0  0  0  0
 22 25  1  0  0  0  0
 22  1  1  0  0  0  0
 23 22  1  0  0  0  0
 24 22  1  0  0  0  0
 25 26  2  0  0  0  0
 26 30  1  0  0  0  0
 26 27  1  0  0  0  0
 28 27  1  0  0  0  0
 29 25  1  0  0  0  0
 29 28  2  0  0  0  0
 31 28  1  0  0  0  0
 31 33  1  0  0  0  0
 33 32  2  0  0  0  0
 34 35  1  0  0  0  0
 34 33  1  0  0  0  0
 36 33  1  0  0  0  0
 37 36  1  0  0  0  0
M  END
>  <minimizedAffinity>
-5.35501099

$$$$
