
 OpenBabel03242513533D

 39 41  0  0  1  0  0  0  0  0999 V2000
   46.6150   34.4530   43.6770 C   0  0  2  0  0  0  0  0  0  0  0  0
   46.1700   33.2850   44.5040 C   0  0  0  0  0  0  0  0  0  0  0  0
   45.4940   34.0310   45.6350 C   0  0  0  0  0  0  0  0  0  0  0  0
   44.8120   35.1470   44.9930 C   0  0  0  0  0  0  0  0  0  0  0  0
   45.3120   35.1820   43.4650 C   0  0  2  0  0  0  0  0  0  0  0  0
   47.2370   35.1430   44.2940 H   0  0  0  0  0  0  0  0  0  0  0  0
   45.4890   32.6230   43.9690 H   0  0  0  0  0  0  0  0  0  0  0  0
   47.0930   32.7780   44.8600 H   0  0  0  0  0  0  0  0  0  0  0  0
   46.3400   34.4220   46.2680 H   0  0  0  0  0  0  0  0  0  0  0  0
   44.8960   33.3810   46.2840 H   0  0  0  0  0  0  0  0  0  0  0  0
   44.9840   36.1520   45.4190 H   0  0  0  0  0  0  0  0  0  0  0  0
   43.7240   34.9840   44.9630 H   0  0  0  0  0  0  0  0  0  0  0  0
   45.4220   36.2500   43.2080 H   0  0  0  0  0  0  0  0  0  0  0  0
   48.2420   34.5480   40.2980 C   0  0  0  0  0  0  0  0  0  0  0  0
   47.6280   35.0400   41.4700 C   0  0  0  0  0  0  0  0  0  0  0  0
   47.2500   34.1150   42.3840 C   0  0  0  0  0  0  0  0  0  0  0  0
   47.4820   32.7620   42.1240 N   0  0  0  0  0  0  0  0  0  0  0  0
   48.0650   32.3310   41.0050 C   0  0  0  0  0  0  0  0  0  0  0  0
   48.4460   33.2220   40.0910 N   0  0  0  0  0  0  0  0  0  0  0  0
   48.5520   35.2700   39.5520 H   0  0  0  0  0  0  0  0  0  0  0  0
   47.4650   36.0880   41.6390 H   0  0  0  0  0  0  0  0  0  0  0  0
   48.1710   31.2550   40.9570 H   0  0  0  0  0  0  0  0  0  0  0  0
   44.3870   34.4590   42.7370 O   0  0  0  0  0  0  0  0  0  0  0  0
   43.3830   34.9670   41.9560 C   0  0  0  0  0  0  0  0  0  0  0  0
   43.9300   35.3850   40.8590 O   0  0  0  0  0  0  0  0  0  0  0  0
   41.9580   35.2730   41.7530 C   0  0  0  0  0  0  0  0  0  0  0  0
   41.3140   35.5820   40.6120 C   0  0  0  0  0  0  0  0  0  0  0  0
   39.8960   35.8970   40.3070 C   0  0  0  0  0  0  0  0  0  0  0  0
   39.8920   36.7490   39.5990 H   0  0  0  0  0  0  0  0  0  0  0  0
   39.3050   36.1000   41.2200 H   0  0  0  0  0  0  0  0  0  0  0  0
   39.3270   34.7190   39.5960 C   0  0  0  0  0  0  0  0  0  0  0  0
   38.8330   33.6320   40.2900 C   0  0  0  0  0  0  0  0  0  0  0  0
   38.8580   33.6300   41.3840 H   0  0  0  0  0  0  0  0  0  0  0  0
   38.2980   32.5240   39.6730 C   0  0  0  0  0  0  0  0  0  0  0  0
   38.2610   32.5160   38.2830 C   0  0  0  0  0  0  0  0  0  0  0  0
   37.8320   31.6220   37.8340 H   0  0  0  0  0  0  0  0  0  0  0  0
   38.7510   33.5930   37.5720 C   0  0  0  0  0  0  0  0  0  0  0  0
   38.6890   33.5180   36.4920 H   0  0  0  0  0  0  0  0  0  0  0  0
   39.2840   34.7000   38.2130 C   0  0  0  0  0  0  0  0  0  0  0  0
  1  6  1  1  0  0  0
  1  2  1  0  0  0  0
  2  8  1  0  0  0  0
  2  3  1  0  0  0  0
  3  9  1  0  0  0  0
  3 10  1  0  0  0  0
  4 11  1  0  0  0  0
  4  3  1  0  0  0  0
  5 13  1  6  0  0  0
  5  1  1  0  0  0  0
  5  4  1  0  0  0  0
  7  2  1  0  0  0  0
 12  4  1  0  0  0  0
 14 15  1  0  0  0  0
 15 21  1  0  0  0  0
 15 16  2  0  0  0  0
 16  1  1  0  0  0  0
 17 16  1  0  0  0  0
 18 17  2  0  0  0  0
 19 14  2  0  0  0  0
 19 18  1  0  0  0  0
 20 14  1  0  0  0  0
 22 18  1  0  0  0  0
 23  5  1  0  0  0  0
 24 23  1  0  0  0  0
 25 24  2  0  0  0  0
 26 24  1  0  0  0  0
 27 26  2  0  0  0  0
 28 27  1  0  0  0  0
 28 30  1  0  0  0  0
 29 28  1  0  0  0  0
 31 32  1  0  0  0  0
 31 28  1  0  0  0  0
 32 33  1  0  0  0  0
 34 32  2  0  0  0  0
 35 34  1  0  0  0  0
 36 35  1  0  0  0  0
 37 39  1  0  0  0  0
 37 35  2  0  0  0  0
 38 37  1  0  0  0  0
 39 31  2  0  0  0  0
M  END
>  <minimizedAffinity>
-6.3295188

>  <minimizedRMSD>
2.37935996

$$$$
