
 OpenBabel03242513533D

 39 41  0  0  1  0  0  0  0  0999 V2000
   38.0910   30.4010   40.2090 C   0  0  2  0  0  0  0  0  0  0  0  0
   37.4660   31.6920   40.6440 C   0  0  0  0  0  0  0  0  0  0  0  0
   37.5330   32.4490   39.3330 C   0  0  0  0  0  0  0  0  0  0  0  0
   37.2230   31.4560   38.3120 C   0  0  0  0  0  0  0  0  0  0  0  0
   37.2130   30.0230   39.0420 C   0  0  2  0  0  0  0  0  0  0  0  0
   39.0960   30.5920   39.7670 H   0  0  0  0  0  0  0  0  0  0  0  0
   36.4460   31.5680   41.0070 H   0  0  0  0  0  0  0  0  0  0  0  0
   38.1530   32.1400   41.3940 H   0  0  0  0  0  0  0  0  0  0  0  0
   38.6100   32.7620   39.2360 H   0  0  0  0  0  0  0  0  0  0  0  0
   36.9410   33.3700   39.3360 H   0  0  0  0  0  0  0  0  0  0  0  0
   37.9170   31.3840   37.4550 H   0  0  0  0  0  0  0  0  0  0  0  0
   36.2120   31.6070   37.9050 H   0  0  0  0  0  0  0  0  0  0  0  0
   37.6770   29.3190   38.3310 H   0  0  0  0  0  0  0  0  0  0  0  0
   37.8420   28.3850   43.3630 C   0  0  0  0  0  0  0  0  0  0  0  0
   37.7960   29.5230   42.5300 C   0  0  0  0  0  0  0  0  0  0  0  0
   38.1100   29.3270   41.2270 C   0  0  0  0  0  0  0  0  0  0  0  0
   38.4540   28.0440   40.7920 N   0  0  0  0  0  0  0  0  0  0  0  0
   38.4870   26.9900   41.6070 C   0  0  0  0  0  0  0  0  0  0  0  0
   38.1820   27.1580   42.8920 N   0  0  0  0  0  0  0  0  0  0  0  0
   37.5950   28.5170   44.4100 H   0  0  0  0  0  0  0  0  0  0  0  0
   37.5270   30.4960   42.8970 H   0  0  0  0  0  0  0  0  0  0  0  0
   38.7720   26.0700   41.1140 H   0  0  0  0  0  0  0  0  0  0  0  0
   35.9000   29.7760   39.3950 O   0  0  0  0  0  0  0  0  0  0  0  0
   34.9970   29.0120   38.7060 C   0  0  0  0  0  0  0  0  0  0  0  0
   35.5850   27.8950   38.4190 O   0  0  0  0  0  0  0  0  0  0  0  0
   33.6570   28.8400   38.1220 C   0  0  0  0  0  3  0  0  0  0  0  0
   33.2870   28.8880   36.8280 C   0  0  0  0  0  3  0  0  0  0  0  0
   31.9780   28.7240   36.1470 C   0  0  0  0  0  0  0  0  0  0  0  0
   31.3350   28.1120   36.8090 H   0  0  0  0  0  0  0  0  0  0  0  0
   32.0830   28.2890   35.1350 H   0  0  0  0  0  0  0  0  0  0  0  0
   31.3620   30.0760   36.0480 C   0  0  0  0  0  0  0  0  0  0  0  0
   30.6280   30.6080   37.0900 C   0  0  0  0  0  0  0  0  0  0  0  0
   30.4920   30.0290   38.0090 H   0  0  0  0  0  0  0  0  0  0  0  0
   30.0410   31.8520   37.0400 C   0  0  0  0  0  3  0  0  0  0  0  0
   30.2070   32.5960   35.8780 C   0  0  0  0  0  0  0  0  0  0  0  0
   29.7280   33.5730   35.8780 H   0  0  0  0  0  0  0  0  0  0  0  0
   30.9370   32.0810   34.8250 C   0  0  0  0  0  0  0  0  0  0  0  0
   31.0250   32.7170   33.9510 H   0  0  0  0  0  0  0  0  0  0  0  0
   31.5200   30.8260   34.8960 C   0  0  0  0  0  3  0  0  0  0  0  0
  1  6  1  6  0  0  0
  1  2  1  0  0  0  0
  1 16  1  0  0  0  0
  2  7  1  0  0  0  0
  2  8  1  0  0  0  0
  3 10  1  0  0  0  0
  3  2  1  0  0  0  0
  4  5  1  0  0  0  0
  4  3  1  0  0  0  0
  5 13  1  6  0  0  0
  5 23  1  0  0  0  0
  5  1  1  0  0  0  0
  9  3  1  0  0  0  0
 11  4  1  0  0  0  0
 12  4  1  0  0  0  0
 14 20  1  0  0  0  0
 15 21  1  0  0  0  0
 15 14  2  0  0  0  0
 16 15  1  0  0  0  0
 17 16  2  0  0  0  0
 17 18  1  0  0  0  0
 18 19  2  0  0  0  0
 19 14  1  0  0  0  0
 22 18  1  0  0  0  0
 24 23  1  0  0  0  0
 25 24  2  0  0  0  0
 26 24  1  0  0  0  0
 27 26  2  0  0  0  0
 28 29  1  0  0  0  0
 28 27  1  0  0  0  0
 30 28  1  0  0  0  0
 31 28  1  0  0  0  0
 31 32  1  0  0  0  0
 32 33  1  0  0  0  0
 34 32  2  0  0  0  0
 35 36  1  0  0  0  0
 35 34  1  0  0  0  0
 37 39  1  0  0  0  0
 37 35  2  0  0  0  0
 38 37  1  0  0  0  0
 39 31  2  0  0  0  0
M  END
>  <minimizedAffinity>
-5.4844203

$$$$

 OpenBabel03242513533D

 39 41  0  0  1  0  0  0  0  0999 V2000
   37.0840   32.0570   40.3250 C   0  0  2  0  0  0  0  0  0  0  0  0
   37.4070   32.9160   39.1410 C   0  0  0  0  0  0  0  0  0  0  0  0
   38.0820   34.0700   39.8520 C   0  0  0  0  0  0  0  0  0  0  0  0
   38.8700   33.4480   40.9090 C   0  0  0  0  0  0  0  0  0  0  0  0
   38.4440   31.8980   40.9580 C   0  0  2  0  0  0  0  0  0  0  0  0
   36.4850   32.6360   41.0660 H   0  0  0  0  0  0  0  0  0  0  0  0
   38.0630   32.4210   38.4250 H   0  0  0  0  0  0  0  0  0  0  0  0
   36.4350   33.2340   38.7050 H   0  0  0  0  0  0  0  0  0  0  0  0
   37.2380   34.6580   40.3110 H   0  0  0  0  0  0  0  0  0  0  0  0
   38.6020   34.7520   39.1710 H   0  0  0  0  0  0  0  0  0  0  0  0
   38.7500   33.8540   41.9300 H   0  0  0  0  0  0  0  0  0  0  0  0
   39.9430   33.4710   40.6700 H   0  0  0  0  0  0  0  0  0  0  0  0
   38.4220   31.6250   42.0270 H   0  0  0  0  0  0  0  0  0  0  0  0
   35.5180   28.6520   40.4920 C   0  0  0  0  0  0  0  0  0  0  0  0
   36.0900   29.8540   40.9600 C   0  0  0  0  0  0  0  0  0  0  0  0
   36.4870   30.7390   40.0140 C   0  0  0  0  0  0  0  0  0  0  0  0
   36.3110   30.4220   38.6640 N   0  0  0  0  0  0  0  0  0  0  0  0
   35.7660   29.2760   38.2560 C   0  0  0  0  0  0  0  0  0  0  0  0
   35.3690   28.3900   39.1680 N   0  0  0  0  0  0  0  0  0  0  0  0
   35.1930   27.9280   41.2300 H   0  0  0  0  0  0  0  0  0  0  0  0
   36.2100   30.0670   42.0060 H   0  0  0  0  0  0  0  0  0  0  0  0
   35.7020   29.1850   37.1800 H   0  0  0  0  0  0  0  0  0  0  0  0
   39.3480   31.2220   40.1610 O   0  0  0  0  0  0  0  0  0  0  0  0
   39.9560   30.0280   40.4460 C   0  0  0  0  0  0  0  0  0  0  0  0
   40.8390   29.8210   39.5220 O   0  0  0  0  0  0  0  0  0  0  0  0
   40.0970   28.8450   41.3100 C   0  0  0  0  0  3  0  0  0  0  0  0
   39.6130   28.6420   42.5500 C   0  0  0  0  0  3  0  0  0  0  0  0
   39.6950   27.4960   43.4890 C   0  0  0  0  0  0  0  0  0  0  0  0
   39.1570   27.7870   44.4130 H   0  0  0  0  0  0  0  0  0  0  0  0
   40.7390   27.1870   43.6840 H   0  0  0  0  0  0  0  0  0  0  0  0
   38.9470   26.3660   42.8720 C   0  0  0  0  0  0  0  0  0  0  0  0
   39.5980   25.2260   42.4420 C   0  0  0  0  0  0  0  0  0  0  0  0
   40.6830   25.1450   42.5550 H   0  0  0  0  0  0  0  0  0  0  0  0
   38.9460   24.1590   41.8660 C   0  0  0  0  0  3  0  0  0  0  0  0
   37.5670   24.2500   41.7180 C   0  0  0  0  0  0  0  0  0  0  0  0
   37.0890   23.3870   41.2590 H   0  0  0  0  0  0  0  0  0  0  0  0
   36.8990   25.3820   42.1410 C   0  0  0  0  0  0  0  0  0  0  0  0
   35.8250   25.3840   41.9940 H   0  0  0  0  0  0  0  0  0  0  0  0
   37.5750   26.4460   42.7190 C   0  0  0  0  0  3  0  0  0  0  0  0
  1  5  1  0  0  0  0
  1  6  1  1  0  0  0
  2  3  1  0  0  0  0
  2  1  1  0  0  0  0
  3  9  1  0  0  0  0
  3  4  1  0  0  0  0
  4  5  1  0  0  0  0
  4 11  1  0  0  0  0
  5 13  1  1  0  0  0
  7  2  1  0  0  0  0
  8  2  1  0  0  0  0
 10  3  1  0  0  0  0
 12  4  1  0  0  0  0
 14 15  1  0  0  0  0
 14 20  1  0  0  0  0
 15 21  1  0  0  0  0
 16  1  1  0  0  0  0
 16 15  2  0  0  0  0
 17 16  1  0  0  0  0
 18 17  2  0  0  0  0
 18 19  1  0  0  0  0
 19 14  2  0  0  0  0
 22 18  1  0  0  0  0
 23 24  1  0  0  0  0
 23  5  1  0  0  0  0
 24 26  1  0  0  0  0
 25 24  2  0  0  0  0
 26 27  2  0  0  0  0
 27 28  1  0  0  0  0
 28 30  1  0  0  0  0
 28 29  1  0  0  0  0
 31 28  1  0  0  0  0
 32 33  1  0  0  0  0
 32 31  2  0  0  0  0
 34 32  1  0  0  0  0
 35 34  2  0  0  0  0
 35 37  1  0  0  0  0
 36 35  1  0  0  0  0
 37 39  2  0  0  0  0
 38 37  1  0  0  0  0
 39 31  1  0  0  0  0
M  END
>  <minimizedAffinity>
-5.40904522

$$$$

 OpenBabel03242513533D

 39 41  0  0  1  0  0  0  0  0999 V2000
   39.1640   32.4100   39.0250 C   0  0  2  0  0  0  0  0  0  0  0  0
   40.1070   31.8270   38.0170 C   0  0  0  0  0  0  0  0  0  0  0  0
   41.0590   32.9960   37.8680 C   0  0  0  0  0  0  0  0  0  0  0  0
   41.2060   33.5330   39.2140 C   0  0  0  0  0  0  0  0  0  0  0  0
   40.1130   32.7930   40.1340 C   0  0  2  0  0  0  0  0  0  0  0  0
   38.7510   33.3750   38.6490 H   0  0  0  0  0  0  0  0  0  0  0  0
   40.6030   30.9240   38.3730 H   0  0  0  0  0  0  0  0  0  0  0  0
   39.5210   31.6730   37.0850 H   0  0  0  0  0  0  0  0  0  0  0  0
   40.5030   33.7390   37.2280 H   0  0  0  0  0  0  0  0  0  0  0  0
   41.9750   32.7410   37.3240 H   0  0  0  0  0  0  0  0  0  0  0  0
   41.0600   34.6210   39.3400 H   0  0  0  0  0  0  0  0  0  0  0  0
   42.1910   33.2820   39.6360 H   0  0  0  0  0  0  0  0  0  0  0  0
   39.7250   33.5650   40.8210 H   0  0  0  0  0  0  0  0  0  0  0  0
   36.2030   30.8730   40.7390 C   0  0  0  0  0  0  0  0  0  0  0  0
   37.1420   31.8660   40.3870 C   0  0  0  0  0  0  0  0  0  0  0  0
   38.1130   31.4940   39.5200 C   0  0  0  0  0  0  0  0  0  0  0  0
   38.1310   30.1830   39.0350 N   0  0  0  0  0  0  0  0  0  0  0  0
   37.2270   29.2690   39.3880 C   0  0  0  0  0  0  0  0  0  0  0  0
   36.2620   29.6130   40.2410 N   0  0  0  0  0  0  0  0  0  0  0  0
   35.4160   31.1480   41.4330 H   0  0  0  0  0  0  0  0  0  0  0  0
   37.0990   32.8650   40.7790 H   0  0  0  0  0  0  0  0  0  0  0  0
   37.3810   28.3040   38.9250 H   0  0  0  0  0  0  0  0  0  0  0  0
   40.7550   31.7140   40.7090 O   0  0  0  0  0  0  0  0  0  0  0  0
   40.5180   31.1880   41.9510 C   0  0  0  0  0  0  0  0  0  0  0  0
   41.5670   31.4260   42.6720 O   0  0  0  0  0  0  0  0  0  0  0  0
   39.6320   30.4710   42.8820 C   0  0  0  0  0  3  0  0  0  0  0  0
   38.8890   29.3700   42.6630 C   0  0  0  0  0  3  0  0  0  0  0  0
   37.9790   28.5780   43.5270 C   0  0  0  0  0  0  0  0  0  0  0  0
   36.9430   28.8910   43.2910 H   0  0  0  0  0  0  0  0  0  0  0  0
   38.2210   28.6850   44.6010 H   0  0  0  0  0  0  0  0  0  0  0  0
   38.1200   27.1510   43.1240 C   0  0  0  0  0  0  0  0  0  0  0  0
   37.0890   26.4790   42.4950 C   0  0  0  0  0  0  0  0  0  0  0  0
   36.1490   27.0000   42.2870 H   0  0  0  0  0  0  0  0  0  0  0  0
   37.1770   25.1620   42.1060 C   0  0  0  0  0  3  0  0  0  0  0  0
   38.3660   24.4910   42.3650 C   0  0  0  0  0  0  0  0  0  0  0  0
   38.3950   23.4520   42.0430 H   0  0  0  0  0  0  0  0  0  0  0  0
   39.4070   25.1460   42.9940 C   0  0  0  0  0  0  0  0  0  0  0  0
   40.3040   24.5610   43.1630 H   0  0  0  0  0  0  0  0  0  0  0  0
   39.2980   26.4740   43.3770 C   0  0  0  0  0  3  0  0  0  0  0  0
  1  6  1  6  0  0  0
  1 16  1  0  0  0  0
  1  5  1  0  0  0  0
  2  7  1  0  0  0  0
  2  1  1  0  0  0  0
  3  2  1  0  0  0  0
  3  4  1  0  0  0  0
  4 11  1  0  0  0  0
  4 12  1  0  0  0  0
  4  5  1  0  0  0  0
  5 23  1  0  0  0  0
  5 13  1  1  0  0  0
  8  2  1  0  0  0  0
  9  3  1  0  0  0  0
 10  3  1  0  0  0  0
 14 20  1  0  0  0  0
 15 14  1  0  0  0  0
 15 21  1  0  0  0  0
 16 15  2  0  0  0  0
 17 18  2  0  0  0  0
 17 16  1  0  0  0  0
 18 19  1  0  0  0  0
 19 14  2  0  0  0  0
 22 18  1  0  0  0  0
 23 24  1  0  0  0  0
 24 25  2  0  0  0  0
 24 26  1  0  0  0  0
 27 26  2  0  0  0  0
 27 28  1  0  0  0  0
 28 30  1  0  0  0  0
 29 28  1  0  0  0  0
 31 39  1  0  0  0  0
 31 28  1  0  0  0  0
 32 31  2  0  0  0  0
 33 32  1  0  0  0  0
 34 35  2  0  0  0  0
 34 32  1  0  0  0  0
 35 37  1  0  0  0  0
 36 35  1  0  0  0  0
 37 38  1  0  0  0  0
 37 39  2  0  0  0  0
M  END
>  <minimizedAffinity>
-5.40706873

$$$$

 OpenBabel03242513533D

 39 41  0  0  1  0  0  0  0  0999 V2000
   37.7080   29.8860   37.3790 C   0  0  2  0  0  0  0  0  0  0  0  0
   36.9040   30.5590   36.3090 C   0  0  0  0  0  0  0  0  0  0  0  0
   36.7360   29.3920   35.3590 C   0  0  0  0  0  0  0  0  0  0  0  0
   36.5250   28.2360   36.2190 C   0  0  0  0  0  0  0  0  0  0  0  0
   36.8220   28.7150   37.7260 C   0  0  2  0  0  0  0  0  0  0  0  0
   38.6270   29.4340   36.9390 H   0  0  0  0  0  0  0  0  0  0  0  0
   35.9510   30.9450   36.6750 H   0  0  0  0  0  0  0  0  0  0  0  0
   37.5570   31.3410   35.8650 H   0  0  0  0  0  0  0  0  0  0  0  0
   37.7320   29.2980   34.8410 H   0  0  0  0  0  0  0  0  0  0  0  0
   35.9940   29.5780   34.5740 H   0  0  0  0  0  0  0  0  0  0  0  0
   37.1530   27.3460   36.0280 H   0  0  0  0  0  0  0  0  0  0  0  0
   35.4750   27.9080   36.1960 H   0  0  0  0  0  0  0  0  0  0  0  0
   37.3450   27.8740   38.2130 H   0  0  0  0  0  0  0  0  0  0  0  0
   39.0060   31.2350   40.6300 C   0  0  0  0  0  0  0  0  0  0  0  0
   38.8270   30.3200   39.5700 C   0  0  0  0  0  0  0  0  0  0  0  0
   37.9930   30.7070   38.5760 C   0  0  0  0  0  0  0  0  0  0  0  0
   37.3730   31.9580   38.6520 N   0  0  0  0  0  0  0  0  0  0  0  0
   37.5650   32.7990   39.6690 C   0  0  0  0  0  0  0  0  0  0  0  0
   38.3810   32.4390   40.6580 N   0  0  0  0  0  0  0  0  0  0  0  0
   39.6690   30.9460   41.4370 H   0  0  0  0  0  0  0  0  0  0  0  0
   39.3200   29.3660   39.5430 H   0  0  0  0  0  0  0  0  0  0  0  0
   37.0120   33.7240   39.5770 H   0  0  0  0  0  0  0  0  0  0  0  0
   35.6030   29.0840   38.2630 O   0  0  0  0  0  0  0  0  0  0  0  0
   35.2370   29.0220   39.5810 C   0  0  0  0  0  0  0  0  0  0  0  0
   33.9490   29.1350   39.6230 O   0  0  0  0  0  0  0  0  0  0  0  0
   35.6050   28.8840   40.9990 C   0  0  0  0  0  3  0  0  0  0  0  0
   36.4720   28.0250   41.5670 C   0  0  0  0  0  3  0  0  0  0  0  0
   36.9100   27.8130   42.9690 C   0  0  0  0  0  0  0  0  0  0  0  0
   36.0270   27.4730   43.5440 H   0  0  0  0  0  0  0  0  0  0  0  0
   37.3790   28.7160   43.4040 H   0  0  0  0  0  0  0  0  0  0  0  0
   37.8950   26.6960   42.9590 C   0  0  0  0  0  0  0  0  0  0  0  0
   39.0820   26.7810   43.6610 C   0  0  0  0  0  0  0  0  0  0  0  0
   39.3090   27.6830   44.2370 H   0  0  0  0  0  0  0  0  0  0  0  0
   40.0200   25.7730   43.6780 C   0  0  0  0  0  3  0  0  0  0  0  0
   39.7430   24.6220   42.9490 C   0  0  0  0  0  0  0  0  0  0  0  0
   40.5090   23.8500   42.9880 H   0  0  0  0  0  0  0  0  0  0  0  0
   38.5620   24.5200   42.2400 C   0  0  0  0  0  0  0  0  0  0  0  0
   38.4130   23.5950   41.6960 H   0  0  0  0  0  0  0  0  0  0  0  0
   37.6310   25.5470   42.2370 C   0  0  0  0  0  3  0  0  0  0  0  0
  1  6  1  6  0  0  0
  1  5  1  0  0  0  0
  1 16  1  0  0  0  0
  2  7  1  0  0  0  0
  2  1  1  0  0  0  0
  3  4  1  0  0  0  0
  3  2  1  0  0  0  0
  4  5  1  0  0  0  0
  5 13  1  1  0  0  0
  5 23  1  0  0  0  0
  8  2  1  0  0  0  0
  9  3  1  0  0  0  0
 10  3  1  0  0  0  0
 11  4  1  0  0  0  0
 12  4  1  0  0  0  0
 14 19  1  0  0  0  0
 14 20  1  0  0  0  0
 15 14  2  0  0  0  0
 16 17  2  0  0  0  0
 16 15  1  0  0  0  0
 17 18  1  0  0  0  0
 18 19  2  0  0  0  0
 21 15  1  0  0  0  0
 22 18  1  0  0  0  0
 23 24  1  0  0  0  0
 24 25  2  0  0  0  0
 24 26  1  0  0  0  0
 26 27  2  0  0  0  0
 27 28  1  0  0  0  0
 28 30  1  0  0  0  0
 28 29  1  0  0  0  0
 31 28  1  0  0  0  0
 31 32  1  0  0  0  0
 32 34  2  0  0  0  0
 32 33  1  0  0  0  0
 35 36  1  0  0  0  0
 35 34  1  0  0  0  0
 37 35  2  0  0  0  0
 38 37  1  0  0  0  0
 39 37  1  0  0  0  0
 39 31  2  0  0  0  0
M  END
>  <minimizedAffinity>
-5.35229254

$$$$

 OpenBabel03242513533D

 39 41  0  0  1  0  0  0  0  0999 V2000
   37.1920   30.4280   39.5580 C   0  0  2  0  0  0  0  0  0  0  0  0
   35.8540   30.5430   40.2210 C   0  0  0  0  0  0  0  0  0  0  0  0
   35.3060   29.1670   39.9060 C   0  0  0  0  0  0  0  0  0  0  0  0
   36.4430   28.2680   40.0510 C   0  0  0  0  0  0  0  0  0  0  0  0
   37.7490   29.1930   40.2220 C   0  0  2  0  0  0  0  0  0  0  0  0
   37.0650   30.1490   38.4860 H   0  0  0  0  0  0  0  0  0  0  0  0
   35.9270   30.7320   41.2930 H   0  0  0  0  0  0  0  0  0  0  0  0
   35.2930   31.3280   39.6700 H   0  0  0  0  0  0  0  0  0  0  0  0
   35.0050   29.2190   38.8220 H   0  0  0  0  0  0  0  0  0  0  0  0
   34.3980   28.9250   40.4690 H   0  0  0  0  0  0  0  0  0  0  0  0
   36.6420   27.5710   39.2170 H   0  0  0  0  0  0  0  0  0  0  0  0
   36.3620   27.6690   40.9700 H   0  0  0  0  0  0  0  0  0  0  0  0
   38.5510   28.6900   39.6540 H   0  0  0  0  0  0  0  0  0  0  0  0
   38.7000   33.7610   40.3850 C   0  0  0  0  0  0  0  0  0  0  0  0
   37.7020   32.7730   40.2530 C   0  0  0  0  0  0  0  0  0  0  0  0
   38.0990   31.5820   39.7430 C   0  0  0  0  0  0  0  0  0  0  0  0
   39.4380   31.4040   39.3850 N   0  0  0  0  0  0  0  0  0  0  0  0
   40.3560   32.3610   39.5240 C   0  0  0  0  0  0  0  0  0  0  0  0
   39.9890   33.5400   40.0230 N   0  0  0  0  0  0  0  0  0  0  0  0
   38.4060   34.7230   40.7910 H   0  0  0  0  0  0  0  0  0  0  0  0
   36.6800   32.9430   40.5390 H   0  0  0  0  0  0  0  0  0  0  0  0
   41.3450   32.0630   39.2000 H   0  0  0  0  0  0  0  0  0  0  0  0
   37.9460   29.3380   41.5820 O   0  0  0  0  0  0  0  0  0  0  0  0
   37.9740   28.3370   42.5160 C   0  0  0  0  0  0  0  0  0  0  0  0
   37.8970   28.9010   43.6790 O   0  0  0  0  0  0  0  0  0  0  0  0
   38.0480   26.9050   42.8460 C   0  0  0  0  0  3  0  0  0  0  0  0
   38.4400   25.8780   42.0680 C   0  0  0  0  0  3  0  0  0  0  0  0
   38.5540   24.4180   42.3070 C   0  0  0  0  0  0  0  0  0  0  0  0
   38.0760   24.2040   43.2830 H   0  0  0  0  0  0  0  0  0  0  0  0
   39.6010   24.0650   42.2600 H   0  0  0  0  0  0  0  0  0  0  0  0
   37.7510   23.7360   41.2550 C   0  0  0  0  0  0  0  0  0  0  0  0
   36.4930   24.1900   40.9060 C   0  0  0  0  0  0  0  0  0  0  0  0
   36.0740   25.0670   41.4100 H   0  0  0  0  0  0  0  0  0  0  0  0
   35.7170   23.5900   39.9410 C   0  0  0  0  0  3  0  0  0  0  0  0
   36.2390   22.4760   39.2940 C   0  0  0  0  0  0  0  0  0  0  0  0
   35.5950   22.0310   38.5380 H   0  0  0  0  0  0  0  0  0  0  0  0
   37.4940   22.0070   39.6300 C   0  0  0  0  0  0  0  0  0  0  0  0
   37.8370   21.1350   39.0850 H   0  0  0  0  0  0  0  0  0  0  0  0
   38.2600   22.6270   40.6050 C   0  0  0  0  0  3  0  0  0  0  0  0
  1  6  1  6  0  0  0
  1 16  1  0  0  0  0
  1  2  1  0  0  0  0
  1  5  1  0  0  0  0
  2  7  1  0  0  0  0
  3  4  1  0  0  0  0
  3  2  1  0  0  0  0
  3 10  1  0  0  0  0
  4  5  1  0  0  0  0
  4 12  1  0  0  0  0
  5 13  1  6  0  0  0
  5 23  1  0  0  0  0
  8  2  1  0  0  0  0
  9  3  1  0  0  0  0
 11  4  1  0  0  0  0
 14 20  1  0  0  0  0
 15 14  1  0  0  0  0
 15 21  1  0  0  0  0
 16 15  2  0  0  0  0
 17 18  2  0  0  0  0
 17 16  1  0  0  0  0
 18 19  1  0  0  0  0
 19 14  2  0  0  0  0
 22 18  1  0  0  0  0
 23 24  1  0  0  0  0
 24 26  1  0  0  0  0
 24 25  2  0  0  0  0
 27 28  1  0  0  0  0
 27 26  2  0  0  0  0
 28 29  1  0  0  0  0
 30 28  1  0  0  0  0
 31 28  1  0  0  0  0
 32 31  1  0  0  0  0
 32 33  1  0  0  0  0
 34 32  2  0  0  0  0
 35 37  2  0  0  0  0
 35 34  1  0  0  0  0
 36 35  1  0  0  0  0
 37 39  1  0  0  0  0
 38 37  1  0  0  0  0
 39 31  2  0  0  0  0
M  END
>  <minimizedAffinity>
-5.32405567

$$$$

 OpenBabel03242513533D

 39 41  0  0  1  0  0  0  0  0999 V2000
   40.3270   32.9040   38.8200 C   0  0  2  0  0  0  0  0  0  0  0  0
   40.5470   34.0490   39.7610 C   0  0  0  0  0  0  0  0  0  0  0  0
   39.1700   34.1200   40.3870 C   0  0  0  0  0  0  0  0  0  0  0  0
   38.7600   32.7310   40.5460 C   0  0  0  0  0  0  0  0  0  0  0  0
   39.8400   31.8320   39.7640 C   0  0  2  0  0  0  0  0  0  0  0  0
   39.4610   33.1180   38.1520 H   0  0  0  0  0  0  0  0  0  0  0  0
   41.3320   33.8520   40.4920 H   0  0  0  0  0  0  0  0  0  0  0  0
   40.7430   34.9440   39.1320 H   0  0  0  0  0  0  0  0  0  0  0  0
   38.5250   34.6140   39.6060 H   0  0  0  0  0  0  0  0  0  0  0  0
   39.1310   34.7620   41.2730 H   0  0  0  0  0  0  0  0  0  0  0  0
   37.7610   32.4540   40.1600 H   0  0  0  0  0  0  0  0  0  0  0  0
   38.8020   32.4230   41.6020 H   0  0  0  0  0  0  0  0  0  0  0  0
   39.2670   31.0230   39.2800 H   0  0  0  0  0  0  0  0  0  0  0  0
   43.7640   32.5030   37.3710 C   0  0  0  0  0  0  0  0  0  0  0  0
   42.7200   33.0820   38.1240 C   0  0  0  0  0  0  0  0  0  0  0  0
   41.5230   32.4510   38.0760 C   0  0  0  0  0  0  0  0  0  0  0  0
   41.3910   31.2920   37.3050 N   0  0  0  0  0  0  0  0  0  0  0  0
   42.3990   30.7710   36.6050 C   0  0  0  0  0  0  0  0  0  0  0  0
   43.5860   31.3750   36.6370 N   0  0  0  0  0  0  0  0  0  0  0  0
   44.7320   32.9910   37.3940 H   0  0  0  0  0  0  0  0  0  0  0  0
   42.8560   33.9740   38.7070 H   0  0  0  0  0  0  0  0  0  0  0  0
   42.1330   29.8750   36.0620 H   0  0  0  0  0  0  0  0  0  0  0  0
   40.7810   31.4530   40.7020 O   0  0  0  0  0  0  0  0  0  0  0  0
   40.5350   30.9930   41.9680 C   0  0  0  0  0  0  0  0  0  0  0  0
   41.4580   31.4780   42.7350 O   0  0  0  0  0  0  0  0  0  0  0  0
   39.7140   30.2010   42.8980 C   0  0  0  0  0  3  0  0  0  0  0  0
   38.6360   29.4380   42.6340 C   0  0  0  0  0  3  0  0  0  0  0  0
   37.7540   28.6080   43.4910 C   0  0  0  0  0  0  0  0  0  0  0  0
   36.7080   28.8570   43.2270 H   0  0  0  0  0  0  0  0  0  0  0  0
   37.9660   28.7430   44.5680 H   0  0  0  0  0  0  0  0  0  0  0  0
   37.9850   27.1860   43.1120 C   0  0  0  0  0  0  0  0  0  0  0  0
   37.0050   26.4430   42.4840 C   0  0  0  0  0  0  0  0  0  0  0  0
   36.0380   26.9020   42.2570 H   0  0  0  0  0  0  0  0  0  0  0  0
   37.1760   25.1270   42.1170 C   0  0  0  0  0  3  0  0  0  0  0  0
   38.4010   24.5340   42.4000 C   0  0  0  0  0  0  0  0  0  0  0  0
   38.4970   23.4930   42.0950 H   0  0  0  0  0  0  0  0  0  0  0  0
   39.3930   25.2610   43.0290 C   0  0  0  0  0  0  0  0  0  0  0  0
   40.3210   24.7340   43.2170 H   0  0  0  0  0  0  0  0  0  0  0  0
   39.2000   26.5850   43.3890 C   0  0  0  0  0  3  0  0  0  0  0  0
  1  6  1  6  0  0  0
  1  2  1  0  0  0  0
  1  5  1  0  0  0  0
  2  3  1  0  0  0  0
  2  7  1  0  0  0  0
  3  4  1  0  0  0  0
  3 10  1  0  0  0  0
  4 12  1  0  0  0  0
  5 13  1  6  0  0  0
  5  4  1  0  0  0  0
  5 23  1  0  0  0  0
  8  2  1  0  0  0  0
  9  3  1  0  0  0  0
 11  4  1  0  0  0  0
 14 20  1  0  0  0  0
 14 15  1  0  0  0  0
 15 21  1  0  0  0  0
 16 15  2  0  0  0  0
 16  1  1  0  0  0  0
 17 16  1  0  0  0  0
 18 19  1  0  0  0  0
 18 17  2  0  0  0  0
 19 14  2  0  0  0  0
 22 18  1  0  0  0  0
 23 24  1  0  0  0  0
 24 25  2  0  0  0  0
 24 26  1  0  0  0  0
 27 26  2  0  0  0  0
 27 28  1  0  0  0  0
 28 30  1  0  0  0  0
 29 28  1  0  0  0  0
 31 39  1  0  0  0  0
 31 28  1  0  0  0  0
 32 31  2  0  0  0  0
 33 32  1  0  0  0  0
 34 35  2  0  0  0  0
 34 32  1  0  0  0  0
 35 37  1  0  0  0  0
 36 35  1  0  0  0  0
 37 38  1  0  0  0  0
 37 39  2  0  0  0  0
M  END
>  <minimizedAffinity>
-5.30519676

$$$$

 OpenBabel03242513533D

 39 41  0  0  1  0  0  0  0  0999 V2000
   38.4080   32.4540   39.1790 C   0  0  2  0  0  0  0  0  0  0  0  0
   39.8220   32.8230   38.8450 C   0  0  0  0  0  0  0  0  0  0  0  0
   39.9440   34.0900   39.6650 C   0  0  0  0  0  0  0  0  0  0  0  0
   39.2270   33.8080   40.9010 C   0  0  0  0  0  0  0  0  0  0  0  0
   38.4600   32.4100   40.6860 C   0  0  2  0  0  0  0  0  0  0  0  0
   37.7250   33.3010   38.9370 H   0  0  0  0  0  0  0  0  0  0  0  0
   40.5400   32.0580   39.1420 H   0  0  0  0  0  0  0  0  0  0  0  0
   39.8420   33.0510   37.7570 H   0  0  0  0  0  0  0  0  0  0  0  0
   39.3820   34.8690   39.0750 H   0  0  0  0  0  0  0  0  0  0  0  0
   40.9750   34.4500   39.7510 H   0  0  0  0  0  0  0  0  0  0  0  0
   38.4750   34.5490   41.2260 H   0  0  0  0  0  0  0  0  0  0  0  0
   39.9240   33.6570   41.7390 H   0  0  0  0  0  0  0  0  0  0  0  0
   37.4800   32.5250   41.1810 H   0  0  0  0  0  0  0  0  0  0  0  0
   36.3830   29.4630   38.1690 C   0  0  0  0  0  0  0  0  0  0  0  0
   36.6740   30.7010   38.7800 C   0  0  0  0  0  0  0  0  0  0  0  0
   37.9370   31.1650   38.6270 C   0  0  0  0  0  0  0  0  0  0  0  0
   38.8580   30.4120   37.8930 N   0  0  0  0  0  0  0  0  0  0  0  0
   38.5490   29.2450   37.3280 C   0  0  0  0  0  0  0  0  0  0  0  0
   37.3130   28.7680   37.4650 N   0  0  0  0  0  0  0  0  0  0  0  0
   35.3780   29.0710   38.2780 H   0  0  0  0  0  0  0  0  0  0  0  0
   35.9410   31.2550   39.3380 H   0  0  0  0  0  0  0  0  0  0  0  0
   39.3730   28.7900   36.7950 H   0  0  0  0  0  0  0  0  0  0  0  0
   39.2960   31.4280   41.1820 O   0  0  0  0  0  0  0  0  0  0  0  0
   39.0390   30.5900   42.2340 C   0  0  0  0  0  0  0  0  0  0  0  0
   39.8840   30.8840   43.1690 O   0  0  0  0  0  0  0  0  0  0  0  0
   38.2530   29.4970   42.8290 C   0  0  0  0  0  3  0  0  0  0  0  0
   38.3270   28.1750   42.5880 C   0  0  0  0  0  3  0  0  0  0  0  0
   37.5910   27.0070   43.1330 C   0  0  0  0  0  0  0  0  0  0  0  0
   36.6720   27.3920   43.6160 H   0  0  0  0  0  0  0  0  0  0  0  0
   38.2120   26.4030   43.8210 H   0  0  0  0  0  0  0  0  0  0  0  0
   37.1720   26.1710   41.9740 C   0  0  0  0  0  0  0  0  0  0  0  0
   36.9800   24.8090   42.1050 C   0  0  0  0  0  0  0  0  0  0  0  0
   37.1360   24.3300   43.0770 H   0  0  0  0  0  0  0  0  0  0  0  0
   36.5940   23.9990   41.0610 C   0  0  0  0  0  3  0  0  0  0  0  0
   36.3920   24.5970   39.8230 C   0  0  0  0  0  0  0  0  0  0  0  0
   36.0880   23.9230   39.0240 H   0  0  0  0  0  0  0  0  0  0  0  0
   36.5800   25.9570   39.6720 C   0  0  0  0  0  0  0  0  0  0  0  0
   36.4040   26.3540   38.6790 H   0  0  0  0  0  0  0  0  0  0  0  0
   36.9690   26.7550   40.7370 C   0  0  0  0  0  3  0  0  0  0  0  0
  1  6  1  6  0  0  0
  1  5  1  0  0  0  0
  2  7  1  0  0  0  0
  2  1  1  0  0  0  0
  2  3  1  0  0  0  0
  3 10  1  0  0  0  0
  3  4  1  0  0  0  0
  4 11  1  0  0  0  0
  4 12  1  0  0  0  0
  5  4  1  0  0  0  0
  5 13  1  1  0  0  0
  5 23  1  0  0  0  0
  8  2  1  0  0  0  0
  9  3  1  0  0  0  0
 14 20  1  0  0  0  0
 14 15  1  0  0  0  0
 15 21  1  0  0  0  0
 16 15  2  0  0  0  0
 16  1  1  0  0  0  0
 17 16  1  0  0  0  0
 18 19  1  0  0  0  0
 18 17  2  0  0  0  0
 19 14  2  0  0  0  0
 22 18  1  0  0  0  0
 23 24  1  0  0  0  0
 24 26  1  0  0  0  0
 24 25  2  0  0  0  0
 27 26  2  0  0  0  0
 27 28  1  0  0  0  0
 28 29  1  0  0  0  0
 28 30  1  0  0  0  0
 31 32  1  0  0  0  0
 31 28  1  0  0  0  0
 32 33  1  0  0  0  0
 34 32  2  0  0  0  0
 35 34  1  0  0  0  0
 36 35  1  0  0  0  0
 37 35  2  0  0  0  0
 37 39  1  0  0  0  0
 38 37  1  0  0  0  0
 39 31  2  0  0  0  0
M  END
>  <minimizedAffinity>
-5.22777081

$$$$

 OpenBabel03242513533D

 39 41  0  0  1  0  0  0  0  0999 V2000
   40.1200   31.2910   37.7130 C   0  0  2  0  0  0  0  0  0  0  0  0
   38.8730   32.1030   37.8860 C   0  0  0  0  0  0  0  0  0  0  0  0
   37.8750   30.9800   38.0810 C   0  0  0  0  0  0  0  0  0  0  0  0
   38.5750   29.9960   38.8960 C   0  0  0  0  0  0  0  0  0  0  0  0
   40.1120   30.4610   38.9730 C   0  0  2  0  0  0  0  0  0  0  0  0
   39.9880   30.5590   36.8820 H   0  0  0  0  0  0  0  0  0  0  0  0
   38.9210   32.7770   38.7420 H   0  0  0  0  0  0  0  0  0  0  0  0
   38.6970   32.6250   36.9210 H   0  0  0  0  0  0  0  0  0  0  0  0
   37.7080   30.5610   37.0490 H   0  0  0  0  0  0  0  0  0  0  0  0
   36.8990   31.3270   38.4370 H   0  0  0  0  0  0  0  0  0  0  0  0
   38.5650   28.9500   38.5390 H   0  0  0  0  0  0  0  0  0  0  0  0
   38.1960   29.9940   39.9290 H   0  0  0  0  0  0  0  0  0  0  0  0
   40.7110   29.5360   38.9140 H   0  0  0  0  0  0  0  0  0  0  0  0
   42.7300   33.9850   37.6560 C   0  0  0  0  0  0  0  0  0  0  0  0
   41.4490   33.4050   37.7810 C   0  0  0  0  0  0  0  0  0  0  0  0
   41.3750   32.0660   37.5960 C   0  0  0  0  0  0  0  0  0  0  0  0
   42.5390   31.3510   37.3020 N   0  0  0  0  0  0  0  0  0  0  0  0
   43.7350   31.9300   37.1910 C   0  0  0  0  0  0  0  0  0  0  0  0
   43.8320   33.2470   37.3680 N   0  0  0  0  0  0  0  0  0  0  0  0
   42.8140   35.0560   37.7990 H   0  0  0  0  0  0  0  0  0  0  0  0
   40.5740   33.9850   38.0090 H   0  0  0  0  0  0  0  0  0  0  0  0
   44.5330   31.2380   36.9590 H   0  0  0  0  0  0  0  0  0  0  0  0
   40.2350   31.2090   40.1280 O   0  0  0  0  0  0  0  0  0  0  0  0
   39.5720   31.0040   41.3090 C   0  0  0  0  0  0  0  0  0  0  0  0
   38.9520   32.1050   41.5920 O   0  0  0  0  0  0  0  0  0  0  0  0
   39.2160   30.1240   42.4330 C   0  0  0  0  0  3  0  0  0  0  0  0
   38.1120   29.3710   42.5980 C   0  0  0  0  0  3  0  0  0  0  0  0
   37.6680   28.4570   43.6800 C   0  0  0  0  0  0  0  0  0  0  0  0
   36.5610   28.4870   43.7040 H   0  0  0  0  0  0  0  0  0  0  0  0
   38.1220   28.7090   44.6560 H   0  0  0  0  0  0  0  0  0  0  0  0
   38.0700   27.0780   43.2840 C   0  0  0  0  0  0  0  0  0  0  0  0
   39.2960   26.5570   43.6480 C   0  0  0  0  0  0  0  0  0  0  0  0
   39.9900   27.1630   44.2390 H   0  0  0  0  0  0  0  0  0  0  0  0
   39.7070   25.2890   43.3030 C   0  0  0  0  0  3  0  0  0  0  0  0
   38.8340   24.5100   42.5530 C   0  0  0  0  0  0  0  0  0  0  0  0
   39.1970   23.5150   42.3010 H   0  0  0  0  0  0  0  0  0  0  0  0
   37.6050   25.0150   42.1790 C   0  0  0  0  0  0  0  0  0  0  0  0
   36.9760   24.3510   41.5950 H   0  0  0  0  0  0  0  0  0  0  0  0
   37.2090   26.2940   42.5370 C   0  0  0  0  0  3  0  0  0  0  0  0
  1  6  1  6  0  0  0
  1  2  1  0  0  0  0
  1  5  1  0  0  0  0
  2  3  1  0  0  0  0
  2  7  1  0  0  0  0
  3 10  1  0  0  0  0
  3  4  1  0  0  0  0
  4  5  1  0  0  0  0
  4 12  1  0  0  0  0
  5 13  1  6  0  0  0
  5 23  1  0  0  0  0
  8  2  1  0  0  0  0
  9  3  1  0  0  0  0
 11  4  1  0  0  0  0
 14 15  1  0  0  0  0
 14 20  1  0  0  0  0
 15 21  1  0  0  0  0
 16  1  1  0  0  0  0
 16 15  2  0  0  0  0
 17 16  1  0  0  0  0
 18 17  2  0  0  0  0
 18 19  1  0  0  0  0
 19 14  2  0  0  0  0
 22 18  1  0  0  0  0
 23 24  1  0  0  0  0
 24 25  2  0  0  0  0
 24 26  1  0  0  0  0
 26 27  2  0  0  0  0
 27 28  1  0  0  0  0
 28 29  1  0  0  0  0
 28 30  1  0  0  0  0
 31 32  1  0  0  0  0
 31 28  1  0  0  0  0
 32 33  1  0  0  0  0
 34 32  2  0  0  0  0
 35 34  1  0  0  0  0
 36 35  1  0  0  0  0
 37 39  1  0  0  0  0
 37 35  2  0  0  0  0
 38 37  1  0  0  0  0
 39 31  2  0  0  0  0
M  END
>  <minimizedAffinity>
-5.19652653

$$$$

 OpenBabel03242513533D

 39 41  0  0  1  0  0  0  0  0999 V2000
   37.8150   25.1610   41.9980 C   0  0  2  0  0  0  0  0  0  0  0  0
   39.0180   24.5890   41.3130 C   0  0  0  0  0  0  0  0  0  0  0  0
   38.4490   23.2500   40.8960 C   0  0  0  0  0  0  0  0  0  0  0  0
   37.0800   23.5360   40.4870 C   0  0  0  0  0  0  0  0  0  0  0  0
   36.7750   25.0580   40.9100 C   0  0  2  0  0  0  0  0  0  0  0  0
   37.4660   24.4700   42.8000 H   0  0  0  0  0  0  0  0  0  0  0  0
   39.3480   25.1890   40.4640 H   0  0  0  0  0  0  0  0  0  0  0  0
   39.7980   24.4620   42.0940 H   0  0  0  0  0  0  0  0  0  0  0  0
   38.4370   22.6360   41.8410 H   0  0  0  0  0  0  0  0  0  0  0  0
   39.0850   22.7120   40.1850 H   0  0  0  0  0  0  0  0  0  0  0  0
   36.2830   22.9070   40.9240 H   0  0  0  0  0  0  0  0  0  0  0  0
   36.9740   23.4880   39.3930 H   0  0  0  0  0  0  0  0  0  0  0  0
   35.7330   25.0670   41.2720 H   0  0  0  0  0  0  0  0  0  0  0  0
   37.3060   28.5230   43.5830 C   0  0  0  0  0  0  0  0  0  0  0  0
   37.0060   27.2000   43.1940 C   0  0  0  0  0  0  0  0  0  0  0  0
   37.9520   26.5580   42.4680 C   0  0  0  0  0  0  0  0  0  0  0  0
   39.1400   27.2220   42.1530 N   0  0  0  0  0  0  0  0  0  0  0  0
   39.3920   28.4740   42.5370 C   0  0  0  0  0  0  0  0  0  0  0  0
   38.4760   29.1260   43.2520 N   0  0  0  0  0  0  0  0  0  0  0  0
   36.5640   29.0580   44.1640 H   0  0  0  0  0  0  0  0  0  0  0  0
   36.0810   26.7190   43.4540 H   0  0  0  0  0  0  0  0  0  0  0  0
   40.3560   28.8420   42.2120 H   0  0  0  0  0  0  0  0  0  0  0  0
   37.0560   25.8330   39.8010 O   0  0  0  0  0  0  0  0  0  0  0  0
   36.3560   26.9280   39.3700 C   0  0  0  0  0  0  0  0  0  0  0  0
   35.8110   26.6090   38.2390 O   0  0  0  0  0  0  0  0  0  0  0  0
   35.9120   28.3160   39.5720 C   0  0  0  0  0  3  0  0  0  0  0  0
   36.5880   29.3490   40.1110 C   0  0  0  0  0  3  0  0  0  0  0  0
   36.2340   30.7700   40.3510 C   0  0  0  0  0  0  0  0  0  0  0  0
   35.9650   30.8670   41.4210 H   0  0  0  0  0  0  0  0  0  0  0  0
   35.4320   31.1230   39.6760 H   0  0  0  0  0  0  0  0  0  0  0  0
   37.4670   31.5740   40.1250 C   0  0  0  0  0  0  0  0  0  0  0  0
   37.4280   32.9550   40.1060 C   0  0  0  0  0  0  0  0  0  0  0  0
   36.4770   33.4730   40.2590 H   0  0  0  0  0  0  0  0  0  0  0  0
   38.5420   33.7360   39.8990 C   0  0  0  0  0  3  0  0  0  0  0  0
   39.7570   33.0880   39.7030 C   0  0  0  0  0  0  0  0  0  0  0  0
   40.6130   33.7410   39.5430 H   0  0  0  0  0  0  0  0  0  0  0  0
   39.8140   31.7090   39.7180 C   0  0  0  0  0  0  0  0  0  0  0  0
   40.7940   31.2720   39.5590 H   0  0  0  0  0  0  0  0  0  0  0  0
   38.6800   30.9400   39.9280 C   0  0  0  0  0  3  0  0  0  0  0  0
  1 16  1  0  0  0  0
  1  6  1  1  0  0  0
  2  1  1  0  0  0  0
  2  8  1  0  0  0  0
  3  2  1  0  0  0  0
  3  9  1  0  0  0  0
  4  3  1  0  0  0  0
  4  5  1  0  0  0  0
  4 11  1  0  0  0  0
  5 13  1  1  0  0  0
  5  1  1  0  0  0  0
  7  2  1  0  0  0  0
 10  3  1  0  0  0  0
 12  4  1  0  0  0  0
 14 20  1  0  0  0  0
 15 21  1  0  0  0  0
 15 14  2  0  0  0  0
 16 15  1  0  0  0  0
 17 16  2  0  0  0  0
 17 18  1  0  0  0  0
 18 19  2  0  0  0  0
 19 14  1  0  0  0  0
 22 18  1  0  0  0  0
 23  5  1  0  0  0  0
 24 26  1  0  0  0  0
 24 23  1  0  0  0  0
 25 24  2  0  0  0  0
 26 27  2  0  0  0  0
 27 28  1  0  0  0  0
 28 29  1  0  0  0  0
 30 28  1  0  0  0  0
 31 28  1  0  0  0  0
 32 31  1  0  0  0  0
 32 33  1  0  0  0  0
 34 32  2  0  0  0  0
 35 37  2  0  0  0  0
 35 34  1  0  0  0  0
 36 35  1  0  0  0  0
 37 39  1  0  0  0  0
 38 37  1  0  0  0  0
 39 31  2  0  0  0  0
M  END
>  <minimizedAffinity>
-5.13787889

$$$$
