
 OpenBabel03252507043D

 47 50  0  0  0  0  0  0  0  0999 V2000
   41.9250   33.8980   41.2380 C   0  0  0  0  0  0  0  0  0  0  0  0
   41.5940   33.8500   42.2980 H   0  0  0  0  0  0  0  0  0  0  0  0
   42.1800   35.0040   41.0950 H   0  0  0  0  0  0  0  0  0  0  0  0
   41.0050   33.4510   40.3740 N   0  0  0  0  0  0  0  0  0  0  0  0
   40.3840   32.1620   40.3650 C   0  0  0  0  0  0  0  0  0  0  0  0
   39.0100   32.5560   40.9070 C   0  0  0  0  0  0  0  0  0  0  0  0
   38.3110   33.5330   40.0910 C   0  0  0  0  0  0  0  0  0  0  0  0
   39.0830   34.4040   39.2320 C   0  0  0  0  0  0  0  0  0  0  0  0
   40.5850   34.4290   39.3490 C   0  0  0  0  0  0  0  0  0  0  0  0
   40.3350   31.6080   39.4460 H   0  0  0  0  0  0  0  0  0  0  0  0
   40.8440   31.5120   41.1370 H   0  0  0  0  0  0  0  0  0  0  0  0
   39.1200   32.8090   42.0010 H   0  0  0  0  0  0  0  0  0  0  0  0
   38.4470   31.5770   40.9410 H   0  0  0  0  0  0  0  0  0  0  0  0
   37.6700   34.1780   40.7520 H   0  0  0  0  0  0  0  0  0  0  0  0
   37.5670   33.0030   39.4260 H   0  0  0  0  0  0  0  0  0  0  0  0
   38.6690   35.0530   38.5300 H   0  0  0  0  0  0  0  0  0  0  0  0
   41.6180   35.4410   38.4210 S   0  0  0  0  0  0  0  0  0  0  0  0
   41.0330   36.8820   37.6900 C   0  0  0  0  0  0  0  0  0  0  0  0
   41.1270   36.6480   36.3000 C   0  0  0  0  0  0  0  0  0  0  0  0
   41.4570   35.8010   35.6770 H   0  0  0  0  0  0  0  0  0  0  0  0
   40.7500   37.6290   35.3640 C   0  0  0  0  0  3  0  0  0  0  0  0
   40.2780   38.8400   35.8500 C   0  0  0  0  0  0  0  0  0  0  0  0
   39.9610   39.6610   35.2150 H   0  0  0  0  0  0  0  0  0  0  0  0
   40.1710   39.1100   37.1920 C   0  0  0  0  0  0  0  0  0  0  0  0
   39.8150   40.0220   37.6430 H   0  0  0  0  0  0  0  0  0  0  0  0
   40.5580   38.1070   38.0310 C   0  0  0  0  0  3  0  0  0  0  0  0
   43.2390   33.2120   41.1230 C   0  0  0  0  0  0  0  0  0  0  0  0
   43.5000   32.9290   40.0810 H   0  0  0  0  0  0  0  0  0  0  0  0
   43.2340   32.2500   41.7100 H   0  0  0  0  0  0  0  0  0  0  0  0
   44.2590   34.0660   41.7560 C   0  0  0  0  0  0  0  0  0  0  0  0
   43.9000   35.2390   42.3770 C   0  0  0  0  0  0  0  0  0  0  0  0
   44.9030   36.0120   42.9520 C   0  0  0  0  0  0  0  0  0  0  0  0
   46.1920   35.5640   42.8700 N   0  0  0  0  0  0  0  0  0  0  0  0
   46.4990   34.4220   42.2610 C   0  0  0  0  0  0  0  0  0  0  0  0
   45.5200   33.7020   41.7170 N   0  0  0  0  0  0  0  0  0  0  0  0
   42.9650   35.7400   42.5570 H   0  0  0  0  0  0  0  0  0  0  0  0
   44.8100   36.9550   43.4760 H   0  0  0  0  0  0  0  0  0  0  0  0
   47.9020   34.0070   42.2570 C   0  0  0  0  0  0  0  0  0  0  0  0
   48.2390   32.6750   42.0370 C   0  0  0  0  0  0  0  0  0  0  0  0
   49.5630   32.2910   42.0470 C   0  0  0  0  0  0  0  0  0  0  0  0
   50.4450   33.3050   42.2830 C   0  0  0  0  0  0  0  0  0  0  0  0
   50.1680   34.6570   42.5130 C   0  0  0  0  0  0  0  0  0  0  0  0
   48.8350   34.9490   42.4840 N   0  0  0  0  0  0  0  0  0  0  0  0
   47.4650   31.9330   41.8550 H   0  0  0  0  0  0  0  0  0  0  0  0
   49.9030   31.2950   41.8870 H   0  0  0  0  0  0  0  0  0  0  0  0
   51.5160   33.0520   42.3030 H   0  0  0  0  0  0  0  0  0  0  0  0
   50.9340   35.3710   42.6880 H   0  0  0  0  0  0  0  0  0  0  0  0
  1  2  1  0  0  0  0
  3  1  1  0  0  0  0
  4  1  1  0  0  0  0
  5  4  1  0  0  0  0
  5  6  1  0  0  0  0
  5 11  1  0  0  0  0
  6 13  1  0  0  0  0
  6 12  1  0  0  0  0
  7 14  1  0  0  0  0
  7  6  1  0  0  0  0
  8  9  2  0  0  0  0
  8  7  1  0  0  0  0
  9  4  1  0  0  0  0
 10  5  1  0  0  0  0
 15  7  1  0  0  0  0
 16  8  1  0  0  0  0
 17  9  1  0  0  0  0
 18 26  1  0  0  0  0
 18 17  1  0  0  0  0
 19 18  2  0  0  0  0
 20 19  1  0  0  0  0
 21 22  2  0  0  0  0
 21 19  1  0  0  0  0
 22 24  1  0  0  0  0
 23 22  1  0  0  0  0
 24 25  1  0  0  0  0
 24 26  2  0  0  0  0
 27  1  1  0  0  0  0
 27 29  1  0  0  0  0
 27 30  1  0  0  0  0
 28 27  1  0  0  0  0
 30 31  1  0  0  0  0
 31 36  1  0  0  0  0
 31 32  2  0  0  0  0
 32 37  1  0  0  0  0
 33 32  1  0  0  0  0
 34 33  2  0  0  0  0
 35 30  2  0  0  0  0
 35 34  1  0  0  0  0
 38 34  1  0  0  0  0
 38 43  1  0  0  0  0
 39 40  1  0  0  0  0
 39 38  2  0  0  0  0
 40 41  2  0  0  0  0
 41 46  1  0  0  0  0
 41 42  1  0  0  0  0
 42 47  1  0  0  0  0
 43 42  2  0  0  0  0
 44 39  1  0  0  0  0
 45 40  1  0  0  0  0
M  END
>  <minimizedAffinity>
-2.60881591

>  <minimizedRMSD>
0.312962919

$$$$
