
 OpenBabel03242517203D

 39 41  0  0  0  0  0  0  0  0999 V2000
   34.8920   29.2240   40.0030 C   0  0  0  0  0  0  0  0  0  0  0  0
   35.3840   29.0460   38.6830 C   0  0  0  0  0  0  0  0  0  0  0  0
   36.7560   28.9240   38.4920 C   0  0  0  0  0  0  0  0  0  0  0  0
   37.5300   28.9860   39.6070 N   0  0  0  0  0  0  0  0  0  0  0  0
   37.0630   29.1530   40.8500 C   0  0  0  0  0  0  0  0  0  0  0  0
   35.7490   29.2680   41.0180 N   0  0  0  0  0  0  0  0  0  0  0  0
   33.8280   29.3180   40.1430 H   0  0  0  0  0  0  0  0  0  0  0  0
   37.1380   28.7900   37.5080 H   0  0  0  0  0  0  0  0  0  0  0  0
   37.8820   29.2190   42.0560 C   0  0  0  0  0  0  0  0  0  0  0  0
   38.0960   30.2280   42.4140 H   0  0  0  0  0  0  0  0  0  0  0  0
   38.8890   28.7900   41.7780 H   0  0  0  0  0  0  0  0  0  0  0  0
   37.3360   28.3060   43.1210 C   0  0  0  0  0  0  0  0  0  0  0  0
   37.5380   28.7760   44.1200 H   0  0  0  0  0  0  0  0  0  0  0  0
   36.2620   28.0980   43.0070 H   0  0  0  0  0  0  0  0  0  0  0  0
   38.1540   27.0650   43.1130 C   0  0  0  0  0  0  0  0  0  0  0  0
   39.3890   26.8330   43.6790 C   0  0  0  0  0  0  0  0  0  0  0  0
   39.7890   27.6940   44.1940 H   0  0  0  0  0  0  0  0  0  0  0  0
   39.9770   25.5920   43.5490 C   0  0  0  0  0  3  0  0  0  0  0  0
   39.3650   24.5620   42.8630 C   0  0  0  0  0  0  0  0  0  0  0  0
   39.8790   23.5910   42.7900 H   0  0  0  0  0  0  0  0  0  0  0  0
   38.1240   24.7860   42.2910 C   0  0  0  0  0  0  0  0  0  0  0  0
   37.6480   23.9620   41.7500 H   0  0  0  0  0  0  0  0  0  0  0  0
   37.5300   26.0250   42.4170 C   0  0  0  0  0  3  0  0  0  0  0  0
   34.4510   28.9940   37.5460 C   0  0  0  0  0  3  0  0  0  0  0  0
   33.1420   28.9390   37.6550 C   0  0  0  0  0  3  0  0  0  0  0  0
   32.2240   28.8880   36.4840 C   0  0  0  0  0  0  0  0  0  0  0  0
   32.8860   28.7590   35.5920 H   0  0  0  0  0  0  0  0  0  0  0  0
   31.5660   28.0190   36.4900 H   0  0  0  0  0  0  0  0  0  0  0  0
   30.5150   29.8840   38.4590 F   0  0  0  0  0  0  0  0  0  0  0  0
   30.6520   30.6010   37.3290 C   0  0  0  0  0  0  0  0  0  0  0  0
   31.4980   30.1380   36.3150 C   0  0  0  0  0  0  0  0  0  0  0  0
   31.5460   30.9650   35.2150 C   0  0  0  0  0  0  0  0  0  0  0  0
   30.8760   32.1480   35.0240 C   0  0  0  0  0  0  0  0  0  0  0  0
   30.0470   32.5390   36.0940 C   0  0  0  0  0  0  0  0  0  0  0  0
   29.9230   31.7930   37.2360 C   0  0  0  0  0  0  0  0  0  0  0  0
   32.1960   30.6350   34.4030 H   0  0  0  0  0  0  0  0  0  0  0  0
   30.9930   32.7160   34.1120 H   0  0  0  0  0  0  0  0  0  0  0  0
   29.5020   33.4680   35.9810 H   0  0  0  0  0  0  0  0  0  0  0  0
   29.2870   32.1220   38.0240 H   0  0  0  0  0  0  0  0  0  0  0  0
  1  7  1  0  0  0  0
  1  6  1  0  0  0  0
  2  1  2  0  0  0  0
  3  2  1  0  0  0  0
  3  4  2  0  0  0  0
  4  5  1  0  0  0  0
  5  6  2  0  0  0  0
  5  9  1  0  0  0  0
  8  3  1  0  0  0  0
  9 10  1  0  0  0  0
  9 12  1  0  0  0  0
 11  9  1  0  0  0  0
 12 13  1  0  0  0  0
 14 12  1  0  0  0  0
 15 12  1  0  0  0  0
 15 16  1  0  0  0  0
 16 17  1  0  0  0  0
 18 16  2  0  0  0  0
 19 18  1  0  0  0  0
 20 19  1  0  0  0  0
 21 23  1  0  0  0  0
 21 19  2  0  0  0  0
 22 21  1  0  0  0  0
 23 15  2  0  0  0  0
 24 25  2  0  0  0  0
 24  2  1  0  0  0  0
 26 28  1  0  0  0  0
 26 25  1  0  0  0  0
 27 26  1  0  0  0  0
 30 29  1  0  0  0  0
 31 26  1  0  0  0  0
 31 30  2  0  0  0  0
 32 31  1  0  0  0  0
 33 32  2  0  0  0  0
 33 34  1  0  0  0  0
 34 35  2  0  0  0  0
 35 30  1  0  0  0  0
 35 39  1  0  0  0  0
 36 32  1  0  0  0  0
 37 33  1  0  0  0  0
 38 34  1  0  0  0  0
M  END
>  <minimizedAffinity>
-6.42694283

$$$$

 OpenBabel03242517203D

 39 41  0  0  0  0  0  0  0  0999 V2000
   35.0390   29.0920   40.0810 C   0  0  0  0  0  0  0  0  0  0  0  0
   35.5420   29.1700   38.7560 C   0  0  0  0  0  0  0  0  0  0  0  0
   36.9160   29.2660   38.5660 C   0  0  0  0  0  0  0  0  0  0  0  0
   37.6820   29.2770   39.6890 N   0  0  0  0  0  0  0  0  0  0  0  0
   37.2050   29.2040   40.9370 C   0  0  0  0  0  0  0  0  0  0  0  0
   35.8890   29.1120   41.1030 N   0  0  0  0  0  0  0  0  0  0  0  0
   33.9740   29.0190   40.2200 H   0  0  0  0  0  0  0  0  0  0  0  0
   37.3050   29.3240   37.5780 H   0  0  0  0  0  0  0  0  0  0  0  0
   38.0160   29.2120   42.1500 C   0  0  0  0  0  0  0  0  0  0  0  0
   38.2390   30.2030   42.5490 H   0  0  0  0  0  0  0  0  0  0  0  0
   39.0200   28.7820   41.8630 H   0  0  0  0  0  0  0  0  0  0  0  0
   37.4510   28.2640   43.1750 C   0  0  0  0  0  0  0  0  0  0  0  0
   37.6210   28.7090   44.1910 H   0  0  0  0  0  0  0  0  0  0  0  0
   36.3820   28.0500   43.0260 H   0  0  0  0  0  0  0  0  0  0  0  0
   38.2820   27.0320   43.1550 C   0  0  0  0  0  0  0  0  0  0  0  0
   39.5390   26.8230   43.6790 C   0  0  0  0  0  0  0  0  0  0  0  0
   39.9490   27.6960   44.1640 H   0  0  0  0  0  0  0  0  0  0  0  0
   40.1360   25.5860   43.5460 C   0  0  0  0  0  3  0  0  0  0  0  0
   39.5100   24.5380   42.9000 C   0  0  0  0  0  0  0  0  0  0  0  0
   40.0320   23.5720   42.8220 H   0  0  0  0  0  0  0  0  0  0  0  0
   38.2460   24.7400   42.3710 C   0  0  0  0  0  0  0  0  0  0  0  0
   37.7600   23.9030   41.8610 H   0  0  0  0  0  0  0  0  0  0  0  0
   37.6430   25.9750   42.5000 C   0  0  0  0  0  3  0  0  0  0  0  0
   34.6160   29.1500   37.6110 C   0  0  0  0  0  3  0  0  0  0  0  0
   33.3250   28.9250   37.6990 C   0  0  0  0  0  3  0  0  0  0  0  0
   32.4130   28.9120   36.5200 C   0  0  0  0  0  0  0  0  0  0  0  0
   33.0820   28.9750   35.6260 H   0  0  0  0  0  0  0  0  0  0  0  0
   31.8640   27.9760   36.4110 H   0  0  0  0  0  0  0  0  0  0  0  0
   32.2180   30.5760   34.2830 F   0  0  0  0  0  0  0  0  0  0  0  0
   31.4740   30.8840   35.3600 C   0  0  0  0  0  0  0  0  0  0  0  0
   31.5420   30.0770   36.5010 C   0  0  0  0  0  0  0  0  0  0  0  0
   30.7320   30.5050   37.5290 C   0  0  0  0  0  0  0  0  0  0  0  0
   29.9000   31.5960   37.5440 C   0  0  0  0  0  0  0  0  0  0  0  0
   29.8930   32.3530   36.3550 C   0  0  0  0  0  0  0  0  0  0  0  0
   30.6600   32.0190   35.2710 C   0  0  0  0  0  0  0  0  0  0  0  0
   30.7590   29.8980   38.4360 H   0  0  0  0  0  0  0  0  0  0  0  0
   29.3060   31.8350   38.4150 H   0  0  0  0  0  0  0  0  0  0  0  0
   29.2480   33.2220   36.3280 H   0  0  0  0  0  0  0  0  0  0  0  0
   30.6260   32.6160   34.3890 H   0  0  0  0  0  0  0  0  0  0  0  0
  1  7  1  0  0  0  0
  1  6  1  0  0  0  0
  2  1  2  0  0  0  0
  3  2  1  0  0  0  0
  3  4  2  0  0  0  0
  4  5  1  0  0  0  0
  5  6  2  0  0  0  0
  5  9  1  0  0  0  0
  8  3  1  0  0  0  0
  9 10  1  0  0  0  0
  9 12  1  0  0  0  0
 11  9  1  0  0  0  0
 12 13  1  0  0  0  0
 14 12  1  0  0  0  0
 15 12  1  0  0  0  0
 15 16  1  0  0  0  0
 16 17  1  0  0  0  0
 18 16  2  0  0  0  0
 19 18  1  0  0  0  0
 20 19  1  0  0  0  0
 21 23  1  0  0  0  0
 21 19  2  0  0  0  0
 22 21  1  0  0  0  0
 23 15  2  0  0  0  0
 24 25  2  0  0  0  0
 24  2  1  0  0  0  0
 26 25  1  0  0  0  0
 27 26  1  0  0  0  0
 28 26  1  0  0  0  0
 29 30  1  0  0  0  0
 30 31  1  0  0  0  0
 31 26  1  0  0  0  0
 31 32  2  0  0  0  0
 32 33  1  0  0  0  0
 32 36  1  0  0  0  0
 33 37  1  0  0  0  0
 34 33  2  0  0  0  0
 35 30  2  0  0  0  0
 35 34  1  0  0  0  0
 38 34  1  0  0  0  0
 39 35  1  0  0  0  0
M  END
>  <minimizedAffinity>
-6.37820292

$$$$

 OpenBabel03242517203D

 39 41  0  0  0  0  0  0  0  0999 V2000
   35.9850   27.3640   38.8610 C   0  0  0  0  0  0  0  0  0  0  0  0
   35.1950   28.5420   38.9300 C   0  0  0  0  0  0  0  0  0  0  0  0
   35.1050   29.2170   40.1420 C   0  0  0  0  0  0  0  0  0  0  0  0
   35.7960   28.6830   41.1830 N   0  0  0  0  0  0  0  0  0  0  0  0
   36.5400   27.5730   41.1160 C   0  0  0  0  0  0  0  0  0  0  0  0
   36.6170   26.9380   39.9500 N   0  0  0  0  0  0  0  0  0  0  0  0
   36.0490   26.8460   37.9190 H   0  0  0  0  0  0  0  0  0  0  0  0
   34.5160   30.1000   40.2070 H   0  0  0  0  0  0  0  0  0  0  0  0
   37.2890   26.9910   42.2250 C   0  0  0  0  0  0  0  0  0  0  0  0
   38.1800   26.4310   41.9370 H   0  0  0  0  0  0  0  0  0  0  0  0
   36.6060   26.2270   42.7010 H   0  0  0  0  0  0  0  0  0  0  0  0
   37.5450   28.0220   43.2930 C   0  0  0  0  0  0  0  0  0  0  0  0
   36.8590   28.8900   43.1100 H   0  0  0  0  0  0  0  0  0  0  0  0
   37.4060   27.6340   44.3130 H   0  0  0  0  0  0  0  0  0  0  0  0
   38.9120   28.5630   43.0770 C   0  0  0  0  0  0  0  0  0  0  0  0
   40.1240   27.9090   43.1180 C   0  0  0  0  0  0  0  0  0  0  0  0
   40.0310   26.8560   43.3420 H   0  0  0  0  0  0  0  0  0  0  0  0
   41.2880   28.6120   42.8850 C   0  0  0  0  0  3  0  0  0  0  0  0
   41.2810   29.9650   42.6080 C   0  0  0  0  0  0  0  0  0  0  0  0
   42.2380   30.4770   42.4290 H   0  0  0  0  0  0  0  0  0  0  0  0
   40.0670   30.6300   42.5630 C   0  0  0  0  0  0  0  0  0  0  0  0
   40.0740   31.7020   42.3430 H   0  0  0  0  0  0  0  0  0  0  0  0
   38.8990   29.9330   42.7970 C   0  0  0  0  0  3  0  0  0  0  0  0
   34.4870   29.0290   37.7340 C   0  0  0  0  0  3  0  0  0  0  0  0
   33.3600   28.5310   37.2790 C   0  0  0  0  0  3  0  0  0  0  0  0
   32.6670   29.0470   36.0650 C   0  0  0  0  0  0  0  0  0  0  0  0
   33.4630   29.5450   35.4570 H   0  0  0  0  0  0  0  0  0  0  0  0
   32.2640   28.2580   35.4310 H   0  0  0  0  0  0  0  0  0  0  0  0
   32.0300   31.1330   34.3160 F   0  0  0  0  0  0  0  0  0  0  0  0
   31.3860   31.0850   35.4960 C   0  0  0  0  0  0  0  0  0  0  0  0
   31.6750   30.0570   36.4010 C   0  0  0  0  0  0  0  0  0  0  0  0
   30.9450   30.1260   37.5670 C   0  0  0  0  0  0  0  0  0  0  0  0
   30.0040   31.0630   37.9150 C   0  0  0  0  0  0  0  0  0  0  0  0
   29.7760   32.0610   36.9460 C   0  0  0  0  0  0  0  0  0  0  0  0
   30.4440   32.0900   35.7520 C   0  0  0  0  0  0  0  0  0  0  0  0
   31.1450   29.3390   38.2960 H   0  0  0  0  0  0  0  0  0  0  0  0
   29.4920   31.0140   38.8650 H   0  0  0  0  0  0  0  0  0  0  0  0
   29.0380   32.8170   37.1840 H   0  0  0  0  0  0  0  0  0  0  0  0
   30.2430   32.8600   35.0450 H   0  0  0  0  0  0  0  0  0  0  0  0
  1  2  2  0  0  0  0
  1  6  1  0  0  0  0
  2  3  1  0  0  0  0
  3  8  1  0  0  0  0
  3  4  2  0  0  0  0
  5  4  1  0  0  0  0
  5  9  1  0  0  0  0
  6  5  2  0  0  0  0
  7  1  1  0  0  0  0
  9 11  1  0  0  0  0
  9 12  1  0  0  0  0
 10  9  1  0  0  0  0
 12 14  1  0  0  0  0
 13 12  1  0  0  0  0
 15 16  1  0  0  0  0
 15 12  1  0  0  0  0
 16 17  1  0  0  0  0
 18 16  2  0  0  0  0
 19 18  1  0  0  0  0
 20 19  1  0  0  0  0
 21 19  2  0  0  0  0
 21 23  1  0  0  0  0
 22 21  1  0  0  0  0
 23 15  2  0  0  0  0
 24  2  1  0  0  0  0
 25 24  2  0  0  0  0
 26 31  1  0  0  0  0
 26 25  1  0  0  0  0
 27 26  1  0  0  0  0
 28 26  1  0  0  0  0
 29 30  1  0  0  0  0
 30 35  2  0  0  0  0
 30 31  1  0  0  0  0
 31 32  2  0  0  0  0
 32 33  1  0  0  0  0
 32 36  1  0  0  0  0
 33 37  1  0  0  0  0
 34 38  1  0  0  0  0
 34 33  2  0  0  0  0
 35 34  1  0  0  0  0
 39 35  1  0  0  0  0
M  END
>  <minimizedAffinity>
-6.13287306

$$$$

 OpenBabel03242517203D

 39 41  0  0  0  0  0  0  0  0999 V2000
   35.4400   27.3570   38.2920 C   0  0  0  0  0  0  0  0  0  0  0  0
   36.1140   28.3590   39.0380 C   0  0  0  0  0  0  0  0  0  0  0  0
   36.1910   29.6450   38.5140 C   0  0  0  0  0  0  0  0  0  0  0  0
   35.6030   29.8410   37.3050 N   0  0  0  0  0  0  0  0  0  0  0  0
   34.9690   28.8940   36.6030 C   0  0  0  0  0  0  0  0  0  0  0  0
   34.9020   27.6690   37.1170 N   0  0  0  0  0  0  0  0  0  0  0  0
   35.3840   26.3630   38.7040 H   0  0  0  0  0  0  0  0  0  0  0  0
   36.6930   30.4040   39.0640 H   0  0  0  0  0  0  0  0  0  0  0  0
   34.3310   29.0920   35.3060 C   0  0  0  0  0  0  0  0  0  0  0  0
   34.8880   28.6990   34.4530 H   0  0  0  0  0  0  0  0  0  0  0  0
   34.2940   30.2080   35.1390 H   0  0  0  0  0  0  0  0  0  0  0  0
   32.8940   28.6430   35.3440 C   0  0  0  0  0  0  0  0  0  0  0  0
   32.6250   28.2510   34.3280 H   0  0  0  0  0  0  0  0  0  0  0  0
   32.6980   27.8800   36.1120 H   0  0  0  0  0  0  0  0  0  0  0  0
   32.0490   29.8530   35.5230 C   0  0  0  0  0  0  0  0  0  0  0  0
   31.3080   30.2420   36.6170 C   0  0  0  0  0  0  0  0  0  0  0  0
   31.3720   29.5490   37.4430 H   0  0  0  0  0  0  0  0  0  0  0  0
   30.5870   31.4180   36.5690 C   0  0  0  0  0  3  0  0  0  0  0  0
   30.5820   32.2260   35.4500 C   0  0  0  0  0  0  0  0  0  0  0  0
   29.9890   33.1540   35.4650 H   0  0  0  0  0  0  0  0  0  0  0  0
   31.3250   31.8420   34.3460 C   0  0  0  0  0  0  0  0  0  0  0  0
   31.3130   32.4910   33.4650 H   0  0  0  0  0  0  0  0  0  0  0  0
   32.0480   30.6670   34.3860 C   0  0  0  0  0  3  0  0  0  0  0  0
   36.7160   28.0310   40.3410 C   0  0  0  0  0  3  0  0  0  0  0  0
   36.1260   28.2050   41.5020 C   0  0  0  0  0  3  0  0  0  0  0  0
   36.7630   27.8630   42.8040 C   0  0  0  0  0  0  0  0  0  0  0  0
   37.4670   28.7040   43.0220 H   0  0  0  0  0  0  0  0  0  0  0  0
   36.0590   27.8460   43.6370 H   0  0  0  0  0  0  0  0  0  0  0  0
   39.4450   27.7730   43.5880 F   0  0  0  0  0  0  0  0  0  0  0  0
   38.8900   26.6410   43.1170 C   0  0  0  0  0  0  0  0  0  0  0  0
   37.5510   26.6430   42.7140 C   0  0  0  0  0  0  0  0  0  0  0  0
   37.1110   25.4220   42.2530 C   0  0  0  0  0  0  0  0  0  0  0  0
   37.8250   24.2540   42.1540 C   0  0  0  0  0  0  0  0  0  0  0  0
   39.1660   24.3420   42.5810 C   0  0  0  0  0  0  0  0  0  0  0  0
   39.7080   25.5060   43.0570 C   0  0  0  0  0  0  0  0  0  0  0  0
   36.0690   25.3860   41.9300 H   0  0  0  0  0  0  0  0  0  0  0  0
   37.3700   23.3500   41.7750 H   0  0  0  0  0  0  0  0  0  0  0  0
   39.7620   23.4410   42.5200 H   0  0  0  0  0  0  0  0  0  0  0  0
   40.7250   25.5320   43.3710 H   0  0  0  0  0  0  0  0  0  0  0  0
  1  7  1  0  0  0  0
  1  2  1  0  0  0  0
  2 24  1  0  0  0  0
  3  2  2  0  0  0  0
  3  8  1  0  0  0  0
  4  3  1  0  0  0  0
  5  6  1  0  0  0  0
  5  4  2  0  0  0  0
  6  1  2  0  0  0  0
  9 12  1  0  0  0  0
  9  5  1  0  0  0  0
 10  9  1  0  0  0  0
 11  9  1  0  0  0  0
 12 15  1  0  0  0  0
 12 14  1  0  0  0  0
 13 12  1  0  0  0  0
 15 16  1  0  0  0  0
 16 17  1  0  0  0  0
 18 16  2  0  0  0  0
 19 20  1  0  0  0  0
 19 18  1  0  0  0  0
 21 23  1  0  0  0  0
 21 19  2  0  0  0  0
 22 21  1  0  0  0  0
 23 15  2  0  0  0  0
 24 25  2  0  0  0  0
 25 26  1  0  0  0  0
 26 27  1  0  0  0  0
 26 28  1  0  0  0  0
 30 29  1  0  0  0  0
 31 26  1  0  0  0  0
 31 30  2  0  0  0  0
 32 31  1  0  0  0  0
 33 32  2  0  0  0  0
 33 34  1  0  0  0  0
 34 35  2  0  0  0  0
 35 30  1  0  0  0  0
 35 39  1  0  0  0  0
 36 32  1  0  0  0  0
 37 33  1  0  0  0  0
 38 34  1  0  0  0  0
M  END
>  <minimizedAffinity>
-5.91585493

$$$$

 OpenBabel03242517203D

 39 41  0  0  0  0  0  0  0  0999 V2000
   36.5410   28.5080   38.8320 C   0  0  0  0  0  0  0  0  0  0  0  0
   35.8920   28.8070   40.0580 C   0  0  0  0  0  0  0  0  0  0  0  0
   34.5300   29.0900   40.0430 C   0  0  0  0  0  0  0  0  0  0  0  0
   33.9200   29.0550   38.8300 N   0  0  0  0  0  0  0  0  0  0  0  0
   34.5340   28.7730   37.6750 C   0  0  0  0  0  0  0  0  0  0  0  0
   35.8360   28.5040   37.7050 N   0  0  0  0  0  0  0  0  0  0  0  0
   37.5960   28.2910   38.8510 H   0  0  0  0  0  0  0  0  0  0  0  0
   34.0320   29.3150   40.9550 H   0  0  0  0  0  0  0  0  0  0  0  0
   33.8900   28.7300   36.3660 C   0  0  0  0  0  0  0  0  0  0  0  0
   34.2920   27.9840   35.6780 H   0  0  0  0  0  0  0  0  0  0  0  0
   34.1060   29.7240   35.8750 H   0  0  0  0  0  0  0  0  0  0  0  0
   32.3920   28.6710   36.5110 C   0  0  0  0  0  0  0  0  0  0  0  0
   32.0110   27.8500   35.8480 H   0  0  0  0  0  0  0  0  0  0  0  0
   32.0620   28.5080   37.5480 H   0  0  0  0  0  0  0  0  0  0  0  0
   31.8340   29.9200   35.9310 C   0  0  0  0  0  0  0  0  0  0  0  0
   32.0100   30.4480   34.6700 C   0  0  0  0  0  0  0  0  0  0  0  0
   32.6490   29.8440   34.0420 H   0  0  0  0  0  0  0  0  0  0  0  0
   31.3930   31.6350   34.3350 C   0  0  0  0  0  3  0  0  0  0  0  0
   30.5940   32.3210   35.2290 C   0  0  0  0  0  0  0  0  0  0  0  0
   30.1250   33.2640   34.9090 H   0  0  0  0  0  0  0  0  0  0  0  0
   30.4110   31.7970   36.4980 C   0  0  0  0  0  0  0  0  0  0  0  0
   29.7760   32.3490   37.1970 H   0  0  0  0  0  0  0  0  0  0  0  0
   31.0270   30.6100   36.8400 C   0  0  0  0  0  3  0  0  0  0  0  0
   36.6560   28.8160   41.3170 C   0  0  0  0  0  3  0  0  0  0  0  0
   36.4640   27.9830   42.3140 C   0  0  0  0  0  3  0  0  0  0  0  0
   37.2550   28.0170   43.5750 C   0  0  0  0  0  0  0  0  0  0  0  0
   37.2550   29.0880   43.8970 H   0  0  0  0  0  0  0  0  0  0  0  0
   36.7890   27.4650   44.3910 H   0  0  0  0  0  0  0  0  0  0  0  0
   39.2530   29.8930   43.0240 F   0  0  0  0  0  0  0  0  0  0  0  0
   39.6080   28.5970   43.0800 C   0  0  0  0  0  0  0  0  0  0  0  0
   38.6390   27.6260   43.3530 C   0  0  0  0  0  0  0  0  0  0  0  0
   39.1360   26.3420   43.3820 C   0  0  0  0  0  0  0  0  0  0  0  0
   40.4320   25.9380   43.1770 C   0  0  0  0  0  0  0  0  0  0  0  0
   41.3420   26.9810   42.9080 C   0  0  0  0  0  0  0  0  0  0  0  0
   40.9570   28.2940   42.8560 C   0  0  0  0  0  0  0  0  0  0  0  0
   38.4070   25.5570   43.5920 H   0  0  0  0  0  0  0  0  0  0  0  0
   40.7070   24.8940   43.2250 H   0  0  0  0  0  0  0  0  0  0  0  0
   42.3750   26.7020   42.7420 H   0  0  0  0  0  0  0  0  0  0  0  0
   41.6740   29.0530   42.6500 H   0  0  0  0  0  0  0  0  0  0  0  0
  1  7  1  0  0  0  0
  1  2  1  0  0  0  0
  2 24  1  0  0  0  0
  3  2  2  0  0  0  0
  3  8  1  0  0  0  0
  4  3  1  0  0  0  0
  5  6  1  0  0  0  0
  5  4  2  0  0  0  0
  6  1  2  0  0  0  0
  9 12  1  0  0  0  0
  9  5  1  0  0  0  0
 10  9  1  0  0  0  0
 11  9  1  0  0  0  0
 12 14  1  0  0  0  0
 13 12  1  0  0  0  0
 15 12  1  0  0  0  0
 15 23  1  0  0  0  0
 16 15  2  0  0  0  0
 17 16  1  0  0  0  0
 18 16  1  0  0  0  0
 18 19  2  0  0  0  0
 19 21  1  0  0  0  0
 20 19  1  0  0  0  0
 21 23  2  0  0  0  0
 21 22  1  0  0  0  0
 24 25  2  0  0  0  0
 25 26  1  0  0  0  0
 26 27  1  0  0  0  0
 26 28  1  0  0  0  0
 29 30  1  0  0  0  0
 30 31  1  0  0  0  0
 31 32  2  0  0  0  0
 31 26  1  0  0  0  0
 32 36  1  0  0  0  0
 33 37  1  0  0  0  0
 33 32  1  0  0  0  0
 34 33  2  0  0  0  0
 35 34  1  0  0  0  0
 35 30  2  0  0  0  0
 38 34  1  0  0  0  0
 39 35  1  0  0  0  0
M  END
>  <minimizedAffinity>
-5.9062047

$$$$

 OpenBabel03242517203D

 39 41  0  0  0  0  0  0  0  0999 V2000
   36.4600   29.4760   38.3240 C   0  0  0  0  0  0  0  0  0  0  0  0
   35.2530   29.1780   39.0100 C   0  0  0  0  0  0  0  0  0  0  0  0
   35.2520   29.1970   40.4010 C   0  0  0  0  0  0  0  0  0  0  0  0
   36.4310   29.5050   41.0010 N   0  0  0  0  0  0  0  0  0  0  0  0
   37.5680   29.7850   40.3520 C   0  0  0  0  0  0  0  0  0  0  0  0
   37.5530   29.7640   39.0230 N   0  0  0  0  0  0  0  0  0  0  0  0
   36.4530   29.4590   37.2470 H   0  0  0  0  0  0  0  0  0  0  0  0
   34.3550   28.9760   40.9270 H   0  0  0  0  0  0  0  0  0  0  0  0
   38.8390   30.1200   40.9850 C   0  0  0  0  0  0  0  0  0  0  0  0
   39.2780   31.0670   40.6660 H   0  0  0  0  0  0  0  0  0  0  0  0
   39.5760   29.3320   40.6510 H   0  0  0  0  0  0  0  0  0  0  0  0
   38.7450   29.9740   42.4810 C   0  0  0  0  0  0  0  0  0  0  0  0
   39.2740   30.8450   42.9490 H   0  0  0  0  0  0  0  0  0  0  0  0
   37.7090   29.9140   42.8470 H   0  0  0  0  0  0  0  0  0  0  0  0
   39.5490   28.7860   42.8690 C   0  0  0  0  0  0  0  0  0  0  0  0
   40.9180   28.6260   42.8720 C   0  0  0  0  0  0  0  0  0  0  0  0
   41.4500   29.5050   42.5400 H   0  0  0  0  0  0  0  0  0  0  0  0
   41.4630   27.4240   43.2740 C   0  0  0  0  0  3  0  0  0  0  0  0
   40.6770   26.3640   43.6790 C   0  0  0  0  0  0  0  0  0  0  0  0
   41.1640   25.4270   43.9900 H   0  0  0  0  0  0  0  0  0  0  0  0
   39.3000   26.5170   43.6800 C   0  0  0  0  0  0  0  0  0  0  0  0
   38.6870   25.6700   44.0020 H   0  0  0  0  0  0  0  0  0  0  0  0
   38.7480   27.7160   43.2770 C   0  0  0  0  0  3  0  0  0  0  0  0
   34.0320   28.8560   38.2540 C   0  0  0  0  0  3  0  0  0  0  0  0
   33.8390   29.1480   36.9870 C   0  0  0  0  0  3  0  0  0  0  0  0
   32.5900   28.8080   36.2490 C   0  0  0  0  0  0  0  0  0  0  0  0
   32.9290   28.3290   35.2970 H   0  0  0  0  0  0  0  0  0  0  0  0
   31.9820   28.0580   36.7550 H   0  0  0  0  0  0  0  0  0  0  0  0
   30.8750   30.0600   38.0670 F   0  0  0  0  0  0  0  0  0  0  0  0
   30.9840   30.5940   36.8370 C   0  0  0  0  0  0  0  0  0  0  0  0
   31.8320   29.9990   35.8970 C   0  0  0  0  0  0  0  0  0  0  0  0
   31.8500   30.6460   34.6810 C   0  0  0  0  0  0  0  0  0  0  0  0
   31.1490   31.7680   34.3160 C   0  0  0  0  0  0  0  0  0  0  0  0
   30.3200   32.3010   35.3230 C   0  0  0  0  0  0  0  0  0  0  0  0
   30.2240   31.7400   36.5680 C   0  0  0  0  0  0  0  0  0  0  0  0
   32.5010   30.2080   33.9220 H   0  0  0  0  0  0  0  0  0  0  0  0
   31.2440   32.1900   33.3250 H   0  0  0  0  0  0  0  0  0  0  0  0
   29.7510   33.1880   35.0740 H   0  0  0  0  0  0  0  0  0  0  0  0
   29.5870   32.1730   37.3030 H   0  0  0  0  0  0  0  0  0  0  0  0
  1  2  2  0  0  0  0
  1  6  1  0  0  0  0
  2  3  1  0  0  0  0
  3  8  1  0  0  0  0
  3  4  2  0  0  0  0
  5  9  1  0  0  0  0
  5  4  1  0  0  0  0
  6  5  2  0  0  0  0
  7  1  1  0  0  0  0
  9 12  1  0  0  0  0
 10  9  1  0  0  0  0
 11  9  1  0  0  0  0
 12 14  1  0  0  0  0
 12 15  1  0  0  0  0
 12 13  1  0  0  0  0
 15 16  2  0  0  0  0
 15 23  1  0  0  0  0
 16 18  1  0  0  0  0
 17 16  1  0  0  0  0
 18 19  2  0  0  0  0
 19 21  1  0  0  0  0
 19 20  1  0  0  0  0
 21 22  1  0  0  0  0
 23 21  2  0  0  0  0
 24  2  1  0  0  0  0
 25 24  2  0  0  0  0
 26 28  1  0  0  0  0
 26 25  1  0  0  0  0
 27 26  1  0  0  0  0
 30 29  1  0  0  0  0
 31 26  1  0  0  0  0
 31 30  2  0  0  0  0
 32 31  1  0  0  0  0
 33 32  2  0  0  0  0
 33 34  1  0  0  0  0
 34 35  2  0  0  0  0
 35 30  1  0  0  0  0
 35 39  1  0  0  0  0
 36 32  1  0  0  0  0
 37 33  1  0  0  0  0
 38 34  1  0  0  0  0
M  END
>  <minimizedAffinity>
-5.90550613

$$$$

 OpenBabel03242517203D

 39 41  0  0  0  0  0  0  0  0999 V2000
   35.8570   29.7740   38.6590 C   0  0  0  0  0  0  0  0  0  0  0  0
   35.7730   28.9180   37.5300 C   0  0  0  0  0  0  0  0  0  0  0  0
   36.9020   28.1980   37.1510 C   0  0  0  0  0  0  0  0  0  0  0  0
   38.0150   28.3780   37.9090 N   0  0  0  0  0  0  0  0  0  0  0  0
   38.0900   29.1850   38.9740 C   0  0  0  0  0  0  0  0  0  0  0  0
   37.0030   29.8670   39.3240 N   0  0  0  0  0  0  0  0  0  0  0  0
   34.9790   30.3280   38.9460 H   0  0  0  0  0  0  0  0  0  0  0  0
   36.8520   27.5540   36.3070 H   0  0  0  0  0  0  0  0  0  0  0  0
   39.2780   29.3850   39.7980 C   0  0  0  0  0  0  0  0  0  0  0  0
   39.2340   30.2430   40.4710 H   0  0  0  0  0  0  0  0  0  0  0  0
   40.1220   29.6180   39.0840 H   0  0  0  0  0  0  0  0  0  0  0  0
   39.6730   28.1030   40.4820 C   0  0  0  0  0  0  0  0  0  0  0  0
   39.5650   27.2660   39.7420 H   0  0  0  0  0  0  0  0  0  0  0  0
   40.6960   28.1230   40.8880 H   0  0  0  0  0  0  0  0  0  0  0  0
   38.6570   27.8190   41.5280 C   0  0  0  0  0  0  0  0  0  0  0  0
   37.7820   26.7590   41.6270 C   0  0  0  0  0  0  0  0  0  0  0  0
   37.8740   26.0540   40.8140 H   0  0  0  0  0  0  0  0  0  0  0  0
   36.9110   26.6910   42.6950 C   0  0  0  0  0  3  0  0  0  0  0  0
   36.8840   27.6590   43.6790 C   0  0  0  0  0  0  0  0  0  0  0  0
   36.1680   27.5550   44.5090 H   0  0  0  0  0  0  0  0  0  0  0  0
   37.7600   28.7280   43.5880 C   0  0  0  0  0  0  0  0  0  0  0  0
   37.7300   29.4890   44.3740 H   0  0  0  0  0  0  0  0  0  0  0  0
   38.6340   28.8030   42.5220 C   0  0  0  0  0  3  0  0  0  0  0  0
   34.5110   28.8020   36.7800 C   0  0  0  0  0  3  0  0  0  0  0  0
   33.3160   28.9610   37.3010 C   0  0  0  0  0  3  0  0  0  0  0  0
   32.0560   28.8380   36.5150 C   0  0  0  0  0  0  0  0  0  0  0  0
   32.3760   28.5370   35.4860 H   0  0  0  0  0  0  0  0  0  0  0  0
   31.4050   28.0380   36.8670 H   0  0  0  0  0  0  0  0  0  0  0  0
   32.1210   30.3570   34.1700 F   0  0  0  0  0  0  0  0  0  0  0  0
   31.4220   30.8420   35.2120 C   0  0  0  0  0  0  0  0  0  0  0  0
   31.3640   30.1130   36.4050 C   0  0  0  0  0  0  0  0  0  0  0  0
   30.6180   30.7230   37.3890 C   0  0  0  0  0  0  0  0  0  0  0  0
   29.9540   31.9220   37.3180 C   0  0  0  0  0  0  0  0  0  0  0  0
   30.0660   32.5890   36.0820 C   0  0  0  0  0  0  0  0  0  0  0  0
   30.7830   32.0750   35.0340 C   0  0  0  0  0  0  0  0  0  0  0  0
   30.5510   30.1810   38.3340 H   0  0  0  0  0  0  0  0  0  0  0  0
   29.3950   32.3020   38.1620 H   0  0  0  0  0  0  0  0  0  0  0  0
   29.5540   33.5390   35.9870 H   0  0  0  0  0  0  0  0  0  0  0  0
   30.8430   32.6090   34.1150 H   0  0  0  0  0  0  0  0  0  0  0  0
  1  7  1  0  0  0  0
  1  6  1  0  0  0  0
  2  1  2  0  0  0  0
  3  2  1  0  0  0  0
  3  4  2  0  0  0  0
  4  5  1  0  0  0  0
  5  6  2  0  0  0  0
  5  9  1  0  0  0  0
  8  3  1  0  0  0  0
  9 10  1  0  0  0  0
  9 12  1  0  0  0  0
 11  9  1  0  0  0  0
 12 14  1  0  0  0  0
 12 15  1  0  0  0  0
 13 12  1  0  0  0  0
 15 16  2  0  0  0  0
 15 23  1  0  0  0  0
 16 18  1  0  0  0  0
 17 16  1  0  0  0  0
 18 19  2  0  0  0  0
 19 20  1  0  0  0  0
 21 19  1  0  0  0  0
 21 22  1  0  0  0  0
 23 21  2  0  0  0  0
 24 25  2  0  0  0  0
 24  2  1  0  0  0  0
 26 28  1  0  0  0  0
 26 25  1  0  0  0  0
 27 26  1  0  0  0  0
 29 30  1  0  0  0  0
 30 31  1  0  0  0  0
 31 26  1  0  0  0  0
 31 32  2  0  0  0  0
 32 36  1  0  0  0  0
 33 32  1  0  0  0  0
 33 37  1  0  0  0  0
 34 33  2  0  0  0  0
 35 30  2  0  0  0  0
 35 34  1  0  0  0  0
 38 34  1  0  0  0  0
 39 35  1  0  0  0  0
M  END
>  <minimizedAffinity>
-5.66929722

$$$$

 OpenBabel03242517203D

 39 41  0  0  0  0  0  0  0  0999 V2000
   36.1980   28.8830   38.1460 C   0  0  0  0  0  0  0  0  0  0  0  0
   35.0170   29.0190   38.9230 C   0  0  0  0  0  0  0  0  0  0  0  0
   35.1370   29.2960   40.2800 C   0  0  0  0  0  0  0  0  0  0  0  0
   36.4020   29.4150   40.7630 N   0  0  0  0  0  0  0  0  0  0  0  0
   37.5130   29.2860   40.0290 C   0  0  0  0  0  0  0  0  0  0  0  0
   37.3830   29.0220   38.7320 N   0  0  0  0  0  0  0  0  0  0  0  0
   36.0970   28.6680   37.0960 H   0  0  0  0  0  0  0  0  0  0  0  0
   34.2600   29.4010   40.8730 H   0  0  0  0  0  0  0  0  0  0  0  0
   38.8760   29.4150   40.5330 C   0  0  0  0  0  0  0  0  0  0  0  0
   39.6470   29.4970   39.7650 H   0  0  0  0  0  0  0  0  0  0  0  0
   39.1060   28.4490   41.0720 H   0  0  0  0  0  0  0  0  0  0  0  0
   38.9560   30.4900   41.5840 C   0  0  0  0  0  0  0  0  0  0  0  0
   37.9090   30.7820   41.8640 H   0  0  0  0  0  0  0  0  0  0  0  0
   39.5180   30.1840   42.4790 H   0  0  0  0  0  0  0  0  0  0  0  0
   39.5310   31.7020   40.9450 C   0  0  0  0  0  0  0  0  0  0  0  0
   40.8020   31.9070   40.4530 C   0  0  0  0  0  0  0  0  0  0  0  0
   41.4450   31.0460   40.5640 H   0  0  0  0  0  0  0  0  0  0  0  0
   41.1290   33.1250   39.8930 C   0  0  0  0  0  3  0  0  0  0  0  0
   40.2170   34.1580   39.8060 C   0  0  0  0  0  0  0  0  0  0  0  0
   40.5310   35.1090   39.3500 H   0  0  0  0  0  0  0  0  0  0  0  0
   38.9370   33.9610   40.2970 C   0  0  0  0  0  0  0  0  0  0  0  0
   38.2230   34.7860   40.2240 H   0  0  0  0  0  0  0  0  0  0  0  0
   38.6030   32.7450   40.8600 C   0  0  0  0  0  3  0  0  0  0  0  0
   33.6950   28.8680   38.2920 C   0  0  0  0  0  3  0  0  0  0  0  0
   33.4650   28.9800   37.0030 C   0  0  0  0  0  3  0  0  0  0  0  0
   32.1150   28.8200   36.3950 C   0  0  0  0  0  0  0  0  0  0  0  0
   32.2960   28.4110   35.3700 H   0  0  0  0  0  0  0  0  0  0  0  0
   31.4990   28.0780   36.9030 H   0  0  0  0  0  0  0  0  0  0  0  0
   30.5020   29.8860   38.4140 F   0  0  0  0  0  0  0  0  0  0  0  0
   30.6390   30.5970   37.2800 C   0  0  0  0  0  0  0  0  0  0  0  0
   31.4380   30.0990   36.2450 C   0  0  0  0  0  0  0  0  0  0  0  0
   31.4910   30.9240   35.1430 C   0  0  0  0  0  0  0  0  0  0  0  0
   30.8670   32.1340   34.9680 C   0  0  0  0  0  0  0  0  0  0  0  0
   30.0830   32.5590   36.0600 C   0  0  0  0  0  0  0  0  0  0  0  0
   29.9590   31.8180   37.2050 C   0  0  0  0  0  0  0  0  0  0  0  0
   32.1060   30.5670   34.3150 H   0  0  0  0  0  0  0  0  0  0  0  0
   30.9840   32.6970   34.0530 H   0  0  0  0  0  0  0  0  0  0  0  0
   29.5760   33.5100   35.9610 H   0  0  0  0  0  0  0  0  0  0  0  0
   29.3580   32.1740   38.0090 H   0  0  0  0  0  0  0  0  0  0  0  0
  1  6  2  0  0  0  0
  1  2  1  0  0  0  0
  2  3  2  0  0  0  0
  3  4  1  0  0  0  0
  3  8  1  0  0  0  0
  5  9  1  0  0  0  0
  5  4  2  0  0  0  0
  6  5  1  0  0  0  0
  7  1  1  0  0  0  0
  9 11  1  0  0  0  0
  9 12  1  0  0  0  0
 10  9  1  0  0  0  0
 12 13  1  0  0  0  0
 12 14  1  0  0  0  0
 15 12  1  0  0  0  0
 16 17  1  0  0  0  0
 16 15  2  0  0  0  0
 18 16  1  0  0  0  0
 19 18  2  0  0  0  0
 19 21  1  0  0  0  0
 20 19  1  0  0  0  0
 21 23  2  0  0  0  0
 22 21  1  0  0  0  0
 23 15  1  0  0  0  0
 24  2  1  0  0  0  0
 25 24  2  0  0  0  0
 26 28  1  0  0  0  0
 26 25  1  0  0  0  0
 27 26  1  0  0  0  0
 30 29  1  0  0  0  0
 31 26  1  0  0  0  0
 31 30  2  0  0  0  0
 32 31  1  0  0  0  0
 33 32  2  0  0  0  0
 33 34  1  0  0  0  0
 34 35  2  0  0  0  0
 35 30  1  0  0  0  0
 35 39  1  0  0  0  0
 36 32  1  0  0  0  0
 37 33  1  0  0  0  0
 38 34  1  0  0  0  0
M  END
>  <minimizedAffinity>
-5.49840689

$$$$

 OpenBabel03242517203D

 39 41  0  0  0  0  0  0  0  0999 V2000
   35.3790   27.7820   38.5400 C   0  0  0  0  0  0  0  0  0  0  0  0
   34.8420   27.0960   37.4190 C   0  0  0  0  0  0  0  0  0  0  0  0
   35.1720   25.7580   37.2330 C   0  0  0  0  0  0  0  0  0  0  0  0
   35.9990   25.2050   38.1590 N   0  0  0  0  0  0  0  0  0  0  0  0
   36.5030   25.8550   39.2150 C   0  0  0  0  0  0  0  0  0  0  0  0
   36.1790   27.1340   39.3800 N   0  0  0  0  0  0  0  0  0  0  0  0
   35.1190   28.8190   38.6770 H   0  0  0  0  0  0  0  0  0  0  0  0
   34.7760   25.2330   36.3970 H   0  0  0  0  0  0  0  0  0  0  0  0
   37.3900   25.2720   40.2170 C   0  0  0  0  0  0  0  0  0  0  0  0
   38.4540   25.3360   39.9850 H   0  0  0  0  0  0  0  0  0  0  0  0
   37.1620   24.1660   40.2360 H   0  0  0  0  0  0  0  0  0  0  0  0
   37.0420   25.7780   41.5930 C   0  0  0  0  0  0  0  0  0  0  0  0
   36.6480   26.8230   41.4900 H   0  0  0  0  0  0  0  0  0  0  0  0
   36.3120   25.1440   42.1170 H   0  0  0  0  0  0  0  0  0  0  0  0
   38.3120   25.9220   42.3530 C   0  0  0  0  0  0  0  0  0  0  0  0
   38.8010   27.0190   43.0280 C   0  0  0  0  0  0  0  0  0  0  0  0
   38.1460   27.8760   42.9790 H   0  0  0  0  0  0  0  0  0  0  0  0
   40.0170   26.9350   43.6740 C   0  0  0  0  0  3  0  0  0  0  0  0
   40.7700   25.7780   43.6680 C   0  0  0  0  0  0  0  0  0  0  0  0
   41.7340   25.7660   44.1990 H   0  0  0  0  0  0  0  0  0  0  0  0
   40.2860   24.6710   42.9910 C   0  0  0  0  0  0  0  0  0  0  0  0
   40.8910   23.7590   42.9930 H   0  0  0  0  0  0  0  0  0  0  0  0
   39.0700   24.7470   42.3420 C   0  0  0  0  0  3  0  0  0  0  0  0
   33.9540   27.7980   36.4770 C   0  0  0  0  0  3  0  0  0  0  0  0
   33.3840   28.9580   36.7120 C   0  0  0  0  0  3  0  0  0  0  0  0
   32.4900   29.6440   35.7370 C   0  0  0  0  0  0  0  0  0  0  0  0
   33.1440   30.3710   35.1940 H   0  0  0  0  0  0  0  0  0  0  0  0
   32.0950   28.9760   34.9720 H   0  0  0  0  0  0  0  0  0  0  0  0
   31.4030   31.9630   34.6170 F   0  0  0  0  0  0  0  0  0  0  0  0
   30.9300   31.5610   35.8110 C   0  0  0  0  0  0  0  0  0  0  0  0
   31.4470   30.4060   36.4060 C   0  0  0  0  0  0  0  0  0  0  0  0
   30.8770   30.1090   37.6240 C   0  0  0  0  0  0  0  0  0  0  0  0
   29.8940   30.8050   38.2830 C   0  0  0  0  0  0  0  0  0  0  0  0
   29.4310   31.9550   37.6120 C   0  0  0  0  0  0  0  0  0  0  0  0
   29.9270   32.3440   36.3970 C   0  0  0  0  0  0  0  0  0  0  0  0
   31.2560   29.2130   38.1190 H   0  0  0  0  0  0  0  0  0  0  0  0
   29.5210   30.4740   39.2420 H   0  0  0  0  0  0  0  0  0  0  0  0
   28.6540   32.5300   38.1000 H   0  0  0  0  0  0  0  0  0  0  0  0
   29.5510   33.2190   35.9210 H   0  0  0  0  0  0  0  0  0  0  0  0
  1  7  1  0  0  0  0
  1  6  1  0  0  0  0
  2  1  2  0  0  0  0
  3  2  1  0  0  0  0
  3  4  2  0  0  0  0
  4  5  1  0  0  0  0
  5  6  2  0  0  0  0
  5  9  1  0  0  0  0
  8  3  1  0  0  0  0
  9 11  1  0  0  0  0
  9 12  1  0  0  0  0
 10  9  1  0  0  0  0
 12 14  1  0  0  0  0
 12 15  1  0  0  0  0
 13 12  1  0  0  0  0
 15 16  1  0  0  0  0
 16 18  2  0  0  0  0
 17 16  1  0  0  0  0
 19 18  1  0  0  0  0
 19 20  1  0  0  0  0
 21 22  1  0  0  0  0
 21 19  2  0  0  0  0
 23 15  2  0  0  0  0
 23 21  1  0  0  0  0
 24 25  2  0  0  0  0
 24  2  1  0  0  0  0
 26 31  1  0  0  0  0
 26 25  1  0  0  0  0
 27 26  1  0  0  0  0
 28 26  1  0  0  0  0
 29 30  1  0  0  0  0
 30 35  2  0  0  0  0
 30 31  1  0  0  0  0
 31 32  2  0  0  0  0
 32 36  1  0  0  0  0
 32 33  1  0  0  0  0
 33 37  1  0  0  0  0
 34 38  1  0  0  0  0
 34 33  2  0  0  0  0
 35 34  1  0  0  0  0
 39 35  1  0  0  0  0
M  END
>  <minimizedAffinity>
-5.49792004

$$$$
