
 OpenBabel03252507043D

 47 50  0  0  0  0  0  0  0  0999 V2000
   42.1750   33.6590   39.9610 C   0  0  0  0  0  0  0  0  0  0  0  0
   42.2300   32.6570   39.4840 H   0  0  0  0  0  0  0  0  0  0  0  0
   42.2960   33.4240   41.0750 H   0  0  0  0  0  0  0  0  0  0  0  0
   41.0450   34.3190   39.6800 N   0  0  0  0  0  0  0  0  0  0  0  0
   40.9260   35.5830   39.0190 C   0  0  0  0  0  0  0  0  0  0  0  0
   40.4310   35.0940   37.6580 C   0  0  0  0  0  0  0  0  0  0  0  0
   39.1800   34.3570   37.7130 C   0  0  0  0  0  0  0  0  0  0  0  0
   38.8090   33.7080   38.9520 C   0  0  0  0  0  0  0  0  0  0  0  0
   39.8030   33.6280   40.0820 C   0  0  0  0  0  0  0  0  0  0  0  0
   40.3020   36.3450   39.4480 H   0  0  0  0  0  0  0  0  0  0  0  0
   41.9310   36.0180   38.8420 H   0  0  0  0  0  0  0  0  0  0  0  0
   41.2880   34.5800   37.1340 H   0  0  0  0  0  0  0  0  0  0  0  0
   40.3170   36.0450   37.0590 H   0  0  0  0  0  0  0  0  0  0  0  0
   39.1700   33.5820   36.8990 H   0  0  0  0  0  0  0  0  0  0  0  0
   38.3270   35.0460   37.4430 H   0  0  0  0  0  0  0  0  0  0  0  0
   37.8850   33.2560   39.1230 H   0  0  0  0  0  0  0  0  0  0  0  0
   39.5070   32.8540   41.5860 S   0  0  0  0  0  0  0  0  0  0  0  0
   39.1170   31.1830   41.6680 C   0  0  0  0  0  0  0  0  0  0  0  0
   37.7960   31.0930   41.1700 C   0  0  0  0  0  0  0  0  0  0  0  0
   37.0660   31.8180   40.7730 H   0  0  0  0  0  0  0  0  0  0  0  0
   37.1200   29.8610   41.1010 C   0  0  0  0  0  0  0  0  0  0  0  0
   37.7920   28.7280   41.5400 C   0  0  0  0  0  0  0  0  0  0  0  0
   37.3620   27.7320   41.5280 H   0  0  0  0  0  0  0  0  0  0  0  0
   39.0750   28.7700   42.0300 C   0  0  0  0  0  0  0  0  0  0  0  0
   39.6590   27.9370   42.3880 H   0  0  0  0  0  0  0  0  0  0  0  0
   39.6570   30.0020   42.0640 C   0  0  0  0  0  0  0  0  0  0  0  0
   43.4110   34.4120   39.6190 C   0  0  0  0  0  0  0  0  0  0  0  0
   43.2210   35.3150   38.9990 H   0  0  0  0  0  0  0  0  0  0  0  0
   44.1110   33.7680   39.0170 H   0  0  0  0  0  0  0  0  0  0  0  0
   44.1220   34.7210   40.8730 C   0  0  0  0  0  0  0  0  0  0  0  0
   43.4530   35.2830   41.9350 C   0  0  0  0  0  0  0  0  0  0  0  0
   44.1720   35.5610   43.0920 C   0  0  0  0  0  0  0  0  0  0  0  0
   45.5050   35.2590   43.1130 N   0  0  0  0  0  0  0  0  0  0  0  0
   46.1160   34.7140   42.0650 C   0  0  0  0  0  0  0  0  0  0  0  0
   45.4040   34.4600   40.9680 N   0  0  0  0  0  0  0  0  0  0  0  0
   42.4310   35.5700   42.1140 H   0  0  0  0  0  0  0  0  0  0  0  0
   43.8170   35.9990   44.0160 H   0  0  0  0  0  0  0  0  0  0  0  0
   47.5380   34.3910   42.1950 C   0  0  0  0  0  0  0  0  0  0  0  0
   47.9430   33.0750   42.3890 C   0  0  0  0  0  0  0  0  0  0  0  0
   49.2840   32.7830   42.5230 C   0  0  0  0  0  0  0  0  0  0  0  0
   50.1100   33.8660   42.4480 C   0  0  0  0  0  0  0  0  0  0  0  0
   49.7630   35.2080   42.2570 C   0  0  0  0  0  0  0  0  0  0  0  0
   48.4180   35.4070   42.1340 N   0  0  0  0  0  0  0  0  0  0  0  0
   47.2110   32.2720   42.4340 H   0  0  0  0  0  0  0  0  0  0  0  0
   49.6760   31.8040   42.6730 H   0  0  0  0  0  0  0  0  0  0  0  0
   51.1920   33.6880   42.5500 H   0  0  0  0  0  0  0  0  0  0  0  0
   50.4890   35.9810   42.2140 H   0  0  0  0  0  0  0  0  0  0  0  0
  1  3  1  0  0  0  0
  2  1  1  0  0  0  0
  4  1  1  0  0  0  0
  4  9  1  0  0  0  0
  5 10  1  0  0  0  0
  5  4  1  0  0  0  0
  6  7  1  0  0  0  0
  6  5  1  0  0  0  0
  7  8  1  0  0  0  0
  8 16  1  0  0  0  0
  8  9  2  0  0  0  0
  9 17  1  0  0  0  0
 11  5  1  0  0  0  0
 12  6  1  0  0  0  0
 13  6  1  0  0  0  0
 14  7  1  0  0  0  0
 15  7  1  0  0  0  0
 17 18  1  0  0  0  0
 18 26  1  0  0  0  0
 19 18  2  0  0  0  0
 20 19  1  0  0  0  0
 21 19  1  0  0  0  0
 21 22  2  0  0  0  0
 22 24  1  0  0  0  0
 23 22  1  0  0  0  0
 24 26  2  0  0  0  0
 24 25  1  0  0  0  0
 27  1  1  0  0  0  0
 27 30  1  0  0  0  0
 28 27  1  0  0  0  0
 29 27  1  0  0  0  0
 30 35  2  0  0  0  0
 30 31  1  0  0  0  0
 31 36  1  0  0  0  0
 31 32  2  0  0  0  0
 32 33  1  0  0  0  0
 32 37  1  0  0  0  0
 34 38  1  0  0  0  0
 34 33  2  0  0  0  0
 35 34  1  0  0  0  0
 38 39  1  0  0  0  0
 39 44  1  0  0  0  0
 39 40  2  0  0  0  0
 40 45  1  0  0  0  0
 41 40  1  0  0  0  0
 41 46  1  0  0  0  0
 42 41  2  0  0  0  0
 43 38  2  0  0  0  0
 43 42  1  0  0  0  0
 47 42  1  0  0  0  0
M  END
>  <minimizedAffinity>
-6.55640221

>  <minimizedRMSD>
4.82766342

$$$$
