
 OpenBabel03252507103D

 36 38  0  0  1  0  0  0  0  0999 V2000
   40.8680   29.7280   37.8010 C   0  0  0  0  0  0  0  0  0  0  0  0
   41.6030   30.8510   37.3750 C   0  0  0  0  0  0  0  0  0  0  0  0
   42.2040   31.6220   38.3660 C   0  0  0  0  0  0  0  0  0  0  0  0
   42.0580   31.2690   39.6530 N   0  0  0  0  0  0  0  0  0  0  0  0
   41.3570   30.2010   40.0390 C   0  0  0  0  0  0  0  0  0  0  0  0
   40.7560   29.4230   39.1020 N   0  0  0  0  0  0  0  0  0  0  0  0
   40.4120   29.1500   36.9980 H   0  0  0  0  0  0  0  0  0  0  0  0
   41.7080   31.1150   36.3430 H   0  0  0  0  0  0  0  0  0  0  0  0
   40.2320   30.6260   42.2440 C   0  0  1  0  0  0  0  0  0  0  0  0
   41.1550   29.7730   41.4250 C   0  0  1  0  0  0  0  0  0  0  0  0
   40.3460   28.4580   41.4570 C   0  0  0  0  0  0  0  0  0  0  0  0
   39.6490   28.4410   42.6290 O   0  0  0  0  0  0  0  0  0  0  0  0
   39.9020   29.6130   43.3430 C   0  0  0  0  0  0  0  0  0  0  0  0
   39.2730   30.7770   41.6890 H   0  0  0  0  0  0  0  0  0  0  0  0
   42.1050   29.6250   41.9940 H   0  0  0  0  0  0  0  0  0  0  0  0
   41.1190   27.6550   41.5030 H   0  0  0  0  0  0  0  0  0  0  0  0
   39.7620   28.3160   40.5360 H   0  0  0  0  0  0  0  0  0  0  0  0
   38.9730   29.8820   43.8910 H   0  0  0  0  0  0  0  0  0  0  0  0
   40.7430   29.4560   44.0300 H   0  0  0  0  0  0  0  0  0  0  0  0
   40.7840   31.7870   42.7030 O   0  0  0  0  0  0  0  0  0  0  0  0
   40.1680   32.5290   42.4420 H   0  0  0  0  0  0  0  0  0  0  0  0
   42.9270   32.7230   37.9360 O   0  0  0  0  0  0  0  0  0  0  0  0
   45.0620   31.3840   37.0830 O   0  0  0  0  0  0  0  0  0  0  0  0
   44.6440   32.6390   37.8560 P   0  0  1  0  0  0  0  0  0  0  0  0
   45.2030   34.0160   37.1150 O   0  0  0  0  0  0  0  0  0  0  0  0
   45.7620   33.7760   36.3120 H   0  0  0  0  0  0  0  0  0  0  0  0
   45.1890   32.5070   39.4440 O   0  0  0  0  0  0  0  0  0  0  0  0
   45.1910   33.5000   40.3870 C   0  0  0  0  0  0  0  0  0  0  0  0
   46.2600   33.8680   41.1750 C   0  0  0  0  0  0  0  0  0  0  0  0
   47.1850   33.3290   41.0440 H   0  0  0  0  0  0  0  0  0  0  0  0
   46.2130   34.8800   42.1150 C   0  0  0  0  0  3  0  0  0  0  0  0
   45.0240   35.5720   42.2820 C   0  0  0  0  0  0  0  0  0  0  0  0
   45.0240   36.3500   43.0210 H   0  0  0  0  0  0  0  0  0  0  0  0
   43.9190   35.2440   41.5170 C   0  0  0  0  0  0  0  0  0  0  0  0
   43.0430   35.8230   41.7070 H   0  0  0  0  0  0  0  0  0  0  0  0
   44.0210   34.2160   40.5840 C   0  0  0  0  0  3  0  0  0  0  0  0
  1  6  1  0  0  0  0
  2  1  2  0  0  0  0
  2  3  1  0  0  0  0
  3  4  2  0  0  0  0
  4  5  1  0  0  0  0
  5 10  1  0  0  0  0
  6  5  2  0  0  0  0
  7  1  1  0  0  0  0
  8  2  1  0  0  0  0
  9 14  1  6  0  0  0
  9 20  1  0  0  0  0
  9 13  1  0  0  0  0
 10 11  1  0  0  0  0
 10 15  1  1  0  0  0
 10  9  1  0  0  0  0
 11 16  1  0  0  0  0
 11 12  1  0  0  0  0
 12 13  1  0  0  0  0
 13 18  1  0  0  0  0
 13 19  1  0  0  0  0
 17 11  1  0  0  0  0
 21 20  1  0  0  0  0
 22  3  1  0  0  0  0
 24 23  2  6  0  0  0
 24 22  1  0  0  0  0
 24 27  1  0  0  0  0
 25 24  1  0  0  0  0
 26 25  1  0  0  0  0
 27 28  1  0  0  0  0
 28 36  2  0  0  0  0
 28 29  1  0  0  0  0
 29 31  2  0  0  0  0
 30 29  1  0  0  0  0
 31 32  1  0  0  0  0
 32 33  1  0  0  0  0
 34 35  1  0  0  0  0
 34 32  2  0  0  0  0
 36 34  1  0  0  0  0
M  END
>  <minimizedAffinity>
-3.98705125

>  <minimizedRMSD>
7.40730619

$$$$
