
 OpenBabel03252507043D

 47 50  0  0  0  0  0  0  0  0999 V2000
   41.8680   33.6650   41.2950 C   0  0  0  0  0  0  0  0  0  0  0  0
   41.5600   33.4410   42.3390 H   0  0  0  0  0  0  0  0  0  0  0  0
   42.0550   34.7940   41.3160 H   0  0  0  0  0  0  0  0  0  0  0  0
   40.9590   33.2950   40.3830 N   0  0  0  0  0  0  0  0  0  0  0  0
   40.3180   32.0210   40.2720 C   0  0  0  0  0  0  0  0  0  0  0  0
   38.9390   32.4020   40.8110 C   0  0  0  0  0  0  0  0  0  0  0  0
   38.2740   33.4460   40.0510 C   0  0  0  0  0  0  0  0  0  0  0  0
   39.0800   34.3590   39.2700 C   0  0  0  0  0  0  0  0  0  0  0  0
   40.5790   34.3480   39.4190 C   0  0  0  0  0  0  0  0  0  0  0  0
   40.2790   31.5320   39.3170 H   0  0  0  0  0  0  0  0  0  0  0  0
   40.7490   31.3110   41.0070 H   0  0  0  0  0  0  0  0  0  0  0  0
   39.0290   32.5780   41.9230 H   0  0  0  0  0  0  0  0  0  0  0  0
   38.3590   31.4330   40.7670 H   0  0  0  0  0  0  0  0  0  0  0  0
   37.6300   34.0550   40.7410 H   0  0  0  0  0  0  0  0  0  0  0  0
   37.5360   32.9760   39.3360 H   0  0  0  0  0  0  0  0  0  0  0  0
   38.6920   35.0620   38.6060 H   0  0  0  0  0  0  0  0  0  0  0  0
   41.6490   35.4020   38.5850 S   0  0  0  0  0  0  0  0  0  0  0  0
   41.0720   36.8120   37.7910 C   0  0  0  0  0  0  0  0  0  0  0  0
   41.2000   36.5310   36.4110 C   0  0  0  0  0  0  0  0  0  0  0  0
   41.5520   35.6650   35.8270 H   0  0  0  0  0  0  0  0  0  0  0  0
   40.8390   37.4750   35.4330 C   0  0  0  0  0  3  0  0  0  0  0  0
   40.3480   38.6990   35.8650 C   0  0  0  0  0  0  0  0  0  0  0  0
   40.0410   39.4950   35.1930 H   0  0  0  0  0  0  0  0  0  0  0  0
   40.2060   39.0150   37.1930 C   0  0  0  0  0  0  0  0  0  0  0  0
   39.8350   39.9400   37.6040 H   0  0  0  0  0  0  0  0  0  0  0  0
   40.5800   38.0460   38.0760 C   0  0  0  0  0  3  0  0  0  0  0  0
   43.2170   33.0840   41.0670 C   0  0  0  0  0  0  0  0  0  0  0  0
   43.4340   32.8770   39.9970 H   0  0  0  0  0  0  0  0  0  0  0  0
   43.3150   32.0950   41.5960 H   0  0  0  0  0  0  0  0  0  0  0  0
   44.2110   33.9760   41.6890 C   0  0  0  0  0  0  0  0  0  0  0  0
   43.8200   35.1540   42.2800 C   0  0  0  0  0  0  0  0  0  0  0  0
   44.7990   35.9630   42.8460 C   0  0  0  0  0  0  0  0  0  0  0  0
   46.0980   35.5440   42.7870 N   0  0  0  0  0  0  0  0  0  0  0  0
   46.4370   34.3950   42.2070 C   0  0  0  0  0  0  0  0  0  0  0  0
   45.4800   33.6400   41.6710 N   0  0  0  0  0  0  0  0  0  0  0  0
   42.8710   35.6370   42.4400 H   0  0  0  0  0  0  0  0  0  0  0  0
   44.6780   36.9150   43.3480 H   0  0  0  0  0  0  0  0  0  0  0  0
   47.8500   34.0130   42.2260 C   0  0  0  0  0  0  0  0  0  0  0  0
   48.2190   32.6840   42.0380 C   0  0  0  0  0  0  0  0  0  0  0  0
   49.5520   32.3320   42.0700 C   0  0  0  0  0  0  0  0  0  0  0  0
   50.4070   33.3710   42.2920 C   0  0  0  0  0  0  0  0  0  0  0  0
   50.0970   34.7210   42.4890 C   0  0  0  0  0  0  0  0  0  0  0  0
   48.7580   34.9810   42.4410 N   0  0  0  0  0  0  0  0  0  0  0  0
   47.4650   31.9210   41.8660 H   0  0  0  0  0  0  0  0  0  0  0  0
   49.9160   31.3400   41.9350 H   0  0  0  0  0  0  0  0  0  0  0  0
   51.4840   33.1430   42.3280 H   0  0  0  0  0  0  0  0  0  0  0  0
   50.8450   35.4560   42.6550 H   0  0  0  0  0  0  0  0  0  0  0  0
  1  3  1  0  0  0  0
  1  2  1  0  0  0  0
  4  1  1  0  0  0  0
  5  4  1  0  0  0  0
  5  6  1  0  0  0  0
  5 11  1  0  0  0  0
  6 12  1  0  0  0  0
  7 14  1  0  0  0  0
  7  6  1  0  0  0  0
  8  9  2  0  0  0  0
  8  7  1  0  0  0  0
  9  4  1  0  0  0  0
 10  5  1  0  0  0  0
 13  6  1  0  0  0  0
 15  7  1  0  0  0  0
 16  8  1  0  0  0  0
 17  9  1  0  0  0  0
 18 26  1  0  0  0  0
 18 17  1  0  0  0  0
 19 18  2  0  0  0  0
 20 19  1  0  0  0  0
 21 22  2  0  0  0  0
 21 19  1  0  0  0  0
 22 24  1  0  0  0  0
 23 22  1  0  0  0  0
 24 25  1  0  0  0  0
 24 26  2  0  0  0  0
 27  1  1  0  0  0  0
 27 29  1  0  0  0  0
 27 30  1  0  0  0  0
 28 27  1  0  0  0  0
 30 31  1  0  0  0  0
 31 36  1  0  0  0  0
 31 32  2  0  0  0  0
 32 37  1  0  0  0  0
 33 32  1  0  0  0  0
 34 38  1  0  0  0  0
 34 33  2  0  0  0  0
 35 30  2  0  0  0  0
 35 34  1  0  0  0  0
 38 43  1  0  0  0  0
 39 40  1  0  0  0  0
 39 38  2  0  0  0  0
 40 41  2  0  0  0  0
 41 46  1  0  0  0  0
 41 42  1  0  0  0  0
 42 47  1  0  0  0  0
 43 42  2  0  0  0  0
 44 39  1  0  0  0  0
 45 40  1  0  0  0  0
M  END
>  <minimizedAffinity>
-2.59951091

>  <minimizedRMSD>
0.41496554

$$$$
