
 OpenBabel03252506143D

 36 38  0  0  0  0  0  0  0  0999 V2000
   40.0420   30.3020   39.1220 F   0  0  0  0  0  0  0  0  0  0  0  0
   39.1340   31.2180   39.4360 C   0  0  0  0  0  0  0  0  0  0  0  0
   39.5230   32.5370   39.5530 C   0  0  0  0  0  0  0  0  0  0  0  0
   38.6360   33.5710   39.8790 C   0  0  0  0  0  0  0  0  0  0  0  0
   37.2950   33.2610   40.0960 C   0  0  0  0  0  0  0  0  0  0  0  0
   36.9410   31.9370   39.9700 C   0  0  0  0  0  0  0  0  0  0  0  0
   37.7890   30.9230   39.6550 C   0  0  0  0  0  0  0  0  0  0  0  0
   39.0230   34.5890   39.9530 H   0  0  0  0  0  0  0  0  0  0  0  0
   36.6520   34.0890   40.3430 H   0  0  0  0  0  0  0  0  0  0  0  0
   35.8790   31.8380   40.1550 H   0  0  0  0  0  0  0  0  0  0  0  0
   42.5710   33.7010   37.8730 C   0  0  0  0  0  0  0  0  0  0  0  0
   43.5250   33.6160   38.9090 C   0  0  0  0  0  0  0  0  0  0  0  0
   43.1130   33.1540   40.1980 C   0  0  0  0  0  0  0  0  0  0  0  0
   41.7930   32.8200   40.3340 N   0  0  0  0  0  0  0  0  0  0  0  0
   40.9230   32.9140   39.3290 C   0  0  0  0  0  0  0  0  0  0  0  0
   41.3130   33.3500   38.1180 N   0  0  0  0  0  0  0  0  0  0  0  0
   44.5690   33.8830   38.7940 H   0  0  0  0  0  0  0  0  0  0  0  0
   43.7820   33.0680   41.0170 H   0  0  0  0  0  0  0  0  0  0  0  0
   43.0110   34.1600   36.6220 N   0  0  0  0  0  0  0  0  0  0  0  0
   44.0300   34.0790   36.3450 H   0  0  0  0  0  0  0  0  0  0  0  0
   42.4100   34.6010   35.8890 H   0  0  0  0  0  0  0  0  0  0  0  0
   37.3380   29.6330   39.5550 O   0  0  0  0  0  0  0  0  0  0  0  0
   36.5820   27.2740   40.5030 O   0  0  0  0  0  0  0  0  0  0  0  0
   36.5430   28.7650   40.7520 P   0  0  2  0  0  0  0  0  0  0  0  0
   34.9210   29.3070   40.8240 O   0  0  0  0  0  0  0  0  0  0  0  0
   34.3760   28.6590   41.3410 H   0  0  0  0  0  0  0  0  0  0  0  0
   37.1560   29.0460   42.3050 O   0  0  0  0  0  0  0  0  0  0  0  0
   38.2900   28.3810   42.7360 C   0  0  0  0  0  0  0  0  0  0  0  0
   39.4390   29.1400   42.4990 C   0  0  0  0  0  0  0  0  0  0  0  0
   39.4730   30.1230   42.0400 H   0  0  0  0  0  0  0  0  0  0  0  0
   40.7010   28.6740   42.8490 C   0  0  0  0  0  3  0  0  0  0  0  0
   40.8090   27.4220   43.4490 C   0  0  0  0  0  0  0  0  0  0  0  0
   41.7860   27.0480   43.7270 H   0  0  0  0  0  0  0  0  0  0  0  0
   39.6750   26.6940   43.6740 C   0  0  0  0  0  0  0  0  0  0  0  0
   39.7180   25.7350   44.1290 H   0  0  0  0  0  0  0  0  0  0  0  0
   38.4220   27.1520   43.3280 C   0  0  0  0  0  3  0  0  0  0  0  0
  1  2  1  0  0  0  0
  2  3  2  0  0  0  0
  2  7  1  0  0  0  0
  3  4  1  0  0  0  0
  4  8  1  0  0  0  0
  4  5  2  0  0  0  0
  5  9  1  0  0  0  0
  6  5  1  0  0  0  0
  6 10  1  0  0  0  0
  7  6  2  0  0  0  0
 11 16  2  0  0  0  0
 11 12  1  0  0  0  0
 12 13  2  0  0  0  0
 13 14  1  0  0  0  0
 13 18  1  0  0  0  0
 15  3  1  0  0  0  0
 15 14  2  0  0  0  0
 16 15  1  0  0  0  0
 17 12  1  0  0  0  0
 19 11  1  0  0  0  0
 20 19  1  0  0  0  0
 21 19  1  0  0  0  0
 22  7  1  0  0  0  0
 22 24  1  0  0  0  0
 24 23  2  6  0  0  0
 24 25  1  0  0  0  0
 24 27  1  0  0  0  0
 25 26  1  0  0  0  0
 27 28  1  0  0  0  0
 28 36  1  0  0  0  0
 29 28  2  0  0  0  0
 29 31  1  0  0  0  0
 30 29  1  0  0  0  0
 31 32  2  0  0  0  0
 32 34  1  0  0  0  0
 32 33  1  0  0  0  0
 34 35  1  0  0  0  0
 36 34  2  0  0  0  0
M  END
>  <minimizedAffinity>
-6.31053591

$$$$

 OpenBabel03252506143D

 36 38  0  0  0  0  0  0  0  0999 V2000
   38.9570   27.7070   39.9220 F   0  0  0  0  0  0  0  0  0  0  0  0
   38.4320   27.8990   41.1260 C   0  0  0  0  0  0  0  0  0  0  0  0
   37.5860   26.9430   41.6500 C   0  0  0  0  0  0  0  0  0  0  0  0
   36.9870   27.0580   42.9110 C   0  0  0  0  0  0  0  0  0  0  0  0
   37.2540   28.1890   43.6790 C   0  0  0  0  0  0  0  0  0  0  0  0
   38.1020   29.1220   43.1280 C   0  0  0  0  0  0  0  0  0  0  0  0
   38.6900   29.0250   41.9070 C   0  0  0  0  0  0  0  0  0  0  0  0
   36.3290   26.2570   43.2540 H   0  0  0  0  0  0  0  0  0  0  0  0
   36.7710   28.2320   44.6410 H   0  0  0  0  0  0  0  0  0  0  0  0
   38.2280   29.9390   43.8270 H   0  0  0  0  0  0  0  0  0  0  0  0
   37.5840   23.4380   40.5580 C   0  0  0  0  0  0  0  0  0  0  0  0
   36.7090   23.4780   39.4540 C   0  0  0  0  0  0  0  0  0  0  0  0
   36.1130   24.7240   39.0820 C   0  0  0  0  0  0  0  0  0  0  0  0
   36.4450   25.8120   39.8440 N   0  0  0  0  0  0  0  0  0  0  0  0
   37.2790   25.7310   40.8810 C   0  0  0  0  0  0  0  0  0  0  0  0
   37.8370   24.5580   41.2290 N   0  0  0  0  0  0  0  0  0  0  0  0
   36.4500   22.6120   38.8550 H   0  0  0  0  0  0  0  0  0  0  0  0
   35.4470   24.8190   38.2620 H   0  0  0  0  0  0  0  0  0  0  0  0
   38.1500   22.1980   40.8950 N   0  0  0  0  0  0  0  0  0  0  0  0
   38.2400   21.4320   40.1700 H   0  0  0  0  0  0  0  0  0  0  0  0
   38.5110   21.9300   41.8380 H   0  0  0  0  0  0  0  0  0  0  0  0
   39.5200   30.0120   41.4450 O   0  0  0  0  0  0  0  0  0  0  0  0
   39.6270   31.6270   39.3430 O   0  0  0  0  0  0  0  0  0  0  0  0
   39.0440   31.4540   40.7290 P   0  0  2  0  0  0  0  0  0  0  0  0
   39.5350   32.7460   41.7390 O   0  0  0  0  0  0  0  0  0  0  0  0
   39.4850   33.5990   41.2360 H   0  0  0  0  0  0  0  0  0  0  0  0
   37.3640   31.6200   40.6070 O   0  0  0  0  0  0  0  0  0  0  0  0
   36.6340   30.7470   39.8190 C   0  0  0  0  0  0  0  0  0  0  0  0
   35.6490   30.0980   40.5680 C   0  0  0  0  0  0  0  0  0  0  0  0
   35.4570   30.2360   41.6280 H   0  0  0  0  0  0  0  0  0  0  0  0
   34.7900   29.1720   39.9880 C   0  0  0  0  0  3  0  0  0  0  0  0
   34.9230   28.8940   38.6310 C   0  0  0  0  0  0  0  0  0  0  0  0
   34.2600   28.1760   38.1660 H   0  0  0  0  0  0  0  0  0  0  0  0
   35.8910   29.5390   37.9130 C   0  0  0  0  0  0  0  0  0  0  0  0
   36.0240   29.3540   36.8760 H   0  0  0  0  0  0  0  0  0  0  0  0
   36.7460   30.4580   38.4840 C   0  0  0  0  0  3  0  0  0  0  0  0
  1  2  1  0  0  0  0
  2  3  2  0  0  0  0
  2  7  1  0  0  0  0
  3  4  1  0  0  0  0
  4  8  1  0  0  0  0
  4  5  2  0  0  0  0
  5  9  1  0  0  0  0
  6  5  1  0  0  0  0
  6 10  1  0  0  0  0
  7  6  2  0  0  0  0
 11 19  1  0  0  0  0
 11 16  1  0  0  0  0
 12 11  2  0  0  0  0
 13 12  1  0  0  0  0
 13 14  2  0  0  0  0
 14 15  1  0  0  0  0
 15 16  2  0  0  0  0
 15  3  1  0  0  0  0
 17 12  1  0  0  0  0
 18 13  1  0  0  0  0
 19 21  1  0  0  0  0
 20 19  1  0  0  0  0
 22  7  1  0  0  0  0
 24 23  2  6  0  0  0
 24 22  1  0  0  0  0
 24 25  1  0  0  0  0
 26 25  1  0  0  0  0
 27 24  1  0  0  0  0
 28 29  1  0  0  0  0
 28 27  1  0  0  0  0
 29 30  1  0  0  0  0
 31 29  2  0  0  0  0
 32 31  1  0  0  0  0
 33 32  1  0  0  0  0
 34 36  1  0  0  0  0
 34 32  2  0  0  0  0
 35 34  1  0  0  0  0
 36 28  2  0  0  0  0
M  END
>  <minimizedAffinity>
-6.23799372

$$$$

 OpenBabel03252506143D

 36 38  0  0  0  0  0  0  0  0999 V2000
   40.0790   28.9430   41.2210 F   0  0  0  0  0  0  0  0  0  0  0  0
   39.0540   28.4980   41.9360 C   0  0  0  0  0  0  0  0  0  0  0  0
   37.7780   28.9180   41.6170 C   0  0  0  0  0  0  0  0  0  0  0  0
   36.6370   28.5010   42.3130 C   0  0  0  0  0  0  0  0  0  0  0  0
   36.7880   27.6200   43.3810 C   0  0  0  0  0  0  0  0  0  0  0  0
   38.0720   27.2200   43.6730 C   0  0  0  0  0  0  0  0  0  0  0  0
   39.1890   27.6160   43.0080 C   0  0  0  0  0  0  0  0  0  0  0  0
   35.6630   28.8800   41.9970 H   0  0  0  0  0  0  0  0  0  0  0  0
   35.8820   27.3280   43.8850 H   0  0  0  0  0  0  0  0  0  0  0  0
   38.0450   26.5360   44.5120 H   0  0  0  0  0  0  0  0  0  0  0  0
   37.1820   32.0210   39.7480 C   0  0  0  0  0  0  0  0  0  0  0  0
   37.1770   31.5610   38.4150 C   0  0  0  0  0  0  0  0  0  0  0  0
   37.3810   30.1690   38.1580 C   0  0  0  0  0  0  0  0  0  0  0  0
   37.5700   29.3670   39.2500 N   0  0  0  0  0  0  0  0  0  0  0  0
   37.5680   29.8420   40.4950 C   0  0  0  0  0  0  0  0  0  0  0  0
   37.3760   31.1510   40.7350 N   0  0  0  0  0  0  0  0  0  0  0  0
   37.0270   32.2020   37.5530 H   0  0  0  0  0  0  0  0  0  0  0  0
   37.3880   29.7620   37.1780 H   0  0  0  0  0  0  0  0  0  0  0  0
   36.9800   33.3930   39.9620 N   0  0  0  0  0  0  0  0  0  0  0  0
   36.4760   33.9830   39.2420 H   0  0  0  0  0  0  0  0  0  0  0  0
   37.2920   33.9300   40.8020 H   0  0  0  0  0  0  0  0  0  0  0  0
   40.4270   27.1610   43.3780 O   0  0  0  0  0  0  0  0  0  0  0  0
   42.3890   25.3850   43.5480 O   0  0  0  0  0  0  0  0  0  0  0  0
   41.2730   25.8980   42.6650 P   0  0  2  0  0  0  0  0  0  0  0  0
   41.9090   26.4490   41.1740 O   0  0  0  0  0  0  0  0  0  0  0  0
   42.6020   25.8160   40.8540 H   0  0  0  0  0  0  0  0  0  0  0  0
   40.2930   24.5810   42.2520 O   0  0  0  0  0  0  0  0  0  0  0  0
   39.1730   24.7690   41.4620 C   0  0  0  0  0  0  0  0  0  0  0  0
   38.0340   24.2320   42.0680 C   0  0  0  0  0  0  0  0  0  0  0  0
   37.9990   23.7280   43.0290 H   0  0  0  0  0  0  0  0  0  0  0  0
   36.7870   24.3020   41.4580 C   0  0  0  0  0  3  0  0  0  0  0  0
   36.6830   24.9220   40.2170 C   0  0  0  0  0  0  0  0  0  0  0  0
   35.7170   24.9840   39.7320 H   0  0  0  0  0  0  0  0  0  0  0  0
   37.8070   25.4430   39.6390 C   0  0  0  0  0  0  0  0  0  0  0  0
   37.7670   25.9250   38.6930 H   0  0  0  0  0  0  0  0  0  0  0  0
   39.0460   25.3760   40.2400 C   0  0  0  0  0  3  0  0  0  0  0  0
  1  2  1  0  0  0  0
  2  7  1  0  0  0  0
  3  2  2  0  0  0  0
  3  4  1  0  0  0  0
  4  5  2  0  0  0  0
  5  6  1  0  0  0  0
  5  9  1  0  0  0  0
  6 10  1  0  0  0  0
  7 22  1  0  0  0  0
  7  6  2  0  0  0  0
  8  4  1  0  0  0  0
 11 19  1  0  0  0  0
 11 16  1  0  0  0  0
 12 11  2  0  0  0  0
 13 12  1  0  0  0  0
 13 14  2  0  0  0  0
 14 15  1  0  0  0  0
 15 16  2  0  0  0  0
 15  3  1  0  0  0  0
 17 12  1  0  0  0  0
 18 13  1  0  0  0  0
 19 21  1  0  0  0  0
 20 19  1  0  0  0  0
 24 22  1  0  0  0  0
 24 23  2  1  0  0  0
 25 24  1  0  0  0  0
 26 25  1  0  0  0  0
 27 24  1  0  0  0  0
 28 29  1  0  0  0  0
 28 27  1  0  0  0  0
 29 30  1  0  0  0  0
 31 29  2  0  0  0  0
 32 31  1  0  0  0  0
 33 32  1  0  0  0  0
 34 32  2  0  0  0  0
 34 36  1  0  0  0  0
 35 34  1  0  0  0  0
 36 28  2  0  0  0  0
M  END
>  <minimizedAffinity>
-5.95769739

$$$$

 OpenBabel03252506143D

 36 38  0  0  0  0  0  0  0  0999 V2000
   38.0590   27.4950   39.5920 F   0  0  0  0  0  0  0  0  0  0  0  0
   37.7310   27.6350   40.8710 C   0  0  0  0  0  0  0  0  0  0  0  0
   37.3600   26.5200   41.5960 C   0  0  0  0  0  0  0  0  0  0  0  0
   37.0000   26.5700   42.9480 C   0  0  0  0  0  0  0  0  0  0  0  0
   37.0140   27.8010   43.6000 C   0  0  0  0  0  0  0  0  0  0  0  0
   37.3890   28.8920   42.8500 C   0  0  0  0  0  0  0  0  0  0  0  0
   37.7410   28.8590   41.5370 C   0  0  0  0  0  0  0  0  0  0  0  0
   36.7190   25.6420   43.4500 H   0  0  0  0  0  0  0  0  0  0  0  0
   36.7300   27.7890   44.6390 H   0  0  0  0  0  0  0  0  0  0  0  0
   37.3650   29.7740   43.4760 H   0  0  0  0  0  0  0  0  0  0  0  0
   36.2580   23.6870   39.5380 C   0  0  0  0  0  0  0  0  0  0  0  0
   37.2870   22.7490   39.7600 C   0  0  0  0  0  0  0  0  0  0  0  0
   38.3710   23.0960   40.6260 C   0  0  0  0  0  0  0  0  0  0  0  0
   38.3280   24.3420   41.1890 N   0  0  0  0  0  0  0  0  0  0  0  0
   37.3350   25.2000   40.9540 C   0  0  0  0  0  0  0  0  0  0  0  0
   36.3170   24.8710   40.1390 N   0  0  0  0  0  0  0  0  0  0  0  0
   37.3150   21.7630   39.3090 H   0  0  0  0  0  0  0  0  0  0  0  0
   39.1750   22.4350   40.8320 H   0  0  0  0  0  0  0  0  0  0  0  0
   35.2110   23.3120   38.6820 N   0  0  0  0  0  0  0  0  0  0  0  0
   34.9860   22.2900   38.5200 H   0  0  0  0  0  0  0  0  0  0  0  0
   34.5920   23.9680   38.1540 H   0  0  0  0  0  0  0  0  0  0  0  0
   38.0980   30.0050   40.8760 O   0  0  0  0  0  0  0  0  0  0  0  0
   37.6990   32.6150   40.6260 O   0  0  0  0  0  0  0  0  0  0  0  0
   37.0690   31.2530   40.4290 P   0  0  2  0  0  0  0  0  0  0  0  0
   35.6360   31.1290   41.3560 O   0  0  0  0  0  0  0  0  0  0  0  0
   35.1220   31.9750   41.2910 H   0  0  0  0  0  0  0  0  0  0  0  0
   36.5480   31.1520   38.8210 O   0  0  0  0  0  0  0  0  0  0  0  0
   36.1740   29.9320   38.2870 C   0  0  0  0  0  0  0  0  0  0  0  0
   37.0010   29.5760   37.2180 C   0  0  0  0  0  0  0  0  0  0  0  0
   37.8320   30.1580   36.8310 H   0  0  0  0  0  0  0  0  0  0  0  0
   36.8150   28.3870   36.5220 C   0  0  0  0  0  3  0  0  0  0  0  0
   35.7810   27.5400   36.9090 C   0  0  0  0  0  0  0  0  0  0  0  0
   35.6260   26.6110   36.3760 H   0  0  0  0  0  0  0  0  0  0  0  0
   34.9830   27.9030   37.9580 C   0  0  0  0  0  0  0  0  0  0  0  0
   34.1840   27.2830   38.2830 H   0  0  0  0  0  0  0  0  0  0  0  0
   35.1630   29.0820   38.6500 C   0  0  0  0  0  3  0  0  0  0  0  0
  1  2  1  0  0  0  0
  2  7  2  0  0  0  0
  2  3  1  0  0  0  0
  3  4  2  0  0  0  0
  4  8  1  0  0  0  0
  4  5  1  0  0  0  0
  5  9  1  0  0  0  0
  6 10  1  0  0  0  0
  6  5  2  0  0  0  0
  7  6  1  0  0  0  0
 11 12  2  0  0  0  0
 11 16  1  0  0  0  0
 12 13  1  0  0  0  0
 13 18  1  0  0  0  0
 13 14  2  0  0  0  0
 15 14  1  0  0  0  0
 15  3  1  0  0  0  0
 16 15  2  0  0  0  0
 17 12  1  0  0  0  0
 19 11  1  0  0  0  0
 20 19  1  0  0  0  0
 21 19  1  0  0  0  0
 22  7  1  0  0  0  0
 24 23  2  1  0  0  0
 24 22  1  0  0  0  0
 24 25  1  0  0  0  0
 26 25  1  0  0  0  0
 27 24  1  0  0  0  0
 28 36  1  0  0  0  0
 28 27  1  0  0  0  0
 29 28  2  0  0  0  0
 30 29  1  0  0  0  0
 31 32  2  0  0  0  0
 31 29  1  0  0  0  0
 32 34  1  0  0  0  0
 33 32  1  0  0  0  0
 34 35  1  0  0  0  0
 34 36  2  0  0  0  0
M  END
>  <minimizedAffinity>
-5.95219183

$$$$

 OpenBabel03252506143D

 36 38  0  0  0  0  0  0  0  0999 V2000
   38.8910   27.7460   39.7460 F   0  0  0  0  0  0  0  0  0  0  0  0
   38.5230   28.0440   40.9860 C   0  0  0  0  0  0  0  0  0  0  0  0
   37.8070   27.1160   41.7150 C   0  0  0  0  0  0  0  0  0  0  0  0
   37.3780   27.3400   43.0290 C   0  0  0  0  0  0  0  0  0  0  0  0
   37.6850   28.5560   43.6360 C   0  0  0  0  0  0  0  0  0  0  0  0
   38.4000   29.4580   42.8820 C   0  0  0  0  0  0  0  0  0  0  0  0
   38.8230   29.2560   41.6070 C   0  0  0  0  0  0  0  0  0  0  0  0
   36.8150   26.5550   43.5380 H   0  0  0  0  0  0  0  0  0  0  0  0
   37.3330   28.6820   44.6470 H   0  0  0  0  0  0  0  0  0  0  0  0
   38.5750   30.3490   43.4730 H   0  0  0  0  0  0  0  0  0  0  0  0
   36.2670   24.6060   39.5240 C   0  0  0  0  0  0  0  0  0  0  0  0
   36.8280   23.4090   40.0140 C   0  0  0  0  0  0  0  0  0  0  0  0
   37.7450   23.4670   41.1100 C   0  0  0  0  0  0  0  0  0  0  0  0
   38.0170   24.7100   41.6140 N   0  0  0  0  0  0  0  0  0  0  0  0
   37.4650   25.8180   41.1200 C   0  0  0  0  0  0  0  0  0  0  0  0
   36.6030   25.7610   40.0900 N   0  0  0  0  0  0  0  0  0  0  0  0
   36.6080   22.4270   39.6100 H   0  0  0  0  0  0  0  0  0  0  0  0
   38.2010   22.6020   41.5230 H   0  0  0  0  0  0  0  0  0  0  0  0
   35.3720   24.5100   38.4470 N   0  0  0  0  0  0  0  0  0  0  0  0
   34.8460   23.6110   38.2610 H   0  0  0  0  0  0  0  0  0  0  0  0
   35.1540   25.2730   37.7670 H   0  0  0  0  0  0  0  0  0  0  0  0
   39.5300   30.2200   40.9380 O   0  0  0  0  0  0  0  0  0  0  0  0
   39.5220   32.1590   39.1280 O   0  0  0  0  0  0  0  0  0  0  0  0
   38.9500   31.7210   40.4580 P   0  0  2  0  0  0  0  0  0  0  0  0
   39.3410   32.8630   41.6720 O   0  0  0  0  0  0  0  0  0  0  0  0
   39.2300   33.7810   41.3130 H   0  0  0  0  0  0  0  0  0  0  0  0
   37.2620   31.7820   40.3410 O   0  0  0  0  0  0  0  0  0  0  0  0
   36.5770   30.7990   39.6500 C   0  0  0  0  0  0  0  0  0  0  0  0
   35.6460   30.1610   40.4750 C   0  0  0  0  0  0  0  0  0  0  0  0
   35.4610   30.3830   41.5220 H   0  0  0  0  0  0  0  0  0  0  0  0
   34.8380   29.1350   39.9980 C   0  0  0  0  0  3  0  0  0  0  0  0
   34.9680   28.7440   38.6700 C   0  0  0  0  0  0  0  0  0  0  0  0
   34.3450   27.9460   38.2850 H   0  0  0  0  0  0  0  0  0  0  0  0
   35.8830   29.3790   37.8770 C   0  0  0  0  0  0  0  0  0  0  0  0
   36.0110   29.1080   36.8580 H   0  0  0  0  0  0  0  0  0  0  0  0
   36.6870   30.3960   38.3450 C   0  0  0  0  0  3  0  0  0  0  0  0
  1  2  1  0  0  0  0
  2  7  2  0  0  0  0
  2  3  1  0  0  0  0
  3  4  2  0  0  0  0
  4  8  1  0  0  0  0
  4  5  1  0  0  0  0
  5  9  1  0  0  0  0
  6 10  1  0  0  0  0
  6  5  2  0  0  0  0
  7  6  1  0  0  0  0
 11 12  2  0  0  0  0
 11 16  1  0  0  0  0
 12 13  1  0  0  0  0
 13 18  1  0  0  0  0
 13 14  2  0  0  0  0
 15 14  1  0  0  0  0
 15  3  1  0  0  0  0
 16 15  2  0  0  0  0
 17 12  1  0  0  0  0
 19 11  1  0  0  0  0
 20 19  1  0  0  0  0
 21 19  1  0  0  0  0
 22  7  1  0  0  0  0
 24 23  2  6  0  0  0
 24 22  1  0  0  0  0
 24 25  1  0  0  0  0
 26 25  1  0  0  0  0
 27 24  1  0  0  0  0
 28 27  1  0  0  0  0
 28 29  1  0  0  0  0
 29 30  1  0  0  0  0
 31 29  2  0  0  0  0
 32 31  1  0  0  0  0
 33 32  1  0  0  0  0
 34 36  1  0  0  0  0
 34 32  2  0  0  0  0
 35 34  1  0  0  0  0
 36 28  2  0  0  0  0
M  END
>  <minimizedAffinity>
-5.9237299

$$$$

 OpenBabel03252506143D

 36 38  0  0  0  0  0  0  0  0999 V2000
   38.3860   28.2440   39.8010 F   0  0  0  0  0  0  0  0  0  0  0  0
   37.9330   28.0450   41.0320 C   0  0  0  0  0  0  0  0  0  0  0  0
   37.8870   29.1090   41.9110 C   0  0  0  0  0  0  0  0  0  0  0  0
   37.4230   28.9950   43.2280 C   0  0  0  0  0  0  0  0  0  0  0  0
   36.9860   27.7520   43.6800 C   0  0  0  0  0  0  0  0  0  0  0  0
   37.0440   26.7130   42.7790 C   0  0  0  0  0  0  0  0  0  0  0  0
   37.4920   26.8080   41.4990 C   0  0  0  0  0  0  0  0  0  0  0  0
   37.4190   29.8850   43.8600 H   0  0  0  0  0  0  0  0  0  0  0  0
   36.6390   27.7140   44.6990 H   0  0  0  0  0  0  0  0  0  0  0  0
   36.6700   25.8150   43.2530 H   0  0  0  0  0  0  0  0  0  0  0  0
   37.8140   32.5060   40.5230 C   0  0  0  0  0  0  0  0  0  0  0  0
   39.1550   32.9130   40.6780 C   0  0  0  0  0  0  0  0  0  0  0  0
   40.0930   32.0080   41.2660 C   0  0  0  0  0  0  0  0  0  0  0  0
   39.6080   30.7850   41.6440 N   0  0  0  0  0  0  0  0  0  0  0  0
   38.3310   30.4400   41.4800 C   0  0  0  0  0  0  0  0  0  0  0  0
   37.4510   31.2920   40.9260 N   0  0  0  0  0  0  0  0  0  0  0  0
   39.5320   33.8830   40.3770 H   0  0  0  0  0  0  0  0  0  0  0  0
   41.1150   32.2550   41.4110 H   0  0  0  0  0  0  0  0  0  0  0  0
   36.9210   33.4210   39.9420 N   0  0  0  0  0  0  0  0  0  0  0  0
   37.2750   34.1930   39.3120 H   0  0  0  0  0  0  0  0  0  0  0  0
   35.8840   33.4250   40.0720 H   0  0  0  0  0  0  0  0  0  0  0  0
   37.5120   25.7110   40.6780 O   0  0  0  0  0  0  0  0  0  0  0  0
   38.2700   23.3420   39.7560 O   0  0  0  0  0  0  0  0  0  0  0  0
   38.4740   24.3490   40.8670 P   0  0  2  0  0  0  0  0  0  0  0  0
   38.1100   23.6370   42.3800 O   0  0  0  0  0  0  0  0  0  0  0  0
   38.4780   22.7160   42.4130 H   0  0  0  0  0  0  0  0  0  0  0  0
   40.1290   24.7010   40.9470 O   0  0  0  0  0  0  0  0  0  0  0  0
   40.5810   25.7380   41.7440 C   0  0  0  0  0  0  0  0  0  0  0  0
   41.1840   26.7370   40.9760 C   0  0  0  0  0  0  0  0  0  0  0  0
   41.2990   26.7310   39.8960 H   0  0  0  0  0  0  0  0  0  0  0  0
   41.7150   27.8800   41.5610 C   0  0  0  0  0  3  0  0  0  0  0  0
   41.6380   28.0220   42.9430 C   0  0  0  0  0  0  0  0  0  0  0  0
   42.0470   28.9080   43.4110 H   0  0  0  0  0  0  0  0  0  0  0  0
   41.0440   27.0350   43.6790 C   0  0  0  0  0  0  0  0  0  0  0  0
   40.9660   27.1080   44.7360 H   0  0  0  0  0  0  0  0  0  0  0  0
   40.5170   25.8990   43.1030 C   0  0  0  0  0  3  0  0  0  0  0  0
  1  2  1  0  0  0  0
  2  7  2  0  0  0  0
  2  3  1  0  0  0  0
  3  4  2  0  0  0  0
  4  5  1  0  0  0  0
  4  8  1  0  0  0  0
  5  9  1  0  0  0  0
  6 10  1  0  0  0  0
  6  5  2  0  0  0  0
  7  6  1  0  0  0  0
 11 12  2  0  0  0  0
 11 16  1  0  0  0  0
 12 13  1  0  0  0  0
 13 18  1  0  0  0  0
 13 14  2  0  0  0  0
 15 14  1  0  0  0  0
 15  3  1  0  0  0  0
 16 15  2  0  0  0  0
 17 12  1  0  0  0  0
 19 21  1  0  0  0  0
 19 11  1  0  0  0  0
 20 19  1  0  0  0  0
 22 24  1  0  0  0  0
 22  7  1  0  0  0  0
 24 23  2  6  0  0  0
 24 27  1  0  0  0  0
 24 25  1  0  0  0  0
 25 26  1  0  0  0  0
 27 28  1  0  0  0  0
 28 36  1  0  0  0  0
 29 31  1  0  0  0  0
 29 28  2  0  0  0  0
 30 29  1  0  0  0  0
 31 32  2  0  0  0  0
 32 33  1  0  0  0  0
 32 34  1  0  0  0  0
 34 35  1  0  0  0  0
 36 34  2  0  0  0  0
M  END
>  <minimizedAffinity>
-5.87310743

$$$$

 OpenBabel03252506143D

 36 38  0  0  0  0  0  0  0  0999 V2000
   39.3360   27.8070   39.7130 F   0  0  0  0  0  0  0  0  0  0  0  0
   38.0660   27.8170   39.3260 C   0  0  0  0  0  0  0  0  0  0  0  0
   37.4760   29.0190   38.9880 C   0  0  0  0  0  0  0  0  0  0  0  0
   36.1450   29.1280   38.5680 C   0  0  0  0  0  0  0  0  0  0  0  0
   35.3720   27.9720   38.4840 C   0  0  0  0  0  0  0  0  0  0  0  0
   35.9900   26.7910   38.8270 C   0  0  0  0  0  0  0  0  0  0  0  0
   37.2800   26.6690   39.2360 C   0  0  0  0  0  0  0  0  0  0  0  0
   35.7530   30.1160   38.3190 H   0  0  0  0  0  0  0  0  0  0  0  0
   34.3550   28.1050   38.1560 H   0  0  0  0  0  0  0  0  0  0  0  0
   35.2850   25.9780   38.7100 H   0  0  0  0  0  0  0  0  0  0  0  0
   39.5480   31.8710   37.9650 C   0  0  0  0  0  0  0  0  0  0  0  0
   39.6910   32.5760   39.1780 C   0  0  0  0  0  0  0  0  0  0  0  0
   39.0680   32.0640   40.3590 C   0  0  0  0  0  0  0  0  0  0  0  0
   38.3620   30.9000   40.2210 N   0  0  0  0  0  0  0  0  0  0  0  0
   38.2510   30.2640   39.0550 C   0  0  0  0  0  0  0  0  0  0  0  0
   38.8380   30.7470   37.9460 N   0  0  0  0  0  0  0  0  0  0  0  0
   40.2520   33.4990   39.2790 H   0  0  0  0  0  0  0  0  0  0  0  0
   39.1380   32.5490   41.3000 H   0  0  0  0  0  0  0  0  0  0  0  0
   40.1730   32.4030   36.8260 N   0  0  0  0  0  0  0  0  0  0  0  0
   41.0040   33.0510   36.9210 H   0  0  0  0  0  0  0  0  0  0  0  0
   39.8920   32.2210   35.8360 H   0  0  0  0  0  0  0  0  0  0  0  0
   37.8040   25.4450   39.5580 O   0  0  0  0  0  0  0  0  0  0  0  0
   38.3110   23.3800   41.1430 O   0  0  0  0  0  0  0  0  0  0  0  0
   37.2890   24.4410   40.8010 P   0  0  2  0  0  0  0  0  0  0  0  0
   35.8160   23.7090   40.3270 O   0  0  0  0  0  0  0  0  0  0  0  0
   35.6180   22.9420   40.9250 H   0  0  0  0  0  0  0  0  0  0  0  0
   36.9130   25.2760   42.2260 O   0  0  0  0  0  0  0  0  0  0  0  0
   37.6100   26.4210   42.5650 C   0  0  0  0  0  0  0  0  0  0  0  0
   36.7550   27.5230   42.6540 C   0  0  0  0  0  0  0  0  0  0  0  0
   35.6830   27.5150   42.4840 H   0  0  0  0  0  0  0  0  0  0  0  0
   37.2320   28.7860   42.9830 C   0  0  0  0  0  3  0  0  0  0  0  0
   38.5930   28.9450   43.2280 C   0  0  0  0  0  0  0  0  0  0  0  0
   38.9770   29.9230   43.4860 H   0  0  0  0  0  0  0  0  0  0  0  0
   39.4150   27.8560   43.1380 C   0  0  0  0  0  0  0  0  0  0  0  0
   40.4580   27.9380   43.3170 H   0  0  0  0  0  0  0  0  0  0  0  0
   38.9460   26.6010   42.8110 C   0  0  0  0  0  3  0  0  0  0  0  0
  2  1  1  0  0  0  0
  3 15  1  0  0  0  0
  3  2  2  0  0  0  0
  4  3  1  0  0  0  0
  5  4  2  0  0  0  0
  5  6  1  0  0  0  0
  6  7  2  0  0  0  0
  7  2  1  0  0  0  0
  7 22  1  0  0  0  0
  8  4  1  0  0  0  0
  9  5  1  0  0  0  0
 10  6  1  0  0  0  0
 11 12  1  0  0  0  0
 12 17  1  0  0  0  0
 12 13  2  0  0  0  0
 13 18  1  0  0  0  0
 14 13  1  0  0  0  0
 15 14  2  0  0  0  0
 16 11  2  0  0  0  0
 16 15  1  0  0  0  0
 19 20  1  0  0  0  0
 19 11  1  0  0  0  0
 21 19  1  0  0  0  0
 22 24  1  0  0  0  0
 24 23  2  1  0  0  0
 24 27  1  0  0  0  0
 25 24  1  0  0  0  0
 25 26  1  0  0  0  0
 27 28  1  0  0  0  0
 28 29  2  0  0  0  0
 28 36  1  0  0  0  0
 29 31  1  0  0  0  0
 30 29  1  0  0  0  0
 31 32  2  0  0  0  0
 32 33  1  0  0  0  0
 34 32  1  0  0  0  0
 34 35  1  0  0  0  0
 36 34  2  0  0  0  0
M  END
>  <minimizedAffinity>
-5.79107809

$$$$

 OpenBabel03252506143D

 36 38  0  0  0  0  0  0  0  0999 V2000
   36.1620   26.3900   39.4920 F   0  0  0  0  0  0  0  0  0  0  0  0
   36.9890   25.7460   40.3070 C   0  0  0  0  0  0  0  0  0  0  0  0
   36.9500   24.3670   40.3510 C   0  0  0  0  0  0  0  0  0  0  0  0
   37.7840   23.6020   41.1760 C   0  0  0  0  0  0  0  0  0  0  0  0
   38.7000   24.2590   41.9960 C   0  0  0  0  0  0  0  0  0  0  0  0
   38.7130   25.6340   41.9280 C   0  0  0  0  0  0  0  0  0  0  0  0
   37.9100   26.3890   41.1330 C   0  0  0  0  0  0  0  0  0  0  0  0
   37.6920   22.5150   41.1530 H   0  0  0  0  0  0  0  0  0  0  0  0
   39.3190   23.6300   42.6130 H   0  0  0  0  0  0  0  0  0  0  0  0
   39.4690   26.0120   42.6040 H   0  0  0  0  0  0  0  0  0  0  0  0
   33.9520   22.5450   39.2730 C   0  0  0  0  0  0  0  0  0  0  0  0
   34.2520   22.2610   37.9250 C   0  0  0  0  0  0  0  0  0  0  0  0
   35.5000   22.7020   37.3820 C   0  0  0  0  0  0  0  0  0  0  0  0
   36.3300   23.3820   38.2320 N   0  0  0  0  0  0  0  0  0  0  0  0
   36.0070   23.6300   39.5010 C   0  0  0  0  0  0  0  0  0  0  0  0
   34.8330   23.2140   40.0090 N   0  0  0  0  0  0  0  0  0  0  0  0
   33.5900   21.7210   37.2570 H   0  0  0  0  0  0  0  0  0  0  0  0
   35.7840   22.5200   36.3760 H   0  0  0  0  0  0  0  0  0  0  0  0
   32.7180   22.0970   39.7710 N   0  0  0  0  0  0  0  0  0  0  0  0
   32.2170   21.2820   39.3180 H   0  0  0  0  0  0  0  0  0  0  0  0
   32.2070   22.5040   40.5870 H   0  0  0  0  0  0  0  0  0  0  0  0
   37.9990   27.7560   41.1380 O   0  0  0  0  0  0  0  0  0  0  0  0
   38.2090   29.5790   43.0530 O   0  0  0  0  0  0  0  0  0  0  0  0
   37.2290   28.7950   42.2080 P   0  0  2  0  0  0  0  0  0  0  0  0
   36.1980   27.8680   43.2120 O   0  0  0  0  0  0  0  0  0  0  0  0
   35.9210   28.4100   43.9960 H   0  0  0  0  0  0  0  0  0  0  0  0
   36.2010   29.9030   41.4460 O   0  0  0  0  0  0  0  0  0  0  0  0
   36.5750   30.4890   40.2500 C   0  0  0  0  0  0  0  0  0  0  0  0
   37.0270   31.7960   40.4490 C   0  0  0  0  0  0  0  0  0  0  0  0
   37.0880   32.3130   41.4020 H   0  0  0  0  0  0  0  0  0  0  0  0
   37.4570   32.5850   39.3880 C   0  0  0  0  0  3  0  0  0  0  0  0
   37.4320   32.0500   38.1040 C   0  0  0  0  0  0  0  0  0  0  0  0
   37.7650   32.6530   37.2690 H   0  0  0  0  0  0  0  0  0  0  0  0
   36.9880   30.7690   37.9270 C   0  0  0  0  0  0  0  0  0  0  0  0
   36.9550   30.3260   36.9620 H   0  0  0  0  0  0  0  0  0  0  0  0
   36.5600   29.9830   38.9760 C   0  0  0  0  0  3  0  0  0  0  0  0
  1  2  1  0  0  0  0
  2  3  2  0  0  0  0
  2  7  1  0  0  0  0
  3  4  1  0  0  0  0
  4  5  2  0  0  0  0
  5  9  1  0  0  0  0
  6  5  1  0  0  0  0
  6 10  1  0  0  0  0
  7 22  1  0  0  0  0
  7  6  2  0  0  0  0
  8  4  1  0  0  0  0
 11 19  1  0  0  0  0
 11 16  1  0  0  0  0
 12 11  2  0  0  0  0
 13 12  1  0  0  0  0
 13 14  2  0  0  0  0
 14 15  1  0  0  0  0
 15 16  2  0  0  0  0
 15  3  1  0  0  0  0
 17 12  1  0  0  0  0
 18 13  1  0  0  0  0
 19 21  1  0  0  0  0
 20 19  1  0  0  0  0
 22 24  1  0  0  0  0
 24 23  2  1  0  0  0
 24 25  1  0  0  0  0
 25 26  1  0  0  0  0
 27 24  1  0  0  0  0
 28 29  1  0  0  0  0
 28 27  1  0  0  0  0
 29 30  1  0  0  0  0
 31 29  2  0  0  0  0
 32 31  1  0  0  0  0
 33 32  1  0  0  0  0
 34 32  2  0  0  0  0
 34 36  1  0  0  0  0
 35 34  1  0  0  0  0
 36 28  2  0  0  0  0
M  END
>  <minimizedAffinity>
-5.74256897

$$$$

 OpenBabel03252506143D

 36 38  0  0  0  0  0  0  0  0999 V2000
   38.8740   28.8930   39.9300 F   0  0  0  0  0  0  0  0  0  0  0  0
   39.7800   29.2120   40.8460 C   0  0  0  0  0  0  0  0  0  0  0  0
   39.9760   28.3660   41.9190 C   0  0  0  0  0  0  0  0  0  0  0  0
   40.9090   28.6180   42.9330 C   0  0  0  0  0  0  0  0  0  0  0  0
   41.6800   29.7760   42.8610 C   0  0  0  0  0  0  0  0  0  0  0  0
   41.4600   30.5970   41.7780 C   0  0  0  0  0  0  0  0  0  0  0  0
   40.5590   30.3660   40.7870 C   0  0  0  0  0  0  0  0  0  0  0  0
   41.0030   27.8990   43.7490 H   0  0  0  0  0  0  0  0  0  0  0  0
   42.3830   29.9260   43.6630 H   0  0  0  0  0  0  0  0  0  0  0  0
   42.1260   31.4480   41.8420 H   0  0  0  0  0  0  0  0  0  0  0  0
   39.1000   24.8680   42.6050 C   0  0  0  0  0  0  0  0  0  0  0  0
   37.7350   24.8360   42.2540 C   0  0  0  0  0  0  0  0  0  0  0  0
   37.1100   26.0300   41.7760 C   0  0  0  0  0  0  0  0  0  0  0  0
   37.9030   27.1430   41.6930 N   0  0  0  0  0  0  0  0  0  0  0  0
   39.1910   27.1310   42.0360 C   0  0  0  0  0  0  0  0  0  0  0  0
   39.7760   26.0070   42.4850 N   0  0  0  0  0  0  0  0  0  0  0  0
   37.1130   23.9500   42.3220 H   0  0  0  0  0  0  0  0  0  0  0  0
   36.0880   26.0700   41.4970 H   0  0  0  0  0  0  0  0  0  0  0  0
   39.6790   23.6770   43.0710 N   0  0  0  0  0  0  0  0  0  0  0  0
   39.2610   22.7390   42.8170 H   0  0  0  0  0  0  0  0  0  0  0  0
   40.5280   23.6090   43.6770 H   0  0  0  0  0  0  0  0  0  0  0  0
   40.4130   31.2480   39.7490 O   0  0  0  0  0  0  0  0  0  0  0  0
   40.4540   33.8230   39.1120 O   0  0  0  0  0  0  0  0  0  0  0  0
   39.6600   32.7460   39.8190 P   0  0  2  0  0  0  0  0  0  0  0  0
   39.4400   33.1630   41.4650 O   0  0  0  0  0  0  0  0  0  0  0  0
   39.2240   34.1290   41.5380 H   0  0  0  0  0  0  0  0  0  0  0  0
   38.0970   32.7430   39.1670 O   0  0  0  0  0  0  0  0  0  0  0  0
   37.2400   31.6870   39.4200 C   0  0  0  0  0  0  0  0  0  0  0  0
   36.9620   30.9740   38.2510 C   0  0  0  0  0  0  0  0  0  0  0  0
   37.3490   31.1940   37.2610 H   0  0  0  0  0  0  0  0  0  0  0  0
   36.1210   29.8680   38.2600 C   0  0  0  0  0  3  0  0  0  0  0  0
   35.5500   29.4710   39.4650 C   0  0  0  0  0  0  0  0  0  0  0  0
   34.8940   28.6100   39.4870 H   0  0  0  0  0  0  0  0  0  0  0  0
   35.8340   30.1790   40.6000 C   0  0  0  0  0  0  0  0  0  0  0  0
   35.4180   29.9060   41.5380 H   0  0  0  0  0  0  0  0  0  0  0  0
   36.6670   31.2780   40.5960 C   0  0  0  0  0  3  0  0  0  0  0  0
  1  2  1  0  0  0  0
  2  3  1  0  0  0  0
  3 15  1  0  0  0  0
  3  4  2  0  0  0  0
  4  8  1  0  0  0  0
  5  4  1  0  0  0  0
  5  9  1  0  0  0  0
  6 10  1  0  0  0  0
  6  5  2  0  0  0  0
  7  2  2  0  0  0  0
  7  6  1  0  0  0  0
 11 19  1  0  0  0  0
 12 17  1  0  0  0  0
 12 11  2  0  0  0  0
 13 12  1  0  0  0  0
 14 13  2  0  0  0  0
 14 15  1  0  0  0  0
 15 16  2  0  0  0  0
 16 11  1  0  0  0  0
 18 13  1  0  0  0  0
 19 21  1  0  0  0  0
 20 19  1  0  0  0  0
 22 24  1  0  0  0  0
 22  7  1  0  0  0  0
 24 23  2  6  0  0  0
 24 25  1  0  0  0  0
 25 26  1  0  0  0  0
 27 28  1  0  0  0  0
 27 24  1  0  0  0  0
 28 36  1  0  0  0  0
 29 31  1  0  0  0  0
 29 28  2  0  0  0  0
 30 29  1  0  0  0  0
 31 32  2  0  0  0  0
 32 33  1  0  0  0  0
 32 34  1  0  0  0  0
 34 35  1  0  0  0  0
 36 34  2  0  0  0  0
M  END
>  <minimizedAffinity>
-5.70503855

$$$$
