
 OpenBabel03252503443D

 34 36  0  0  1  0  0  0  0  0999 V2000
   37.8410   29.7040   38.7890 C   0  0  0  0  0  0  0  0  0  0  0  0
   37.1570   29.8690   40.0010 C   0  0  0  0  0  0  0  0  0  0  0  0
   37.6510   30.8280   40.9020 C   0  0  0  0  0  0  0  0  0  0  0  0
   38.7490   31.5430   40.5710 N   0  0  0  0  0  0  0  0  0  0  0  0
   39.3820   31.3570   39.3970 C   0  0  0  0  0  0  0  0  0  0  0  0
   38.9450   30.4460   38.4960 N   0  0  0  0  0  0  0  0  0  0  0  0
   37.5880   29.0130   37.9970 H   0  0  0  0  0  0  0  0  0  0  0  0
   37.1170   30.9500   41.8350 H   0  0  0  0  0  0  0  0  0  0  0  0
   41.0040   32.1440   37.6660 C   0  0  2  0  0  0  0  0  0  0  0  0
   40.5580   32.1860   39.1430 C   0  0  1  0  0  0  0  0  0  0  0  0
   40.3600   33.5340   39.2780 O   0  0  0  0  0  0  0  0  0  0  0  0
   41.4410   34.1610   38.7250 C   0  0  0  0  0  0  0  0  0  0  0  0
   42.1060   33.2070   37.7600 C   0  0  2  0  0  0  0  0  0  0  0  0
   41.3850   31.1560   37.3810 H   0  0  0  0  0  0  0  0  0  0  0  0
   41.4230   31.8910   39.7870 H   0  0  0  0  0  0  0  0  0  0  0  0
   42.1680   34.3460   39.5630 H   0  0  0  0  0  0  0  0  0  0  0  0
   41.2200   35.1460   38.2880 H   0  0  0  0  0  0  0  0  0  0  0  0
   42.9890   32.7380   38.2100 H   0  0  0  0  0  0  0  0  0  0  0  0
   40.0240   32.6600   36.8800 O   0  0  0  0  0  0  0  0  0  0  0  0
   39.5030   31.9160   36.4800 H   0  0  0  0  0  0  0  0  0  0  0  0
   42.4210   33.7660   36.5490 O   0  0  0  0  0  0  0  0  0  0  0  0
   41.6990   34.3800   36.2800 H   0  0  0  0  0  0  0  0  0  0  0  0
   35.9960   29.0180   40.2360 C   0  0  0  0  0  0  0  0  0  0  0  0
   35.4610   28.7540   39.2820 H   0  0  0  0  0  0  0  0  0  0  0  0
   35.2710   29.5520   40.8840 H   0  0  0  0  0  0  0  0  0  0  0  0
   36.4260   27.7720   40.9120 C   0  0  0  0  0  0  0  0  0  0  0  0
   36.6680   26.6150   40.2060 C   0  0  0  0  0  0  0  0  0  0  0  0
   36.5450   26.6100   39.1470 H   0  0  0  0  0  0  0  0  0  0  0  0
   37.0690   25.4520   40.8360 C   0  0  0  0  0  3  0  0  0  0  0  0
   37.2280   25.4580   42.2070 C   0  0  0  0  0  0  0  0  0  0  0  0
   37.5420   24.5570   42.7260 H   0  0  0  0  0  0  0  0  0  0  0  0
   36.9830   26.6230   42.9130 C   0  0  0  0  0  0  0  0  0  0  0  0
   37.1180   26.5870   43.9710 H   0  0  0  0  0  0  0  0  0  0  0  0
   36.5770   27.8090   42.2940 C   0  0  0  0  0  3  0  0  0  0  0  0
  1  2  1  0  0  0  0
  2 23  1  0  0  0  0
  2  3  2  0  0  0  0
  3  8  1  0  0  0  0
  4  3  1  0  0  0  0
  5  4  2  0  0  0  0
  6  1  2  0  0  0  0
  6  5  1  0  0  0  0
  7  1  1  0  0  0  0
  9 14  1  6  0  0  0
  9 13  1  0  0  0  0
  9 10  1  0  0  0  0
 10 11  1  0  0  0  0
 10  5  1  0  0  0  0
 10 15  1  1  0  0  0
 12 11  1  0  0  0  0
 12 16  1  0  0  0  0
 13 18  1  1  0  0  0
 13 12  1  0  0  0  0
 17 12  1  0  0  0  0
 19  9  1  0  0  0  0
 20 19  1  0  0  0  0
 21 13  1  0  0  0  0
 22 21  1  0  0  0  0
 23 25  1  0  0  0  0
 23 26  1  0  0  0  0
 24 23  1  0  0  0  0
 26 34  1  0  0  0  0
 27 29  1  0  0  0  0
 27 26  2  0  0  0  0
 28 27  1  0  0  0  0
 29 30  2  0  0  0  0
 30 31  1  0  0  0  0
 30 32  1  0  0  0  0
 32 33  1  0  0  0  0
 34 32  2  0  0  0  0
M  END
>  <minimizedAffinity>
-6.02402925

$$$$

 OpenBabel03252503443D

 34 36  0  0  1  0  0  0  0  0999 V2000
   39.7350   28.0300   41.4810 C   0  0  0  0  0  0  0  0  0  0  0  0
   39.0070   27.9000   42.6710 C   0  0  0  0  0  0  0  0  0  0  0  0
   38.2810   29.0180   43.1160 C   0  0  0  0  0  0  0  0  0  0  0  0
   38.3130   30.1580   42.3910 N   0  0  0  0  0  0  0  0  0  0  0  0
   39.0250   30.2480   41.2510 C   0  0  0  0  0  0  0  0  0  0  0  0
   39.7400   29.1980   40.7820 N   0  0  0  0  0  0  0  0  0  0  0  0
   40.3390   27.2670   41.0100 H   0  0  0  0  0  0  0  0  0  0  0  0
   37.7200   28.9090   44.0350 H   0  0  0  0  0  0  0  0  0  0  0  0
   37.6100   31.8140   39.9140 C   0  0  2  0  0  0  0  0  0  0  0  0
   38.9870   31.5280   40.5490 C   0  0  1  0  0  0  0  0  0  0  0  0
   39.0970   32.6350   41.3480 O   0  0  0  0  0  0  0  0  0  0  0  0
   38.7470   33.7180   40.5930 C   0  0  0  0  0  0  0  0  0  0  0  0
   37.9030   33.2410   39.4340 C   0  0  2  0  0  0  0  0  0  0  0  0
   37.3860   31.1230   39.0920 H   0  0  0  0  0  0  0  0  0  0  0  0
   39.7680   31.5900   39.7520 H   0  0  0  0  0  0  0  0  0  0  0  0
   39.7000   34.1310   40.1620 H   0  0  0  0  0  0  0  0  0  0  0  0
   38.2870   34.5390   41.1630 H   0  0  0  0  0  0  0  0  0  0  0  0
   38.4950   33.1720   38.5130 H   0  0  0  0  0  0  0  0  0  0  0  0
   36.6700   31.9110   40.8900 O   0  0  0  0  0  0  0  0  0  0  0  0
   36.1790   31.0510   40.9540 H   0  0  0  0  0  0  0  0  0  0  0  0
   36.7700   33.9840   39.2240 O   0  0  0  0  0  0  0  0  0  0  0  0
   36.3860   34.2370   40.0940 H   0  0  0  0  0  0  0  0  0  0  0  0
   39.0750   26.6170   43.3610 C   0  0  0  0  0  0  0  0  0  0  0  0
   38.5380   26.6360   44.3500 H   0  0  0  0  0  0  0  0  0  0  0  0
   40.1350   26.3630   43.5680 H   0  0  0  0  0  0  0  0  0  0  0  0
   38.4800   25.5630   42.5070 C   0  0  0  0  0  0  0  0  0  0  0  0
   37.1310   25.5300   42.2360 C   0  0  0  0  0  0  0  0  0  0  0  0
   36.4940   26.2780   42.6490 H   0  0  0  0  0  0  0  0  0  0  0  0
   36.5750   24.5470   41.4390 C   0  0  0  0  0  3  0  0  0  0  0  0
   37.4000   23.5780   40.9040 C   0  0  0  0  0  0  0  0  0  0  0  0
   36.9880   22.7950   40.2750 H   0  0  0  0  0  0  0  0  0  0  0  0
   38.7560   23.6150   41.1790 C   0  0  0  0  0  0  0  0  0  0  0  0
   39.3600   22.8490   40.7460 H   0  0  0  0  0  0  0  0  0  0  0  0
   39.3360   24.6010   41.9820 C   0  0  0  0  0  3  0  0  0  0  0  0
  1  2  1  0  0  0  0
  2  3  2  0  0  0  0
  2 23  1  0  0  0  0
  3  8  1  0  0  0  0
  4  3  1  0  0  0  0
  5  4  2  0  0  0  0
  6  5  1  0  0  0  0
  6  1  2  0  0  0  0
  7  1  1  0  0  0  0
  9 14  1  6  0  0  0
  9 10  1  0  0  0  0
  9 19  1  0  0  0  0
 10 15  1  6  0  0  0
 10  5  1  0  0  0  0
 10 11  1  0  0  0  0
 12 17  1  0  0  0  0
 12 11  1  0  0  0  0
 13 18  1  6  0  0  0
 13  9  1  0  0  0  0
 13 12  1  0  0  0  0
 16 12  1  0  0  0  0
 19 20  1  0  0  0  0
 21 13  1  0  0  0  0
 21 22  1  0  0  0  0
 23 25  1  0  0  0  0
 23 24  1  0  0  0  0
 26 23  1  0  0  0  0
 27 26  1  0  0  0  0
 27 28  1  0  0  0  0
 29 27  2  0  0  0  0
 30 32  2  0  0  0  0
 30 29  1  0  0  0  0
 31 30  1  0  0  0  0
 32 34  1  0  0  0  0
 33 32  1  0  0  0  0
 34 26  2  0  0  0  0
M  END
>  <minimizedAffinity>
-5.85785913

$$$$

 OpenBabel03252503443D

 34 36  0  0  1  0  0  0  0  0999 V2000
   39.1200   33.0390   39.9670 C   0  0  0  0  0  0  0  0  0  0  0  0
   38.4120   32.4030   38.9390 C   0  0  0  0  0  0  0  0  0  0  0  0
   39.1500   31.9120   37.8470 C   0  0  0  0  0  0  0  0  0  0  0  0
   40.4920   32.0690   37.8320 N   0  0  0  0  0  0  0  0  0  0  0  0
   41.1400   32.6870   38.8380 C   0  0  0  0  0  0  0  0  0  0  0  0
   40.4740   33.1770   39.9100 N   0  0  0  0  0  0  0  0  0  0  0  0
   38.7010   33.4680   40.8670 H   0  0  0  0  0  0  0  0  0  0  0  0
   38.5960   31.4210   37.0580 H   0  0  0  0  0  0  0  0  0  0  0  0
   43.0520   32.9630   37.2540 C   0  0  2  0  0  0  0  0  0  0  0  0
   42.5910   32.8000   38.7170 C   0  0  1  0  0  0  0  0  0  0  0  0
   43.1330   33.9390   39.2500 O   0  0  0  0  0  0  0  0  0  0  0  0
   44.4180   34.0290   38.7960 C   0  0  0  0  0  0  0  0  0  0  0  0
   44.5410   33.2000   37.5380 C   0  0  2  0  0  0  0  0  0  0  0  0
   42.8690   32.0580   36.6620 H   0  0  0  0  0  0  0  0  0  0  0  0
   43.1160   31.9190   39.1620 H   0  0  0  0  0  0  0  0  0  0  0  0
   45.0690   33.5460   39.5770 H   0  0  0  0  0  0  0  0  0  0  0  0
   44.7890   35.0590   38.6820 H   0  0  0  0  0  0  0  0  0  0  0  0
   45.0030   32.2280   37.7470 H   0  0  0  0  0  0  0  0  0  0  0  0
   42.5580   34.1220   36.7470 O   0  0  0  0  0  0  0  0  0  0  0  0
   41.7520   33.9220   36.2050 H   0  0  0  0  0  0  0  0  0  0  0  0
   45.1930   33.8340   36.5130 O   0  0  0  0  0  0  0  0  0  0  0  0
   44.9310   34.7830   36.5020 H   0  0  0  0  0  0  0  0  0  0  0  0
   36.9630   32.3180   39.0760 C   0  0  0  0  0  0  0  0  0  0  0  0
   36.4280   32.5830   38.1220 H   0  0  0  0  0  0  0  0  0  0  0  0
   36.6220   33.0320   39.8530 H   0  0  0  0  0  0  0  0  0  0  0  0
   36.5840   30.9440   39.4780 C   0  0  0  0  0  0  0  0  0  0  0  0
   36.2380   29.9900   38.5480 C   0  0  0  0  0  0  0  0  0  0  0  0
   36.2390   30.2410   37.5120 H   0  0  0  0  0  0  0  0  0  0  0  0
   35.8840   28.7070   38.9220 C   0  0  0  0  0  3  0  0  0  0  0  0
   35.8810   28.3810   40.2640 C   0  0  0  0  0  0  0  0  0  0  0  0
   35.6080   27.3810   40.5840 H   0  0  0  0  0  0  0  0  0  0  0  0
   36.2310   29.3440   41.1960 C   0  0  0  0  0  0  0  0  0  0  0  0
   36.2170   29.0520   42.2220 H   0  0  0  0  0  0  0  0  0  0  0  0
   36.5910   30.6460   40.8360 C   0  0  0  0  0  3  0  0  0  0  0  0
  1  7  1  0  0  0  0
  2 23  1  0  0  0  0
  2  1  2  0  0  0  0
  3  2  1  0  0  0  0
  4  3  2  0  0  0  0
  4  5  1  0  0  0  0
  5  6  2  0  0  0  0
  6  1  1  0  0  0  0
  8  3  1  0  0  0  0
  9 14  1  6  0  0  0
  9 13  1  0  0  0  0
  9 10  1  0  0  0  0
 10  5  1  0  0  0  0
 10 15  1  1  0  0  0
 10 11  1  0  0  0  0
 12 11  1  0  0  0  0
 12 16  1  0  0  0  0
 13 18  1  1  0  0  0
 13 12  1  0  0  0  0
 17 12  1  0  0  0  0
 19  9  1  0  0  0  0
 20 19  1  0  0  0  0
 21 13  1  0  0  0  0
 22 21  1  0  0  0  0
 23 26  1  0  0  0  0
 23 25  1  0  0  0  0
 24 23  1  0  0  0  0
 26 34  1  0  0  0  0
 27 29  1  0  0  0  0
 27 26  2  0  0  0  0
 28 27  1  0  0  0  0
 29 30  2  0  0  0  0
 30 31  1  0  0  0  0
 30 32  1  0  0  0  0
 32 33  1  0  0  0  0
 34 32  2  0  0  0  0
M  END
>  <minimizedAffinity>
-5.76432848

$$$$

 OpenBabel03252503443D

 34 36  0  0  1  0  0  0  0  0999 V2000
   36.0820   28.0940   41.4100 C   0  0  0  0  0  0  0  0  0  0  0  0
   36.9080   27.8300   42.5100 C   0  0  0  0  0  0  0  0  0  0  0  0
   37.7510   28.8630   42.9560 C   0  0  0  0  0  0  0  0  0  0  0  0
   37.7320   30.0530   42.3150 N   0  0  0  0  0  0  0  0  0  0  0  0
   36.9250   30.2720   41.2600 C   0  0  0  0  0  0  0  0  0  0  0  0
   36.0950   29.3080   40.7940 N   0  0  0  0  0  0  0  0  0  0  0  0
   35.3820   27.4080   40.9520 H   0  0  0  0  0  0  0  0  0  0  0  0
   38.3850   28.6520   43.8060 H   0  0  0  0  0  0  0  0  0  0  0  0
   38.3860   32.2350   40.7540 C   0  0  2  0  0  0  0  0  0  0  0  0
   36.9860   31.5960   40.6460 C   0  0  1  0  0  0  0  0  0  0  0  0
   36.8380   31.6130   39.2840 O   0  0  0  0  0  0  0  0  0  0  0  0
   37.2140   32.8530   38.8500 C   0  0  0  0  0  0  0  0  0  0  0  0
   38.1060   33.4770   39.8980 C   0  0  2  0  0  0  0  0  0  0  0  0
   38.6450   32.4800   41.7920 H   0  0  0  0  0  0  0  0  0  0  0  0
   36.2360   32.2960   41.0890 H   0  0  0  0  0  0  0  0  0  0  0  0
   36.2770   33.4730   38.7990 H   0  0  0  0  0  0  0  0  0  0  0  0
   37.6480   32.8680   37.8390 H   0  0  0  0  0  0  0  0  0  0  0  0
   37.5510   34.1940   40.5160 H   0  0  0  0  0  0  0  0  0  0  0  0
   39.2850   31.4800   40.0720 O   0  0  0  0  0  0  0  0  0  0  0  0
   39.7770   30.9030   40.7120 H   0  0  0  0  0  0  0  0  0  0  0  0
   39.2430   34.0530   39.3940 O   0  0  0  0  0  0  0  0  0  0  0  0
   39.5910   33.4920   38.6640 H   0  0  0  0  0  0  0  0  0  0  0  0
   36.8400   26.4950   43.0950 C   0  0  0  0  0  0  0  0  0  0  0  0
   35.7790   26.1610   43.2710 H   0  0  0  0  0  0  0  0  0  0  0  0
   37.3530   26.4950   44.0780 H   0  0  0  0  0  0  0  0  0  0  0  0
   37.5090   25.5270   42.1960 C   0  0  0  0  0  0  0  0  0  0  0  0
   38.8410   25.6470   41.8680 C   0  0  0  0  0  0  0  0  0  0  0  0
   39.4090   26.4560   42.2680 H   0  0  0  0  0  0  0  0  0  0  0  0
   39.4650   24.7440   41.0290 C   0  0  0  0  0  3  0  0  0  0  0  0
   38.7300   23.6970   40.5110 C   0  0  0  0  0  0  0  0  0  0  0  0
   39.1970   22.9740   39.8510 H   0  0  0  0  0  0  0  0  0  0  0  0
   37.3910   23.5790   40.8440 C   0  0  0  0  0  0  0  0  0  0  0  0
   36.8570   22.7560   40.4240 H   0  0  0  0  0  0  0  0  0  0  0  0
   36.7420   24.4830   41.6900 C   0  0  0  0  0  3  0  0  0  0  0  0
  1  2  1  0  0  0  0
  2  3  2  0  0  0  0
  2 23  1  0  0  0  0
  3  8  1  0  0  0  0
  4  3  1  0  0  0  0
  5  4  2  0  0  0  0
  6  5  1  0  0  0  0
  6  1  2  0  0  0  0
  7  1  1  0  0  0  0
  9 14  1  1  0  0  0
 10  9  1  0  0  0  0
 10 15  1  1  0  0  0
 10  5  1  0  0  0  0
 11 10  1  0  0  0  0
 12 11  1  0  0  0  0
 12 13  1  0  0  0  0
 13 18  1  1  0  0  0
 13  9  1  0  0  0  0
 16 12  1  0  0  0  0
 17 12  1  0  0  0  0
 19 20  1  0  0  0  0
 19  9  1  0  0  0  0
 21 13  1  0  0  0  0
 22 21  1  0  0  0  0
 23 24  1  0  0  0  0
 23 25  1  0  0  0  0
 26 23  1  0  0  0  0
 27 26  1  0  0  0  0
 27 28  1  0  0  0  0
 29 27  2  0  0  0  0
 30 32  2  0  0  0  0
 30 29  1  0  0  0  0
 31 30  1  0  0  0  0
 32 34  1  0  0  0  0
 33 32  1  0  0  0  0
 34 26  2  0  0  0  0
M  END
>  <minimizedAffinity>
-5.67851782

$$$$

 OpenBabel03252503443D

 34 36  0  0  1  0  0  0  0  0999 V2000
   35.8340   29.2800   37.0280 C   0  0  0  0  0  0  0  0  0  0  0  0
   34.7460   28.8760   37.8140 C   0  0  0  0  0  0  0  0  0  0  0  0
   34.7870   29.1760   39.1870 C   0  0  0  0  0  0  0  0  0  0  0  0
   35.8570   29.8320   39.6880 N   0  0  0  0  0  0  0  0  0  0  0  0
   36.8860   30.2050   38.9040 C   0  0  0  0  0  0  0  0  0  0  0  0
   36.8930   29.9380   37.5760 N   0  0  0  0  0  0  0  0  0  0  0  0
   35.9510   29.1250   35.9650 H   0  0  0  0  0  0  0  0  0  0  0  0
   33.9430   28.8620   39.7860 H   0  0  0  0  0  0  0  0  0  0  0  0
   37.6860   32.4050   39.7770 C   0  0  2  0  0  0  0  0  0  0  0  0
   37.9890   30.9090   39.5520 C   0  0  1  0  0  0  0  0  0  0  0  0
   38.2390   30.5350   40.8450 O   0  0  0  0  0  0  0  0  0  0  0  0
   39.0720   31.4730   41.3870 C   0  0  0  0  0  0  0  0  0  0  0  0
   38.9460   32.7460   40.5820 C   0  0  2  0  0  0  0  0  0  0  0  0
   37.6190   32.9570   38.8320 H   0  0  0  0  0  0  0  0  0  0  0  0
   38.9400   30.8200   38.9700 H   0  0  0  0  0  0  0  0  0  0  0  0
   40.1210   31.0910   41.2420 H   0  0  0  0  0  0  0  0  0  0  0  0
   38.9460   31.6220   42.4690 H   0  0  0  0  0  0  0  0  0  0  0  0
   39.7780   32.8540   39.8750 H   0  0  0  0  0  0  0  0  0  0  0  0
   36.6310   32.5330   40.6230 O   0  0  0  0  0  0  0  0  0  0  0  0
   35.8100   32.7060   40.0940 H   0  0  0  0  0  0  0  0  0  0  0  0
   38.8110   33.8770   41.3440 O   0  0  0  0  0  0  0  0  0  0  0  0
   38.2370   33.6760   42.1190 H   0  0  0  0  0  0  0  0  0  0  0  0
   33.6660   28.1610   37.1450 C   0  0  0  0  0  0  0  0  0  0  0  0
   33.1000   27.4880   37.8490 H   0  0  0  0  0  0  0  0  0  0  0  0
   34.0860   27.5190   36.3440 H   0  0  0  0  0  0  0  0  0  0  0  0
   32.7250   29.1350   36.5460 C   0  0  0  0  0  0  0  0  0  0  0  0
   31.7210   29.7180   37.2860 C   0  0  0  0  0  0  0  0  0  0  0  0
   31.6130   29.4650   38.3160 H   0  0  0  0  0  0  0  0  0  0  0  0
   30.8420   30.6270   36.7270 C   0  0  0  0  0  3  0  0  0  0  0  0
   30.9810   30.9540   35.3930 C   0  0  0  0  0  0  0  0  0  0  0  0
   30.3050   31.6650   34.9300 H   0  0  0  0  0  0  0  0  0  0  0  0
   31.9920   30.3650   34.6520 C   0  0  0  0  0  0  0  0  0  0  0  0
   32.0660   30.6450   33.6250 H   0  0  0  0  0  0  0  0  0  0  0  0
   32.8900   29.4440   35.2000 C   0  0  0  0  0  3  0  0  0  0  0  0
  1  6  2  0  0  0  0
  1  2  1  0  0  0  0
  2  3  2  0  0  0  0
  3  4  1  0  0  0  0
  3  8  1  0  0  0  0
  5 10  1  0  0  0  0
  5  4  2  0  0  0  0
  6  5  1  0  0  0  0
  7  1  1  0  0  0  0
  9 14  1  6  0  0  0
  9 13  1  0  0  0  0
  9 19  1  0  0  0  0
 10 15  1  6  0  0  0
 10  9  1  0  0  0  0
 10 11  1  0  0  0  0
 11 12  1  0  0  0  0
 12 17  1  0  0  0  0
 13 18  1  6  0  0  0
 13 21  1  0  0  0  0
 13 12  1  0  0  0  0
 16 12  1  0  0  0  0
 20 19  1  0  0  0  0
 21 22  1  0  0  0  0
 23  2  1  0  0  0  0
 23 24  1  0  0  0  0
 25 23  1  0  0  0  0
 26 23  1  0  0  0  0
 26 27  1  0  0  0  0
 27 28  1  0  0  0  0
 29 27  2  0  0  0  0
 30 29  1  0  0  0  0
 31 30  1  0  0  0  0
 32 34  1  0  0  0  0
 32 30  2  0  0  0  0
 33 32  1  0  0  0  0
 34 26  2  0  0  0  0
M  END
>  <minimizedAffinity>
-5.59264803

$$$$

 OpenBabel03252503443D

 34 36  0  0  1  0  0  0  0  0999 V2000
   37.8190   29.6170   42.1800 C   0  0  0  0  0  0  0  0  0  0  0  0
   38.6430   28.7460   42.9040 C   0  0  0  0  0  0  0  0  0  0  0  0
   40.0330   28.9380   42.8130 C   0  0  0  0  0  0  0  0  0  0  0  0
   40.5130   29.9400   42.0440 N   0  0  0  0  0  0  0  0  0  0  0  0
   39.6910   30.7590   41.3610 C   0  0  0  0  0  0  0  0  0  0  0  0
   38.3450   30.6140   41.4160 N   0  0  0  0  0  0  0  0  0  0  0  0
   36.7380   29.6010   42.1460 H   0  0  0  0  0  0  0  0  0  0  0  0
   40.6630   28.2610   43.3760 H   0  0  0  0  0  0  0  0  0  0  0  0
   40.3490   31.4690   39.0580 C   0  0  2  0  0  0  0  0  0  0  0  0
   40.3180   31.8080   40.5620 C   0  0  1  0  0  0  0  0  0  0  0  0
   39.6290   32.9910   40.5100 O   0  0  0  0  0  0  0  0  0  0  0  0
   40.1790   33.7380   39.5070 C   0  0  0  0  0  0  0  0  0  0  0  0
   40.9050   32.8100   38.5610 C   0  0  2  0  0  0  0  0  0  0  0  0
   41.0140   30.6240   38.8410 H   0  0  0  0  0  0  0  0  0  0  0  0
   41.3610   32.0240   40.9030 H   0  0  0  0  0  0  0  0  0  0  0  0
   40.9560   34.3960   39.9870 H   0  0  0  0  0  0  0  0  0  0  0  0
   39.4720   34.4140   39.0040 H   0  0  0  0  0  0  0  0  0  0  0  0
   41.9860   32.8160   38.7480 H   0  0  0  0  0  0  0  0  0  0  0  0
   39.0790   31.3710   38.5870 O   0  0  0  0  0  0  0  0  0  0  0  0
   38.8240   30.4130   38.5390 H   0  0  0  0  0  0  0  0  0  0  0  0
   40.6440   33.0460   37.2370 O   0  0  0  0  0  0  0  0  0  0  0  0
   39.6930   33.2760   37.1320 H   0  0  0  0  0  0  0  0  0  0  0  0
   37.9920   27.6970   43.6800 C   0  0  0  0  0  0  0  0  0  0  0  0
   36.9180   27.9420   43.9110 H   0  0  0  0  0  0  0  0  0  0  0  0
   38.5170   27.5720   44.6490 H   0  0  0  0  0  0  0  0  0  0  0  0
   38.0460   26.4210   42.9300 C   0  0  0  0  0  0  0  0  0  0  0  0
   36.9890   25.9900   42.1600 C   0  0  0  0  0  0  0  0  0  0  0  0
   36.1070   26.5860   42.1000 H   0  0  0  0  0  0  0  0  0  0  0  0
   37.0390   24.7990   41.4600 C   0  0  0  0  0  3  0  0  0  0  0  0
   38.1810   24.0280   41.5390 C   0  0  0  0  0  0  0  0  0  0  0  0
   38.2460   23.0890   40.9980 H   0  0  0  0  0  0  0  0  0  0  0  0
   39.2420   24.4650   42.3130 C   0  0  0  0  0  0  0  0  0  0  0  0
   40.1070   23.8400   42.3470 H   0  0  0  0  0  0  0  0  0  0  0  0
   39.2100   25.6650   43.0280 C   0  0  0  0  0  3  0  0  0  0  0  0
  1  2  1  0  0  0  0
  2 23  1  0  0  0  0
  3  2  2  0  0  0  0
  3  8  1  0  0  0  0
  4  3  1  0  0  0  0
  5  6  1  0  0  0  0
  5  4  2  0  0  0  0
  6  1  2  0  0  0  0
  7  1  1  0  0  0  0
  9 14  1  6  0  0  0
  9 10  1  0  0  0  0
 10 15  1  1  0  0  0
 10  5  1  0  0  0  0
 11 10  1  0  0  0  0
 12 16  1  0  0  0  0
 12 11  1  0  0  0  0
 13 18  1  1  0  0  0
 13  9  1  0  0  0  0
 13 12  1  0  0  0  0
 17 12  1  0  0  0  0
 19  9  1  0  0  0  0
 20 19  1  0  0  0  0
 21 13  1  0  0  0  0
 22 21  1  0  0  0  0
 23 24  1  0  0  0  0
 23 25  1  0  0  0  0
 26 34  1  0  0  0  0
 26 23  1  0  0  0  0
 27 26  2  0  0  0  0
 28 27  1  0  0  0  0
 29 30  2  0  0  0  0
 29 27  1  0  0  0  0
 30 32  1  0  0  0  0
 31 30  1  0  0  0  0
 32 33  1  0  0  0  0
 32 34  2  0  0  0  0
M  END
>  <minimizedAffinity>
-5.47982407

$$$$

 OpenBabel03252503443D

 34 36  0  0  1  0  0  0  0  0999 V2000
   35.7550   28.6250   41.1430 C   0  0  0  0  0  0  0  0  0  0  0  0
   37.0910   28.5480   41.5550 C   0  0  0  0  0  0  0  0  0  0  0  0
   38.0850   28.8280   40.6010 C   0  0  0  0  0  0  0  0  0  0  0  0
   37.7180   29.1550   39.3420 N   0  0  0  0  0  0  0  0  0  0  0  0
   36.4230   29.2180   38.9790 C   0  0  0  0  0  0  0  0  0  0  0  0
   35.4300   28.9570   39.8630 N   0  0  0  0  0  0  0  0  0  0  0  0
   34.8820   28.4400   41.7530 H   0  0  0  0  0  0  0  0  0  0  0  0
   39.1150   28.7680   40.9270 H   0  0  0  0  0  0  0  0  0  0  0  0
   37.3060   29.2330   36.6420 C   0  0  2  0  0  0  0  0  0  0  0  0
   36.1430   29.5820   37.5930 C   0  0  1  0  0  0  0  0  0  0  0  0
   35.1420   28.8640   36.9930 O   0  0  0  0  0  0  0  0  0  0  0  0
   35.2130   29.1110   35.6510 C   0  0  0  0  0  0  0  0  0  0  0  0
   36.6060   29.5970   35.3260 C   0  0  2  0  0  0  0  0  0  0  0  0
   38.1950   29.8470   36.8380 H   0  0  0  0  0  0  0  0  0  0  0  0
   35.9070   30.6700   37.4870 H   0  0  0  0  0  0  0  0  0  0  0  0
   34.5070   29.9630   35.4450 H   0  0  0  0  0  0  0  0  0  0  0  0
   34.8800   28.2760   35.0180 H   0  0  0  0  0  0  0  0  0  0  0  0
   36.6320   30.6890   35.2220 H   0  0  0  0  0  0  0  0  0  0  0  0
   37.4960   27.8890   36.6290 O   0  0  0  0  0  0  0  0  0  0  0  0
   38.2530   27.6620   37.2290 H   0  0  0  0  0  0  0  0  0  0  0  0
   37.1670   28.9940   34.2310 O   0  0  0  0  0  0  0  0  0  0  0  0
   36.9200   28.0410   34.2270 H   0  0  0  0  0  0  0  0  0  0  0  0
   37.3440   28.1670   42.9400 C   0  0  0  0  0  0  0  0  0  0  0  0
   36.3930   28.0390   43.5270 H   0  0  0  0  0  0  0  0  0  0  0  0
   37.9370   28.9600   43.4400 H   0  0  0  0  0  0  0  0  0  0  0  0
   38.1060   26.8970   42.9710 C   0  0  0  0  0  0  0  0  0  0  0  0
   37.6440   25.7620   42.3440 C   0  0  0  0  0  0  0  0  0  0  0  0
   36.7150   25.7920   41.8230 H   0  0  0  0  0  0  0  0  0  0  0  0
   38.3550   24.5770   42.3740 C   0  0  0  0  0  3  0  0  0  0  0  0
   39.5580   24.5380   43.0500 C   0  0  0  0  0  0  0  0  0  0  0  0
   40.1350   23.6200   43.0880 H   0  0  0  0  0  0  0  0  0  0  0  0
   40.0190   25.6820   43.6790 C   0  0  0  0  0  0  0  0  0  0  0  0
   40.9530   25.6110   44.1900 H   0  0  0  0  0  0  0  0  0  0  0  0
   39.3150   26.8890   43.6610 C   0  0  0  0  0  3  0  0  0  0  0  0
  1  2  1  0  0  0  0
  1  7  1  0  0  0  0
  2 23  1  0  0  0  0
  3  8  1  0  0  0  0
  3  2  2  0  0  0  0
  4  3  1  0  0  0  0
  5  4  2  0  0  0  0
  5  6  1  0  0  0  0
  6  1  2  0  0  0  0
  9 14  1  1  0  0  0
  9 10  1  0  0  0  0
 10 15  1  6  0  0  0
 10  5  1  0  0  0  0
 11 10  1  0  0  0  0
 12 11  1  0  0  0  0
 13 18  1  6  0  0  0
 13 12  1  0  0  0  0
 13  9  1  0  0  0  0
 16 12  1  0  0  0  0
 17 12  1  0  0  0  0
 19  9  1  0  0  0  0
 19 20  1  0  0  0  0
 21 13  1  0  0  0  0
 22 21  1  0  0  0  0
 23 26  1  0  0  0  0
 23 25  1  0  0  0  0
 23 24  1  0  0  0  0
 26 34  1  0  0  0  0
 27 29  1  0  0  0  0
 27 26  2  0  0  0  0
 28 27  1  0  0  0  0
 29 30  2  0  0  0  0
 30 31  1  0  0  0  0
 30 32  1  0  0  0  0
 32 33  1  0  0  0  0
 34 32  2  0  0  0  0
M  END
>  <minimizedAffinity>
-5.40463352

$$$$

 OpenBabel03252503443D

 34 36  0  0  1  0  0  0  0  0999 V2000
   33.4950   28.9180   38.5020 C   0  0  0  0  0  0  0  0  0  0  0  0
   33.7270   28.8660   37.1220 C   0  0  0  0  0  0  0  0  0  0  0  0
   35.0380   29.1020   36.6720 C   0  0  0  0  0  0  0  0  0  0  0  0
   36.0090   29.3660   37.5740 N   0  0  0  0  0  0  0  0  0  0  0  0
   35.7500   29.4090   38.8950 C   0  0  0  0  0  0  0  0  0  0  0  0
   34.5030   29.1890   39.3770 N   0  0  0  0  0  0  0  0  0  0  0  0
   32.5490   28.7610   39.0020 H   0  0  0  0  0  0  0  0  0  0  0  0
   35.2100   29.0580   35.6050 H   0  0  0  0  0  0  0  0  0  0  0  0
   36.4530   29.8060   41.2600 C   0  0  2  0  0  0  0  0  0  0  0  0
   36.8750   29.7020   39.7790 C   0  0  1  0  0  0  0  0  0  0  0  0
   37.8090   28.7060   39.8830 O   0  0  0  0  0  0  0  0  0  0  0  0
   38.6090   29.0070   40.9490 C   0  0  0  0  0  0  0  0  0  0  0  0
   37.8580   29.9520   41.8580 C   0  0  2  0  0  0  0  0  0  0  0  0
   35.8160   30.6790   41.4450 H   0  0  0  0  0  0  0  0  0  0  0  0
   37.3980   30.6460   39.4890 H   0  0  0  0  0  0  0  0  0  0  0  0
   39.4910   29.5720   40.5380 H   0  0  0  0  0  0  0  0  0  0  0  0
   39.0210   28.1300   41.4690 H   0  0  0  0  0  0  0  0  0  0  0  0
   38.1820   30.9890   41.7090 H   0  0  0  0  0  0  0  0  0  0  0  0
   35.9680   28.6090   41.6800 O   0  0  0  0  0  0  0  0  0  0  0  0
   34.9770   28.6350   41.6580 H   0  0  0  0  0  0  0  0  0  0  0  0
   37.9170   29.6150   43.1860 O   0  0  0  0  0  0  0  0  0  0  0  0
   37.8630   28.6360   43.2720 H   0  0  0  0  0  0  0  0  0  0  0  0
   32.5840   28.5880   36.2600 C   0  0  0  0  0  0  0  0  0  0  0  0
   31.8310   27.9140   36.7560 H   0  0  0  0  0  0  0  0  0  0  0  0
   32.9300   28.0730   35.3400 H   0  0  0  0  0  0  0  0  0  0  0  0
   31.9240   29.8600   35.8880 C   0  0  0  0  0  0  0  0  0  0  0  0
   31.0980   30.5280   36.7640 C   0  0  0  0  0  0  0  0  0  0  0  0
   30.9250   30.1240   37.7340 H   0  0  0  0  0  0  0  0  0  0  0  0
   30.4820   31.7160   36.4160 C   0  0  0  0  0  3  0  0  0  0  0  0
   30.7060   32.2400   35.1590 C   0  0  0  0  0  0  0  0  0  0  0  0
   30.2340   33.1710   34.8620 H   0  0  0  0  0  0  0  0  0  0  0  0
   31.5380   31.5650   34.2810 C   0  0  0  0  0  0  0  0  0  0  0  0
   31.6850   32.0030   33.3200 H   0  0  0  0  0  0  0  0  0  0  0  0
   32.1690   30.3630   34.6140 C   0  0  0  0  0  3  0  0  0  0  0  0
  1  7  1  0  0  0  0
  1  6  1  0  0  0  0
  2  1  2  0  0  0  0
  3  2  1  0  0  0  0
  3  4  2  0  0  0  0
  4  5  1  0  0  0  0
  5  6  2  0  0  0  0
  5 10  1  0  0  0  0
  8  3  1  0  0  0  0
  9 14  1  1  0  0  0
  9 19  1  0  0  0  0
  9 13  1  0  0  0  0
 10 15  1  6  0  0  0
 10 11  1  0  0  0  0
 10  9  1  0  0  0  0
 11 12  1  0  0  0  0
 12 17  1  0  0  0  0
 12 13  1  0  0  0  0
 13 18  1  6  0  0  0
 13 21  1  0  0  0  0
 16 12  1  0  0  0  0
 20 19  1  0  0  0  0
 21 22  1  0  0  0  0
 23 24  1  0  0  0  0
 23  2  1  0  0  0  0
 25 23  1  0  0  0  0
 26 23  1  0  0  0  0
 26 27  1  0  0  0  0
 27 28  1  0  0  0  0
 29 27  2  0  0  0  0
 30 29  1  0  0  0  0
 31 30  1  0  0  0  0
 32 34  1  0  0  0  0
 32 30  2  0  0  0  0
 33 32  1  0  0  0  0
 34 26  2  0  0  0  0
M  END
>  <minimizedAffinity>
-5.25988674

$$$$

 OpenBabel03252503443D

 34 36  0  0  1  0  0  0  0  0999 V2000
   37.8920   29.9270   39.2080 C   0  0  0  0  0  0  0  0  0  0  0  0
   36.7290   30.1670   39.9530 C   0  0  0  0  0  0  0  0  0  0  0  0
   36.5980   31.4240   40.5690 C   0  0  0  0  0  0  0  0  0  0  0  0
   37.5820   32.3380   40.4210 N   0  0  0  0  0  0  0  0  0  0  0  0
   38.6870   32.0740   39.6980 C   0  0  0  0  0  0  0  0  0  0  0  0
   38.8590   30.8770   39.0860 N   0  0  0  0  0  0  0  0  0  0  0  0
   38.1400   29.0180   38.6780 H   0  0  0  0  0  0  0  0  0  0  0  0
   35.6970   31.6020   41.1410 H   0  0  0  0  0  0  0  0  0  0  0  0
   40.7710   33.0250   40.6950 C   0  0  2  0  0  0  0  0  0  0  0  0
   39.6850   33.1350   39.6050 C   0  0  1  0  0  0  0  0  0  0  0  0
   40.4820   33.0900   38.4920 O   0  0  0  0  0  0  0  0  0  0  0  0
   41.5270   33.9440   38.7040 C   0  0  0  0  0  0  0  0  0  0  0  0
   41.6760   34.1570   40.1920 C   0  0  2  0  0  0  0  0  0  0  0  0
   40.3660   33.2130   41.6970 H   0  0  0  0  0  0  0  0  0  0  0  0
   39.2200   34.1500   39.6630 H   0  0  0  0  0  0  0  0  0  0  0  0
   41.2300   34.9310   38.2550 H   0  0  0  0  0  0  0  0  0  0  0  0
   42.4620   33.6490   38.2060 H   0  0  0  0  0  0  0  0  0  0  0  0
   41.2290   35.1090   40.5040 H   0  0  0  0  0  0  0  0  0  0  0  0
   41.4620   31.8670   40.5330 O   0  0  0  0  0  0  0  0  0  0  0  0
   41.1130   31.1900   41.1690 H   0  0  0  0  0  0  0  0  0  0  0  0
   42.9660   34.0590   40.6450 O   0  0  0  0  0  0  0  0  0  0  0  0
   43.4210   33.3320   40.1620 H   0  0  0  0  0  0  0  0  0  0  0  0
   35.7570   29.0840   40.0440 C   0  0  0  0  0  0  0  0  0  0  0  0
   35.4180   28.7300   39.0300 H   0  0  0  0  0  0  0  0  0  0  0  0
   34.8570   29.4400   40.5860 H   0  0  0  0  0  0  0  0  0  0  0  0
   36.3510   27.9460   40.7800 C   0  0  0  0  0  0  0  0  0  0  0  0
   36.6980   26.7750   40.1430 C   0  0  0  0  0  0  0  0  0  0  0  0
   36.5350   26.6810   39.0940 H   0  0  0  0  0  0  0  0  0  0  0  0
   37.2530   25.7120   40.8310 C   0  0  0  0  0  3  0  0  0  0  0  0
   37.4620   25.8340   42.1900 C   0  0  0  0  0  0  0  0  0  0  0  0
   37.8970   25.0140   42.7520 H   0  0  0  0  0  0  0  0  0  0  0  0
   37.1130   27.0130   42.8260 C   0  0  0  0  0  0  0  0  0  0  0  0
   37.2920   27.0680   43.8770 H   0  0  0  0  0  0  0  0  0  0  0  0
   36.5510   28.0980   42.1490 C   0  0  0  0  0  3  0  0  0  0  0  0
  1  2  1  0  0  0  0
  2 23  1  0  0  0  0
  2  3  2  0  0  0  0
  3  8  1  0  0  0  0
  4  3  1  0  0  0  0
  5  4  2  0  0  0  0
  6  1  2  0  0  0  0
  6  5  1  0  0  0  0
  7  1  1  0  0  0  0
  9 14  1  1  0  0  0
 10 15  1  1  0  0  0
 10  5  1  0  0  0  0
 10  9  1  0  0  0  0
 11 12  1  0  0  0  0
 11 10  1  0  0  0  0
 12 13  1  0  0  0  0
 13 18  1  1  0  0  0
 13 21  1  0  0  0  0
 13  9  1  0  0  0  0
 16 12  1  0  0  0  0
 17 12  1  0  0  0  0
 19  9  1  0  0  0  0
 19 20  1  0  0  0  0
 22 21  1  0  0  0  0
 23 25  1  0  0  0  0
 23 26  1  0  0  0  0
 24 23  1  0  0  0  0
 26 34  1  0  0  0  0
 27 26  2  0  0  0  0
 27 29  1  0  0  0  0
 28 27  1  0  0  0  0
 29 30  2  0  0  0  0
 30 31  1  0  0  0  0
 30 32  1  0  0  0  0
 32 33  1  0  0  0  0
 34 32  2  0  0  0  0
M  END
>  <minimizedAffinity>
-5.16709661

$$$$
