
 OpenBabel03252507043D

 47 50  0  0  0  0  0  0  0  0999 V2000
   41.9350   34.0430   41.3550 C   0  0  0  0  0  0  0  0  0  0  0  0
   41.3930   34.2710   42.2980 H   0  0  0  0  0  0  0  0  0  0  0  0
   42.4000   35.0500   41.0730 H   0  0  0  0  0  0  0  0  0  0  0  0
   41.1450   33.5380   40.3990 N   0  0  0  0  0  0  0  0  0  0  0  0
   40.0570   32.6250   40.5720 C   0  0  0  0  0  0  0  0  0  0  0  0
   38.8960   33.5980   40.3680 C   0  0  0  0  0  0  0  0  0  0  0  0
   38.8930   34.2520   39.0710 C   0  0  0  0  0  0  0  0  0  0  0  0
   40.1410   34.3740   38.3500 C   0  0  0  0  0  0  0  0  0  0  0  0
   41.4370   34.0170   39.0320 C   0  0  0  0  0  0  0  0  0  0  0  0
   39.9950   31.7550   39.9460 H   0  0  0  0  0  0  0  0  0  0  0  0
   40.0000   32.2960   41.6290 H   0  0  0  0  0  0  0  0  0  0  0  0
   38.8410   34.2780   41.2670 H   0  0  0  0  0  0  0  0  0  0  0  0
   37.9800   32.9500   40.4990 H   0  0  0  0  0  0  0  0  0  0  0  0
   38.4510   35.2810   39.1750 H   0  0  0  0  0  0  0  0  0  0  0  0
   38.1750   33.7170   38.3830 H   0  0  0  0  0  0  0  0  0  0  0  0
   40.2210   34.7220   37.3710 H   0  0  0  0  0  0  0  0  0  0  0  0
   42.9880   34.1520   38.3070 S   0  0  0  0  0  0  0  0  0  0  0  0
   43.9530   32.7640   38.0000 C   0  0  0  0  0  0  0  0  0  0  0  0
   45.2350   33.0950   38.4950 C   0  0  0  0  0  0  0  0  0  0  0  0
   45.6680   33.9760   38.9970 H   0  0  0  0  0  0  0  0  0  0  0  0
   46.3120   32.1950   38.4010 C   0  0  0  0  0  3  0  0  0  0  0  0
   46.0790   30.9650   37.8030 C   0  0  0  0  0  0  0  0  0  0  0  0
   46.8400   30.2020   37.6800 H   0  0  0  0  0  0  0  0  0  0  0  0
   44.8510   30.6020   37.3080 C   0  0  0  0  0  0  0  0  0  0  0  0
   44.5930   29.6690   36.8330 H   0  0  0  0  0  0  0  0  0  0  0  0
   43.8610   31.5310   37.4380 C   0  0  0  0  0  3  0  0  0  0  0  0
   43.1070   33.1880   41.6790 C   0  0  0  0  0  0  0  0  0  0  0  0
   43.3890   32.4950   40.8570 H   0  0  0  0  0  0  0  0  0  0  0  0
   42.8830   32.5330   42.5680 H   0  0  0  0  0  0  0  0  0  0  0  0
   44.2150   34.0660   42.0920 C   0  0  0  0  0  0  0  0  0  0  0  0
   43.9610   35.3080   42.6250 C   0  0  0  0  0  0  0  0  0  0  0  0
   45.0440   36.1000   42.9910 C   0  0  0  0  0  0  0  0  0  0  0  0
   46.3030   35.6020   42.8040 N   0  0  0  0  0  0  0  0  0  0  0  0
   46.5070   34.3940   42.2870 C   0  0  0  0  0  0  0  0  0  0  0  0
   45.4530   33.6560   41.9420 N   0  0  0  0  0  0  0  0  0  0  0  0
   43.0660   35.8570   42.8610 H   0  0  0  0  0  0  0  0  0  0  0  0
   45.0360   37.0940   43.4200 H   0  0  0  0  0  0  0  0  0  0  0  0
   47.8900   33.9320   42.1590 C   0  0  0  0  0  0  0  0  0  0  0  0
   48.1650   32.6840   41.6080 C   0  0  0  0  0  0  0  0  0  0  0  0
   49.4700   32.2520   41.5040 C   0  0  0  0  0  0  0  0  0  0  0  0
   50.3980   33.1350   41.9740 C   0  0  0  0  0  0  0  0  0  0  0  0
   50.1840   34.3980   42.5370 C   0  0  0  0  0  0  0  0  0  0  0  0
   48.8660   34.7460   42.6010 N   0  0  0  0  0  0  0  0  0  0  0  0
   47.3570   32.0450   41.2580 H   0  0  0  0  0  0  0  0  0  0  0  0
   49.7640   31.3140   41.0950 H   0  0  0  0  0  0  0  0  0  0  0  0
   51.4570   32.8380   41.9140 H   0  0  0  0  0  0  0  0  0  0  0  0
   50.9820   35.0110   42.8740 H   0  0  0  0  0  0  0  0  0  0  0  0
  1 27  1  0  0  0  0
  1  2  1  0  0  0  0
  3  1  1  0  0  0  0
  4  5  1  0  0  0  0
  4  1  1  0  0  0  0
  5 11  1  0  0  0  0
  6 13  1  0  0  0  0
  6  5  1  0  0  0  0
  6 12  1  0  0  0  0
  7 14  1  0  0  0  0
  7  6  1  0  0  0  0
  8  9  2  0  0  0  0
  8  7  1  0  0  0  0
  9  4  1  0  0  0  0
 10  5  1  0  0  0  0
 15  7  1  0  0  0  0
 16  8  1  0  0  0  0
 17  9  1  0  0  0  0
 18 17  1  0  0  0  0
 18 19  1  0  0  0  0
 19 20  1  0  0  0  0
 21 19  2  0  0  0  0
 22 21  1  0  0  0  0
 23 22  1  0  0  0  0
 24 26  1  0  0  0  0
 24 22  2  0  0  0  0
 25 24  1  0  0  0  0
 26 18  2  0  0  0  0
 27 30  1  0  0  0  0
 27 29  1  0  0  0  0
 28 27  1  0  0  0  0
 30 31  1  0  0  0  0
 31 36  1  0  0  0  0
 31 32  2  0  0  0  0
 32 37  1  0  0  0  0
 33 32  1  0  0  0  0
 34 33  2  0  0  0  0
 35 30  2  0  0  0  0
 35 34  1  0  0  0  0
 38 34  1  0  0  0  0
 38 43  1  0  0  0  0
 39 38  2  0  0  0  0
 40 39  1  0  0  0  0
 40 41  2  0  0  0  0
 41 42  1  0  0  0  0
 42 43  2  0  0  0  0
 42 47  1  0  0  0  0
 44 39  1  0  0  0  0
 45 40  1  0  0  0  0
 46 41  1  0  0  0  0
M  END
>  <minimizedAffinity>
-5.15596056

>  <minimizedRMSD>
3.7476759

$$$$
