
 OpenBabel03252501363D

 25 26  0  0  0  0  0  0  0  0999 V2000
   39.5400   32.2010   38.2890 C   0  0  0  0  0  0  0  0  0  0  0  0
   40.3570   31.8520   39.2010 O   0  0  0  0  0  0  0  0  0  0  0  0
   40.1290   32.2060   36.9850 N   0  0  0  0  0  0  0  0  0  0  0  0
   39.5790   32.4550   36.1600 H   0  0  0  0  0  0  0  0  0  0  0  0
   41.5280   31.8160   37.1130 C   0  0  0  0  0  0  0  0  0  0  0  0
   42.5830   32.6920   37.0860 C   0  0  0  0  0  0  0  0  0  0  0  0
   43.8500   32.1250   37.2260 C   0  0  0  0  0  0  0  0  0  0  0  0
   43.9300   30.7890   37.3740 N   0  0  0  0  0  0  0  0  0  0  0  0
   42.8720   29.9710   37.3940 C   0  0  0  0  0  0  0  0  0  0  0  0
   41.6270   30.4880   37.2600 N   0  0  0  0  0  0  0  0  0  0  0  0
   44.6840   32.8130   37.2060 H   0  0  0  0  0  0  0  0  0  0  0  0
   43.0210   28.9000   37.5170 H   0  0  0  0  0  0  0  0  0  0  0  0
   42.2970   34.0620   36.9230 N   0  0  0  0  0  0  0  0  0  0  0  0
   42.2320   34.3890   35.9240 H   0  0  0  0  0  0  0  0  0  0  0  0
   42.1650   34.6790   37.7460 H   0  0  0  0  0  0  0  0  0  0  0  0
   38.1890   32.5560   38.4740 O   0  0  0  0  0  0  0  0  0  0  0  0
   37.3590   31.6920   39.1810 C   0  0  0  0  0  0  0  0  0  0  0  0
   37.0390   31.7080   40.5280 C   0  0  0  0  0  0  0  0  0  0  0  0
   37.5070   32.4960   41.0690 H   0  0  0  0  0  0  0  0  0  0  0  0
   36.1770   30.7300   41.0090 C   0  0  0  0  0  3  0  0  0  0  0  0
   35.6470   29.7650   40.1740 C   0  0  0  0  0  0  0  0  0  0  0  0
   34.9720   29.0190   40.6130 H   0  0  0  0  0  0  0  0  0  0  0  0
   35.9650   29.7490   38.8300 C   0  0  0  0  0  0  0  0  0  0  0  0
   35.5180   28.9670   38.2290 H   0  0  0  0  0  0  0  0  0  0  0  0
   36.8210   30.7170   38.3460 C   0  0  0  0  0  3  0  0  0  0  0  0
  1 16  1  0  0  0  0
  1  2  2  0  0  0  0
  3  5  1  0  0  0  0
  3  1  1  0  0  0  0
  4  3  1  0  0  0  0
  5 10  1  0  0  0  0
  6  5  2  0  0  0  0
  6  7  1  0  0  0  0
  7  8  2  0  0  0  0
  8  9  1  0  0  0  0
  9 12  1  0  0  0  0
 10  9  2  0  0  0  0
 11  7  1  0  0  0  0
 13  6  1  0  0  0  0
 13 15  1  0  0  0  0
 14 13  1  0  0  0  0
 16 17  1  0  0  0  0
 17 18  1  0  0  0  0
 18 20  2  0  0  0  0
 18 19  1  0  0  0  0
 21 22  1  0  0  0  0
 21 20  1  0  0  0  0
 23 21  2  0  0  0  0
 24 23  1  0  0  0  0
 25 23  1  0  0  0  0
 25 17  2  0  0  0  0
M  END
>  <minimizedAffinity>
-5.19338036

$$$$

 OpenBabel03252501363D

 25 26  0  0  0  0  0  0  0  0999 V2000
   37.8210   28.8320   42.4880 C   0  0  0  0  0  0  0  0  0  0  0  0
   38.3510   29.9380   42.8300 O   0  0  0  0  0  0  0  0  0  0  0  0
   37.4060   28.8130   41.1190 N   0  0  0  0  0  0  0  0  0  0  0  0
   36.9760   27.9790   40.7120 H   0  0  0  0  0  0  0  0  0  0  0  0
   37.7100   30.1100   40.5300 C   0  0  0  0  0  0  0  0  0  0  0  0
   36.8870   31.2060   40.5970 C   0  0  0  0  0  0  0  0  0  0  0  0
   37.3560   32.3600   39.9710 C   0  0  0  0  0  0  0  0  0  0  0  0
   38.5570   32.3050   39.3640 N   0  0  0  0  0  0  0  0  0  0  0  0
   39.3280   31.2130   39.3230 C   0  0  0  0  0  0  0  0  0  0  0  0
   38.9030   30.0740   39.9210 N   0  0  0  0  0  0  0  0  0  0  0  0
   36.7100   33.2260   40.0220 H   0  0  0  0  0  0  0  0  0  0  0  0
   40.2870   31.2500   38.8110 H   0  0  0  0  0  0  0  0  0  0  0  0
   35.6630   31.0680   41.2810 N   0  0  0  0  0  0  0  0  0  0  0  0
   34.8590   30.7230   40.6940 H   0  0  0  0  0  0  0  0  0  0  0  0
   35.5900   31.2960   42.2900 H   0  0  0  0  0  0  0  0  0  0  0  0
   37.6350   27.7080   43.3180 O   0  0  0  0  0  0  0  0  0  0  0  0
   38.3800   26.5590   43.0690 C   0  0  0  0  0  0  0  0  0  0  0  0
   38.0280   25.4420   42.3310 C   0  0  0  0  0  0  0  0  0  0  0  0
   37.0520   25.4970   41.9110 H   0  0  0  0  0  0  0  0  0  0  0  0
   38.9520   24.4100   42.2230 C   0  0  0  0  0  3  0  0  0  0  0  0
   40.1900   24.4860   42.8320 C   0  0  0  0  0  0  0  0  0  0  0  0
   40.8770   23.6390   42.7110 H   0  0  0  0  0  0  0  0  0  0  0  0
   40.5420   25.6010   43.5680 C   0  0  0  0  0  0  0  0  0  0  0  0
   41.5260   25.6000   44.0200 H   0  0  0  0  0  0  0  0  0  0  0  0
   39.6290   26.6300   43.6790 C   0  0  0  0  0  3  0  0  0  0  0  0
  1  2  2  0  0  0  0
  1 16  1  0  0  0  0
  3  1  1  0  0  0  0
  4  3  1  0  0  0  0
  5  6  1  0  0  0  0
  5  3  1  0  0  0  0
  6 13  1  0  0  0  0
  7 11  1  0  0  0  0
  7  6  2  0  0  0  0
  8  7  1  0  0  0  0
  9  8  2  0  0  0  0
  9 10  1  0  0  0  0
 10  5  2  0  0  0  0
 12  9  1  0  0  0  0
 13 15  1  0  0  0  0
 14 13  1  0  0  0  0
 17 16  1  0  0  0  0
 17 25  1  0  0  0  0
 18 17  2  0  0  0  0
 19 18  1  0  0  0  0
 20 18  1  0  0  0  0
 20 21  2  0  0  0  0
 21 23  1  0  0  0  0
 22 21  1  0  0  0  0
 23 25  2  0  0  0  0
 23 24  1  0  0  0  0
M  END
>  <minimizedAffinity>
-5.18188953

$$$$

 OpenBabel03252501363D

 25 26  0  0  0  0  0  0  0  0999 V2000
   39.0530   32.6360   39.9570 C   0  0  0  0  0  0  0  0  0  0  0  0
   39.9580   31.7470   40.0670 O   0  0  0  0  0  0  0  0  0  0  0  0
   39.4780   33.7740   39.2000 N   0  0  0  0  0  0  0  0  0  0  0  0
   38.8440   34.5550   39.0250 H   0  0  0  0  0  0  0  0  0  0  0  0
   40.8620   33.5620   38.7950 C   0  0  0  0  0  0  0  0  0  0  0  0
   41.2440   32.8890   37.6620 C   0  0  0  0  0  0  0  0  0  0  0  0
   42.6180   32.7920   37.4440 C   0  0  0  0  0  0  0  0  0  0  0  0
   43.4410   33.3590   38.3480 N   0  0  0  0  0  0  0  0  0  0  0  0
   43.0240   34.0080   39.4410 C   0  0  0  0  0  0  0  0  0  0  0  0
   41.6950   34.1200   39.6830 N   0  0  0  0  0  0  0  0  0  0  0  0
   42.9240   32.2620   36.5530 H   0  0  0  0  0  0  0  0  0  0  0  0
   43.7530   34.4380   40.1230 H   0  0  0  0  0  0  0  0  0  0  0  0
   40.2310   32.3650   36.8350 N   0  0  0  0  0  0  0  0  0  0  0  0
   39.9060   31.3950   37.0860 H   0  0  0  0  0  0  0  0  0  0  0  0
   39.8520   32.9170   36.0440 H   0  0  0  0  0  0  0  0  0  0  0  0
   37.7520   32.5700   40.4960 O   0  0  0  0  0  0  0  0  0  0  0  0
   36.9640   31.4590   40.2150 C   0  0  0  0  0  0  0  0  0  0  0  0
   36.2510   30.6590   41.0910 C   0  0  0  0  0  0  0  0  0  0  0  0
   36.3370   30.9580   42.1090 H   0  0  0  0  0  0  0  0  0  0  0  0
   35.5290   29.5940   40.5680 C   0  0  0  0  0  3  0  0  0  0  0  0
   35.5160   29.3310   39.2120 C   0  0  0  0  0  0  0  0  0  0  0  0
   34.9270   28.4750   38.8580 H   0  0  0  0  0  0  0  0  0  0  0  0
   36.2280   30.1290   38.3350 C   0  0  0  0  0  0  0  0  0  0  0  0
   36.1780   29.8710   37.2850 H   0  0  0  0  0  0  0  0  0  0  0  0
   36.9470   31.1890   38.8490 C   0  0  0  0  0  3  0  0  0  0  0  0
  1  2  2  0  0  0  0
  1 16  1  0  0  0  0
  3  1  1  0  0  0  0
  4  3  1  0  0  0  0
  5  3  1  0  0  0  0
  5 10  1  0  0  0  0
  6  5  2  0  0  0  0
  7  6  1  0  0  0  0
  7  8  2  0  0  0  0
  8  9  1  0  0  0  0
  9 10  2  0  0  0  0
  9 12  1  0  0  0  0
 11  7  1  0  0  0  0
 13 14  1  0  0  0  0
 13  6  1  0  0  0  0
 15 13  1  0  0  0  0
 17 16  1  0  0  0  0
 17 18  1  0  0  0  0
 18 19  1  0  0  0  0
 20 18  2  0  0  0  0
 21 20  1  0  0  0  0
 22 21  1  0  0  0  0
 23 25  1  0  0  0  0
 23 21  2  0  0  0  0
 24 23  1  0  0  0  0
 25 17  2  0  0  0  0
M  END
>  <minimizedAffinity>
-5.14104939

$$$$

 OpenBabel03252501363D

 25 26  0  0  0  0  0  0  0  0999 V2000
   37.7920   31.0330   41.0520 C   0  0  0  0  0  0  0  0  0  0  0  0
   39.0360   30.9150   41.2950 O   0  0  0  0  0  0  0  0  0  0  0  0
   37.5140   31.9760   40.0130 N   0  0  0  0  0  0  0  0  0  0  0  0
   36.5540   32.1560   39.7100 H   0  0  0  0  0  0  0  0  0  0  0  0
   38.7780   32.5400   39.5560 C   0  0  0  0  0  0  0  0  0  0  0  0
   39.4230   33.5890   40.1610 C   0  0  0  0  0  0  0  0  0  0  0  0
   40.6250   33.9850   39.5750 C   0  0  0  0  0  0  0  0  0  0  0  0
   41.0450   33.3160   38.4840 N   0  0  0  0  0  0  0  0  0  0  0  0
   40.3820   32.2960   37.9260 C   0  0  0  0  0  0  0  0  0  0  0  0
   39.2110   31.8870   38.4700 N   0  0  0  0  0  0  0  0  0  0  0  0
   41.1370   34.8110   40.0490 H   0  0  0  0  0  0  0  0  0  0  0  0
   40.7880   31.8080   37.0430 H   0  0  0  0  0  0  0  0  0  0  0  0
   38.8240   34.1610   41.3000 N   0  0  0  0  0  0  0  0  0  0  0  0
   38.1350   34.9330   41.1030 H   0  0  0  0  0  0  0  0  0  0  0  0
   39.0640   33.8260   42.2520 H   0  0  0  0  0  0  0  0  0  0  0  0
   36.7490   30.3380   41.6970 O   0  0  0  0  0  0  0  0  0  0  0  0
   36.9680   29.0250   42.1050 C   0  0  0  0  0  0  0  0  0  0  0  0
   37.3240   28.5560   43.3580 C   0  0  0  0  0  0  0  0  0  0  0  0
   37.4400   29.3250   44.0850 H   0  0  0  0  0  0  0  0  0  0  0  0
   37.4860   27.1860   43.5230 C   0  0  0  0  0  3  0  0  0  0  0  0
   37.3000   26.3080   42.4730 C   0  0  0  0  0  0  0  0  0  0  0  0
   37.4430   25.2370   42.6650 H   0  0  0  0  0  0  0  0  0  0  0  0
   36.9440   26.7750   41.2220 C   0  0  0  0  0  0  0  0  0  0  0  0
   36.8130   26.0370   40.4410 H   0  0  0  0  0  0  0  0  0  0  0  0
   36.7810   28.1360   41.0510 C   0  0  0  0  0  3  0  0  0  0  0  0
  1  2  2  0  0  0  0
  1 16  1  0  0  0  0
  3  1  1  0  0  0  0
  4  3  1  0  0  0  0
  5  3  1  0  0  0  0
  5  6  1  0  0  0  0
  6 13  1  0  0  0  0
  7 11  1  0  0  0  0
  7  6  2  0  0  0  0
  8  7  1  0  0  0  0
  9 10  1  0  0  0  0
  9  8  2  0  0  0  0
 10  5  2  0  0  0  0
 12  9  1  0  0  0  0
 13 15  1  0  0  0  0
 14 13  1  0  0  0  0
 16 17  1  0  0  0  0
 17 18  1  0  0  0  0
 18 20  2  0  0  0  0
 18 19  1  0  0  0  0
 21 22  1  0  0  0  0
 21 20  1  0  0  0  0
 23 21  2  0  0  0  0
 24 23  1  0  0  0  0
 25 23  1  0  0  0  0
 25 17  2  0  0  0  0
M  END
>  <minimizedAffinity>
-5.06529999

$$$$

 OpenBabel03252501363D

 25 26  0  0  0  0  0  0  0  0999 V2000
   37.4010   28.9580   41.9010 C   0  0  0  0  0  0  0  0  0  0  0  0
   38.4000   29.1650   41.1400 O   0  0  0  0  0  0  0  0  0  0  0  0
   36.2380   29.6930   41.5080 N   0  0  0  0  0  0  0  0  0  0  0  0
   35.3620   29.6070   42.0270 H   0  0  0  0  0  0  0  0  0  0  0  0
   36.5760   30.4890   40.3350 C   0  0  0  0  0  0  0  0  0  0  0  0
   36.5240   30.0270   39.0430 C   0  0  0  0  0  0  0  0  0  0  0  0
   36.8840   30.9420   38.0540 C   0  0  0  0  0  0  0  0  0  0  0  0
   37.2440   32.1810   38.4420 N   0  0  0  0  0  0  0  0  0  0  0  0
   37.2790   32.5890   39.7150 C   0  0  0  0  0  0  0  0  0  0  0  0
   36.9370   31.7250   40.7010 N   0  0  0  0  0  0  0  0  0  0  0  0
   36.8450   30.5820   37.0350 H   0  0  0  0  0  0  0  0  0  0  0  0
   37.5820   33.6080   39.9460 H   0  0  0  0  0  0  0  0  0  0  0  0
   36.1200   28.6940   38.8370 N   0  0  0  0  0  0  0  0  0  0  0  0
   36.8950   27.9810   38.8710 H   0  0  0  0  0  0  0  0  0  0  0  0
   35.1240   28.4610   38.6660 H   0  0  0  0  0  0  0  0  0  0  0  0
   37.3740   28.1070   43.0250 O   0  0  0  0  0  0  0  0  0  0  0  0
   37.9950   26.8650   42.9420 C   0  0  0  0  0  0  0  0  0  0  0  0
   37.5590   25.7200   42.2980 C   0  0  0  0  0  0  0  0  0  0  0  0
   36.6190   25.8360   41.8110 H   0  0  0  0  0  0  0  0  0  0  0  0
   38.3620   24.5890   42.3540 C   0  0  0  0  0  3  0  0  0  0  0  0
   39.5660   24.5950   43.0330 C   0  0  0  0  0  0  0  0  0  0  0  0
   40.1570   23.6700   43.0420 H   0  0  0  0  0  0  0  0  0  0  0  0
   40.0030   25.7370   43.6760 C   0  0  0  0  0  0  0  0  0  0  0  0
   40.9540   25.6780   44.1900 H   0  0  0  0  0  0  0  0  0  0  0  0
   39.2090   26.8650   43.6230 C   0  0  0  0  0  3  0  0  0  0  0  0
  1 16  1  0  0  0  0
  2  1  2  0  0  0  0
  3  1  1  0  0  0  0
  3  4  1  0  0  0  0
  5 10  1  0  0  0  0
  5  3  1  0  0  0  0
  6  5  2  0  0  0  0
  7  8  2  0  0  0  0
  7  6  1  0  0  0  0
  8  9  1  0  0  0  0
  9 12  1  0  0  0  0
  9 10  2  0  0  0  0
 11  7  1  0  0  0  0
 13 14  1  0  0  0  0
 13  6  1  0  0  0  0
 15 13  1  0  0  0  0
 17 16  1  0  0  0  0
 17 25  1  0  0  0  0
 18 20  1  0  0  0  0
 18 17  2  0  0  0  0
 19 18  1  0  0  0  0
 20 21  2  0  0  0  0
 21 22  1  0  0  0  0
 21 23  1  0  0  0  0
 23 24  1  0  0  0  0
 25 23  2  0  0  0  0
M  END
>  <minimizedAffinity>
-4.96559715

$$$$

 OpenBabel03252501363D

 25 26  0  0  0  0  0  0  0  0999 V2000
   37.2570   28.6640   41.7310 C   0  0  0  0  0  0  0  0  0  0  0  0
   37.9050   28.6430   40.6350 O   0  0  0  0  0  0  0  0  0  0  0  0
   36.9640   29.9910   42.1790 N   0  0  0  0  0  0  0  0  0  0  0  0
   36.4360   30.1490   43.0400 H   0  0  0  0  0  0  0  0  0  0  0  0
   37.5310   30.9330   41.2240 C   0  0  0  0  0  0  0  0  0  0  0  0
   38.8180   31.4090   41.2730 C   0  0  0  0  0  0  0  0  0  0  0  0
   39.1760   32.3040   40.2660 C   0  0  0  0  0  0  0  0  0  0  0  0
   38.2460   32.6210   39.3440 N   0  0  0  0  0  0  0  0  0  0  0  0
   37.0010   32.1320   39.3340 C   0  0  0  0  0  0  0  0  0  0  0  0
   36.6200   31.2600   40.2990 N   0  0  0  0  0  0  0  0  0  0  0  0
   40.1880   32.6820   40.3020 H   0  0  0  0  0  0  0  0  0  0  0  0
   36.3080   32.4390   38.5540 H   0  0  0  0  0  0  0  0  0  0  0  0
   39.6460   30.9570   42.3190 N   0  0  0  0  0  0  0  0  0  0  0  0
   39.5930   31.5220   43.2070 H   0  0  0  0  0  0  0  0  0  0  0  0
   40.2530   30.1260   42.1950 H   0  0  0  0  0  0  0  0  0  0  0  0
   36.8410   27.5400   42.4720 O   0  0  0  0  0  0  0  0  0  0  0  0
   37.7230   26.4750   42.6290 C   0  0  0  0  0  0  0  0  0  0  0  0
   37.6190   25.1860   42.1360 C   0  0  0  0  0  0  0  0  0  0  0  0
   36.7360   25.0150   41.5670 H   0  0  0  0  0  0  0  0  0  0  0  0
   38.6390   24.2880   42.4280 C   0  0  0  0  0  3  0  0  0  0  0  0
   39.7300   24.6620   43.1880 C   0  0  0  0  0  0  0  0  0  0  0  0
   40.5030   23.9090   43.3850 H   0  0  0  0  0  0  0  0  0  0  0  0
   39.8350   25.9490   43.6800 C   0  0  0  0  0  0  0  0  0  0  0  0
   40.7140   26.1800   44.2680 H   0  0  0  0  0  0  0  0  0  0  0  0
   38.8250   26.8460   43.3930 C   0  0  0  0  0  3  0  0  0  0  0  0
  1  3  1  0  0  0  0
  1 16  1  0  0  0  0
  2  1  2  0  0  0  0
  3  4  1  0  0  0  0
  5  6  1  0  0  0  0
  5  3  1  0  0  0  0
  6 13  1  0  0  0  0
  7 11  1  0  0  0  0
  7  6  2  0  0  0  0
  8  7  1  0  0  0  0
  9  8  2  0  0  0  0
  9 10  1  0  0  0  0
 10  5  2  0  0  0  0
 12  9  1  0  0  0  0
 13 14  1  0  0  0  0
 15 13  1  0  0  0  0
 16 17  1  0  0  0  0
 17 25  1  0  0  0  0
 18 20  1  0  0  0  0
 18 17  2  0  0  0  0
 19 18  1  0  0  0  0
 20 21  2  0  0  0  0
 21 22  1  0  0  0  0
 21 23  1  0  0  0  0
 23 24  1  0  0  0  0
 25 23  2  0  0  0  0
M  END
>  <minimizedAffinity>
-4.88540554

$$$$

 OpenBabel03252501363D

 25 26  0  0  0  0  0  0  0  0999 V2000
   39.3080   31.7610   37.8290 C   0  0  0  0  0  0  0  0  0  0  0  0
   40.0460   31.3940   38.8000 O   0  0  0  0  0  0  0  0  0  0  0  0
   40.0430   32.4030   36.7830 N   0  0  0  0  0  0  0  0  0  0  0  0
   39.5730   32.7340   35.9380 H   0  0  0  0  0  0  0  0  0  0  0  0
   41.4450   32.4560   37.1740 C   0  0  0  0  0  0  0  0  0  0  0  0
   42.3410   31.4310   36.9940 C   0  0  0  0  0  0  0  0  0  0  0  0
   43.6410   31.6740   37.4340 C   0  0  0  0  0  0  0  0  0  0  0  0
   43.9070   32.8730   37.9880 N   0  0  0  0  0  0  0  0  0  0  0  0
   43.0010   33.8450   38.1440 C   0  0  0  0  0  0  0  0  0  0  0  0
   41.7280   33.6420   37.7280 N   0  0  0  0  0  0  0  0  0  0  0  0
   44.3500   30.8690   37.2940 H   0  0  0  0  0  0  0  0  0  0  0  0
   43.2950   34.7870   38.6020 H   0  0  0  0  0  0  0  0  0  0  0  0
   41.8720   30.2470   36.3910 N   0  0  0  0  0  0  0  0  0  0  0  0
   41.4670   29.5370   37.0560 H   0  0  0  0  0  0  0  0  0  0  0  0
   41.9350   30.1120   35.3650 H   0  0  0  0  0  0  0  0  0  0  0  0
   37.9130   31.5830   37.7310 O   0  0  0  0  0  0  0  0  0  0  0  0
   37.2670   30.8070   38.6880 C   0  0  0  0  0  0  0  0  0  0  0  0
   36.9800   29.4530   38.6560 C   0  0  0  0  0  0  0  0  0  0  0  0
   37.3090   28.9680   37.7670 H   0  0  0  0  0  0  0  0  0  0  0  0
   36.3190   28.8960   39.7430 C   0  0  0  0  0  3  0  0  0  0  0  0
   35.9540   29.6630   40.8320 C   0  0  0  0  0  0  0  0  0  0  0  0
   35.4340   29.1670   41.6620 H   0  0  0  0  0  0  0  0  0  0  0  0
   36.2390   31.0150   40.8670 C   0  0  0  0  0  0  0  0  0  0  0  0
   35.9270   31.5610   41.7470 H   0  0  0  0  0  0  0  0  0  0  0  0
   36.8960   31.5740   39.7890 C   0  0  0  0  0  3  0  0  0  0  0  0
  1  2  2  0  0  0  0
  3  5  1  0  0  0  0
  3  1  1  0  0  0  0
  4  3  1  0  0  0  0
  5 10  1  0  0  0  0
  6  5  2  0  0  0  0
  6  7  1  0  0  0  0
  7  8  2  0  0  0  0
  8  9  1  0  0  0  0
  9 12  1  0  0  0  0
 10  9  2  0  0  0  0
 11  7  1  0  0  0  0
 13  6  1  0  0  0  0
 13 14  1  0  0  0  0
 15 13  1  0  0  0  0
 16  1  1  0  0  0  0
 16 17  1  0  0  0  0
 17 25  1  0  0  0  0
 18 17  2  0  0  0  0
 18 20  1  0  0  0  0
 19 18  1  0  0  0  0
 20 21  2  0  0  0  0
 21 23  1  0  0  0  0
 21 22  1  0  0  0  0
 23 24  1  0  0  0  0
 25 23  2  0  0  0  0
M  END
>  <minimizedAffinity>
-4.84185648

$$$$

 OpenBabel03252501363D

 25 26  0  0  0  0  0  0  0  0999 V2000
   38.9850   31.4960   40.0920 C   0  0  0  0  0  0  0  0  0  0  0  0
   39.8000   30.5760   39.7570 O   0  0  0  0  0  0  0  0  0  0  0  0
   39.3910   32.7920   39.6400 N   0  0  0  0  0  0  0  0  0  0  0  0
   38.8190   33.6170   39.8300 H   0  0  0  0  0  0  0  0  0  0  0  0
   40.6570   32.6540   38.9310 C   0  0  0  0  0  0  0  0  0  0  0  0
   40.7700   32.3960   37.5880 C   0  0  0  0  0  0  0  0  0  0  0  0
   42.0710   32.3010   37.0940 C   0  0  0  0  0  0  0  0  0  0  0  0
   43.0890   32.4680   37.9600 N   0  0  0  0  0  0  0  0  0  0  0  0
   42.9310   32.7180   39.2650 C   0  0  0  0  0  0  0  0  0  0  0  0
   41.6810   32.8160   39.7780 N   0  0  0  0  0  0  0  0  0  0  0  0
   42.1650   32.0990   36.0360 H   0  0  0  0  0  0  0  0  0  0  0  0
   43.8060   32.8400   39.9000 H   0  0  0  0  0  0  0  0  0  0  0  0
   39.5840   32.2540   36.8430 N   0  0  0  0  0  0  0  0  0  0  0  0
   39.1880   31.2780   36.8140 H   0  0  0  0  0  0  0  0  0  0  0  0
   39.1530   33.0690   36.3680 H   0  0  0  0  0  0  0  0  0  0  0  0
   37.7950   31.3250   40.8270 O   0  0  0  0  0  0  0  0  0  0  0  0
   37.6220   30.1580   41.5640 C   0  0  0  0  0  0  0  0  0  0  0  0
   38.3260   29.7240   42.6750 C   0  0  0  0  0  0  0  0  0  0  0  0
   39.0950   30.3930   42.9820 H   0  0  0  0  0  0  0  0  0  0  0  0
   37.9660   28.5100   43.2460 C   0  0  0  0  0  3  0  0  0  0  0  0
   36.9360   27.7490   42.7280 C   0  0  0  0  0  0  0  0  0  0  0  0
   36.6980   26.7990   43.2240 H   0  0  0  0  0  0  0  0  0  0  0  0
   36.2330   28.1810   41.6200 C   0  0  0  0  0  0  0  0  0  0  0  0
   35.4370   27.5400   41.2620 H   0  0  0  0  0  0  0  0  0  0  0  0
   36.5860   29.3870   41.0480 C   0  0  0  0  0  3  0  0  0  0  0  0
  1 16  1  0  0  0  0
  2  1  2  0  0  0  0
  3  4  1  0  0  0  0
  3  1  1  0  0  0  0
  5  3  1  0  0  0  0
  5 10  1  0  0  0  0
  6  5  2  0  0  0  0
  7  6  1  0  0  0  0
  7  8  2  0  0  0  0
  8  9  1  0  0  0  0
  9 10  2  0  0  0  0
  9 12  1  0  0  0  0
 11  7  1  0  0  0  0
 13  6  1  0  0  0  0
 14 13  1  0  0  0  0
 15 13  1  0  0  0  0
 16 17  1  0  0  0  0
 17 18  1  0  0  0  0
 18 19  1  0  0  0  0
 18 20  2  0  0  0  0
 21 22  1  0  0  0  0
 21 20  1  0  0  0  0
 23 21  2  0  0  0  0
 24 23  1  0  0  0  0
 25 17  2  0  0  0  0
 25 23  1  0  0  0  0
M  END
>  <minimizedAffinity>
-4.82452297

$$$$

 OpenBabel03252501363D

 25 26  0  0  0  0  0  0  0  0999 V2000
   40.1280   31.2840   41.8060 C   0  0  0  0  0  0  0  0  0  0  0  0
   41.0090   30.7450   41.0600 O   0  0  0  0  0  0  0  0  0  0  0  0
   39.8840   32.6550   41.4780 N   0  0  0  0  0  0  0  0  0  0  0  0
   39.1900   33.2020   41.9920 H   0  0  0  0  0  0  0  0  0  0  0  0
   40.7590   33.0250   40.3730 C   0  0  0  0  0  0  0  0  0  0  0  0
   41.9660   33.6620   40.5180 C   0  0  0  0  0  0  0  0  0  0  0  0
   42.6590   33.9300   39.3380 C   0  0  0  0  0  0  0  0  0  0  0  0
   42.0970   33.5470   38.1750 N   0  0  0  0  0  0  0  0  0  0  0  0
   40.9150   32.9270   38.0800 C   0  0  0  0  0  0  0  0  0  0  0  0
   40.2150   32.6520   39.2070 N   0  0  0  0  0  0  0  0  0  0  0  0
   43.6110   34.4310   39.4480 H   0  0  0  0  0  0  0  0  0  0  0  0
   40.5290   32.6510   37.1020 H   0  0  0  0  0  0  0  0  0  0  0  0
   42.3880   33.9810   41.8230 N   0  0  0  0  0  0  0  0  0  0  0  0
   42.0560   34.9130   42.1850 H   0  0  0  0  0  0  0  0  0  0  0  0
   42.9830   33.3260   42.3650 H   0  0  0  0  0  0  0  0  0  0  0  0
   39.4300   30.6550   42.8560 O   0  0  0  0  0  0  0  0  0  0  0  0
   38.4110   29.7600   42.5440 C   0  0  0  0  0  0  0  0  0  0  0  0
   37.3900   29.9000   41.6190 C   0  0  0  0  0  0  0  0  0  0  0  0
   37.4130   30.8250   41.0940 H   0  0  0  0  0  0  0  0  0  0  0  0
   36.4820   28.8570   41.4840 C   0  0  0  0  0  3  0  0  0  0  0  0
   36.5850   27.7100   42.2450 C   0  0  0  0  0  0  0  0  0  0  0  0
   35.8370   26.9210   42.0930 H   0  0  0  0  0  0  0  0  0  0  0  0
   37.6040   27.5690   43.1680 C   0  0  0  0  0  0  0  0  0  0  0  0
   37.6310   26.6460   43.7340 H   0  0  0  0  0  0  0  0  0  0  0  0
   38.5100   28.6010   43.3080 C   0  0  0  0  0  3  0  0  0  0  0  0
  1 16  1  0  0  0  0
  2  1  2  0  0  0  0
  3  1  1  0  0  0  0
  3  4  1  0  0  0  0
  5  6  1  0  0  0  0
  5  3  1  0  0  0  0
  6 13  1  0  0  0  0
  7 11  1  0  0  0  0
  7  6  2  0  0  0  0
  8  7  1  0  0  0  0
  9  8  2  0  0  0  0
  9 10  1  0  0  0  0
 10  5  2  0  0  0  0
 12  9  1  0  0  0  0
 13 14  1  0  0  0  0
 13 15  1  0  0  0  0
 17 16  1  0  0  0  0
 17 25  1  0  0  0  0
 18 17  2  0  0  0  0
 19 18  1  0  0  0  0
 20 18  1  0  0  0  0
 20 21  2  0  0  0  0
 21 23  1  0  0  0  0
 22 21  1  0  0  0  0
 23 25  2  0  0  0  0
 23 24  1  0  0  0  0
M  END
>  <minimizedAffinity>
-4.65540075

$$$$
