
 OpenBabel03242519493D

 50 53  0  0  1  0  0  0  0  0999 V2000
   45.1150   29.0390   47.2070 C   0  0  0  0  0  0  0  0  0  0  0  0
   45.3360   28.8610   48.2230 H   0  0  0  0  0  0  0  0  0  0  0  0
   43.9000   29.2530   47.4070 H   0  0  0  0  0  0  0  0  0  0  0  0
   44.9900   27.9210   46.1800 C   0  0  0  0  0  0  0  0  0  0  0  0
   45.6180   27.0760   46.5510 H   0  0  0  0  0  0  0  0  0  0  0  0
   45.3760   28.1920   45.2100 H   0  0  0  0  0  0  0  0  0  0  0  0
   42.7060   28.2620   45.4280 C   0  0  0  0  0  0  0  0  0  0  0  0
   43.6040   27.4470   46.1350 C   0  0  0  0  0  0  0  0  0  0  0  0
   43.0350   26.3320   46.6900 C   0  0  0  0  0  0  0  0  0  0  0  0
   41.7180   25.9910   46.6000 C   0  0  0  0  0  0  0  0  0  0  0  0
   40.8460   26.8070   45.9010 C   0  0  0  0  0  0  0  0  0  0  0  0
   41.3590   27.9680   45.3030 C   0  0  0  0  0  0  0  0  0  0  0  0
   43.7750   25.7230   47.2320 H   0  0  0  0  0  0  0  0  0  0  0  0
   41.3630   25.0830   47.0770 H   0  0  0  0  0  0  0  0  0  0  0  0
   39.8100   26.5100   45.8470 H   0  0  0  0  0  0  0  0  0  0  0  0
   42.9950   29.4400   44.7700 O   0  0  0  0  0  0  0  0  0  0  0  0
   43.6850   29.5550   44.0400 H   0  0  0  0  0  0  0  0  0  0  0  0
   40.4270   28.6930   44.6430 O   0  0  0  0  0  0  0  0  0  0  0  0
   40.2870   28.5980   43.2750 C   0  0  0  0  0  0  0  0  0  0  0  0
   40.1000   29.8940   42.7750 C   0  0  0  0  0  0  0  0  0  0  0  0
   40.0630   30.8480   43.3140 H   0  0  0  0  0  0  0  0  0  0  0  0
   39.9270   30.1430   41.4090 C   0  0  0  0  0  0  0  0  0  0  0  0
   39.9370   29.0750   40.5090 C   0  0  0  0  0  0  0  0  0  0  0  0
   39.8060   29.2210   39.4460 H   0  0  0  0  0  0  0  0  0  0  0  0
   40.1220   27.8090   41.0280 C   0  0  0  0  0  0  0  0  0  0  0  0
   40.1380   26.9600   40.3820 H   0  0  0  0  0  0  0  0  0  0  0  0
   40.2940   27.5570   42.3710 C   0  0  0  0  0  0  0  0  0  0  0  0
   45.4330   30.2230   46.6700 O   0  0  0  0  0  0  0  0  0  0  0  0
   46.4950   32.3520   46.6590 C   0  0  2  0  0  0  0  0  0  0  0  0
   47.1520   32.5350   45.3650 C   0  0  1  0  0  0  0  0  0  0  0  0
   46.9680   31.2150   44.7060 O   0  0  0  0  0  0  0  0  0  0  0  0
   47.5390   30.4470   45.7160 C   0  0  0  0  0  0  0  0  0  0  0  0
   46.5610   30.8880   46.9380 C   0  0  2  0  0  0  0  0  0  0  0  0
   46.9160   32.9380   47.4930 H   0  0  0  0  0  0  0  0  0  0  0  0
   48.2650   32.6170   45.4370 H   0  0  0  0  0  0  0  0  0  0  0  0
   48.5360   30.8070   45.9690 H   0  0  0  0  0  0  0  0  0  0  0  0
   47.4110   29.3770   45.5710 H   0  0  0  0  0  0  0  0  0  0  0  0
   47.2370   30.5070   47.7230 H   0  0  0  0  0  0  0  0  0  0  0  0
   44.9140   35.1730   44.2140 C   0  0  0  0  0  0  0  0  0  0  0  0
   45.4640   35.5680   42.9990 C   0  0  0  0  0  0  0  0  0  0  0  0
   46.6240   34.9170   42.5440 C   0  0  0  0  0  0  0  0  0  0  0  0
   47.1610   33.9350   43.3000 N   0  0  0  0  0  0  0  0  0  0  0  0
   46.6150   33.5630   44.4790 C   0  0  0  0  0  0  0  0  0  0  0  0
   45.4890   34.1770   44.9450 N   0  0  0  0  0  0  0  0  0  0  0  0
   44.9810   36.3590   42.4480 H   0  0  0  0  0  0  0  0  0  0  0  0
   47.0530   35.2100   41.6150 H   0  0  0  0  0  0  0  0  0  0  0  0
   43.7630   35.7840   44.7140 O   0  0  0  0  0  0  0  0  0  0  0  0
   43.1480   36.3390   44.1640 H   0  0  0  0  0  0  0  0  0  0  0  0
   45.0860   32.6900   46.5070 O   0  0  0  0  0  0  0  0  0  0  0  0
   44.6140   31.9160   46.1510 H   0  0  0  0  0  0  0  0  0  0  0  0
  1  3  1  0  0  0  0
  1  2  1  0  0  0  0
  4  5  1  0  0  0  0
  4  1  1  0  0  0  0
  6  4  1  0  0  0  0
  7  8  1  0  0  0  0
  8  4  1  0  0  0  0
  8  9  2  0  0  0  0
  9 13  1  0  0  0  0
 10  9  1  0  0  0  0
 10 14  1  0  0  0  0
 11 10  2  0  0  0  0
 12  7  2  0  0  0  0
 12 11  1  0  0  0  0
 15 11  1  0  0  0  0
 16  7  1  0  0  0  0
 17 16  1  0  0  0  0
 18 12  1  0  0  0  0
 19 18  1  0  0  0  0
 20 19  1  0  0  0  0
 20 21  1  0  0  0  0
 22 20  2  0  0  0  0
 23 25  2  0  0  0  0
 23 22  1  0  0  0  0
 24 23  1  0  0  0  0
 25 27  1  0  0  0  0
 26 25  1  0  0  0  0
 27 19  2  0  0  0  0
 28 33  1  0  0  0  0
 28  1  1  0  0  0  0
 29 33  1  0  0  0  0
 29 34  1  1  0  0  0
 30 35  1  1  0  0  0
 30 29  1  0  0  0  0
 31 30  1  0  0  0  0
 31 32  1  0  0  0  0
 32 36  1  0  0  0  0
 32 33  1  0  0  0  0
 33 38  1  1  0  0  0
 37 32  1  0  0  0  0
 39 47  1  0  0  0  0
 39 44  1  0  0  0  0
 40 39  2  0  0  0  0
 41 40  1  0  0  0  0
 41 42  2  0  0  0  0
 42 43  1  0  0  0  0
 43 44  2  0  0  0  0
 43 30  1  0  0  0  0
 45 40  1  0  0  0  0
 46 41  1  0  0  0  0
 48 47  1  0  0  0  0
 49 29  1  0  0  0  0
 50 49  1  0  0  0  0
M  END
>  <minimizedAffinity>
-6.07511282

>  <minimizedRMSD>
0.525214612

$$$$
