
 OpenBabel03252509273D

 30 32  0  0  1  0  0  0  0  0999 V2000
   46.8540   35.1910   41.8880 C   0  0  1  0  0  0  0  0  0  0  0  0
   48.3720   35.5210   41.9650 C   0  0  0  0  0  0  0  0  0  0  0  0
   47.7210   34.3180   41.2140 C   0  0  2  0  0  0  0  0  0  0  0  0
   46.2600   35.9760   41.3760 H   0  0  0  0  0  0  0  0  0  0  0  0
   48.9140   35.3050   42.8880 H   0  0  0  0  0  0  0  0  0  0  0  0
   48.6810   36.3640   41.3300 H   0  0  0  0  0  0  0  0  0  0  0  0
   48.0510   33.3300   41.6600 H   0  0  0  0  0  0  0  0  0  0  0  0
   44.8210   35.0590   45.0400 C   0  0  0  0  0  0  0  0  0  0  0  0
   45.2800   35.5270   43.7620 C   0  0  0  0  0  0  0  0  0  0  0  0
   46.3270   34.8320   43.2560 C   0  0  0  0  0  0  0  0  0  0  0  0
   46.9020   33.7670   43.9170 N   0  0  0  0  0  0  0  0  0  0  0  0
   46.4360   33.3620   45.1190 C   0  0  0  0  0  0  0  0  0  0  0  0
   45.3880   34.0140   45.6830 N   0  0  0  0  0  0  0  0  0  0  0  0
   43.9730   35.5950   45.4830 H   0  0  0  0  0  0  0  0  0  0  0  0
   46.8280   32.5520   45.6870 H   0  0  0  0  0  0  0  0  0  0  0  0
   44.7090   36.6270   43.1050 N   0  0  0  0  0  0  0  0  0  0  0  0
   44.8050   37.4460   43.7760 H   0  0  0  0  0  0  0  0  0  0  0  0
   44.2840   36.6610   42.1750 H   0  0  0  0  0  0  0  0  0  0  0  0
   47.8070   34.2730   39.7080 C   0  0  0  0  0  0  0  0  0  0  0  0
   46.8210   34.5730   39.2630 H   0  0  0  0  0  0  0  0  0  0  0  0
   48.5500   35.0230   39.3890 H   0  0  0  0  0  0  0  0  0  0  0  0
   48.1310   32.9130   39.1930 C   0  0  0  0  0  0  0  0  0  0  0  0
   49.1740   32.2130   39.7930 C   0  0  0  0  0  0  0  0  0  0  0  0
   49.7640   32.6050   40.6140 H   0  0  0  0  0  0  0  0  0  0  0  0
   49.4430   30.9570   39.2870 C   0  0  0  0  0  3  0  0  0  0  0  0
   48.7240   30.3940   38.2330 C   0  0  0  0  0  0  0  0  0  0  0  0
   48.9350   29.4080   37.8370 H   0  0  0  0  0  0  0  0  0  0  0  0
   47.7100   31.1330   37.6850 C   0  0  0  0  0  0  0  0  0  0  0  0
   47.1440   30.7080   36.8670 H   0  0  0  0  0  0  0  0  0  0  0  0
   47.4130   32.3880   38.1630 C   0  0  0  0  0  3  0  0  0  0  0  0
  1  4  1  6  0  0  0
  1  2  1  0  0  0  0
  1 10  1  0  0  0  0
  2  5  1  0  0  0  0
  3  7  1  1  0  0  0
  3  1  1  0  0  0  0
  3  2  1  0  0  0  0
  6  2  1  0  0  0  0
  8 14  1  0  0  0  0
  8 13  1  0  0  0  0
  9  8  2  0  0  0  0
 10  9  1  0  0  0  0
 10 11  2  0  0  0  0
 11 12  1  0  0  0  0
 12 13  2  0  0  0  0
 12 15  1  0  0  0  0
 16  9  1  0  0  0  0
 16 17  1  0  0  0  0
 18 16  1  0  0  0  0
 19  3  1  0  0  0  0
 20 19  1  0  0  0  0
 21 19  1  0  0  0  0
 22 19  1  0  0  0  0
 22 23  1  0  0  0  0
 23 24  1  0  0  0  0
 25 23  2  0  0  0  0
 26 25  1  0  0  0  0
 27 26  1  0  0  0  0
 28 30  1  0  0  0  0
 28 26  2  0  0  0  0
 29 28  1  0  0  0  0
 30 22  2  0  0  0  0
M  END
>  <minimizedAffinity>
-4.56069279

>  <minimizedRMSD>
0.754837692

$$$$
