
 OpenBabel03252509273D

 30 32  0  0  1  0  0  0  0  0999 V2000
   46.5340   35.0120   41.9350 C   0  0  1  0  0  0  0  0  0  0  0  0
   48.0420   35.3940   41.9380 C   0  0  0  0  0  0  0  0  0  0  0  0
   47.4200   34.0770   41.3790 C   0  0  2  0  0  0  0  0  0  0  0  0
   45.9090   35.6970   41.3270 H   0  0  0  0  0  0  0  0  0  0  0  0
   48.6020   35.3300   42.8730 H   0  0  0  0  0  0  0  0  0  0  0  0
   48.3160   36.1460   41.1840 H   0  0  0  0  0  0  0  0  0  0  0  0
   47.7870   33.1730   41.9560 H   0  0  0  0  0  0  0  0  0  0  0  0
   44.6590   35.4010   45.1630 C   0  0  0  0  0  0  0  0  0  0  0  0
   45.1070   35.6980   43.8310 C   0  0  0  0  0  0  0  0  0  0  0  0
   46.0370   34.8380   43.3500 C   0  0  0  0  0  0  0  0  0  0  0  0
   46.5110   33.7700   44.0800 N   0  0  0  0  0  0  0  0  0  0  0  0
   46.0600   33.5300   45.3320 C   0  0  0  0  0  0  0  0  0  0  0  0
   45.1270   34.3520   45.8750 N   0  0  0  0  0  0  0  0  0  0  0  0
   43.9050   36.0750   45.5890 H   0  0  0  0  0  0  0  0  0  0  0  0
   46.3790   32.7270   45.9550 H   0  0  0  0  0  0  0  0  0  0  0  0
   44.6410   36.8020   43.1010 N   0  0  0  0  0  0  0  0  0  0  0  0
   44.8690   37.6560   43.6910 H   0  0  0  0  0  0  0  0  0  0  0  0
   44.1780   36.8100   42.1880 H   0  0  0  0  0  0  0  0  0  0  0  0
   47.4880   33.8180   39.8930 C   0  0  0  0  0  0  0  0  0  0  0  0
   46.5490   33.3040   39.5550 H   0  0  0  0  0  0  0  0  0  0  0  0
   47.5270   34.7940   39.3810 H   0  0  0  0  0  0  0  0  0  0  0  0
   48.6340   32.9440   39.5170 C   0  0  0  0  0  0  0  0  0  0  0  0
   48.8960   32.7480   38.1630 C   0  0  0  0  0  0  0  0  0  0  0  0
   48.3110   33.1990   37.3690 H   0  0  0  0  0  0  0  0  0  0  0  0
   49.9660   31.9320   37.8550 C   0  0  0  0  0  3  0  0  0  0  0  0
   50.7580   31.3210   38.8270 C   0  0  0  0  0  0  0  0  0  0  0  0
   51.5970   30.6810   38.5850 H   0  0  0  0  0  0  0  0  0  0  0  0
   50.4480   31.5530   40.1410 C   0  0  0  0  0  0  0  0  0  0  0  0
   51.0560   31.0850   40.9060 H   0  0  0  0  0  0  0  0  0  0  0  0
   49.3910   32.3610   40.4870 C   0  0  0  0  0  3  0  0  0  0  0  0
  1  4  1  6  0  0  0
  1  2  1  0  0  0  0
  1 10  1  0  0  0  0
  2  5  1  0  0  0  0
  3  1  1  0  0  0  0
  3  2  1  0  0  0  0
  3  7  1  1  0  0  0
  6  2  1  0  0  0  0
  8 14  1  0  0  0  0
  8 13  1  0  0  0  0
  9  8  2  0  0  0  0
 10  9  1  0  0  0  0
 10 11  2  0  0  0  0
 11 12  1  0  0  0  0
 12 13  2  0  0  0  0
 12 15  1  0  0  0  0
 16 17  1  0  0  0  0
 16  9  1  0  0  0  0
 18 16  1  0  0  0  0
 19  3  1  0  0  0  0
 20 19  1  0  0  0  0
 21 19  1  0  0  0  0
 22 19  1  0  0  0  0
 22 30  1  0  0  0  0
 23 22  2  0  0  0  0
 24 23  1  0  0  0  0
 25 23  1  0  0  0  0
 25 26  2  0  0  0  0
 26 28  1  0  0  0  0
 27 26  1  0  0  0  0
 28 30  2  0  0  0  0
 28 29  1  0  0  0  0
M  END
>  <minimizedAffinity>
-4.86631918

>  <minimizedRMSD>
0.828125775

$$$$
