
 OpenBabel03252509273D

 30 32  0  0  1  0  0  0  0  0999 V2000
   46.5380   35.0630   41.9200 C   0  0  1  0  0  0  0  0  0  0  0  0
   48.0620   35.3720   41.9120 C   0  0  0  0  0  0  0  0  0  0  0  0
   47.3670   34.1160   41.3000 C   0  0  2  0  0  0  0  0  0  0  0  0
   45.9360   35.8070   41.3600 H   0  0  0  0  0  0  0  0  0  0  0  0
   48.6350   35.2330   42.8310 H   0  0  0  0  0  0  0  0  0  0  0  0
   48.3590   36.1480   41.1920 H   0  0  0  0  0  0  0  0  0  0  0  0
   47.7000   33.1680   41.8230 H   0  0  0  0  0  0  0  0  0  0  0  0
   44.6950   35.3330   45.1790 C   0  0  0  0  0  0  0  0  0  0  0  0
   45.1250   35.6760   43.8520 C   0  0  0  0  0  0  0  0  0  0  0  0
   46.0580   34.8400   43.3340 C   0  0  0  0  0  0  0  0  0  0  0  0
   46.5510   33.7550   44.0270 N   0  0  0  0  0  0  0  0  0  0  0  0
   46.1160   33.4720   45.2750 C   0  0  0  0  0  0  0  0  0  0  0  0
   45.1810   34.2670   45.8530 N   0  0  0  0  0  0  0  0  0  0  0  0
   43.9390   35.9850   45.6330 H   0  0  0  0  0  0  0  0  0  0  0  0
   46.4500   32.6540   45.8690 H   0  0  0  0  0  0  0  0  0  0  0  0
   44.6400   36.7960   43.1610 N   0  0  0  0  0  0  0  0  0  0  0  0
   44.8660   37.6350   43.7750 H   0  0  0  0  0  0  0  0  0  0  0  0
   44.1670   36.8280   42.2540 H   0  0  0  0  0  0  0  0  0  0  0  0
   47.3970   33.9310   39.8020 C   0  0  0  0  0  0  0  0  0  0  0  0
   46.4350   33.4650   39.4600 H   0  0  0  0  0  0  0  0  0  0  0  0
   47.4570   34.9300   39.3390 H   0  0  0  0  0  0  0  0  0  0  0  0
   48.5050   33.0420   39.3570 C   0  0  0  0  0  0  0  0  0  0  0  0
   48.7840   32.9690   37.9950 C   0  0  0  0  0  0  0  0  0  0  0  0
   48.2390   33.5260   37.2410 H   0  0  0  0  0  0  0  0  0  0  0  0
   49.8180   32.1330   37.6220 C   0  0  0  0  0  3  0  0  0  0  0  0
   50.5590   31.3890   38.5400 C   0  0  0  0  0  0  0  0  0  0  0  0
   51.3700   30.7340   38.2460 H   0  0  0  0  0  0  0  0  0  0  0  0
   50.2350   31.5040   39.8650 C   0  0  0  0  0  0  0  0  0  0  0  0
   50.8030   30.9320   40.5880 H   0  0  0  0  0  0  0  0  0  0  0  0
   49.2120   32.3270   40.2740 C   0  0  0  0  0  3  0  0  0  0  0  0
  1  4  1  6  0  0  0
  1 10  1  0  0  0  0
  2  1  1  0  0  0  0
  2  5  1  0  0  0  0
  3  7  1  1  0  0  0
  3  2  1  0  0  0  0
  3  1  1  0  0  0  0
  6  2  1  0  0  0  0
  8 14  1  0  0  0  0
  8 13  1  0  0  0  0
  9  8  2  0  0  0  0
 10  9  1  0  0  0  0
 10 11  2  0  0  0  0
 11 12  1  0  0  0  0
 12 13  2  0  0  0  0
 12 15  1  0  0  0  0
 16 17  1  0  0  0  0
 16  9  1  0  0  0  0
 18 16  1  0  0  0  0
 19  3  1  0  0  0  0
 20 19  1  0  0  0  0
 21 19  1  0  0  0  0
 22 19  1  0  0  0  0
 22 30  1  0  0  0  0
 23 22  2  0  0  0  0
 24 23  1  0  0  0  0
 25 23  1  0  0  0  0
 25 26  2  0  0  0  0
 26 28  1  0  0  0  0
 27 26  1  0  0  0  0
 28 30  2  0  0  0  0
 28 29  1  0  0  0  0
M  END
>  <minimizedAffinity>
-4.86820602

>  <minimizedRMSD>
0.383428454

$$$$
