
 OpenBabel03252509273D

 30 32  0  0  1  0  0  0  0  0999 V2000
   47.1640   35.2930   41.8140 C   0  0  1  0  0  0  0  0  0  0  0  0
   48.6860   35.5820   41.9560 C   0  0  0  0  0  0  0  0  0  0  0  0
   48.0280   34.4920   41.0530 C   0  0  2  0  0  0  0  0  0  0  0  0
   46.5940   36.1460   41.3930 H   0  0  0  0  0  0  0  0  0  0  0  0
   49.2060   35.2440   42.8550 H   0  0  0  0  0  0  0  0  0  0  0  0
   49.0210   36.4890   41.4350 H   0  0  0  0  0  0  0  0  0  0  0  0
   48.3320   33.4500   41.3800 H   0  0  0  0  0  0  0  0  0  0  0  0
   45.0020   34.7360   44.8310 C   0  0  0  0  0  0  0  0  0  0  0  0
   45.4800   35.3440   43.6210 C   0  0  0  0  0  0  0  0  0  0  0  0
   46.6050   34.7800   43.1190 C   0  0  0  0  0  0  0  0  0  0  0  0
   47.2360   33.7140   43.7240 N   0  0  0  0  0  0  0  0  0  0  0  0
   46.7490   33.1740   44.8640 C   0  0  0  0  0  0  0  0  0  0  0  0
   45.6240   33.6910   45.4190 N   0  0  0  0  0  0  0  0  0  0  0  0
   44.0910   35.1640   45.2680 H   0  0  0  0  0  0  0  0  0  0  0  0
   47.1810   32.3540   45.3860 H   0  0  0  0  0  0  0  0  0  0  0  0
   44.8500   36.4460   43.0230 N   0  0  0  0  0  0  0  0  0  0  0  0
   44.8440   37.2110   43.7610 H   0  0  0  0  0  0  0  0  0  0  0  0
   44.4680   36.5230   42.0760 H   0  0  0  0  0  0  0  0  0  0  0  0
   48.1420   34.6290   39.5540 C   0  0  0  0  0  0  0  0  0  0  0  0
   47.3440   35.3220   39.1760 H   0  0  0  0  0  0  0  0  0  0  0  0
   49.1140   35.1010   39.3310 H   0  0  0  0  0  0  0  0  0  0  0  0
   47.9760   33.3300   38.8460 C   0  0  0  0  0  0  0  0  0  0  0  0
   48.7760   32.2590   39.2380 C   0  0  0  0  0  0  0  0  0  0  0  0
   49.5130   32.3210   40.0300 H   0  0  0  0  0  0  0  0  0  0  0  0
   48.5910   31.0730   38.5560 C   0  0  0  0  0  3  0  0  0  0  0  0
   47.6610   30.9260   37.5270 C   0  0  0  0  0  0  0  0  0  0  0  0
   47.5170   29.9940   36.9930 H   0  0  0  0  0  0  0  0  0  0  0  0
   46.9050   32.0160   37.1890 C   0  0  0  0  0  0  0  0  0  0  0  0
   46.1790   31.9160   36.3920 H   0  0  0  0  0  0  0  0  0  0  0  0
   47.0610   33.2150   37.8450 C   0  0  0  0  0  3  0  0  0  0  0  0
  1  4  1  6  0  0  0
  1  2  1  0  0  0  0
  1 10  1  0  0  0  0
  2  5  1  0  0  0  0
  3  7  1  1  0  0  0
  3  1  1  0  0  0  0
  3  2  1  0  0  0  0
  6  2  1  0  0  0  0
  8 14  1  0  0  0  0
  8 13  1  0  0  0  0
  9  8  2  0  0  0  0
 10  9  1  0  0  0  0
 10 11  2  0  0  0  0
 11 12  1  0  0  0  0
 12 15  1  0  0  0  0
 12 13  2  0  0  0  0
 16  9  1  0  0  0  0
 16 17  1  0  0  0  0
 18 16  1  0  0  0  0
 19  3  1  0  0  0  0
 20 19  1  0  0  0  0
 21 19  1  0  0  0  0
 22 23  1  0  0  0  0
 22 19  1  0  0  0  0
 23 24  1  0  0  0  0
 25 23  2  0  0  0  0
 26 25  1  0  0  0  0
 27 26  1  0  0  0  0
 28 26  2  0  0  0  0
 28 30  1  0  0  0  0
 29 28  1  0  0  0  0
 30 22  2  0  0  0  0
M  END
>  <minimizedAffinity>
-4.60480261

>  <minimizedRMSD>
1.38202369

$$$$
