
 OpenBabel03252509023D

 45 47  0  0  1  0  0  0  0  0999 V2000
   39.0200   28.4770   41.6400 N   0  0  0  0  0  0  0  0  0  0  0  0
   39.4230   27.6310   42.7130 C   0  0  0  0  0  0  0  0  0  0  0  0
   38.3380   27.2450   43.6780 C   0  0  0  0  0  0  0  0  0  0  0  0
   36.9700   27.1250   43.0700 C   0  0  0  0  0  0  0  0  0  0  0  0
   37.0160   27.3000   41.5690 C   0  0  0  0  0  0  0  0  0  0  0  0
   37.6770   28.7150   41.3960 C   0  0  2  0  0  0  0  0  0  0  0  0
   40.2750   27.9800   43.3030 H   0  0  0  0  0  0  0  0  0  0  0  0
   39.7750   26.6770   42.2290 H   0  0  0  0  0  0  0  0  0  0  0  0
   38.5930   26.2440   44.1070 H   0  0  0  0  0  0  0  0  0  0  0  0
   38.3450   27.9280   44.5560 H   0  0  0  0  0  0  0  0  0  0  0  0
   36.3710   27.9730   43.4670 H   0  0  0  0  0  0  0  0  0  0  0  0
   36.4330   26.2070   43.3930 H   0  0  0  0  0  0  0  0  0  0  0  0
   36.0050   27.4100   41.1650 H   0  0  0  0  0  0  0  0  0  0  0  0
   37.6390   26.5410   41.0830 H   0  0  0  0  0  0  0  0  0  0  0  0
   37.1230   29.3850   42.0830 H   0  0  0  0  0  0  0  0  0  0  0  0
   39.9760   29.4840   41.2890 C   0  0  0  0  0  0  0  0  0  0  0  0
   40.9870   29.0760   41.5010 H   0  0  0  0  0  0  0  0  0  0  0  0
   39.8870   29.6740   40.1900 H   0  0  0  0  0  0  0  0  0  0  0  0
   39.7210   30.7050   42.1060 C   0  0  0  0  0  0  0  0  0  0  0  0
   40.4840   30.7930   42.9300 H   0  0  0  0  0  0  0  0  0  0  0  0
   38.7450   30.7480   42.6000 H   0  0  0  0  0  0  0  0  0  0  0  0
   39.0370   33.8600   40.1820 C   0  0  0  0  0  0  0  0  0  0  0  0
   38.8560   32.7160   40.9820 C   0  0  0  0  0  0  0  0  0  0  0  0
   39.9310   31.9080   41.2610 C   0  0  0  0  0  0  0  0  0  0  0  0
   41.1210   32.2550   40.7470 N   0  0  0  0  0  0  0  0  0  0  0  0
   41.2920   33.3470   39.9840 C   0  0  0  0  0  0  0  0  0  0  0  0
   40.2570   34.1610   39.6930 N   0  0  0  0  0  0  0  0  0  0  0  0
   38.2150   34.5150   39.9450 H   0  0  0  0  0  0  0  0  0  0  0  0
   37.8490   32.5290   41.3450 H   0  0  0  0  0  0  0  0  0  0  0  0
   42.2520   33.6290   39.5700 H   0  0  0  0  0  0  0  0  0  0  0  0
   37.4380   28.9730   40.0520 O   0  0  0  0  0  0  0  0  0  0  0  0
   36.4980   31.2310   38.9990 O   0  0  0  0  0  0  0  0  0  0  0  0
   36.1160   29.9860   39.8120 P   0  0  2  0  0  0  0  0  0  0  0  0
   35.6960   30.5960   41.3540 O   0  0  0  0  0  0  0  0  0  0  0  0
   35.7090   29.8190   41.9850 H   0  0  0  0  0  0  0  0  0  0  0  0
   34.7990   29.1930   39.1870 O   0  0  0  0  0  0  0  0  0  0  0  0
   34.4560   29.0190   37.8610 C   0  0  0  0  0  0  0  0  0  0  0  0
   33.1030   29.1560   37.5520 C   0  0  0  0  0  0  0  0  0  0  0  0
   32.3750   29.3840   38.3000 H   0  0  0  0  0  0  0  0  0  0  0  0
   32.7600   28.9810   36.2190 C   0  0  0  0  0  3  0  0  0  0  0  0
   33.6530   28.6880   35.2110 C   0  0  0  0  0  0  0  0  0  0  0  0
   33.3450   28.5610   34.1950 H   0  0  0  0  0  0  0  0  0  0  0  0
   34.9720   28.5720   35.6220 C   0  0  0  0  0  0  0  0  0  0  0  0
   35.7270   28.3410   34.8710 H   0  0  0  0  0  0  0  0  0  0  0  0
   35.3950   28.7290   36.9180 C   0  0  0  0  0  3  0  0  0  0  0  0
  1  2  1  0  0  0  0
  2  7  1  0  0  0  0
  2  3  1  0  0  0  0
  3  9  1  0  0  0  0
  3 10  1  0  0  0  0
  4 12  1  0  0  0  0
  4 11  1  0  0  0  0
  4  3  1  0  0  0  0
  5  4  1  0  0  0  0
  6  5  1  0  0  0  0
  6  1  1  0  0  0  0
  6 15  1  1  0  0  0
  8  2  1  0  0  0  0
 13  5  1  0  0  0  0
 14  5  1  0  0  0  0
 16 17  1  0  0  0  0
 16  1  1  0  0  0  0
 16 19  1  0  0  0  0
 18 16  1  0  0  0  0
 19 21  1  0  0  0  0
 19 20  1  0  0  0  0
 22 23  1  0  0  0  0
 23 24  2  0  0  0  0
 23 29  1  0  0  0  0
 24 19  1  0  0  0  0
 25 24  1  0  0  0  0
 26 25  2  0  0  0  0
 27 26  1  0  0  0  0
 27 22  2  0  0  0  0
 28 22  1  0  0  0  0
 30 26  1  0  0  0  0
 31  6  1  0  0  0  0
 33 32  2  6  0  0  0
 33 31  1  0  0  0  0
 33 34  1  0  0  0  0
 34 35  1  0  0  0  0
 36 33  1  0  0  0  0
 37 36  1  0  0  0  0
 38 37  1  0  0  0  0
 38 39  1  0  0  0  0
 40 38  2  0  0  0  0
 41 43  2  0  0  0  0
 41 40  1  0  0  0  0
 42 41  1  0  0  0  0
 43 45  1  0  0  0  0
 44 43  1  0  0  0  0
 45 37  2  0  0  0  0
M  END
>  <minimizedAffinity>
-5.34672308

$$$$

 OpenBabel03252509023D

 45 47  0  0  1  0  0  0  0  0999 V2000
   38.2610   28.7560   37.9160 N   0  0  0  0  0  0  0  0  0  0  0  0
   38.1140   28.1340   36.6430 C   0  0  0  0  0  0  0  0  0  0  0  0
   36.9350   28.5900   35.8310 C   0  0  0  0  0  0  0  0  0  0  0  0
   36.5430   30.0250   36.0410 C   0  0  0  0  0  0  0  0  0  0  0  0
   37.5220   30.7360   36.9480 C   0  0  0  0  0  0  0  0  0  0  0  0
   37.4980   29.8620   38.2530 C   0  0  2  0  0  0  0  0  0  0  0  0
   38.1070   27.0410   36.6420 H   0  0  0  0  0  0  0  0  0  0  0  0
   39.0330   28.4210   36.0600 H   0  0  0  0  0  0  0  0  0  0  0  0
   37.1930   28.4780   34.7480 H   0  0  0  0  0  0  0  0  0  0  0  0
   36.0760   27.8980   35.9790 H   0  0  0  0  0  0  0  0  0  0  0  0
   35.5700   30.0120   36.5780 H   0  0  0  0  0  0  0  0  0  0  0  0
   36.3480   30.5630   35.0890 H   0  0  0  0  0  0  0  0  0  0  0  0
   37.1250   31.7090   37.2520 H   0  0  0  0  0  0  0  0  0  0  0  0
   38.5360   30.7490   36.5320 H   0  0  0  0  0  0  0  0  0  0  0  0
   36.4250   29.7150   38.4900 H   0  0  0  0  0  0  0  0  0  0  0  0
   38.7000   27.8750   38.9560 C   0  0  0  0  0  0  0  0  0  0  0  0
   39.3700   27.1190   38.4960 H   0  0  0  0  0  0  0  0  0  0  0  0
   39.2900   28.4790   39.6920 H   0  0  0  0  0  0  0  0  0  0  0  0
   37.5130   27.2190   39.5740 C   0  0  0  0  0  0  0  0  0  0  0  0
   36.8020   26.8610   38.7760 H   0  0  0  0  0  0  0  0  0  0  0  0
   36.9160   27.8490   40.2410 H   0  0  0  0  0  0  0  0  0  0  0  0
   37.4170   24.0850   41.6470 C   0  0  0  0  0  0  0  0  0  0  0  0
   37.0190   25.2560   40.9750 C   0  0  0  0  0  0  0  0  0  0  0  0
   37.9500   25.9840   40.2760 C   0  0  0  0  0  0  0  0  0  0  0  0
   39.2150   25.5350   40.2690 N   0  0  0  0  0  0  0  0  0  0  0  0
   39.5920   24.4170   40.9100 C   0  0  0  0  0  0  0  0  0  0  0  0
   38.7020   23.6800   41.6040 N   0  0  0  0  0  0  0  0  0  0  0  0
   36.7110   23.4910   42.2040 H   0  0  0  0  0  0  0  0  0  0  0  0
   35.9690   25.5290   41.0480 H   0  0  0  0  0  0  0  0  0  0  0  0
   40.6120   24.0530   40.9040 H   0  0  0  0  0  0  0  0  0  0  0  0
   38.1610   30.6870   39.1540 O   0  0  0  0  0  0  0  0  0  0  0  0
   35.8470   30.3850   40.4350 O   0  0  0  0  0  0  0  0  0  0  0  0
   37.2250   31.0570   40.5020 P   0  0  2  0  0  0  0  0  0  0  0  0
   36.8890   32.7310   40.4060 O   0  0  0  0  0  0  0  0  0  0  0  0
   37.7490   33.1850   40.1690 H   0  0  0  0  0  0  0  0  0  0  0  0
   38.0110   30.7630   41.9350 O   0  0  0  0  0  0  0  0  0  0  0  0
   38.3460   29.5450   42.4920 C   0  0  0  0  0  0  0  0  0  0  0  0
   39.6720   29.1410   42.3370 C   0  0  0  0  0  0  0  0  0  0  0  0
   40.3860   29.7420   41.8190 H   0  0  0  0  0  0  0  0  0  0  0  0
   40.0060   27.9170   42.8970 C   0  0  0  0  0  3  0  0  0  0  0  0
   39.1290   27.0990   43.5790 C   0  0  0  0  0  0  0  0  0  0  0  0
   39.4300   26.1620   43.9950 H   0  0  0  0  0  0  0  0  0  0  0  0
   37.8370   27.5910   43.6760 C   0  0  0  0  0  0  0  0  0  0  0  0
   37.0960   26.9910   44.2030 H   0  0  0  0  0  0  0  0  0  0  0  0
   37.4240   28.7890   43.1510 C   0  0  0  0  0  3  0  0  0  0  0  0
  1  6  1  0  0  0  0
  1 16  1  0  0  0  0
  2  1  1  0  0  0  0
  3 10  1  0  0  0  0
  3  4  1  0  0  0  0
  3  2  1  0  0  0  0
  4 11  1  0  0  0  0
  4  5  1  0  0  0  0
  5 13  1  0  0  0  0
  5  6  1  0  0  0  0
  6 15  1  1  0  0  0
  6 31  1  0  0  0  0
  7  2  1  0  0  0  0
  8  2  1  0  0  0  0
  9  3  1  0  0  0  0
 12  4  1  0  0  0  0
 14  5  1  0  0  0  0
 16 19  1  0  0  0  0
 16 18  1  0  0  0  0
 17 16  1  0  0  0  0
 19 21  1  0  0  0  0
 19 24  1  0  0  0  0
 20 19  1  0  0  0  0
 22 28  1  0  0  0  0
 23 29  1  0  0  0  0
 23 22  2  0  0  0  0
 24 23  1  0  0  0  0
 25 24  2  0  0  0  0
 25 26  1  0  0  0  0
 26 27  2  0  0  0  0
 27 22  1  0  0  0  0
 30 26  1  0  0  0  0
 31 33  1  0  0  0  0
 33 32  2  6  0  0  0
 33 36  1  0  0  0  0
 34 33  1  0  0  0  0
 35 34  1  0  0  0  0
 36 37  1  0  0  0  0
 37 45  1  0  0  0  0
 38 37  2  0  0  0  0
 38 40  1  0  0  0  0
 39 38  1  0  0  0  0
 40 41  2  0  0  0  0
 41 43  1  0  0  0  0
 41 42  1  0  0  0  0
 43 44  1  0  0  0  0
 45 43  2  0  0  0  0
M  END
>  <minimizedAffinity>
-5.26572609

$$$$

 OpenBabel03252509023D

 45 47  0  0  1  0  0  0  0  0999 V2000
   37.1230   26.6890   41.6500 N   0  0  0  0  0  0  0  0  0  0  0  0
   37.2270   25.2750   41.7950 C   0  0  0  0  0  0  0  0  0  0  0  0
   36.5580   24.4630   40.7220 C   0  0  0  0  0  0  0  0  0  0  0  0
   36.5460   25.1030   39.3640 C   0  0  0  0  0  0  0  0  0  0  0  0
   37.3370   26.3920   39.3540 C   0  0  0  0  0  0  0  0  0  0  0  0
   36.6410   27.2440   40.4760 C   0  0  2  0  0  0  0  0  0  0  0  0
   36.9090   24.8680   42.7580 H   0  0  0  0  0  0  0  0  0  0  0  0
   38.3270   25.0460   41.7300 H   0  0  0  0  0  0  0  0  0  0  0  0
   37.1110   23.4950   40.6220 H   0  0  0  0  0  0  0  0  0  0  0  0
   35.5380   24.1610   41.0490 H   0  0  0  0  0  0  0  0  0  0  0  0
   35.4900   25.3810   39.1530 H   0  0  0  0  0  0  0  0  0  0  0  0
   36.8340   24.4000   38.5530 H   0  0  0  0  0  0  0  0  0  0  0  0
   37.1570   26.9440   38.4270 H   0  0  0  0  0  0  0  0  0  0  0  0
   38.3900   26.2320   39.6130 H   0  0  0  0  0  0  0  0  0  0  0  0
   35.5550   27.1800   40.2640 H   0  0  0  0  0  0  0  0  0  0  0  0
   36.9290   27.3960   42.8800 C   0  0  0  0  0  0  0  0  0  0  0  0
   36.6100   28.4280   42.6280 H   0  0  0  0  0  0  0  0  0  0  0  0
   36.1040   26.8890   43.4410 H   0  0  0  0  0  0  0  0  0  0  0  0
   38.2120   27.4140   43.6400 C   0  0  0  0  0  0  0  0  0  0  0  0
   38.8000   26.4740   43.4430 H   0  0  0  0  0  0  0  0  0  0  0  0
   38.1170   27.4810   44.7290 H   0  0  0  0  0  0  0  0  0  0  0  0
   41.2180   29.2920   42.3880 C   0  0  0  0  0  0  0  0  0  0  0  0
   40.3940   28.2610   42.8770 C   0  0  0  0  0  0  0  0  0  0  0  0
   39.0670   28.5140   43.1240 C   0  0  0  0  0  0  0  0  0  0  0  0
   38.6150   29.7550   42.8830 N   0  0  0  0  0  0  0  0  0  0  0  0
   39.4030   30.7370   42.4170 C   0  0  0  0  0  0  0  0  0  0  0  0
   40.7090   30.5200   42.1640 N   0  0  0  0  0  0  0  0  0  0  0  0
   42.2640   29.1250   42.1850 H   0  0  0  0  0  0  0  0  0  0  0  0
   40.8640   27.2940   43.0370 H   0  0  0  0  0  0  0  0  0  0  0  0
   39.0390   31.7380   42.2210 H   0  0  0  0  0  0  0  0  0  0  0  0
   37.1810   28.5040   40.2450 O   0  0  0  0  0  0  0  0  0  0  0  0
   36.5230   30.7910   39.0530 O   0  0  0  0  0  0  0  0  0  0  0  0
   36.0030   29.6720   39.9660 P   0  0  2  0  0  0  0  0  0  0  0  0
   35.7280   30.4400   41.4690 O   0  0  0  0  0  0  0  0  0  0  0  0
   35.6570   29.7150   42.1550 H   0  0  0  0  0  0  0  0  0  0  0  0
   34.5680   29.0290   39.4360 O   0  0  0  0  0  0  0  0  0  0  0  0
   34.1230   28.8860   38.1370 C   0  0  0  0  0  0  0  0  0  0  0  0
   35.0370   28.3510   37.2290 C   0  0  0  0  0  0  0  0  0  0  0  0
   36.0230   28.0670   37.5240 H   0  0  0  0  0  0  0  0  0  0  0  0
   34.5880   28.2090   35.9240 C   0  0  0  0  0  3  0  0  0  0  0  0
   33.3280   28.5550   35.4840 C   0  0  0  0  0  0  0  0  0  0  0  0
   33.0250   28.4280   34.4680 H   0  0  0  0  0  0  0  0  0  0  0  0
   32.4990   29.0780   36.4630 C   0  0  0  0  0  0  0  0  0  0  0  0
   31.4890   29.3720   36.1780 H   0  0  0  0  0  0  0  0  0  0  0  0
   32.8620   29.2530   37.7740 C   0  0  0  0  0  3  0  0  0  0  0  0
  1  2  1  0  0  0  0
  1 16  1  0  0  0  0
  2  7  1  0  0  0  0
  3 10  1  0  0  0  0
  3  2  1  0  0  0  0
  4  3  1  0  0  0  0
  5  4  1  0  0  0  0
  5 14  1  0  0  0  0
  5  6  1  0  0  0  0
  6 15  1  6  0  0  0
  6  1  1  0  0  0  0
  8  2  1  0  0  0  0
  9  3  1  0  0  0  0
 11  4  1  0  0  0  0
 12  4  1  0  0  0  0
 13  5  1  0  0  0  0
 16 18  1  0  0  0  0
 16 19  1  0  0  0  0
 17 16  1  0  0  0  0
 19 21  1  0  0  0  0
 20 19  1  0  0  0  0
 22 23  1  0  0  0  0
 23 29  1  0  0  0  0
 23 24  2  0  0  0  0
 24 19  1  0  0  0  0
 25 24  1  0  0  0  0
 26 25  2  0  0  0  0
 27 22  2  0  0  0  0
 27 26  1  0  0  0  0
 28 22  1  0  0  0  0
 30 26  1  0  0  0  0
 31  6  1  0  0  0  0
 33 32  2  6  0  0  0
 33 31  1  0  0  0  0
 33 34  1  0  0  0  0
 34 35  1  0  0  0  0
 36 33  1  0  0  0  0
 37 36  1  0  0  0  0
 38 39  1  0  0  0  0
 38 37  2  0  0  0  0
 40 38  1  0  0  0  0
 41 40  2  0  0  0  0
 41 43  1  0  0  0  0
 42 41  1  0  0  0  0
 43 45  2  0  0  0  0
 44 43  1  0  0  0  0
 45 37  1  0  0  0  0
M  END
>  <minimizedAffinity>
-5.24613333

$$$$

 OpenBabel03252509023D

 45 47  0  0  1  0  0  0  0  0999 V2000
   34.5080   28.7130   36.9880 N   0  0  0  0  0  0  0  0  0  0  0  0
   34.6420   28.8540   35.5770 C   0  0  0  0  0  0  0  0  0  0  0  0
   35.9240   29.4810   35.1060 C   0  0  0  0  0  0  0  0  0  0  0  0
   37.1170   29.1980   35.9730 C   0  0  0  0  0  0  0  0  0  0  0  0
   36.7780   28.2220   37.0770 C   0  0  0  0  0  0  0  0  0  0  0  0
   35.5910   28.9290   37.8240 C   0  0  2  0  0  0  0  0  0  0  0  0
   33.8220   29.3660   35.0670 H   0  0  0  0  0  0  0  0  0  0  0  0
   34.6300   27.8040   35.1680 H   0  0  0  0  0  0  0  0  0  0  0  0
   36.1570   29.0770   34.0890 H   0  0  0  0  0  0  0  0  0  0  0  0
   35.7790   30.5720   34.9400 H   0  0  0  0  0  0  0  0  0  0  0  0
   37.3820   30.1560   36.4700 H   0  0  0  0  0  0  0  0  0  0  0  0
   38.0170   28.9100   35.3880 H   0  0  0  0  0  0  0  0  0  0  0  0
   37.5880   28.1780   37.8110 H   0  0  0  0  0  0  0  0  0  0  0  0
   36.4430   27.2550   36.6850 H   0  0  0  0  0  0  0  0  0  0  0  0
   35.9300   29.9700   37.9970 H   0  0  0  0  0  0  0  0  0  0  0  0
   33.1890   28.9680   37.4840 C   0  0  0  0  0  0  0  0  0  0  0  0
   32.8040   28.0220   37.9170 H   0  0  0  0  0  0  0  0  0  0  0  0
   33.2700   29.7310   38.2990 H   0  0  0  0  0  0  0  0  0  0  0  0
   32.3230   29.4210   36.3590 C   0  0  0  0  0  0  0  0  0  0  0  0
   31.8450   28.5370   35.8500 H   0  0  0  0  0  0  0  0  0  0  0  0
   32.8310   29.9800   35.5650 H   0  0  0  0  0  0  0  0  0  0  0  0
   29.6960   32.0840   36.7300 C   0  0  0  0  0  0  0  0  0  0  0  0
   30.7710   31.3270   36.2270 C   0  0  0  0  0  0  0  0  0  0  0  0
   31.1870   30.2080   36.9040 C   0  0  0  0  0  0  0  0  0  0  0  0
   30.5370   29.8870   38.0340 N   0  0  0  0  0  0  0  0  0  0  0  0
   29.5120   30.6100   38.5130 C   0  0  0  0  0  0  0  0  0  0  0  0
   29.0790   31.7120   37.8700 N   0  0  0  0  0  0  0  0  0  0  0  0
   29.3460   32.9680   36.2220 H   0  0  0  0  0  0  0  0  0  0  0  0
   31.2260   31.6790   35.3040 H   0  0  0  0  0  0  0  0  0  0  0  0
   28.9860   30.3510   39.4230 H   0  0  0  0  0  0  0  0  0  0  0  0
   35.5010   28.1720   38.9860 O   0  0  0  0  0  0  0  0  0  0  0  0
   36.5480   27.8970   41.4180 O   0  0  0  0  0  0  0  0  0  0  0  0
   36.2570   28.9050   40.2980 P   0  0  2  0  0  0  0  0  0  0  0  0
   35.1070   29.9760   40.9740 O   0  0  0  0  0  0  0  0  0  0  0  0
   34.6890   30.4700   40.2110 H   0  0  0  0  0  0  0  0  0  0  0  0
   37.5970   29.7830   39.8630 O   0  0  0  0  0  0  0  0  0  0  0  0
   37.7830   31.1500   39.9330 C   0  0  0  0  0  0  0  0  0  0  0  0
   38.6940   31.5990   40.8890 C   0  0  0  0  0  0  0  0  0  0  0  0
   39.2170   30.9230   41.5290 H   0  0  0  0  0  0  0  0  0  0  0  0
   38.8790   32.9710   40.9580 C   0  0  0  0  0  3  0  0  0  0  0  0
   38.2350   33.8920   40.1590 C   0  0  0  0  0  0  0  0  0  0  0  0
   38.4090   34.9430   40.2460 H   0  0  0  0  0  0  0  0  0  0  0  0
   37.3510   33.3440   39.2430 C   0  0  0  0  0  0  0  0  0  0  0  0
   36.8100   34.0200   38.5820 H   0  0  0  0  0  0  0  0  0  0  0  0
   37.1090   32.0000   39.1100 C   0  0  0  0  0  3  0  0  0  0  0  0
  1 16  1  0  0  0  0
  1  6  1  0  0  0  0
  2  1  1  0  0  0  0
  3  2  1  0  0  0  0
  3  4  1  0  0  0  0
  4 11  1  0  0  0  0
  4  5  1  0  0  0  0
  5 13  1  0  0  0  0
  5  6  1  0  0  0  0
  6 15  1  1  0  0  0
  6 31  1  0  0  0  0
  7  2  1  0  0  0  0
  8  2  1  0  0  0  0
  9  3  1  0  0  0  0
 10  3  1  0  0  0  0
 12  4  1  0  0  0  0
 14  5  1  0  0  0  0
 16 17  1  0  0  0  0
 16 18  1  0  0  0  0
 19 24  1  0  0  0  0
 19 16  1  0  0  0  0
 20 19  1  0  0  0  0
 21 19  1  0  0  0  0
 22 27  1  0  0  0  0
 23 22  2  0  0  0  0
 23 24  1  0  0  0  0
 24 25  2  0  0  0  0
 25 26  1  0  0  0  0
 26 30  1  0  0  0  0
 27 26  2  0  0  0  0
 28 22  1  0  0  0  0
 29 23  1  0  0  0  0
 31 33  1  0  0  0  0
 33 34  1  0  0  0  0
 33 32  2  1  0  0  0
 35 34  1  0  0  0  0
 36 37  1  0  0  0  0
 36 33  1  0  0  0  0
 37 38  1  0  0  0  0
 38 40  2  0  0  0  0
 38 39  1  0  0  0  0
 41 42  1  0  0  0  0
 41 40  1  0  0  0  0
 43 41  2  0  0  0  0
 44 43  1  0  0  0  0
 45 43  1  0  0  0  0
 45 37  2  0  0  0  0
M  END
>  <minimizedAffinity>
-5.2426033

$$$$

 OpenBabel03252509023D

 45 47  0  0  1  0  0  0  0  0999 V2000
   38.5440   31.0820   38.9450 N   0  0  0  0  0  0  0  0  0  0  0  0
   38.2860   31.4490   37.5930 C   0  0  0  0  0  0  0  0  0  0  0  0
   37.3330   30.5560   36.8500 C   0  0  0  0  0  0  0  0  0  0  0  0
   36.2640   29.9310   37.7000 C   0  0  0  0  0  0  0  0  0  0  0  0
   36.3140   30.4510   39.1190 C   0  0  0  0  0  0  0  0  0  0  0  0
   37.7800   30.1120   39.5710 C   0  0  2  0  0  0  0  0  0  0  0  0
   39.1650   31.5870   36.9570 H   0  0  0  0  0  0  0  0  0  0  0  0
   37.8000   32.4630   37.6440 H   0  0  0  0  0  0  0  0  0  0  0  0
   36.8130   31.1710   36.0730 H   0  0  0  0  0  0  0  0  0  0  0  0
   37.8960   29.7960   36.2630 H   0  0  0  0  0  0  0  0  0  0  0  0
   36.4980   28.8450   37.7550 H   0  0  0  0  0  0  0  0  0  0  0  0
   35.2550   29.9930   37.2400 H   0  0  0  0  0  0  0  0  0  0  0  0
   35.6720   29.8500   39.7700 H   0  0  0  0  0  0  0  0  0  0  0  0
   36.1550   31.5340   39.1680 H   0  0  0  0  0  0  0  0  0  0  0  0
   37.9360   29.0510   39.2920 H   0  0  0  0  0  0  0  0  0  0  0  0
   39.9040   31.2650   39.3560 C   0  0  0  0  0  0  0  0  0  0  0  0
   40.0640   30.6560   40.2700 H   0  0  0  0  0  0  0  0  0  0  0  0
   40.5650   30.8730   38.5420 H   0  0  0  0  0  0  0  0  0  0  0  0
   40.1390   32.7090   39.6410 C   0  0  0  0  0  0  0  0  0  0  0  0
   39.2460   33.1580   40.1610 H   0  0  0  0  0  0  0  0  0  0  0  0
   40.3200   33.3410   38.7650 H   0  0  0  0  0  0  0  0  0  0  0  0
   43.0330   34.1450   41.5620 C   0  0  0  0  0  0  0  0  0  0  0  0
   41.9740   34.0060   40.6450 C   0  0  0  0  0  0  0  0  0  0  0  0
   41.2530   32.8380   40.6160 C   0  0  0  0  0  0  0  0  0  0  0  0
   41.6000   31.8700   41.4770 N   0  0  0  0  0  0  0  0  0  0  0  0
   42.6100   32.0050   42.3520 C   0  0  0  0  0  0  0  0  0  0  0  0
   43.3360   33.1380   42.4060 N   0  0  0  0  0  0  0  0  0  0  0  0
   43.6180   35.0490   41.6100 H   0  0  0  0  0  0  0  0  0  0  0  0
   41.7790   34.8530   39.9920 H   0  0  0  0  0  0  0  0  0  0  0  0
   42.8910   31.2240   43.0490 H   0  0  0  0  0  0  0  0  0  0  0  0
   37.7060   30.3230   40.9420 O   0  0  0  0  0  0  0  0  0  0  0  0
   35.7330   28.6300   41.5160 O   0  0  0  0  0  0  0  0  0  0  0  0
   37.2100   28.9530   41.7830 P   0  0  2  0  0  0  0  0  0  0  0  0
   37.2650   29.3640   43.4420 O   0  0  0  0  0  0  0  0  0  0  0  0
   38.1320   29.8400   43.5930 H   0  0  0  0  0  0  0  0  0  0  0  0
   38.2050   27.6470   41.5350 O   0  0  0  0  0  0  0  0  0  0  0  0
   37.8500   26.3480   41.2290 C   0  0  0  0  0  0  0  0  0  0  0  0
   37.2390   25.6200   42.2500 C   0  0  0  0  0  0  0  0  0  0  0  0
   37.0560   26.0460   43.2120 H   0  0  0  0  0  0  0  0  0  0  0  0
   36.8840   24.3160   41.9410 C   0  0  0  0  0  3  0  0  0  0  0  0
   37.0920   23.7130   40.7190 C   0  0  0  0  0  0  0  0  0  0  0  0
   36.8020   22.7040   40.5240 H   0  0  0  0  0  0  0  0  0  0  0  0
   37.7060   24.5210   39.7740 C   0  0  0  0  0  0  0  0  0  0  0  0
   37.8990   24.1020   38.7860 H   0  0  0  0  0  0  0  0  0  0  0  0
   38.0890   25.8190   39.9970 C   0  0  0  0  0  3  0  0  0  0  0  0
  1 16  1  0  0  0  0
  1  6  1  0  0  0  0
  2  8  1  0  0  0  0
  2  1  1  0  0  0  0
  3  2  1  0  0  0  0
  3  4  1  0  0  0  0
  4 11  1  0  0  0  0
  4  5  1  0  0  0  0
  5 14  1  0  0  0  0
  5  6  1  0  0  0  0
  5 13  1  0  0  0  0
  6 15  1  6  0  0  0
  6 31  1  0  0  0  0
  7  2  1  0  0  0  0
  9  3  1  0  0  0  0
 10  3  1  0  0  0  0
 12  4  1  0  0  0  0
 16 19  1  0  0  0  0
 16 17  1  0  0  0  0
 18 16  1  0  0  0  0
 19 20  1  0  0  0  0
 19 24  1  0  0  0  0
 21 19  1  0  0  0  0
 22 28  1  0  0  0  0
 22 27  1  0  0  0  0
 23 22  2  0  0  0  0
 24 23  1  0  0  0  0
 24 25  2  0  0  0  0
 25 26  1  0  0  0  0
 26 27  2  0  0  0  0
 26 30  1  0  0  0  0
 29 23  1  0  0  0  0
 31 33  1  0  0  0  0
 33 32  2  6  0  0  0
 33 34  1  0  0  0  0
 34 35  1  0  0  0  0
 36 33  1  0  0  0  0
 37 36  1  0  0  0  0
 37 38  1  0  0  0  0
 38 39  1  0  0  0  0
 40 38  2  0  0  0  0
 41 40  1  0  0  0  0
 42 41  1  0  0  0  0
 43 45  1  0  0  0  0
 43 41  2  0  0  0  0
 44 43  1  0  0  0  0
 45 37  2  0  0  0  0
M  END
>  <minimizedAffinity>
-5.223629

$$$$

 OpenBabel03252509023D

 45 47  0  0  1  0  0  0  0  0999 V2000
   37.3050   26.3420   41.6760 N   0  0  0  0  0  0  0  0  0  0  0  0
   38.0230   25.2660   42.2720 C   0  0  0  0  0  0  0  0  0  0  0  0
   39.2820   25.6500   42.9970 C   0  0  0  0  0  0  0  0  0  0  0  0
   39.2490   27.0080   43.6380 C   0  0  0  0  0  0  0  0  0  0  0  0
   37.8840   27.6440   43.5130 C   0  0  0  0  0  0  0  0  0  0  0  0
   37.6380   27.6560   41.9600 C   0  0  2  0  0  0  0  0  0  0  0  0
   38.2700   24.4310   41.6110 H   0  0  0  0  0  0  0  0  0  0  0  0
   37.3290   24.8320   43.0450 H   0  0  0  0  0  0  0  0  0  0  0  0
   39.4520   24.9070   43.8170 H   0  0  0  0  0  0  0  0  0  0  0  0
   40.1640   25.5260   42.3290 H   0  0  0  0  0  0  0  0  0  0  0  0
   39.9490   27.6490   43.0580 H   0  0  0  0  0  0  0  0  0  0  0  0
   39.6430   27.0040   44.6770 H   0  0  0  0  0  0  0  0  0  0  0  0
   37.9250   28.6990   43.8000 H   0  0  0  0  0  0  0  0  0  0  0  0
   37.1040   27.0510   44.0040 H   0  0  0  0  0  0  0  0  0  0  0  0
   38.5630   28.0770   41.5190 H   0  0  0  0  0  0  0  0  0  0  0  0
   36.7330   26.0350   40.3990 C   0  0  0  0  0  0  0  0  0  0  0  0
   36.4190   24.9700   40.4190 H   0  0  0  0  0  0  0  0  0  0  0  0
   35.8250   26.6760   40.2660 H   0  0  0  0  0  0  0  0  0  0  0  0
   37.7560   26.2600   39.3380 C   0  0  0  0  0  0  0  0  0  0  0  0
   38.5860   25.5040   39.4240 H   0  0  0  0  0  0  0  0  0  0  0  0
   38.2450   27.2400   39.3530 H   0  0  0  0  0  0  0  0  0  0  0  0
   35.2670   25.2620   36.7030 C   0  0  0  0  0  0  0  0  0  0  0  0
   35.8630   25.5100   37.9550 C   0  0  0  0  0  0  0  0  0  0  0  0
   37.1430   26.0050   38.0090 C   0  0  0  0  0  0  0  0  0  0  0  0
   37.7730   26.2310   36.8460 N   0  0  0  0  0  0  0  0  0  0  0  0
   37.2030   25.9940   35.6530 C   0  0  0  0  0  0  0  0  0  0  0  0
   35.9490   25.5090   35.5670 N   0  0  0  0  0  0  0  0  0  0  0  0
   34.2650   24.8740   36.6260 H   0  0  0  0  0  0  0  0  0  0  0  0
   35.2620   25.2910   38.8340 H   0  0  0  0  0  0  0  0  0  0  0  0
   37.7100   26.1760   34.7140 H   0  0  0  0  0  0  0  0  0  0  0  0
   36.5370   28.4980   41.8580 O   0  0  0  0  0  0  0  0  0  0  0  0
   38.1450   30.6130   41.6800 O   0  0  0  0  0  0  0  0  0  0  0  0
   36.8990   29.9450   41.0810 P   0  0  2  0  0  0  0  0  0  0  0  0
   35.6200   31.0190   41.4510 O   0  0  0  0  0  0  0  0  0  0  0  0
   34.7690   30.5060   41.3300 H   0  0  0  0  0  0  0  0  0  0  0  0
   36.9890   29.7880   39.4310 O   0  0  0  0  0  0  0  0  0  0  0  0
   35.9880   29.4290   38.5510 C   0  0  0  0  0  0  0  0  0  0  0  0
   36.2920   29.5400   37.1940 C   0  0  0  0  0  0  0  0  0  0  0  0
   37.2450   29.8830   36.8570 H   0  0  0  0  0  0  0  0  0  0  0  0
   35.2840   29.1800   36.3110 C   0  0  0  0  0  3  0  0  0  0  0  0
   34.0360   28.7300   36.6860 C   0  0  0  0  0  0  0  0  0  0  0  0
   33.2880   28.4620   35.9700 H   0  0  0  0  0  0  0  0  0  0  0  0
   33.8350   28.6570   38.0550 C   0  0  0  0  0  0  0  0  0  0  0  0
   32.8670   28.3080   38.4150 H   0  0  0  0  0  0  0  0  0  0  0  0
   34.7760   28.9940   38.9950 C   0  0  0  0  0  3  0  0  0  0  0  0
  1  6  1  0  0  0  0
  1  2  1  0  0  0  0
  2  3  1  0  0  0  0
  2  8  1  0  0  0  0
  3  4  1  0  0  0  0
  3  9  1  0  0  0  0
  4 12  1  0  0  0  0
  5  4  1  0  0  0  0
  5 13  1  0  0  0  0
  5 14  1  0  0  0  0
  6 15  1  6  0  0  0
  6  5  1  0  0  0  0
  7  2  1  0  0  0  0
 10  3  1  0  0  0  0
 11  4  1  0  0  0  0
 16 17  1  0  0  0  0
 16  1  1  0  0  0  0
 18 16  1  0  0  0  0
 19 21  1  0  0  0  0
 19 20  1  0  0  0  0
 19 16  1  0  0  0  0
 22 23  1  0  0  0  0
 23 24  2  0  0  0  0
 23 29  1  0  0  0  0
 24 19  1  0  0  0  0
 25 24  1  0  0  0  0
 26 25  2  0  0  0  0
 27 26  1  0  0  0  0
 27 22  2  0  0  0  0
 28 22  1  0  0  0  0
 30 26  1  0  0  0  0
 31  6  1  0  0  0  0
 33 34  1  0  0  0  0
 33 32  2  1  0  0  0
 33 31  1  0  0  0  0
 35 34  1  0  0  0  0
 36 33  1  0  0  0  0
 37 45  1  0  0  0  0
 37 36  1  0  0  0  0
 38 37  2  0  0  0  0
 39 38  1  0  0  0  0
 40 41  2  0  0  0  0
 40 38  1  0  0  0  0
 41 43  1  0  0  0  0
 42 41  1  0  0  0  0
 43 44  1  0  0  0  0
 43 45  2  0  0  0  0
M  END
>  <minimizedAffinity>
-5.19237661

$$$$

 OpenBabel03252509023D

 45 47  0  0  1  0  0  0  0  0999 V2000
   37.3300   30.2890   38.9660 N   0  0  0  0  0  0  0  0  0  0  0  0
   36.2460   29.9900   38.0900 C   0  0  0  0  0  0  0  0  0  0  0  0
   35.2100   29.0500   38.6390 C   0  0  0  0  0  0  0  0  0  0  0  0
   35.0050   29.1380   40.1240 C   0  0  0  0  0  0  0  0  0  0  0  0
   35.8130   30.2650   40.7270 C   0  0  0  0  0  0  0  0  0  0  0  0
   37.2840   29.9160   40.2980 C   0  0  2  0  0  0  0  0  0  0  0  0
   36.5200   29.6290   37.0950 H   0  0  0  0  0  0  0  0  0  0  0  0
   35.7240   30.9710   37.9110 H   0  0  0  0  0  0  0  0  0  0  0  0
   34.2290   29.2930   38.1590 H   0  0  0  0  0  0  0  0  0  0  0  0
   35.4240   28.0080   38.3100 H   0  0  0  0  0  0  0  0  0  0  0  0
   35.4070   28.1960   40.5560 H   0  0  0  0  0  0  0  0  0  0  0  0
   33.9310   29.1600   40.4100 H   0  0  0  0  0  0  0  0  0  0  0  0
   35.8130   30.1940   41.8190 H   0  0  0  0  0  0  0  0  0  0  0  0
   35.5310   31.2410   40.3160 H   0  0  0  0  0  0  0  0  0  0  0  0
   37.4200   28.8460   40.5560 H   0  0  0  0  0  0  0  0  0  0  0  0
   38.6030   30.3850   38.3170 C   0  0  0  0  0  0  0  0  0  0  0  0
   39.3640   29.9620   39.0060 H   0  0  0  0  0  0  0  0  0  0  0  0
   38.5660   29.7570   37.3910 H   0  0  0  0  0  0  0  0  0  0  0  0
   38.8970   31.8170   38.0270 C   0  0  0  0  0  0  0  0  0  0  0  0
   37.9980   32.4570   38.2540 H   0  0  0  0  0  0  0  0  0  0  0  0
   39.1680   32.0450   36.9910 H   0  0  0  0  0  0  0  0  0  0  0  0
   40.7670   33.9720   40.4740 C   0  0  0  0  0  0  0  0  0  0  0  0
   39.7780   33.5030   39.5890 C   0  0  0  0  0  0  0  0  0  0  0  0
   39.9510   32.2960   38.9580 C   0  0  0  0  0  0  0  0  0  0  0  0
   41.0750   31.6120   39.2210 N   0  0  0  0  0  0  0  0  0  0  0  0
   42.0180   32.0600   40.0660 C   0  0  0  0  0  0  0  0  0  0  0  0
   41.8770   33.2400   40.7010 N   0  0  0  0  0  0  0  0  0  0  0  0
   40.6620   34.9150   40.9850 H   0  0  0  0  0  0  0  0  0  0  0  0
   38.9080   34.1390   39.4490 H   0  0  0  0  0  0  0  0  0  0  0  0
   42.9250   31.5090   40.2800 H   0  0  0  0  0  0  0  0  0  0  0  0
   38.0200   30.7800   41.0990 O   0  0  0  0  0  0  0  0  0  0  0  0
   39.9590   30.9510   42.9160 O   0  0  0  0  0  0  0  0  0  0  0  0
   39.1040   29.9710   42.0990 P   0  0  2  0  0  0  0  0  0  0  0  0
   40.2210   29.1930   41.0630 O   0  0  0  0  0  0  0  0  0  0  0  0
   39.6860   28.7600   40.3370 H   0  0  0  0  0  0  0  0  0  0  0  0
   38.3750   28.8180   43.0440 O   0  0  0  0  0  0  0  0  0  0  0  0
   38.3350   27.4520   42.8470 C   0  0  0  0  0  0  0  0  0  0  0  0
   39.4510   26.7340   43.2770 C   0  0  0  0  0  0  0  0  0  0  0  0
   40.2870   27.2160   43.7340 H   0  0  0  0  0  0  0  0  0  0  0  0
   39.4080   25.3620   43.0770 C   0  0  0  0  0  3  0  0  0  0  0  0
   38.3570   24.6850   42.4950 C   0  0  0  0  0  0  0  0  0  0  0  0
   38.3670   23.6250   42.3610 H   0  0  0  0  0  0  0  0  0  0  0  0
   37.2990   25.4900   42.1020 C   0  0  0  0  0  0  0  0  0  0  0  0
   36.4370   25.0130   41.6350 H   0  0  0  0  0  0  0  0  0  0  0  0
   37.2610   26.8510   42.2620 C   0  0  0  0  0  3  0  0  0  0  0  0
  1  6  1  0  0  0  0
  2  3  1  0  0  0  0
  2  1  1  0  0  0  0
  3  4  1  0  0  0  0
  4 12  1  0  0  0  0
  4 11  1  0  0  0  0
  4  5  1  0  0  0  0
  5 13  1  0  0  0  0
  6 15  1  1  0  0  0
  6  5  1  0  0  0  0
  6 31  1  0  0  0  0
  7  2  1  0  0  0  0
  8  2  1  0  0  0  0
  9  3  1  0  0  0  0
 10  3  1  0  0  0  0
 14  5  1  0  0  0  0
 16  1  1  0  0  0  0
 16 17  1  0  0  0  0
 18 16  1  0  0  0  0
 19 20  1  0  0  0  0
 19 16  1  0  0  0  0
 19 24  1  0  0  0  0
 21 19  1  0  0  0  0
 22 27  1  0  0  0  0
 22 28  1  0  0  0  0
 23 22  2  0  0  0  0
 24 25  2  0  0  0  0
 24 23  1  0  0  0  0
 25 26  1  0  0  0  0
 26 30  1  0  0  0  0
 26 27  2  0  0  0  0
 29 23  1  0  0  0  0
 31 33  1  0  0  0  0
 33 32  2  1  0  0  0
 33 36  1  0  0  0  0
 34 33  1  0  0  0  0
 35 34  1  0  0  0  0
 37 36  1  0  0  0  0
 37 38  1  0  0  0  0
 38 39  1  0  0  0  0
 40 38  2  0  0  0  0
 41 40  1  0  0  0  0
 42 41  1  0  0  0  0
 43 45  1  0  0  0  0
 43 41  2  0  0  0  0
 44 43  1  0  0  0  0
 45 37  2  0  0  0  0
M  END
>  <minimizedAffinity>
-5.19097567

$$$$

 OpenBabel03252509023D

 45 47  0  0  1  0  0  0  0  0999 V2000
   37.1160   26.4900   41.6870 N   0  0  0  0  0  0  0  0  0  0  0  0
   37.2130   25.1270   42.0880 C   0  0  0  0  0  0  0  0  0  0  0  0
   36.6310   24.1260   41.1300 C   0  0  0  0  0  0  0  0  0  0  0  0
   36.7210   24.5150   39.6820 C   0  0  0  0  0  0  0  0  0  0  0  0
   37.5060   25.7950   39.5030 C   0  0  0  0  0  0  0  0  0  0  0  0
   36.7230   26.8210   40.4010 C   0  0  2  0  0  0  0  0  0  0  0  0
   36.8240   24.8910   43.0820 H   0  0  0  0  0  0  0  0  0  0  0  0
   38.3160   24.9080   42.1470 H   0  0  0  0  0  0  0  0  0  0  0  0
   37.1940   23.1650   41.2450 H   0  0  0  0  0  0  0  0  0  0  0  0
   35.5900   23.8690   41.4280 H   0  0  0  0  0  0  0  0  0  0  0  0
   35.6840   24.7330   39.3480 H   0  0  0  0  0  0  0  0  0  0  0  0
   37.0730   23.6850   39.0330 H   0  0  0  0  0  0  0  0  0  0  0  0
   37.3960   26.1720   38.4820 H   0  0  0  0  0  0  0  0  0  0  0  0
   38.5370   25.7020   39.8640 H   0  0  0  0  0  0  0  0  0  0  0  0
   35.6570   26.7010   40.1230 H   0  0  0  0  0  0  0  0  0  0  0  0
   36.8260   27.4000   42.7540 C   0  0  0  0  0  0  0  0  0  0  0  0
   36.6120   28.3910   42.3030 H   0  0  0  0  0  0  0  0  0  0  0  0
   35.9050   27.0360   43.2760 H   0  0  0  0  0  0  0  0  0  0  0  0
   38.0060   27.4800   43.6620 C   0  0  0  0  0  0  0  0  0  0  0  0
   38.5640   26.5020   43.6700 H   0  0  0  0  0  0  0  0  0  0  0  0
   37.7830   27.7020   44.7110 H   0  0  0  0  0  0  0  0  0  0  0  0
   39.4310   30.6720   42.2790 C   0  0  0  0  0  0  0  0  0  0  0  0
   38.5270   29.7250   42.7980 C   0  0  0  0  0  0  0  0  0  0  0  0
   38.9740   28.4670   43.1160 C   0  0  0  0  0  0  0  0  0  0  0  0
   40.2720   28.1970   42.9110 N   0  0  0  0  0  0  0  0  0  0  0  0
   41.1330   29.1010   42.4170 C   0  0  0  0  0  0  0  0  0  0  0  0
   40.7260   30.3450   42.0960 N   0  0  0  0  0  0  0  0  0  0  0  0
   39.1120   31.6680   42.0200 H   0  0  0  0  0  0  0  0  0  0  0  0
   37.4970   30.0510   42.9220 H   0  0  0  0  0  0  0  0  0  0  0  0
   42.1810   28.8840   42.2520 H   0  0  0  0  0  0  0  0  0  0  0  0
   37.2750   28.0290   39.9900 O   0  0  0  0  0  0  0  0  0  0  0  0
   35.2050   29.6200   40.5090 O   0  0  0  0  0  0  0  0  0  0  0  0
   36.1210   29.0980   39.3940 P   0  0  2  0  0  0  0  0  0  0  0  0
   35.0880   28.1750   38.3900 O   0  0  0  0  0  0  0  0  0  0  0  0
   35.6780   27.5990   37.8210 H   0  0  0  0  0  0  0  0  0  0  0  0
   36.7810   30.3190   38.4830 O   0  0  0  0  0  0  0  0  0  0  0  0
   37.5910   31.3560   38.9030 C   0  0  0  0  0  0  0  0  0  0  0  0
   38.9440   31.2480   38.5820 C   0  0  0  0  0  0  0  0  0  0  0  0
   39.3290   30.4110   38.0430 H   0  0  0  0  0  0  0  0  0  0  0  0
   39.7550   32.2900   39.0050 C   0  0  0  0  0  3  0  0  0  0  0  0
   39.3160   33.3950   39.7020 C   0  0  0  0  0  0  0  0  0  0  0  0
   39.9780   34.1770   40.0080 H   0  0  0  0  0  0  0  0  0  0  0  0
   37.9560   33.4060   39.9700 C   0  0  0  0  0  0  0  0  0  0  0  0
   37.5470   34.2530   40.5200 H   0  0  0  0  0  0  0  0  0  0  0  0
   37.0850   32.4170   39.5900 C   0  0  0  0  0  3  0  0  0  0  0  0
  1  2  1  0  0  0  0
  1 16  1  0  0  0  0
  2  8  1  0  0  0  0
  2  7  1  0  0  0  0
  3  9  1  0  0  0  0
  3 10  1  0  0  0  0
  3  2  1  0  0  0  0
  4  3  1  0  0  0  0
  5  4  1  0  0  0  0
  5 14  1  0  0  0  0
  5  6  1  0  0  0  0
  6 15  1  6  0  0  0
  6  1  1  0  0  0  0
 11  4  1  0  0  0  0
 12  4  1  0  0  0  0
 13  5  1  0  0  0  0
 16 18  1  0  0  0  0
 16 19  1  0  0  0  0
 17 16  1  0  0  0  0
 19 20  1  0  0  0  0
 19 21  1  0  0  0  0
 22 23  1  0  0  0  0
 23 29  1  0  0  0  0
 23 24  2  0  0  0  0
 24 19  1  0  0  0  0
 25 24  1  0  0  0  0
 26 25  2  0  0  0  0
 27 22  2  0  0  0  0
 27 26  1  0  0  0  0
 28 22  1  0  0  0  0
 30 26  1  0  0  0  0
 31  6  1  0  0  0  0
 33 31  1  0  0  0  0
 33 32  2  1  0  0  0
 34 33  1  0  0  0  0
 35 34  1  0  0  0  0
 36 37  1  0  0  0  0
 36 33  1  0  0  0  0
 37 45  1  0  0  0  0
 38 37  2  0  0  0  0
 38 40  1  0  0  0  0
 39 38  1  0  0  0  0
 40 41  2  0  0  0  0
 41 43  1  0  0  0  0
 41 42  1  0  0  0  0
 43 44  1  0  0  0  0
 45 43  2  0  0  0  0
M  END
>  <minimizedAffinity>
-5.173944

$$$$

 OpenBabel03252509023D

 45 47  0  0  1  0  0  0  0  0999 V2000
   36.2710   28.5710   37.8900 N   0  0  0  0  0  0  0  0  0  0  0  0
   36.2880   27.9350   36.6150 C   0  0  0  0  0  0  0  0  0  0  0  0
   37.1360   26.6980   36.5190 C   0  0  0  0  0  0  0  0  0  0  0  0
   37.2250   25.8970   37.7860 C   0  0  0  0  0  0  0  0  0  0  0  0
   36.3210   26.4590   38.8590 C   0  0  0  0  0  0  0  0  0  0  0  0
   36.8150   27.9440   38.9990 C   0  0  2  0  0  0  0  0  0  0  0  0
   36.5430   28.5720   35.7650 H   0  0  0  0  0  0  0  0  0  0  0  0
   35.2260   27.6090   36.4280 H   0  0  0  0  0  0  0  0  0  0  0  0
   36.6900   26.0290   35.7400 H   0  0  0  0  0  0  0  0  0  0  0  0
   38.1420   26.9540   36.1160 H   0  0  0  0  0  0  0  0  0  0  0  0
   38.2660   26.0110   38.1610 H   0  0  0  0  0  0  0  0  0  0  0  0
   37.0900   24.8070   37.6170 H   0  0  0  0  0  0  0  0  0  0  0  0
   36.5410   25.9960   39.8260 H   0  0  0  0  0  0  0  0  0  0  0  0
   35.2670   26.4470   38.5590 H   0  0  0  0  0  0  0  0  0  0  0  0
   37.9180   27.8810   39.0860 H   0  0  0  0  0  0  0  0  0  0  0  0
   36.2700   30.0020   37.8350 C   0  0  0  0  0  0  0  0  0  0  0  0
   35.5560   30.3080   37.0430 H   0  0  0  0  0  0  0  0  0  0  0  0
   35.9000   30.3830   38.8210 H   0  0  0  0  0  0  0  0  0  0  0  0
   37.6460   30.4790   37.5150 C   0  0  0  0  0  0  0  0  0  0  0  0
   37.6530   31.0290   36.5320 H   0  0  0  0  0  0  0  0  0  0  0  0
   38.4080   29.6990   37.4240 H   0  0  0  0  0  0  0  0  0  0  0  0
   37.5510   33.4660   39.7960 C   0  0  0  0  0  0  0  0  0  0  0  0
   37.1780   32.4980   38.8440 C   0  0  0  0  0  0  0  0  0  0  0  0
   38.0560   31.4920   38.5220 C   0  0  0  0  0  0  0  0  0  0  0  0
   39.2470   31.4840   39.1400 N   0  0  0  0  0  0  0  0  0  0  0  0
   39.6010   32.4080   40.0470 C   0  0  0  0  0  0  0  0  0  0  0  0
   38.7620   33.4060   40.3860 N   0  0  0  0  0  0  0  0  0  0  0  0
   36.8860   34.2680   40.0710 H   0  0  0  0  0  0  0  0  0  0  0  0
   36.1890   32.6010   38.4040 H   0  0  0  0  0  0  0  0  0  0  0  0
   40.5620   32.4010   40.5480 H   0  0  0  0  0  0  0  0  0  0  0  0
   36.1840   28.3390   40.1720 O   0  0  0  0  0  0  0  0  0  0  0  0
   37.0050   30.3180   41.7520 O   0  0  0  0  0  0  0  0  0  0  0  0
   37.2690   28.8610   41.3470 P   0  0  2  0  0  0  0  0  0  0  0  0
   38.8050   28.8990   40.5950 O   0  0  0  0  0  0  0  0  0  0  0  0
   38.8940   28.0460   40.0780 H   0  0  0  0  0  0  0  0  0  0  0  0
   37.3510   27.8390   42.6520 O   0  0  0  0  0  0  0  0  0  0  0  0
   38.0860   26.6770   42.7840 C   0  0  0  0  0  0  0  0  0  0  0  0
   39.2480   26.7680   43.5490 C   0  0  0  0  0  0  0  0  0  0  0  0
   39.5500   27.6840   44.0070 H   0  0  0  0  0  0  0  0  0  0  0  0
   39.9850   25.6000   43.6800 C   0  0  0  0  0  3  0  0  0  0  0  0
   39.6460   24.3900   43.1140 C   0  0  0  0  0  0  0  0  0  0  0  0
   40.2440   23.5130   43.2410 H   0  0  0  0  0  0  0  0  0  0  0  0
   38.4750   24.4070   42.3730 C   0  0  0  0  0  0  0  0  0  0  0  0
   38.1520   23.4790   41.8990 H   0  0  0  0  0  0  0  0  0  0  0  0
   37.6880   25.5160   42.1930 C   0  0  0  0  0  3  0  0  0  0  0  0
  1  6  1  0  0  0  0
  2  1  1  0  0  0  0
  3  2  1  0  0  0  0
  3  4  1  0  0  0  0
  4 11  1  0  0  0  0
  4  5  1  0  0  0  0
  5  6  1  0  0  0  0
  5 13  1  0  0  0  0
  6 15  1  1  0  0  0
  6 31  1  0  0  0  0
  7  2  1  0  0  0  0
  8  2  1  0  0  0  0
  9  3  1  0  0  0  0
 10  3  1  0  0  0  0
 12  4  1  0  0  0  0
 14  5  1  0  0  0  0
 16  1  1  0  0  0  0
 16 18  1  0  0  0  0
 17 16  1  0  0  0  0
 19 16  1  0  0  0  0
 19 24  1  0  0  0  0
 20 19  1  0  0  0  0
 21 19  1  0  0  0  0
 22 28  1  0  0  0  0
 22 27  1  0  0  0  0
 23 22  2  0  0  0  0
 24 23  1  0  0  0  0
 24 25  2  0  0  0  0
 25 26  1  0  0  0  0
 26 27  2  0  0  0  0
 26 30  1  0  0  0  0
 29 23  1  0  0  0  0
 31 33  1  0  0  0  0
 33 32  2  1  0  0  0
 33 36  1  0  0  0  0
 34 33  1  0  0  0  0
 35 34  1  0  0  0  0
 36 37  1  0  0  0  0
 37 38  1  0  0  0  0
 38 40  2  0  0  0  0
 38 39  1  0  0  0  0
 41 42  1  0  0  0  0
 41 40  1  0  0  0  0
 43 41  2  0  0  0  0
 44 43  1  0  0  0  0
 45 43  1  0  0  0  0
 45 37  2  0  0  0  0
M  END
>  <minimizedAffinity>
-5.10424519

$$$$
