
 OpenBabel03252509273D

 30 32  0  0  1  0  0  0  0  0999 V2000
   46.5200   35.0240   42.0070 C   0  0  1  0  0  0  0  0  0  0  0  0
   48.0400   35.3500   41.9380 C   0  0  0  0  0  0  0  0  0  0  0  0
   47.3230   34.1240   41.2910 C   0  0  2  0  0  0  0  0  0  0  0  0
   45.8850   35.7940   41.5230 H   0  0  0  0  0  0  0  0  0  0  0  0
   48.6610   35.1640   42.8160 H   0  0  0  0  0  0  0  0  0  0  0  0
   48.2920   36.1690   41.2490 H   0  0  0  0  0  0  0  0  0  0  0  0
   47.6900   33.1500   41.7400 H   0  0  0  0  0  0  0  0  0  0  0  0
   44.8000   35.0390   45.3430 C   0  0  0  0  0  0  0  0  0  0  0  0
   45.1490   35.4600   44.0150 C   0  0  0  0  0  0  0  0  0  0  0  0
   46.1170   34.7150   43.4290 C   0  0  0  0  0  0  0  0  0  0  0  0
   46.7150   33.6450   44.0580 N   0  0  0  0  0  0  0  0  0  0  0  0
   46.3540   33.2840   45.3100 C   0  0  0  0  0  0  0  0  0  0  0  0
   45.3890   33.9880   45.9550 N   0  0  0  0  0  0  0  0  0  0  0  0
   44.0180   35.6160   45.8520 H   0  0  0  0  0  0  0  0  0  0  0  0
   46.7700   32.4720   45.8570 H   0  0  0  0  0  0  0  0  0  0  0  0
   44.5560   36.5670   43.3880 N   0  0  0  0  0  0  0  0  0  0  0  0
   44.7470   37.3960   44.0260 H   0  0  0  0  0  0  0  0  0  0  0  0
   44.0440   36.5970   42.5030 H   0  0  0  0  0  0  0  0  0  0  0  0
   47.2750   34.0260   39.7850 C   0  0  0  0  0  0  0  0  0  0  0  0
   46.3020   33.5660   39.4670 H   0  0  0  0  0  0  0  0  0  0  0  0
   47.2980   35.0510   39.3780 H   0  0  0  0  0  0  0  0  0  0  0  0
   48.3690   33.1810   39.2310 C   0  0  0  0  0  0  0  0  0  0  0  0
   49.0890   32.3760   40.1120 C   0  0  0  0  0  0  0  0  0  0  0  0
   48.8950   32.3330   41.1770 H   0  0  0  0  0  0  0  0  0  0  0  0
   50.0940   31.6070   39.5600 C   0  0  0  0  0  3  0  0  0  0  0  0
   50.3950   31.6160   38.1980 C   0  0  0  0  0  0  0  0  0  0  0  0
   51.1830   31.0120   37.7660 H   0  0  0  0  0  0  0  0  0  0  0  0
   49.6500   32.4290   37.3850 C   0  0  0  0  0  0  0  0  0  0  0  0
   49.8740   32.4450   36.3250 H   0  0  0  0  0  0  0  0  0  0  0  0
   48.6410   33.2090   37.8980 C   0  0  0  0  0  3  0  0  0  0  0  0
  1  4  1  6  0  0  0
  1 10  1  0  0  0  0
  2  1  1  0  0  0  0
  2  5  1  0  0  0  0
  3  7  1  1  0  0  0
  3  2  1  0  0  0  0
  3  1  1  0  0  0  0
  6  2  1  0  0  0  0
  8 14  1  0  0  0  0
  8 13  1  0  0  0  0
  9  8  2  0  0  0  0
 10  9  1  0  0  0  0
 10 11  2  0  0  0  0
 11 12  1  0  0  0  0
 12 15  1  0  0  0  0
 12 13  2  0  0  0  0
 16  9  1  0  0  0  0
 16 17  1  0  0  0  0
 18 16  1  0  0  0  0
 19  3  1  0  0  0  0
 20 19  1  0  0  0  0
 21 19  1  0  0  0  0
 22 19  1  0  0  0  0
 22 23  1  0  0  0  0
 23 24  1  0  0  0  0
 25 23  2  0  0  0  0
 26 25  1  0  0  0  0
 27 26  1  0  0  0  0
 28 30  1  0  0  0  0
 28 26  2  0  0  0  0
 29 28  1  0  0  0  0
 30 22  2  0  0  0  0
M  END
>  <minimizedAffinity>
-4.88918638

>  <minimizedRMSD>
0.554956734

$$$$
