
 OpenBabel03252509003D

 45 47  0  0  1  0  0  0  0  0999 V2000
   46.6680   31.5970   44.7050 N   0  0  0  0  0  0  0  0  0  0  0  0
   45.4220   31.6200   44.0150 C   0  0  0  0  0  0  0  0  0  0  0  0
   44.7730   30.2820   43.8040 C   0  0  0  0  0  0  0  0  0  0  0  0
   45.0410   29.2750   44.8860 C   0  0  0  0  0  0  0  0  0  0  0  0
   45.8150   29.8890   46.0310 C   0  0  0  0  0  0  0  0  0  0  0  0
   47.1080   30.4410   45.3280 C   0  0  2  0  0  0  0  0  0  0  0  0
   45.4150   32.1410   43.0540 H   0  0  0  0  0  0  0  0  0  0  0  0
   44.7250   32.2130   44.6730 H   0  0  0  0  0  0  0  0  0  0  0  0
   43.6640   30.4330   43.7670 H   0  0  0  0  0  0  0  0  0  0  0  0
   45.0280   29.8860   42.7950 H   0  0  0  0  0  0  0  0  0  0  0  0
   45.7000   28.4990   44.4410 H   0  0  0  0  0  0  0  0  0  0  0  0
   44.1250   28.7350   45.2100 H   0  0  0  0  0  0  0  0  0  0  0  0
   46.1740   29.1100   46.7100 H   0  0  0  0  0  0  0  0  0  0  0  0
   45.2710   30.7140   46.5030 H   0  0  0  0  0  0  0  0  0  0  0  0
   47.4820   29.6080   44.7010 H   0  0  0  0  0  0  0  0  0  0  0  0
   47.6370   32.5250   44.2030 C   0  0  0  0  0  0  0  0  0  0  0  0
   47.1790   33.5350   44.2260 H   0  0  0  0  0  0  0  0  0  0  0  0
   48.5160   32.5120   44.8960 H   0  0  0  0  0  0  0  0  0  0  0  0
   48.0010   32.1450   42.8080 C   0  0  0  0  0  0  0  0  0  0  0  0
   47.1210   31.6730   42.2870 H   0  0  0  0  0  0  0  0  0  0  0  0
   48.8220   31.4260   42.7120 H   0  0  0  0  0  0  0  0  0  0  0  0
   48.1590   34.5970   39.9650 C   0  0  0  0  0  0  0  0  0  0  0  0
   47.8910   33.4380   40.7180 C   0  0  0  0  0  0  0  0  0  0  0  0
   48.2930   33.3750   42.0290 C   0  0  0  0  0  0  0  0  0  0  0  0
   48.9340   34.4400   42.5360 N   0  0  0  0  0  0  0  0  0  0  0  0
   49.1890   35.5440   41.8160 C   0  0  0  0  0  0  0  0  0  0  0  0
   48.8070   35.6380   40.5270 N   0  0  0  0  0  0  0  0  0  0  0  0
   47.8570   34.6790   38.9330 H   0  0  0  0  0  0  0  0  0  0  0  0
   47.3660   32.6350   40.2070 H   0  0  0  0  0  0  0  0  0  0  0  0
   49.7050   36.4040   42.2240 H   0  0  0  0  0  0  0  0  0  0  0  0
   47.9190   30.7250   46.4210 O   0  0  0  0  0  0  0  0  0  0  0  0
   45.6030   31.2160   47.6370 O   0  0  0  0  0  0  0  0  0  0  0  0
   47.1020   31.5490   47.6380 P   0  0  2  0  0  0  0  0  0  0  0  0
   47.1720   33.2070   47.2230 O   0  0  0  0  0  0  0  0  0  0  0  0
   48.1140   33.3950   46.9430 H   0  0  0  0  0  0  0  0  0  0  0  0
   47.7990   31.3540   49.1320 O   0  0  0  0  0  0  0  0  0  0  0  0
   49.1200   31.0810   49.4290 C   0  0  0  0  0  0  0  0  0  0  0  0
   49.4730   29.7330   49.4810 C   0  0  0  0  0  0  0  0  0  0  0  0
   48.7610   28.9580   49.2990 H   0  0  0  0  0  0  0  0  0  0  0  0
   50.7990   29.4610   49.7800 C   0  0  0  0  0  0  0  0  0  0  0  0
   51.7620   30.4170   50.0230 C   0  0  0  0  0  0  0  0  0  0  0  0
   52.7750   30.1620   50.2500 H   0  0  0  0  0  0  0  0  0  0  0  0
   51.3090   31.7250   49.9480 C   0  0  0  0  0  0  0  0  0  0  0  0
   52.0230   32.5280   50.1300 H   0  0  0  0  0  0  0  0  0  0  0  0
   50.0160   32.0810   49.6590 C   0  0  0  0  0  0  0  0  0  0  0  0
  1  6  1  0  0  0  0
  2  8  1  0  0  0  0
  2  1  1  0  0  0  0
  3  2  1  0  0  0  0
  3  4  1  0  0  0  0
  4 12  1  0  0  0  0
  4  5  1  0  0  0  0
  5 14  1  0  0  0  0
  5 13  1  0  0  0  0
  6 15  1  6  0  0  0
  6  5  1  0  0  0  0
  6 31  1  0  0  0  0
  7  2  1  0  0  0  0
  9  3  1  0  0  0  0
 10  3  1  0  0  0  0
 11  4  1  0  0  0  0
 16 17  1  0  0  0  0
 16  1  1  0  0  0  0
 16 18  1  0  0  0  0
 19 16  1  0  0  0  0
 20 19  1  0  0  0  0
 21 19  1  0  0  0  0
 22 27  2  0  0  0  0
 22 23  1  0  0  0  0
 23 24  2  0  0  0  0
 24 25  1  0  0  0  0
 24 19  1  0  0  0  0
 26 30  1  0  0  0  0
 26 25  2  0  0  0  0
 27 26  1  0  0  0  0
 28 22  1  0  0  0  0
 29 23  1  0  0  0  0
 31 33  1  0  0  0  0
 33 32  2  1  0  0  0
 33 36  1  0  0  0  0
 34 33  1  0  0  0  0
 35 34  1  0  0  0  0
 36 37  1  0  0  0  0
 37 38  2  0  0  0  0
 37 45  1  0  0  0  0
 38 40  1  0  0  0  0
 39 38  1  0  0  0  0
 40 41  2  0  0  0  0
 41 42  1  0  0  0  0
 43 41  1  0  0  0  0
 43 44  1  0  0  0  0
 45 43  2  0  0  0  0
M  END
>  <minimizedAffinity>
-4.66343737

>  <minimizedRMSD>
3.55874467

$$$$
