
 OpenBabel03252505003D

 37 39  0  0  1  0  0  0  0  0999 V2000
   39.3970   32.8210   39.6530 N   0  0  0  0  0  0  0  0  0  0  0  0
   38.8630   34.0810   40.0150 C   0  0  0  0  0  0  0  0  0  0  0  0
   37.4390   33.9420   39.6480 C   0  0  0  0  0  0  0  0  0  0  0  0
   37.2050   32.5380   39.1220 C   0  0  0  0  0  0  0  0  0  0  0  0
   38.4340   31.7980   39.6700 C   0  0  2  0  0  0  0  0  0  0  0  0
   39.1540   35.0080   40.4320 H   0  0  0  0  0  0  0  0  0  0  0  0
   36.6200   34.6320   39.7270 H   0  0  0  0  0  0  0  0  0  0  0  0
   37.1580   32.5190   38.0250 H   0  0  0  0  0  0  0  0  0  0  0  0
   36.2950   32.1610   39.6140 H   0  0  0  0  0  0  0  0  0  0  0  0
   38.7130   30.9240   39.0880 H   0  0  0  0  0  0  0  0  0  0  0  0
   40.7210   32.7170   39.3020 C   0  0  0  0  0  0  0  0  0  0  0  0
   40.9070   33.4460   38.4750 H   0  0  0  0  0  0  0  0  0  0  0  0
   41.0060   31.7510   38.8200 H   0  0  0  0  0  0  0  0  0  0  0  0
   43.3140   34.1200   41.6790 C   0  0  0  0  0  0  0  0  0  0  0  0
   42.4450   34.0450   40.5560 C   0  0  0  0  0  0  0  0  0  0  0  0
   41.6650   32.9060   40.3840 C   0  0  0  0  0  0  0  0  0  0  0  0
   41.7850   31.9290   41.3100 N   0  0  0  0  0  0  0  0  0  0  0  0
   42.6320   32.0120   42.3950 C   0  0  0  0  0  0  0  0  0  0  0  0
   43.3870   33.0970   42.5750 N   0  0  0  0  0  0  0  0  0  0  0  0
   43.9210   35.0050   41.8110 H   0  0  0  0  0  0  0  0  0  0  0  0
   42.3750   34.8470   39.8340 H   0  0  0  0  0  0  0  0  0  0  0  0
   42.6140   31.1460   43.0460 H   0  0  0  0  0  0  0  0  0  0  0  0
   38.1550   31.5370   41.0200 O   0  0  0  0  0  0  0  0  0  0  0  0
   37.2630   29.1670   40.2180 O   0  0  0  0  0  0  0  0  0  0  0  0
   37.1600   30.2370   41.2770 P   0  0  2  0  0  0  0  0  0  0  0  0
   35.5570   30.7870   41.2810 O   0  0  0  0  0  0  0  0  0  0  0  0
   34.9640   30.2210   40.7420 H   0  0  0  0  0  0  0  0  0  0  0  0
   37.4220   29.5590   42.8310 O   0  0  0  0  0  0  0  0  0  0  0  0
   38.5950   28.8040   42.9900 C   0  0  0  0  0  0  0  0  0  0  0  0
   39.8500   29.2350   42.6180 C   0  0  0  0  0  0  0  0  0  0  0  0
   39.9350   30.2210   42.1740 H   0  0  0  0  0  0  0  0  0  0  0  0
   40.9150   28.3630   42.8450 C   0  0  0  0  0  3  0  0  0  0  0  0
   40.6700   27.1330   43.4190 C   0  0  0  0  0  0  0  0  0  0  0  0
   41.4990   26.4430   43.6000 H   0  0  0  0  0  0  0  0  0  0  0  0
   39.4120   26.7020   43.7910 C   0  0  0  0  0  0  0  0  0  0  0  0
   39.2450   25.7320   44.2410 H   0  0  0  0  0  0  0  0  0  0  0  0
   38.3470   27.5760   43.5650 C   0  0  0  0  0  3  0  0  0  0  0  0
  1  5  1  0  0  0  0
  1  2  1  0  0  0  0
  2  6  1  0  0  0  0
  3  7  1  0  0  0  0
  3  2  2  0  0  0  0
  4  9  1  0  0  0  0
  4  3  1  0  0  0  0
  4  5  1  0  0  0  0
  5 10  1  6  0  0  0
  5 23  1  0  0  0  0
  8  4  1  0  0  0  0
 11  1  1  0  0  0  0
 11 16  1  0  0  0  0
 12 11  1  0  0  0  0
 13 11  1  0  0  0  0
 14 20  1  0  0  0  0
 14 19  1  0  0  0  0
 15 14  2  0  0  0  0
 16 15  1  0  0  0  0
 16 17  2  0  0  0  0
 17 18  1  0  0  0  0
 18 19  2  0  0  0  0
 18 22  1  0  0  0  0
 21 15  1  0  0  0  0
 23 25  1  0  0  0  0
 25 24  2  6  0  0  0
 25 26  1  0  0  0  0
 25 28  1  0  0  0  0
 27 26  1  0  0  0  0
 28 29  1  0  0  0  0
 29 37  1  0  0  0  0
 30 32  1  0  0  0  0
 30 29  2  0  0  0  0
 31 30  1  0  0  0  0
 32 33  2  0  0  0  0
 33 34  1  0  0  0  0
 33 35  1  0  0  0  0
 35 36  1  0  0  0  0
 37 35  2  0  0  0  0
M  END
>  <minimizedAffinity>
-5.83178663

$$$$

 OpenBabel03252505003D

 37 39  0  0  1  0  0  0  0  0999 V2000
   39.3430   32.6290   40.4080 N   0  0  0  0  0  0  0  0  0  0  0  0
   38.8390   33.9360   40.6130 C   0  0  0  0  0  0  0  0  0  0  0  0
   37.6560   33.9650   39.7300 C   0  0  0  0  0  0  0  0  0  0  0  0
   37.5020   32.6040   39.0760 C   0  0  0  0  0  0  0  0  0  0  0  0
   38.3490   31.7210   40.0030 C   0  0  2  0  0  0  0  0  0  0  0  0
   39.0410   34.8180   41.1610 H   0  0  0  0  0  0  0  0  0  0  0  0
   36.9420   34.7420   39.5340 H   0  0  0  0  0  0  0  0  0  0  0  0
   37.8740   32.6060   38.0430 H   0  0  0  0  0  0  0  0  0  0  0  0
   36.4410   32.3260   39.1680 H   0  0  0  0  0  0  0  0  0  0  0  0
   38.7410   30.8300   39.5210 H   0  0  0  0  0  0  0  0  0  0  0  0
   40.6830   32.3810   40.5770 C   0  0  0  0  0  0  0  0  0  0  0  0
   40.8100   31.2740   40.6730 H   0  0  0  0  0  0  0  0  0  0  0  0
   41.1120   32.7430   41.5420 H   0  0  0  0  0  0  0  0  0  0  0  0
   42.1650   33.4930   37.2730 C   0  0  0  0  0  0  0  0  0  0  0  0
   41.2430   32.9100   38.1860 C   0  0  0  0  0  0  0  0  0  0  0  0
   41.5470   32.9140   39.5430 C   0  0  0  0  0  0  0  0  0  0  0  0
   42.7170   33.4810   39.9130 N   0  0  0  0  0  0  0  0  0  0  0  0
   43.6040   34.0440   39.0190 C   0  0  0  0  0  0  0  0  0  0  0  0
   43.3280   34.0480   37.7140 N   0  0  0  0  0  0  0  0  0  0  0  0
   41.9280   33.4890   36.2180 H   0  0  0  0  0  0  0  0  0  0  0  0
   40.3150   32.4650   37.8540 H   0  0  0  0  0  0  0  0  0  0  0  0
   44.4970   34.4560   39.4720 H   0  0  0  0  0  0  0  0  0  0  0  0
   37.5530   31.4740   41.1320 O   0  0  0  0  0  0  0  0  0  0  0  0
   37.4860   29.0030   40.1620 O   0  0  0  0  0  0  0  0  0  0  0  0
   36.9590   29.9310   41.2290 P   0  0  2  0  0  0  0  0  0  0  0  0
   35.2750   29.9960   41.0510 O   0  0  0  0  0  0  0  0  0  0  0  0
   34.9360   29.3190   40.4280 H   0  0  0  0  0  0  0  0  0  0  0  0
   37.2360   29.2610   42.7840 O   0  0  0  0  0  0  0  0  0  0  0  0
   38.4910   28.6680   42.9910 C   0  0  0  0  0  0  0  0  0  0  0  0
   39.6900   29.2510   42.6410 C   0  0  0  0  0  0  0  0  0  0  0  0
   39.6600   30.2300   42.1760 H   0  0  0  0  0  0  0  0  0  0  0  0
   40.8530   28.5300   42.9160 C   0  0  0  0  0  3  0  0  0  0  0  0
   40.7520   27.2900   43.5130 C   0  0  0  0  0  0  0  0  0  0  0  0
   41.6590   26.7180   43.7320 H   0  0  0  0  0  0  0  0  0  0  0  0
   39.5510   26.7070   43.8630 C   0  0  0  0  0  0  0  0  0  0  0  0
   39.4980   25.7330   44.3320 H   0  0  0  0  0  0  0  0  0  0  0  0
   38.3890   27.4300   43.5890 C   0  0  0  0  0  3  0  0  0  0  0  0
  1 11  1  0  0  0  0
  1  2  1  0  0  0  0
  2  6  1  0  0  0  0
  3  2  2  0  0  0  0
  4  9  1  0  0  0  0
  4  3  1  0  0  0  0
  4  5  1  0  0  0  0
  5 10  1  6  0  0  0
  5  1  1  0  0  0  0
  5 23  1  0  0  0  0
  7  3  1  0  0  0  0
  8  4  1  0  0  0  0
 11 12  1  0  0  0  0
 11 13  1  0  0  0  0
 14 19  2  0  0  0  0
 14 15  1  0  0  0  0
 15 16  2  0  0  0  0
 16 17  1  0  0  0  0
 16 11  1  0  0  0  0
 18 22  1  0  0  0  0
 18 17  2  0  0  0  0
 19 18  1  0  0  0  0
 20 14  1  0  0  0  0
 21 15  1  0  0  0  0
 23 25  1  0  0  0  0
 25 24  2  6  0  0  0
 25 28  1  0  0  0  0
 26 25  1  0  0  0  0
 27 26  1  0  0  0  0
 28 29  1  0  0  0  0
 29 37  1  0  0  0  0
 30 32  1  0  0  0  0
 30 29  2  0  0  0  0
 31 30  1  0  0  0  0
 32 33  2  0  0  0  0
 33 34  1  0  0  0  0
 33 35  1  0  0  0  0
 35 36  1  0  0  0  0
 37 35  2  0  0  0  0
M  END
>  <minimizedAffinity>
-5.72966766

$$$$

 OpenBabel03252505003D

 37 39  0  0  1  0  0  0  0  0999 V2000
   39.0080   32.0420   40.2800 N   0  0  0  0  0  0  0  0  0  0  0  0
   38.3140   33.2700   40.1730 C   0  0  0  0  0  0  0  0  0  0  0  0
   37.1630   32.9140   39.3190 C   0  0  0  0  0  0  0  0  0  0  0  0
   37.2270   31.4300   39.0080 C   0  0  0  0  0  0  0  0  0  0  0  0
   38.1690   30.9270   40.1110 C   0  0  2  0  0  0  0  0  0  0  0  0
   38.3690   34.2770   40.4950 H   0  0  0  0  0  0  0  0  0  0  0  0
   36.3480   33.5090   38.9510 H   0  0  0  0  0  0  0  0  0  0  0  0
   37.6220   31.2440   38.0010 H   0  0  0  0  0  0  0  0  0  0  0  0
   36.2160   31.0270   39.1720 H   0  0  0  0  0  0  0  0  0  0  0  0
   38.6990   30.0150   39.8500 H   0  0  0  0  0  0  0  0  0  0  0  0
   40.3660   32.0420   40.4910 C   0  0  0  0  0  0  0  0  0  0  0  0
   40.6830   30.9790   40.6320 H   0  0  0  0  0  0  0  0  0  0  0  0
   40.6940   32.5060   41.4510 H   0  0  0  0  0  0  0  0  0  0  0  0
   42.7210   34.3080   38.5780 C   0  0  0  0  0  0  0  0  0  0  0  0
   41.9760   33.7860   39.6710 C   0  0  0  0  0  0  0  0  0  0  0  0
   41.1520   32.6860   39.4590 C   0  0  0  0  0  0  0  0  0  0  0  0
   41.1130   32.1750   38.2080 N   0  0  0  0  0  0  0  0  0  0  0  0
   41.8400   32.6880   37.1550 C   0  0  0  0  0  0  0  0  0  0  0  0
   42.6350   33.7440   37.3410 N   0  0  0  0  0  0  0  0  0  0  0  0
   43.3610   35.1650   38.7430 H   0  0  0  0  0  0  0  0  0  0  0  0
   42.0320   34.2210   40.6590 H   0  0  0  0  0  0  0  0  0  0  0  0
   41.7000   32.1680   36.2160 H   0  0  0  0  0  0  0  0  0  0  0  0
   37.3880   30.8380   41.2730 O   0  0  0  0  0  0  0  0  0  0  0  0
   35.4760   29.0050   41.0760 O   0  0  0  0  0  0  0  0  0  0  0  0
   36.8490   29.3110   41.6220 P   0  0  2  0  0  0  0  0  0  0  0  0
   36.7660   29.1480   43.3080 O   0  0  0  0  0  0  0  0  0  0  0  0
   35.9270   28.7350   43.6050 H   0  0  0  0  0  0  0  0  0  0  0  0
   37.9720   28.1250   41.0970 O   0  0  0  0  0  0  0  0  0  0  0  0
   37.5270   26.7950   41.1180 C   0  0  0  0  0  0  0  0  0  0  0  0
   37.4260   26.0300   42.2590 C   0  0  0  0  0  0  0  0  0  0  0  0
   37.7090   26.4860   43.2010 H   0  0  0  0  0  0  0  0  0  0  0  0
   36.9640   24.7210   42.1100 C   0  0  0  0  0  3  0  0  0  0  0  0
   36.6360   24.2620   40.8510 C   0  0  0  0  0  0  0  0  0  0  0  0
   36.2730   23.2370   40.7250 H   0  0  0  0  0  0  0  0  0  0  0  0
   36.7370   25.0290   39.7080 C   0  0  0  0  0  0  0  0  0  0  0  0
   36.4730   24.6460   38.7310 H   0  0  0  0  0  0  0  0  0  0  0  0
   37.1990   26.3380   39.8590 C   0  0  0  0  0  3  0  0  0  0  0  0
  1 11  1  0  0  0  0
  2  1  1  0  0  0  0
  2  6  1  0  0  0  0
  3  2  2  0  0  0  0
  4  9  1  0  0  0  0
  4  3  1  0  0  0  0
  4  5  1  0  0  0  0
  5 10  1  6  0  0  0
  5  1  1  0  0  0  0
  5 23  1  0  0  0  0
  7  3  1  0  0  0  0
  8  4  1  0  0  0  0
 11 12  1  0  0  0  0
 11 13  1  0  0  0  0
 14 20  1  0  0  0  0
 14 15  1  0  0  0  0
 15 21  1  0  0  0  0
 16 15  2  0  0  0  0
 16 11  1  0  0  0  0
 17 16  1  0  0  0  0
 18 19  1  0  0  0  0
 18 17  2  0  0  0  0
 19 14  2  0  0  0  0
 22 18  1  0  0  0  0
 23 25  1  0  0  0  0
 25 24  2  6  0  0  0
 25 26  1  0  0  0  0
 26 27  1  0  0  0  0
 28 29  1  0  0  0  0
 28 25  1  0  0  0  0
 29 30  1  0  0  0  0
 30 31  1  0  0  0  0
 32 30  2  0  0  0  0
 33 32  1  0  0  0  0
 34 33  1  0  0  0  0
 35 37  1  0  0  0  0
 35 33  2  0  0  0  0
 36 35  1  0  0  0  0
 37 29  2  0  0  0  0
M  END
>  <minimizedAffinity>
-5.51289272

$$$$

 OpenBabel03252505003D

 37 39  0  0  1  0  0  0  0  0999 V2000
   38.8650   29.4990   42.7050 N   0  0  0  0  0  0  0  0  0  0  0  0
   39.5510   28.2650   42.8010 C   0  0  0  0  0  0  0  0  0  0  0  0
   38.5560   27.3960   43.4620 C   0  0  0  0  0  0  0  0  0  0  0  0
   37.2800   28.1890   43.6740 C   0  0  0  0  0  0  0  0  0  0  0  0
   37.4680   29.3430   42.6780 C   0  0  2  0  0  0  0  0  0  0  0  0
   40.4810   27.8210   42.5620 H   0  0  0  0  0  0  0  0  0  0  0  0
   38.6070   26.3650   43.7560 H   0  0  0  0  0  0  0  0  0  0  0  0
   37.1880   28.5400   44.7100 H   0  0  0  0  0  0  0  0  0  0  0  0
   36.4490   27.5470   43.3440 H   0  0  0  0  0  0  0  0  0  0  0  0
   36.9220   30.2430   42.9440 H   0  0  0  0  0  0  0  0  0  0  0  0
   39.5750   30.6750   42.6840 C   0  0  0  0  0  0  0  0  0  0  0  0
   40.6110   30.4480   43.0370 H   0  0  0  0  0  0  0  0  0  0  0  0
   39.2440   31.4390   43.4270 H   0  0  0  0  0  0  0  0  0  0  0  0
   40.2470   31.6810   39.0950 C   0  0  0  0  0  0  0  0  0  0  0  0
   40.3300   30.9340   40.3020 C   0  0  0  0  0  0  0  0  0  0  0  0
   39.6010   31.3590   41.4080 C   0  0  0  0  0  0  0  0  0  0  0  0
   38.8490   32.4730   41.2600 N   0  0  0  0  0  0  0  0  0  0  0  0
   38.7760   33.1900   40.0850 C   0  0  0  0  0  0  0  0  0  0  0  0
   39.4680   32.7960   39.0150 N   0  0  0  0  0  0  0  0  0  0  0  0
   40.8150   31.3500   38.2360 H   0  0  0  0  0  0  0  0  0  0  0  0
   40.9420   30.0470   40.3830 H   0  0  0  0  0  0  0  0  0  0  0  0
   38.1300   34.0590   40.1280 H   0  0  0  0  0  0  0  0  0  0  0  0
   37.1510   28.8170   41.4160 O   0  0  0  0  0  0  0  0  0  0  0  0
   36.9330   30.3260   39.2410 O   0  0  0  0  0  0  0  0  0  0  0  0
   36.2240   29.8130   40.4710 P   0  0  2  0  0  0  0  0  0  0  0  0
   35.7820   31.1640   41.3950 O   0  0  0  0  0  0  0  0  0  0  0  0
   35.9030   32.0080   40.9090 H   0  0  0  0  0  0  0  0  0  0  0  0
   34.7520   29.0500   40.0300 O   0  0  0  0  0  0  0  0  0  0  0  0
   34.7370   28.4000   38.7870 C   0  0  0  0  0  0  0  0  0  0  0  0
   35.5800   27.3660   38.4430 C   0  0  0  0  0  0  0  0  0  0  0  0
   36.3000   27.0330   39.1820 H   0  0  0  0  0  0  0  0  0  0  0  0
   35.4360   26.8260   37.1640 C   0  0  0  0  0  3  0  0  0  0  0  0
   34.4770   27.3430   36.3180 C   0  0  0  0  0  0  0  0  0  0  0  0
   34.3580   26.9260   35.3130 H   0  0  0  0  0  0  0  0  0  0  0  0
   33.6330   28.3800   36.6630 C   0  0  0  0  0  0  0  0  0  0  0  0
   32.8880   28.7670   35.9810 H   0  0  0  0  0  0  0  0  0  0  0  0
   33.7770   28.9180   37.9430 C   0  0  0  0  0  3  0  0  0  0  0  0
  1  2  1  0  0  0  0
  2  3  2  0  0  0  0
  3  4  1  0  0  0  0
  3  7  1  0  0  0  0
  4  8  1  0  0  0  0
  5  1  1  0  0  0  0
  5 10  1  1  0  0  0
  5  4  1  0  0  0  0
  6  2  1  0  0  0  0
  9  4  1  0  0  0  0
 11  1  1  0  0  0  0
 11 12  1  0  0  0  0
 11 13  1  0  0  0  0
 14 15  1  0  0  0  0
 15 21  1  0  0  0  0
 15 16  2  0  0  0  0
 16 11  1  0  0  0  0
 17 16  1  0  0  0  0
 18 22  1  0  0  0  0
 18 17  2  0  0  0  0
 19 14  2  0  0  0  0
 19 18  1  0  0  0  0
 20 14  1  0  0  0  0
 23  5  1  0  0  0  0
 25 24  2  6  0  0  0
 25 26  1  0  0  0  0
 25 23  1  0  0  0  0
 27 26  1  0  0  0  0
 28 25  1  0  0  0  0
 29 28  1  0  0  0  0
 30 29  1  0  0  0  0
 30 31  1  0  0  0  0
 32 30  2  0  0  0  0
 33 35  2  0  0  0  0
 33 32  1  0  0  0  0
 34 33  1  0  0  0  0
 35 37  1  0  0  0  0
 36 35  1  0  0  0  0
 37 29  2  0  0  0  0
M  END
>  <minimizedAffinity>
-5.38595057

$$$$

 OpenBabel03252505003D

 37 39  0  0  1  0  0  0  0  0999 V2000
   39.4220   30.6240   39.5650 N   0  0  0  0  0  0  0  0  0  0  0  0
   40.5690   29.8270   39.7940 C   0  0  0  0  0  0  0  0  0  0  0  0
   40.5750   29.6890   41.2640 C   0  0  0  0  0  0  0  0  0  0  0  0
   39.3570   30.3980   41.8260 C   0  0  0  0  0  0  0  0  0  0  0  0
   38.4610   30.4970   40.5830 C   0  0  2  0  0  0  0  0  0  0  0  0
   41.3520   29.3440   39.2710 H   0  0  0  0  0  0  0  0  0  0  0  0
   41.2530   29.1760   41.9210 H   0  0  0  0  0  0  0  0  0  0  0  0
   39.6140   31.3820   42.2370 H   0  0  0  0  0  0  0  0  0  0  0  0
   38.9010   29.7130   42.5580 H   0  0  0  0  0  0  0  0  0  0  0  0
   37.7510   31.3190   40.6200 H   0  0  0  0  0  0  0  0  0  0  0  0
   39.3630   31.4320   38.4560 C   0  0  0  0  0  0  0  0  0  0  0  0
   38.3150   31.8120   38.3730 H   0  0  0  0  0  0  0  0  0  0  0  0
   39.4910   30.9050   37.4810 H   0  0  0  0  0  0  0  0  0  0  0  0
   41.3740   34.5360   39.2720 C   0  0  0  0  0  0  0  0  0  0  0  0
   40.3720   33.5340   39.3910 C   0  0  0  0  0  0  0  0  0  0  0  0
   40.3130   32.5250   38.4350 C   0  0  0  0  0  0  0  0  0  0  0  0
   41.2270   32.5630   37.4400 N   0  0  0  0  0  0  0  0  0  0  0  0
   42.1950   33.5400   37.3340 C   0  0  0  0  0  0  0  0  0  0  0  0
   42.2650   34.5140   38.2420 N   0  0  0  0  0  0  0  0  0  0  0  0
   41.4190   35.3210   40.0150 H   0  0  0  0  0  0  0  0  0  0  0  0
   39.6570   33.5360   40.2020 H   0  0  0  0  0  0  0  0  0  0  0  0
   42.8510   33.4310   36.4800 H   0  0  0  0  0  0  0  0  0  0  0  0
   37.8810   29.2290   40.4250 O   0  0  0  0  0  0  0  0  0  0  0  0
   35.3380   28.6760   39.8940 O   0  0  0  0  0  0  0  0  0  0  0  0
   36.3150   29.1200   40.9550 P   0  0  2  0  0  0  0  0  0  0  0  0
   35.8230   30.6550   41.4810 O   0  0  0  0  0  0  0  0  0  0  0  0
   34.9340   30.9000   41.1460 H   0  0  0  0  0  0  0  0  0  0  0  0
   36.1990   28.1000   42.3300 O   0  0  0  0  0  0  0  0  0  0  0  0
   37.3350   27.3330   42.6310 C   0  0  0  0  0  0  0  0  0  0  0  0
   38.2290   27.6340   43.6350 C   0  0  0  0  0  0  0  0  0  0  0  0
   38.0420   28.5220   44.2300 H   0  0  0  0  0  0  0  0  0  0  0  0
   39.3090   26.7680   43.8070 C   0  0  0  0  0  3  0  0  0  0  0  0
   39.4320   25.6700   42.9800 C   0  0  0  0  0  0  0  0  0  0  0  0
   40.2760   24.9860   43.1080 H   0  0  0  0  0  0  0  0  0  0  0  0
   38.5350   25.3690   41.9750 C   0  0  0  0  0  0  0  0  0  0  0  0
   38.6530   24.5010   41.3390 H   0  0  0  0  0  0  0  0  0  0  0  0
   37.4550   26.2360   41.8050 C   0  0  0  0  0  3  0  0  0  0  0  0
  1  2  1  0  0  0  0
  1  5  1  0  0  0  0
  2  3  2  0  0  0  0
  3  4  1  0  0  0  0
  3  7  1  0  0  0  0
  4  8  1  0  0  0  0
  4  9  1  0  0  0  0
  5 10  1  1  0  0  0
  5  4  1  0  0  0  0
  6  2  1  0  0  0  0
 11  1  1  0  0  0  0
 12 11  1  0  0  0  0
 13 11  1  0  0  0  0
 14 15  1  0  0  0  0
 14 20  1  0  0  0  0
 15 21  1  0  0  0  0
 16 11  1  0  0  0  0
 16 15  2  0  0  0  0
 17 16  1  0  0  0  0
 18 17  2  0  0  0  0
 18 19  1  0  0  0  0
 19 14  2  0  0  0  0
 22 18  1  0  0  0  0
 23  5  1  0  0  0  0
 23 25  1  0  0  0  0
 25 24  2  6  0  0  0
 25 26  1  0  0  0  0
 25 28  1  0  0  0  0
 27 26  1  0  0  0  0
 28 29  1  0  0  0  0
 29 30  1  0  0  0  0
 30 32  2  0  0  0  0
 30 31  1  0  0  0  0
 33 34  1  0  0  0  0
 33 32  1  0  0  0  0
 35 33  2  0  0  0  0
 36 35  1  0  0  0  0
 37 35  1  0  0  0  0
 37 29  2  0  0  0  0
M  END
>  <minimizedAffinity>
-5.38272905

$$$$

 OpenBabel03252505003D

 37 39  0  0  1  0  0  0  0  0999 V2000
   38.9680   32.0380   40.3480 N   0  0  0  0  0  0  0  0  0  0  0  0
   38.2610   33.2630   40.3710 C   0  0  0  0  0  0  0  0  0  0  0  0
   37.1040   32.9810   39.4970 C   0  0  0  0  0  0  0  0  0  0  0  0
   37.1790   31.5370   39.0390 C   0  0  0  0  0  0  0  0  0  0  0  0
   38.1390   30.9360   40.0760 C   0  0  2  0  0  0  0  0  0  0  0  0
   38.3100   34.2340   40.7900 H   0  0  0  0  0  0  0  0  0  0  0  0
   36.2790   33.6000   39.1980 H   0  0  0  0  0  0  0  0  0  0  0  0
   37.5650   31.4560   38.0140 H   0  0  0  0  0  0  0  0  0  0  0  0
   36.1740   31.1080   39.1730 H   0  0  0  0  0  0  0  0  0  0  0  0
   38.6760   30.0610   39.7210 H   0  0  0  0  0  0  0  0  0  0  0  0
   40.3280   32.0320   40.5430 C   0  0  0  0  0  0  0  0  0  0  0  0
   40.6400   30.9710   40.7030 H   0  0  0  0  0  0  0  0  0  0  0  0
   40.6700   32.5130   41.4910 H   0  0  0  0  0  0  0  0  0  0  0  0
   42.6570   34.2590   38.5530 C   0  0  0  0  0  0  0  0  0  0  0  0
   41.9180   33.7670   39.6640 C   0  0  0  0  0  0  0  0  0  0  0  0
   41.1080   32.6490   39.4900 C   0  0  0  0  0  0  0  0  0  0  0  0
   41.0770   32.0950   38.2580 N   0  0  0  0  0  0  0  0  0  0  0  0
   41.7980   32.5800   37.1880 C   0  0  0  0  0  0  0  0  0  0  0  0
   42.5800   33.6510   37.3370 N   0  0  0  0  0  0  0  0  0  0  0  0
   43.2870   35.1290   38.6890 H   0  0  0  0  0  0  0  0  0  0  0  0
   41.9680   34.2370   40.6360 H   0  0  0  0  0  0  0  0  0  0  0  0
   41.6650   32.0250   36.2670 H   0  0  0  0  0  0  0  0  0  0  0  0
   37.3720   30.7230   41.2320 O   0  0  0  0  0  0  0  0  0  0  0  0
   36.8410   28.1230   41.3360 O   0  0  0  0  0  0  0  0  0  0  0  0
   37.6200   29.2560   41.9600 P   0  0  2  0  0  0  0  0  0  0  0  0
   37.1270   29.3740   43.5770 O   0  0  0  0  0  0  0  0  0  0  0  0
   36.5770   28.6120   43.8600 H   0  0  0  0  0  0  0  0  0  0  0  0
   39.2900   28.8680   42.0110 O   0  0  0  0  0  0  0  0  0  0  0  0
   39.6100   27.5420   42.3410 C   0  0  0  0  0  0  0  0  0  0  0  0
   39.6120   27.0420   43.6250 C   0  0  0  0  0  0  0  0  0  0  0  0
   39.3500   27.7180   44.4310 H   0  0  0  0  0  0  0  0  0  0  0  0
   39.9530   25.6990   43.7850 C   0  0  0  0  0  3  0  0  0  0  0  0
   40.2670   24.9450   42.6720 C   0  0  0  0  0  0  0  0  0  0  0  0
   40.5360   23.8910   42.7880 H   0  0  0  0  0  0  0  0  0  0  0  0
   40.2650   25.4470   41.3860 C   0  0  0  0  0  0  0  0  0  0  0  0
   40.5140   24.8360   40.5280 H   0  0  0  0  0  0  0  0  0  0  0  0
   39.9220   26.7910   41.2280 C   0  0  0  0  0  3  0  0  0  0  0  0
  1  2  1  0  0  0  0
  1 11  1  0  0  0  0
  2  6  1  0  0  0  0
  3  2  2  0  0  0  0
  4  9  1  0  0  0  0
  4  3  1  0  0  0  0
  4  5  1  0  0  0  0
  5 10  1  6  0  0  0
  5  1  1  0  0  0  0
  5 23  1  0  0  0  0
  7  3  1  0  0  0  0
  8  4  1  0  0  0  0
 11 12  1  0  0  0  0
 11 13  1  0  0  0  0
 14 20  1  0  0  0  0
 14 15  1  0  0  0  0
 15 21  1  0  0  0  0
 16 15  2  0  0  0  0
 16 11  1  0  0  0  0
 17 16  1  0  0  0  0
 18 19  1  0  0  0  0
 18 17  2  0  0  0  0
 19 14  2  0  0  0  0
 22 18  1  0  0  0  0
 23 25  1  0  0  0  0
 25 24  2  6  0  0  0
 25 28  1  0  0  0  0
 25 26  1  0  0  0  0
 26 27  1  0  0  0  0
 28 29  1  0  0  0  0
 29 30  1  0  0  0  0
 30 32  2  0  0  0  0
 30 31  1  0  0  0  0
 33 34  1  0  0  0  0
 33 32  1  0  0  0  0
 35 33  2  0  0  0  0
 36 35  1  0  0  0  0
 37 35  1  0  0  0  0
 37 29  2  0  0  0  0
M  END
>  <minimizedAffinity>
-5.27273369

$$$$

 OpenBabel03252505003D

 37 39  0  0  1  0  0  0  0  0999 V2000
   38.6310   29.5880   38.5600 N   0  0  0  0  0  0  0  0  0  0  0  0
   39.1760   28.5070   37.8270 C   0  0  0  0  0  0  0  0  0  0  0  0
   39.9380   27.7740   38.8580 C   0  0  0  0  0  0  0  0  0  0  0  0
   39.7440   28.4670   40.1940 C   0  0  0  0  0  0  0  0  0  0  0  0
   38.4800   29.2970   39.9270 C   0  0  2  0  0  0  0  0  0  0  0  0
   39.1970   28.1040   36.8490 H   0  0  0  0  0  0  0  0  0  0  0  0
   40.5310   26.8810   38.7940 H   0  0  0  0  0  0  0  0  0  0  0  0
   40.6080   29.0910   40.4560 H   0  0  0  0  0  0  0  0  0  0  0  0
   39.5210   27.6800   40.9310 H   0  0  0  0  0  0  0  0  0  0  0  0
   38.3950   30.1780   40.5550 H   0  0  0  0  0  0  0  0  0  0  0  0
   38.3460   30.7700   37.9210 C   0  0  0  0  0  0  0  0  0  0  0  0
   37.2820   30.7220   37.5830 H   0  0  0  0  0  0  0  0  0  0  0  0
   38.8840   30.9250   36.9550 H   0  0  0  0  0  0  0  0  0  0  0  0
   39.9470   33.7230   39.6700 C   0  0  0  0  0  0  0  0  0  0  0  0
   39.8460   32.5250   38.9110 C   0  0  0  0  0  0  0  0  0  0  0  0
   38.5900   31.9680   38.6980 C   0  0  0  0  0  0  0  0  0  0  0  0
   37.5290   32.6120   39.2350 N   0  0  0  0  0  0  0  0  0  0  0  0
   37.6390   33.7740   39.9700 C   0  0  0  0  0  0  0  0  0  0  0  0
   38.8360   34.3210   40.1830 N   0  0  0  0  0  0  0  0  0  0  0  0
   40.9250   34.1560   39.8360 H   0  0  0  0  0  0  0  0  0  0  0  0
   40.7170   32.0370   38.4960 H   0  0  0  0  0  0  0  0  0  0  0  0
   36.6970   34.1670   40.3320 H   0  0  0  0  0  0  0  0  0  0  0  0
   37.4040   28.4010   40.0260 O   0  0  0  0  0  0  0  0  0  0  0  0
   34.8300   28.9210   40.4260 O   0  0  0  0  0  0  0  0  0  0  0  0
   36.2010   28.8850   41.0570 P   0  0  2  0  0  0  0  0  0  0  0  0
   36.5520   30.4580   41.5840 O   0  0  0  0  0  0  0  0  0  0  0  0
   35.7710   31.0500   41.5460 H   0  0  0  0  0  0  0  0  0  0  0  0
   36.1750   27.9160   42.4720 O   0  0  0  0  0  0  0  0  0  0  0  0
   37.2720   27.0600   42.6590 C   0  0  0  0  0  0  0  0  0  0  0  0
   37.3710   25.7990   42.1140 C   0  0  0  0  0  0  0  0  0  0  0  0
   36.5490   25.4460   41.5010 H   0  0  0  0  0  0  0  0  0  0  0  0
   38.5300   25.0740   42.3950 C   0  0  0  0  0  3  0  0  0  0  0  0
   39.5040   25.6410   43.1910 C   0  0  0  0  0  0  0  0  0  0  0  0
   40.4150   25.0790   43.4170 H   0  0  0  0  0  0  0  0  0  0  0  0
   39.4030   26.9040   43.7370 C   0  0  0  0  0  0  0  0  0  0  0  0
   40.1810   27.3280   44.3580 H   0  0  0  0  0  0  0  0  0  0  0  0
   38.2440   27.6290   43.4540 C   0  0  0  0  0  3  0  0  0  0  0  0
  1  5  1  0  0  0  0
  2  1  1  0  0  0  0
  2  3  2  0  0  0  0
  3  4  1  0  0  0  0
  4  8  1  0  0  0  0
  4  9  1  0  0  0  0
  5 23  1  0  0  0  0
  5  4  1  0  0  0  0
  5 10  1  1  0  0  0
  6  2  1  0  0  0  0
  7  3  1  0  0  0  0
 11  1  1  0  0  0  0
 11 16  1  0  0  0  0
 12 11  1  0  0  0  0
 13 11  1  0  0  0  0
 14 20  1  0  0  0  0
 14 19  1  0  0  0  0
 15 14  2  0  0  0  0
 16 15  1  0  0  0  0
 16 17  2  0  0  0  0
 17 18  1  0  0  0  0
 18 19  2  0  0  0  0
 18 22  1  0  0  0  0
 21 15  1  0  0  0  0
 23 25  1  0  0  0  0
 25 24  2  6  0  0  0
 25 26  1  0  0  0  0
 25 28  1  0  0  0  0
 27 26  1  0  0  0  0
 28 29  1  0  0  0  0
 29 37  1  0  0  0  0
 30 32  1  0  0  0  0
 30 29  2  0  0  0  0
 31 30  1  0  0  0  0
 32 33  2  0  0  0  0
 33 34  1  0  0  0  0
 33 35  1  0  0  0  0
 35 36  1  0  0  0  0
 37 35  2  0  0  0  0
M  END
>  <minimizedAffinity>
-5.08572102

$$$$

 OpenBabel03252505003D

 37 39  0  0  1  0  0  0  0  0999 V2000
   39.0590   31.7380   40.0130 N   0  0  0  0  0  0  0  0  0  0  0  0
   38.5770   33.0680   40.0500 C   0  0  0  0  0  0  0  0  0  0  0  0
   37.2930   32.9640   39.3280 C   0  0  0  0  0  0  0  0  0  0  0  0
   37.0660   31.5140   38.9430 C   0  0  0  0  0  0  0  0  0  0  0  0
   38.0270   30.7900   39.8960 C   0  0  2  0  0  0  0  0  0  0  0  0
   38.8400   34.0280   40.4090 H   0  0  0  0  0  0  0  0  0  0  0  0
   36.5560   33.7080   39.0910 H   0  0  0  0  0  0  0  0  0  0  0  0
   37.3070   31.3330   37.8870 H   0  0  0  0  0  0  0  0  0  0  0  0
   36.0260   31.2720   39.2110 H   0  0  0  0  0  0  0  0  0  0  0  0
   38.3610   29.8230   39.5300 H   0  0  0  0  0  0  0  0  0  0  0  0
   40.4110   31.5010   40.0540 C   0  0  0  0  0  0  0  0  0  0  0  0
   40.6830   31.2960   41.1190 H   0  0  0  0  0  0  0  0  0  0  0  0
   41.0520   32.3850   39.8230 H   0  0  0  0  0  0  0  0  0  0  0  0
   41.5310   29.4540   37.0710 C   0  0  0  0  0  0  0  0  0  0  0  0
   41.0300   30.5630   37.8090 C   0  0  0  0  0  0  0  0  0  0  0  0
   40.8810   30.4420   39.1860 C   0  0  0  0  0  0  0  0  0  0  0  0
   41.2270   29.2600   39.7430 N   0  0  0  0  0  0  0  0  0  0  0  0
   41.7110   28.1910   39.0190 C   0  0  0  0  0  0  0  0  0  0  0  0
   41.8600   28.2900   37.6970 N   0  0  0  0  0  0  0  0  0  0  0  0
   41.6460   29.5490   35.9990 H   0  0  0  0  0  0  0  0  0  0  0  0
   40.7640   31.4940   37.3280 H   0  0  0  0  0  0  0  0  0  0  0  0
   41.9420   27.3140   39.6110 H   0  0  0  0  0  0  0  0  0  0  0  0
   37.3800   30.7530   41.1410 O   0  0  0  0  0  0  0  0  0  0  0  0
   35.5070   28.8700   41.1330 O   0  0  0  0  0  0  0  0  0  0  0  0
   36.8880   29.2440   41.6140 P   0  0  2  0  0  0  0  0  0  0  0  0
   36.8580   29.2010   43.3080 O   0  0  0  0  0  0  0  0  0  0  0  0
   36.0380   28.7920   43.6600 H   0  0  0  0  0  0  0  0  0  0  0  0
   38.0240   28.0490   41.1400 O   0  0  0  0  0  0  0  0  0  0  0  0
   37.5190   26.7530   40.9500 C   0  0  0  0  0  0  0  0  0  0  0  0
   37.1390   26.2400   39.7300 C   0  0  0  0  0  0  0  0  0  0  0  0
   37.2350   26.8810   38.8600 H   0  0  0  0  0  0  0  0  0  0  0  0
   36.6570   24.9310   39.7110 C   0  0  0  0  0  3  0  0  0  0  0  0
   36.5850   24.2220   40.8920 C   0  0  0  0  0  0  0  0  0  0  0  0
   36.2080   23.1950   40.8870 H   0  0  0  0  0  0  0  0  0  0  0  0
   36.9670   24.7360   42.1150 C   0  0  0  0  0  0  0  0  0  0  0  0
   36.9010   24.1600   43.0290 H   0  0  0  0  0  0  0  0  0  0  0  0
   37.4490   26.0460   42.1320 C   0  0  0  0  0  3  0  0  0  0  0  0
  1  2  1  0  0  0  0
  1 11  1  0  0  0  0
  2  6  1  0  0  0  0
  3  2  2  0  0  0  0
  4  9  1  0  0  0  0
  4  3  1  0  0  0  0
  4  5  1  0  0  0  0
  5 10  1  6  0  0  0
  5  1  1  0  0  0  0
  5 23  1  0  0  0  0
  7  3  1  0  0  0  0
  8  4  1  0  0  0  0
 11 12  1  0  0  0  0
 13 11  1  0  0  0  0
 14 19  2  0  0  0  0
 14 15  1  0  0  0  0
 15 16  2  0  0  0  0
 16 17  1  0  0  0  0
 16 11  1  0  0  0  0
 18 22  1  0  0  0  0
 18 17  2  0  0  0  0
 19 18  1  0  0  0  0
 20 14  1  0  0  0  0
 21 15  1  0  0  0  0
 23 25  1  0  0  0  0
 25 24  2  6  0  0  0
 25 26  1  0  0  0  0
 26 27  1  0  0  0  0
 28 25  1  0  0  0  0
 29 28  1  0  0  0  0
 29 37  1  0  0  0  0
 30 29  2  0  0  0  0
 31 30  1  0  0  0  0
 32 30  1  0  0  0  0
 32 33  2  0  0  0  0
 33 35  1  0  0  0  0
 34 33  1  0  0  0  0
 35 37  2  0  0  0  0
 35 36  1  0  0  0  0
M  END
>  <minimizedAffinity>
-5.0377202

$$$$

 OpenBabel03252505003D

 37 39  0  0  1  0  0  0  0  0999 V2000
   37.7660   31.0020   37.9240 N   0  0  0  0  0  0  0  0  0  0  0  0
   39.1320   31.3440   37.7790 C   0  0  0  0  0  0  0  0  0  0  0  0
   39.2910   32.4400   38.7560 C   0  0  0  0  0  0  0  0  0  0  0  0
   37.9730   32.6470   39.4780 C   0  0  0  0  0  0  0  0  0  0  0  0
   37.2580   31.3180   39.1960 C   0  0  2  0  0  0  0  0  0  0  0  0
   39.9940   31.0730   37.2290 H   0  0  0  0  0  0  0  0  0  0  0  0
   40.1480   33.0330   39.0160 H   0  0  0  0  0  0  0  0  0  0  0  0
   37.4250   33.5110   39.0810 H   0  0  0  0  0  0  0  0  0  0  0  0
   38.2070   32.7210   40.5520 H   0  0  0  0  0  0  0  0  0  0  0  0
   36.1750   31.3880   39.2300 H   0  0  0  0  0  0  0  0  0  0  0  0
   37.0840   30.4570   36.8630 C   0  0  0  0  0  0  0  0  0  0  0  0
   37.8060   30.3560   36.0160 H   0  0  0  0  0  0  0  0  0  0  0  0
   36.3020   31.1170   36.4170 H   0  0  0  0  0  0  0  0  0  0  0  0
   36.3150   26.8410   37.6830 C   0  0  0  0  0  0  0  0  0  0  0  0
   37.0830   28.0040   37.4030 C   0  0  0  0  0  0  0  0  0  0  0  0
   36.4220   29.1980   37.1340 C   0  0  0  0  0  0  0  0  0  0  0  0
   35.0700   29.1740   37.1560 N   0  0  0  0  0  0  0  0  0  0  0  0
   34.3350   28.0400   37.4280 C   0  0  0  0  0  0  0  0  0  0  0  0
   34.9530   26.8870   37.6890 N   0  0  0  0  0  0  0  0  0  0  0  0
   36.8300   25.9120   37.8920 H   0  0  0  0  0  0  0  0  0  0  0  0
   38.1630   27.9860   37.3950 H   0  0  0  0  0  0  0  0  0  0  0  0
   33.2620   28.1840   37.4070 H   0  0  0  0  0  0  0  0  0  0  0  0
   37.8120   30.3860   40.0870 O   0  0  0  0  0  0  0  0  0  0  0  0
   36.0550   28.5280   40.8020 O   0  0  0  0  0  0  0  0  0  0  0  0
   36.7510   29.8010   41.2160 P   0  0  2  0  0  0  0  0  0  0  0  0
   35.5490   30.9690   41.4730 O   0  0  0  0  0  0  0  0  0  0  0  0
   34.6460   30.5860   41.4770 H   0  0  0  0  0  0  0  0  0  0  0  0
   37.5220   29.5870   42.7340 O   0  0  0  0  0  0  0  0  0  0  0  0
   38.9180   29.4510   42.7080 C   0  0  0  0  0  0  0  0  0  0  0  0
   39.5790   28.2420   42.7280 C   0  0  0  0  0  0  0  0  0  0  0  0
   38.9810   27.3390   42.7660 H   0  0  0  0  0  0  0  0  0  0  0  0
   40.9740   28.2790   42.6960 C   0  0  0  0  0  3  0  0  0  0  0  0
   41.6150   29.4990   42.6480 C   0  0  0  0  0  0  0  0  0  0  0  0
   42.7090   29.5370   42.6230 H   0  0  0  0  0  0  0  0  0  0  0  0
   40.9520   30.7100   42.6280 C   0  0  0  0  0  0  0  0  0  0  0  0
   41.4780   31.6550   42.5900 H   0  0  0  0  0  0  0  0  0  0  0  0
   39.5570   30.6710   42.6590 C   0  0  0  0  0  3  0  0  0  0  0  0
  1  5  1  0  0  0  0
  2  1  1  0  0  0  0
  2  3  2  0  0  0  0
  3  7  1  0  0  0  0
  3  4  1  0  0  0  0
  4  9  1  0  0  0  0
  5 10  1  1  0  0  0
  5  4  1  0  0  0  0
  5 23  1  0  0  0  0
  6  2  1  0  0  0  0
  8  4  1  0  0  0  0
 11 16  1  0  0  0  0
 11  1  1  0  0  0  0
 12 11  1  0  0  0  0
 13 11  1  0  0  0  0
 14 19  1  0  0  0  0
 14 20  1  0  0  0  0
 15 14  2  0  0  0  0
 16 17  2  0  0  0  0
 16 15  1  0  0  0  0
 17 18  1  0  0  0  0
 18 19  2  0  0  0  0
 21 15  1  0  0  0  0
 22 18  1  0  0  0  0
 23 25  1  0  0  0  0
 25 24  2  6  0  0  0
 25 26  1  0  0  0  0
 25 28  1  0  0  0  0
 26 27  1  0  0  0  0
 29 30  1  0  0  0  0
 29 28  1  0  0  0  0
 30 31  1  0  0  0  0
 32 30  2  0  0  0  0
 33 32  1  0  0  0  0
 34 33  1  0  0  0  0
 35 33  2  0  0  0  0
 35 37  1  0  0  0  0
 36 35  1  0  0  0  0
 37 29  2  0  0  0  0
M  END
>  <minimizedAffinity>
-4.98274851

$$$$
