
 OpenBabel03252505283D

 24 25  0  0  0  0  0  0  0  0999 V2000
   37.3280   32.0580   39.7790 O   0  0  0  0  0  0  0  0  0  0  0  0
   37.0330   30.8180   40.6290 P   0  0  1  0  0  0  0  0  0  0  0  0
   35.5490   30.9290   41.4040 O   0  0  0  0  0  0  0  0  0  0  0  0
   34.8990   31.3020   40.7590 H   0  0  0  0  0  0  0  0  0  0  0  0
   37.0940   29.4900   39.5850 O   0  0  0  0  0  0  0  0  0  0  0  0
   34.0300   28.8420   37.8960 C   0  0  0  0  0  0  0  0  0  0  0  0
   34.3900   28.7210   36.5390 C   0  0  0  0  0  0  0  0  0  0  0  0
   35.7590   28.8770   36.2450 C   0  0  0  0  0  0  0  0  0  0  0  0
   36.6280   29.1270   37.2500 N   0  0  0  0  0  0  0  0  0  0  0  0
   36.2180   29.2330   38.5420 C   0  0  0  0  0  0  0  0  0  0  0  0
   34.9300   29.0910   38.8520 N   0  0  0  0  0  0  0  0  0  0  0  0
   32.9920   28.7330   38.1880 H   0  0  0  0  0  0  0  0  0  0  0  0
   33.6380   28.5180   35.7810 H   0  0  0  0  0  0  0  0  0  0  0  0
   36.0760   28.7910   35.2130 H   0  0  0  0  0  0  0  0  0  0  0  0
   38.2330   30.7440   41.8140 O   0  0  0  0  0  0  0  0  0  0  0  0
   38.4750   29.5000   42.4240 C   0  0  0  0  0  0  0  0  0  0  0  0
   39.7570   29.0110   42.2970 C   0  0  0  0  0  0  0  0  0  0  0  0
   40.5390   29.5560   41.7560 H   0  0  0  0  0  0  0  0  0  0  0  0
   40.0980   27.7970   42.8590 C   0  0  0  0  0  3  0  0  0  0  0  0
   39.0850   27.1320   43.5370 C   0  0  0  0  0  0  0  0  0  0  0  0
   39.3520   26.1720   43.9830 H   0  0  0  0  0  0  0  0  0  0  0  0
   37.7930   27.6000   43.6790 C   0  0  0  0  0  0  0  0  0  0  0  0
   37.0460   27.0500   44.2110 H   0  0  0  0  0  0  0  0  0  0  0  0
   37.4770   28.8200   43.1060 C   0  0  0  0  0  3  0  0  0  0  0  0
  2  1  2  6  0  0  0
  2  3  1  0  0  0  0
  2 15  1  0  0  0  0
  4  3  1  0  0  0  0
  5  2  1  0  0  0  0
  6 12  1  0  0  0  0
  6 11  1  0  0  0  0
  7  6  2  0  0  0  0
  8  7  1  0  0  0  0
  8  9  2  0  0  0  0
  9 10  1  0  0  0  0
 10 11  2  0  0  0  0
 10  5  1  0  0  0  0
 13  7  1  0  0  0  0
 14  8  1  0  0  0  0
 15 16  1  0  0  0  0
 16 24  1  0  0  0  0
 17 16  2  0  0  0  0
 17 19  1  0  0  0  0
 18 17  1  0  0  0  0
 19 20  2  0  0  0  0
 20 22  1  0  0  0  0
 20 21  1  0  0  0  0
 22 23  1  0  0  0  0
 24 22  2  0  0  0  0
M  END
>  <minimizedAffinity>
-4.77643013

$$$$

 OpenBabel03252505283D

 24 25  0  0  0  0  0  0  0  0999 V2000
   38.3130   31.0980   41.3230 O   0  0  0  0  0  0  0  0  0  0  0  0
   37.0850   30.1830   41.3320 P   0  0  1  0  0  0  0  0  0  0  0  0
   35.6530   31.0560   41.3720 O   0  0  0  0  0  0  0  0  0  0  0  0
   35.7460   31.8180   40.7490 H   0  0  0  0  0  0  0  0  0  0  0  0
   37.1900   29.2190   39.9480 O   0  0  0  0  0  0  0  0  0  0  0  0
   34.0060   28.8300   38.4070 C   0  0  0  0  0  0  0  0  0  0  0  0
   34.2630   28.9350   37.0260 C   0  0  0  0  0  0  0  0  0  0  0  0
   35.6070   29.1490   36.6600 C   0  0  0  0  0  0  0  0  0  0  0  0
   36.5490   29.2390   37.6250 N   0  0  0  0  0  0  0  0  0  0  0  0
   36.2370   29.1290   38.9450 C   0  0  0  0  0  0  0  0  0  0  0  0
   34.9760   28.9260   39.3210 N   0  0  0  0  0  0  0  0  0  0  0  0
   32.9930   28.6650   38.7540 H   0  0  0  0  0  0  0  0  0  0  0  0
   33.4560   28.8530   36.3030 H   0  0  0  0  0  0  0  0  0  0  0  0
   35.8460   29.2360   35.6080 H   0  0  0  0  0  0  0  0  0  0  0  0
   37.1730   29.2650   42.7470 O   0  0  0  0  0  0  0  0  0  0  0  0
   37.7210   27.9740   42.6570 C   0  0  0  0  0  0  0  0  0  0  0  0
   36.8200   26.9550   42.4360 C   0  0  0  0  0  0  0  0  0  0  0  0
   35.7440   27.1390   42.3360 H   0  0  0  0  0  0  0  0  0  0  0  0
   37.2560   25.6500   42.3320 C   0  0  0  0  0  3  0  0  0  0  0  0
   38.6230   25.4500   42.4630 C   0  0  0  0  0  0  0  0  0  0  0  0
   38.9710   24.4180   42.3800 H   0  0  0  0  0  0  0  0  0  0  0  0
   39.5480   26.4530   42.6840 C   0  0  0  0  0  0  0  0  0  0  0  0
   40.5940   26.2490   42.7780 H   0  0  0  0  0  0  0  0  0  0  0  0
   39.0860   27.7530   42.7840 C   0  0  0  0  0  3  0  0  0  0  0  0
  2  1  2  6  0  0  0
  2  3  1  0  0  0  0
  2 15  1  0  0  0  0
  4  3  1  0  0  0  0
  5  2  1  0  0  0  0
  6 12  1  0  0  0  0
  6 11  1  0  0  0  0
  7  6  2  0  0  0  0
  8  7  1  0  0  0  0
  8  9  2  0  0  0  0
  9 10  1  0  0  0  0
 10 11  2  0  0  0  0
 10  5  1  0  0  0  0
 13  7  1  0  0  0  0
 14  8  1  0  0  0  0
 16 15  1  0  0  0  0
 16 24  1  0  0  0  0
 17 16  2  0  0  0  0
 18 17  1  0  0  0  0
 19 17  1  0  0  0  0
 19 20  2  0  0  0  0
 20 22  1  0  0  0  0
 21 20  1  0  0  0  0
 22 23  1  0  0  0  0
 22 24  2  0  0  0  0
M  END
>  <minimizedAffinity>
-4.71523809

$$$$

 OpenBabel03252505283D

 24 25  0  0  0  0  0  0  0  0999 V2000
   36.4430   29.8350   39.2970 O   0  0  0  0  0  0  0  0  0  0  0  0
   36.8250   30.8980   40.3300 P   0  0  1  0  0  0  0  0  0  0  0  0
   35.5930   31.1660   41.4370 O   0  0  0  0  0  0  0  0  0  0  0  0
   35.2170   30.2870   41.6890 H   0  0  0  0  0  0  0  0  0  0  0  0
   38.2350   30.3550   41.0860 O   0  0  0  0  0  0  0  0  0  0  0  0
   37.2980   27.9590   43.5440 C   0  0  0  0  0  0  0  0  0  0  0  0
   38.4260   27.1250   43.6770 C   0  0  0  0  0  0  0  0  0  0  0  0
   39.5310   27.4430   42.8630 C   0  0  0  0  0  0  0  0  0  0  0  0
   39.4530   28.5000   42.0240 N   0  0  0  0  0  0  0  0  0  0  0  0
   38.3340   29.2680   41.9410 C   0  0  0  0  0  0  0  0  0  0  0  0
   37.2730   28.9920   42.6970 N   0  0  0  0  0  0  0  0  0  0  0  0
   36.4150   27.7670   44.1410 H   0  0  0  0  0  0  0  0  0  0  0  0
   38.4200   26.2910   44.3740 H   0  0  0  0  0  0  0  0  0  0  0  0
   40.4180   26.8260   42.9360 H   0  0  0  0  0  0  0  0  0  0  0  0
   37.0790   32.3340   39.4790 O   0  0  0  0  0  0  0  0  0  0  0  0
   38.4040   32.7800   39.3280 C   0  0  0  0  0  0  0  0  0  0  0  0
   39.1260   32.1800   38.3190 C   0  0  0  0  0  0  0  0  0  0  0  0
   38.6950   31.4050   37.6740 H   0  0  0  0  0  0  0  0  0  0  0  0
   40.4360   32.5460   38.0870 C   0  0  0  0  0  3  0  0  0  0  0  0
   40.9520   33.5290   38.9200 C   0  0  0  0  0  0  0  0  0  0  0  0
   41.9890   33.8210   38.7400 H   0  0  0  0  0  0  0  0  0  0  0  0
   40.2510   34.1470   39.9390 C   0  0  0  0  0  0  0  0  0  0  0  0
   40.6930   34.9010   40.5550 H   0  0  0  0  0  0  0  0  0  0  0  0
   38.9380   33.7620   40.1500 C   0  0  0  0  0  3  0  0  0  0  0  0
  2  1  2  6  0  0  0
  2  5  1  0  0  0  0
  2  3  1  0  0  0  0
  3  4  1  0  0  0  0
  5 10  1  0  0  0  0
  6  7  1  0  0  0  0
  6 12  1  0  0  0  0
  7 13  1  0  0  0  0
  8 14  1  0  0  0  0
  8  7  2  0  0  0  0
  9  8  1  0  0  0  0
 10  9  2  0  0  0  0
 10 11  1  0  0  0  0
 11  6  2  0  0  0  0
 15  2  1  0  0  0  0
 16 15  1  0  0  0  0
 16 24  1  0  0  0  0
 17 16  2  0  0  0  0
 18 17  1  0  0  0  0
 19 17  1  0  0  0  0
 19 20  2  0  0  0  0
 20 22  1  0  0  0  0
 21 20  1  0  0  0  0
 22 24  2  0  0  0  0
 22 23  1  0  0  0  0
M  END
>  <minimizedAffinity>
-4.71289349

$$$$

 OpenBabel03252505283D

 24 25  0  0  0  0  0  0  0  0999 V2000
   39.3790   28.1950   43.3290 O   0  0  0  0  0  0  0  0  0  0  0  0
   38.4510   28.9910   42.4060 P   0  0  1  0  0  0  0  0  0  0  0  0
   36.9980   29.3690   43.1540 O   0  0  0  0  0  0  0  0  0  0  0  0
   37.1990   29.6500   44.0810 H   0  0  0  0  0  0  0  0  0  0  0  0
   39.2980   30.3800   41.9500 O   0  0  0  0  0  0  0  0  0  0  0  0
   39.1110   33.6080   40.4640 C   0  0  0  0  0  0  0  0  0  0  0  0
   37.8500   33.6390   39.8360 C   0  0  0  0  0  0  0  0  0  0  0  0
   37.0670   32.4740   39.9600 C   0  0  0  0  0  0  0  0  0  0  0  0
   37.5540   31.4200   40.6530 N   0  0  0  0  0  0  0  0  0  0  0  0
   38.7820   31.4510   41.2370 C   0  0  0  0  0  0  0  0  0  0  0  0
   39.5450   32.5390   41.1370 N   0  0  0  0  0  0  0  0  0  0  0  0
   39.7620   34.4730   40.4050 H   0  0  0  0  0  0  0  0  0  0  0  0
   37.5210   34.5220   39.2950 H   0  0  0  0  0  0  0  0  0  0  0  0
   36.0920   32.4580   39.4920 H   0  0  0  0  0  0  0  0  0  0  0  0
   38.1110   27.9980   41.0840 O   0  0  0  0  0  0  0  0  0  0  0  0
   38.1490   26.6060   41.2830 C   0  0  0  0  0  0  0  0  0  0  0  0
   37.0520   26.0620   41.9140 C   0  0  0  0  0  0  0  0  0  0  0  0
   36.2020   26.6740   42.2400 H   0  0  0  0  0  0  0  0  0  0  0  0
   36.9910   24.7050   42.1570 C   0  0  0  0  0  3  0  0  0  0  0  0
   38.0810   23.9580   41.7330 C   0  0  0  0  0  0  0  0  0  0  0  0
   38.0360   22.8840   41.9240 H   0  0  0  0  0  0  0  0  0  0  0  0
   39.1930   24.4780   41.0980 C   0  0  0  0  0  0  0  0  0  0  0  0
   40.0100   23.8610   40.7900 H   0  0  0  0  0  0  0  0  0  0  0  0
   39.2300   25.8420   40.8660 C   0  0  0  0  0  3  0  0  0  0  0  0
  2  3  1  0  0  0  0
  2  1  2  1  0  0  0
  3  4  1  0  0  0  0
  5  2  1  0  0  0  0
  6 11  1  0  0  0  0
  7  8  1  0  0  0  0
  7  6  2  0  0  0  0
  8  9  2  0  0  0  0
  9 10  1  0  0  0  0
 10  5  1  0  0  0  0
 11 10  2  0  0  0  0
 12  6  1  0  0  0  0
 13  7  1  0  0  0  0
 14  8  1  0  0  0  0
 15 16  1  0  0  0  0
 15  2  1  0  0  0  0
 16 17  1  0  0  0  0
 17 19  2  0  0  0  0
 17 18  1  0  0  0  0
 20 21  1  0  0  0  0
 20 19  1  0  0  0  0
 22 20  2  0  0  0  0
 23 22  1  0  0  0  0
 24 22  1  0  0  0  0
 24 16  2  0  0  0  0
M  END
>  <minimizedAffinity>
-4.70715809

$$$$

 OpenBabel03252505283D

 24 25  0  0  0  0  0  0  0  0999 V2000
   39.3150   30.2670   42.9410 O   0  0  0  0  0  0  0  0  0  0  0  0
   38.3180   29.1770   42.5390 P   0  0  1  0  0  0  0  0  0  0  0  0
   36.7340   29.6270   42.8610 O   0  0  0  0  0  0  0  0  0  0  0  0
   36.6280   30.5730   42.5920 H   0  0  0  0  0  0  0  0  0  0  0  0
   38.5600   28.8830   40.8930 O   0  0  0  0  0  0  0  0  0  0  0  0
   37.0260   31.5990   39.1820 C   0  0  0  0  0  0  0  0  0  0  0  0
   37.5010   31.5030   37.8590 C   0  0  0  0  0  0  0  0  0  0  0  0
   38.3860   30.4380   37.5960 C   0  0  0  0  0  0  0  0  0  0  0  0
   38.7210   29.5930   38.5960 N   0  0  0  0  0  0  0  0  0  0  0  0
   38.2280   29.7390   39.8540 C   0  0  0  0  0  0  0  0  0  0  0  0
   37.3890   30.7360   40.1350 N   0  0  0  0  0  0  0  0  0  0  0  0
   36.3420   32.3970   39.4500 H   0  0  0  0  0  0  0  0  0  0  0  0
   37.1900   32.2180   37.1040 H   0  0  0  0  0  0  0  0  0  0  0  0
   38.7740   30.3290   36.5910 H   0  0  0  0  0  0  0  0  0  0  0  0
   38.6730   27.8210   43.4800 O   0  0  0  0  0  0  0  0  0  0  0  0
   38.4130   26.5540   42.9280 C   0  0  0  0  0  0  0  0  0  0  0  0
   39.4970   25.7090   42.8330 C   0  0  0  0  0  0  0  0  0  0  0  0
   40.4990   26.0040   43.1660 H   0  0  0  0  0  0  0  0  0  0  0  0
   39.3480   24.4420   42.3040 C   0  0  0  0  0  3  0  0  0  0  0  0
   38.0670   24.0990   41.8920 C   0  0  0  0  0  0  0  0  0  0  0  0
   37.9460   23.0980   41.4740 H   0  0  0  0  0  0  0  0  0  0  0  0
   36.9640   24.9270   41.9770 C   0  0  0  0  0  0  0  0  0  0  0  0
   35.9960   24.6170   41.6440 H   0  0  0  0  0  0  0  0  0  0  0  0
   37.1400   26.1920   42.5100 C   0  0  0  0  0  3  0  0  0  0  0  0
  2  3  1  0  0  0  0
  2  1  2  1  0  0  0
  2 15  1  0  0  0  0
  4  3  1  0  0  0  0
  5  2  1  0  0  0  0
  6 12  1  0  0  0  0
  6 11  1  0  0  0  0
  7  6  2  0  0  0  0
  8  7  1  0  0  0  0
  8  9  2  0  0  0  0
  9 10  1  0  0  0  0
 10 11  2  0  0  0  0
 10  5  1  0  0  0  0
 13  7  1  0  0  0  0
 14  8  1  0  0  0  0
 16 15  1  0  0  0  0
 17 16  1  0  0  0  0
 17 18  1  0  0  0  0
 19 17  2  0  0  0  0
 20 22  2  0  0  0  0
 20 19  1  0  0  0  0
 21 20  1  0  0  0  0
 22 24  1  0  0  0  0
 23 22  1  0  0  0  0
 24 16  2  0  0  0  0
M  END
>  <minimizedAffinity>
-4.69385052

$$$$

 OpenBabel03252505283D

 24 25  0  0  0  0  0  0  0  0999 V2000
   37.9410   28.4280   41.2780 O   0  0  0  0  0  0  0  0  0  0  0  0
   37.5940   29.6500   42.1330 P   0  0  1  0  0  0  0  0  0  0  0  0
   37.1090   29.2150   43.6790 O   0  0  0  0  0  0  0  0  0  0  0  0
   37.7110   28.4970   43.9940 H   0  0  0  0  0  0  0  0  0  0  0  0
   38.9720   30.6270   42.1630 O   0  0  0  0  0  0  0  0  0  0  0  0
   40.6300   31.7310   39.2150 C   0  0  0  0  0  0  0  0  0  0  0  0
   40.2760   33.0890   39.0930 C   0  0  0  0  0  0  0  0  0  0  0  0
   39.4270   33.6000   40.0950 C   0  0  0  0  0  0  0  0  0  0  0  0
   39.0110   32.7840   41.0900 N   0  0  0  0  0  0  0  0  0  0  0  0
   39.3890   31.4790   41.1520 C   0  0  0  0  0  0  0  0  0  0  0  0
   40.1910   30.9670   40.2190 N   0  0  0  0  0  0  0  0  0  0  0  0
   41.2800   31.2770   38.4750 H   0  0  0  0  0  0  0  0  0  0  0  0
   40.6470   33.6880   38.2660 H   0  0  0  0  0  0  0  0  0  0  0  0
   39.1310   34.6390   40.0380 H   0  0  0  0  0  0  0  0  0  0  0  0
   36.2930   30.4180   41.3780 O   0  0  0  0  0  0  0  0  0  0  0  0
   35.9790   30.0330   40.0630 C   0  0  0  0  0  0  0  0  0  0  0  0
   34.8710   29.2270   39.9240 C   0  0  0  0  0  0  0  0  0  0  0  0
   34.2710   28.9060   40.7840 H   0  0  0  0  0  0  0  0  0  0  0  0
   34.4770   28.7930   38.6740 C   0  0  0  0  0  3  0  0  0  0  0  0
   35.2570   29.2170   37.6070 C   0  0  0  0  0  0  0  0  0  0  0  0
   34.9480   28.8760   36.6170 H   0  0  0  0  0  0  0  0  0  0  0  0
   36.3720   30.0260   37.7190 C   0  0  0  0  0  0  0  0  0  0  0  0
   36.9420   30.3260   36.8650 H   0  0  0  0  0  0  0  0  0  0  0  0
   36.7460   30.4470   38.9830 C   0  0  0  0  0  3  0  0  0  0  0  0
  2  1  2  6  0  0  0
  2  5  1  0  0  0  0
  2  3  1  0  0  0  0
  3  4  1  0  0  0  0
  6 11  1  0  0  0  0
  7  6  2  0  0  0  0
  7  8  1  0  0  0  0
  8  9  2  0  0  0  0
  9 10  1  0  0  0  0
 10  5  1  0  0  0  0
 11 10  2  0  0  0  0
 12  6  1  0  0  0  0
 13  7  1  0  0  0  0
 14  8  1  0  0  0  0
 15  2  1  0  0  0  0
 16 15  1  0  0  0  0
 17 16  1  0  0  0  0
 17 18  1  0  0  0  0
 19 17  2  0  0  0  0
 20 22  2  0  0  0  0
 20 19  1  0  0  0  0
 21 20  1  0  0  0  0
 22 24  1  0  0  0  0
 23 22  1  0  0  0  0
 24 16  2  0  0  0  0
M  END
>  <minimizedAffinity>
-4.66940641

$$$$

 OpenBabel03252505283D

 24 25  0  0  0  0  0  0  0  0999 V2000
   34.6670   28.8130   38.6420 O   0  0  0  0  0  0  0  0  0  0  0  0
   35.7520   29.1840   39.6570 P   0  0  1  0  0  0  0  0  0  0  0  0
   35.1480   30.1430   40.8950 O   0  0  0  0  0  0  0  0  0  0  0  0
   34.2700   29.7750   41.1610 H   0  0  0  0  0  0  0  0  0  0  0  0
   36.3830   27.7310   40.2450 O   0  0  0  0  0  0  0  0  0  0  0  0
   38.9230   26.5400   42.4340 C   0  0  0  0  0  0  0  0  0  0  0  0
   38.6770   27.1960   43.6560 C   0  0  0  0  0  0  0  0  0  0  0  0
   37.5770   28.0770   43.6760 C   0  0  0  0  0  0  0  0  0  0  0  0
   36.8390   28.2400   42.5560 N   0  0  0  0  0  0  0  0  0  0  0  0
   37.1270   27.5760   41.4040 C   0  0  0  0  0  0  0  0  0  0  0  0
   38.1610   26.7370   41.3540 N   0  0  0  0  0  0  0  0  0  0  0  0
   39.7550   25.8510   42.3520 H   0  0  0  0  0  0  0  0  0  0  0  0
   39.3120   27.0180   44.5200 H   0  0  0  0  0  0  0  0  0  0  0  0
   37.3540   28.6010   44.5970 H   0  0  0  0  0  0  0  0  0  0  0  0
   36.9120   30.0830   38.8230 O   0  0  0  0  0  0  0  0  0  0  0  0
   37.5340   31.1430   39.5050 C   0  0  0  0  0  0  0  0  0  0  0  0
   37.1330   32.4090   39.1380 C   0  0  0  0  0  0  0  0  0  0  0  0
   36.3770   32.5800   38.3630 H   0  0  0  0  0  0  0  0  0  0  0  0
   37.6840   33.5190   39.7480 C   0  0  0  0  0  3  0  0  0  0  0  0
   38.6380   33.2690   40.7240 C   0  0  0  0  0  0  0  0  0  0  0  0
   39.0750   34.1450   41.2080 H   0  0  0  0  0  0  0  0  0  0  0  0
   39.0580   32.0100   41.1110 C   0  0  0  0  0  0  0  0  0  0  0  0
   39.7980   31.8690   41.8700 H   0  0  0  0  0  0  0  0  0  0  0  0
   38.4910   30.9140   40.4850 C   0  0  0  0  0  3  0  0  0  0  0  0
  2  1  2  6  0  0  0
  2  5  1  0  0  0  0
  2  3  1  0  0  0  0
  3  4  1  0  0  0  0
  5 10  1  0  0  0  0
  6  7  1  0  0  0  0
  7  8  2  0  0  0  0
  7 13  1  0  0  0  0
  8 14  1  0  0  0  0
  9  8  1  0  0  0  0
 10  9  2  0  0  0  0
 11 10  1  0  0  0  0
 11  6  2  0  0  0  0
 12  6  1  0  0  0  0
 15 16  1  0  0  0  0
 15  2  1  0  0  0  0
 16 24  1  0  0  0  0
 17 16  2  0  0  0  0
 17 19  1  0  0  0  0
 18 17  1  0  0  0  0
 19 20  2  0  0  0  0
 20 22  1  0  0  0  0
 20 21  1  0  0  0  0
 22 23  1  0  0  0  0
 24 22  2  0  0  0  0
M  END
>  <minimizedAffinity>
-4.65910244

$$$$

 OpenBabel03252505283D

 24 25  0  0  0  0  0  0  0  0999 V2000
   39.4480   32.0680   39.8390 O   0  0  0  0  0  0  0  0  0  0  0  0
   38.3400   31.3440   40.6080 P   0  0  1  0  0  0  0  0  0  0  0  0
   36.9640   32.2900   40.7630 O   0  0  0  0  0  0  0  0  0  0  0  0
   36.8070   32.7400   39.8970 H   0  0  0  0  0  0  0  0  0  0  0  0
   38.0210   29.9140   39.7640 O   0  0  0  0  0  0  0  0  0  0  0  0
   34.5450   29.1600   39.6700 C   0  0  0  0  0  0  0  0  0  0  0  0
   34.3000   28.7720   38.3380 C   0  0  0  0  0  0  0  0  0  0  0  0
   35.4130   28.7880   37.4730 C   0  0  0  0  0  0  0  0  0  0  0  0
   36.6200   29.1630   37.9540 N   0  0  0  0  0  0  0  0  0  0  0  0
   36.7920   29.5270   39.2530 C   0  0  0  0  0  0  0  0  0  0  0  0
   35.7590   29.5220   40.0950 N   0  0  0  0  0  0  0  0  0  0  0  0
   33.7310   29.1700   40.3850 H   0  0  0  0  0  0  0  0  0  0  0  0
   33.3030   28.4820   38.0190 H   0  0  0  0  0  0  0  0  0  0  0  0
   35.2660   28.4970   36.4410 H   0  0  0  0  0  0  0  0  0  0  0  0
   38.9400   31.0410   42.1570 O   0  0  0  0  0  0  0  0  0  0  0  0
   38.8580   29.7250   42.6450 C   0  0  0  0  0  0  0  0  0  0  0  0
   40.0300   29.0010   42.6140 C   0  0  0  0  0  0  0  0  0  0  0  0
   40.9680   29.4240   42.2340 H   0  0  0  0  0  0  0  0  0  0  0  0
   40.0570   27.6990   43.0700 C   0  0  0  0  0  3  0  0  0  0  0  0
   38.8540   27.1930   43.5450 C   0  0  0  0  0  0  0  0  0  0  0  0
   38.8720   26.1630   43.9070 H   0  0  0  0  0  0  0  0  0  0  0  0
   37.6660   27.8970   43.5870 C   0  0  0  0  0  0  0  0  0  0  0  0
   36.7630   27.4630   43.9630 H   0  0  0  0  0  0  0  0  0  0  0  0
   37.6660   29.2010   43.1240 C   0  0  0  0  0  3  0  0  0  0  0  0
  2  1  2  6  0  0  0
  2  3  1  0  0  0  0
  2 15  1  0  0  0  0
  4  3  1  0  0  0  0
  5  2  1  0  0  0  0
  6 11  1  0  0  0  0
  6 12  1  0  0  0  0
  7  6  2  0  0  0  0
  8  9  2  0  0  0  0
  8  7  1  0  0  0  0
  9 10  1  0  0  0  0
 10  5  1  0  0  0  0
 10 11  2  0  0  0  0
 13  7  1  0  0  0  0
 14  8  1  0  0  0  0
 15 16  1  0  0  0  0
 16 24  1  0  0  0  0
 17 16  2  0  0  0  0
 17 19  1  0  0  0  0
 18 17  1  0  0  0  0
 19 20  2  0  0  0  0
 20 22  1  0  0  0  0
 20 21  1  0  0  0  0
 22 23  1  0  0  0  0
 24 22  2  0  0  0  0
M  END
>  <minimizedAffinity>
-4.52809858

$$$$

 OpenBabel03252505283D

 24 25  0  0  0  0  0  0  0  0999 V2000
   34.3070   29.2080   39.9850 O   0  0  0  0  0  0  0  0  0  0  0  0
   35.8120   29.4130   39.7920 P   0  0  1  0  0  0  0  0  0  0  0  0
   36.1860   29.8640   38.2200 O   0  0  0  0  0  0  0  0  0  0  0  0
   35.5140   30.5290   37.9280 H   0  0  0  0  0  0  0  0  0  0  0  0
   36.2880   30.5900   40.9080 O   0  0  0  0  0  0  0  0  0  0  0  0
   39.4860   32.0870   41.3420 C   0  0  0  0  0  0  0  0  0  0  0  0
   39.4670   33.2190   40.5030 C   0  0  0  0  0  0  0  0  0  0  0  0
   38.2780   33.4330   39.7780 C   0  0  0  0  0  0  0  0  0  0  0  0
   37.2500   32.5660   39.9220 N   0  0  0  0  0  0  0  0  0  0  0  0
   37.3300   31.4890   40.7490 C   0  0  0  0  0  0  0  0  0  0  0  0
   38.4420   31.2610   41.4470 N   0  0  0  0  0  0  0  0  0  0  0  0
   40.3720   31.8660   41.9260 H   0  0  0  0  0  0  0  0  0  0  0  0
   40.3310   33.8750   40.4370 H   0  0  0  0  0  0  0  0  0  0  0  0
   38.2230   34.2920   39.1230 H   0  0  0  0  0  0  0  0  0  0  0  0
   36.5490   27.9240   40.0940 O   0  0  0  0  0  0  0  0  0  0  0  0
   37.2570   27.7760   41.3000 C   0  0  0  0  0  0  0  0  0  0  0  0
   36.4890   27.7340   42.4430 C   0  0  0  0  0  0  0  0  0  0  0  0
   35.3960   27.8110   42.4150 H   0  0  0  0  0  0  0  0  0  0  0  0
   37.0870   27.5920   43.6790 C   0  0  0  0  0  3  0  0  0  0  0  0
   38.4720   27.4980   43.6800 C   0  0  0  0  0  0  0  0  0  0  0  0
   38.9480   27.3850   44.6560 H   0  0  0  0  0  0  0  0  0  0  0  0
   39.2650   27.5370   42.5490 C   0  0  0  0  0  0  0  0  0  0  0  0
   40.3310   27.4610   42.6010 H   0  0  0  0  0  0  0  0  0  0  0  0
   38.6410   27.6800   41.3220 C   0  0  0  0  0  3  0  0  0  0  0  0
  2  1  2  1  0  0  0
  2 15  1  0  0  0  0
  2  5  1  0  0  0  0
  3  2  1  0  0  0  0
  4  3  1  0  0  0  0
  6 11  1  0  0  0  0
  6 12  1  0  0  0  0
  7  6  2  0  0  0  0
  8  9  2  0  0  0  0
  8  7  1  0  0  0  0
  9 10  1  0  0  0  0
 10  5  1  0  0  0  0
 10 11  2  0  0  0  0
 13  7  1  0  0  0  0
 14  8  1  0  0  0  0
 15 16  1  0  0  0  0
 16 24  2  0  0  0  0
 16 17  1  0  0  0  0
 17 19  2  0  0  0  0
 18 17  1  0  0  0  0
 19 20  1  0  0  0  0
 20 21  1  0  0  0  0
 22 23  1  0  0  0  0
 22 20  2  0  0  0  0
 24 22  1  0  0  0  0
M  END
>  <minimizedAffinity>
-4.51981544

$$$$
