
 OpenBabel03252501353D

 25 26  0  0  0  0  0  0  0  0999 V2000
   44.3100   35.1300   42.4960 C   0  0  0  0  0  0  0  0  0  0  0  0
   44.2220   33.8640   42.5920 O   0  0  0  0  0  0  0  0  0  0  0  0
   45.1830   35.7040   43.4730 N   0  0  0  0  0  0  0  0  0  0  0  0
   45.3540   36.7120   43.4980 H   0  0  0  0  0  0  0  0  0  0  0  0
   45.7000   34.6310   44.3120 C   0  0  0  0  0  0  0  0  0  0  0  0
   45.2820   34.3770   45.5940 C   0  0  0  0  0  0  0  0  0  0  0  0
   45.8970   33.3020   46.2340 C   0  0  0  0  0  0  0  0  0  0  0  0
   46.8330   32.6130   45.5530 N   0  0  0  0  0  0  0  0  0  0  0  0
   47.2110   32.8960   44.3010 C   0  0  0  0  0  0  0  0  0  0  0  0
   46.6340   33.9350   43.6500 N   0  0  0  0  0  0  0  0  0  0  0  0
   45.5700   33.0990   47.2450 H   0  0  0  0  0  0  0  0  0  0  0  0
   47.9760   32.2910   43.8200 H   0  0  0  0  0  0  0  0  0  0  0  0
   44.2860   35.2110   46.1370 N   0  0  0  0  0  0  0  0  0  0  0  0
   44.6420   36.0800   46.6160 H   0  0  0  0  0  0  0  0  0  0  0  0
   43.2820   34.9630   46.0560 H   0  0  0  0  0  0  0  0  0  0  0  0
   43.6480   35.9400   41.5510 O   0  0  0  0  0  0  0  0  0  0  0  0
   42.4310   35.5090   41.0320 C   0  0  0  0  0  0  0  0  0  0  0  0
   41.2000   35.4340   41.6620 C   0  0  0  0  0  0  0  0  0  0  0  0
   41.2180   35.7530   42.6760 H   0  0  0  0  0  0  0  0  0  0  0  0
   40.1170   34.9660   40.9280 C   0  0  0  0  0  0  0  0  0  0  0  0
   40.2530   34.5850   39.6070 C   0  0  0  0  0  0  0  0  0  0  0  0
   39.3600   34.2240   39.0800 H   0  0  0  0  0  0  0  0  0  0  0  0
   41.4810   34.6610   38.9780 C   0  0  0  0  0  0  0  0  0  0  0  0
   41.5220   34.3470   37.9430 H   0  0  0  0  0  0  0  0  0  0  0  0
   42.5620   35.1240   39.7010 C   0  0  0  0  0  0  0  0  0  0  0  0
  1  2  2  0  0  0  0
  1  3  1  0  0  0  0
  3  4  1  0  0  0  0
  3  5  1  0  0  0  0
  5  6  1  0  0  0  0
  6 13  1  0  0  0  0
  6  7  2  0  0  0  0
  7 11  1  0  0  0  0
  8  7  1  0  0  0  0
  9  8  2  0  0  0  0
 10  9  1  0  0  0  0
 10  5  2  0  0  0  0
 12  9  1  0  0  0  0
 13 14  1  0  0  0  0
 15 13  1  0  0  0  0
 16  1  1  0  0  0  0
 17 16  1  0  0  0  0
 17 18  1  0  0  0  0
 18 19  1  0  0  0  0
 20 18  2  0  0  0  0
 21 20  1  0  0  0  0
 22 21  1  0  0  0  0
 23 21  2  0  0  0  0
 23 25  1  0  0  0  0
 24 23  1  0  0  0  0
 25 17  2  0  0  0  0
M  END
>  <minimizedAffinity>
-5.4986124

>  <minimizedRMSD>
0.606373608

$$$$
