
 OpenBabel03252501033D

 31 33  0  0  1  0  0  0  0  0999 V2000
   48.0090   35.4590   41.8040 C   0  0  1  0  0  0  0  0  0  0  0  0
   49.2980   34.7320   41.6860 C   0  0  0  0  0  0  0  0  0  0  0  0
   48.4700   35.0710   40.4560 C   0  0  1  0  0  0  0  0  0  0  0  0
   47.9720   36.5520   41.9920 H   0  0  0  0  0  0  0  0  0  0  0  0
   50.2160   35.3150   41.9130 H   0  0  0  0  0  0  0  0  0  0  0  0
   49.4190   33.6640   41.8530 H   0  0  0  0  0  0  0  0  0  0  0  0
   49.0210   35.7890   39.8140 H   0  0  0  0  0  0  0  0  0  0  0  0
   46.0520   32.9150   43.7800 C   0  0  0  0  0  0  0  0  0  0  0  0
   47.1520   33.6200   43.2720 C   0  0  0  0  0  0  0  0  0  0  0  0
   46.8860   34.6680   42.3890 C   0  0  0  0  0  0  0  0  0  0  0  0
   45.6020   34.9680   42.0520 N   0  0  0  0  0  0  0  0  0  0  0  0
   44.5580   34.2690   42.5570 C   0  0  0  0  0  0  0  0  0  0  0  0
   44.7870   33.2400   43.4230 N   0  0  0  0  0  0  0  0  0  0  0  0
   46.1180   32.0870   44.4690 H   0  0  0  0  0  0  0  0  0  0  0  0
   48.1220   33.3250   43.5870 H   0  0  0  0  0  0  0  0  0  0  0  0
   43.5650   34.5350   42.2700 H   0  0  0  0  0  0  0  0  0  0  0  0
   47.7450   34.1640   39.7880 O   0  0  0  0  0  0  0  0  0  0  0  0
   48.5960   32.3830   38.0110 O   0  0  0  0  0  0  0  0  0  0  0  0
   48.1380   33.8060   38.2370 P   0  0  2  0  0  0  0  0  0  0  0  0
   49.3250   34.8130   37.5740 O   0  0  0  0  0  0  0  0  0  0  0  0
   48.9790   35.7600   37.5900 H   0  0  0  0  0  0  0  0  0  0  0  0
   46.7700   33.9970   37.2580 O   0  0  0  0  0  0  0  0  0  0  0  0
   45.7450   33.0760   37.1640 C   0  0  0  0  0  0  0  0  0  0  0  0
   45.7040   32.3910   35.9750 C   0  0  0  0  0  0  0  0  0  0  0  0
   46.4060   32.5480   35.1700 H   0  0  0  0  0  0  0  0  0  0  0  0
   44.7450   31.4440   35.7340 C   0  0  0  0  0  0  0  0  0  0  0  0
   43.7990   31.1620   36.6900 C   0  0  0  0  0  0  0  0  0  0  0  0
   43.0150   30.4230   36.5570 H   0  0  0  0  0  0  0  0  0  0  0  0
   43.8490   31.8550   37.8800 C   0  0  0  0  0  0  0  0  0  0  0  0
   43.1490   31.7030   38.6930 H   0  0  0  0  0  0  0  0  0  0  0  0
   44.8210   32.8180   38.1310 C   0  0  0  0  0  0  0  0  0  0  0  0
  1  4  1  1  0  0  0
  1 10  1  0  0  0  0
  2  1  1  0  0  0  0
  2  6  1  0  0  0  0
  2  5  1  0  0  0  0
  3  7  1  6  0  0  0
  3  2  1  0  0  0  0
  3  1  1  0  0  0  0
  8 14  1  0  0  0  0
  9 15  1  0  0  0  0
  9  8  2  0  0  0  0
 10  9  1  0  0  0  0
 11 10  2  0  0  0  0
 11 12  1  0  0  0  0
 12 13  2  0  0  0  0
 13  8  1  0  0  0  0
 16 12  1  0  0  0  0
 17  3  1  0  0  0  0
 19 18  2  6  0  0  0
 19 17  1  0  0  0  0
 20 21  1  0  0  0  0
 20 19  1  0  0  0  0
 22 19  1  0  0  0  0
 23 22  1  0  0  0  0
 23 31  1  0  0  0  0
 24 23  2  0  0  0  0
 25 24  1  0  0  0  0
 26 24  1  0  0  0  0
 26 27  2  0  0  0  0
 27 29  1  0  0  0  0
 28 27  1  0  0  0  0
 29 31  2  0  0  0  0
 29 30  1  0  0  0  0
M  END
>  <minimizedAffinity>
-4.35223103

>  <minimizedRMSD>
0.549653947

$$$$
