
 OpenBabel03252500553D

 30 31  0  0  0  0  0  0  0  0999 V2000
   37.1100   29.7760   39.1520 C   0  0  0  0  0  0  0  0  0  0  0  0
   38.3010   29.9620   39.8590 C   0  0  0  0  0  0  0  0  0  0  0  0
   39.0950   31.0720   39.5070 C   0  0  0  0  0  0  0  0  0  0  0  0
   38.6470   31.8740   38.5120 N   0  0  0  0  0  0  0  0  0  0  0  0
   37.5040   31.6700   37.8530 C   0  0  0  0  0  0  0  0  0  0  0  0
   36.7390   30.6190   38.1770 N   0  0  0  0  0  0  0  0  0  0  0  0
   39.9860   31.1730   40.0690 H   0  0  0  0  0  0  0  0  0  0  0  0
   37.2760   32.3930   37.0840 H   0  0  0  0  0  0  0  0  0  0  0  0
   36.2370   28.6550   39.4570 C   0  0  0  0  0  0  0  0  0  0  0  0
   36.1160   27.9060   38.6340 H   0  0  0  0  0  0  0  0  0  0  0  0
   36.6790   28.0470   40.3000 H   0  0  0  0  0  0  0  0  0  0  0  0
   34.9090   29.1590   39.9390 C   0  0  0  0  0  0  0  0  0  0  0  0
   35.1430   30.0610   40.5750 H   0  0  0  0  0  0  0  0  0  0  0  0
   34.3640   28.4030   40.5380 H   0  0  0  0  0  0  0  0  0  0  0  0
   34.3180   29.4390   39.0460 H   0  0  0  0  0  0  0  0  0  0  0  0
   38.5870   29.0300   40.8470 O   0  0  0  0  0  0  0  0  0  0  0  0
   39.3340   30.4050   42.9410 O   0  0  0  0  0  0  0  0  0  0  0  0
   38.4150   29.2760   42.5110 P   0  0  1  0  0  0  0  0  0  0  0  0
   36.8180   29.7300   42.8330 O   0  0  0  0  0  0  0  0  0  0  0  0
   36.1860   29.3750   42.1600 H   0  0  0  0  0  0  0  0  0  0  0  0
   38.7430   27.8870   43.4300 O   0  0  0  0  0  0  0  0  0  0  0  0
   38.4830   26.6010   42.9890 C   0  0  0  0  0  0  0  0  0  0  0  0
   39.5090   25.6810   43.0660 C   0  0  0  0  0  0  0  0  0  0  0  0
   40.4860   25.9660   43.4620 H   0  0  0  0  0  0  0  0  0  0  0  0
   39.3060   24.3850   42.6390 C   0  0  0  0  0  3  0  0  0  0  0  0
   38.0420   24.0880   42.1450 C   0  0  0  0  0  0  0  0  0  0  0  0
   37.8670   23.0750   41.8070 H   0  0  0  0  0  0  0  0  0  0  0  0
   36.9890   24.9870   42.0530 C   0  0  0  0  0  0  0  0  0  0  0  0
   36.0390   24.6550   41.6520 H   0  0  0  0  0  0  0  0  0  0  0  0
   37.2140   26.2860   42.4880 C   0  0  0  0  0  3  0  0  0  0  0  0
  1  9  1  0  0  0  0
  1  2  1  0  0  0  0
  2 16  1  0  0  0  0
  3  2  2  0  0  0  0
  3  7  1  0  0  0  0
  4  3  1  0  0  0  0
  5  6  1  0  0  0  0
  5  4  2  0  0  0  0
  6  1  2  0  0  0  0
  8  5  1  0  0  0  0
  9 12  1  0  0  0  0
  9 11  1  0  0  0  0
 10  9  1  0  0  0  0
 12 14  1  0  0  0  0
 12 13  1  0  0  0  0
 15 12  1  0  0  0  0
 16 18  1  0  0  0  0
 18 19  1  0  0  0  0
 18 17  2  1  0  0  0
 18 21  1  0  0  0  0
 20 19  1  0  0  0  0
 22 23  1  0  0  0  0
 22 21  1  0  0  0  0
 23 24  1  0  0  0  0
 25 23  2  0  0  0  0
 26 25  1  0  0  0  0
 27 26  1  0  0  0  0
 28 26  2  0  0  0  0
 28 30  1  0  0  0  0
 29 28  1  0  0  0  0
 30 22  2  0  0  0  0
M  END
>  <minimizedAffinity>
-5.03931522

$$$$

 OpenBabel03252500553D

 30 31  0  0  0  0  0  0  0  0999 V2000
   38.5120   30.5550   38.4920 C   0  0  0  0  0  0  0  0  0  0  0  0
   38.6940   29.4860   39.3730 C   0  0  0  0  0  0  0  0  0  0  0  0
   39.9830   28.9190   39.4440 C   0  0  0  0  0  0  0  0  0  0  0  0
   40.9470   29.4510   38.6560 N   0  0  0  0  0  0  0  0  0  0  0  0
   40.7430   30.4740   37.8230 C   0  0  0  0  0  0  0  0  0  0  0  0
   39.5220   31.0220   37.7440 N   0  0  0  0  0  0  0  0  0  0  0  0
   40.0730   28.1140   40.1250 H   0  0  0  0  0  0  0  0  0  0  0  0
   41.6060   30.7910   37.2560 H   0  0  0  0  0  0  0  0  0  0  0  0
   37.2130   31.1930   38.3630 C   0  0  0  0  0  0  0  0  0  0  0  0
   36.8190   31.2670   37.3180 H   0  0  0  0  0  0  0  0  0  0  0  0
   36.4310   30.5750   38.8930 H   0  0  0  0  0  0  0  0  0  0  0  0
   37.2330   32.5330   39.0380 C   0  0  0  0  0  0  0  0  0  0  0  0
   37.8570   32.3920   39.9660 H   0  0  0  0  0  0  0  0  0  0  0  0
   36.2180   32.8820   39.3120 H   0  0  0  0  0  0  0  0  0  0  0  0
   37.7070   33.2470   38.3380 H   0  0  0  0  0  0  0  0  0  0  0  0
   37.5810   29.0850   40.0980 O   0  0  0  0  0  0  0  0  0  0  0  0
   38.3760   30.3620   42.2350 O   0  0  0  0  0  0  0  0  0  0  0  0
   37.2240   29.5410   41.6870 P   0  0  1  0  0  0  0  0  0  0  0  0
   35.8340   30.5050   41.6780 O   0  0  0  0  0  0  0  0  0  0  0  0
   35.2420   30.2990   40.9130 H   0  0  0  0  0  0  0  0  0  0  0  0
   36.9200   28.2220   42.7100 O   0  0  0  0  0  0  0  0  0  0  0  0
   37.7560   27.1220   42.8050 C   0  0  0  0  0  0  0  0  0  0  0  0
   37.3890   25.9820   42.1190 C   0  0  0  0  0  0  0  0  0  0  0  0
   36.4720   25.9580   41.5260 H   0  0  0  0  0  0  0  0  0  0  0  0
   38.1840   24.8560   42.1790 C   0  0  0  0  0  3  0  0  0  0  0  0
   39.3350   24.9530   42.9510 C   0  0  0  0  0  0  0  0  0  0  0  0
   39.9690   24.0770   43.0080 H   0  0  0  0  0  0  0  0  0  0  0  0
   39.7340   26.0810   43.6530 C   0  0  0  0  0  0  0  0  0  0  0  0
   40.6510   26.0540   44.2280 H   0  0  0  0  0  0  0  0  0  0  0  0
   38.9190   27.2040   43.5790 C   0  0  0  0  0  3  0  0  0  0  0  0
  1  2  1  0  0  0  0
  2  3  2  0  0  0  0
  2 16  1  0  0  0  0
  3  7  1  0  0  0  0
  4  3  1  0  0  0  0
  5  4  2  0  0  0  0
  6  5  1  0  0  0  0
  6  1  2  0  0  0  0
  8  5  1  0  0  0  0
  9  1  1  0  0  0  0
  9 11  1  0  0  0  0
  9 12  1  0  0  0  0
 10  9  1  0  0  0  0
 12 14  1  0  0  0  0
 12 13  1  0  0  0  0
 15 12  1  0  0  0  0
 16 18  1  0  0  0  0
 18 17  2  1  0  0  0
 18 21  1  0  0  0  0
 19 18  1  0  0  0  0
 20 19  1  0  0  0  0
 21 22  1  0  0  0  0
 22 30  1  0  0  0  0
 23 25  1  0  0  0  0
 23 22  2  0  0  0  0
 24 23  1  0  0  0  0
 25 26  2  0  0  0  0
 26 27  1  0  0  0  0
 26 28  1  0  0  0  0
 28 29  1  0  0  0  0
 30 28  2  0  0  0  0
M  END
>  <minimizedAffinity>
-4.88607311

$$$$

 OpenBabel03252500553D

 30 31  0  0  0  0  0  0  0  0999 V2000
   36.6960   29.1770   37.4610 C   0  0  0  0  0  0  0  0  0  0  0  0
   37.6740   30.0270   37.9850 C   0  0  0  0  0  0  0  0  0  0  0  0
   39.0210   29.6890   37.7430 C   0  0  0  0  0  0  0  0  0  0  0  0
   39.2660   28.5700   37.0210 N   0  0  0  0  0  0  0  0  0  0  0  0
   38.3100   27.7770   36.5330 C   0  0  0  0  0  0  0  0  0  0  0  0
   37.0250   28.0850   36.7560 N   0  0  0  0  0  0  0  0  0  0  0  0
   39.7250   30.3610   38.1580 H   0  0  0  0  0  0  0  0  0  0  0  0
   38.6570   26.9190   35.9770 H   0  0  0  0  0  0  0  0  0  0  0  0
   35.2850   29.4590   37.6680 C   0  0  0  0  0  0  0  0  0  0  0  0
   35.0360   30.5310   37.8660 H   0  0  0  0  0  0  0  0  0  0  0  0
   34.7080   29.2270   36.7250 H   0  0  0  0  0  0  0  0  0  0  0  0
   34.7380   28.5610   38.7380 C   0  0  0  0  0  0  0  0  0  0  0  0
   35.2390   27.5640   38.5790 H   0  0  0  0  0  0  0  0  0  0  0  0
   33.6380   28.4480   38.6720 H   0  0  0  0  0  0  0  0  0  0  0  0
   35.0190   29.0030   39.7140 H   0  0  0  0  0  0  0  0  0  0  0  0
   37.2200   31.1280   38.6980 O   0  0  0  0  0  0  0  0  0  0  0  0
   37.8520   32.7240   40.6690 O   0  0  0  0  0  0  0  0  0  0  0  0
   37.3320   31.3290   40.3730 P   0  0  1  0  0  0  0  0  0  0  0  0
   35.7870   31.1790   41.0450 O   0  0  0  0  0  0  0  0  0  0  0  0
   35.1960   30.6040   40.4980 H   0  0  0  0  0  0  0  0  0  0  0  0
   38.3260   30.1740   41.1210 O   0  0  0  0  0  0  0  0  0  0  0  0
   37.8400   29.0250   41.7230 C   0  0  0  0  0  0  0  0  0  0  0  0
   37.5540   27.9510   40.9050 C   0  0  0  0  0  0  0  0  0  0  0  0
   37.7070   28.0140   39.8250 H   0  0  0  0  0  0  0  0  0  0  0  0
   37.0670   26.7810   41.4510 C   0  0  0  0  0  3  0  0  0  0  0  0
   36.8940   26.7670   42.8290 C   0  0  0  0  0  0  0  0  0  0  0  0
   36.5130   25.8560   43.2710 H   0  0  0  0  0  0  0  0  0  0  0  0
   37.1710   27.8270   43.6800 C   0  0  0  0  0  0  0  0  0  0  0  0
   37.0010   27.7150   44.7430 H   0  0  0  0  0  0  0  0  0  0  0  0
   37.6610   28.9960   43.1100 C   0  0  0  0  0  3  0  0  0  0  0  0
  1  9  1  0  0  0  0
  1  2  1  0  0  0  0
  2 16  1  0  0  0  0
  3  2  2  0  0  0  0
  3  7  1  0  0  0  0
  4  3  1  0  0  0  0
  5  6  1  0  0  0  0
  5  4  2  0  0  0  0
  6  1  2  0  0  0  0
  8  5  1  0  0  0  0
  9 10  1  0  0  0  0
  9 12  1  0  0  0  0
 11  9  1  0  0  0  0
 12 15  1  0  0  0  0
 13 12  1  0  0  0  0
 14 12  1  0  0  0  0
 16 18  1  0  0  0  0
 18 17  2  1  0  0  0
 18 19  1  0  0  0  0
 18 21  1  0  0  0  0
 20 19  1  0  0  0  0
 21 22  1  0  0  0  0
 22 30  1  0  0  0  0
 23 25  1  0  0  0  0
 23 22  2  0  0  0  0
 24 23  1  0  0  0  0
 25 26  2  0  0  0  0
 26 27  1  0  0  0  0
 26 28  1  0  0  0  0
 28 29  1  0  0  0  0
 30 28  2  0  0  0  0
M  END
>  <minimizedAffinity>
-4.85500288

$$$$

 OpenBabel03252500553D

 30 31  0  0  0  0  0  0  0  0999 V2000
   38.8900   28.9470   42.0450 C   0  0  0  0  0  0  0  0  0  0  0  0
   37.7680   28.6380   41.2730 C   0  0  0  0  0  0  0  0  0  0  0  0
   36.8890   27.6550   41.7720 C   0  0  0  0  0  0  0  0  0  0  0  0
   37.1970   27.0860   42.9620 N   0  0  0  0  0  0  0  0  0  0  0  0
   38.2780   27.4020   43.6780 C   0  0  0  0  0  0  0  0  0  0  0  0
   39.1230   28.3340   43.2150 N   0  0  0  0  0  0  0  0  0  0  0  0
   36.0540   27.4550   41.1540 H   0  0  0  0  0  0  0  0  0  0  0  0
   38.3930   26.8640   44.6070 H   0  0  0  0  0  0  0  0  0  0  0  0
   39.8430   29.9490   41.5970 C   0  0  0  0  0  0  0  0  0  0  0  0
   40.8540   29.5580   41.3240 H   0  0  0  0  0  0  0  0  0  0  0  0
   39.4770   30.4190   40.6370 H   0  0  0  0  0  0  0  0  0  0  0  0
   39.9350   31.0530   42.6090 C   0  0  0  0  0  0  0  0  0  0  0  0
   38.8840   31.2020   42.9870 H   0  0  0  0  0  0  0  0  0  0  0  0
   40.3190   31.9960   42.1710 H   0  0  0  0  0  0  0  0  0  0  0  0
   40.6080   30.7050   43.4160 H   0  0  0  0  0  0  0  0  0  0  0  0
   37.6260   29.3330   40.0800 O   0  0  0  0  0  0  0  0  0  0  0  0
   35.3690   29.6300   38.7960 O   0  0  0  0  0  0  0  0  0  0  0  0
   36.3470   30.3690   39.6910 P   0  0  1  0  0  0  0  0  0  0  0  0
   35.5470   30.8060   41.1150 O   0  0  0  0  0  0  0  0  0  0  0  0
   36.1450   30.7810   41.9020 H   0  0  0  0  0  0  0  0  0  0  0  0
   36.8510   31.8000   38.9310 O   0  0  0  0  0  0  0  0  0  0  0  0
   38.0230   32.4630   39.2540 C   0  0  0  0  0  0  0  0  0  0  0  0
   37.9480   33.4640   40.2020 C   0  0  0  0  0  0  0  0  0  0  0  0
   36.9960   33.7160   40.6740 H   0  0  0  0  0  0  0  0  0  0  0  0
   39.0850   34.1580   40.5620 C   0  0  0  0  0  3  0  0  0  0  0  0
   40.2620   33.7890   39.9230 C   0  0  0  0  0  0  0  0  0  0  0  0
   41.1630   34.3240   40.1950 H   0  0  0  0  0  0  0  0  0  0  0  0
   40.3730   32.7900   38.9670 C   0  0  0  0  0  0  0  0  0  0  0  0
   41.3400   32.5780   38.5280 H   0  0  0  0  0  0  0  0  0  0  0  0
   39.2170   32.1030   38.6190 C   0  0  0  0  0  3  0  0  0  0  0  0
  1  6  1  0  0  0  0
  2  3  1  0  0  0  0
  2  1  2  0  0  0  0
  3  4  2  0  0  0  0
  4  5  1  0  0  0  0
  5  8  1  0  0  0  0
  6  5  2  0  0  0  0
  7  3  1  0  0  0  0
  9  1  1  0  0  0  0
  9 12  1  0  0  0  0
 10  9  1  0  0  0  0
 11  9  1  0  0  0  0
 12 13  1  0  0  0  0
 12 15  1  0  0  0  0
 14 12  1  0  0  0  0
 16  2  1  0  0  0  0
 18 17  2  6  0  0  0
 18 16  1  0  0  0  0
 18 19  1  0  0  0  0
 19 20  1  0  0  0  0
 21 22  1  0  0  0  0
 21 18  1  0  0  0  0
 22 23  1  0  0  0  0
 23 25  2  0  0  0  0
 23 24  1  0  0  0  0
 26 27  1  0  0  0  0
 26 25  1  0  0  0  0
 28 26  2  0  0  0  0
 29 28  1  0  0  0  0
 30 28  1  0  0  0  0
 30 22  2  0  0  0  0
M  END
>  <minimizedAffinity>
-4.78476477

$$$$

 OpenBabel03252500553D

 30 31  0  0  0  0  0  0  0  0999 V2000
   38.8180   24.9910   42.0970 C   0  0  0  0  0  0  0  0  0  0  0  0
   38.1030   25.9810   41.4170 C   0  0  0  0  0  0  0  0  0  0  0  0
   37.2910   25.5690   40.3410 C   0  0  0  0  0  0  0  0  0  0  0  0
   37.2620   24.2470   40.0480 N   0  0  0  0  0  0  0  0  0  0  0  0
   37.9560   23.3230   40.7160 C   0  0  0  0  0  0  0  0  0  0  0  0
   38.7330   23.7010   41.7410 N   0  0  0  0  0  0  0  0  0  0  0  0
   36.7690   26.3520   39.8570 H   0  0  0  0  0  0  0  0  0  0  0  0
   37.8340   22.3080   40.3680 H   0  0  0  0  0  0  0  0  0  0  0  0
   39.6770   25.3370   43.2170 C   0  0  0  0  0  0  0  0  0  0  0  0
   39.5390   26.3710   43.6210 H   0  0  0  0  0  0  0  0  0  0  0  0
   39.4350   24.6770   44.1000 H   0  0  0  0  0  0  0  0  0  0  0  0
   41.1100   25.0730   42.8610 C   0  0  0  0  0  0  0  0  0  0  0  0
   41.0980   24.1240   42.2520 H   0  0  0  0  0  0  0  0  0  0  0  0
   41.7490   24.9420   43.7560 H   0  0  0  0  0  0  0  0  0  0  0  0
   41.4640   25.9320   42.2600 H   0  0  0  0  0  0  0  0  0  0  0  0
   38.2650   27.2830   41.8700 O   0  0  0  0  0  0  0  0  0  0  0  0
   36.3180   27.3370   43.6130 O   0  0  0  0  0  0  0  0  0  0  0  0
   37.0770   28.2130   42.6340 P   0  0  1  0  0  0  0  0  0  0  0  0
   37.8310   29.4560   43.4990 O   0  0  0  0  0  0  0  0  0  0  0  0
   38.7010   29.7110   43.1040 H   0  0  0  0  0  0  0  0  0  0  0  0
   35.9910   28.9360   41.5480 O   0  0  0  0  0  0  0  0  0  0  0  0
   36.3890   29.7430   40.4950 C   0  0  0  0  0  0  0  0  0  0  0  0
   36.5580   31.0880   40.7520 C   0  0  0  0  0  0  0  0  0  0  0  0
   36.3830   31.4930   41.7510 H   0  0  0  0  0  0  0  0  0  0  0  0
   36.9530   31.9380   39.7390 C   0  0  0  0  0  3  0  0  0  0  0  0
   37.1580   31.3610   38.4920 C   0  0  0  0  0  0  0  0  0  0  0  0
   37.4670   32.0150   37.6880 H   0  0  0  0  0  0  0  0  0  0  0  0
   36.9970   30.0140   38.1990 C   0  0  0  0  0  0  0  0  0  0  0  0
   37.1820   29.6630   37.1920 H   0  0  0  0  0  0  0  0  0  0  0  0
   36.6000   29.1760   39.2330 C   0  0  0  0  0  3  0  0  0  0  0  0
  1  9  1  0  0  0  0
  2 16  1  0  0  0  0
  2  1  2  0  0  0  0
  3  2  1  0  0  0  0
  4  3  2  0  0  0  0
  4  5  1  0  0  0  0
  5  6  2  0  0  0  0
  6  1  1  0  0  0  0
  7  3  1  0  0  0  0
  8  5  1  0  0  0  0
  9 10  1  0  0  0  0
  9 11  1  0  0  0  0
 12  9  1  0  0  0  0
 12 14  1  0  0  0  0
 13 12  1  0  0  0  0
 15 12  1  0  0  0  0
 16 18  1  0  0  0  0
 18 19  1  0  0  0  0
 18 17  2  1  0  0  0
 20 19  1  0  0  0  0
 21 18  1  0  0  0  0
 22 23  1  0  0  0  0
 22 21  1  0  0  0  0
 23 24  1  0  0  0  0
 25 23  2  0  0  0  0
 26 25  1  0  0  0  0
 27 26  1  0  0  0  0
 28 26  2  0  0  0  0
 28 30  1  0  0  0  0
 29 28  1  0  0  0  0
 30 22  2  0  0  0  0
M  END
>  <minimizedAffinity>
-4.74027061

$$$$

 OpenBabel03252500553D

 30 31  0  0  0  0  0  0  0  0999 V2000
   36.9350   29.7380   38.9410 C   0  0  0  0  0  0  0  0  0  0  0  0
   37.6840   30.8300   39.3880 C   0  0  0  0  0  0  0  0  0  0  0  0
   38.1290   31.7500   38.4170 C   0  0  0  0  0  0  0  0  0  0  0  0
   37.7970   31.5090   37.1260 N   0  0  0  0  0  0  0  0  0  0  0  0
   37.0800   30.4550   36.7290 C   0  0  0  0  0  0  0  0  0  0  0  0
   36.6510   29.5720   37.6420 N   0  0  0  0  0  0  0  0  0  0  0  0
   38.6910   32.5600   38.8010 H   0  0  0  0  0  0  0  0  0  0  0  0
   36.8930   30.3930   35.6680 H   0  0  0  0  0  0  0  0  0  0  0  0
   36.4420   28.7460   39.8830 C   0  0  0  0  0  0  0  0  0  0  0  0
   36.5010   27.6850   39.5330 H   0  0  0  0  0  0  0  0  0  0  0  0
   37.0840   28.7510   40.8120 H   0  0  0  0  0  0  0  0  0  0  0  0
   35.0510   29.1040   40.3170 C   0  0  0  0  0  0  0  0  0  0  0  0
   35.0470   30.2270   40.4140 H   0  0  0  0  0  0  0  0  0  0  0  0
   34.7800   28.6390   41.2860 H   0  0  0  0  0  0  0  0  0  0  0  0
   34.3600   28.7650   39.5230 H   0  0  0  0  0  0  0  0  0  0  0  0
   37.9190   30.9030   40.7540 O   0  0  0  0  0  0  0  0  0  0  0  0
   40.4360   30.2550   40.4700 O   0  0  0  0  0  0  0  0  0  0  0  0
   39.4210   30.7040   41.5060 P   0  0  1  0  0  0  0  0  0  0  0  0
   39.9180   32.1930   42.1340 O   0  0  0  0  0  0  0  0  0  0  0  0
   39.1520   32.7780   42.3580 H   0  0  0  0  0  0  0  0  0  0  0  0
   39.3850   29.5970   42.7920 O   0  0  0  0  0  0  0  0  0  0  0  0
   38.5620   28.4830   42.8170 C   0  0  0  0  0  0  0  0  0  0  0  0
   38.9950   27.3560   42.1490 C   0  0  0  0  0  0  0  0  0  0  0  0
   39.9520   27.3510   41.6230 H   0  0  0  0  0  0  0  0  0  0  0  0
   38.2140   26.2180   42.1400 C   0  0  0  0  0  3  0  0  0  0  0  0
   37.0090   26.2910   42.8260 C   0  0  0  0  0  0  0  0  0  0  0  0
   36.3860   25.4060   42.8290 H   0  0  0  0  0  0  0  0  0  0  0  0
   36.5430   27.4070   43.5070 C   0  0  0  0  0  0  0  0  0  0  0  0
   35.5860   27.3610   44.0130 H   0  0  0  0  0  0  0  0  0  0  0  0
   37.3440   28.5410   43.5040 C   0  0  0  0  0  3  0  0  0  0  0  0
  1  2  1  0  0  0  0
  1  9  1  0  0  0  0
  2 16  1  0  0  0  0
  3  7  1  0  0  0  0
  3  2  2  0  0  0  0
  4  3  1  0  0  0  0
  5  4  2  0  0  0  0
  5  6  1  0  0  0  0
  6  1  2  0  0  0  0
  8  5  1  0  0  0  0
  9 12  1  0  0  0  0
  9 11  1  0  0  0  0
 10  9  1  0  0  0  0
 12 13  1  0  0  0  0
 12 14  1  0  0  0  0
 15 12  1  0  0  0  0
 16 18  1  0  0  0  0
 18 17  2  6  0  0  0
 18 19  1  0  0  0  0
 18 21  1  0  0  0  0
 19 20  1  0  0  0  0
 21 22  1  0  0  0  0
 22 30  1  0  0  0  0
 23 22  2  0  0  0  0
 24 23  1  0  0  0  0
 25 23  1  0  0  0  0
 25 26  2  0  0  0  0
 26 27  1  0  0  0  0
 26 28  1  0  0  0  0
 28 29  1  0  0  0  0
 30 28  2  0  0  0  0
M  END
>  <minimizedAffinity>
-4.66724873

$$$$

 OpenBabel03252500553D

 30 31  0  0  0  0  0  0  0  0999 V2000
   36.5960   27.7400   38.8320 C   0  0  0  0  0  0  0  0  0  0  0  0
   36.5520   29.1290   38.6840 C   0  0  0  0  0  0  0  0  0  0  0  0
   35.5710   29.6560   37.8200 C   0  0  0  0  0  0  0  0  0  0  0  0
   34.7450   28.7800   37.2010 N   0  0  0  0  0  0  0  0  0  0  0  0
   34.8120   27.4560   37.3610 C   0  0  0  0  0  0  0  0  0  0  0  0
   35.7400   26.9410   38.1790 N   0  0  0  0  0  0  0  0  0  0  0  0
   35.5750   30.7110   37.7400 H   0  0  0  0  0  0  0  0  0  0  0  0
   34.0880   26.8830   36.8020 H   0  0  0  0  0  0  0  0  0  0  0  0
   37.5800   27.1210   39.7050 C   0  0  0  0  0  0  0  0  0  0  0  0
   38.5460   26.8440   39.2140 H   0  0  0  0  0  0  0  0  0  0  0  0
   37.8950   27.8550   40.5040 H   0  0  0  0  0  0  0  0  0  0  0  0
   36.9680   25.9490   40.4130 C   0  0  0  0  0  0  0  0  0  0  0  0
   35.9120   26.2630   40.6550 H   0  0  0  0  0  0  0  0  0  0  0  0
   37.5100   25.6890   41.3440 H   0  0  0  0  0  0  0  0  0  0  0  0
   36.9830   25.0940   39.7100 H   0  0  0  0  0  0  0  0  0  0  0  0
   37.4860   29.8590   39.4070 O   0  0  0  0  0  0  0  0  0  0  0  0
   37.3140   32.3680   40.1190 O   0  0  0  0  0  0  0  0  0  0  0  0
   37.1320   30.9560   40.6440 P   0  0  1  0  0  0  0  0  0  0  0  0
   35.5160   30.7580   41.1030 O   0  0  0  0  0  0  0  0  0  0  0  0
   35.1910   29.8380   40.9380 H   0  0  0  0  0  0  0  0  0  0  0  0
   38.0850   30.7310   42.0310 O   0  0  0  0  0  0  0  0  0  0  0  0
   38.4380   29.4840   42.5200 C   0  0  0  0  0  0  0  0  0  0  0  0
   37.4630   28.7560   43.1720 C   0  0  0  0  0  0  0  0  0  0  0  0
   36.4540   29.1560   43.2920 H   0  0  0  0  0  0  0  0  0  0  0  0
   37.7600   27.5090   43.6800 C   0  0  0  0  0  3  0  0  0  0  0  0
   39.0610   27.0590   43.4940 C   0  0  0  0  0  0  0  0  0  0  0  0
   39.3090   26.0810   43.8870 H   0  0  0  0  0  0  0  0  0  0  0  0
   40.0650   27.7640   42.8450 C   0  0  0  0  0  0  0  0  0  0  0  0
   41.0500   27.3230   42.7520 H   0  0  0  0  0  0  0  0  0  0  0  0
   39.7450   29.0170   42.3400 C   0  0  0  0  0  3  0  0  0  0  0  0
  1  9  1  0  0  0  0
  2  1  1  0  0  0  0
  2 16  1  0  0  0  0
  3  2  2  0  0  0  0
  4  5  2  0  0  0  0
  4  3  1  0  0  0  0
  5  6  1  0  0  0  0
  6  1  2  0  0  0  0
  7  3  1  0  0  0  0
  8  5  1  0  0  0  0
  9 12  1  0  0  0  0
  9 11  1  0  0  0  0
 10  9  1  0  0  0  0
 12 13  1  0  0  0  0
 12 14  1  0  0  0  0
 15 12  1  0  0  0  0
 16 18  1  0  0  0  0
 18 17  2  6  0  0  0
 18 19  1  0  0  0  0
 18 21  1  0  0  0  0
 20 19  1  0  0  0  0
 21 22  1  0  0  0  0
 22 23  1  0  0  0  0
 23 24  1  0  0  0  0
 23 25  2  0  0  0  0
 26 25  1  0  0  0  0
 26 27  1  0  0  0  0
 28 26  2  0  0  0  0
 29 28  1  0  0  0  0
 30 22  2  0  0  0  0
 30 28  1  0  0  0  0
M  END
>  <minimizedAffinity>
-4.64168119

$$$$

 OpenBabel03252500553D

 30 31  0  0  0  0  0  0  0  0999 V2000
   35.5370   28.7230   37.4620 C   0  0  0  0  0  0  0  0  0  0  0  0
   36.4680   28.4430   38.4660 C   0  0  0  0  0  0  0  0  0  0  0  0
   37.7910   28.1690   38.0630 C   0  0  0  0  0  0  0  0  0  0  0  0
   38.0610   28.1990   36.7360 N   0  0  0  0  0  0  0  0  0  0  0  0
   37.1490   28.4690   35.7990 C   0  0  0  0  0  0  0  0  0  0  0  0
   35.8870   28.7300   36.1680 N   0  0  0  0  0  0  0  0  0  0  0  0
   38.4600   27.9640   38.8560 H   0  0  0  0  0  0  0  0  0  0  0  0
   37.5100   28.4560   34.7820 H   0  0  0  0  0  0  0  0  0  0  0  0
   34.1530   29.0150   37.7990 C   0  0  0  0  0  0  0  0  0  0  0  0
   33.7620   28.4890   38.7050 H   0  0  0  0  0  0  0  0  0  0  0  0
   34.0490   30.1070   38.0660 H   0  0  0  0  0  0  0  0  0  0  0  0
   33.2770   28.7780   36.6050 C   0  0  0  0  0  0  0  0  0  0  0  0
   33.8750   29.1350   35.7180 H   0  0  0  0  0  0  0  0  0  0  0  0
   32.3200   29.3330   36.6670 H   0  0  0  0  0  0  0  0  0  0  0  0
   33.0840   27.6890   36.5480 H   0  0  0  0  0  0  0  0  0  0  0  0
   35.9970   28.4620   39.7710 O   0  0  0  0  0  0  0  0  0  0  0  0
   37.9510   29.9850   40.6050 O   0  0  0  0  0  0  0  0  0  0  0  0
   36.6040   29.4240   41.0230 P   0  0  1  0  0  0  0  0  0  0  0  0
   35.5420   30.7140   41.2830 O   0  0  0  0  0  0  0  0  0  0  0  0
   34.6130   30.4900   41.0290 H   0  0  0  0  0  0  0  0  0  0  0  0
   36.7600   28.5900   42.4930 O   0  0  0  0  0  0  0  0  0  0  0  0
   37.6400   27.5380   42.6830 C   0  0  0  0  0  0  0  0  0  0  0  0
   38.7770   27.7850   43.4270 C   0  0  0  0  0  0  0  0  0  0  0  0
   38.9660   28.7760   43.8450 H   0  0  0  0  0  0  0  0  0  0  0  0
   39.6880   26.7730   43.6470 C   0  0  0  0  0  3  0  0  0  0  0  0
   39.3890   25.5380   43.0870 C   0  0  0  0  0  0  0  0  0  0  0  0
   40.0950   24.7350   43.2520 H   0  0  0  0  0  0  0  0  0  0  0  0
   38.2570   25.2550   42.3350 C   0  0  0  0  0  0  0  0  0  0  0  0
   38.1160   24.2560   41.9420 H   0  0  0  0  0  0  0  0  0  0  0  0
   37.3520   26.2870   42.1250 C   0  0  0  0  0  3  0  0  0  0  0  0
  1  9  1  0  0  0  0
  1  2  1  0  0  0  0
  2 16  1  0  0  0  0
  3  2  2  0  0  0  0
  3  7  1  0  0  0  0
  4  3  1  0  0  0  0
  5  6  1  0  0  0  0
  5  4  2  0  0  0  0
  6  1  2  0  0  0  0
  8  5  1  0  0  0  0
  9 11  1  0  0  0  0
  9 10  1  0  0  0  0
 12 14  1  0  0  0  0
 12  9  1  0  0  0  0
 13 12  1  0  0  0  0
 15 12  1  0  0  0  0
 16 18  1  0  0  0  0
 18 17  2  6  0  0  0
 18 19  1  0  0  0  0
 18 21  1  0  0  0  0
 20 19  1  0  0  0  0
 21 22  1  0  0  0  0
 22 23  1  0  0  0  0
 23 25  2  0  0  0  0
 23 24  1  0  0  0  0
 26 27  1  0  0  0  0
 26 25  1  0  0  0  0
 28 26  2  0  0  0  0
 29 28  1  0  0  0  0
 30 28  1  0  0  0  0
 30 22  2  0  0  0  0
M  END
>  <minimizedAffinity>
-4.62437105

$$$$

 OpenBabel03252500553D

 30 31  0  0  0  0  0  0  0  0999 V2000
   40.1330   29.8280   38.4090 C   0  0  0  0  0  0  0  0  0  0  0  0
   39.2970   30.9480   38.4190 C   0  0  0  0  0  0  0  0  0  0  0  0
   39.7600   32.1060   37.7630 C   0  0  0  0  0  0  0  0  0  0  0  0
   40.9780   32.0480   37.1730 N   0  0  0  0  0  0  0  0  0  0  0  0
   41.7550   30.9630   37.1810 C   0  0  0  0  0  0  0  0  0  0  0  0
   41.3280   29.8540   37.8010 N   0  0  0  0  0  0  0  0  0  0  0  0
   39.0950   32.9280   37.7960 H   0  0  0  0  0  0  0  0  0  0  0  0
   42.7010   31.0650   36.6690 H   0  0  0  0  0  0  0  0  0  0  0  0
   39.7250   28.5960   39.0640 C   0  0  0  0  0  0  0  0  0  0  0  0
   38.6200   28.4420   39.1450 H   0  0  0  0  0  0  0  0  0  0  0  0
   40.0680   27.7100   38.4540 H   0  0  0  0  0  0  0  0  0  0  0  0
   40.3950   28.4830   40.4010 C   0  0  0  0  0  0  0  0  0  0  0  0
   41.4370   28.8870   40.2510 H   0  0  0  0  0  0  0  0  0  0  0  0
   40.4410   27.4370   40.7630 H   0  0  0  0  0  0  0  0  0  0  0  0
   39.8200   29.1080   41.1110 H   0  0  0  0  0  0  0  0  0  0  0  0
   38.0830   30.8090   39.0780 O   0  0  0  0  0  0  0  0  0  0  0  0
   38.9560   31.8760   41.2990 O   0  0  0  0  0  0  0  0  0  0  0  0
   37.6800   31.5240   40.5570 P   0  0  1  0  0  0  0  0  0  0  0  0
   36.8220   32.9500   40.2560 O   0  0  0  0  0  0  0  0  0  0  0  0
   36.3350   32.9190   39.3960 H   0  0  0  0  0  0  0  0  0  0  0  0
   36.7010   30.5380   41.5320 O   0  0  0  0  0  0  0  0  0  0  0  0
   37.0630   29.2650   41.9370 C   0  0  0  0  0  0  0  0  0  0  0  0
   36.6360   28.2040   41.1640 C   0  0  0  0  0  0  0  0  0  0  0  0
   36.0340   28.3730   40.2680 H   0  0  0  0  0  0  0  0  0  0  0  0
   36.9680   26.9140   41.5210 C   0  0  0  0  0  3  0  0  0  0  0  0
   37.7330   26.7680   42.6710 C   0  0  0  0  0  0  0  0  0  0  0  0
   38.0010   25.7620   42.9640 H   0  0  0  0  0  0  0  0  0  0  0  0
   38.1790   27.8110   43.4710 C   0  0  0  0  0  0  0  0  0  0  0  0
   38.7730   27.5910   44.3500 H   0  0  0  0  0  0  0  0  0  0  0  0
   37.8350   29.1020   43.0930 C   0  0  0  0  0  3  0  0  0  0  0  0
  1  2  1  0  0  0  0
  1  9  1  0  0  0  0
  2 16  1  0  0  0  0
  3  7  1  0  0  0  0
  3  2  2  0  0  0  0
  4  5  2  0  0  0  0
  4  3  1  0  0  0  0
  5  6  1  0  0  0  0
  6  1  2  0  0  0  0
  8  5  1  0  0  0  0
  9 10  1  0  0  0  0
  9 12  1  0  0  0  0
 11  9  1  0  0  0  0
 12 14  1  0  0  0  0
 12 15  1  0  0  0  0
 13 12  1  0  0  0  0
 16 18  1  0  0  0  0
 18 17  2  1  0  0  0
 18 21  1  0  0  0  0
 19 18  1  0  0  0  0
 20 19  1  0  0  0  0
 21 22  1  0  0  0  0
 22 30  1  0  0  0  0
 23 25  1  0  0  0  0
 23 22  2  0  0  0  0
 24 23  1  0  0  0  0
 25 26  2  0  0  0  0
 26 27  1  0  0  0  0
 26 28  1  0  0  0  0
 28 29  1  0  0  0  0
 30 28  2  0  0  0  0
M  END
>  <minimizedAffinity>
-4.62092113

$$$$
