
 OpenBabel03252509323D

 27 28  0  0  0  0  0  0  0  0999 V2000
   50.4880   32.6250   42.3340 O   0  0  0  0  0  0  0  0  0  0  0  0
   49.4910   33.7410   42.2470 P   0  0  2  0  0  0  0  0  0  0  0  0
   49.9780   35.1050   43.1340 O   0  0  0  0  0  0  0  0  0  0  0  0
   50.8720   34.9360   43.5000 H   0  0  0  0  0  0  0  0  0  0  0  0
   48.0150   33.2440   42.9050 O   0  0  0  0  0  0  0  0  0  0  0  0
   47.1050   34.2850   42.6630 C   0  0  0  0  0  0  0  0  0  0  0  0
   46.4500   34.0340   41.7890 H   0  0  0  0  0  0  0  0  0  0  0  0
   47.6040   35.2450   42.4120 H   0  0  0  0  0  0  0  0  0  0  0  0
   45.4560   33.8980   45.9810 C   0  0  0  0  0  0  0  0  0  0  0  0
   46.3050   33.6570   44.8990 C   0  0  0  0  0  0  0  0  0  0  0  0
   46.2390   34.4970   43.8120 C   0  0  0  0  0  0  0  0  0  0  0  0
   45.3360   35.5480   43.8330 N   0  0  0  0  0  0  0  0  0  0  0  0
   44.5260   35.7430   44.9140 C   0  0  0  0  0  0  0  0  0  0  0  0
   44.5850   34.9370   45.9640 N   0  0  0  0  0  0  0  0  0  0  0  0
   45.5680   33.1940   46.7950 H   0  0  0  0  0  0  0  0  0  0  0  0
   47.0180   32.8420   44.8620 H   0  0  0  0  0  0  0  0  0  0  0  0
   43.8300   36.5870   44.8800 H   0  0  0  0  0  0  0  0  0  0  0  0
   49.2620   34.1590   40.6390 O   0  0  0  0  0  0  0  0  0  0  0  0
   48.5330   33.3410   39.7900 C   0  0  0  0  0  0  0  0  0  0  0  0
   49.2240   32.1550   39.5590 C   0  0  0  0  0  0  0  0  0  0  0  0
   50.1840   31.8620   39.9540 H   0  0  0  0  0  0  0  0  0  0  0  0
   48.6880   31.1640   38.7290 C   0  0  0  0  0  3  0  0  0  0  0  0
   47.4610   31.3690   38.1340 C   0  0  0  0  0  0  0  0  0  0  0  0
   46.9910   30.6580   37.4900 H   0  0  0  0  0  0  0  0  0  0  0  0
   46.7790   32.5670   38.3760 C   0  0  0  0  0  0  0  0  0  0  0  0
   45.8010   32.7800   37.9290 H   0  0  0  0  0  0  0  0  0  0  0  0
   47.3100   33.5410   39.1950 C   0  0  0  0  0  3  0  0  0  0  0  0
  2  1  2  1  0  0  0
  2  5  1  0  0  0  0
  2  3  1  0  0  0  0
  3  4  1  0  0  0  0
  6  5  1  0  0  0  0
  6 11  1  0  0  0  0
  7  6  1  0  0  0  0
  8  6  1  0  0  0  0
  9 15  1  0  0  0  0
 10  9  2  0  0  0  0
 11 12  2  0  0  0  0
 11 10  1  0  0  0  0
 12 13  1  0  0  0  0
 13 14  2  0  0  0  0
 14  9  1  0  0  0  0
 16 10  1  0  0  0  0
 17 13  1  0  0  0  0
 18  2  1  0  0  0  0
 19 18  1  0  0  0  0
 20 19  1  0  0  0  0
 20 21  1  0  0  0  0
 22 20  2  0  0  0  0
 23 25  2  0  0  0  0
 23 22  1  0  0  0  0
 24 23  1  0  0  0  0
 25 27  1  0  0  0  0
 26 25  1  0  0  0  0
 27 19  2  0  0  0  0
M  END
>  <minimizedAffinity>
-4.23279381

>  <minimizedRMSD>
0.829642594

$$$$
