
 OpenBabel03252509313D

 27 28  0  0  0  0  0  0  0  0999 V2000
   49.8830   33.0540   41.4910 O   0  0  0  0  0  0  0  0  0  0  0  0
   49.1120   34.0720   42.2780 P   0  0  2  0  0  0  0  0  0  0  0  0
   50.1290   35.2130   43.0170 O   0  0  0  0  0  0  0  0  0  0  0  0
   51.0520   35.0360   42.7390 H   0  0  0  0  0  0  0  0  0  0  0  0
   48.2630   33.3080   43.5240 O   0  0  0  0  0  0  0  0  0  0  0  0
   46.9220   33.2540   43.1120 C   0  0  0  0  0  0  0  0  0  0  0  0
   46.5520   32.1970   43.1270 H   0  0  0  0  0  0  0  0  0  0  0  0
   46.7740   33.6200   42.0740 H   0  0  0  0  0  0  0  0  0  0  0  0
   45.0340   34.3870   46.1180 C   0  0  0  0  0  0  0  0  0  0  0  0
   45.8570   33.6130   45.2970 C   0  0  0  0  0  0  0  0  0  0  0  0
   46.0710   34.0280   44.0030 C   0  0  0  0  0  0  0  0  0  0  0  0
   45.4640   35.1930   43.5660 N   0  0  0  0  0  0  0  0  0  0  0  0
   44.6670   35.9160   44.4050 C   0  0  0  0  0  0  0  0  0  0  0  0
   44.4570   35.5220   45.6530 N   0  0  0  0  0  0  0  0  0  0  0  0
   44.9160   33.9940   47.1190 H   0  0  0  0  0  0  0  0  0  0  0  0
   46.3420   32.6990   45.6190 H   0  0  0  0  0  0  0  0  0  0  0  0
   44.2100   36.8300   44.0100 H   0  0  0  0  0  0  0  0  0  0  0  0
   48.0220   34.8480   41.2670 O   0  0  0  0  0  0  0  0  0  0  0  0
   47.9560   34.5350   39.9180 C   0  0  0  0  0  0  0  0  0  0  0  0
   46.9270   33.6260   39.6870 C   0  0  0  0  0  0  0  0  0  0  0  0
   46.2510   33.1970   40.4100 H   0  0  0  0  0  0  0  0  0  0  0  0
   46.6640   33.1560   38.3960 C   0  0  0  0  0  3  0  0  0  0  0  0
   47.4340   33.6020   37.3430 C   0  0  0  0  0  0  0  0  0  0  0  0
   47.2890   33.2860   36.3320 H   0  0  0  0  0  0  0  0  0  0  0  0
   48.4640   34.5150   37.5910 C   0  0  0  0  0  0  0  0  0  0  0  0
   49.1060   34.9010   36.7900 H   0  0  0  0  0  0  0  0  0  0  0  0
   48.7210   34.9760   38.8650 C   0  0  0  0  0  3  0  0  0  0  0  0
  2  1  2  6  0  0  0
  2  3  1  0  0  0  0
  2  5  1  0  0  0  0
  4  3  1  0  0  0  0
  6  7  1  0  0  0  0
  6  5  1  0  0  0  0
  6 11  1  0  0  0  0
  8  6  1  0  0  0  0
  9 15  1  0  0  0  0
 10 16  1  0  0  0  0
 10  9  2  0  0  0  0
 11 10  1  0  0  0  0
 12 11  2  0  0  0  0
 12 13  1  0  0  0  0
 13 14  2  0  0  0  0
 14  9  1  0  0  0  0
 17 13  1  0  0  0  0
 18  2  1  0  0  0  0
 19 18  1  0  0  0  0
 20 19  1  0  0  0  0
 20 21  1  0  0  0  0
 22 20  2  0  0  0  0
 23 25  2  0  0  0  0
 23 22  1  0  0  0  0
 24 23  1  0  0  0  0
 25 27  1  0  0  0  0
 26 25  1  0  0  0  0
 27 19  2  0  0  0  0
M  END
>  <minimizedAffinity>
-5.04915237

>  <minimizedRMSD>
1.04458225

$$$$
