
 OpenBabel03242516473D

 42 46  0  0  1  0  0  0  0  0999 V2000
   37.3500   29.4620   42.0790 C   0  0  0  0  0  0  0  0  0  0  0  0
   36.1170   29.3300   41.5530 N   0  0  0  0  0  0  0  0  0  0  0  0
   36.0130   30.0140   40.4080 C   0  0  0  0  0  0  0  0  0  0  0  0
   37.2210   30.6010   40.2010 N   0  0  0  0  0  0  0  0  0  0  0  0
   38.0290   30.2820   41.1880 N   0  0  0  0  0  0  0  0  0  0  0  0
   35.1390   30.0880   39.7700 H   0  0  0  0  0  0  0  0  0  0  0  0
   39.6700   30.4150   38.3160 O   0  0  0  0  0  0  0  0  0  0  0  0
   39.0700   31.4030   38.8460 C   0  0  0  0  0  0  0  0  0  0  0  0
   37.6090   31.4490   39.0870 C   0  0  2  0  0  0  0  0  0  0  0  0
   37.3570   32.9130   39.4030 C   0  0  0  0  0  0  0  0  0  0  0  0
   38.6430   33.2870   40.1460 C   0  0  0  0  0  0  0  0  0  0  0  0
   39.6420   32.6450   39.3090 N   0  0  0  0  0  0  0  0  0  0  0  0
   37.0960   31.1240   38.1760 H   0  0  0  0  0  0  0  0  0  0  0  0
   37.3550   33.4350   38.4330 H   0  0  0  0  0  0  0  0  0  0  0  0
   36.4690   33.0760   40.0210 H   0  0  0  0  0  0  0  0  0  0  0  0
   38.7550   34.4010   40.0580 H   0  0  0  0  0  0  0  0  0  0  0  0
   38.6240   32.9190   41.1720 H   0  0  0  0  0  0  0  0  0  0  0  0
   40.9440   33.1170   38.9840 C   0  0  0  0  0  0  0  0  0  0  0  0
   41.7230   33.3470   40.1060 C   0  0  0  0  0  0  0  0  0  0  0  0
   41.3970   33.1920   41.1310 H   0  0  0  0  0  0  0  0  0  0  0  0
   43.0190   33.8080   39.9900 C   0  0  0  0  0  3  0  0  0  0  0  0
   43.5630   34.0480   38.7450 C   0  0  0  0  0  0  0  0  0  0  0  0
   44.5690   34.4090   38.5710 H   0  0  0  0  0  0  0  0  0  0  0  0
   42.7600   33.8080   37.6530 C   0  0  0  0  0  0  0  0  0  0  0  0
   43.1280   33.9780   36.6500 H   0  0  0  0  0  0  0  0  0  0  0  0
   41.4700   33.3510   37.7380 C   0  0  0  0  0  3  0  0  0  0  0  0
   38.3790   27.4940   43.4830 C   0  0  1  0  0  0  0  0  0  0  0  0
   37.9550   28.9080   43.2940 C   0  0  2  0  0  0  0  0  0  0  0  0
   37.1560   28.0280   44.1170 C   0  0  0  0  0  0  0  0  0  0  0  0
   39.2960   27.3740   44.0930 H   0  0  0  0  0  0  0  0  0  0  0  0
   38.5750   29.6920   43.8260 H   0  0  0  0  0  0  0  0  0  0  0  0
   36.1400   27.6780   43.8030 H   0  0  0  0  0  0  0  0  0  0  0  0
   37.1640   28.1900   45.2310 H   0  0  0  0  0  0  0  0  0  0  0  0
   37.1860   25.6900   42.2570 C   0  0  0  0  0  0  0  0  0  0  0  0
   38.3100   26.5030   42.3850 C   0  0  0  0  0  0  0  0  0  0  0  0
   39.3040   26.3400   41.4510 C   0  0  0  0  0  0  0  0  0  0  0  0
   39.1260   25.4100   40.4790 N   0  0  0  0  0  0  0  0  0  0  0  0
   38.0470   24.6460   40.3760 C   0  0  0  0  0  0  0  0  0  0  0  0
   37.0720   24.8000   41.2860 N   0  0  0  0  0  0  0  0  0  0  0  0
   36.3530   25.7400   42.9380 H   0  0  0  0  0  0  0  0  0  0  0  0
   40.1990   26.9460   41.5040 H   0  0  0  0  0  0  0  0  0  0  0  0
   38.0310   23.9480   39.5610 H   0  0  0  0  0  0  0  0  0  0  0  0
  1 28  1  0  0  0  0
  2  1  1  0  0  0  0
  3  2  2  0  0  0  0
  4  3  1  0  0  0  0
  4  5  1  0  0  0  0
  5  1  2  0  0  0  0
  6  3  1  0  0  0  0
  7  8  2  0  0  0  0
  8  9  1  0  0  0  0
  8 12  1  0  0  0  0
  9 13  1  6  0  0  0
  9 10  1  0  0  0  0
  9  4  1  0  0  0  0
 10 15  1  0  0  0  0
 10 11  1  0  0  0  0
 11 17  1  0  0  0  0
 12 11  1  0  0  0  0
 14 10  1  0  0  0  0
 16 11  1  0  0  0  0
 18 12  1  0  0  0  0
 18 19  1  0  0  0  0
 19 20  1  0  0  0  0
 21 19  2  0  0  0  0
 22 21  1  0  0  0  0
 23 22  1  0  0  0  0
 24 26  1  0  0  0  0
 24 22  2  0  0  0  0
 25 24  1  0  0  0  0
 26 18  2  0  0  0  0
 27 30  1  1  0  0  0
 27 29  1  0  0  0  0
 28 27  1  0  0  0  0
 28 31  1  1  0  0  0
 28 29  1  0  0  0  0
 29 33  1  0  0  0  0
 32 29  1  0  0  0  0
 34 35  1  0  0  0  0
 34 40  1  0  0  0  0
 35 27  1  0  0  0  0
 36 41  1  0  0  0  0
 36 35  2  0  0  0  0
 37 36  1  0  0  0  0
 38 37  2  0  0  0  0
 38 39  1  0  0  0  0
 39 34  2  0  0  0  0
 42 38  1  0  0  0  0
M  END
>  <minimizedAffinity>
-6.23565531

$$$$

 OpenBabel03242516473D

 42 46  0  0  1  0  0  0  0  0999 V2000
   36.8850   26.1540   41.2560 C   0  0  0  0  0  0  0  0  0  0  0  0
   36.7970   26.7870   40.0690 N   0  0  0  0  0  0  0  0  0  0  0  0
   36.9150   28.1100   40.2270 C   0  0  0  0  0  0  0  0  0  0  0  0
   37.0840   28.3250   41.5580 N   0  0  0  0  0  0  0  0  0  0  0  0
   37.0680   27.1690   42.1850 N   0  0  0  0  0  0  0  0  0  0  0  0
   36.8830   28.8640   39.4470 H   0  0  0  0  0  0  0  0  0  0  0  0
   36.4760   31.1950   40.5680 O   0  0  0  0  0  0  0  0  0  0  0  0
   37.4260   30.7110   41.2610 C   0  0  0  0  0  0  0  0  0  0  0  0
   37.2600   29.6010   42.2290 C   0  0  2  0  0  0  0  0  0  0  0  0
   38.5600   29.6290   43.0130 C   0  0  0  0  0  0  0  0  0  0  0  0
   39.5570   30.0520   41.9300 C   0  0  0  0  0  0  0  0  0  0  0  0
   38.8130   31.1100   41.2680 N   0  0  0  0  0  0  0  0  0  0  0  0
   36.3890   29.8150   42.8570 H   0  0  0  0  0  0  0  0  0  0  0  0
   38.4610   30.4580   43.7320 H   0  0  0  0  0  0  0  0  0  0  0  0
   38.8230   28.6620   43.4510 H   0  0  0  0  0  0  0  0  0  0  0  0
   40.4390   30.5030   42.4590 H   0  0  0  0  0  0  0  0  0  0  0  0
   39.8070   29.2140   41.2780 H   0  0  0  0  0  0  0  0  0  0  0  0
   39.3180   32.3220   40.7190 C   0  0  0  0  0  0  0  0  0  0  0  0
   40.4300   32.1210   39.9180 C   0  0  0  0  0  0  0  0  0  0  0  0
   40.8860   31.1550   39.7170 H   0  0  0  0  0  0  0  0  0  0  0  0
   41.0590   33.1810   39.2970 C   0  0  0  0  0  3  0  0  0  0  0  0
   40.5870   34.4670   39.4660 C   0  0  0  0  0  0  0  0  0  0  0  0
   41.0230   35.3490   39.0130 H   0  0  0  0  0  0  0  0  0  0  0  0
   39.4790   34.6270   40.2670 C   0  0  0  0  0  0  0  0  0  0  0  0
   39.0610   35.6100   40.4390 H   0  0  0  0  0  0  0  0  0  0  0  0
   38.8340   33.5940   40.8960 C   0  0  0  0  0  3  0  0  0  0  0  0
   38.0050   23.8520   41.8410 C   0  0  1  0  0  0  0  0  0  0  0  0
   36.8290   24.7330   41.6070 C   0  0  2  0  0  0  0  0  0  0  0  0
   37.2040   23.7630   40.6030 C   0  0  0  0  0  0  0  0  0  0  0  0
   37.8530   23.0970   42.6380 H   0  0  0  0  0  0  0  0  0  0  0  0
   35.9050   24.5080   42.2220 H   0  0  0  0  0  0  0  0  0  0  0  0
   37.6320   24.0650   39.6130 H   0  0  0  0  0  0  0  0  0  0  0  0
   36.5450   22.8620   40.4610 H   0  0  0  0  0  0  0  0  0  0  0  0
   40.0120   24.6590   40.6160 C   0  0  0  0  0  0  0  0  0  0  0  0
   39.3900   24.3750   41.8300 C   0  0  0  0  0  0  0  0  0  0  0  0
   40.1140   24.6200   42.9720 C   0  0  0  0  0  0  0  0  0  0  0  0
   41.3710   25.1150   42.8410 N   0  0  0  0  0  0  0  0  0  0  0  0
   41.9440   25.3780   41.6750 C   0  0  0  0  0  0  0  0  0  0  0  0
   41.2420   25.1400   40.5550 N   0  0  0  0  0  0  0  0  0  0  0  0
   39.5290   24.5010   39.6660 H   0  0  0  0  0  0  0  0  0  0  0  0
   39.6780   24.4170   43.9410 H   0  0  0  0  0  0  0  0  0  0  0  0
   42.9440   25.7660   41.7090 H   0  0  0  0  0  0  0  0  0  0  0  0
  1 28  1  0  0  0  0
  1  5  2  0  0  0  0
  2  3  2  0  0  0  0
  2  1  1  0  0  0  0
  3  4  1  0  0  0  0
  4  5  1  0  0  0  0
  4  9  1  0  0  0  0
  6  3  1  0  0  0  0
  7  8  2  0  0  0  0
  8 12  1  0  0  0  0
  8  9  1  0  0  0  0
  9 13  1  1  0  0  0
  9 10  1  0  0  0  0
 10 15  1  0  0  0  0
 10 14  1  0  0  0  0
 11 16  1  0  0  0  0
 11 10  1  0  0  0  0
 12 11  1  0  0  0  0
 17 11  1  0  0  0  0
 18 26  1  0  0  0  0
 18 12  1  0  0  0  0
 19 18  2  0  0  0  0
 20 19  1  0  0  0  0
 21 22  2  0  0  0  0
 21 19  1  0  0  0  0
 22 24  1  0  0  0  0
 23 22  1  0  0  0  0
 24 25  1  0  0  0  0
 24 26  2  0  0  0  0
 27 30  1  1  0  0  0
 28 27  1  0  0  0  0
 28 31  1  1  0  0  0
 29 28  1  0  0  0  0
 29 27  1  0  0  0  0
 32 29  1  0  0  0  0
 33 29  1  0  0  0  0
 34 35  1  0  0  0  0
 35 27  1  0  0  0  0
 35 36  2  0  0  0  0
 36 41  1  0  0  0  0
 37 36  1  0  0  0  0
 38 42  1  0  0  0  0
 38 37  2  0  0  0  0
 39 34  2  0  0  0  0
 39 38  1  0  0  0  0
 40 34  1  0  0  0  0
M  END
>  <minimizedAffinity>
-6.14867401

$$$$

 OpenBabel03242516473D

 42 46  0  0  1  0  0  0  0  0999 V2000
   39.7870   33.0210   40.6640 C   0  0  0  0  0  0  0  0  0  0  0  0
   40.4660   32.0390   41.2910 N   0  0  0  0  0  0  0  0  0  0  0  0
   39.6400   31.0580   41.6710 C   0  0  0  0  0  0  0  0  0  0  0  0
   38.3950   31.4290   41.2720 N   0  0  0  0  0  0  0  0  0  0  0  0
   38.4650   32.5960   40.6710 N   0  0  0  0  0  0  0  0  0  0  0  0
   39.9090   30.1460   42.1940 H   0  0  0  0  0  0  0  0  0  0  0  0
   37.7100   29.1400   43.2420 O   0  0  0  0  0  0  0  0  0  0  0  0
   37.3970   29.3470   42.0270 C   0  0  0  0  0  0  0  0  0  0  0  0
   37.1560   30.6920   41.4540 C   0  0  2  0  0  0  0  0  0  0  0  0
   36.5040   30.3860   40.1170 C   0  0  0  0  0  0  0  0  0  0  0  0
   37.2240   29.0940   39.7180 C   0  0  0  0  0  0  0  0  0  0  0  0
   37.2120   28.3710   40.9790 N   0  0  0  0  0  0  0  0  0  0  0  0
   36.4910   31.2420   42.1270 H   0  0  0  0  0  0  0  0  0  0  0  0
   35.4540   30.1400   40.3430 H   0  0  0  0  0  0  0  0  0  0  0  0
   36.6470   31.1760   39.3740 H   0  0  0  0  0  0  0  0  0  0  0  0
   36.5560   28.5630   38.9880 H   0  0  0  0  0  0  0  0  0  0  0  0
   38.2240   29.3040   39.3390 H   0  0  0  0  0  0  0  0  0  0  0  0
   37.0520   26.9730   41.1840 C   0  0  0  0  0  0  0  0  0  0  0  0
   36.9040   26.2740   39.9970 C   0  0  0  0  0  0  0  0  0  0  0  0
   36.9060   26.7230   39.0070 H   0  0  0  0  0  0  0  0  0  0  0  0
   36.7360   24.9040   39.9940 C   0  0  0  0  0  3  0  0  0  0  0  0
   36.7130   24.2040   41.1830 C   0  0  0  0  0  0  0  0  0  0  0  0
   36.5870   23.1310   41.2650 H   0  0  0  0  0  0  0  0  0  0  0  0
   36.8640   24.9310   42.3420 C   0  0  0  0  0  0  0  0  0  0  0  0
   36.8540   24.4400   43.3060 H   0  0  0  0  0  0  0  0  0  0  0  0
   37.0320   26.2920   42.3750 C   0  0  0  0  0  3  0  0  0  0  0  0
   41.2530   34.4150   38.9890 C   0  0  1  0  0  0  0  0  0  0  0  0
   40.2320   34.2810   40.0630 C   0  0  2  0  0  0  0  0  0  0  0  0
   41.5520   34.7690   40.3920 C   0  0  0  0  0  0  0  0  0  0  0  0
   41.0410   35.2230   38.2600 H   0  0  0  0  0  0  0  0  0  0  0  0
   39.3900   35.0380   40.0490 H   0  0  0  0  0  0  0  0  0  0  0  0
   42.2760   34.1680   41.0000 H   0  0  0  0  0  0  0  0  0  0  0  0
   41.6670   35.8590   40.6500 H   0  0  0  0  0  0  0  0  0  0  0  0
   43.1540   32.8360   38.7070 C   0  0  0  0  0  0  0  0  0  0  0  0
   41.8690   33.2330   38.3420 C   0  0  0  0  0  0  0  0  0  0  0  0
   41.2310   32.4750   37.3900 C   0  0  0  0  0  0  0  0  0  0  0  0
   41.8880   31.4040   36.8770 N   0  0  0  0  0  0  0  0  0  0  0  0
   43.1110   31.0440   37.2390 C   0  0  0  0  0  0  0  0  0  0  0  0
   43.7400   31.7820   38.1680 N   0  0  0  0  0  0  0  0  0  0  0  0
   43.7360   33.3650   39.4430 H   0  0  0  0  0  0  0  0  0  0  0  0
   40.2320   32.7400   37.0710 H   0  0  0  0  0  0  0  0  0  0  0  0
   43.5170   30.1760   36.7560 H   0  0  0  0  0  0  0  0  0  0  0  0
  1  5  2  0  0  0  0
  1  2  1  0  0  0  0
  2  3  2  0  0  0  0
  3  6  1  0  0  0  0
  4  9  1  0  0  0  0
  4  3  1  0  0  0  0
  5  4  1  0  0  0  0
  8  7  2  0  0  0  0
  9  8  1  0  0  0  0
  9 13  1  1  0  0  0
 10 14  1  0  0  0  0
 10  9  1  0  0  0  0
 11 10  1  0  0  0  0
 11 12  1  0  0  0  0
 12 18  1  0  0  0  0
 12  8  1  0  0  0  0
 15 10  1  0  0  0  0
 16 11  1  0  0  0  0
 17 11  1  0  0  0  0
 18 26  1  0  0  0  0
 19 18  2  0  0  0  0
 20 19  1  0  0  0  0
 21 19  1  0  0  0  0
 21 22  2  0  0  0  0
 22 23  1  0  0  0  0
 22 24  1  0  0  0  0
 24 26  2  0  0  0  0
 24 25  1  0  0  0  0
 27 30  1  6  0  0  0
 27 28  1  0  0  0  0
 27 29  1  0  0  0  0
 28 31  1  6  0  0  0
 28 29  1  0  0  0  0
 28  1  1  0  0  0  0
 29 33  1  0  0  0  0
 29 32  1  0  0  0  0
 34 40  1  0  0  0  0
 35 34  1  0  0  0  0
 35 27  1  0  0  0  0
 36 35  2  0  0  0  0
 37 38  2  0  0  0  0
 37 36  1  0  0  0  0
 38 39  1  0  0  0  0
 39 34  2  0  0  0  0
 41 36  1  0  0  0  0
 42 38  1  0  0  0  0
M  END
>  <minimizedAffinity>
-6.13252831

$$$$

 OpenBabel03242516473D

 42 46  0  0  1  0  0  0  0  0999 V2000
   37.5390   32.6440   39.6590 C   0  0  0  0  0  0  0  0  0  0  0  0
   37.2110   31.9800   38.5320 N   0  0  0  0  0  0  0  0  0  0  0  0
   36.6620   30.7950   38.8230 C   0  0  0  0  0  0  0  0  0  0  0  0
   36.6400   30.7030   40.1780 N   0  0  0  0  0  0  0  0  0  0  0  0
   37.1590   31.7970   40.6920 N   0  0  0  0  0  0  0  0  0  0  0  0
   36.3040   30.0530   38.1170 H   0  0  0  0  0  0  0  0  0  0  0  0
   37.6100   29.6180   42.9110 O   0  0  0  0  0  0  0  0  0  0  0  0
   37.1820   29.0400   41.8630 C   0  0  0  0  0  0  0  0  0  0  0  0
   36.1340   29.6010   40.9790 C   0  0  2  0  0  0  0  0  0  0  0  0
   35.7530   28.4210   40.1020 C   0  0  0  0  0  0  0  0  0  0  0  0
   37.1000   27.7070   39.9550 C   0  0  0  0  0  0  0  0  0  0  0  0
   37.5950   27.7680   41.3190 N   0  0  0  0  0  0  0  0  0  0  0  0
   35.3020   29.9450   41.6010 H   0  0  0  0  0  0  0  0  0  0  0  0
   35.0930   27.7890   40.7170 H   0  0  0  0  0  0  0  0  0  0  0  0
   35.3430   28.7170   39.1320 H   0  0  0  0  0  0  0  0  0  0  0  0
   36.8740   26.6380   39.6960 H   0  0  0  0  0  0  0  0  0  0  0  0
   37.7370   28.2170   39.2310 H   0  0  0  0  0  0  0  0  0  0  0  0
   38.3450   26.7840   42.0220 C   0  0  0  0  0  0  0  0  0  0  0  0
   38.0560   25.4950   41.6050 C   0  0  0  0  0  0  0  0  0  0  0  0
   37.3380   25.2390   40.8300 H   0  0  0  0  0  0  0  0  0  0  0  0
   38.6860   24.4060   42.1720 C   0  0  0  0  0  3  0  0  0  0  0  0
   39.6220   24.5850   43.1710 C   0  0  0  0  0  0  0  0  0  0  0  0
   40.1590   23.7840   43.6640 H   0  0  0  0  0  0  0  0  0  0  0  0
   39.8850   25.8790   43.5580 C   0  0  0  0  0  0  0  0  0  0  0  0
   40.6080   26.0860   44.3350 H   0  0  0  0  0  0  0  0  0  0  0  0
   39.2750   26.9800   43.0130 C   0  0  0  0  0  3  0  0  0  0  0  0
   39.6040   34.2560   39.8520 C   0  0  1  0  0  0  0  0  0  0  0  0
   38.1450   33.9610   39.8710 C   0  0  2  0  0  0  0  0  0  0  0  0
   38.8390   34.2030   41.1150 C   0  0  0  0  0  0  0  0  0  0  0  0
   39.8600   35.2420   39.4160 H   0  0  0  0  0  0  0  0  0  0  0  0
   37.4630   34.7820   39.4910 H   0  0  0  0  0  0  0  0  0  0  0  0
   39.0170   33.3920   41.8670 H   0  0  0  0  0  0  0  0  0  0  0  0
   38.6410   35.1710   41.6550 H   0  0  0  0  0  0  0  0  0  0  0  0
   41.0070   33.0550   38.1880 C   0  0  0  0  0  0  0  0  0  0  0  0
   40.6070   33.2220   39.5120 C   0  0  0  0  0  0  0  0  0  0  0  0
   41.1960   32.4050   40.4460 C   0  0  0  0  0  0  0  0  0  0  0  0
   42.1160   31.5020   40.0200 N   0  0  0  0  0  0  0  0  0  0  0  0
   42.4810   31.3590   38.7540 C   0  0  0  0  0  0  0  0  0  0  0  0
   41.9080   32.1550   37.8360 N   0  0  0  0  0  0  0  0  0  0  0  0
   40.6040   33.6450   37.3820 H   0  0  0  0  0  0  0  0  0  0  0  0
   40.9220   32.4930   41.4890 H   0  0  0  0  0  0  0  0  0  0  0  0
   43.2190   30.6070   38.5500 H   0  0  0  0  0  0  0  0  0  0  0  0
  1 28  1  0  0  0  0
  1  5  2  0  0  0  0
  2  3  2  0  0  0  0
  2  1  1  0  0  0  0
  3  4  1  0  0  0  0
  4  5  1  0  0  0  0
  4  9  1  0  0  0  0
  6  3  1  0  0  0  0
  8  7  2  0  0  0  0
  9 13  1  1  0  0  0
  9  8  1  0  0  0  0
 10 14  1  0  0  0  0
 10  9  1  0  0  0  0
 11 10  1  0  0  0  0
 11 12  1  0  0  0  0
 12  8  1  0  0  0  0
 12 18  1  0  0  0  0
 15 10  1  0  0  0  0
 16 11  1  0  0  0  0
 17 11  1  0  0  0  0
 18 26  1  0  0  0  0
 19 18  2  0  0  0  0
 19 21  1  0  0  0  0
 20 19  1  0  0  0  0
 21 22  2  0  0  0  0
 22 24  1  0  0  0  0
 22 23  1  0  0  0  0
 24 25  1  0  0  0  0
 26 24  2  0  0  0  0
 27 30  1  6  0  0  0
 27 28  1  0  0  0  0
 27 29  1  0  0  0  0
 28 31  1  6  0  0  0
 28 29  1  0  0  0  0
 29 33  1  0  0  0  0
 29 32  1  0  0  0  0
 34 35  1  0  0  0  0
 35 27  1  0  0  0  0
 35 36  2  0  0  0  0
 36 41  1  0  0  0  0
 37 36  1  0  0  0  0
 38 37  2  0  0  0  0
 39 34  2  0  0  0  0
 39 38  1  0  0  0  0
 40 34  1  0  0  0  0
 42 38  1  0  0  0  0
M  END
>  <minimizedAffinity>
-6.13058853

$$$$

 OpenBabel03242516473D

 42 46  0  0  1  0  0  0  0  0999 V2000
   36.6020   30.7300   40.0300 C   0  0  0  0  0  0  0  0  0  0  0  0
   35.6530   29.7730   40.0430 N   0  0  0  0  0  0  0  0  0  0  0  0
   35.7810   28.9920   41.1210 C   0  0  0  0  0  0  0  0  0  0  0  0
   36.8470   29.4680   41.8160 N   0  0  0  0  0  0  0  0  0  0  0  0
   37.3470   30.5040   41.1800 N   0  0  0  0  0  0  0  0  0  0  0  0
   35.1580   28.1450   41.3890 H   0  0  0  0  0  0  0  0  0  0  0  0
   39.6880   29.7310   43.0180 O   0  0  0  0  0  0  0  0  0  0  0  0
   38.8530   28.7730   42.9960 C   0  0  0  0  0  0  0  0  0  0  0  0
   37.3840   28.9550   43.0650 C   0  0  2  0  0  0  0  0  0  0  0  0
   36.8740   27.5520   43.3420 C   0  0  0  0  0  0  0  0  0  0  0  0
   37.8770   26.7050   42.5530 C   0  0  0  0  0  0  0  0  0  0  0  0
   39.1260   27.3580   42.9050 N   0  0  0  0  0  0  0  0  0  0  0  0
   37.1580   29.6500   43.8800 H   0  0  0  0  0  0  0  0  0  0  0  0
   37.0440   27.3770   44.4160 H   0  0  0  0  0  0  0  0  0  0  0  0
   35.8470   27.3890   43.0000 H   0  0  0  0  0  0  0  0  0  0  0  0
   37.8620   25.6780   43.0080 H   0  0  0  0  0  0  0  0  0  0  0  0
   37.6530   26.7250   41.4860 H   0  0  0  0  0  0  0  0  0  0  0  0
   40.3960   26.7550   43.1260 C   0  0  0  0  0  0  0  0  0  0  0  0
   40.7970   25.9550   42.0690 C   0  0  0  0  0  0  0  0  0  0  0  0
   40.2220   25.7890   41.1610 H   0  0  0  0  0  0  0  0  0  0  0  0
   42.0040   25.2860   42.1010 C   0  0  0  0  0  3  0  0  0  0  0  0
   42.8360   25.4050   43.1950 C   0  0  0  0  0  0  0  0  0  0  0  0
   43.7960   24.9140   43.2960 H   0  0  0  0  0  0  0  0  0  0  0  0
   42.4050   26.2090   44.2260 C   0  0  0  0  0  0  0  0  0  0  0  0
   43.0120   26.3430   45.1110 H   0  0  0  0  0  0  0  0  0  0  0  0
   41.2120   26.8850   44.2220 C   0  0  0  0  0  3  0  0  0  0  0  0
   37.5000   31.6620   37.7440 C   0  0  1  0  0  0  0  0  0  0  0  0
   36.8760   31.8170   39.0860 C   0  0  2  0  0  0  0  0  0  0  0  0
   38.2490   32.2220   38.8880 C   0  0  0  0  0  0  0  0  0  0  0  0
   37.0940   32.3480   36.9750 H   0  0  0  0  0  0  0  0  0  0  0  0
   36.1040   32.6390   39.1870 H   0  0  0  0  0  0  0  0  0  0  0  0
   39.1070   31.6670   39.3470 H   0  0  0  0  0  0  0  0  0  0  0  0
   38.4830   33.3230   38.8800 H   0  0  0  0  0  0  0  0  0  0  0  0
   39.0290   29.7130   37.5250 C   0  0  0  0  0  0  0  0  0  0  0  0
   37.8280   30.3320   37.1830 C   0  0  0  0  0  0  0  0  0  0  0  0
   36.9950   29.6440   36.3340 C   0  0  0  0  0  0  0  0  0  0  0  0
   37.3940   28.4240   35.8930 N   0  0  0  0  0  0  0  0  0  0  0  0
   38.5410   27.8540   36.2320 C   0  0  0  0  0  0  0  0  0  0  0  0
   39.3610   28.5210   37.0610 N   0  0  0  0  0  0  0  0  0  0  0  0
   39.7490   30.1700   38.1830 H   0  0  0  0  0  0  0  0  0  0  0  0
   36.0510   30.0790   36.0360 H   0  0  0  0  0  0  0  0  0  0  0  0
   38.7370   26.8850   35.8130 H   0  0  0  0  0  0  0  0  0  0  0  0
  1  2  1  0  0  0  0
  1  5  2  0  0  0  0
  2  3  2  0  0  0  0
  3  6  1  0  0  0  0
  3  4  1  0  0  0  0
  4  9  1  0  0  0  0
  5  4  1  0  0  0  0
  8  7  2  0  0  0  0
  8  9  1  0  0  0  0
  9 10  1  0  0  0  0
  9 13  1  1  0  0  0
 10 14  1  0  0  0  0
 11 12  1  0  0  0  0
 11 16  1  0  0  0  0
 11 10  1  0  0  0  0
 12  8  1  0  0  0  0
 12 18  1  0  0  0  0
 15 10  1  0  0  0  0
 17 11  1  0  0  0  0
 18 26  1  0  0  0  0
 19 21  1  0  0  0  0
 19 18  2  0  0  0  0
 20 19  1  0  0  0  0
 21 22  2  0  0  0  0
 22 23  1  0  0  0  0
 22 24  1  0  0  0  0
 24 25  1  0  0  0  0
 26 24  2  0  0  0  0
 27 30  1  6  0  0  0
 27 29  1  0  0  0  0
 27 28  1  0  0  0  0
 28 31  1  1  0  0  0
 28  1  1  0  0  0  0
 29 28  1  0  0  0  0
 29 32  1  0  0  0  0
 33 29  1  0  0  0  0
 34 40  1  0  0  0  0
 35 34  1  0  0  0  0
 35 27  1  0  0  0  0
 36 35  2  0  0  0  0
 37 38  2  0  0  0  0
 37 36  1  0  0  0  0
 38 39  1  0  0  0  0
 39 34  2  0  0  0  0
 41 36  1  0  0  0  0
 42 38  1  0  0  0  0
M  END
>  <minimizedAffinity>
-6.06282854

$$$$

 OpenBabel03242516473D

 42 46  0  0  1  0  0  0  0  0999 V2000
   36.8100   25.4890   39.3450 C   0  0  0  0  0  0  0  0  0  0  0  0
   37.6820   25.4890   38.3170 N   0  0  0  0  0  0  0  0  0  0  0  0
   37.6100   26.6360   37.6330 C   0  0  0  0  0  0  0  0  0  0  0  0
   36.6600   27.3900   38.2470 N   0  0  0  0  0  0  0  0  0  0  0  0
   36.1730   26.7210   39.2680 N   0  0  0  0  0  0  0  0  0  0  0  0
   38.1930   26.9120   36.7610 H   0  0  0  0  0  0  0  0  0  0  0  0
   38.3110   29.8720   37.4100 O   0  0  0  0  0  0  0  0  0  0  0  0
   37.2700   29.7380   38.1270 C   0  0  0  0  0  0  0  0  0  0  0  0
   36.2190   28.7240   37.8760 C   0  0  2  0  0  0  0  0  0  0  0  0
   35.0750   29.1850   38.7620 C   0  0  0  0  0  0  0  0  0  0  0  0
   35.8350   29.7610   39.9610 C   0  0  0  0  0  0  0  0  0  0  0  0
   36.8880   30.5030   39.2900 N   0  0  0  0  0  0  0  0  0  0  0  0
   35.9600   28.7480   36.8130 H   0  0  0  0  0  0  0  0  0  0  0  0
   34.5960   30.0190   38.2250 H   0  0  0  0  0  0  0  0  0  0  0  0
   34.4030   28.3750   39.0580 H   0  0  0  0  0  0  0  0  0  0  0  0
   35.1420   30.4860   40.4660 H   0  0  0  0  0  0  0  0  0  0  0  0
   36.2010   28.9660   40.6110 H   0  0  0  0  0  0  0  0  0  0  0  0
   37.4600   31.7490   39.6730 C   0  0  0  0  0  0  0  0  0  0  0  0
   38.4580   31.6070   40.6230 C   0  0  0  0  0  0  0  0  0  0  0  0
   38.7840   30.6600   41.0450 H   0  0  0  0  0  0  0  0  0  0  0  0
   39.1300   32.7070   41.1180 C   0  0  0  0  0  3  0  0  0  0  0  0
   38.8160   33.9730   40.6690 C   0  0  0  0  0  0  0  0  0  0  0  0
   39.2970   34.8830   41.0060 H   0  0  0  0  0  0  0  0  0  0  0  0
   37.8210   34.0750   39.7240 C   0  0  0  0  0  0  0  0  0  0  0  0
   37.5290   35.0410   39.3340 H   0  0  0  0  0  0  0  0  0  0  0  0
   37.1360   33.0020   39.2160 C   0  0  0  0  0  3  0  0  0  0  0  0
   36.9330   24.5710   41.8030 C   0  0  1  0  0  0  0  0  0  0  0  0
   36.5200   24.4890   40.3760 C   0  0  2  0  0  0  0  0  0  0  0  0
   37.6050   23.6620   40.8520 C   0  0  0  0  0  0  0  0  0  0  0  0
   36.1900   24.1580   42.5140 H   0  0  0  0  0  0  0  0  0  0  0  0
   35.5310   23.9760   40.1700 H   0  0  0  0  0  0  0  0  0  0  0  0
   38.6670   23.8320   40.5390 H   0  0  0  0  0  0  0  0  0  0  0  0
   37.4240   22.5560   40.9590 H   0  0  0  0  0  0  0  0  0  0  0  0
   36.8710   26.8300   42.8400 C   0  0  0  0  0  0  0  0  0  0  0  0
   37.6210   25.7630   42.3510 C   0  0  0  0  0  0  0  0  0  0  0  0
   38.9880   25.8780   42.4240 C   0  0  0  0  0  0  0  0  0  0  0  0
   39.5080   27.0120   42.9600 N   0  0  0  0  0  0  0  0  0  0  0  0
   38.7760   28.0160   43.4200 C   0  0  0  0  0  0  0  0  0  0  0  0
   37.4380   27.9090   43.3510 N   0  0  0  0  0  0  0  0  0  0  0  0
   35.7940   26.8360   42.8270 H   0  0  0  0  0  0  0  0  0  0  0  0
   39.6170   25.0780   42.0580 H   0  0  0  0  0  0  0  0  0  0  0  0
   39.3110   28.8560   43.8190 H   0  0  0  0  0  0  0  0  0  0  0  0
  1 28  1  0  0  0  0
  2  1  1  0  0  0  0
  3  4  1  0  0  0  0
  3  2  2  0  0  0  0
  4  5  1  0  0  0  0
  5  1  2  0  0  0  0
  6  3  1  0  0  0  0
  7  8  2  0  0  0  0
  8 12  1  0  0  0  0
  9 13  1  6  0  0  0
  9  8  1  0  0  0  0
  9  4  1  0  0  0  0
  9 10  1  0  0  0  0
 10 15  1  0  0  0  0
 10 11  1  0  0  0  0
 11 16  1  0  0  0  0
 11 17  1  0  0  0  0
 12 18  1  0  0  0  0
 12 11  1  0  0  0  0
 14 10  1  0  0  0  0
 18 19  1  0  0  0  0
 19 20  1  0  0  0  0
 19 21  2  0  0  0  0
 22 23  1  0  0  0  0
 22 21  1  0  0  0  0
 24 22  2  0  0  0  0
 25 24  1  0  0  0  0
 26 18  2  0  0  0  0
 26 24  1  0  0  0  0
 27 35  1  0  0  0  0
 27 30  1  1  0  0  0
 28 31  1  6  0  0  0
 28 29  1  0  0  0  0
 28 27  1  0  0  0  0
 29 33  1  0  0  0  0
 29 27  1  0  0  0  0
 32 29  1  0  0  0  0
 34 39  1  0  0  0  0
 35 36  1  0  0  0  0
 35 34  2  0  0  0  0
 36 37  2  0  0  0  0
 37 38  1  0  0  0  0
 38 42  1  0  0  0  0
 39 38  2  0  0  0  0
 40 34  1  0  0  0  0
 41 36  1  0  0  0  0
M  END
>  <minimizedAffinity>
-5.97760296

$$$$

 OpenBabel03242516473D

 42 46  0  0  1  0  0  0  0  0999 V2000
   38.4120   31.4820   41.2690 C   0  0  0  0  0  0  0  0  0  0  0  0
   39.7070   31.5360   41.6380 N   0  0  0  0  0  0  0  0  0  0  0  0
   40.0460   30.4490   42.3410 C   0  0  0  0  0  0  0  0  0  0  0  0
   38.9290   29.6800   42.4220 N   0  0  0  0  0  0  0  0  0  0  0  0
   37.9460   30.2810   41.7880 N   0  0  0  0  0  0  0  0  0  0  0  0
   41.0200   30.2250   42.7650 H   0  0  0  0  0  0  0  0  0  0  0  0
   40.1180   26.9190   41.6820 O   0  0  0  0  0  0  0  0  0  0  0  0
   38.9860   27.2680   42.1430 C   0  0  0  0  0  0  0  0  0  0  0  0
   38.7900   28.3950   43.0850 C   0  0  2  0  0  0  0  0  0  0  0  0
   37.3690   28.1880   43.5810 C   0  0  0  0  0  0  0  0  0  0  0  0
   36.6920   27.6240   42.3280 C   0  0  0  0  0  0  0  0  0  0  0  0
   37.6960   26.6780   41.8740 N   0  0  0  0  0  0  0  0  0  0  0  0
   39.5290   28.3090   43.8880 H   0  0  0  0  0  0  0  0  0  0  0  0
   37.4270   27.3860   44.3330 H   0  0  0  0  0  0  0  0  0  0  0  0
   36.8910   29.1110   43.9200 H   0  0  0  0  0  0  0  0  0  0  0  0
   35.7880   27.0570   42.6770 H   0  0  0  0  0  0  0  0  0  0  0  0
   36.4740   28.4150   41.6100 H   0  0  0  0  0  0  0  0  0  0  0  0
   37.4900   25.4040   41.2740 C   0  0  0  0  0  0  0  0  0  0  0  0
   36.6750   25.4680   40.1560 C   0  0  0  0  0  0  0  0  0  0  0  0
   36.2290   26.3780   39.7620 H   0  0  0  0  0  0  0  0  0  0  0  0
   36.3600   24.3310   39.4390 C   0  0  0  0  0  3  0  0  0  0  0  0
   36.8580   23.1040   39.8280 C   0  0  0  0  0  0  0  0  0  0  0  0
   36.6580   22.1680   39.3200 H   0  0  0  0  0  0  0  0  0  0  0  0
   37.6650   23.0790   40.9420 C   0  0  0  0  0  0  0  0  0  0  0  0
   38.0850   22.1480   41.2980 H   0  0  0  0  0  0  0  0  0  0  0  0
   37.9940   24.1920   41.6740 C   0  0  0  0  0  3  0  0  0  0  0  0
   37.0210   32.1360   39.1390 C   0  0  1  0  0  0  0  0  0  0  0  0
   37.5830   32.4060   40.4910 C   0  0  2  0  0  0  0  0  0  0  0  0
   38.1690   33.0440   39.3340 C   0  0  0  0  0  0  0  0  0  0  0  0
   36.0120   32.5660   38.9750 H   0  0  0  0  0  0  0  0  0  0  0  0
   36.9530   33.0530   41.1740 H   0  0  0  0  0  0  0  0  0  0  0  0
   39.1900   32.7770   38.9580 H   0  0  0  0  0  0  0  0  0  0  0  0
   38.0010   34.1480   39.1940 H   0  0  0  0  0  0  0  0  0  0  0  0
   36.1770   29.8610   38.5960 C   0  0  0  0  0  0  0  0  0  0  0  0
   37.1780   30.8220   38.4740 C   0  0  0  0  0  0  0  0  0  0  0  0
   38.2710   30.4880   37.7110 C   0  0  0  0  0  0  0  0  0  0  0  0
   38.3000   29.2590   37.1360 N   0  0  0  0  0  0  0  0  0  0  0  0
   37.3350   28.3590   37.2650 C   0  0  0  0  0  0  0  0  0  0  0  0
   36.2650   28.6800   38.0100 N   0  0  0  0  0  0  0  0  0  0  0  0
   35.2810   30.0260   39.1720 H   0  0  0  0  0  0  0  0  0  0  0  0
   39.0770   31.1980   37.5840 H   0  0  0  0  0  0  0  0  0  0  0  0
   37.4810   27.4240   36.7590 H   0  0  0  0  0  0  0  0  0  0  0  0
  1  2  1  0  0  0  0
  1  5  2  0  0  0  0
  2  3  2  0  0  0  0
  3  4  1  0  0  0  0
  3  6  1  0  0  0  0
  4  9  1  0  0  0  0
  5  4  1  0  0  0  0
  7  8  2  0  0  0  0
  8  9  1  0  0  0  0
  9 10  1  0  0  0  0
  9 13  1  1  0  0  0
 10 15  1  0  0  0  0
 10 14  1  0  0  0  0
 11 16  1  0  0  0  0
 11 10  1  0  0  0  0
 12  8  1  0  0  0  0
 12 11  1  0  0  0  0
 17 11  1  0  0  0  0
 18 26  1  0  0  0  0
 18 12  1  0  0  0  0
 19 18  2  0  0  0  0
 20 19  1  0  0  0  0
 21 22  2  0  0  0  0
 21 19  1  0  0  0  0
 22 24  1  0  0  0  0
 23 22  1  0  0  0  0
 24 25  1  0  0  0  0
 24 26  2  0  0  0  0
 27 30  1  6  0  0  0
 27 29  1  0  0  0  0
 27 28  1  0  0  0  0
 28 31  1  1  0  0  0
 28  1  1  0  0  0  0
 29 28  1  0  0  0  0
 32 29  1  0  0  0  0
 33 29  1  0  0  0  0
 34 40  1  0  0  0  0
 35 34  1  0  0  0  0
 35 27  1  0  0  0  0
 36 35  2  0  0  0  0
 37 38  2  0  0  0  0
 37 36  1  0  0  0  0
 38 39  1  0  0  0  0
 39 34  2  0  0  0  0
 41 36  1  0  0  0  0
 42 38  1  0  0  0  0
M  END
>  <minimizedAffinity>
-5.96166372

$$$$

 OpenBabel03242516473D

 42 46  0  0  1  0  0  0  0  0999 V2000
   38.5390   29.5970   42.4980 C   0  0  0  0  0  0  0  0  0  0  0  0
   39.7420   30.1910   42.6230 N   0  0  0  0  0  0  0  0  0  0  0  0
   40.1210   30.7440   41.4650 C   0  0  0  0  0  0  0  0  0  0  0  0
   39.1250   30.4920   40.5760 N   0  0  0  0  0  0  0  0  0  0  0  0
   38.1750   29.8090   41.1750 N   0  0  0  0  0  0  0  0  0  0  0  0
   41.0410   31.2860   41.2730 H   0  0  0  0  0  0  0  0  0  0  0  0
   36.8160   31.7790   38.9640 O   0  0  0  0  0  0  0  0  0  0  0  0
   37.6790   30.8950   38.6660 C   0  0  0  0  0  0  0  0  0  0  0  0
   39.0690   30.8910   39.1800 C   0  0  2  0  0  0  0  0  0  0  0  0
   39.7630   29.8710   38.2930 C   0  0  0  0  0  0  0  0  0  0  0  0
   38.6370   28.8600   38.0570 C   0  0  0  0  0  0  0  0  0  0  0  0
   37.5170   29.7500   37.8010 N   0  0  0  0  0  0  0  0  0  0  0  0
   39.4850   31.8970   39.0640 H   0  0  0  0  0  0  0  0  0  0  0  0
   39.9670   30.3880   37.3420 H   0  0  0  0  0  0  0  0  0  0  0  0
   40.6330   29.4070   38.7660 H   0  0  0  0  0  0  0  0  0  0  0  0
   38.8880   28.3090   37.1120 H   0  0  0  0  0  0  0  0  0  0  0  0
   38.4990   28.2170   38.9270 H   0  0  0  0  0  0  0  0  0  0  0  0
   36.4460   29.5650   36.8830 C   0  0  0  0  0  0  0  0  0  0  0  0
   35.2780   29.1510   37.5040 C   0  0  0  0  0  0  0  0  0  0  0  0
   35.1680   28.9800   38.5710 H   0  0  0  0  0  0  0  0  0  0  0  0
   34.1290   28.9200   36.7740 C   0  0  0  0  0  3  0  0  0  0  0  0
   34.1260   29.0980   35.4060 C   0  0  0  0  0  0  0  0  0  0  0  0
   33.2670   28.9380   34.7650 H   0  0  0  0  0  0  0  0  0  0  0  0
   35.3030   29.5100   34.8250 C   0  0  0  0  0  0  0  0  0  0  0  0
   35.3650   29.6670   33.7560 H   0  0  0  0  0  0  0  0  0  0  0  0
   36.4590   29.7470   35.5230 C   0  0  0  0  0  3  0  0  0  0  0  0
   37.9000   27.4660   43.8950 C   0  0  1  0  0  0  0  0  0  0  0  0
   37.7040   28.8770   43.4640 C   0  0  2  0  0  0  0  0  0  0  0  0
   36.8150   27.8500   42.9690 C   0  0  0  0  0  0  0  0  0  0  0  0
   37.6610   27.2820   44.9620 H   0  0  0  0  0  0  0  0  0  0  0  0
   37.2910   29.5860   44.2440 H   0  0  0  0  0  0  0  0  0  0  0  0
   36.8220   27.5190   41.8990 H   0  0  0  0  0  0  0  0  0  0  0  0
   35.7580   27.8310   43.3550 H   0  0  0  0  0  0  0  0  0  0  0  0
   38.9350   25.8520   42.3120 C   0  0  0  0  0  0  0  0  0  0  0  0
   39.0570   26.6610   43.4400 C   0  0  0  0  0  0  0  0  0  0  0  0
   40.2800   26.6740   44.0660 C   0  0  0  0  0  0  0  0  0  0  0  0
   41.2730   25.9070   43.5500 N   0  0  0  0  0  0  0  0  0  0  0  0
   41.1350   25.1430   42.4750 C   0  0  0  0  0  0  0  0  0  0  0  0
   39.9420   25.1260   41.8580 N   0  0  0  0  0  0  0  0  0  0  0  0
   38.0180   25.7730   41.7520 H   0  0  0  0  0  0  0  0  0  0  0  0
   40.4280   27.2850   44.9460 H   0  0  0  0  0  0  0  0  0  0  0  0
   41.9990   24.5850   42.1700 H   0  0  0  0  0  0  0  0  0  0  0  0
  1  2  1  0  0  0  0
  1 28  1  0  0  0  0
  3  2  2  0  0  0  0
  4  5  1  0  0  0  0
  4  3  1  0  0  0  0
  5  1  2  0  0  0  0
  6  3  1  0  0  0  0
  8  7  2  0  0  0  0
  8  9  1  0  0  0  0
  9 13  1  6  0  0  0
  9  4  1  0  0  0  0
 10 15  1  0  0  0  0
 10  9  1  0  0  0  0
 11 10  1  0  0  0  0
 11 17  1  0  0  0  0
 12 11  1  0  0  0  0
 12  8  1  0  0  0  0
 14 10  1  0  0  0  0
 16 11  1  0  0  0  0
 18 19  1  0  0  0  0
 18 12  1  0  0  0  0
 19 20  1  0  0  0  0
 21 19  2  0  0  0  0
 22 21  1  0  0  0  0
 23 22  1  0  0  0  0
 24 22  2  0  0  0  0
 24 26  1  0  0  0  0
 25 24  1  0  0  0  0
 26 18  2  0  0  0  0
 27 30  1  1  0  0  0
 28 27  1  0  0  0  0
 28 31  1  1  0  0  0
 29 33  1  0  0  0  0
 29 28  1  0  0  0  0
 29 27  1  0  0  0  0
 32 29  1  0  0  0  0
 34 35  1  0  0  0  0
 35 27  1  0  0  0  0
 35 36  2  0  0  0  0
 36 41  1  0  0  0  0
 37 36  1  0  0  0  0
 38 37  2  0  0  0  0
 39 34  2  0  0  0  0
 39 38  1  0  0  0  0
 40 34  1  0  0  0  0
 42 38  1  0  0  0  0
M  END
>  <minimizedAffinity>
-5.92965603

$$$$

 OpenBabel03242516473D

 42 46  0  0  1  0  0  0  0  0999 V2000
   37.2110   28.3220   41.2230 C   0  0  0  0  0  0  0  0  0  0  0  0
   36.6080   27.4880   40.3530 N   0  0  0  0  0  0  0  0  0  0  0  0
   37.0310   27.7170   39.1050 C   0  0  0  0  0  0  0  0  0  0  0  0
   37.9330   28.7310   39.1860 N   0  0  0  0  0  0  0  0  0  0  0  0
   38.0520   29.1020   40.4410 N   0  0  0  0  0  0  0  0  0  0  0  0
   36.7180   27.1980   38.2050 H   0  0  0  0  0  0  0  0  0  0  0  0
   40.8730   29.6950   39.0710 O   0  0  0  0  0  0  0  0  0  0  0  0
   39.7970   30.1710   38.5900 C   0  0  0  0  0  0  0  0  0  0  0  0
   38.6750   29.3380   38.0940 C   0  0  2  0  0  0  0  0  0  0  0  0
   37.8130   30.3350   37.3380 C   0  0  0  0  0  0  0  0  0  0  0  0
   38.0030   31.5990   38.1820 C   0  0  0  0  0  0  0  0  0  0  0  0
   39.4350   31.5580   38.4220 N   0  0  0  0  0  0  0  0  0  0  0  0
   39.0820   28.5590   37.4420 H   0  0  0  0  0  0  0  0  0  0  0  0
   38.3120   30.4890   36.3680 H   0  0  0  0  0  0  0  0  0  0  0  0
   36.7620   30.0400   37.2790 H   0  0  0  0  0  0  0  0  0  0  0  0
   37.7700   32.4720   37.5150 H   0  0  0  0  0  0  0  0  0  0  0  0
   37.4010   31.5580   39.0900 H   0  0  0  0  0  0  0  0  0  0  0  0
   40.3420   32.6520   38.4870 C   0  0  0  0  0  0  0  0  0  0  0  0
   41.2320   32.6700   37.4260 C   0  0  0  0  0  0  0  0  0  0  0  0
   41.2550   31.9400   36.6210 H   0  0  0  0  0  0  0  0  0  0  0  0
   42.1890   33.6590   37.3170 C   0  0  0  0  0  3  0  0  0  0  0  0
   42.2750   34.6520   38.2710 C   0  0  0  0  0  0  0  0  0  0  0  0
   42.9960   35.4610   38.2560 H   0  0  0  0  0  0  0  0  0  0  0  0
   41.3740   34.6030   39.3100 C   0  0  0  0  0  0  0  0  0  0  0  0
   41.3910   35.3520   40.0890 H   0  0  0  0  0  0  0  0  0  0  0  0
   40.4130   33.6330   39.4440 C   0  0  0  0  0  3  0  0  0  0  0  0
   37.9210   27.7300   43.6830 C   0  0  1  0  0  0  0  0  0  0  0  0
   37.0980   28.4580   42.6780 C   0  0  2  0  0  0  0  0  0  0  0  0
   36.5120   27.3680   43.4250 C   0  0  0  0  0  0  0  0  0  0  0  0
   38.1690   28.3290   44.5820 H   0  0  0  0  0  0  0  0  0  0  0  0
   36.7780   29.5070   42.9590 H   0  0  0  0  0  0  0  0  0  0  0  0
   36.2430   26.3920   42.9450 H   0  0  0  0  0  0  0  0  0  0  0  0
   35.7480   27.6140   44.2150 H   0  0  0  0  0  0  0  0  0  0  0  0
   40.3430   27.3160   43.3040 C   0  0  0  0  0  0  0  0  0  0  0  0
   39.0340   26.8390   43.2850 C   0  0  0  0  0  0  0  0  0  0  0  0
   38.8540   25.5310   42.9030 C   0  0  0  0  0  0  0  0  0  0  0  0
   39.9510   24.8030   42.5740 N   0  0  0  0  0  0  0  0  0  0  0  0
   41.1890   25.2770   42.5990 C   0  0  0  0  0  0  0  0  0  0  0  0
   41.3700   26.5550   42.9710 N   0  0  0  0  0  0  0  0  0  0  0  0
   40.5870   28.3260   43.5880 H   0  0  0  0  0  0  0  0  0  0  0  0
   37.8580   25.1100   42.8710 H   0  0  0  0  0  0  0  0  0  0  0  0
   41.9680   24.5970   42.3150 H   0  0  0  0  0  0  0  0  0  0  0  0
  1 28  1  0  0  0  0
  2  1  1  0  0  0  0
  3  4  1  0  0  0  0
  3  2  2  0  0  0  0
  4  5  1  0  0  0  0
  5  1  2  0  0  0  0
  6  3  1  0  0  0  0
  8  7  2  0  0  0  0
  9 13  1  6  0  0  0
  9  8  1  0  0  0  0
  9  4  1  0  0  0  0
 10  9  1  0  0  0  0
 10 11  1  0  0  0  0
 11 12  1  0  0  0  0
 11 17  1  0  0  0  0
 12 18  1  0  0  0  0
 12  8  1  0  0  0  0
 14 10  1  0  0  0  0
 15 10  1  0  0  0  0
 16 11  1  0  0  0  0
 18 26  1  0  0  0  0
 19 18  2  0  0  0  0
 20 19  1  0  0  0  0
 21 19  1  0  0  0  0
 21 22  2  0  0  0  0
 22 24  1  0  0  0  0
 23 22  1  0  0  0  0
 24 26  2  0  0  0  0
 24 25  1  0  0  0  0
 27 30  1  1  0  0  0
 28 31  1  1  0  0  0
 28 29  1  0  0  0  0
 28 27  1  0  0  0  0
 29 27  1  0  0  0  0
 29 33  1  0  0  0  0
 32 29  1  0  0  0  0
 34 40  1  0  0  0  0
 35 34  1  0  0  0  0
 35 27  1  0  0  0  0
 36 35  2  0  0  0  0
 37 38  2  0  0  0  0
 37 36  1  0  0  0  0
 38 39  1  0  0  0  0
 39 34  2  0  0  0  0
 41 36  1  0  0  0  0
 42 38  1  0  0  0  0
M  END
>  <minimizedAffinity>
-5.91821146

$$$$
