
 OpenBabel03252509313D

 27 28  0  0  0  0  0  0  0  0999 V2000
   50.0190   33.0140   41.4530 O   0  0  0  0  0  0  0  0  0  0  0  0
   49.2160   34.1170   42.0730 P   0  0  2  0  0  0  0  0  0  0  0  0
   50.1610   35.1160   43.0700 O   0  0  0  0  0  0  0  0  0  0  0  0
   51.0950   34.8230   43.0090 H   0  0  0  0  0  0  0  0  0  0  0  0
   48.0080   33.4630   43.0580 O   0  0  0  0  0  0  0  0  0  0  0  0
   46.9000   34.3170   42.9440 C   0  0  0  0  0  0  0  0  0  0  0  0
   46.2110   33.9550   42.1390 H   0  0  0  0  0  0  0  0  0  0  0  0
   47.1820   35.3550   42.6680 H   0  0  0  0  0  0  0  0  0  0  0  0
   45.6000   33.4810   46.3340 C   0  0  0  0  0  0  0  0  0  0  0  0
   46.3490   33.4050   45.1580 C   0  0  0  0  0  0  0  0  0  0  0  0
   46.1420   34.3560   44.1850 C   0  0  0  0  0  0  0  0  0  0  0  0
   45.2020   35.3470   44.4090 N   0  0  0  0  0  0  0  0  0  0  0  0
   44.4930   35.3790   45.5750 C   0  0  0  0  0  0  0  0  0  0  0  0
   44.6890   34.4670   46.5160 N   0  0  0  0  0  0  0  0  0  0  0  0
   45.8210   32.6980   47.0480 H   0  0  0  0  0  0  0  0  0  0  0  0
   47.0900   32.6390   44.9630 H   0  0  0  0  0  0  0  0  0  0  0  0
   43.7610   36.1840   45.7030 H   0  0  0  0  0  0  0  0  0  0  0  0
   48.5000   35.0330   40.8630 O   0  0  0  0  0  0  0  0  0  0  0  0
   48.0320   34.4350   39.7040 C   0  0  0  0  0  0  0  0  0  0  0  0
   48.7250   34.9250   38.5990 C   0  0  0  0  0  0  0  0  0  0  0  0
   49.5150   35.6580   38.5880 H   0  0  0  0  0  0  0  0  0  0  0  0
   48.4290   34.4690   37.3100 C   0  0  0  0  0  3  0  0  0  0  0  0
   47.4400   33.5240   37.1340 C   0  0  0  0  0  0  0  0  0  0  0  0
   47.1610   33.1320   36.1800 H   0  0  0  0  0  0  0  0  0  0  0  0
   46.7540   33.0430   38.2540 C   0  0  0  0  0  0  0  0  0  0  0  0
   45.9580   32.2920   38.1700 H   0  0  0  0  0  0  0  0  0  0  0  0
   47.0460   33.4930   39.5240 C   0  0  0  0  0  3  0  0  0  0  0  0
  2  1  2  6  0  0  0
  2  5  1  0  0  0  0
  2  3  1  0  0  0  0
  4  3  1  0  0  0  0
  6  5  1  0  0  0  0
  6 11  1  0  0  0  0
  7  6  1  0  0  0  0
  8  6  1  0  0  0  0
  9 14  1  0  0  0  0
  9 15  1  0  0  0  0
 10  9  2  0  0  0  0
 11 12  2  0  0  0  0
 11 10  1  0  0  0  0
 12 13  1  0  0  0  0
 13 17  1  0  0  0  0
 13 14  2  0  0  0  0
 16 10  1  0  0  0  0
 18  2  1  0  0  0  0
 19 18  1  0  0  0  0
 20 19  2  0  0  0  0
 21 20  1  0  0  0  0
 22 20  1  0  0  0  0
 23 22  2  0  0  0  0
 23 25  1  0  0  0  0
 24 23  1  0  0  0  0
 25 27  2  0  0  0  0
 26 25  1  0  0  0  0
 27 19  1  0  0  0  0
M  END
>  <minimizedAffinity>
-4.86386871

>  <minimizedRMSD>
1.11334515

$$$$
