
 OpenBabel03252504183D

 38 40  0  0  0  0  0  0  0  0999 V2000
   47.6120   30.0110   44.9230 F   0  0  0  0  0  0  0  0  0  0  0  0
   47.4930   30.7790   46.0490 C   0  0  0  0  0  0  0  0  0  0  0  0
   46.9370   32.0320   45.9650 C   0  0  0  0  0  0  0  0  0  0  0  0
   46.8510   32.7490   47.1580 C   0  0  0  0  0  0  0  0  0  0  0  0
   47.3040   32.2120   48.3400 C   0  0  0  0  0  0  0  0  0  0  0  0
   47.8600   30.9320   48.3620 C   0  0  0  0  0  0  0  0  0  0  0  0
   47.9660   30.1760   47.1820 C   0  0  0  0  0  0  0  0  0  0  0  0
   46.4180   33.7340   47.1170 H   0  0  0  0  0  0  0  0  0  0  0  0
   47.2120   32.8130   49.2360 H   0  0  0  0  0  0  0  0  0  0  0  0
   48.2040   30.5480   49.3160 H   0  0  0  0  0  0  0  0  0  0  0  0
   46.8010   34.1210   42.9700 C   0  0  0  0  0  0  0  0  0  0  0  0
   45.6660   33.6690   42.3020 C   0  0  0  0  0  0  0  0  0  0  0  0
   44.9380   32.6230   42.9020 C   0  0  0  0  0  0  0  0  0  0  0  0
   45.3530   32.1030   44.0780 N   0  0  0  0  0  0  0  0  0  0  0  0
   46.4630   32.5770   44.6880 C   0  0  0  0  0  0  0  0  0  0  0  0
   47.1750   33.5710   44.1390 N   0  0  0  0  0  0  0  0  0  0  0  0
   44.0470   32.2600   42.3880 H   0  0  0  0  0  0  0  0  0  0  0  0
   45.2840   34.2910   41.0260 C   0  0  0  0  0  0  0  0  0  0  0  0
   44.9430   35.6170   41.2260 F   0  0  0  0  0  0  0  0  0  0  0  0
   46.3840   34.2590   40.1800 F   0  0  0  0  0  0  0  0  0  0  0  0
   44.2480   33.6920   40.3870 F   0  0  0  0  0  0  0  0  0  0  0  0
   47.5030   35.1220   42.4010 O   0  0  0  0  0  0  0  0  0  0  0  0
   48.8340   35.0640   41.9140 C   0  0  0  0  0  0  0  0  0  0  0  0
   49.6740   35.3280   42.9920 F   0  0  0  0  0  0  0  0  0  0  0  0
   49.0520   33.8530   41.3320 F   0  0  0  0  0  0  0  0  0  0  0  0
   49.0430   36.1190   41.0460 F   0  0  0  0  0  0  0  0  0  0  0  0
   48.5580   28.8190   47.2190 C   0  0  0  0  0  0  0  0  0  0  0  0
   48.6540   28.5110   46.1370 H   0  0  0  0  0  0  0  0  0  0  0  0
   47.8330   28.1520   47.7370 H   0  0  0  0  0  0  0  0  0  0  0  0
   49.8790   28.7390   47.8350 C   0  0  0  0  0  0  0  0  0  0  0  0
   51.0730   29.3110   47.4560 C   0  0  0  0  0  0  0  0  0  0  0  0
   51.0140   29.9030   46.5650 H   0  0  0  0  0  0  0  0  0  0  0  0
   52.2500   29.1460   48.1440 C   0  0  0  0  0  0  0  0  0  0  0  0
   52.2730   28.3690   49.2880 C   0  0  0  0  0  0  0  0  0  0  0  0
   53.1950   28.2320   49.8390 H   0  0  0  0  0  0  0  0  0  0  0  0
   51.0960   27.7660   49.7180 C   0  0  0  0  0  0  0  0  0  0  0  0
   51.1380   27.1670   50.6080 H   0  0  0  0  0  0  0  0  0  0  0  0
   49.9260   27.9560   48.9970 C   0  0  0  0  0  0  0  0  0  0  0  0
  1  2  1  0  0  0  0
  2  7  1  0  0  0  0
  3  2  2  0  0  0  0
  3  4  1  0  0  0  0
  4  5  2  0  0  0  0
  5  6  1  0  0  0  0
  5  9  1  0  0  0  0
  6 10  1  0  0  0  0
  7 27  1  0  0  0  0
  7  6  2  0  0  0  0
  8  4  1  0  0  0  0
 11 16  1  0  0  0  0
 12 13  1  0  0  0  0
 12 11  2  0  0  0  0
 13 14  2  0  0  0  0
 14 15  1  0  0  0  0
 15  3  1  0  0  0  0
 16 15  2  0  0  0  0
 17 13  1  0  0  0  0
 18 19  1  0  0  0  0
 18 12  1  0  0  0  0
 20 18  1  0  0  0  0
 21 18  1  0  0  0  0
 22 11  1  0  0  0  0
 23 22  1  0  0  0  0
 23 24  1  0  0  0  0
 25 23  1  0  0  0  0
 26 23  1  0  0  0  0
 27 29  1  0  0  0  0
 27 30  1  0  0  0  0
 28 27  1  0  0  0  0
 30 38  1  0  0  0  0
 31 30  2  0  0  0  0
 31 33  1  0  0  0  0
 32 31  1  0  0  0  0
 33 34  2  0  0  0  0
 34 36  1  0  0  0  0
 34 35  1  0  0  0  0
 36 37  1  0  0  0  0
 38 36  2  0  0  0  0
M  END
>  <minimizedAffinity>
-5.68820763

>  <minimizedRMSD>
1.27461982

$$$$
