
 OpenBabel03252504283D

 22 23  0  0  0  0  0  0  0  0999 V2000
   35.7920   30.0860   40.5950 C   0  0  0  0  0  0  0  0  0  0  0  0
   34.8260   30.5850   40.7260 H   0  0  0  0  0  0  0  0  0  0  0  0
   35.5880   28.9810   40.5510 H   0  0  0  0  0  0  0  0  0  0  0  0
   37.0420   31.6930   39.2850 C   0  0  0  0  0  0  0  0  0  0  0  0
   36.4170   30.4470   39.3100 C   0  0  0  0  0  0  0  0  0  0  0  0
   36.4430   29.6850   38.1590 C   0  0  0  0  0  0  0  0  0  0  0  0
   37.0720   30.2010   37.0860 N   0  0  0  0  0  0  0  0  0  0  0  0
   37.6650   31.4020   37.0860 C   0  0  0  0  0  0  0  0  0  0  0  0
   37.6800   32.2150   38.1970 N   0  0  0  0  0  0  0  0  0  0  0  0
   37.0600   32.3460   40.1590 H   0  0  0  0  0  0  0  0  0  0  0  0
   35.9510   28.7280   38.2150 H   0  0  0  0  0  0  0  0  0  0  0  0
   38.1370   31.7100   36.1670 H   0  0  0  0  0  0  0  0  0  0  0  0
   36.6210   30.2930   41.6890 O   0  0  0  0  0  0  0  0  0  0  0  0
   37.3070   29.2000   42.2260 C   0  0  0  0  0  0  0  0  0  0  0  0
   38.5830   29.2100   42.7520 C   0  0  0  0  0  0  0  0  0  0  0  0
   39.0870   30.1820   42.7370 H   0  0  0  0  0  0  0  0  0  0  0  0
   39.1330   28.0620   43.2450 C   0  0  0  0  0  3  0  0  0  0  0  0
   38.4410   26.8670   43.2340 C   0  0  0  0  0  0  0  0  0  0  0  0
   38.8950   25.9490   43.6340 H   0  0  0  0  0  0  0  0  0  0  0  0
   37.1640   26.8340   42.7120 C   0  0  0  0  0  0  0  0  0  0  0  0
   36.6330   25.8880   42.7100 H   0  0  0  0  0  0  0  0  0  0  0  0
   36.6190   27.9920   42.2180 C   0  0  0  0  0  3  0  0  0  0  0  0
  1  2  1  0  0  0  0
  1 13  1  0  0  0  0
  3  1  1  0  0  0  0
  4  5  1  0  0  0  0
  4 10  1  0  0  0  0
  5  1  1  0  0  0  0
  6 11  1  0  0  0  0
  6  5  2  0  0  0  0
  7  8  2  0  0  0  0
  7  6  1  0  0  0  0
  8  9  1  0  0  0  0
  9  4  2  0  0  0  0
 12  8  1  0  0  0  0
 13 14  1  0  0  0  0
 14 15  1  0  0  0  0
 15 17  2  0  0  0  0
 16 15  1  0  0  0  0
 18 17  1  0  0  0  0
 18 19  1  0  0  0  0
 20 18  2  0  0  0  0
 21 20  1  0  0  0  0
 22 14  2  0  0  0  0
 22 20  1  0  0  0  0
M  END
>  <minimizedAffinity>
-4.27739048

$$$$

 OpenBabel03252504283D

 22 23  0  0  0  0  0  0  0  0999 V2000
   35.8670   30.0890   40.6750 C   0  0  0  0  0  0  0  0  0  0  0  0
   34.8530   30.4850   40.8000 H   0  0  0  0  0  0  0  0  0  0  0  0
   35.7660   28.9910   40.4520 H   0  0  0  0  0  0  0  0  0  0  0  0
   36.5340   29.9080   38.3540 C   0  0  0  0  0  0  0  0  0  0  0  0
   36.5400   30.6900   39.5100 C   0  0  0  0  0  0  0  0  0  0  0  0
   37.1600   31.9220   39.4550 C   0  0  0  0  0  0  0  0  0  0  0  0
   37.7180   32.2860   38.2850 N   0  0  0  0  0  0  0  0  0  0  0  0
   37.6990   31.5180   37.1890 C   0  0  0  0  0  0  0  0  0  0  0  0
   37.1000   30.2780   37.1690 N   0  0  0  0  0  0  0  0  0  0  0  0
   36.0620   28.9250   38.3280 H   0  0  0  0  0  0  0  0  0  0  0  0
   37.1450   32.4990   40.3650 H   0  0  0  0  0  0  0  0  0  0  0  0
   38.1800   31.9140   36.3090 H   0  0  0  0  0  0  0  0  0  0  0  0
   36.6000   30.1890   41.8490 O   0  0  0  0  0  0  0  0  0  0  0  0
   37.2850   29.0620   42.3090 C   0  0  0  0  0  0  0  0  0  0  0  0
   38.5330   29.0440   42.9000 C   0  0  0  0  0  0  0  0  0  0  0  0
   39.0130   30.0230   43.0070 H   0  0  0  0  0  0  0  0  0  0  0  0
   39.0860   27.8640   43.3050 C   0  0  0  0  0  3  0  0  0  0  0  0
   38.4250   26.6620   43.1400 C   0  0  0  0  0  0  0  0  0  0  0  0
   38.8810   25.7180   43.4690 H   0  0  0  0  0  0  0  0  0  0  0  0
   37.1770   26.6570   42.5510 C   0  0  0  0  0  0  0  0  0  0  0  0
   36.6700   25.7060   42.4280 H   0  0  0  0  0  0  0  0  0  0  0  0
   36.6280   27.8480   42.1470 C   0  0  0  0  0  3  0  0  0  0  0  0
  1  2  1  0  0  0  0
  1 13  1  0  0  0  0
  3  1  1  0  0  0  0
  4  5  1  0  0  0  0
  5  1  1  0  0  0  0
  6  5  2  0  0  0  0
  6 11  1  0  0  0  0
  7  6  1  0  0  0  0
  8  7  2  0  0  0  0
  9  8  1  0  0  0  0
  9  4  2  0  0  0  0
 10  4  1  0  0  0  0
 12  8  1  0  0  0  0
 13 14  1  0  0  0  0
 14 15  1  0  0  0  0
 15 16  1  0  0  0  0
 15 17  2  0  0  0  0
 18 17  1  0  0  0  0
 18 19  1  0  0  0  0
 20 18  2  0  0  0  0
 21 20  1  0  0  0  0
 22 14  2  0  0  0  0
 22 20  1  0  0  0  0
M  END
>  <minimizedAffinity>
-4.27462053

$$$$

 OpenBabel03252504283D

 22 23  0  0  0  0  0  0  0  0999 V2000
   38.9060   29.3130   42.8660 C   0  0  0  0  0  0  0  0  0  0  0  0
   39.7950   28.8710   42.4030 H   0  0  0  0  0  0  0  0  0  0  0  0
   39.2670   29.9960   43.6840 H   0  0  0  0  0  0  0  0  0  0  0  0
   38.9300   31.1270   41.2630 C   0  0  0  0  0  0  0  0  0  0  0  0
   38.1660   30.1590   41.9140 C   0  0  0  0  0  0  0  0  0  0  0  0
   36.8200   30.0850   41.6110 C   0  0  0  0  0  0  0  0  0  0  0  0
   36.3380   30.9560   40.7050 N   0  0  0  0  0  0  0  0  0  0  0  0
   37.0930   31.8780   40.0940 C   0  0  0  0  0  0  0  0  0  0  0  0
   38.4400   32.0100   40.3450 N   0  0  0  0  0  0  0  0  0  0  0  0
   39.9990   31.2400   41.4550 H   0  0  0  0  0  0  0  0  0  0  0  0
   36.2610   29.3250   42.1320 H   0  0  0  0  0  0  0  0  0  0  0  0
   36.5960   32.5220   39.3860 H   0  0  0  0  0  0  0  0  0  0  0  0
   38.1180   28.3470   43.4760 O   0  0  0  0  0  0  0  0  0  0  0  0
   38.3170   27.0070   43.1350 C   0  0  0  0  0  0  0  0  0  0  0  0
   39.4480   26.2560   43.3850 C   0  0  0  0  0  0  0  0  0  0  0  0
   40.2550   26.7850   43.9030 H   0  0  0  0  0  0  0  0  0  0  0  0
   39.5070   24.9490   42.9950 C   0  0  0  0  0  3  0  0  0  0  0  0
   38.4510   24.3410   42.3440 C   0  0  0  0  0  0  0  0  0  0  0  0
   38.5100   23.2890   42.0350 H   0  0  0  0  0  0  0  0  0  0  0  0
   37.3110   25.0740   42.0840 C   0  0  0  0  0  0  0  0  0  0  0  0
   36.4890   24.5830   41.5720 H   0  0  0  0  0  0  0  0  0  0  0  0
   37.2600   26.3870   42.4800 C   0  0  0  0  0  3  0  0  0  0  0  0
  1 13  1  0  0  0  0
  1  3  1  0  0  0  0
  2  1  1  0  0  0  0
  4 10  1  0  0  0  0
  4  5  1  0  0  0  0
  5  1  1  0  0  0  0
  6  5  2  0  0  0  0
  6 11  1  0  0  0  0
  7  6  1  0  0  0  0
  8  9  1  0  0  0  0
  8  7  2  0  0  0  0
  9  4  2  0  0  0  0
 12  8  1  0  0  0  0
 14 15  1  0  0  0  0
 14 13  1  0  0  0  0
 15 16  1  0  0  0  0
 17 15  2  0  0  0  0
 18 17  1  0  0  0  0
 19 18  1  0  0  0  0
 20 18  2  0  0  0  0
 20 22  1  0  0  0  0
 21 20  1  0  0  0  0
 22 14  2  0  0  0  0
M  END
>  <minimizedAffinity>
-4.27315044

$$$$

 OpenBabel03252504283D

 22 23  0  0  0  0  0  0  0  0999 V2000
   36.5480   28.5200   41.6920 C   0  0  0  0  0  0  0  0  0  0  0  0
   35.4580   28.6080   41.6270 H   0  0  0  0  0  0  0  0  0  0  0  0
   36.8690   27.8040   40.8870 H   0  0  0  0  0  0  0  0  0  0  0  0
   36.4340   30.7260   40.7000 C   0  0  0  0  0  0  0  0  0  0  0  0
   37.2120   29.8020   41.3980 C   0  0  0  0  0  0  0  0  0  0  0  0
   38.4990   30.1670   41.7410 C   0  0  0  0  0  0  0  0  0  0  0  0
   38.9160   31.3940   41.3760 N   0  0  0  0  0  0  0  0  0  0  0  0
   38.1490   32.2640   40.7050 C   0  0  0  0  0  0  0  0  0  0  0  0
   36.8570   31.9690   40.3300 N   0  0  0  0  0  0  0  0  0  0  0  0
   35.4090   30.5030   40.3980 H   0  0  0  0  0  0  0  0  0  0  0  0
   39.0710   29.4290   42.2800 H   0  0  0  0  0  0  0  0  0  0  0  0
   38.5910   33.2180   40.4660 H   0  0  0  0  0  0  0  0  0  0  0  0
   36.9400   27.9600   42.9000 O   0  0  0  0  0  0  0  0  0  0  0  0
   37.7680   26.8350   42.8790 C   0  0  0  0  0  0  0  0  0  0  0  0
   37.5200   25.6440   42.2260 C   0  0  0  0  0  0  0  0  0  0  0  0
   36.5740   25.6020   41.6760 H   0  0  0  0  0  0  0  0  0  0  0  0
   38.4220   24.6220   42.2910 C   0  0  0  0  0  3  0  0  0  0  0  0
   39.5990   24.7420   43.0040 C   0  0  0  0  0  0  0  0  0  0  0  0
   40.3180   23.9120   43.0490 H   0  0  0  0  0  0  0  0  0  0  0  0
   39.8680   25.9230   43.6650 C   0  0  0  0  0  0  0  0  0  0  0  0
   40.7960   26.0030   44.2200 H   0  0  0  0  0  0  0  0  0  0  0  0
   38.9550   26.9460   43.5940 C   0  0  0  0  0  3  0  0  0  0  0  0
  1 13  1  0  0  0  0
  2  1  1  0  0  0  0
  3  1  1  0  0  0  0
  4  5  1  0  0  0  0
  5  1  1  0  0  0  0
  5  6  2  0  0  0  0
  6 11  1  0  0  0  0
  7  6  1  0  0  0  0
  8  7  2  0  0  0  0
  9  4  2  0  0  0  0
  9  8  1  0  0  0  0
 10  4  1  0  0  0  0
 12  8  1  0  0  0  0
 14 13  1  0  0  0  0
 14 22  1  0  0  0  0
 15 17  1  0  0  0  0
 15 14  2  0  0  0  0
 16 15  1  0  0  0  0
 17 18  2  0  0  0  0
 18 19  1  0  0  0  0
 18 20  1  0  0  0  0
 20 21  1  0  0  0  0
 22 20  2  0  0  0  0
M  END
>  <minimizedAffinity>
-4.26693773

$$$$

 OpenBabel03252504283D

 22 23  0  0  0  0  0  0  0  0999 V2000
   37.0910   30.6130   40.4140 C   0  0  0  0  0  0  0  0  0  0  0  0
   36.2150   30.6040   39.7570 H   0  0  0  0  0  0  0  0  0  0  0  0
   37.8020   29.8340   40.0240 H   0  0  0  0  0  0  0  0  0  0  0  0
   39.1130   31.8780   40.8310 C   0  0  0  0  0  0  0  0  0  0  0  0
   37.8050   31.9000   40.3450 C   0  0  0  0  0  0  0  0  0  0  0  0
   37.3160   33.0950   39.8560 C   0  0  0  0  0  0  0  0  0  0  0  0
   38.1380   34.1610   39.8820 N   0  0  0  0  0  0  0  0  0  0  0  0
   39.3900   34.1150   40.3540 C   0  0  0  0  0  0  0  0  0  0  0  0
   39.9450   32.9600   40.8570 N   0  0  0  0  0  0  0  0  0  0  0  0
   39.5630   30.9680   41.2310 H   0  0  0  0  0  0  0  0  0  0  0  0
   36.3030   33.0740   39.4880 H   0  0  0  0  0  0  0  0  0  0  0  0
   39.9540   35.0340   40.3250 H   0  0  0  0  0  0  0  0  0  0  0  0
   36.7590   30.2340   41.7070 O   0  0  0  0  0  0  0  0  0  0  0  0
   37.1890   28.9890   42.1720 C   0  0  0  0  0  0  0  0  0  0  0  0
   38.0070   28.7560   43.2590 C   0  0  0  0  0  0  0  0  0  0  0  0
   38.3390   29.6520   43.7950 H   0  0  0  0  0  0  0  0  0  0  0  0
   38.3490   27.4800   43.6030 C   0  0  0  0  0  3  0  0  0  0  0  0
   37.8950   26.3920   42.8830 C   0  0  0  0  0  0  0  0  0  0  0  0
   38.1780   25.3690   43.1690 H   0  0  0  0  0  0  0  0  0  0  0  0
   37.0770   26.6020   41.7920 C   0  0  0  0  0  0  0  0  0  0  0  0
   36.7280   25.7380   41.2370 H   0  0  0  0  0  0  0  0  0  0  0  0
   36.7370   27.8880   41.4540 C   0  0  0  0  0  3  0  0  0  0  0  0
  1 13  1  0  0  0  0
  2  1  1  0  0  0  0
  3  1  1  0  0  0  0
  4  9  1  0  0  0  0
  4 10  1  0  0  0  0
  5  1  1  0  0  0  0
  5  4  2  0  0  0  0
  6  7  2  0  0  0  0
  6  5  1  0  0  0  0
  7  8  1  0  0  0  0
  8  9  2  0  0  0  0
 11  6  1  0  0  0  0
 12  8  1  0  0  0  0
 13 14  1  0  0  0  0
 14 15  1  0  0  0  0
 15 17  2  0  0  0  0
 15 16  1  0  0  0  0
 18 19  1  0  0  0  0
 18 17  1  0  0  0  0
 20 18  2  0  0  0  0
 21 20  1  0  0  0  0
 22 20  1  0  0  0  0
 22 14  2  0  0  0  0
M  END
>  <minimizedAffinity>
-4.20006275

$$$$

 OpenBabel03252504283D

 22 23  0  0  0  0  0  0  0  0999 V2000
   36.5690   30.8200   40.2500 C   0  0  0  0  0  0  0  0  0  0  0  0
   35.7050   31.2260   39.7140 H   0  0  0  0  0  0  0  0  0  0  0  0
   36.9850   29.9860   39.6200 H   0  0  0  0  0  0  0  0  0  0  0  0
   37.3270   33.0930   39.9040 C   0  0  0  0  0  0  0  0  0  0  0  0
   37.6430   31.8200   40.3780 C   0  0  0  0  0  0  0  0  0  0  0  0
   38.9020   31.6220   40.9120 C   0  0  0  0  0  0  0  0  0  0  0  0
   39.7390   32.6750   40.9370 N   0  0  0  0  0  0  0  0  0  0  0  0
   39.4120   33.8890   40.4760 C   0  0  0  0  0  0  0  0  0  0  0  0
   38.1770   34.1610   39.9310 N   0  0  0  0  0  0  0  0  0  0  0  0
   36.3510   33.3200   39.4720 H   0  0  0  0  0  0  0  0  0  0  0  0
   39.1110   30.6270   41.2680 H   0  0  0  0  0  0  0  0  0  0  0  0
   40.1660   34.6570   40.5480 H   0  0  0  0  0  0  0  0  0  0  0  0
   36.1950   30.2530   41.4600 O   0  0  0  0  0  0  0  0  0  0  0  0
   36.6810   28.9840   41.7840 C   0  0  0  0  0  0  0  0  0  0  0  0
   36.5760   27.8430   41.0140 C   0  0  0  0  0  0  0  0  0  0  0  0
   36.0560   27.9710   40.0580 H   0  0  0  0  0  0  0  0  0  0  0  0
   37.0990   26.6630   41.4560 C   0  0  0  0  0  3  0  0  0  0  0  0
   37.7440   26.5700   42.6740 C   0  0  0  0  0  0  0  0  0  0  0  0
   38.1620   25.6140   43.0200 H   0  0  0  0  0  0  0  0  0  0  0  0
   37.8600   27.6980   43.4600 C   0  0  0  0  0  0  0  0  0  0  0  0
   38.3690   27.6100   44.4150 H   0  0  0  0  0  0  0  0  0  0  0  0
   37.3310   28.8810   43.0080 C   0  0  0  0  0  3  0  0  0  0  0  0
  1  5  1  0  0  0  0
  1 13  1  0  0  0  0
  2  1  1  0  0  0  0
  3  1  1  0  0  0  0
  4  9  2  0  0  0  0
  4  5  1  0  0  0  0
  5  6  2  0  0  0  0
  6  7  1  0  0  0  0
  6 11  1  0  0  0  0
  8 12  1  0  0  0  0
  8  7  2  0  0  0  0
  9  8  1  0  0  0  0
 10  4  1  0  0  0  0
 13 14  1  0  0  0  0
 14 22  1  0  0  0  0
 15 17  1  0  0  0  0
 15 14  2  0  0  0  0
 16 15  1  0  0  0  0
 17 18  2  0  0  0  0
 18 19  1  0  0  0  0
 18 20  1  0  0  0  0
 20 21  1  0  0  0  0
 22 20  2  0  0  0  0
M  END
>  <minimizedAffinity>
-4.19681931

$$$$

 OpenBabel03252504283D

 22 23  0  0  0  0  0  0  0  0999 V2000
   39.6240   30.5190   41.6750 C   0  0  0  0  0  0  0  0  0  0  0  0
   39.9550   29.6920   41.0370 H   0  0  0  0  0  0  0  0  0  0  0  0
   40.5420   31.1040   41.9580 H   0  0  0  0  0  0  0  0  0  0  0  0
   39.1520   32.7840   40.9620 C   0  0  0  0  0  0  0  0  0  0  0  0
   38.7480   31.4490   40.9410 C   0  0  0  0  0  0  0  0  0  0  0  0
   37.5950   31.1330   40.2510 C   0  0  0  0  0  0  0  0  0  0  0  0
   36.9370   32.1380   39.6440 N   0  0  0  0  0  0  0  0  0  0  0  0
   37.3450   33.4130   39.6780 C   0  0  0  0  0  0  0  0  0  0  0  0
   38.4850   33.8030   40.3460 N   0  0  0  0  0  0  0  0  0  0  0  0
   40.0530   33.1040   41.4880 H   0  0  0  0  0  0  0  0  0  0  0  0
   37.3130   30.0920   40.2550 H   0  0  0  0  0  0  0  0  0  0  0  0
   36.7360   34.1330   39.1550 H   0  0  0  0  0  0  0  0  0  0  0  0
   39.0680   30.0560   42.8590 O   0  0  0  0  0  0  0  0  0  0  0  0
   38.3660   28.8490   42.8430 C   0  0  0  0  0  0  0  0  0  0  0  0
   37.2360   28.5460   43.5750 C   0  0  0  0  0  0  0  0  0  0  0  0
   36.8720   29.3490   44.2260 H   0  0  0  0  0  0  0  0  0  0  0  0
   36.6490   27.3190   43.4610 C   0  0  0  0  0  3  0  0  0  0  0  0
   37.1590   26.3490   42.6200 C   0  0  0  0  0  0  0  0  0  0  0  0
   36.6780   25.3650   42.5370 H   0  0  0  0  0  0  0  0  0  0  0  0
   38.2890   26.6300   41.8790 C   0  0  0  0  0  0  0  0  0  0  0  0
   38.6790   25.8590   41.2220 H   0  0  0  0  0  0  0  0  0  0  0  0
   38.8730   27.8660   41.9990 C   0  0  0  0  0  3  0  0  0  0  0  0
  1  3  1  0  0  0  0
  1 13  1  0  0  0  0
  2  1  1  0  0  0  0
  4 10  1  0  0  0  0
  5  4  1  0  0  0  0
  5  1  1  0  0  0  0
  6 11  1  0  0  0  0
  6  5  2  0  0  0  0
  7  8  2  0  0  0  0
  7  6  1  0  0  0  0
  8  9  1  0  0  0  0
  9  4  2  0  0  0  0
 12  8  1  0  0  0  0
 14 13  1  0  0  0  0
 14 15  1  0  0  0  0
 15 16  1  0  0  0  0
 17 15  2  0  0  0  0
 18 17  1  0  0  0  0
 19 18  1  0  0  0  0
 20 22  1  0  0  0  0
 20 18  2  0  0  0  0
 21 20  1  0  0  0  0
 22 14  2  0  0  0  0
M  END
>  <minimizedAffinity>
-4.19084787

$$$$

 OpenBabel03252504283D

 22 23  0  0  0  0  0  0  0  0999 V2000
   35.5250   28.9430   40.0280 C   0  0  0  0  0  0  0  0  0  0  0  0
   34.8530   29.0170   40.8900 H   0  0  0  0  0  0  0  0  0  0  0  0
   34.8820   28.7500   39.1260 H   0  0  0  0  0  0  0  0  0  0  0  0
   36.6200   30.4240   38.4570 C   0  0  0  0  0  0  0  0  0  0  0  0
   36.2240   30.2160   39.7780 C   0  0  0  0  0  0  0  0  0  0  0  0
   36.5150   31.1980   40.7030 C   0  0  0  0  0  0  0  0  0  0  0  0
   37.1640   32.2930   40.2650 N   0  0  0  0  0  0  0  0  0  0  0  0
   37.5340   32.4700   38.9900 C   0  0  0  0  0  0  0  0  0  0  0  0
   37.2780   31.5340   38.0130 N   0  0  0  0  0  0  0  0  0  0  0  0
   36.4210   29.6900   37.6740 H   0  0  0  0  0  0  0  0  0  0  0  0
   36.1940   31.0040   41.7140 H   0  0  0  0  0  0  0  0  0  0  0  0
   38.0500   33.3880   38.7570 H   0  0  0  0  0  0  0  0  0  0  0  0
   36.3810   27.8570   40.1440 O   0  0  0  0  0  0  0  0  0  0  0  0
   37.1110   27.7020   41.3240 C   0  0  0  0  0  0  0  0  0  0  0  0
   36.6100   27.7320   42.6110 C   0  0  0  0  0  0  0  0  0  0  0  0
   35.5290   27.8940   42.6870 H   0  0  0  0  0  0  0  0  0  0  0  0
   37.4430   27.5660   43.6790 C   0  0  0  0  0  3  0  0  0  0  0  0
   38.7990   27.3650   43.5130 C   0  0  0  0  0  0  0  0  0  0  0  0
   39.4600   27.2320   44.3810 H   0  0  0  0  0  0  0  0  0  0  0  0
   39.3220   27.3320   42.2360 C   0  0  0  0  0  0  0  0  0  0  0  0
   40.3900   27.1730   42.1210 H   0  0  0  0  0  0  0  0  0  0  0  0
   38.4780   27.5000   41.1670 C   0  0  0  0  0  3  0  0  0  0  0  0
  1 13  1  0  0  0  0
  1  2  1  0  0  0  0
  3  1  1  0  0  0  0
  4  5  1  0  0  0  0
  5  1  1  0  0  0  0
  5  6  2  0  0  0  0
  6 11  1  0  0  0  0
  7  6  1  0  0  0  0
  8  7  2  0  0  0  0
  9  4  2  0  0  0  0
  9  8  1  0  0  0  0
 10  4  1  0  0  0  0
 12  8  1  0  0  0  0
 13 14  1  0  0  0  0
 14 15  1  0  0  0  0
 15 16  1  0  0  0  0
 15 17  2  0  0  0  0
 18 17  1  0  0  0  0
 18 19  1  0  0  0  0
 20 18  2  0  0  0  0
 21 20  1  0  0  0  0
 22 14  2  0  0  0  0
 22 20  1  0  0  0  0
M  END
>  <minimizedAffinity>
-4.12593603

$$$$

 OpenBabel03252504283D

 22 23  0  0  0  0  0  0  0  0999 V2000
   37.5570   28.1690   42.9900 C   0  0  0  0  0  0  0  0  0  0  0  0
   37.3580   28.4660   44.0250 H   0  0  0  0  0  0  0  0  0  0  0  0
   38.2960   28.9080   42.5730 H   0  0  0  0  0  0  0  0  0  0  0  0
   39.4190   26.7490   43.6060 C   0  0  0  0  0  0  0  0  0  0  0  0
   38.2060   26.8480   42.9240 C   0  0  0  0  0  0  0  0  0  0  0  0
   37.7390   25.7270   42.2670 C   0  0  0  0  0  0  0  0  0  0  0  0
   38.4890   24.6110   42.3310 N   0  0  0  0  0  0  0  0  0  0  0  0
   39.6510   24.5400   42.9930 C   0  0  0  0  0  0  0  0  0  0  0  0
   40.1790   25.6170   43.6710 N   0  0  0  0  0  0  0  0  0  0  0  0
   39.8450   27.5950   44.1470 H   0  0  0  0  0  0  0  0  0  0  0  0
   36.7990   25.8400   41.7510 H   0  0  0  0  0  0  0  0  0  0  0  0
   40.1650   23.5930   42.9740 H   0  0  0  0  0  0  0  0  0  0  0  0
   36.4160   28.2640   42.2070 O   0  0  0  0  0  0  0  0  0  0  0  0
   36.4470   29.0820   41.0750 C   0  0  0  0  0  0  0  0  0  0  0  0
   36.2620   28.6810   39.7660 C   0  0  0  0  0  0  0  0  0  0  0  0
   36.0740   27.6110   39.6280 H   0  0  0  0  0  0  0  0  0  0  0  0
   36.3190   29.5930   38.7520 C   0  0  0  0  0  3  0  0  0  0  0  0
   36.5600   30.9310   38.9960 C   0  0  0  0  0  0  0  0  0  0  0  0
   36.6040   31.6550   38.1710 H   0  0  0  0  0  0  0  0  0  0  0  0
   36.7480   31.3530   40.2970 C   0  0  0  0  0  0  0  0  0  0  0  0
   36.9370   32.4070   40.4730 H   0  0  0  0  0  0  0  0  0  0  0  0
   36.6900   30.4300   41.3100 C   0  0  0  0  0  3  0  0  0  0  0  0
  1  2  1  0  0  0  0
  3  1  1  0  0  0  0
  4  9  1  0  0  0  0
  4 10  1  0  0  0  0
  5  1  1  0  0  0  0
  5  4  2  0  0  0  0
  6  7  2  0  0  0  0
  6  5  1  0  0  0  0
  7  8  1  0  0  0  0
  8  9  2  0  0  0  0
 11  6  1  0  0  0  0
 12  8  1  0  0  0  0
 13  1  1  0  0  0  0
 14 22  1  0  0  0  0
 14 13  1  0  0  0  0
 15 14  2  0  0  0  0
 16 15  1  0  0  0  0
 17 18  2  0  0  0  0
 17 15  1  0  0  0  0
 18 20  1  0  0  0  0
 19 18  1  0  0  0  0
 20 21  1  0  0  0  0
 20 22  2  0  0  0  0
M  END
>  <minimizedAffinity>
-4.10841417

$$$$
