
 OpenBabel03252509323D

 27 28  0  0  0  0  0  0  0  0999 V2000
   50.0200   33.0140   41.4530 O   0  0  0  0  0  0  0  0  0  0  0  0
   49.2180   34.1180   42.0760 P   0  0  2  0  0  0  0  0  0  0  0  0
   50.1660   35.1170   43.0690 O   0  0  0  0  0  0  0  0  0  0  0  0
   51.1000   34.8240   43.0050 H   0  0  0  0  0  0  0  0  0  0  0  0
   48.0140   33.4620   43.0650 O   0  0  0  0  0  0  0  0  0  0  0  0
   46.9010   34.3100   42.9460 C   0  0  0  0  0  0  0  0  0  0  0  0
   46.2140   33.9390   42.1430 H   0  0  0  0  0  0  0  0  0  0  0  0
   47.1770   35.3480   42.6650 H   0  0  0  0  0  0  0  0  0  0  0  0
   45.5990   33.4800   46.3360 C   0  0  0  0  0  0  0  0  0  0  0  0
   46.3480   33.4020   45.1610 C   0  0  0  0  0  0  0  0  0  0  0  0
   46.1420   34.3510   44.1870 C   0  0  0  0  0  0  0  0  0  0  0  0
   45.2030   35.3440   44.4090 N   0  0  0  0  0  0  0  0  0  0  0  0
   44.4940   35.3790   45.5740 C   0  0  0  0  0  0  0  0  0  0  0  0
   44.6880   34.4670   46.5170 N   0  0  0  0  0  0  0  0  0  0  0  0
   45.8180   32.6980   47.0520 H   0  0  0  0  0  0  0  0  0  0  0  0
   47.0880   32.6350   44.9670 H   0  0  0  0  0  0  0  0  0  0  0  0
   43.7630   36.1840   45.7010 H   0  0  0  0  0  0  0  0  0  0  0  0
   48.4970   35.0320   40.8680 O   0  0  0  0  0  0  0  0  0  0  0  0
   48.0310   34.4350   39.7070 C   0  0  0  0  0  0  0  0  0  0  0  0
   48.7240   34.9270   38.6050 C   0  0  0  0  0  0  0  0  0  0  0  0
   49.5130   35.6610   38.5940 H   0  0  0  0  0  0  0  0  0  0  0  0
   48.4300   34.4720   37.3140 C   0  0  0  0  0  3  0  0  0  0  0  0
   47.4420   33.5270   37.1370 C   0  0  0  0  0  0  0  0  0  0  0  0
   47.1650   33.1340   36.1820 H   0  0  0  0  0  0  0  0  0  0  0  0
   46.7550   33.0430   38.2560 C   0  0  0  0  0  0  0  0  0  0  0  0
   45.9610   32.2900   38.1710 H   0  0  0  0  0  0  0  0  0  0  0  0
   47.0460   33.4920   39.5260 C   0  0  0  0  0  3  0  0  0  0  0  0
  2  1  2  6  0  0  0
  2  5  1  0  0  0  0
  2  3  1  0  0  0  0
  4  3  1  0  0  0  0
  6  5  1  0  0  0  0
  6 11  1  0  0  0  0
  7  6  1  0  0  0  0
  8  6  1  0  0  0  0
  9 14  1  0  0  0  0
  9 15  1  0  0  0  0
 10  9  2  0  0  0  0
 11 12  2  0  0  0  0
 11 10  1  0  0  0  0
 12 13  1  0  0  0  0
 13 17  1  0  0  0  0
 13 14  2  0  0  0  0
 16 10  1  0  0  0  0
 18  2  1  0  0  0  0
 19 18  1  0  0  0  0
 20 19  2  0  0  0  0
 21 20  1  0  0  0  0
 22 20  1  0  0  0  0
 23 22  2  0  0  0  0
 23 25  1  0  0  0  0
 24 23  1  0  0  0  0
 25 27  2  0  0  0  0
 26 25  1  0  0  0  0
 27 19  1  0  0  0  0
M  END
>  <minimizedAffinity>
-4.86556005

>  <minimizedRMSD>
1.42552686

$$$$
