
 OpenBabel03242517483D

 43 46  0  0  0  0  0  0  0  0999 V2000
   38.5620   31.7780   41.1630 C   0  0  0  0  0  0  0  0  0  0  0  0
   39.9370   31.7160   40.8450 C   0  0  0  0  0  0  0  0  0  0  0  0
   40.4270   30.5300   40.3330 C   0  0  0  0  0  0  0  0  0  0  0  0
   39.5860   29.4910   40.1620 N   0  0  0  0  0  0  0  0  0  0  0  0
   38.2610   29.5840   40.4800 C   0  0  0  0  0  0  0  0  0  0  0  0
   37.7320   30.7010   40.9760 N   0  0  0  0  0  0  0  0  0  0  0  0
   38.1710   32.6940   41.5600 H   0  0  0  0  0  0  0  0  0  0  0  0
   41.4890   30.4530   40.0770 H   0  0  0  0  0  0  0  0  0  0  0  0
   37.3920   28.4050   40.2660 C   0  0  0  0  0  0  0  0  0  0  0  0
   37.6620   27.8870   39.3100 H   0  0  0  0  0  0  0  0  0  0  0  0
   37.6050   27.6520   41.0520 H   0  0  0  0  0  0  0  0  0  0  0  0
   35.9180   28.7730   40.2440 C   0  0  0  0  0  0  0  0  0  0  0  0
   35.8810   29.8910   40.2060 H   0  0  0  0  0  0  0  0  0  0  0  0
   35.5210   28.5150   41.2530 H   0  0  0  0  0  0  0  0  0  0  0  0
   35.1840   28.1480   39.1460 C   0  0  0  0  0  0  0  0  0  0  0  0
   33.8030   28.1250   39.1140 C   0  0  0  0  0  0  0  0  0  0  0  0
   33.2010   28.5790   39.9160 H   0  0  0  0  0  0  0  0  0  0  0  0
   33.1470   27.5250   38.0580 C   0  0  0  0  0  0  0  0  0  0  0  0
   33.8100   26.9270   37.0020 C   0  0  0  0  0  0  0  0  0  0  0  0
   33.3070   26.4540   36.1700 H   0  0  0  0  0  0  0  0  0  0  0  0
   35.1890   26.9480   37.0290 C   0  0  0  0  0  0  0  0  0  0  0  0
   35.7090   26.4800   36.2010 H   0  0  0  0  0  0  0  0  0  0  0  0
   35.8380   27.5490   38.0850 C   0  0  0  0  0  0  0  0  0  0  0  0
   40.9740   33.1290   41.1010 S   0  0  0  0  0  0  0  0  0  0  0  0
   40.9640   34.1620   39.6620 C   0  0  0  0  0  0  0  0  0  0  0  0
   39.8970   34.2360   38.7750 C   0  0  0  0  0  0  0  0  0  0  0  0
   39.9620   35.0740   37.6610 C   0  0  0  0  0  0  0  0  0  0  0  0
   41.0640   35.8350   37.4160 C   0  0  0  0  0  0  0  0  0  0  0  0
   42.1260   35.7590   38.3020 C   0  0  0  0  0  0  0  0  0  0  0  0
   42.0910   34.9330   39.4210 C   0  0  0  0  0  0  0  0  0  0  0  0
   39.0380   33.6220   38.9940 H   0  0  0  0  0  0  0  0  0  0  0  0
   39.1090   35.1060   36.9900 H   0  0  0  0  0  0  0  0  0  0  0  0
   41.0790   36.4740   36.5420 H   0  0  0  0  0  0  0  0  0  0  0  0
   42.9800   36.3740   38.0780 H   0  0  0  0  0  0  0  0  0  0  0  0
   43.2130   34.8690   40.3350 C   0  0  0  0  0  0  0  0  0  0  0  0
   44.2830   34.0280   40.1770 C   0  0  0  0  0  0  0  0  0  0  0  0
   45.3580   33.9720   41.0600 C   0  0  0  0  0  0  0  0  0  0  0  0
   45.3430   34.7860   42.1230 N   0  0  0  0  0  0  0  0  0  0  0  0
   44.2940   35.6170   42.2860 C   0  0  0  0  0  0  0  0  0  0  0  0
   43.2510   35.6680   41.4260 N   0  0  0  0  0  0  0  0  0  0  0  0
   44.2720   33.3780   39.3070 H   0  0  0  0  0  0  0  0  0  0  0  0
   46.1350   33.2680   40.8220 H   0  0  0  0  0  0  0  0  0  0  0  0
   44.2320   36.3030   43.1390 H   0  0  0  0  0  0  0  0  0  0  0  0
  1  7  1  0  0  0  0
  2 24  1  0  0  0  0
  2  1  2  0  0  0  0
  3  2  1  0  0  0  0
  4  3  2  0  0  0  0
  4  5  1  0  0  0  0
  5  6  2  0  0  0  0
  6  1  1  0  0  0  0
  8  3  1  0  0  0  0
  9  5  1  0  0  0  0
  9 11  1  0  0  0  0
 10  9  1  0  0  0  0
 12  9  1  0  0  0  0
 12 14  1  0  0  0  0
 13 12  1  0  0  0  0
 15 12  1  0  0  0  0
 16 15  1  0  0  0  0
 16 17  1  0  0  0  0
 18 16  2  0  0  0  0
 19 21  2  0  0  0  0
 19 18  1  0  0  0  0
 20 19  1  0  0  0  0
 21 23  1  0  0  0  0
 22 21  1  0  0  0  0
 23 15  2  0  0  0  0
 25 24  1  0  0  0  0
 26 31  1  0  0  0  0
 26 25  2  0  0  0  0
 27 26  1  0  0  0  0
 28 27  2  0  0  0  0
 28 29  1  0  0  0  0
 29 30  2  0  0  0  0
 30 25  1  0  0  0  0
 30 35  1  0  0  0  0
 32 27  1  0  0  0  0
 33 28  1  0  0  0  0
 34 29  1  0  0  0  0
 35 40  1  0  0  0  0
 36 35  2  0  0  0  0
 36 37  1  0  0  0  0
 37 38  2  0  0  0  0
 38 39  1  0  0  0  0
 39 43  1  0  0  0  0
 40 39  2  0  0  0  0
 41 36  1  0  0  0  0
 42 37  1  0  0  0  0
M  END
>  <minimizedAffinity>
-5.44109297

>  <minimizedRMSD>
1.67443573

$$$$
