
 OpenBabel03242517353D

 23 24  0  0  0  0  0  0  0  0999 V2000
   41.9920   35.4290   39.5260 C   0  0  0  0  0  0  0  0  0  0  0  0
   42.7360   35.1050   38.7550 H   0  0  0  0  0  0  0  0  0  0  0  0
   41.9680   36.5270   39.4930 H   0  0  0  0  0  0  0  0  0  0  0  0
   40.6590   34.8180   39.2570 C   0  0  0  0  0  0  0  0  0  0  0  0
   40.2700   34.6490   37.9290 C   0  0  0  0  0  0  0  0  0  0  0  0
   40.9240   34.9560   37.1050 H   0  0  0  0  0  0  0  0  0  0  0  0
   39.0280   34.0790   37.6710 C   0  0  0  0  0  0  0  0  0  0  0  0
   38.1680   33.6760   38.6920 C   0  0  0  0  0  0  0  0  0  0  0  0
   37.2010   33.2330   38.4770 H   0  0  0  0  0  0  0  0  0  0  0  0
   38.5690   33.8500   40.0080 C   0  0  0  0  0  0  0  0  0  0  0  0
   37.9380   33.5520   40.8460 H   0  0  0  0  0  0  0  0  0  0  0  0
   39.8010   34.4150   40.2760 C   0  0  0  0  0  0  0  0  0  0  0  0
   43.6150   35.4550   41.3960 C   0  0  0  0  0  0  0  0  0  0  0  0
   42.5360   34.9650   40.8360 C   0  0  0  0  0  0  0  0  0  0  0  0
   44.2820   35.8960   43.7600 C   0  0  0  0  0  0  0  0  0  0  0  0
   44.1940   35.0500   42.6590 C   0  0  0  0  0  0  0  0  0  0  0  0
   44.6860   33.7630   42.7890 C   0  0  0  0  0  0  0  0  0  0  0  0
   45.2380   33.3650   43.9780 N   0  0  0  0  0  0  0  0  0  0  0  0
   45.3060   34.2210   45.0330 C   0  0  0  0  0  0  0  0  0  0  0  0
   44.8300   35.4720   44.9140 N   0  0  0  0  0  0  0  0  0  0  0  0
   43.9020   36.9070   43.6810 H   0  0  0  0  0  0  0  0  0  0  0  0
   44.6550   33.0460   41.9800 H   0  0  0  0  0  0  0  0  0  0  0  0
   45.7670   33.7630   45.8980 H   0  0  0  0  0  0  0  0  0  0  0  0
  1 14  1  0  0  0  0
  2  1  1  0  0  0  0
  3  1  1  0  0  0  0
  4  1  1  0  0  0  0
  4 12  1  0  0  0  0
  5  4  2  0  0  0  0
  6  5  1  0  0  0  0
  7  5  1  0  0  0  0
  7  8  2  0  0  0  0
  8 10  1  0  0  0  0
  9  8  1  0  0  0  0
 10 12  2  0  0  0  0
 10 11  1  0  0  0  0
 13 16  1  0  0  0  0
 14 13  2  0  0  0  0
 15 20  1  0  0  0  0
 16 17  1  0  0  0  0
 16 15  2  0  0  0  0
 17 18  2  0  0  0  0
 18 19  1  0  0  0  0
 19 23  1  0  0  0  0
 20 19  2  0  0  0  0
 21 15  1  0  0  0  0
 22 17  1  0  0  0  0
M  END
>  <minimizedAffinity>
-5.31326199

>  <minimizedRMSD>
1.70591366

$$$$
