
 OpenBabel03242516463D

 42 46  0  0  1  0  0  0  0  0999 V2000
   45.5790   32.9050   42.3690 C   0  0  0  0  0  0  0  0  0  0  0  0
   44.7300   31.8590   42.4130 N   0  0  0  0  0  0  0  0  0  0  0  0
   43.4930   32.2370   42.0710 C   0  0  0  0  0  0  0  0  0  0  0  0
   43.5580   33.5670   41.8020 N   0  0  0  0  0  0  0  0  0  0  0  0
   44.7940   33.9810   41.9750 N   0  0  0  0  0  0  0  0  0  0  0  0
   42.6110   31.6070   42.0190 H   0  0  0  0  0  0  0  0  0  0  0  0
   40.5130   33.0230   41.6750 O   0  0  0  0  0  0  0  0  0  0  0  0
   41.3020   33.6600   40.9080 C   0  0  0  0  0  0  0  0  0  0  0  0
   42.4710   34.4360   41.3860 C   0  0  2  0  0  0  0  0  0  0  0  0
   42.8630   35.2550   40.1680 C   0  0  0  0  0  0  0  0  0  0  0  0
   42.5330   34.2830   39.0320 C   0  0  0  0  0  0  0  0  0  0  0  0
   41.2450   33.7730   39.4700 N   0  0  0  0  0  0  0  0  0  0  0  0
   42.1520   35.0620   42.2250 H   0  0  0  0  0  0  0  0  0  0  0  0
   42.1480   36.0920   40.1250 H   0  0  0  0  0  0  0  0  0  0  0  0
   43.9190   35.5430   40.1630 H   0  0  0  0  0  0  0  0  0  0  0  0
   42.3840   34.9030   38.1080 H   0  0  0  0  0  0  0  0  0  0  0  0
   43.3020   33.5160   38.9360 H   0  0  0  0  0  0  0  0  0  0  0  0
   40.1190   33.4370   38.6680 C   0  0  0  0  0  0  0  0  0  0  0  0
   40.0610   32.0860   38.3700 C   0  0  0  0  0  0  0  0  0  0  0  0
   40.7840   31.3450   38.7010 H   0  0  0  0  0  0  0  0  0  0  0  0
   39.0370   31.5710   37.6010 C   0  0  0  0  0  0  0  0  0  0  0  0
   38.0480   32.4000   37.1130 C   0  0  0  0  0  0  0  0  0  0  0  0
   37.2130   32.0730   36.5050 H   0  0  0  0  0  0  0  0  0  0  0  0
   38.1380   33.7360   37.4300 C   0  0  0  0  0  0  0  0  0  0  0  0
   37.3940   34.4380   37.0770 H   0  0  0  0  0  0  0  0  0  0  0  0
   39.1430   34.2760   38.1910 C   0  0  0  0  0  0  0  0  0  0  0  0
   47.6490   32.9580   43.9850 C   0  0  1  0  0  0  0  0  0  0  0  0
   47.0160   33.0050   42.6390 C   0  0  2  0  0  0  0  0  0  0  0  0
   47.5180   34.2230   43.2320 C   0  0  0  0  0  0  0  0  0  0  0  0
   48.6290   32.4410   44.0060 H   0  0  0  0  0  0  0  0  0  0  0  0
   47.6150   32.5590   41.7880 H   0  0  0  0  0  0  0  0  0  0  0  0
   46.8380   35.0400   43.5860 H   0  0  0  0  0  0  0  0  0  0  0  0
   48.4510   34.6810   42.7990 H   0  0  0  0  0  0  0  0  0  0  0  0
   46.9460   31.4650   45.8450 C   0  0  0  0  0  0  0  0  0  0  0  0
   46.8610   32.7040   45.2130 C   0  0  0  0  0  0  0  0  0  0  0  0
   46.0420   33.6420   45.7920 C   0  0  0  0  0  0  0  0  0  0  0  0
   45.3790   33.3020   46.9270 N   0  0  0  0  0  0  0  0  0  0  0  0
   45.4740   32.1160   47.5110 C   0  0  0  0  0  0  0  0  0  0  0  0
   46.2730   31.1950   46.9490 N   0  0  0  0  0  0  0  0  0  0  0  0
   47.5610   30.6640   45.4690 H   0  0  0  0  0  0  0  0  0  0  0  0
   45.9400   34.6210   45.3420 H   0  0  0  0  0  0  0  0  0  0  0  0
   44.8970   31.9750   48.4050 H   0  0  0  0  0  0  0  0  0  0  0  0
  1  2  1  0  0  0  0
  1 28  1  0  0  0  0
  3  2  2  0  0  0  0
  4  5  1  0  0  0  0
  4  3  1  0  0  0  0
  5  1  2  0  0  0  0
  6  3  1  0  0  0  0
  8  9  1  0  0  0  0
  8  7  2  0  0  0  0
  9  4  1  0  0  0  0
  9 13  1  1  0  0  0
 10  9  1  0  0  0  0
 11 12  1  0  0  0  0
 11 10  1  0  0  0  0
 12  8  1  0  0  0  0
 14 10  1  0  0  0  0
 15 10  1  0  0  0  0
 16 11  1  0  0  0  0
 17 11  1  0  0  0  0
 18 12  1  0  0  0  0
 19 18  1  0  0  0  0
 19 20  1  0  0  0  0
 21 19  2  0  0  0  0
 22 24  2  0  0  0  0
 22 21  1  0  0  0  0
 23 22  1  0  0  0  0
 24 26  1  0  0  0  0
 25 24  1  0  0  0  0
 26 18  2  0  0  0  0
 27 30  1  1  0  0  0
 27 35  1  0  0  0  0
 28 31  1  6  0  0  0
 28 29  1  0  0  0  0
 28 27  1  0  0  0  0
 29 32  1  0  0  0  0
 29 27  1  0  0  0  0
 33 29  1  0  0  0  0
 34 39  1  0  0  0  0
 35 36  1  0  0  0  0
 35 34  2  0  0  0  0
 36 37  2  0  0  0  0
 37 38  1  0  0  0  0
 38 42  1  0  0  0  0
 39 38  2  0  0  0  0
 40 34  1  0  0  0  0
 41 36  1  0  0  0  0
M  END
>  <minimizedAffinity>
-6.07469463

>  <minimizedRMSD>
1.55438149

$$$$
