
 OpenBabel03252502513D

 34 36  0  0  0  0  0  0  0  0999 V2000
   37.7220   33.1120   39.9390 C   0  0  0  0  0  0  0  0  0  0  0  0
   38.6780   32.5800   40.7990 C   0  0  0  0  0  0  0  0  0  0  0  0
   38.9040   31.2070   40.7470 C   0  0  0  0  0  0  0  0  0  0  0  0
   38.1780   30.4710   39.8600 N   0  0  0  0  0  0  0  0  0  0  0  0
   37.2540   31.0190   39.0360 C   0  0  0  0  0  0  0  0  0  0  0  0
   37.0200   32.3470   39.0720 N   0  0  0  0  0  0  0  0  0  0  0  0
   37.5600   34.1760   39.9920 H   0  0  0  0  0  0  0  0  0  0  0  0
   39.2150   33.2280   41.4750 H   0  0  0  0  0  0  0  0  0  0  0  0
   35.0920   29.3890   40.2700 Cl  0  0  0  0  0  0  0  0  0  0  0  0
   35.5030   29.3700   38.5730 C   0  0  0  0  0  0  0  0  0  0  0  0
   36.5110   30.1560   38.1070 C   0  0  0  0  0  0  0  0  0  0  0  0
   36.8710   30.1690   36.7480 C   0  0  0  0  0  0  0  0  0  0  0  0
   36.1460   29.3420   35.9200 C   0  0  0  0  0  0  0  0  0  0  0  0
   35.1360   28.5560   36.3870 C   0  0  0  0  0  0  0  0  0  0  0  0
   34.7970   28.5540   37.7130 C   0  0  0  0  0  0  0  0  0  0  0  0
   37.6920   30.8250   36.4470 H   0  0  0  0  0  0  0  0  0  0  0  0
   36.4370   29.3660   34.8790 H   0  0  0  0  0  0  0  0  0  0  0  0
   34.5710   27.9080   35.7210 H   0  0  0  0  0  0  0  0  0  0  0  0
   33.9950   27.9380   38.1140 H   0  0  0  0  0  0  0  0  0  0  0  0
   39.9110   30.6110   41.6460 C   0  0  0  0  0  0  0  0  0  0  0  0
   40.6950   31.3490   41.7930 H   0  0  0  0  0  0  0  0  0  0  0  0
   40.3430   29.7330   41.1040 H   0  0  0  0  0  0  0  0  0  0  0  0
   39.3330   30.0710   42.9320 C   0  0  0  0  0  0  0  0  0  0  0  0
   40.1760   29.9490   43.6530 H   0  0  0  0  0  0  0  0  0  0  0  0
   38.6390   30.8050   43.3850 H   0  0  0  0  0  0  0  0  0  0  0  0
   38.6410   28.7950   42.7750 C   0  0  0  0  0  0  0  0  0  0  0  0
   37.3860   28.6630   43.3790 C   0  0  0  0  0  0  0  0  0  0  0  0
   36.9580   29.4990   43.9440 H   0  0  0  0  0  0  0  0  0  0  0  0
   36.6130   27.5110   43.3150 C   0  0  0  0  0  3  0  0  0  0  0  0
   37.1140   26.4420   42.6180 C   0  0  0  0  0  0  0  0  0  0  0  0
   36.5290   25.5340   42.5550 H   0  0  0  0  0  0  0  0  0  0  0  0
   38.3380   26.5510   42.0200 C   0  0  0  0  0  0  0  0  0  0  0  0
   38.7580   25.7260   41.4650 H   0  0  0  0  0  0  0  0  0  0  0  0
   39.1140   27.7140   42.0870 C   0  0  0  0  0  3  0  0  0  0  0  0
  1  7  1  0  0  0  0
  1  2  1  0  0  0  0
  2  8  1  0  0  0  0
  3  2  2  0  0  0  0
  3 20  1  0  0  0  0
  4  3  1  0  0  0  0
  5  6  1  0  0  0  0
  5  4  2  0  0  0  0
  6  1  2  0  0  0  0
 10  9  1  0  0  0  0
 11 10  1  0  0  0  0
 11  5  1  0  0  0  0
 12 11  2  0  0  0  0
 13 14  2  0  0  0  0
 13 12  1  0  0  0  0
 14 15  1  0  0  0  0
 15 19  1  0  0  0  0
 15 10  2  0  0  0  0
 16 12  1  0  0  0  0
 17 13  1  0  0  0  0
 18 14  1  0  0  0  0
 20 21  1  0  0  0  0
 20 23  1  0  0  0  0
 22 20  1  0  0  0  0
 23 25  1  0  0  0  0
 23 24  1  0  0  0  0
 26 23  1  0  0  0  0
 26 27  1  0  0  0  0
 27 28  1  0  0  0  0
 29 27  2  0  0  0  0
 30 29  1  0  0  0  0
 31 30  1  0  0  0  0
 32 34  1  0  0  0  0
 32 30  2  0  0  0  0
 33 32  1  0  0  0  0
 34 26  2  0  0  0  0
M  END
>  <minimizedAffinity>
-5.7306385

$$$$

 OpenBabel03252502513D

 34 36  0  0  0  0  0  0  0  0999 V2000
   36.6040   29.1970   36.9110 C   0  0  0  0  0  0  0  0  0  0  0  0
   35.2600   29.2180   36.5510 C   0  0  0  0  0  0  0  0  0  0  0  0
   34.3270   28.8170   37.5030 C   0  0  0  0  0  0  0  0  0  0  0  0
   34.7850   28.4300   38.7260 N   0  0  0  0  0  0  0  0  0  0  0  0
   36.1010   28.4210   39.0470 C   0  0  0  0  0  0  0  0  0  0  0  0
   37.0200   28.8060   38.1370 N   0  0  0  0  0  0  0  0  0  0  0  0
   37.3120   29.5110   36.1630 H   0  0  0  0  0  0  0  0  0  0  0  0
   34.9730   29.5380   35.5600 H   0  0  0  0  0  0  0  0  0  0  0  0
   36.2040   30.5730   41.0990 Cl  0  0  0  0  0  0  0  0  0  0  0  0
   36.5940   28.8980   41.3980 C   0  0  0  0  0  0  0  0  0  0  0  0
   36.5150   27.9890   40.3890 C   0  0  0  0  0  0  0  0  0  0  0  0
   36.8200   26.6320   40.5900 C   0  0  0  0  0  0  0  0  0  0  0  0
   37.2030   26.2790   41.8640 C   0  0  0  0  0  0  0  0  0  0  0  0
   37.2820   27.1890   42.8740 C   0  0  0  0  0  0  0  0  0  0  0  0
   36.9810   28.5070   42.6630 C   0  0  0  0  0  0  0  0  0  0  0  0
   36.7350   25.9590   39.7320 H   0  0  0  0  0  0  0  0  0  0  0  0
   37.4340   25.2310   41.9990 H   0  0  0  0  0  0  0  0  0  0  0  0
   37.5860   26.8960   43.8770 H   0  0  0  0  0  0  0  0  0  0  0  0
   37.0340   29.2560   43.4510 H   0  0  0  0  0  0  0  0  0  0  0  0
   32.8930   28.8270   37.1530 C   0  0  0  0  0  0  0  0  0  0  0  0
   32.3920   29.4980   37.8460 H   0  0  0  0  0  0  0  0  0  0  0  0
   32.5150   27.7880   37.3230 H   0  0  0  0  0  0  0  0  0  0  0  0
   32.6260   29.1410   35.7000 C   0  0  0  0  0  0  0  0  0  0  0  0
   33.6140   29.2820   35.2000 H   0  0  0  0  0  0  0  0  0  0  0  0
   32.1420   28.2790   35.1990 H   0  0  0  0  0  0  0  0  0  0  0  0
   31.8060   30.3320   35.4970 C   0  0  0  0  0  0  0  0  0  0  0  0
   31.0020   30.7510   36.5620 C   0  0  0  0  0  0  0  0  0  0  0  0
   31.0030   30.1930   37.5040 H   0  0  0  0  0  0  0  0  0  0  0  0
   30.1720   31.8640   36.5140 C   0  0  0  0  0  3  0  0  0  0  0  0
   30.1410   32.5900   35.3510 C   0  0  0  0  0  0  0  0  0  0  0  0
   29.5020   33.4600   35.2910 H   0  0  0  0  0  0  0  0  0  0  0  0
   30.9190   32.1960   34.2990 C   0  0  0  0  0  0  0  0  0  0  0  0
   30.9170   32.7480   33.3710 H   0  0  0  0  0  0  0  0  0  0  0  0
   31.7550   31.0750   34.3510 C   0  0  0  0  0  3  0  0  0  0  0  0
  1  6  1  0  0  0  0
  2  1  2  0  0  0  0
  2  3  1  0  0  0  0
  3  4  2  0  0  0  0
  4  5  1  0  0  0  0
  5 11  1  0  0  0  0
  6  5  2  0  0  0  0
  7  1  1  0  0  0  0
  8  2  1  0  0  0  0
  9 10  1  0  0  0  0
 10 15  1  0  0  0  0
 11 12  1  0  0  0  0
 11 10  2  0  0  0  0
 12 13  2  0  0  0  0
 13 17  1  0  0  0  0
 13 14  1  0  0  0  0
 14 18  1  0  0  0  0
 15 14  2  0  0  0  0
 15 19  1  0  0  0  0
 16 12  1  0  0  0  0
 20 22  1  0  0  0  0
 20  3  1  0  0  0  0
 20 21  1  0  0  0  0
 23 20  1  0  0  0  0
 24 23  1  0  0  0  0
 25 23  1  0  0  0  0
 26 23  1  0  0  0  0
 26 27  1  0  0  0  0
 27 28  1  0  0  0  0
 29 27  2  0  0  0  0
 30 29  1  0  0  0  0
 31 30  1  0  0  0  0
 32 34  1  0  0  0  0
 32 30  2  0  0  0  0
 33 32  1  0  0  0  0
 34 26  2  0  0  0  0
M  END
>  <minimizedAffinity>
-5.65774632

$$$$

 OpenBabel03252502513D

 34 36  0  0  0  0  0  0  0  0999 V2000
   35.3840   28.9640   40.6710 C   0  0  0  0  0  0  0  0  0  0  0  0
   35.8140   29.4090   39.4240 C   0  0  0  0  0  0  0  0  0  0  0  0
   37.1160   29.1010   39.0390 C   0  0  0  0  0  0  0  0  0  0  0  0
   37.8880   28.3850   39.9030 N   0  0  0  0  0  0  0  0  0  0  0  0
   37.4400   27.9650   41.1110 C   0  0  0  0  0  0  0  0  0  0  0  0
   36.1820   28.2550   41.5020 N   0  0  0  0  0  0  0  0  0  0  0  0
   34.3750   29.2110   40.9530 H   0  0  0  0  0  0  0  0  0  0  0  0
   35.1430   29.9720   38.7930 H   0  0  0  0  0  0  0  0  0  0  0  0
   39.1500   29.5930   42.9220 Cl  0  0  0  0  0  0  0  0  0  0  0  0
   39.1590   27.8490   42.8510 C   0  0  0  0  0  0  0  0  0  0  0  0
   38.3360   27.1970   41.9860 C   0  0  0  0  0  0  0  0  0  0  0  0
   38.3130   25.7940   41.9010 C   0  0  0  0  0  0  0  0  0  0  0  0
   39.1710   25.1220   42.7410 C   0  0  0  0  0  0  0  0  0  0  0  0
   39.9950   25.7740   43.6080 C   0  0  0  0  0  0  0  0  0  0  0  0
   40.0050   27.1410   43.6800 C   0  0  0  0  0  0  0  0  0  0  0  0
   37.6260   25.3400   41.1810 H   0  0  0  0  0  0  0  0  0  0  0  0
   39.1400   24.0440   42.6610 H   0  0  0  0  0  0  0  0  0  0  0  0
   40.6680   25.2300   44.2670 H   0  0  0  0  0  0  0  0  0  0  0  0
   40.6510   27.6890   44.3620 H   0  0  0  0  0  0  0  0  0  0  0  0
   37.6020   29.5580   37.7220 C   0  0  0  0  0  0  0  0  0  0  0  0
   37.1990   28.8820   36.9720 H   0  0  0  0  0  0  0  0  0  0  0  0
   38.7160   29.4520   37.7390 H   0  0  0  0  0  0  0  0  0  0  0  0
   37.3210   31.0150   37.4440 C   0  0  0  0  0  0  0  0  0  0  0  0
   37.6100   31.2160   36.3850 H   0  0  0  0  0  0  0  0  0  0  0  0
   36.2360   31.2220   37.5160 H   0  0  0  0  0  0  0  0  0  0  0  0
   38.0410   31.9310   38.3250 C   0  0  0  0  0  0  0  0  0  0  0  0
   37.2820   32.8470   39.0620 C   0  0  0  0  0  0  0  0  0  0  0  0
   36.1910   32.8590   38.9660 H   0  0  0  0  0  0  0  0  0  0  0  0
   37.8270   33.7760   39.9370 C   0  0  0  0  0  3  0  0  0  0  0  0
   39.1910   33.7950   40.0850 C   0  0  0  0  0  0  0  0  0  0  0  0
   39.6380   34.5100   40.7610 H   0  0  0  0  0  0  0  0  0  0  0  0
   39.9500   32.9080   39.3740 C   0  0  0  0  0  0  0  0  0  0  0  0
   41.0250   32.8980   39.4690 H   0  0  0  0  0  0  0  0  0  0  0  0
   39.3960   31.9720   38.4920 C   0  0  0  0  0  3  0  0  0  0  0  0
  1  7  1  0  0  0  0
  1  6  1  0  0  0  0
  2  1  2  0  0  0  0
  3  2  1  0  0  0  0
  3  4  2  0  0  0  0
  4  5  1  0  0  0  0
  5  6  2  0  0  0  0
  5 11  1  0  0  0  0
  8  2  1  0  0  0  0
 10  9  1  0  0  0  0
 10 15  1  0  0  0  0
 11 10  2  0  0  0  0
 12 11  1  0  0  0  0
 12 13  2  0  0  0  0
 13 14  1  0  0  0  0
 14 15  2  0  0  0  0
 14 18  1  0  0  0  0
 15 19  1  0  0  0  0
 16 12  1  0  0  0  0
 17 13  1  0  0  0  0
 20 22  1  0  0  0  0
 20  3  1  0  0  0  0
 21 20  1  0  0  0  0
 23 25  1  0  0  0  0
 23 20  1  0  0  0  0
 23 26  1  0  0  0  0
 24 23  1  0  0  0  0
 26 34  2  0  0  0  0
 26 27  1  0  0  0  0
 27 29  2  0  0  0  0
 28 27  1  0  0  0  0
 29 30  1  0  0  0  0
 30 31  1  0  0  0  0
 32 33  1  0  0  0  0
 32 30  2  0  0  0  0
 34 32  1  0  0  0  0
M  END
>  <minimizedAffinity>
-5.58689165

$$$$

 OpenBabel03252502513D

 34 36  0  0  0  0  0  0  0  0999 V2000
   36.7390   27.8140   35.9710 C   0  0  0  0  0  0  0  0  0  0  0  0
   35.4050   27.6570   35.6050 C   0  0  0  0  0  0  0  0  0  0  0  0
   34.4610   28.4630   36.2350 C   0  0  0  0  0  0  0  0  0  0  0  0
   34.8980   29.3530   37.1690 N   0  0  0  0  0  0  0  0  0  0  0  0
   36.2040   29.4830   37.5030 C   0  0  0  0  0  0  0  0  0  0  0  0
   37.1340   28.7100   36.9040 N   0  0  0  0  0  0  0  0  0  0  0  0
   37.4560   27.1830   35.4740 H   0  0  0  0  0  0  0  0  0  0  0  0
   35.1350   26.9280   34.8560 H   0  0  0  0  0  0  0  0  0  0  0  0
   35.3540   28.8440   40.2820 Cl  0  0  0  0  0  0  0  0  0  0  0  0
   36.2540   30.2680   39.8220 C   0  0  0  0  0  0  0  0  0  0  0  0
   36.5950   30.4680   38.5210 C   0  0  0  0  0  0  0  0  0  0  0  0
   37.3200   31.6010   38.1110 C   0  0  0  0  0  0  0  0  0  0  0  0
   37.6610   32.4930   39.1030 C   0  0  0  0  0  0  0  0  0  0  0  0
   37.3190   32.2920   40.4060 C   0  0  0  0  0  0  0  0  0  0  0  0
   36.6140   31.1840   40.7890 C   0  0  0  0  0  0  0  0  0  0  0  0
   37.5580   31.6950   37.0480 H   0  0  0  0  0  0  0  0  0  0  0  0
   38.2180   33.3580   38.7690 H   0  0  0  0  0  0  0  0  0  0  0  0
   37.5960   33.0060   41.1790 H   0  0  0  0  0  0  0  0  0  0  0  0
   36.3270   30.9970   41.8220 H   0  0  0  0  0  0  0  0  0  0  0  0
   33.0380   28.3200   35.8700 C   0  0  0  0  0  0  0  0  0  0  0  0
   32.5180   27.9140   36.7340 H   0  0  0  0  0  0  0  0  0  0  0  0
   32.9940   27.5720   35.0400 H   0  0  0  0  0  0  0  0  0  0  0  0
   32.4210   29.5880   35.3290 C   0  0  0  0  0  0  0  0  0  0  0  0
   33.2550   30.2850   35.0750 H   0  0  0  0  0  0  0  0  0  0  0  0
   31.8840   29.3850   34.3810 H   0  0  0  0  0  0  0  0  0  0  0  0
   31.5090   30.2430   36.2610 C   0  0  0  0  0  0  0  0  0  0  0  0
   30.9400   31.4570   35.8620 C   0  0  0  0  0  0  0  0  0  0  0  0
   31.1840   31.8820   34.8830 H   0  0  0  0  0  0  0  0  0  0  0  0
   30.0570   32.1910   36.6430 C   0  0  0  0  0  3  0  0  0  0  0  0
   29.7260   31.6940   37.8770 C   0  0  0  0  0  0  0  0  0  0  0  0
   29.0400   32.2490   38.5020 H   0  0  0  0  0  0  0  0  0  0  0  0
   30.2710   30.5080   38.2850 C   0  0  0  0  0  0  0  0  0  0  0  0
   30.0300   30.0910   39.2510 H   0  0  0  0  0  0  0  0  0  0  0  0
   31.1610   29.7710   37.4960 C   0  0  0  0  0  3  0  0  0  0  0  0
  1  6  1  0  0  0  0
  2  1  2  0  0  0  0
  2  3  1  0  0  0  0
  3  4  2  0  0  0  0
  4  5  1  0  0  0  0
  5 11  1  0  0  0  0
  6  5  2  0  0  0  0
  7  1  1  0  0  0  0
  8  2  1  0  0  0  0
 10  9  1  0  0  0  0
 10 15  1  0  0  0  0
 11 10  2  0  0  0  0
 12 11  1  0  0  0  0
 12 13  2  0  0  0  0
 13 14  1  0  0  0  0
 14 15  2  0  0  0  0
 14 18  1  0  0  0  0
 15 19  1  0  0  0  0
 16 12  1  0  0  0  0
 17 13  1  0  0  0  0
 20  3  1  0  0  0  0
 20 21  1  0  0  0  0
 22 20  1  0  0  0  0
 23 20  1  0  0  0  0
 23 26  1  0  0  0  0
 24 23  1  0  0  0  0
 25 23  1  0  0  0  0
 26 34  1  0  0  0  0
 27 26  2  0  0  0  0
 27 29  1  0  0  0  0
 28 27  1  0  0  0  0
 29 30  2  0  0  0  0
 30 32  1  0  0  0  0
 30 31  1  0  0  0  0
 32 33  1  0  0  0  0
 34 32  2  0  0  0  0
M  END
>  <minimizedAffinity>
-5.52356577

$$$$

 OpenBabel03252502513D

 34 36  0  0  0  0  0  0  0  0999 V2000
   40.4780   29.4630   42.7970 C   0  0  0  0  0  0  0  0  0  0  0  0
   39.8040   30.5380   42.2240 C   0  0  0  0  0  0  0  0  0  0  0  0
   38.6490   30.2670   41.4970 C   0  0  0  0  0  0  0  0  0  0  0  0
   38.2490   28.9690   41.3900 N   0  0  0  0  0  0  0  0  0  0  0  0
   38.9270   27.9440   41.9590 C   0  0  0  0  0  0  0  0  0  0  0  0
   40.0490   28.1870   42.6670 N   0  0  0  0  0  0  0  0  0  0  0  0
   41.3700   29.6910   43.3560 H   0  0  0  0  0  0  0  0  0  0  0  0
   40.1830   31.5410   42.3530 H   0  0  0  0  0  0  0  0  0  0  0  0
   36.4350   27.3090   43.4560 Cl  0  0  0  0  0  0  0  0  0  0  0  0
   37.2970   26.1800   42.4410 C   0  0  0  0  0  0  0  0  0  0  0  0
   38.4300   26.5700   41.7970 C   0  0  0  0  0  0  0  0  0  0  0  0
   39.1510   25.6920   40.9700 C   0  0  0  0  0  0  0  0  0  0  0  0
   38.6450   24.4170   40.8520 C   0  0  0  0  0  0  0  0  0  0  0  0
   37.5100   24.0270   41.4960 C   0  0  0  0  0  0  0  0  0  0  0  0
   36.8190   24.8940   42.2980 C   0  0  0  0  0  0  0  0  0  0  0  0
   40.0530   26.0750   40.4850 H   0  0  0  0  0  0  0  0  0  0  0  0
   39.2130   23.7560   40.2120 H   0  0  0  0  0  0  0  0  0  0  0  0
   37.1210   23.0160   41.3940 H   0  0  0  0  0  0  0  0  0  0  0  0
   35.9090   24.6110   42.8240 H   0  0  0  0  0  0  0  0  0  0  0  0
   37.9110   31.3850   40.8780 C   0  0  0  0  0  0  0  0  0  0  0  0
   38.5440   31.8020   40.0980 H   0  0  0  0  0  0  0  0  0  0  0  0
   37.7690   32.1560   41.6760 H   0  0  0  0  0  0  0  0  0  0  0  0
   36.5280   31.0100   40.4030 C   0  0  0  0  0  0  0  0  0  0  0  0
   36.1430   30.2150   41.0860 H   0  0  0  0  0  0  0  0  0  0  0  0
   35.8360   31.8690   40.5030 H   0  0  0  0  0  0  0  0  0  0  0  0
   36.4890   30.5260   39.0260 C   0  0  0  0  0  0  0  0  0  0  0  0
   35.5800   29.5060   38.7260 C   0  0  0  0  0  0  0  0  0  0  0  0
   34.9320   29.1000   39.5090 H   0  0  0  0  0  0  0  0  0  0  0  0
   35.4330   28.9480   37.4630 C   0  0  0  0  0  3  0  0  0  0  0  0
   36.2270   29.4280   36.4530 C   0  0  0  0  0  0  0  0  0  0  0  0
   36.1300   29.0080   35.4610 H   0  0  0  0  0  0  0  0  0  0  0  0
   37.1210   30.4250   36.7260 C   0  0  0  0  0  0  0  0  0  0  0  0
   37.7600   30.8240   35.9530 H   0  0  0  0  0  0  0  0  0  0  0  0
   37.2670   30.9850   38.0010 C   0  0  0  0  0  3  0  0  0  0  0  0
  1  7  1  0  0  0  0
  2  8  1  0  0  0  0
  2  1  2  0  0  0  0
  3  2  1  0  0  0  0
  4  3  2  0  0  0  0
  4  5  1  0  0  0  0
  5  6  2  0  0  0  0
  6  1  1  0  0  0  0
 10  9  1  0  0  0  0
 11  5  1  0  0  0  0
 11 10  2  0  0  0  0
 12 11  1  0  0  0  0
 13 12  2  0  0  0  0
 13 14  1  0  0  0  0
 14 15  2  0  0  0  0
 15 10  1  0  0  0  0
 15 19  1  0  0  0  0
 16 12  1  0  0  0  0
 17 13  1  0  0  0  0
 18 14  1  0  0  0  0
 20  3  1  0  0  0  0
 20 22  1  0  0  0  0
 21 20  1  0  0  0  0
 23 25  1  0  0  0  0
 23 20  1  0  0  0  0
 23 24  1  0  0  0  0
 26 23  1  0  0  0  0
 27 26  1  0  0  0  0
 27 28  1  0  0  0  0
 29 27  2  0  0  0  0
 30 32  2  0  0  0  0
 30 29  1  0  0  0  0
 31 30  1  0  0  0  0
 32 34  1  0  0  0  0
 33 32  1  0  0  0  0
 34 26  2  0  0  0  0
M  END
>  <minimizedAffinity>
-5.45123243

$$$$

 OpenBabel03252502513D

 34 36  0  0  0  0  0  0  0  0999 V2000
   36.5260   28.5870   36.8640 C   0  0  0  0  0  0  0  0  0  0  0  0
   35.1680   28.7450   36.6040 C   0  0  0  0  0  0  0  0  0  0  0  0
   34.2970   28.7570   37.6910 C   0  0  0  0  0  0  0  0  0  0  0  0
   34.8260   28.6140   38.9380 N   0  0  0  0  0  0  0  0  0  0  0  0
   36.1540   28.4630   39.1580 C   0  0  0  0  0  0  0  0  0  0  0  0
   37.0130   28.4480   38.1180 N   0  0  0  0  0  0  0  0  0  0  0  0
   37.1850   28.5810   36.0130 H   0  0  0  0  0  0  0  0  0  0  0  0
   34.8230   28.8530   35.5870 H   0  0  0  0  0  0  0  0  0  0  0  0
   36.5800   25.6590   40.0590 Cl  0  0  0  0  0  0  0  0  0  0  0  0
   36.8720   27.0730   41.0420 C   0  0  0  0  0  0  0  0  0  0  0  0
   36.6460   28.3140   40.5350 C   0  0  0  0  0  0  0  0  0  0  0  0
   36.8690   29.4760   41.2940 C   0  0  0  0  0  0  0  0  0  0  0  0
   37.3290   29.2830   42.5770 C   0  0  0  0  0  0  0  0  0  0  0  0
   37.5560   28.0390   43.0850 C   0  0  0  0  0  0  0  0  0  0  0  0
   37.3330   26.9180   42.3330 C   0  0  0  0  0  0  0  0  0  0  0  0
   36.6640   30.4400   40.8200 H   0  0  0  0  0  0  0  0  0  0  0  0
   37.4950   30.1880   43.1460 H   0  0  0  0  0  0  0  0  0  0  0  0
   37.9190   27.9010   44.1010 H   0  0  0  0  0  0  0  0  0  0  0  0
   37.5060   25.9120   42.7110 H   0  0  0  0  0  0  0  0  0  0  0  0
   32.8500   28.9220   37.4490 C   0  0  0  0  0  0  0  0  0  0  0  0
   32.5010   29.7230   38.0950 H   0  0  0  0  0  0  0  0  0  0  0  0
   32.3620   27.9670   37.7670 H   0  0  0  0  0  0  0  0  0  0  0  0
   32.4960   29.1130   35.9940 C   0  0  0  0  0  0  0  0  0  0  0  0
   33.4520   29.1570   35.4190 H   0  0  0  0  0  0  0  0  0  0  0  0
   31.9410   28.2350   35.6110 H   0  0  0  0  0  0  0  0  0  0  0  0
   31.7170   30.3200   35.7330 C   0  0  0  0  0  0  0  0  0  0  0  0
   30.9200   30.8120   36.7720 C   0  0  0  0  0  0  0  0  0  0  0  0
   30.8970   30.2960   37.7380 H   0  0  0  0  0  0  0  0  0  0  0  0
   30.1280   31.9480   36.6690 C   0  0  0  0  0  3  0  0  0  0  0  0
   30.1280   32.6230   35.4750 C   0  0  0  0  0  0  0  0  0  0  0  0
   29.5180   33.5100   35.3720 H   0  0  0  0  0  0  0  0  0  0  0  0
   30.9000   32.1580   34.4470 C   0  0  0  0  0  0  0  0  0  0  0  0
   30.9210   32.6680   33.4960 H   0  0  0  0  0  0  0  0  0  0  0  0
   31.6970   31.0130   34.5550 C   0  0  0  0  0  3  0  0  0  0  0  0
  1  6  1  0  0  0  0
  2  1  2  0  0  0  0
  2  3  1  0  0  0  0
  3  4  2  0  0  0  0
  4  5  1  0  0  0  0
  5 11  1  0  0  0  0
  6  5  2  0  0  0  0
  7  1  1  0  0  0  0
  8  2  1  0  0  0  0
  9 10  1  0  0  0  0
 10 15  1  0  0  0  0
 11 10  2  0  0  0  0
 11 12  1  0  0  0  0
 12 13  2  0  0  0  0
 13 14  1  0  0  0  0
 13 17  1  0  0  0  0
 14 18  1  0  0  0  0
 15 19  1  0  0  0  0
 15 14  2  0  0  0  0
 16 12  1  0  0  0  0
 20  3  1  0  0  0  0
 20 22  1  0  0  0  0
 20 21  1  0  0  0  0
 23 20  1  0  0  0  0
 24 23  1  0  0  0  0
 25 23  1  0  0  0  0
 26 23  1  0  0  0  0
 26 27  1  0  0  0  0
 27 28  1  0  0  0  0
 29 27  2  0  0  0  0
 30 29  1  0  0  0  0
 31 30  1  0  0  0  0
 32 34  1  0  0  0  0
 32 30  2  0  0  0  0
 33 32  1  0  0  0  0
 34 26  2  0  0  0  0
M  END
>  <minimizedAffinity>
-5.41023874

$$$$

 OpenBabel03252502513D

 34 36  0  0  0  0  0  0  0  0999 V2000
   37.6360   27.9840   38.9750 C   0  0  0  0  0  0  0  0  0  0  0  0
   37.2940   27.3230   40.1510 C   0  0  0  0  0  0  0  0  0  0  0  0
   37.1970   28.0790   41.3160 C   0  0  0  0  0  0  0  0  0  0  0  0
   37.4440   29.4160   41.2350 N   0  0  0  0  0  0  0  0  0  0  0  0
   37.7750   30.0310   40.0740 C   0  0  0  0  0  0  0  0  0  0  0  0
   37.8740   29.3150   38.9350 N   0  0  0  0  0  0  0  0  0  0  0  0
   37.7060   27.3840   38.0840 H   0  0  0  0  0  0  0  0  0  0  0  0
   37.1120   26.2580   40.1370 H   0  0  0  0  0  0  0  0  0  0  0  0
   40.3850   30.8710   41.2290 Cl  0  0  0  0  0  0  0  0  0  0  0  0
   39.1910   31.9650   40.5760 C   0  0  0  0  0  0  0  0  0  0  0  0
   38.0260   31.4790   40.0690 C   0  0  0  0  0  0  0  0  0  0  0  0
   37.0410   32.3270   39.5350 C   0  0  0  0  0  0  0  0  0  0  0  0
   37.3240   33.6740   39.5550 C   0  0  0  0  0  0  0  0  0  0  0  0
   38.4900   34.1600   40.0610 C   0  0  0  0  0  0  0  0  0  0  0  0
   39.4410   33.3220   40.5790 C   0  0  0  0  0  0  0  0  0  0  0  0
   36.1290   31.8640   39.1460 H   0  0  0  0  0  0  0  0  0  0  0  0
   36.5540   34.3100   39.1390 H   0  0  0  0  0  0  0  0  0  0  0  0
   38.7010   35.2280   40.0710 H   0  0  0  0  0  0  0  0  0  0  0  0
   40.3820   33.6820   40.9890 H   0  0  0  0  0  0  0  0  0  0  0  0
   36.8360   27.4080   42.5800 C   0  0  0  0  0  0  0  0  0  0  0  0
   36.6280   26.3660   42.3490 H   0  0  0  0  0  0  0  0  0  0  0  0
   35.8930   27.8900   42.9400 H   0  0  0  0  0  0  0  0  0  0  0  0
   37.8530   27.5960   43.6800 C   0  0  0  0  0  0  0  0  0  0  0  0
   37.9900   28.6950   43.8250 H   0  0  0  0  0  0  0  0  0  0  0  0
   37.4660   27.2010   44.6390 H   0  0  0  0  0  0  0  0  0  0  0  0
   39.1460   26.9800   43.3970 C   0  0  0  0  0  0  0  0  0  0  0  0
   39.1720   25.5940   43.2060 C   0  0  0  0  0  0  0  0  0  0  0  0
   38.2460   25.0140   43.2700 H   0  0  0  0  0  0  0  0  0  0  0  0
   40.3260   24.8730   42.9300 C   0  0  0  0  0  3  0  0  0  0  0  0
   41.5080   25.5630   42.8420 C   0  0  0  0  0  0  0  0  0  0  0  0
   42.4190   25.0220   42.6290 H   0  0  0  0  0  0  0  0  0  0  0  0
   41.5030   26.9180   43.0260 C   0  0  0  0  0  0  0  0  0  0  0  0
   42.4170   27.4880   42.9630 H   0  0  0  0  0  0  0  0  0  0  0  0
   40.3380   27.6410   43.3030 C   0  0  0  0  0  3  0  0  0  0  0  0
  1  2  1  0  0  0  0
  2  3  2  0  0  0  0
  3 20  1  0  0  0  0
  4  3  1  0  0  0  0
  5  4  2  0  0  0  0
  6  1  2  0  0  0  0
  6  5  1  0  0  0  0
  7  1  1  0  0  0  0
  8  2  1  0  0  0  0
 10 15  1  0  0  0  0
 10  9  1  0  0  0  0
 11  5  1  0  0  0  0
 11 10  2  0  0  0  0
 12 13  2  0  0  0  0
 12 11  1  0  0  0  0
 13 14  1  0  0  0  0
 14 18  1  0  0  0  0
 14 15  2  0  0  0  0
 15 19  1  0  0  0  0
 16 12  1  0  0  0  0
 17 13  1  0  0  0  0
 20 22  1  0  0  0  0
 20 23  1  0  0  0  0
 21 20  1  0  0  0  0
 23 24  1  0  0  0  0
 23 25  1  0  0  0  0
 26 23  1  0  0  0  0
 27 28  1  0  0  0  0
 27 26  2  0  0  0  0
 29 27  1  0  0  0  0
 30 29  2  0  0  0  0
 30 32  1  0  0  0  0
 31 30  1  0  0  0  0
 32 34  2  0  0  0  0
 33 32  1  0  0  0  0
 34 26  1  0  0  0  0
M  END
>  <minimizedAffinity>
-5.39766359

$$$$

 OpenBabel03252502513D

 34 36  0  0  0  0  0  0  0  0999 V2000
   34.9510   26.0260   37.2620 C   0  0  0  0  0  0  0  0  0  0  0  0
   35.5580   25.0500   38.0470 C   0  0  0  0  0  0  0  0  0  0  0  0
   36.5310   25.4600   38.9540 C   0  0  0  0  0  0  0  0  0  0  0  0
   36.8290   26.7880   39.0180 N   0  0  0  0  0  0  0  0  0  0  0  0
   36.2200   27.7140   38.2400 C   0  0  0  0  0  0  0  0  0  0  0  0
   35.2750   27.3360   37.3550 N   0  0  0  0  0  0  0  0  0  0  0  0
   34.2010   25.6920   36.5660 H   0  0  0  0  0  0  0  0  0  0  0  0
   35.2680   24.0150   37.9390 H   0  0  0  0  0  0  0  0  0  0  0  0
   35.2680   29.0640   40.7150 Cl  0  0  0  0  0  0  0  0  0  0  0  0
   36.2120   29.8350   39.4650 C   0  0  0  0  0  0  0  0  0  0  0  0
   36.5990   29.1280   38.3690 C   0  0  0  0  0  0  0  0  0  0  0  0
   37.3600   29.7130   37.3420 C   0  0  0  0  0  0  0  0  0  0  0  0
   37.6880   31.0390   37.5100 C   0  0  0  0  0  0  0  0  0  0  0  0
   37.3000   31.7470   38.6080 C   0  0  0  0  0  0  0  0  0  0  0  0
   36.5600   31.1630   39.6000 C   0  0  0  0  0  0  0  0  0  0  0  0
   37.6340   29.0830   36.4910 H   0  0  0  0  0  0  0  0  0  0  0  0
   38.2730   31.4720   36.7100 H   0  0  0  0  0  0  0  0  0  0  0  0
   37.5670   32.7950   38.7280 H   0  0  0  0  0  0  0  0  0  0  0  0
   36.2370   31.7030   40.4880 H   0  0  0  0  0  0  0  0  0  0  0  0
   37.1940   24.4500   39.8020 C   0  0  0  0  0  0  0  0  0  0  0  0
   38.2660   24.5500   39.6520 H   0  0  0  0  0  0  0  0  0  0  0  0
   36.8700   23.4500   39.4190 H   0  0  0  0  0  0  0  0  0  0  0  0
   36.7730   24.5030   41.2510 C   0  0  0  0  0  0  0  0  0  0  0  0
   35.7130   24.8530   41.2800 H   0  0  0  0  0  0  0  0  0  0  0  0
   36.7800   23.4880   41.6950 H   0  0  0  0  0  0  0  0  0  0  0  0
   37.5980   25.3860   42.0700 C   0  0  0  0  0  0  0  0  0  0  0  0
   36.9850   26.5200   42.6140 C   0  0  0  0  0  0  0  0  0  0  0  0
   35.9260   26.7180   42.4200 H   0  0  0  0  0  0  0  0  0  0  0  0
   37.6430   27.4470   43.4120 C   0  0  0  0  0  3  0  0  0  0  0  0
   38.9710   27.2360   43.6790 C   0  0  0  0  0  0  0  0  0  0  0  0
   39.5040   27.9450   44.2970 H   0  0  0  0  0  0  0  0  0  0  0  0
   39.5880   26.1330   43.1560 C   0  0  0  0  0  0  0  0  0  0  0  0
   40.6320   25.9400   43.3480 H   0  0  0  0  0  0  0  0  0  0  0  0
   38.9220   25.2010   42.3530 C   0  0  0  0  0  3  0  0  0  0  0  0
  1  6  2  0  0  0  0
  1  2  1  0  0  0  0
  2  3  2  0  0  0  0
  3  4  1  0  0  0  0
  3 20  1  0  0  0  0
  5 11  1  0  0  0  0
  5  4  2  0  0  0  0
  6  5  1  0  0  0  0
  7  1  1  0  0  0  0
  8  2  1  0  0  0  0
 10 15  1  0  0  0  0
 10  9  1  0  0  0  0
 11 10  2  0  0  0  0
 12 13  2  0  0  0  0
 12 11  1  0  0  0  0
 13 14  1  0  0  0  0
 14 18  1  0  0  0  0
 14 15  2  0  0  0  0
 15 19  1  0  0  0  0
 16 12  1  0  0  0  0
 17 13  1  0  0  0  0
 20 23  1  0  0  0  0
 21 20  1  0  0  0  0
 22 20  1  0  0  0  0
 23 24  1  0  0  0  0
 23 25  1  0  0  0  0
 23 26  1  0  0  0  0
 26 34  2  0  0  0  0
 26 27  1  0  0  0  0
 27 29  2  0  0  0  0
 28 27  1  0  0  0  0
 29 30  1  0  0  0  0
 30 31  1  0  0  0  0
 32 33  1  0  0  0  0
 32 30  2  0  0  0  0
 34 32  1  0  0  0  0
M  END
>  <minimizedAffinity>
-5.35792542

$$$$

 OpenBabel03252502513D

 34 36  0  0  0  0  0  0  0  0999 V2000
   38.5430   30.6890   41.8680 C   0  0  0  0  0  0  0  0  0  0  0  0
   38.4350   29.6220   42.7550 C   0  0  0  0  0  0  0  0  0  0  0  0
   37.8020   28.4660   42.3050 C   0  0  0  0  0  0  0  0  0  0  0  0
   37.3280   28.4510   41.0280 N   0  0  0  0  0  0  0  0  0  0  0  0
   37.4490   29.5070   40.1880 C   0  0  0  0  0  0  0  0  0  0  0  0
   38.0590   30.6350   40.6060 N   0  0  0  0  0  0  0  0  0  0  0  0
   39.0350   31.5750   42.2320 H   0  0  0  0  0  0  0  0  0  0  0  0
   38.8360   29.7090   43.7540 H   0  0  0  0  0  0  0  0  0  0  0  0
   34.4920   29.2380   40.0060 Cl  0  0  0  0  0  0  0  0  0  0  0  0
   35.5700   29.2840   38.6340 C   0  0  0  0  0  0  0  0  0  0  0  0
   36.9110   29.4110   38.8240 C   0  0  0  0  0  0  0  0  0  0  0  0
   37.8110   29.4530   37.7450 C   0  0  0  0  0  0  0  0  0  0  0  0
   37.2560   29.3580   36.4890 C   0  0  0  0  0  0  0  0  0  0  0  0
   35.9140   29.2320   36.2990 C   0  0  0  0  0  0  0  0  0  0  0  0
   35.0500   29.1930   37.3590 C   0  0  0  0  0  0  0  0  0  0  0  0
   38.8750   29.5550   37.9750 H   0  0  0  0  0  0  0  0  0  0  0  0
   37.9640   29.3920   35.6720 H   0  0  0  0  0  0  0  0  0  0  0  0
   35.4890   29.1590   35.2990 H   0  0  0  0  0  0  0  0  0  0  0  0
   33.9730   29.0940   37.2380 H   0  0  0  0  0  0  0  0  0  0  0  0
   37.6710   27.3160   43.2210 C   0  0  0  0  0  0  0  0  0  0  0  0
   36.6600   26.9310   43.1180 H   0  0  0  0  0  0  0  0  0  0  0  0
   37.7990   27.7170   44.2570 H   0  0  0  0  0  0  0  0  0  0  0  0
   38.7440   26.2700   43.0380 C   0  0  0  0  0  0  0  0  0  0  0  0
   39.6520   26.7860   42.6430 H   0  0  0  0  0  0  0  0  0  0  0  0
   39.0320   25.8340   44.0150 H   0  0  0  0  0  0  0  0  0  0  0  0
   38.3650   25.1920   42.1290 C   0  0  0  0  0  0  0  0  0  0  0  0
   37.0000   24.9830   41.9090 C   0  0  0  0  0  0  0  0  0  0  0  0
   36.2600   25.6150   42.4110 H   0  0  0  0  0  0  0  0  0  0  0  0
   36.4930   23.9970   41.0720 C   0  0  0  0  0  3  0  0  0  0  0  0
   37.3870   23.1830   40.4260 C   0  0  0  0  0  0  0  0  0  0  0  0
   37.0150   22.4080   39.7700 H   0  0  0  0  0  0  0  0  0  0  0  0
   38.7260   23.3710   40.6270 C   0  0  0  0  0  0  0  0  0  0  0  0
   39.4530   22.7470   40.1320 H   0  0  0  0  0  0  0  0  0  0  0  0
   39.2330   24.3660   41.4710 C   0  0  0  0  0  3  0  0  0  0  0  0
  1  7  1  0  0  0  0
  1  2  1  0  0  0  0
  2  8  1  0  0  0  0
  3  2  2  0  0  0  0
  3 20  1  0  0  0  0
  4  3  1  0  0  0  0
  5  6  1  0  0  0  0
  5  4  2  0  0  0  0
  6  1  2  0  0  0  0
 10 11  1  0  0  0  0
 10  9  1  0  0  0  0
 11  5  1  0  0  0  0
 12 16  1  0  0  0  0
 12 11  2  0  0  0  0
 13 12  1  0  0  0  0
 14 13  2  0  0  0  0
 14 15  1  0  0  0  0
 15 10  2  0  0  0  0
 17 13  1  0  0  0  0
 18 14  1  0  0  0  0
 19 15  1  0  0  0  0
 20 22  1  0  0  0  0
 21 20  1  0  0  0  0
 23 20  1  0  0  0  0
 23 25  1  0  0  0  0
 24 23  1  0  0  0  0
 26 23  1  0  0  0  0
 27 26  1  0  0  0  0
 27 28  1  0  0  0  0
 29 27  2  0  0  0  0
 30 32  2  0  0  0  0
 30 29  1  0  0  0  0
 31 30  1  0  0  0  0
 32 34  1  0  0  0  0
 33 32  1  0  0  0  0
 34 26  2  0  0  0  0
M  END
>  <minimizedAffinity>
-5.20292044

$$$$
