
 OpenBabel03252504193D

 38 40  0  0  0  0  0  0  0  0999 V2000
   33.3830   28.4270   38.2660 F   0  0  0  0  0  0  0  0  0  0  0  0
   34.3680   28.7740   37.3820 C   0  0  0  0  0  0  0  0  0  0  0  0
   35.6660   28.8920   37.8190 C   0  0  0  0  0  0  0  0  0  0  0  0
   36.6090   29.2480   36.8550 C   0  0  0  0  0  0  0  0  0  0  0  0
   36.2390   29.4630   35.5490 C   0  0  0  0  0  0  0  0  0  0  0  0
   34.9040   29.3270   35.1650 C   0  0  0  0  0  0  0  0  0  0  0  0
   33.9210   28.9710   36.1050 C   0  0  0  0  0  0  0  0  0  0  0  0
   37.6320   29.3460   37.1740 H   0  0  0  0  0  0  0  0  0  0  0  0
   37.0140   29.7370   34.8430 H   0  0  0  0  0  0  0  0  0  0  0  0
   34.6570   29.5060   34.1250 H   0  0  0  0  0  0  0  0  0  0  0  0
   36.9540   27.1910   40.7850 C   0  0  0  0  0  0  0  0  0  0  0  0
   36.7450   28.1100   41.8100 C   0  0  0  0  0  0  0  0  0  0  0  0
   36.1490   29.3380   41.4650 C   0  0  0  0  0  0  0  0  0  0  0  0
   35.8060   29.5810   40.1810 N   0  0  0  0  0  0  0  0  0  0  0  0
   36.0280   28.6550   39.2200 C   0  0  0  0  0  0  0  0  0  0  0  0
   36.5950   27.4790   39.5210 N   0  0  0  0  0  0  0  0  0  0  0  0
   35.9800   30.0660   42.2590 H   0  0  0  0  0  0  0  0  0  0  0  0
   37.1490   27.7650   43.1810 C   0  0  0  0  0  0  0  0  0  0  0  0
   37.3630   28.9170   43.9170 F   0  0  0  0  0  0  0  0  0  0  0  0
   36.1090   27.0670   43.7790 F   0  0  0  0  0  0  0  0  0  0  0  0
   38.2690   27.0050   43.2720 F   0  0  0  0  0  0  0  0  0  0  0  0
   37.5250   26.0130   41.1090 O   0  0  0  0  0  0  0  0  0  0  0  0
   36.9010   24.7400   41.1380 C   0  0  0  0  0  0  0  0  0  0  0  0
   36.3960   24.5620   42.4220 F   0  0  0  0  0  0  0  0  0  0  0  0
   35.9530   24.6760   40.1620 F   0  0  0  0  0  0  0  0  0  0  0  0
   37.8680   23.7610   41.0080 F   0  0  0  0  0  0  0  0  0  0  0  0
   32.5070   28.8300   35.6850 C   0  0  0  0  0  0  0  0  0  0  0  0
   32.0760   28.0400   36.3660 H   0  0  0  0  0  0  0  0  0  0  0  0
   32.5060   28.4620   34.6340 H   0  0  0  0  0  0  0  0  0  0  0  0
   31.7010   30.0400   35.8200 C   0  0  0  0  0  0  0  0  0  0  0  0
   30.9720   30.5070   36.8900 C   0  0  0  0  0  0  0  0  0  0  0  0
   31.0050   29.8750   37.7550 H   0  0  0  0  0  0  0  0  0  0  0  0
   30.2540   31.6780   36.8710 C   0  0  0  0  0  3  0  0  0  0  0  0
   30.2420   32.4560   35.7280 C   0  0  0  0  0  0  0  0  0  0  0  0
   29.6800   33.3810   35.7010 H   0  0  0  0  0  0  0  0  0  0  0  0
   30.9610   32.0340   34.6160 C   0  0  0  0  0  0  0  0  0  0  0  0
   30.9370   32.6530   33.7400 H   0  0  0  0  0  0  0  0  0  0  0  0
   31.6750   30.8440   34.6720 C   0  0  0  0  0  3  0  0  0  0  0  0
  2  3  1  0  0  0  0
  2  1  1  0  0  0  0
  3 15  1  0  0  0  0
  4  8  1  0  0  0  0
  4  3  2  0  0  0  0
  5  4  1  0  0  0  0
  6  5  2  0  0  0  0
  6  7  1  0  0  0  0
  7  2  2  0  0  0  0
  9  5  1  0  0  0  0
 10  6  1  0  0  0  0
 11 22  1  0  0  0  0
 11 12  1  0  0  0  0
 12 18  1  0  0  0  0
 13 12  2  0  0  0  0
 13 17  1  0  0  0  0
 14 13  1  0  0  0  0
 15 16  1  0  0  0  0
 15 14  2  0  0  0  0
 16 11  2  0  0  0  0
 18 21  1  0  0  0  0
 18 20  1  0  0  0  0
 18 19  1  0  0  0  0
 22 23  1  0  0  0  0
 23 24  1  0  0  0  0
 25 23  1  0  0  0  0
 26 23  1  0  0  0  0
 27 30  1  0  0  0  0
 27  7  1  0  0  0  0
 27 28  1  0  0  0  0
 29 27  1  0  0  0  0
 30 31  1  0  0  0  0
 31 32  1  0  0  0  0
 33 31  2  0  0  0  0
 34 33  1  0  0  0  0
 35 34  1  0  0  0  0
 36 38  1  0  0  0  0
 36 34  2  0  0  0  0
 37 36  1  0  0  0  0
 38 30  2  0  0  0  0
M  END
>  <minimizedAffinity>
-7.04166031

$$$$

 OpenBabel03252504193D

 38 40  0  0  0  0  0  0  0  0999 V2000
   33.8610   28.8700   38.9880 F   0  0  0  0  0  0  0  0  0  0  0  0
   34.5950   29.0470   37.8470 C   0  0  0  0  0  0  0  0  0  0  0  0
   35.9450   29.2890   37.9340 C   0  0  0  0  0  0  0  0  0  0  0  0
   36.6190   29.4570   36.7240 C   0  0  0  0  0  0  0  0  0  0  0  0
   35.9510   29.3810   35.5260 C   0  0  0  0  0  0  0  0  0  0  0  0
   34.5780   29.1320   35.5020 C   0  0  0  0  0  0  0  0  0  0  0  0
   33.8600   28.9570   36.6970 C   0  0  0  0  0  0  0  0  0  0  0  0
   37.6770   29.6480   36.7680 H   0  0  0  0  0  0  0  0  0  0  0  0
   36.5250   29.5190   34.6180 H   0  0  0  0  0  0  0  0  0  0  0  0
   34.0910   29.0810   34.5340 H   0  0  0  0  0  0  0  0  0  0  0  0
   37.6920   28.2050   40.9550 C   0  0  0  0  0  0  0  0  0  0  0  0
   37.9190   29.3910   41.6480 C   0  0  0  0  0  0  0  0  0  0  0  0
   37.4590   30.5840   41.0570 C   0  0  0  0  0  0  0  0  0  0  0  0
   36.8260   30.5410   39.8640 N   0  0  0  0  0  0  0  0  0  0  0  0
   36.6280   29.3640   39.2290 C   0  0  0  0  0  0  0  0  0  0  0  0
   37.0570   28.2140   39.7690 N   0  0  0  0  0  0  0  0  0  0  0  0
   37.6320   31.5180   41.5910 H   0  0  0  0  0  0  0  0  0  0  0  0
   38.6160   29.3470   42.9420 C   0  0  0  0  0  0  0  0  0  0  0  0
   39.1220   30.5980   43.2520 F   0  0  0  0  0  0  0  0  0  0  0  0
   37.6950   29.0080   43.9230 F   0  0  0  0  0  0  0  0  0  0  0  0
   39.6420   28.4610   43.0080 F   0  0  0  0  0  0  0  0  0  0  0  0
   38.1300   27.0600   41.5150 O   0  0  0  0  0  0  0  0  0  0  0  0
   37.3460   26.0670   42.1570 C   0  0  0  0  0  0  0  0  0  0  0  0
   38.2260   25.2130   42.8130 F   0  0  0  0  0  0  0  0  0  0  0  0
   36.4430   26.6650   42.9820 F   0  0  0  0  0  0  0  0  0  0  0  0
   36.7480   25.2750   41.1950 F   0  0  0  0  0  0  0  0  0  0  0  0
   32.4020   28.6950   36.6580 C   0  0  0  0  0  0  0  0  0  0  0  0
   32.1890   28.0850   37.5840 H   0  0  0  0  0  0  0  0  0  0  0  0
   32.1980   28.0830   35.7500 H   0  0  0  0  0  0  0  0  0  0  0  0
   31.5590   29.8860   36.6910 C   0  0  0  0  0  0  0  0  0  0  0  0
   31.3540   30.8550   35.7350 C   0  0  0  0  0  0  0  0  0  0  0  0
   31.9060   30.7050   34.8290 H   0  0  0  0  0  0  0  0  0  0  0  0
   30.5200   31.9320   35.9080 C   0  0  0  0  0  3  0  0  0  0  0  0
   29.8310   32.0820   37.0980 C   0  0  0  0  0  0  0  0  0  0  0  0
   29.1700   32.9270   37.2460 H   0  0  0  0  0  0  0  0  0  0  0  0
   30.0000   31.1330   38.1000 C   0  0  0  0  0  0  0  0  0  0  0  0
   29.4560   31.2690   39.0150 H   0  0  0  0  0  0  0  0  0  0  0  0
   30.8520   30.0570   37.8880 C   0  0  0  0  0  3  0  0  0  0  0  0
  2  3  1  0  0  0  0
  2  1  1  0  0  0  0
  3 15  1  0  0  0  0
  4  8  1  0  0  0  0
  4  3  2  0  0  0  0
  5  4  1  0  0  0  0
  6  5  2  0  0  0  0
  6  7  1  0  0  0  0
  7  2  2  0  0  0  0
  9  5  1  0  0  0  0
 10  6  1  0  0  0  0
 11 22  1  0  0  0  0
 11 12  1  0  0  0  0
 12 18  1  0  0  0  0
 13 17  1  0  0  0  0
 13 12  2  0  0  0  0
 14 13  1  0  0  0  0
 15 16  1  0  0  0  0
 15 14  2  0  0  0  0
 16 11  2  0  0  0  0
 18 21  1  0  0  0  0
 18 19  1  0  0  0  0
 18 20  1  0  0  0  0
 22 23  1  0  0  0  0
 23 24  1  0  0  0  0
 23 25  1  0  0  0  0
 26 23  1  0  0  0  0
 27 30  1  0  0  0  0
 27  7  1  0  0  0  0
 27 28  1  0  0  0  0
 29 27  1  0  0  0  0
 30 38  1  0  0  0  0
 31 33  1  0  0  0  0
 31 30  2  0  0  0  0
 32 31  1  0  0  0  0
 33 34  2  0  0  0  0
 34 35  1  0  0  0  0
 34 36  1  0  0  0  0
 36 37  1  0  0  0  0
 38 36  2  0  0  0  0
M  END
>  <minimizedAffinity>
-6.9295516

$$$$

 OpenBabel03252504193D

 38 40  0  0  0  0  0  0  0  0999 V2000
   33.5490   27.7260   37.4620 F   0  0  0  0  0  0  0  0  0  0  0  0
   34.5310   28.3680   36.7590 C   0  0  0  0  0  0  0  0  0  0  0  0
   35.8110   28.4100   37.2580 C   0  0  0  0  0  0  0  0  0  0  0  0
   36.7520   29.0830   36.4790 C   0  0  0  0  0  0  0  0  0  0  0  0
   36.3980   29.6620   35.2840 C   0  0  0  0  0  0  0  0  0  0  0  0
   35.0810   29.5850   34.8290 C   0  0  0  0  0  0  0  0  0  0  0  0
   34.1010   28.9170   35.5830 C   0  0  0  0  0  0  0  0  0  0  0  0
   37.7620   29.1290   36.8490 H   0  0  0  0  0  0  0  0  0  0  0  0
   37.1710   30.1710   34.7210 H   0  0  0  0  0  0  0  0  0  0  0  0
   34.8460   30.0560   33.8810 H   0  0  0  0  0  0  0  0  0  0  0  0
   36.6990   28.0870   40.7870 C   0  0  0  0  0  0  0  0  0  0  0  0
   36.8110   26.7120   40.9750 C   0  0  0  0  0  0  0  0  0  0  0  0
   36.5730   25.8860   39.8600 C   0  0  0  0  0  0  0  0  0  0  0  0
   36.2520   26.4400   38.6700 N   0  0  0  0  0  0  0  0  0  0  0  0
   36.1570   27.7820   38.5370 C   0  0  0  0  0  0  0  0  0  0  0  0
   36.3770   28.5910   39.5830 N   0  0  0  0  0  0  0  0  0  0  0  0
   36.6570   24.8070   39.9950 H   0  0  0  0  0  0  0  0  0  0  0  0
   37.1640   26.1930   42.3050 C   0  0  0  0  0  0  0  0  0  0  0  0
   36.9670   24.8240   42.3480 F   0  0  0  0  0  0  0  0  0  0  0  0
   38.5130   26.4330   42.5220 F   0  0  0  0  0  0  0  0  0  0  0  0
   36.4710   26.7410   43.3340 F   0  0  0  0  0  0  0  0  0  0  0  0
   36.9250   28.8840   41.8510 O   0  0  0  0  0  0  0  0  0  0  0  0
   38.0410   29.7330   42.0620 C   0  0  0  0  0  0  0  0  0  0  0  0
   39.1340   29.1310   41.4460 F   0  0  0  0  0  0  0  0  0  0  0  0
   37.7610   30.9780   41.5870 F   0  0  0  0  0  0  0  0  0  0  0  0
   38.3600   29.7340   43.4070 F   0  0  0  0  0  0  0  0  0  0  0  0
   32.7060   28.8430   35.0890 C   0  0  0  0  0  0  0  0  0  0  0  0
   32.2040   28.0720   35.7430 H   0  0  0  0  0  0  0  0  0  0  0  0
   32.7430   28.4780   34.0380 H   0  0  0  0  0  0  0  0  0  0  0  0
   31.9500   30.0880   35.1870 C   0  0  0  0  0  0  0  0  0  0  0  0
   31.7630   31.0890   34.2600 C   0  0  0  0  0  0  0  0  0  0  0  0
   32.2550   30.9200   33.3250 H   0  0  0  0  0  0  0  0  0  0  0  0
   31.0140   32.2160   34.4960 C   0  0  0  0  0  3  0  0  0  0  0  0
   30.4000   32.3870   35.7240 C   0  0  0  0  0  0  0  0  0  0  0  0
   29.8070   33.2720   35.9200 H   0  0  0  0  0  0  0  0  0  0  0  0
   30.5540   31.4080   36.6980 C   0  0  0  0  0  0  0  0  0  0  0  0
   30.0690   31.5620   37.6430 H   0  0  0  0  0  0  0  0  0  0  0  0
   31.3180   30.2820   36.4230 C   0  0  0  0  0  3  0  0  0  0  0  0
  2  3  1  0  0  0  0
  2  1  1  0  0  0  0
  3 15  1  0  0  0  0
  4  8  1  0  0  0  0
  4  3  2  0  0  0  0
  5  4  1  0  0  0  0
  6  5  2  0  0  0  0
  6  7  1  0  0  0  0
  7  2  2  0  0  0  0
  9  5  1  0  0  0  0
 10  6  1  0  0  0  0
 11 12  1  0  0  0  0
 11 22  1  0  0  0  0
 12 18  1  0  0  0  0
 13 17  1  0  0  0  0
 13 12  2  0  0  0  0
 14 13  1  0  0  0  0
 15 14  2  0  0  0  0
 15 16  1  0  0  0  0
 16 11  2  0  0  0  0
 18 19  1  0  0  0  0
 18 20  1  0  0  0  0
 18 21  1  0  0  0  0
 22 23  1  0  0  0  0
 23 26  1  0  0  0  0
 24 23  1  0  0  0  0
 25 23  1  0  0  0  0
 27 30  1  0  0  0  0
 27  7  1  0  0  0  0
 27 28  1  0  0  0  0
 29 27  1  0  0  0  0
 30 38  1  0  0  0  0
 31 33  1  0  0  0  0
 31 30  2  0  0  0  0
 32 31  1  0  0  0  0
 33 34  2  0  0  0  0
 34 35  1  0  0  0  0
 34 36  1  0  0  0  0
 36 37  1  0  0  0  0
 38 36  2  0  0  0  0
M  END
>  <minimizedAffinity>
-6.45198441

$$$$

 OpenBabel03252504193D

 38 40  0  0  0  0  0  0  0  0999 V2000
   38.9820   29.7930   42.2230 F   0  0  0  0  0  0  0  0  0  0  0  0
   37.8920   29.7090   41.4000 C   0  0  0  0  0  0  0  0  0  0  0  0
   37.8630   30.4300   40.2310 C   0  0  0  0  0  0  0  0  0  0  0  0
   36.7160   30.2870   39.4490 C   0  0  0  0  0  0  0  0  0  0  0  0
   35.6880   29.4660   39.8440 C   0  0  0  0  0  0  0  0  0  0  0  0
   35.7760   28.7580   41.0440 C   0  0  0  0  0  0  0  0  0  0  0  0
   36.9130   28.8730   41.8620 C   0  0  0  0  0  0  0  0  0  0  0  0
   36.6700   30.8420   38.5280 H   0  0  0  0  0  0  0  0  0  0  0  0
   34.8230   29.3930   39.1980 H   0  0  0  0  0  0  0  0  0  0  0  0
   34.9420   28.1220   41.3180 H   0  0  0  0  0  0  0  0  0  0  0  0
   40.6620   31.7390   38.2820 C   0  0  0  0  0  0  0  0  0  0  0  0
   41.0760   32.8540   39.0070 C   0  0  0  0  0  0  0  0  0  0  0  0
   40.3720   33.1550   40.1880 C   0  0  0  0  0  0  0  0  0  0  0  0
   39.3410   32.3710   40.5730 N   0  0  0  0  0  0  0  0  0  0  0  0
   38.9770   31.2980   39.8360 C   0  0  0  0  0  0  0  0  0  0  0  0
   39.6300   30.9900   38.7070 N   0  0  0  0  0  0  0  0  0  0  0  0
   40.6870   34.0250   40.7640 H   0  0  0  0  0  0  0  0  0  0  0  0
   42.2090   33.6530   38.5150 C   0  0  0  0  0  0  0  0  0  0  0  0
   41.9200   34.1660   37.2630 F   0  0  0  0  0  0  0  0  0  0  0  0
   42.3940   34.7240   39.3780 F   0  0  0  0  0  0  0  0  0  0  0  0
   43.3840   32.9810   38.4230 F   0  0  0  0  0  0  0  0  0  0  0  0
   41.3330   31.4460   37.1490 O   0  0  0  0  0  0  0  0  0  0  0  0
   42.1470   30.3100   36.9070 C   0  0  0  0  0  0  0  0  0  0  0  0
   42.8860   30.5760   35.7590 F   0  0  0  0  0  0  0  0  0  0  0  0
   42.9100   30.0560   38.0050 F   0  0  0  0  0  0  0  0  0  0  0  0
   41.3400   29.2430   36.5590 F   0  0  0  0  0  0  0  0  0  0  0  0
   36.9950   28.1170   43.1340 C   0  0  0  0  0  0  0  0  0  0  0  0
   35.9560   27.7060   43.2980 H   0  0  0  0  0  0  0  0  0  0  0  0
   37.2430   28.8440   43.9390 H   0  0  0  0  0  0  0  0  0  0  0  0
   37.9320   26.9990   43.1270 C   0  0  0  0  0  0  0  0  0  0  0  0
   39.1580   26.8630   43.7410 C   0  0  0  0  0  0  0  0  0  0  0  0
   39.4640   27.7190   44.3070 H   0  0  0  0  0  0  0  0  0  0  0  0
   39.9380   25.7370   43.6450 C   0  0  0  0  0  3  0  0  0  0  0  0
   39.4980   24.6590   42.8990 C   0  0  0  0  0  0  0  0  0  0  0  0
   40.1050   23.7650   42.8170 H   0  0  0  0  0  0  0  0  0  0  0  0
   38.2680   24.7400   42.2570 C   0  0  0  0  0  0  0  0  0  0  0  0
   37.9470   23.8920   41.6830 H   0  0  0  0  0  0  0  0  0  0  0  0
   37.5070   25.8940   42.3770 C   0  0  0  0  0  3  0  0  0  0  0  0
  2  7  1  0  0  0  0
  2  1  1  0  0  0  0
  3  2  2  0  0  0  0
  4  5  2  0  0  0  0
  4  3  1  0  0  0  0
  5  6  1  0  0  0  0
  6 10  1  0  0  0  0
  6  7  2  0  0  0  0
  7 27  1  0  0  0  0
  8  4  1  0  0  0  0
  9  5  1  0  0  0  0
 11 16  2  0  0  0  0
 11 12  1  0  0  0  0
 12 13  2  0  0  0  0
 13 14  1  0  0  0  0
 13 17  1  0  0  0  0
 15  3  1  0  0  0  0
 15 14  2  0  0  0  0
 16 15  1  0  0  0  0
 18 12  1  0  0  0  0
 18 20  1  0  0  0  0
 19 18  1  0  0  0  0
 21 18  1  0  0  0  0
 22 11  1  0  0  0  0
 23 22  1  0  0  0  0
 23 25  1  0  0  0  0
 24 23  1  0  0  0  0
 26 23  1  0  0  0  0
 27 28  1  0  0  0  0
 27 29  1  0  0  0  0
 30 27  1  0  0  0  0
 30 31  1  0  0  0  0
 31 32  1  0  0  0  0
 33 31  2  0  0  0  0
 34 33  1  0  0  0  0
 35 34  1  0  0  0  0
 36 38  1  0  0  0  0
 36 34  2  0  0  0  0
 37 36  1  0  0  0  0
 38 30  2  0  0  0  0
M  END
>  <minimizedAffinity>
-6.43500376

$$$$

 OpenBabel03252504193D

 38 40  0  0  0  0  0  0  0  0999 V2000
   33.5640   28.3670   38.2780 F   0  0  0  0  0  0  0  0  0  0  0  0
   34.4390   28.7680   37.3060 C   0  0  0  0  0  0  0  0  0  0  0  0
   35.7730   28.9070   37.6040 C   0  0  0  0  0  0  0  0  0  0  0  0
   36.5970   29.3190   36.5570 C   0  0  0  0  0  0  0  0  0  0  0  0
   36.0830   29.5650   35.3060 C   0  0  0  0  0  0  0  0  0  0  0  0
   34.7170   29.4050   35.0650 C   0  0  0  0  0  0  0  0  0  0  0  0
   33.8510   28.9930   36.0920 C   0  0  0  0  0  0  0  0  0  0  0  0
   37.6460   29.4350   36.7660 H   0  0  0  0  0  0  0  0  0  0  0  0
   36.7690   29.8820   34.5310 H   0  0  0  0  0  0  0  0  0  0  0  0
   34.3540   29.6110   34.0640 H   0  0  0  0  0  0  0  0  0  0  0  0
   37.2260   29.5110   40.9010 C   0  0  0  0  0  0  0  0  0  0  0  0
   37.2810   28.2440   41.4760 C   0  0  0  0  0  0  0  0  0  0  0  0
   36.8050   27.1640   40.7060 C   0  0  0  0  0  0  0  0  0  0  0  0
   36.3220   27.3870   39.4640 N   0  0  0  0  0  0  0  0  0  0  0  0
   36.2910   28.6370   38.9490 C   0  0  0  0  0  0  0  0  0  0  0  0
   36.7360   29.6820   39.6610 N   0  0  0  0  0  0  0  0  0  0  0  0
   36.8420   26.1680   41.1450 H   0  0  0  0  0  0  0  0  0  0  0  0
   37.8210   28.0900   42.8340 C   0  0  0  0  0  0  0  0  0  0  0  0
   39.1870   28.3120   42.8300 F   0  0  0  0  0  0  0  0  0  0  0  0
   37.2400   29.0530   43.6470 F   0  0  0  0  0  0  0  0  0  0  0  0
   37.6030   26.8770   43.4020 F   0  0  0  0  0  0  0  0  0  0  0  0
   37.6800   30.5490   41.6340 O   0  0  0  0  0  0  0  0  0  0  0  0
   38.8970   31.2540   41.4540 C   0  0  0  0  0  0  0  0  0  0  0  0
   39.6870   30.4930   40.5980 F   0  0  0  0  0  0  0  0  0  0  0  0
   38.6330   32.5060   40.9900 F   0  0  0  0  0  0  0  0  0  0  0  0
   39.5930   31.2630   42.6490 F   0  0  0  0  0  0  0  0  0  0  0  0
   32.4040   28.8280   35.8230 C   0  0  0  0  0  0  0  0  0  0  0  0
   32.0910   27.9350   36.4380 H   0  0  0  0  0  0  0  0  0  0  0  0
   32.2900   28.5960   34.7390 H   0  0  0  0  0  0  0  0  0  0  0  0
   31.5710   29.9630   36.2080 C   0  0  0  0  0  0  0  0  0  0  0  0
   30.9090   30.2200   37.3880 C   0  0  0  0  0  0  0  0  0  0  0  0
   31.0270   29.4600   38.1330 H   0  0  0  0  0  0  0  0  0  0  0  0
   30.1550   31.3460   37.6090 C   0  0  0  0  0  3  0  0  0  0  0  0
   30.0320   32.2970   36.6120 C   0  0  0  0  0  0  0  0  0  0  0  0
   29.4400   33.1890   36.7750 H   0  0  0  0  0  0  0  0  0  0  0  0
   30.6780   32.0900   35.3990 C   0  0  0  0  0  0  0  0  0  0  0  0
   30.5690   32.8400   34.6400 H   0  0  0  0  0  0  0  0  0  0  0  0
   31.4320   30.9400   35.2120 C   0  0  0  0  0  3  0  0  0  0  0  0
  2  3  1  0  0  0  0
  2  1  1  0  0  0  0
  3 15  1  0  0  0  0
  4  8  1  0  0  0  0
  4  3  2  0  0  0  0
  5  4  1  0  0  0  0
  6  5  2  0  0  0  0
  6  7  1  0  0  0  0
  7  2  2  0  0  0  0
  9  5  1  0  0  0  0
 10  6  1  0  0  0  0
 11 12  1  0  0  0  0
 11 22  1  0  0  0  0
 12 18  1  0  0  0  0
 13 17  1  0  0  0  0
 13 12  2  0  0  0  0
 14 13  1  0  0  0  0
 15 14  2  0  0  0  0
 15 16  1  0  0  0  0
 16 11  2  0  0  0  0
 18 21  1  0  0  0  0
 18 20  1  0  0  0  0
 19 18  1  0  0  0  0
 23 22  1  0  0  0  0
 23 26  1  0  0  0  0
 24 23  1  0  0  0  0
 25 23  1  0  0  0  0
 27  7  1  0  0  0  0
 27 30  1  0  0  0  0
 27 28  1  0  0  0  0
 29 27  1  0  0  0  0
 30 31  1  0  0  0  0
 31 33  2  0  0  0  0
 31 32  1  0  0  0  0
 34 35  1  0  0  0  0
 34 33  1  0  0  0  0
 36 34  2  0  0  0  0
 37 36  1  0  0  0  0
 38 36  1  0  0  0  0
 38 30  2  0  0  0  0
M  END
>  <minimizedAffinity>
-6.39152861

$$$$

 OpenBabel03252504193D

 38 40  0  0  0  0  0  0  0  0999 V2000
   38.0240   28.7240   41.5250 F   0  0  0  0  0  0  0  0  0  0  0  0
   38.9590   28.1430   42.3370 C   0  0  0  0  0  0  0  0  0  0  0  0
   40.1820   28.7450   42.5080 C   0  0  0  0  0  0  0  0  0  0  0  0
   41.0780   28.0890   43.3520 C   0  0  0  0  0  0  0  0  0  0  0  0
   40.7350   26.9100   43.9680 C   0  0  0  0  0  0  0  0  0  0  0  0
   39.4760   26.3460   43.7550 C   0  0  0  0  0  0  0  0  0  0  0  0
   38.5440   26.9740   42.9110 C   0  0  0  0  0  0  0  0  0  0  0  0
   42.0430   28.5420   43.5010 H   0  0  0  0  0  0  0  0  0  0  0  0
   41.4700   26.4440   44.6130 H   0  0  0  0  0  0  0  0  0  0  0  0
   39.2480   25.4150   44.2600 H   0  0  0  0  0  0  0  0  0  0  0  0
   39.7660   32.0790   41.0710 C   0  0  0  0  0  0  0  0  0  0  0  0
   41.0360   32.3940   40.5940 C   0  0  0  0  0  0  0  0  0  0  0  0
   42.0510   31.4350   40.7750 C   0  0  0  0  0  0  0  0  0  0  0  0
   41.7680   30.2660   41.3910 N   0  0  0  0  0  0  0  0  0  0  0  0
   40.5180   30.0050   41.8360 C   0  0  0  0  0  0  0  0  0  0  0  0
   39.5340   30.9020   41.6780 N   0  0  0  0  0  0  0  0  0  0  0  0
   43.0490   31.6700   40.4060 H   0  0  0  0  0  0  0  0  0  0  0  0
   41.2570   33.6900   39.9350 C   0  0  0  0  0  0  0  0  0  0  0  0
   40.9170   34.7220   40.7910 F   0  0  0  0  0  0  0  0  0  0  0  0
   42.6100   33.8080   39.6470 F   0  0  0  0  0  0  0  0  0  0  0  0
   40.5670   33.8680   38.7800 F   0  0  0  0  0  0  0  0  0  0  0  0
   38.7900   32.9940   40.9010 O   0  0  0  0  0  0  0  0  0  0  0  0
   37.6380   32.8720   40.0820 C   0  0  0  0  0  0  0  0  0  0  0  0
   38.0570   32.3480   38.8640 F   0  0  0  0  0  0  0  0  0  0  0  0
   36.7080   32.1080   40.7180 F   0  0  0  0  0  0  0  0  0  0  0  0
   37.1700   34.1350   39.7730 F   0  0  0  0  0  0  0  0  0  0  0  0
   37.2110   26.3650   42.6930 C   0  0  0  0  0  0  0  0  0  0  0  0
   36.4970   27.2380   42.6290 H   0  0  0  0  0  0  0  0  0  0  0  0
   36.9730   25.7510   43.5910 H   0  0  0  0  0  0  0  0  0  0  0  0
   37.0840   25.5800   41.4700 C   0  0  0  0  0  0  0  0  0  0  0  0
   36.7450   25.9710   40.1940 C   0  0  0  0  0  0  0  0  0  0  0  0
   36.5420   27.0180   40.0930 H   0  0  0  0  0  0  0  0  0  0  0  0
   36.6670   25.1090   39.1280 C   0  0  0  0  0  3  0  0  0  0  0  0
   36.9360   23.7650   39.3110 C   0  0  0  0  0  0  0  0  0  0  0  0
   36.8770   23.0760   38.4770 H   0  0  0  0  0  0  0  0  0  0  0  0
   37.2820   23.3130   40.5790 C   0  0  0  0  0  0  0  0  0  0  0  0
   37.4870   22.2660   40.6980 H   0  0  0  0  0  0  0  0  0  0  0  0
   37.3520   24.2140   41.6320 C   0  0  0  0  0  3  0  0  0  0  0  0
  1  2  1  0  0  0  0
  2  3  2  0  0  0  0
  2  7  1  0  0  0  0
  3  4  1  0  0  0  0
  4  8  1  0  0  0  0
  4  5  2  0  0  0  0
  5  9  1  0  0  0  0
  6  5  1  0  0  0  0
  6 10  1  0  0  0  0
  7  6  2  0  0  0  0
 11 16  1  0  0  0  0
 12 13  1  0  0  0  0
 12 11  2  0  0  0  0
 13 14  2  0  0  0  0
 14 15  1  0  0  0  0
 15  3  1  0  0  0  0
 16 15  2  0  0  0  0
 17 13  1  0  0  0  0
 18 12  1  0  0  0  0
 18 19  1  0  0  0  0
 20 18  1  0  0  0  0
 21 18  1  0  0  0  0
 22 11  1  0  0  0  0
 23 25  1  0  0  0  0
 23 22  1  0  0  0  0
 24 23  1  0  0  0  0
 26 23  1  0  0  0  0
 27  7  1  0  0  0  0
 27 29  1  0  0  0  0
 28 27  1  0  0  0  0
 30 38  1  0  0  0  0
 30 27  1  0  0  0  0
 31 30  2  0  0  0  0
 32 31  1  0  0  0  0
 33 34  2  0  0  0  0
 33 31  1  0  0  0  0
 34 36  1  0  0  0  0
 35 34  1  0  0  0  0
 36 37  1  0  0  0  0
 36 38  2  0  0  0  0
M  END
>  <minimizedAffinity>
-6.35717869

$$$$

 OpenBabel03252504193D

 38 40  0  0  0  0  0  0  0  0999 V2000
   37.0960   28.1110   40.7040 F   0  0  0  0  0  0  0  0  0  0  0  0
   36.9450   26.7550   40.7980 C   0  0  0  0  0  0  0  0  0  0  0  0
   36.5690   26.0320   39.6910 C   0  0  0  0  0  0  0  0  0  0  0  0
   36.4380   24.6550   39.8720 C   0  0  0  0  0  0  0  0  0  0  0  0
   36.6780   24.0760   41.0940 C   0  0  0  0  0  0  0  0  0  0  0  0
   37.0580   24.8630   42.1820 C   0  0  0  0  0  0  0  0  0  0  0  0
   37.2000   26.2550   42.0440 C   0  0  0  0  0  0  0  0  0  0  0  0
   36.1440   24.0680   39.0180 H   0  0  0  0  0  0  0  0  0  0  0  0
   36.5610   23.0030   41.1760 H   0  0  0  0  0  0  0  0  0  0  0  0
   37.2360   24.3650   43.1280 H   0  0  0  0  0  0  0  0  0  0  0  0
   36.8470   28.4370   36.9550 C   0  0  0  0  0  0  0  0  0  0  0  0
   35.9340   27.9720   36.0120 C   0  0  0  0  0  0  0  0  0  0  0  0
   35.2120   26.8060   36.3320 C   0  0  0  0  0  0  0  0  0  0  0  0
   35.4220   26.1900   37.5160 N   0  0  0  0  0  0  0  0  0  0  0  0
   36.3200   26.6810   38.4000 C   0  0  0  0  0  0  0  0  0  0  0  0
   37.0220   27.7880   38.1190 N   0  0  0  0  0  0  0  0  0  0  0  0
   34.4940   26.4330   35.6010 H   0  0  0  0  0  0  0  0  0  0  0  0
   35.7670   28.7050   34.7480 C   0  0  0  0  0  0  0  0  0  0  0  0
   35.0350   27.9450   33.8520 F   0  0  0  0  0  0  0  0  0  0  0  0
   35.0490   29.8630   35.0070 F   0  0  0  0  0  0  0  0  0  0  0  0
   36.9250   29.0590   34.1360 F   0  0  0  0  0  0  0  0  0  0  0  0
   37.5420   29.5530   36.6540 O   0  0  0  0  0  0  0  0  0  0  0  0
   37.6450   30.7330   37.4350 C   0  0  0  0  0  0  0  0  0  0  0  0
   36.4400   30.8770   38.1160 F   0  0  0  0  0  0  0  0  0  0  0  0
   38.7300   30.6440   38.2520 F   0  0  0  0  0  0  0  0  0  0  0  0
   37.6990   31.8270   36.5930 F   0  0  0  0  0  0  0  0  0  0  0  0
   37.6040   27.0800   43.2070 C   0  0  0  0  0  0  0  0  0  0  0  0
   37.2040   26.5310   44.1090 H   0  0  0  0  0  0  0  0  0  0  0  0
   37.0950   28.0650   43.1100 H   0  0  0  0  0  0  0  0  0  0  0  0
   39.0440   27.2460   43.3750 C   0  0  0  0  0  0  0  0  0  0  0  0
   39.9710   26.4200   43.9700 C   0  0  0  0  0  0  0  0  0  0  0  0
   39.5610   25.5170   44.3730 H   0  0  0  0  0  0  0  0  0  0  0  0
   41.3110   26.7120   44.0530 C   0  0  0  0  0  3  0  0  0  0  0  0
   41.7900   27.8940   43.5190 C   0  0  0  0  0  0  0  0  0  0  0  0
   42.8440   28.1340   43.5780 H   0  0  0  0  0  0  0  0  0  0  0  0
   40.8990   28.7680   42.9060 C   0  0  0  0  0  0  0  0  0  0  0  0
   41.2930   29.6790   42.4990 H   0  0  0  0  0  0  0  0  0  0  0  0
   39.5520   28.4390   42.8400 C   0  0  0  0  0  3  0  0  0  0  0  0
  1  2  1  0  0  0  0
  2  7  1  0  0  0  0
  3  4  1  0  0  0  0
  3  2  2  0  0  0  0
  4  5  2  0  0  0  0
  5  9  1  0  0  0  0
  5  6  1  0  0  0  0
  6 10  1  0  0  0  0
  7  6  2  0  0  0  0
  7 27  1  0  0  0  0
  8  4  1  0  0  0  0
 11 16  1  0  0  0  0
 12 13  1  0  0  0  0
 12 11  2  0  0  0  0
 13 14  2  0  0  0  0
 14 15  1  0  0  0  0
 15  3  1  0  0  0  0
 16 15  2  0  0  0  0
 17 13  1  0  0  0  0
 18 20  1  0  0  0  0
 18 12  1  0  0  0  0
 19 18  1  0  0  0  0
 21 18  1  0  0  0  0
 22 11  1  0  0  0  0
 22 23  1  0  0  0  0
 23 24  1  0  0  0  0
 23 25  1  0  0  0  0
 26 23  1  0  0  0  0
 27 30  1  0  0  0  0
 27 28  1  0  0  0  0
 29 27  1  0  0  0  0
 30 31  1  0  0  0  0
 31 33  2  0  0  0  0
 31 32  1  0  0  0  0
 34 35  1  0  0  0  0
 34 33  1  0  0  0  0
 36 34  2  0  0  0  0
 37 36  1  0  0  0  0
 38 36  1  0  0  0  0
 38 30  2  0  0  0  0
M  END
>  <minimizedAffinity>
-6.18519974

$$$$

 OpenBabel03252504193D

 38 40  0  0  0  0  0  0  0  0999 V2000
   40.5490   32.1810   41.4900 F   0  0  0  0  0  0  0  0  0  0  0  0
   39.4560   32.7090   40.8570 C   0  0  0  0  0  0  0  0  0  0  0  0
   38.3000   31.9730   40.7640 C   0  0  0  0  0  0  0  0  0  0  0  0
   37.2330   32.5850   40.1050 C   0  0  0  0  0  0  0  0  0  0  0  0
   37.3540   33.8520   39.5880 C   0  0  0  0  0  0  0  0  0  0  0  0
   38.5560   34.5510   39.7150 C   0  0  0  0  0  0  0  0  0  0  0  0
   39.6560   33.9710   40.3710 C   0  0  0  0  0  0  0  0  0  0  0  0
   36.3160   32.0270   40.0200 H   0  0  0  0  0  0  0  0  0  0  0  0
   36.4930   34.2780   39.0880 H   0  0  0  0  0  0  0  0  0  0  0  0
   38.6070   35.5480   39.2920 H   0  0  0  0  0  0  0  0  0  0  0  0
   37.2240   28.5070   41.1880 C   0  0  0  0  0  0  0  0  0  0  0  0
   37.9440   28.0710   42.2970 C   0  0  0  0  0  0  0  0  0  0  0  0
   38.8150   28.9940   42.9060 C   0  0  0  0  0  0  0  0  0  0  0  0
   38.9230   30.2450   42.4070 N   0  0  0  0  0  0  0  0  0  0  0  0
   38.2020   30.6220   41.3270 C   0  0  0  0  0  0  0  0  0  0  0  0
   37.3660   29.7620   40.7280 N   0  0  0  0  0  0  0  0  0  0  0  0
   39.3840   28.6640   43.7750 H   0  0  0  0  0  0  0  0  0  0  0  0
   37.7660   26.6920   42.7750 C   0  0  0  0  0  0  0  0  0  0  0  0
   38.1500   25.7950   41.7940 F   0  0  0  0  0  0  0  0  0  0  0  0
   38.5940   26.5000   43.8720 F   0  0  0  0  0  0  0  0  0  0  0  0
   36.5000   26.3760   43.1480 F   0  0  0  0  0  0  0  0  0  0  0  0
   36.3880   27.6270   40.6000 O   0  0  0  0  0  0  0  0  0  0  0  0
   36.4790   27.1110   39.2820 C   0  0  0  0  0  0  0  0  0  0  0  0
   35.5240   27.7760   38.5180 F   0  0  0  0  0  0  0  0  0  0  0  0
   37.7510   27.2600   38.8220 F   0  0  0  0  0  0  0  0  0  0  0  0
   36.0620   25.7930   39.2840 F   0  0  0  0  0  0  0  0  0  0  0  0
   40.9260   34.7230   40.4980 C   0  0  0  0  0  0  0  0  0  0  0  0
   41.3100   34.4780   41.5310 H   0  0  0  0  0  0  0  0  0  0  0  0
   40.6800   35.8070   40.4360 H   0  0  0  0  0  0  0  0  0  0  0  0
   41.9570   34.3620   39.5300 C   0  0  0  0  0  0  0  0  0  0  0  0
   41.9240   34.3680   38.1540 C   0  0  0  0  0  0  0  0  0  0  0  0
   40.9900   34.6860   37.7370 H   0  0  0  0  0  0  0  0  0  0  0  0
   42.9850   33.9980   37.3640 C   0  0  0  0  0  3  0  0  0  0  0  0
   44.1690   33.5920   37.9520 C   0  0  0  0  0  0  0  0  0  0  0  0
   45.0130   33.2980   37.3390 H   0  0  0  0  0  0  0  0  0  0  0  0
   44.2590   33.5650   39.3390 C   0  0  0  0  0  0  0  0  0  0  0  0
   45.1870   33.2460   39.7740 H   0  0  0  0  0  0  0  0  0  0  0  0
   43.1660   33.9460   40.1040 C   0  0  0  0  0  3  0  0  0  0  0  0
  2  1  1  0  0  0  0
  3  2  1  0  0  0  0
  3 15  1  0  0  0  0
  4  3  2  0  0  0  0
  5  6  2  0  0  0  0
  5  4  1  0  0  0  0
  6  7  1  0  0  0  0
  7 27  1  0  0  0  0
  7  2  2  0  0  0  0
  8  4  1  0  0  0  0
  9  5  1  0  0  0  0
 10  6  1  0  0  0  0
 11 12  1  0  0  0  0
 12 18  1  0  0  0  0
 12 13  2  0  0  0  0
 13 17  1  0  0  0  0
 14 13  1  0  0  0  0
 15 14  2  0  0  0  0
 16 11  2  0  0  0  0
 16 15  1  0  0  0  0
 18 21  1  0  0  0  0
 18 20  1  0  0  0  0
 19 18  1  0  0  0  0
 22 11  1  0  0  0  0
 23 26  1  0  0  0  0
 23 22  1  0  0  0  0
 24 23  1  0  0  0  0
 25 23  1  0  0  0  0
 27 28  1  0  0  0  0
 29 27  1  0  0  0  0
 30 38  1  0  0  0  0
 30 27  1  0  0  0  0
 31 30  2  0  0  0  0
 32 31  1  0  0  0  0
 33 34  2  0  0  0  0
 33 31  1  0  0  0  0
 34 36  1  0  0  0  0
 35 34  1  0  0  0  0
 36 37  1  0  0  0  0
 36 38  2  0  0  0  0
M  END
>  <minimizedAffinity>
-6.18246651

$$$$

 OpenBabel03252504193D

 38 40  0  0  0  0  0  0  0  0999 V2000
   36.9890   27.2770   41.3230 F   0  0  0  0  0  0  0  0  0  0  0  0
   38.1050   26.8960   42.0170 C   0  0  0  0  0  0  0  0  0  0  0  0
   39.1160   27.8010   42.2320 C   0  0  0  0  0  0  0  0  0  0  0  0
   40.2170   27.3340   42.9490 C   0  0  0  0  0  0  0  0  0  0  0  0
   40.2660   26.0390   43.4070 C   0  0  0  0  0  0  0  0  0  0  0  0
   39.2060   25.1660   43.1580 C   0  0  0  0  0  0  0  0  0  0  0  0
   38.0780   25.5960   42.4380 C   0  0  0  0  0  0  0  0  0  0  0  0
   41.0230   28.0250   43.1290 H   0  0  0  0  0  0  0  0  0  0  0  0
   41.1450   25.7310   43.9590 H   0  0  0  0  0  0  0  0  0  0  0  0
   39.2860   24.1530   43.5370 H   0  0  0  0  0  0  0  0  0  0  0  0
   38.7500   30.5750   39.8820 C   0  0  0  0  0  0  0  0  0  0  0  0
   38.8650   31.7070   40.6860 C   0  0  0  0  0  0  0  0  0  0  0  0
   39.0720   31.5020   42.0640 C   0  0  0  0  0  0  0  0  0  0  0  0
   39.1510   30.2440   42.5510 N   0  0  0  0  0  0  0  0  0  0  0  0
   39.0340   29.1770   41.7300 C   0  0  0  0  0  0  0  0  0  0  0  0
   38.8360   29.3440   40.4150 N   0  0  0  0  0  0  0  0  0  0  0  0
   39.1630   32.3800   42.7030 H   0  0  0  0  0  0  0  0  0  0  0  0
   38.7670   33.0400   40.0730 C   0  0  0  0  0  0  0  0  0  0  0  0
   37.4860   33.2480   39.5920 F   0  0  0  0  0  0  0  0  0  0  0  0
   39.0100   33.9900   41.0550 F   0  0  0  0  0  0  0  0  0  0  0  0
   39.6320   33.2630   39.0520 F   0  0  0  0  0  0  0  0  0  0  0  0
   38.5520   30.7650   38.5620 O   0  0  0  0  0  0  0  0  0  0  0  0
   37.3920   30.4330   37.8160 C   0  0  0  0  0  0  0  0  0  0  0  0
   37.3240   31.3240   36.7490 F   0  0  0  0  0  0  0  0  0  0  0  0
   37.4550   29.1270   37.4360 F   0  0  0  0  0  0  0  0  0  0  0  0
   36.2720   30.7150   38.5740 F   0  0  0  0  0  0  0  0  0  0  0  0
   36.9590   24.6590   42.1800 C   0  0  0  0  0  0  0  0  0  0  0  0
   36.0470   25.3140   42.0700 H   0  0  0  0  0  0  0  0  0  0  0  0
   36.8510   24.0120   43.0800 H   0  0  0  0  0  0  0  0  0  0  0  0
   37.0940   23.8560   40.9680 C   0  0  0  0  0  0  0  0  0  0  0  0
   37.9560   22.8210   40.6800 C   0  0  0  0  0  0  0  0  0  0  0  0
   38.6320   22.5760   41.4730 H   0  0  0  0  0  0  0  0  0  0  0  0
   37.9660   22.1500   39.4820 C   0  0  0  0  0  3  0  0  0  0  0  0
   37.0740   22.5070   38.4870 C   0  0  0  0  0  0  0  0  0  0  0  0
   37.0740   21.9840   37.5380 H   0  0  0  0  0  0  0  0  0  0  0  0
   36.1810   23.5450   38.7230 C   0  0  0  0  0  0  0  0  0  0  0  0
   35.4980   23.8050   37.9370 H   0  0  0  0  0  0  0  0  0  0  0  0
   36.1990   24.2000   39.9460 C   0  0  0  0  0  3  0  0  0  0  0  0
  1  2  1  0  0  0  0
  2  3  2  0  0  0  0
  2  7  1  0  0  0  0
  3  4  1  0  0  0  0
  4  8  1  0  0  0  0
  4  5  2  0  0  0  0
  5  9  1  0  0  0  0
  6  5  1  0  0  0  0
  6 10  1  0  0  0  0
  7  6  2  0  0  0  0
 11 16  2  0  0  0  0
 11 12  1  0  0  0  0
 12 13  2  0  0  0  0
 13 14  1  0  0  0  0
 13 17  1  0  0  0  0
 15  3  1  0  0  0  0
 15 14  2  0  0  0  0
 16 15  1  0  0  0  0
 18 12  1  0  0  0  0
 18 20  1  0  0  0  0
 19 18  1  0  0  0  0
 21 18  1  0  0  0  0
 22 11  1  0  0  0  0
 23 22  1  0  0  0  0
 23 26  1  0  0  0  0
 24 23  1  0  0  0  0
 25 23  1  0  0  0  0
 27  7  1  0  0  0  0
 27 29  1  0  0  0  0
 28 27  1  0  0  0  0
 30 27  1  0  0  0  0
 31 30  1  0  0  0  0
 31 32  1  0  0  0  0
 33 31  2  0  0  0  0
 34 36  2  0  0  0  0
 34 33  1  0  0  0  0
 35 34  1  0  0  0  0
 36 38  1  0  0  0  0
 37 36  1  0  0  0  0
 38 30  2  0  0  0  0
M  END
>  <minimizedAffinity>
-5.95332003

$$$$
