
 OpenBabel03252509323D

 27 28  0  0  0  0  0  0  0  0999 V2000
   49.8980   33.0360   41.4890 O   0  0  0  0  0  0  0  0  0  0  0  0
   49.1500   34.0750   42.2690 P   0  0  2  0  0  0  0  0  0  0  0  0
   50.1920   35.1960   43.0040 O   0  0  0  0  0  0  0  0  0  0  0  0
   51.1110   34.9960   42.7280 H   0  0  0  0  0  0  0  0  0  0  0  0
   48.2820   33.3380   43.5180 O   0  0  0  0  0  0  0  0  0  0  0  0
   46.9430   33.2960   43.0960 C   0  0  0  0  0  0  0  0  0  0  0  0
   46.5750   32.2390   43.0730 H   0  0  0  0  0  0  0  0  0  0  0  0
   46.8020   33.6970   42.0700 H   0  0  0  0  0  0  0  0  0  0  0  0
   45.0400   34.3290   46.1270 C   0  0  0  0  0  0  0  0  0  0  0  0
   45.8690   33.5840   45.2870 C   0  0  0  0  0  0  0  0  0  0  0  0
   46.0860   34.0390   44.0070 C   0  0  0  0  0  0  0  0  0  0  0  0
   45.4760   35.2160   43.6030 N   0  0  0  0  0  0  0  0  0  0  0  0
   44.6740   35.9090   44.4610 C   0  0  0  0  0  0  0  0  0  0  0  0
   44.4610   35.4760   45.6960 N   0  0  0  0  0  0  0  0  0  0  0  0
   44.9200   33.9050   47.1160 H   0  0  0  0  0  0  0  0  0  0  0  0
   46.3560   32.6620   45.5820 H   0  0  0  0  0  0  0  0  0  0  0  0
   44.2150   36.8330   44.0940 H   0  0  0  0  0  0  0  0  0  0  0  0
   48.0800   34.8710   41.2520 O   0  0  0  0  0  0  0  0  0  0  0  0
   47.7930   34.3720   39.9910 C   0  0  0  0  0  0  0  0  0  0  0  0
   48.6270   34.9590   39.0430 C   0  0  0  0  0  0  0  0  0  0  0  0
   49.3970   35.6950   39.2080 H   0  0  0  0  0  0  0  0  0  0  0  0
   48.5270   34.6130   37.6910 C   0  0  0  0  0  3  0  0  0  0  0  0
   47.5910   33.6800   37.2970 C   0  0  0  0  0  0  0  0  0  0  0  0
   47.4590   33.3690   36.2830 H   0  0  0  0  0  0  0  0  0  0  0  0
   46.7610   33.1010   38.2620 C   0  0  0  0  0  0  0  0  0  0  0  0
   46.0000   32.3550   38.0020 H   0  0  0  0  0  0  0  0  0  0  0  0
   46.8610   33.4430   39.5930 C   0  0  0  0  0  3  0  0  0  0  0  0
  2  1  2  6  0  0  0
  2  3  1  0  0  0  0
  2  5  1  0  0  0  0
  4  3  1  0  0  0  0
  6  5  1  0  0  0  0
  6 11  1  0  0  0  0
  7  6  1  0  0  0  0
  8  6  1  0  0  0  0
  9 15  1  0  0  0  0
 10 16  1  0  0  0  0
 10  9  2  0  0  0  0
 11 10  1  0  0  0  0
 12 11  2  0  0  0  0
 12 13  1  0  0  0  0
 13 14  2  0  0  0  0
 14  9  1  0  0  0  0
 17 13  1  0  0  0  0
 18  2  1  0  0  0  0
 19 18  1  0  0  0  0
 20 21  1  0  0  0  0
 20 19  2  0  0  0  0
 22 20  1  0  0  0  0
 23 22  2  0  0  0  0
 23 25  1  0  0  0  0
 24 23  1  0  0  0  0
 25 27  2  0  0  0  0
 26 25  1  0  0  0  0
 27 19  1  0  0  0  0
M  END
>  <minimizedAffinity>
-5.08865786

>  <minimizedRMSD>
0.98756218

$$$$
