
 OpenBabel03252509323D

 27 28  0  0  0  0  0  0  0  0999 V2000
   37.1680   28.5000   39.9860 O   0  0  0  0  0  0  0  0  0  0  0  0
   36.2550   28.9750   41.0770 P   0  0  2  0  0  0  0  0  0  0  0  0
   34.6940   29.3160   40.5030 O   0  0  0  0  0  0  0  0  0  0  0  0
   34.6510   29.0750   39.5530 H   0  0  0  0  0  0  0  0  0  0  0  0
   36.8490   30.4150   41.7340 O   0  0  0  0  0  0  0  0  0  0  0  0
   36.7250   31.3870   40.7290 C   0  0  0  0  0  0  0  0  0  0  0  0
   35.8880   32.0920   40.9700 H   0  0  0  0  0  0  0  0  0  0  0  0
   36.4890   30.9530   39.7350 H   0  0  0  0  0  0  0  0  0  0  0  0
   39.1120   34.1270   39.9070 C   0  0  0  0  0  0  0  0  0  0  0  0
   37.9210   33.4040   39.9950 C   0  0  0  0  0  0  0  0  0  0  0  0
   37.9420   32.1760   40.6140 C   0  0  0  0  0  0  0  0  0  0  0  0
   39.1410   31.7050   41.1250 N   0  0  0  0  0  0  0  0  0  0  0  0
   40.2790   32.4480   41.0140 C   0  0  0  0  0  0  0  0  0  0  0  0
   40.2660   33.6320   40.4190 N   0  0  0  0  0  0  0  0  0  0  0  0
   39.0130   35.0810   39.4060 H   0  0  0  0  0  0  0  0  0  0  0  0
   36.9740   33.7530   39.6030 H   0  0  0  0  0  0  0  0  0  0  0  0
   41.2010   32.0300   41.4340 H   0  0  0  0  0  0  0  0  0  0  0  0
   36.1780   27.8120   42.2840 O   0  0  0  0  0  0  0  0  0  0  0  0
   37.2440   26.9570   42.5150 C   0  0  0  0  0  0  0  0  0  0  0  0
   38.2000   27.5870   43.3090 C   0  0  0  0  0  0  0  0  0  0  0  0
   38.1670   28.5860   43.7120 H   0  0  0  0  0  0  0  0  0  0  0  0
   39.3730   26.9210   43.6790 C   0  0  0  0  0  3  0  0  0  0  0  0
   39.5820   25.6270   43.2520 C   0  0  0  0  0  0  0  0  0  0  0  0
   40.4550   25.0590   43.4950 H   0  0  0  0  0  0  0  0  0  0  0  0
   38.6140   25.0090   42.4540 C   0  0  0  0  0  0  0  0  0  0  0  0
   38.7310   23.9820   42.0880 H   0  0  0  0  0  0  0  0  0  0  0  0
   37.4580   25.6670   42.0910 C   0  0  0  0  0  3  0  0  0  0  0  0
  2  1  2  6  0  0  0
  2  5  1  0  0  0  0
  2 18  1  0  0  0  0
  3  2  1  0  0  0  0
  4  3  1  0  0  0  0
  6  7  1  0  0  0  0
  6  5  1  0  0  0  0
  8  6  1  0  0  0  0
  9 10  2  0  0  0  0
  9 14  1  0  0  0  0
 10 11  1  0  0  0  0
 11  6  1  0  0  0  0
 11 12  2  0  0  0  0
 13 12  1  0  0  0  0
 13 17  1  0  0  0  0
 14 13  2  0  0  0  0
 15  9  1  0  0  0  0
 16 10  1  0  0  0  0
 18 19  1  0  0  0  0
 19 20  1  0  0  0  0
 20 22  2  0  0  0  0
 20 21  1  0  0  0  0
 23 24  1  0  0  0  0
 23 22  1  0  0  0  0
 25 23  2  0  0  0  0
 26 25  1  0  0  0  0
 27 25  1  0  0  0  0
 27 19  2  0  0  0  0
M  END
>  <minimizedAffinity>
-4.97499704

$$$$

 OpenBabel03252509323D

 27 28  0  0  0  0  0  0  0  0999 V2000
   35.4340   29.5120   39.3030 O   0  0  0  0  0  0  0  0  0  0  0  0
   36.1830   29.6860   40.5900 P   0  0  2  0  0  0  0  0  0  0  0  0
   35.7350   31.1060   41.4050 O   0  0  0  0  0  0  0  0  0  0  0  0
   35.0060   31.5350   40.9080 H   0  0  0  0  0  0  0  0  0  0  0  0
   37.8390   29.8150   40.2760 O   0  0  0  0  0  0  0  0  0  0  0  0
   37.9640   30.6510   39.1550 C   0  0  0  0  0  0  0  0  0  0  0  0
   36.9520   30.9610   38.7860 H   0  0  0  0  0  0  0  0  0  0  0  0
   38.4670   30.1530   38.3000 H   0  0  0  0  0  0  0  0  0  0  0  0
   40.5290   33.3530   39.1630 C   0  0  0  0  0  0  0  0  0  0  0  0
   39.8550   32.1810   38.8120 C   0  0  0  0  0  0  0  0  0  0  0  0
   38.6990   31.8620   39.4860 C   0  0  0  0  0  0  0  0  0  0  0  0
   38.2490   32.7120   40.4820 N   0  0  0  0  0  0  0  0  0  0  0  0
   38.9420   33.8460   40.7890 C   0  0  0  0  0  0  0  0  0  0  0  0
   40.0570   34.1600   40.1440 N   0  0  0  0  0  0  0  0  0  0  0  0
   41.4280   33.5330   38.5880 H   0  0  0  0  0  0  0  0  0  0  0  0
   40.1890   31.5020   38.0370 H   0  0  0  0  0  0  0  0  0  0  0  0
   38.5450   34.4850   41.5850 H   0  0  0  0  0  0  0  0  0  0  0  0
   35.9140   28.3540   41.5750 O   0  0  0  0  0  0  0  0  0  0  0  0
   36.9730   27.6850   42.1690 C   0  0  0  0  0  0  0  0  0  0  0  0
   37.2430   26.5060   41.4770 C   0  0  0  0  0  0  0  0  0  0  0  0
   36.7380   26.1240   40.6060 H   0  0  0  0  0  0  0  0  0  0  0  0
   38.2740   25.6560   41.8900 C   0  0  0  0  0  3  0  0  0  0  0  0
   39.0290   25.9910   42.9940 C   0  0  0  0  0  0  0  0  0  0  0  0
   39.8300   25.3890   43.3660 H   0  0  0  0  0  0  0  0  0  0  0  0
   38.7450   27.1770   43.6790 C   0  0  0  0  0  0  0  0  0  0  0  0
   39.3140   27.4910   44.5610 H   0  0  0  0  0  0  0  0  0  0  0  0
   37.7280   28.0140   43.2700 C   0  0  0  0  0  3  0  0  0  0  0  0
  2  1  2  6  0  0  0
  2  3  1  0  0  0  0
  2 18  1  0  0  0  0
  4  3  1  0  0  0  0
  5  2  1  0  0  0  0
  6 11  1  0  0  0  0
  6  5  1  0  0  0  0
  7  6  1  0  0  0  0
  8  6  1  0  0  0  0
  9 14  1  0  0  0  0
 10  9  2  0  0  0  0
 10 11  1  0  0  0  0
 11 12  2  0  0  0  0
 12 13  1  0  0  0  0
 13 17  1  0  0  0  0
 14 13  2  0  0  0  0
 15  9  1  0  0  0  0
 16 10  1  0  0  0  0
 18 19  1  0  0  0  0
 19 27  1  0  0  0  0
 20 22  1  0  0  0  0
 20 19  2  0  0  0  0
 21 20  1  0  0  0  0
 22 23  2  0  0  0  0
 23 24  1  0  0  0  0
 23 25  1  0  0  0  0
 25 26  1  0  0  0  0
 27 25  2  0  0  0  0
M  END
>  <minimizedAffinity>
-4.96432447

$$$$

 OpenBabel03252509323D

 27 28  0  0  0  0  0  0  0  0999 V2000
   36.5630   30.7850   38.8220 O   0  0  0  0  0  0  0  0  0  0  0  0
   37.1340   31.2700   40.1200 P   0  0  2  0  0  0  0  0  0  0  0  0
   36.9600   32.9490   40.3100 O   0  0  0  0  0  0  0  0  0  0  0  0
   36.4500   33.2970   39.5480 H   0  0  0  0  0  0  0  0  0  0  0  0
   38.7940   30.9520   40.1700 O   0  0  0  0  0  0  0  0  0  0  0  0
   39.2340   30.9410   38.8370 C   0  0  0  0  0  0  0  0  0  0  0  0
   38.3650   31.0580   38.1400 H   0  0  0  0  0  0  0  0  0  0  0  0
   39.7320   29.9900   38.5550 H   0  0  0  0  0  0  0  0  0  0  0  0
   41.8470   33.0900   37.2780 C   0  0  0  0  0  0  0  0  0  0  0  0
   40.9820   32.0140   37.4850 C   0  0  0  0  0  0  0  0  0  0  0  0
   40.1520   32.0400   38.5810 C   0  0  0  0  0  0  0  0  0  0  0  0
   40.2060   33.1290   39.4350 N   0  0  0  0  0  0  0  0  0  0  0  0
   41.0690   34.1570   39.1920 C   0  0  0  0  0  0  0  0  0  0  0  0
   41.8710   34.1390   38.1370 N   0  0  0  0  0  0  0  0  0  0  0  0
   42.4660   32.9950   36.3960 H   0  0  0  0  0  0  0  0  0  0  0  0
   40.9230   31.1530   36.8290 H   0  0  0  0  0  0  0  0  0  0  0  0
   41.0730   34.9950   39.8970 H   0  0  0  0  0  0  0  0  0  0  0  0
   36.3850   30.4720   41.3910 O   0  0  0  0  0  0  0  0  0  0  0  0
   36.9650   29.3540   41.9690 C   0  0  0  0  0  0  0  0  0  0  0  0
   36.5120   28.1980   41.3360 C   0  0  0  0  0  0  0  0  0  0  0  0
   35.8180   28.1250   40.5160 H   0  0  0  0  0  0  0  0  0  0  0  0
   36.9600   26.9370   41.7450 C   0  0  0  0  0  3  0  0  0  0  0  0
   37.8580   26.8420   42.7860 C   0  0  0  0  0  0  0  0  0  0  0  0
   38.2410   25.9130   43.1520 H   0  0  0  0  0  0  0  0  0  0  0  0
   38.3030   28.0110   43.4130 C   0  0  0  0  0  0  0  0  0  0  0  0
   39.0160   27.9910   44.2440 H   0  0  0  0  0  0  0  0  0  0  0  0
   37.8610   29.2530   43.0070 C   0  0  0  0  0  3  0  0  0  0  0  0
  2  1  2  6  0  0  0
  2  5  1  0  0  0  0
  2  3  1  0  0  0  0
  2 18  1  0  0  0  0
  4  3  1  0  0  0  0
  6  5  1  0  0  0  0
  7  6  1  0  0  0  0
  8  6  1  0  0  0  0
  9 10  2  0  0  0  0
  9 14  1  0  0  0  0
 10 11  1  0  0  0  0
 11  6  1  0  0  0  0
 11 12  2  0  0  0  0
 13 12  1  0  0  0  0
 13 17  1  0  0  0  0
 14 13  2  0  0  0  0
 15  9  1  0  0  0  0
 16 10  1  0  0  0  0
 18 19  1  0  0  0  0
 19 27  1  0  0  0  0
 20 22  1  0  0  0  0
 20 19  2  0  0  0  0
 21 20  1  0  0  0  0
 22 23  2  0  0  0  0
 23 24  1  0  0  0  0
 23 25  1  0  0  0  0
 25 26  1  0  0  0  0
 27 25  2  0  0  0  0
M  END
>  <minimizedAffinity>
-4.95538568

$$$$

 OpenBabel03252509323D

 27 28  0  0  0  0  0  0  0  0999 V2000
   37.3490   29.7120   39.7130 O   0  0  0  0  0  0  0  0  0  0  0  0
   37.1670   30.8380   40.6870 P   0  0  2  0  0  0  0  0  0  0  0  0
   35.5820   30.9140   41.2890 O   0  0  0  0  0  0  0  0  0  0  0  0
   35.0760   30.1530   40.9330 H   0  0  0  0  0  0  0  0  0  0  0  0
   37.4580   32.3140   39.9160 O   0  0  0  0  0  0  0  0  0  0  0  0
   38.6030   32.8570   40.5220 C   0  0  0  0  0  0  0  0  0  0  0  0
   38.8440   32.3020   41.4650 H   0  0  0  0  0  0  0  0  0  0  0  0
   38.4750   33.9210   40.8100 H   0  0  0  0  0  0  0  0  0  0  0  0
   42.0950   32.9450   39.2280 C   0  0  0  0  0  0  0  0  0  0  0  0
   41.0160   33.0630   40.1040 C   0  0  0  0  0  0  0  0  0  0  0  0
   39.7580   32.7500   39.6430 C   0  0  0  0  0  0  0  0  0  0  0  0
   39.6120   32.3310   38.3310 N   0  0  0  0  0  0  0  0  0  0  0  0
   40.6980   32.2320   37.5120 C   0  0  0  0  0  0  0  0  0  0  0  0
   41.9120   32.5320   37.9500 N   0  0  0  0  0  0  0  0  0  0  0  0
   43.0490   33.2100   39.6650 H   0  0  0  0  0  0  0  0  0  0  0  0
   41.1070   33.3880   41.1340 H   0  0  0  0  0  0  0  0  0  0  0  0
   40.5290   31.8960   36.4830 H   0  0  0  0  0  0  0  0  0  0  0  0
   38.2510   30.6590   41.9540 O   0  0  0  0  0  0  0  0  0  0  0  0
   38.4580   29.4200   42.5420 C   0  0  0  0  0  0  0  0  0  0  0  0
   39.8010   29.0610   42.4400 C   0  0  0  0  0  0  0  0  0  0  0  0
   40.6000   29.6220   41.9850 H   0  0  0  0  0  0  0  0  0  0  0  0
   40.2560   27.8460   42.9630 C   0  0  0  0  0  3  0  0  0  0  0  0
   39.3650   26.9980   43.5850 C   0  0  0  0  0  0  0  0  0  0  0  0
   39.6430   26.0550   44.0050 H   0  0  0  0  0  0  0  0  0  0  0  0
   38.0210   27.3730   43.6780 C   0  0  0  0  0  0  0  0  0  0  0  0
   37.2710   26.7360   44.1620 H   0  0  0  0  0  0  0  0  0  0  0  0
   37.5740   28.5710   43.1620 C   0  0  0  0  0  3  0  0  0  0  0  0
  2  1  2  6  0  0  0
  2  3  1  0  0  0  0
  2 18  1  0  0  0  0
  4  3  1  0  0  0  0
  5  6  1  0  0  0  0
  5  2  1  0  0  0  0
  6  8  1  0  0  0  0
  6  7  1  0  0  0  0
  9 15  1  0  0  0  0
  9 10  1  0  0  0  0
 10 16  1  0  0  0  0
 11 10  2  0  0  0  0
 11  6  1  0  0  0  0
 12 11  1  0  0  0  0
 13 14  1  0  0  0  0
 13 12  2  0  0  0  0
 14  9  2  0  0  0  0
 17 13  1  0  0  0  0
 18 19  1  0  0  0  0
 19 27  1  0  0  0  0
 20 19  2  0  0  0  0
 20 22  1  0  0  0  0
 21 20  1  0  0  0  0
 22 23  2  0  0  0  0
 23 25  1  0  0  0  0
 23 24  1  0  0  0  0
 25 26  1  0  0  0  0
 27 25  2  0  0  0  0
M  END
>  <minimizedAffinity>
-4.84004021

$$$$

 OpenBabel03252509323D

 27 28  0  0  0  0  0  0  0  0999 V2000
   36.1700   28.2170   41.3580 O   0  0  0  0  0  0  0  0  0  0  0  0
   36.8700   29.5410   41.4280 P   0  0  2  0  0  0  0  0  0  0  0  0
   35.7810   30.8440   41.3830 O   0  0  0  0  0  0  0  0  0  0  0  0
   34.8680   30.4880   41.3840 H   0  0  0  0  0  0  0  0  0  0  0  0
   37.8880   29.7220   40.0910 O   0  0  0  0  0  0  0  0  0  0  0  0
   37.4200   30.8440   39.3870 C   0  0  0  0  0  0  0  0  0  0  0  0
   36.4130   31.1500   39.7690 H   0  0  0  0  0  0  0  0  0  0  0  0
   37.2960   30.6510   38.3010 H   0  0  0  0  0  0  0  0  0  0  0  0
   40.4030   33.0680   39.1910 C   0  0  0  0  0  0  0  0  0  0  0  0
   39.5760   31.9590   39.0030 C   0  0  0  0  0  0  0  0  0  0  0  0
   38.3170   31.9770   39.5580 C   0  0  0  0  0  0  0  0  0  0  0  0
   37.9200   33.0900   40.2790 N   0  0  0  0  0  0  0  0  0  0  0  0
   38.7650   34.1500   40.4370 C   0  0  0  0  0  0  0  0  0  0  0  0
   39.9790   34.1390   39.9040 N   0  0  0  0  0  0  0  0  0  0  0  0
   41.3750   32.9770   38.7240 H   0  0  0  0  0  0  0  0  0  0  0  0
   39.8650   31.0790   38.4420 H   0  0  0  0  0  0  0  0  0  0  0  0
   38.4040   35.0060   41.0170 H   0  0  0  0  0  0  0  0  0  0  0  0
   37.7880   29.6130   42.8300 O   0  0  0  0  0  0  0  0  0  0  0  0
   39.1520   29.8540   42.7740 C   0  0  0  0  0  0  0  0  0  0  0  0
   39.8540   28.6550   42.8810 C   0  0  0  0  0  0  0  0  0  0  0  0
   39.4510   27.6630   42.9920 H   0  0  0  0  0  0  0  0  0  0  0  0
   41.2530   28.6420   42.8510 C   0  0  0  0  0  3  0  0  0  0  0  0
   41.9400   29.8290   42.7130 C   0  0  0  0  0  0  0  0  0  0  0  0
   43.0070   29.8930   42.6840 H   0  0  0  0  0  0  0  0  0  0  0  0
   41.2200   31.0240   42.6080 C   0  0  0  0  0  0  0  0  0  0  0  0
   41.7170   31.9950   42.4970 H   0  0  0  0  0  0  0  0  0  0  0  0
   39.8420   31.0350   42.6380 C   0  0  0  0  0  3  0  0  0  0  0  0
  2  1  2  6  0  0  0
  2 18  1  0  0  0  0
  3  4  1  0  0  0  0
  3  2  1  0  0  0  0
  5  2  1  0  0  0  0
  6 11  1  0  0  0  0
  6  7  1  0  0  0  0
  6  5  1  0  0  0  0
  8  6  1  0  0  0  0
  9 14  1  0  0  0  0
 10  9  2  0  0  0  0
 10 11  1  0  0  0  0
 11 12  2  0  0  0  0
 12 13  1  0  0  0  0
 13 17  1  0  0  0  0
 14 13  2  0  0  0  0
 15  9  1  0  0  0  0
 16 10  1  0  0  0  0
 19 18  1  0  0  0  0
 19 20  1  0  0  0  0
 20 21  1  0  0  0  0
 22 20  2  0  0  0  0
 23 22  1  0  0  0  0
 24 23  1  0  0  0  0
 25 27  1  0  0  0  0
 25 23  2  0  0  0  0
 26 25  1  0  0  0  0
 27 19  2  0  0  0  0
M  END
>  <minimizedAffinity>
-4.69039488

$$$$

 OpenBabel03252509323D

 27 28  0  0  0  0  0  0  0  0999 V2000
   39.2790   30.2930   42.8230 O   0  0  0  0  0  0  0  0  0  0  0  0
   38.0630   29.5940   42.2930 P   0  0  2  0  0  0  0  0  0  0  0  0
   36.9890   29.1490   43.5310 O   0  0  0  0  0  0  0  0  0  0  0  0
   37.3350   29.4920   44.3820 H   0  0  0  0  0  0  0  0  0  0  0  0
   38.5170   28.1640   41.5160 O   0  0  0  0  0  0  0  0  0  0  0  0
   37.9190   27.1170   42.2360 C   0  0  0  0  0  0  0  0  0  0  0  0
   37.1060   27.5130   42.8960 H   0  0  0  0  0  0  0  0  0  0  0  0
   38.6320   26.5890   42.9030 H   0  0  0  0  0  0  0  0  0  0  0  0
   36.4470   23.9730   40.8820 C   0  0  0  0  0  0  0  0  0  0  0  0
   37.0230   24.8750   41.7790 C   0  0  0  0  0  0  0  0  0  0  0  0
   37.3180   26.1430   41.3360 C   0  0  0  0  0  0  0  0  0  0  0  0
   37.0310   26.4770   40.0230 N   0  0  0  0  0  0  0  0  0  0  0  0
   36.4680   25.5610   39.1840 C   0  0  0  0  0  0  0  0  0  0  0  0
   36.1810   24.3370   39.6040 N   0  0  0  0  0  0  0  0  0  0  0  0
   36.2460   22.9980   41.3060 H   0  0  0  0  0  0  0  0  0  0  0  0
   37.2550   24.6350   42.8100 H   0  0  0  0  0  0  0  0  0  0  0  0
   36.2620   25.8740   38.1550 H   0  0  0  0  0  0  0  0  0  0  0  0
   37.2830   30.5920   41.1920 O   0  0  0  0  0  0  0  0  0  0  0  0
   36.4040   30.0680   40.2580 C   0  0  0  0  0  0  0  0  0  0  0  0
   36.9200   30.2280   38.9740 C   0  0  0  0  0  0  0  0  0  0  0  0
   37.8550   30.6820   38.6910 H   0  0  0  0  0  0  0  0  0  0  0  0
   36.2080   29.7750   37.8570 C   0  0  0  0  0  3  0  0  0  0  0  0
   34.9850   29.1660   38.0330 C   0  0  0  0  0  0  0  0  0  0  0  0
   34.3870   28.7970   37.2270 H   0  0  0  0  0  0  0  0  0  0  0  0
   34.4800   29.0140   39.3290 C   0  0  0  0  0  0  0  0  0  0  0  0
   33.5130   28.5360   39.5250 H   0  0  0  0  0  0  0  0  0  0  0  0
   35.1830   29.4600   40.4280 C   0  0  0  0  0  3  0  0  0  0  0  0
  2  1  2  1  0  0  0
  2  3  1  0  0  0  0
  3  4  1  0  0  0  0
  5  6  1  0  0  0  0
  5  2  1  0  0  0  0
  6  7  1  0  0  0  0
  6  8  1  0  0  0  0
  9 15  1  0  0  0  0
  9 10  1  0  0  0  0
 10 16  1  0  0  0  0
 11 10  2  0  0  0  0
 11  6  1  0  0  0  0
 12 11  1  0  0  0  0
 13 14  1  0  0  0  0
 13 12  2  0  0  0  0
 14  9  2  0  0  0  0
 17 13  1  0  0  0  0
 18  2  1  0  0  0  0
 19 27  1  0  0  0  0
 19 18  1  0  0  0  0
 20 19  2  0  0  0  0
 21 20  1  0  0  0  0
 22 23  2  0  0  0  0
 22 20  1  0  0  0  0
 23 25  1  0  0  0  0
 24 23  1  0  0  0  0
 25 26  1  0  0  0  0
 25 27  2  0  0  0  0
M  END
>  <minimizedAffinity>
-4.64361048

$$$$

 OpenBabel03252509323D

 27 28  0  0  0  0  0  0  0  0999 V2000
   38.0610   30.0440   42.0210 O   0  0  0  0  0  0  0  0  0  0  0  0
   36.7900   29.6730   41.3170 P   0  0  2  0  0  0  0  0  0  0  0  0
   35.6140   30.8930   41.4330 O   0  0  0  0  0  0  0  0  0  0  0  0
   36.0080   31.6630   41.8950 H   0  0  0  0  0  0  0  0  0  0  0  0
   36.1220   28.2940   42.0300 O   0  0  0  0  0  0  0  0  0  0  0  0
   37.0890   27.8040   42.9230 C   0  0  0  0  0  0  0  0  0  0  0  0
   36.6230   27.5780   43.9160 H   0  0  0  0  0  0  0  0  0  0  0  0
   37.9030   28.5330   43.1200 H   0  0  0  0  0  0  0  0  0  0  0  0
   37.5040   24.3030   41.7190 C   0  0  0  0  0  0  0  0  0  0  0  0
   36.8960   25.4650   42.1970 C   0  0  0  0  0  0  0  0  0  0  0  0
   37.6800   26.5710   42.4250 C   0  0  0  0  0  0  0  0  0  0  0  0
   39.0400   26.4900   42.1720 N   0  0  0  0  0  0  0  0  0  0  0  0
   39.5890   25.3320   41.7050 C   0  0  0  0  0  0  0  0  0  0  0  0
   38.8390   24.2630   41.4830 N   0  0  0  0  0  0  0  0  0  0  0  0
   36.8210   23.4780   41.5660 H   0  0  0  0  0  0  0  0  0  0  0  0
   35.8350   25.5500   42.4010 H   0  0  0  0  0  0  0  0  0  0  0  0
   40.6690   25.3200   41.5210 H   0  0  0  0  0  0  0  0  0  0  0  0
   37.1210   29.3510   39.7030 O   0  0  0  0  0  0  0  0  0  0  0  0
   36.3740   28.4210   38.9980 C   0  0  0  0  0  0  0  0  0  0  0  0
   35.2320   29.0230   38.4730 C   0  0  0  0  0  0  0  0  0  0  0  0
   34.9260   30.0510   38.5680 H   0  0  0  0  0  0  0  0  0  0  0  0
   34.3170   28.2820   37.7170 C   0  0  0  0  0  3  0  0  0  0  0  0
   34.5510   26.9430   37.4910 C   0  0  0  0  0  0  0  0  0  0  0  0
   33.8950   26.3160   36.9250 H   0  0  0  0  0  0  0  0  0  0  0  0
   35.7010   26.3520   38.0260 C   0  0  0  0  0  0  0  0  0  0  0  0
   35.9340   25.2920   37.8770 H   0  0  0  0  0  0  0  0  0  0  0  0
   36.6020   27.0850   38.7700 C   0  0  0  0  0  3  0  0  0  0  0  0
  2  3  1  0  0  0  0
  2  1  2  1  0  0  0
  2  5  1  0  0  0  0
  3  4  1  0  0  0  0
  5  6  1  0  0  0  0
  6  8  1  0  0  0  0
  6  7  1  0  0  0  0
  9 10  1  0  0  0  0
 10 16  1  0  0  0  0
 10 11  2  0  0  0  0
 11  6  1  0  0  0  0
 12 11  1  0  0  0  0
 13 12  2  0  0  0  0
 14 13  1  0  0  0  0
 14  9  2  0  0  0  0
 15  9  1  0  0  0  0
 17 13  1  0  0  0  0
 18  2  1  0  0  0  0
 19 18  1  0  0  0  0
 20 21  1  0  0  0  0
 20 19  2  0  0  0  0
 22 20  1  0  0  0  0
 23 22  2  0  0  0  0
 23 25  1  0  0  0  0
 24 23  1  0  0  0  0
 25 27  2  0  0  0  0
 26 25  1  0  0  0  0
 27 19  1  0  0  0  0
M  END
>  <minimizedAffinity>
-4.54476166

$$$$

 OpenBabel03252509323D

 27 28  0  0  0  0  0  0  0  0999 V2000
   40.1200   31.6330   39.6730 O   0  0  0  0  0  0  0  0  0  0  0  0
   39.3900   32.3740   40.7530 P   0  0  2  0  0  0  0  0  0  0  0  0
   40.0910   33.8860   41.0790 O   0  0  0  0  0  0  0  0  0  0  0  0
   40.8240   34.0330   40.4450 H   0  0  0  0  0  0  0  0  0  0  0  0
   39.4560   31.4950   42.1950 O   0  0  0  0  0  0  0  0  0  0  0  0
   40.0510   30.2620   41.8790 C   0  0  0  0  0  0  0  0  0  0  0  0
   40.9420   30.0810   42.5330 H   0  0  0  0  0  0  0  0  0  0  0  0
   40.4180   30.2170   40.8320 H   0  0  0  0  0  0  0  0  0  0  0  0
   38.0310   27.1730   41.3670 C   0  0  0  0  0  0  0  0  0  0  0  0
   38.9340   28.2090   41.1200 C   0  0  0  0  0  0  0  0  0  0  0  0
   39.1190   29.1650   42.0920 C   0  0  0  0  0  0  0  0  0  0  0  0
   38.4060   29.0620   43.2750 N   0  0  0  0  0  0  0  0  0  0  0  0
   37.5340   28.0320   43.4700 C   0  0  0  0  0  0  0  0  0  0  0  0
   37.3510   27.1080   42.5380 N   0  0  0  0  0  0  0  0  0  0  0  0
   37.9420   26.4640   40.5550 H   0  0  0  0  0  0  0  0  0  0  0  0
   39.5020   28.3080   40.2030 H   0  0  0  0  0  0  0  0  0  0  0  0
   36.9940   27.9970   44.4220 H   0  0  0  0  0  0  0  0  0  0  0  0
   37.7850   32.5730   40.3050 O   0  0  0  0  0  0  0  0  0  0  0  0
   36.9640   31.4760   40.0990 C   0  0  0  0  0  0  0  0  0  0  0  0
   36.9930   31.1020   38.7570 C   0  0  0  0  0  0  0  0  0  0  0  0
   37.5510   31.5590   37.9580 H   0  0  0  0  0  0  0  0  0  0  0  0
   36.2400   30.0130   38.3030 C   0  0  0  0  0  3  0  0  0  0  0  0
   35.4620   29.3070   39.1950 C   0  0  0  0  0  0  0  0  0  0  0  0
   34.8610   28.4680   38.9180 H   0  0  0  0  0  0  0  0  0  0  0  0
   35.4420   29.6960   40.5390 C   0  0  0  0  0  0  0  0  0  0  0  0
   34.8410   29.1690   41.2890 H   0  0  0  0  0  0  0  0  0  0  0  0
   36.1860   30.7680   40.9850 C   0  0  0  0  0  3  0  0  0  0  0  0
  2  1  2  6  0  0  0
  2  3  1  0  0  0  0
  2  5  1  0  0  0  0
  4  3  1  0  0  0  0
  6 11  1  0  0  0  0
  6  5  1  0  0  0  0
  6  7  1  0  0  0  0
  8  6  1  0  0  0  0
  9 14  1  0  0  0  0
 10  9  2  0  0  0  0
 10 11  1  0  0  0  0
 11 12  2  0  0  0  0
 12 13  1  0  0  0  0
 13 17  1  0  0  0  0
 14 13  2  0  0  0  0
 15  9  1  0  0  0  0
 16 10  1  0  0  0  0
 18  2  1  0  0  0  0
 19 18  1  0  0  0  0
 19 27  1  0  0  0  0
 20 19  2  0  0  0  0
 21 20  1  0  0  0  0
 22 20  1  0  0  0  0
 22 23  2  0  0  0  0
 23 25  1  0  0  0  0
 24 23  1  0  0  0  0
 25 27  2  0  0  0  0
 25 26  1  0  0  0  0
M  END
>  <minimizedAffinity>
-4.49580383

$$$$

 OpenBabel03252509323D

 27 28  0  0  0  0  0  0  0  0999 V2000
   36.9990   30.3260   38.1350 O   0  0  0  0  0  0  0  0  0  0  0  0
   37.4820   30.9490   39.4100 P   0  0  2  0  0  0  0  0  0  0  0  0
   36.2000   31.4760   40.3910 O   0  0  0  0  0  0  0  0  0  0  0  0
   35.3550   31.2150   39.9680 H   0  0  0  0  0  0  0  0  0  0  0  0
   38.4120   32.3170   39.0630 O   0  0  0  0  0  0  0  0  0  0  0  0
   39.4190   31.8950   38.1800 C   0  0  0  0  0  0  0  0  0  0  0  0
   39.0850   32.0220   37.1180 H   0  0  0  0  0  0  0  0  0  0  0  0
   39.6750   30.8210   38.2990 H   0  0  0  0  0  0  0  0  0  0  0  0
   42.0650   34.0440   39.6820 C   0  0  0  0  0  0  0  0  0  0  0  0
   40.8920   33.2980   39.5570 C   0  0  0  0  0  0  0  0  0  0  0  0
   40.6300   32.6830   38.3550 C   0  0  0  0  0  0  0  0  0  0  0  0
   41.5380   32.8250   37.3190 N   0  0  0  0  0  0  0  0  0  0  0  0
   42.6710   33.5650   37.4890 C   0  0  0  0  0  0  0  0  0  0  0  0
   42.9300   34.1610   38.6440 N   0  0  0  0  0  0  0  0  0  0  0  0
   42.1990   34.4970   40.6560 H   0  0  0  0  0  0  0  0  0  0  0  0
   40.1690   33.1740   40.3540 H   0  0  0  0  0  0  0  0  0  0  0  0
   43.3560   33.6470   36.6390 H   0  0  0  0  0  0  0  0  0  0  0  0
   38.4250   29.8430   40.2480 O   0  0  0  0  0  0  0  0  0  0  0  0
   37.8750   29.0510   41.2430 C   0  0  0  0  0  0  0  0  0  0  0  0
   38.2940   29.4960   42.4950 C   0  0  0  0  0  0  0  0  0  0  0  0
   38.9450   30.3250   42.7160 H   0  0  0  0  0  0  0  0  0  0  0  0
   37.8680   28.8510   43.6620 C   0  0  0  0  0  3  0  0  0  0  0  0
   37.0250   27.7650   43.5680 C   0  0  0  0  0  0  0  0  0  0  0  0
   36.6610   27.2250   44.4150 H   0  0  0  0  0  0  0  0  0  0  0  0
   36.6140   27.3300   42.3030 C   0  0  0  0  0  0  0  0  0  0  0  0
   35.9450   26.4710   42.1730 H   0  0  0  0  0  0  0  0  0  0  0  0
   37.0340   27.9660   41.1550 C   0  0  0  0  0  3  0  0  0  0  0  0
  2  1  2  6  0  0  0
  2 18  1  0  0  0  0
  2  3  1  0  0  0  0
  4  3  1  0  0  0  0
  5  2  1  0  0  0  0
  6  8  1  0  0  0  0
  6 11  1  0  0  0  0
  6  5  1  0  0  0  0
  7  6  1  0  0  0  0
  9 15  1  0  0  0  0
 10  9  1  0  0  0  0
 10 16  1  0  0  0  0
 11 10  2  0  0  0  0
 12 13  2  0  0  0  0
 12 11  1  0  0  0  0
 13 14  1  0  0  0  0
 14  9  2  0  0  0  0
 17 13  1  0  0  0  0
 18 19  1  0  0  0  0
 19 20  1  0  0  0  0
 20 21  1  0  0  0  0
 20 22  2  0  0  0  0
 23 22  1  0  0  0  0
 23 24  1  0  0  0  0
 25 23  2  0  0  0  0
 26 25  1  0  0  0  0
 27 19  2  0  0  0  0
 27 25  1  0  0  0  0
M  END
>  <minimizedAffinity>
-4.42604494

$$$$
