
 OpenBabel03252504273D

 22 23  0  0  0  0  0  0  0  0999 V2000
   43.5070   35.3960   41.1300 C   0  0  0  0  0  0  0  0  0  0  0  0
   44.0700   36.2260   40.6890 H   0  0  0  0  0  0  0  0  0  0  0  0
   43.5710   34.5350   40.4090 H   0  0  0  0  0  0  0  0  0  0  0  0
   44.2030   35.8930   43.3950 C   0  0  0  0  0  0  0  0  0  0  0  0
   44.1230   34.9330   42.3860 C   0  0  0  0  0  0  0  0  0  0  0  0
   44.6140   33.6700   42.6530 C   0  0  0  0  0  0  0  0  0  0  0  0
   45.1390   33.4530   43.8730 N   0  0  0  0  0  0  0  0  0  0  0  0
   45.2050   34.3910   44.8260 C   0  0  0  0  0  0  0  0  0  0  0  0
   44.7350   35.6710   44.6320 N   0  0  0  0  0  0  0  0  0  0  0  0
   43.8330   36.9100   43.2520 H   0  0  0  0  0  0  0  0  0  0  0  0
   44.5350   32.9540   41.8510 H   0  0  0  0  0  0  0  0  0  0  0  0
   45.6470   34.1000   45.7650 H   0  0  0  0  0  0  0  0  0  0  0  0
   42.1610   35.7060   41.2570 O   0  0  0  0  0  0  0  0  0  0  0  0
   41.2910   35.3500   40.2240 C   0  0  0  0  0  0  0  0  0  0  0  0
   41.5770   35.3460   38.8730 C   0  0  0  0  0  0  0  0  0  0  0  0
   42.5950   35.6560   38.6110 H   0  0  0  0  0  0  0  0  0  0  0  0
   40.6260   34.9740   37.9680 C   0  0  0  0  0  0  0  0  0  0  0  0
   39.3600   34.5930   38.3660 C   0  0  0  0  0  0  0  0  0  0  0  0
   38.6020   34.2950   37.6280 H   0  0  0  0  0  0  0  0  0  0  0  0
   39.0510   34.5910   39.7120 C   0  0  0  0  0  0  0  0  0  0  0  0
   38.0520   34.2890   40.0090 H   0  0  0  0  0  0  0  0  0  0  0  0
   40.0130   34.9670   40.6150 C   0  0  0  0  0  0  0  0  0  0  0  0
  1 13  1  0  0  0  0
  1  5  1  0  0  0  0
  2  1  1  0  0  0  0
  3  1  1  0  0  0  0
  4  9  1  0  0  0  0
  5  6  1  0  0  0  0
  5  4  2  0  0  0  0
  6  7  2  0  0  0  0
  7  8  1  0  0  0  0
  8 12  1  0  0  0  0
  9  8  2  0  0  0  0
 10  4  1  0  0  0  0
 11  6  1  0  0  0  0
 14 22  1  0  0  0  0
 14 13  1  0  0  0  0
 15 14  2  0  0  0  0
 16 15  1  0  0  0  0
 17 18  2  0  0  0  0
 17 15  1  0  0  0  0
 18 20  1  0  0  0  0
 19 18  1  0  0  0  0
 20 21  1  0  0  0  0
 20 22  2  0  0  0  0
M  END
>  <minimizedAffinity>
-4.70999479

>  <minimizedRMSD>
1.69164801

$$$$
