
 OpenBabel03252504513D

 34 36  0  0  0  0  0  0  0  0999 V2000
   33.8570   28.5790   37.3960 C   0  0  0  0  0  0  0  0  0  0  0  0
   34.5340   29.0330   36.2550 C   0  0  0  0  0  0  0  0  0  0  0  0
   35.9120   29.1690   36.3750 C   0  0  0  0  0  0  0  0  0  0  0  0
   36.5080   28.8630   37.5640 N   0  0  0  0  0  0  0  0  0  0  0  0
   35.8180   28.4350   38.6190 C   0  0  0  0  0  0  0  0  0  0  0  0
   34.4870   28.2890   38.5470 N   0  0  0  0  0  0  0  0  0  0  0  0
   32.7700   28.4410   37.3980 H   0  0  0  0  0  0  0  0  0  0  0  0
   36.4710   29.5120   35.5290 H   0  0  0  0  0  0  0  0  0  0  0  0
   36.1560   30.7860   40.5450 Cl  0  0  0  0  0  0  0  0  0  0  0  0
   36.7190   29.1290   40.8070 C   0  0  0  0  0  0  0  0  0  0  0  0
   36.5180   28.1220   39.8690 C   0  0  0  0  0  0  0  0  0  0  0  0
   36.9660   26.8440   40.0990 C   0  0  0  0  0  0  0  0  0  0  0  0
   37.6270   26.5730   41.2930 C   0  0  0  0  0  0  0  0  0  0  0  0
   37.8060   27.5950   42.1940 C   0  0  0  0  0  0  0  0  0  0  0  0
   38.6430   27.1960   43.6770 Cl  0  0  0  0  0  0  0  0  0  0  0  0
   37.3670   28.8950   41.9930 C   0  0  0  0  0  0  0  0  0  0  0  0
   36.7900   26.0880   39.3460 H   0  0  0  0  0  0  0  0  0  0  0  0
   37.9890   25.5610   41.4900 H   0  0  0  0  0  0  0  0  0  0  0  0
   37.5220   29.6770   42.7210 H   0  0  0  0  0  0  0  0  0  0  0  0
   33.7760   29.3200   35.0610 C   0  0  0  0  0  0  0  0  0  0  0  0
   34.1260   28.6530   34.2550 H   0  0  0  0  0  0  0  0  0  0  0  0
   33.9640   30.3550   34.7140 H   0  0  0  0  0  0  0  0  0  0  0  0
   32.3060   29.1030   35.3620 C   0  0  0  0  0  0  0  0  0  0  0  0
   32.2430   28.4800   36.2650 H   0  0  0  0  0  0  0  0  0  0  0  0
   31.8980   28.4710   34.5270 H   0  0  0  0  0  0  0  0  0  0  0  0
   31.5400   30.3460   35.4220 C   0  0  0  0  0  0  0  0  0  0  0  0
   30.9420   30.7790   36.5890 C   0  0  0  0  0  0  0  0  0  0  0  0
   31.0600   30.1520   37.4860 H   0  0  0  0  0  0  0  0  0  0  0  0
   30.2040   31.9310   36.7420 C   0  0  0  0  0  3  0  0  0  0  0  0
   30.0690   32.7020   35.6030 C   0  0  0  0  0  0  0  0  0  0  0  0
   29.4970   33.6150   35.6780 H   0  0  0  0  0  0  0  0  0  0  0  0
   30.6230   32.3690   34.3810 C   0  0  0  0  0  0  0  0  0  0  0  0
   30.5020   32.9870   33.5080 H   0  0  0  0  0  0  0  0  0  0  0  0
   31.3340   31.1980   34.3570 C   0  0  0  0  0  3  0  0  0  0  0  0
  1  7  1  0  0  0  0
  1  6  1  0  0  0  0
  2  3  1  0  0  0  0
  2  1  2  0  0  0  0
  3  4  2  0  0  0  0
  4  5  1  0  0  0  0
  5 11  1  0  0  0  0
  6  5  2  0  0  0  0
  8  3  1  0  0  0  0
  9 10  1  0  0  0  0
 10 16  1  0  0  0  0
 11 12  1  0  0  0  0
 11 10  2  0  0  0  0
 12 13  2  0  0  0  0
 13 18  1  0  0  0  0
 13 14  1  0  0  0  0
 14 15  1  0  0  0  0
 16 14  2  0  0  0  0
 16 19  1  0  0  0  0
 17 12  1  0  0  0  0
 20 23  1  0  0  0  0
 20  2  1  0  0  0  0
 21 20  1  0  0  0  0
 22 20  1  0  0  0  0
 23 26  1  0  0  0  0
 23 24  1  0  0  0  0
 25 23  1  0  0  0  0
 26 27  1  0  0  0  0
 27 29  2  0  0  0  0
 27 28  1  0  0  0  0
 30 31  1  0  0  0  0
 30 29  1  0  0  0  0
 32 30  2  0  0  0  0
 33 32  1  0  0  0  0
 34 32  1  0  0  0  0
 34 26  2  0  0  0  0
M  END
>  <minimizedAffinity>
-5.55317831

$$$$

 OpenBabel03252504513D

 34 36  0  0  0  0  0  0  0  0999 V2000
   35.4860   29.2880   37.1480 C   0  0  0  0  0  0  0  0  0  0  0  0
   34.2090   29.0000   37.6530 C   0  0  0  0  0  0  0  0  0  0  0  0
   34.0680   29.0680   39.0340 C   0  0  0  0  0  0  0  0  0  0  0  0
   35.1510   29.3990   39.7960 N   0  0  0  0  0  0  0  0  0  0  0  0
   36.3430   29.6620   39.2660 C   0  0  0  0  0  0  0  0  0  0  0  0
   36.5230   29.6100   37.9390 N   0  0  0  0  0  0  0  0  0  0  0  0
   35.6940   29.2600   36.0720 H   0  0  0  0  0  0  0  0  0  0  0  0
   33.1110   28.8570   39.4650 H   0  0  0  0  0  0  0  0  0  0  0  0
   37.0010   32.6460   39.4040 Cl  0  0  0  0  0  0  0  0  0  0  0  0
   37.8400   31.3470   40.2660 C   0  0  0  0  0  0  0  0  0  0  0  0
   37.4670   30.0130   40.1400 C   0  0  0  0  0  0  0  0  0  0  0  0
   38.1360   29.0270   40.8220 C   0  0  0  0  0  0  0  0  0  0  0  0
   39.1990   29.3860   41.6460 C   0  0  0  0  0  0  0  0  0  0  0  0
   39.5370   30.7150   41.7430 C   0  0  0  0  0  0  0  0  0  0  0  0
   40.8800   31.1080   42.7920 Cl  0  0  0  0  0  0  0  0  0  0  0  0
   38.8820   31.7350   41.0680 C   0  0  0  0  0  0  0  0  0  0  0  0
   37.8160   28.0010   40.6980 H   0  0  0  0  0  0  0  0  0  0  0  0
   39.7410   28.6120   42.1940 H   0  0  0  0  0  0  0  0  0  0  0  0
   39.1710   32.7710   41.1670 H   0  0  0  0  0  0  0  0  0  0  0  0
   33.1530   28.6640   36.7300 C   0  0  0  0  0  0  0  0  0  0  0  0
   33.0450   27.5660   36.7050 H   0  0  0  0  0  0  0  0  0  0  0  0
   33.4150   28.9760   35.6990 H   0  0  0  0  0  0  0  0  0  0  0  0
   31.8750   29.3340   37.1960 C   0  0  0  0  0  0  0  0  0  0  0  0
   32.0340   29.6590   38.2340 H   0  0  0  0  0  0  0  0  0  0  0  0
   31.0900   28.5320   37.2440 H   0  0  0  0  0  0  0  0  0  0  0  0
   31.4120   30.3850   36.2920 C   0  0  0  0  0  0  0  0  0  0  0  0
   30.5860   31.4050   36.7190 C   0  0  0  0  0  0  0  0  0  0  0  0
   30.2810   31.4050   37.7780 H   0  0  0  0  0  0  0  0  0  0  0  0
   30.1000   32.4340   35.9450 C   0  0  0  0  0  3  0  0  0  0  0  0
   30.4960   32.4140   34.6210 C   0  0  0  0  0  0  0  0  0  0  0  0
   30.1370   33.2030   33.9760 H   0  0  0  0  0  0  0  0  0  0  0  0
   31.3200   31.4440   34.0810 C   0  0  0  0  0  0  0  0  0  0  0  0
   31.6130   31.4510   33.0450 H   0  0  0  0  0  0  0  0  0  0  0  0
   31.7370   30.4730   34.9540 C   0  0  0  0  0  3  0  0  0  0  0  0
  1  2  2  0  0  0  0
  1  6  1  0  0  0  0
  2  3  1  0  0  0  0
  3  8  1  0  0  0  0
  3  4  2  0  0  0  0
  5  4  1  0  0  0  0
  5 11  1  0  0  0  0
  6  5  2  0  0  0  0
  7  1  1  0  0  0  0
  9 10  1  0  0  0  0
 10 16  1  0  0  0  0
 11 10  2  0  0  0  0
 11 12  1  0  0  0  0
 12 13  2  0  0  0  0
 13 14  1  0  0  0  0
 13 18  1  0  0  0  0
 14 15  1  0  0  0  0
 16 19  1  0  0  0  0
 16 14  2  0  0  0  0
 17 12  1  0  0  0  0
 20 23  1  0  0  0  0
 20  2  1  0  0  0  0
 21 20  1  0  0  0  0
 22 20  1  0  0  0  0
 23 25  1  0  0  0  0
 23 24  1  0  0  0  0
 26 27  1  0  0  0  0
 26 23  1  0  0  0  0
 27 28  1  0  0  0  0
 29 27  2  0  0  0  0
 30 29  1  0  0  0  0
 31 30  1  0  0  0  0
 32 30  2  0  0  0  0
 32 34  1  0  0  0  0
 33 32  1  0  0  0  0
 34 26  2  0  0  0  0
M  END
>  <minimizedAffinity>
-5.39060402

$$$$

 OpenBabel03252504513D

 34 36  0  0  0  0  0  0  0  0999 V2000
   35.8190   29.0450   36.4000 C   0  0  0  0  0  0  0  0  0  0  0  0
   34.4230   28.9400   36.3040 C   0  0  0  0  0  0  0  0  0  0  0  0
   33.7570   28.5670   37.4650 C   0  0  0  0  0  0  0  0  0  0  0  0
   34.4800   28.3310   38.5980 N   0  0  0  0  0  0  0  0  0  0  0  0
   35.8060   28.4440   38.6360 C   0  0  0  0  0  0  0  0  0  0  0  0
   36.4880   28.8020   37.5390 N   0  0  0  0  0  0  0  0  0  0  0  0
   36.4310   29.3320   35.5370 H   0  0  0  0  0  0  0  0  0  0  0  0
   32.6910   28.4750   37.4410 H   0  0  0  0  0  0  0  0  0  0  0  0
   36.4610   25.5030   39.1570 Cl  0  0  0  0  0  0  0  0  0  0  0  0
   36.8660   26.8680   40.2080 C   0  0  0  0  0  0  0  0  0  0  0  0
   36.5250   28.1770   39.8860 C   0  0  0  0  0  0  0  0  0  0  0  0
   36.8530   29.2170   40.7210 C   0  0  0  0  0  0  0  0  0  0  0  0
   37.5350   28.9370   41.9010 C   0  0  0  0  0  0  0  0  0  0  0  0
   37.8540   27.6300   42.1840 C   0  0  0  0  0  0  0  0  0  0  0  0
   38.7110   27.3370   43.6800 Cl  0  0  0  0  0  0  0  0  0  0  0  0
   37.5370   26.5580   41.3630 C   0  0  0  0  0  0  0  0  0  0  0  0
   36.5710   30.2210   40.4360 H   0  0  0  0  0  0  0  0  0  0  0  0
   37.8020   29.7530   42.5760 H   0  0  0  0  0  0  0  0  0  0  0  0
   37.8020   25.5410   41.6120 H   0  0  0  0  0  0  0  0  0  0  0  0
   33.7870   29.2190   35.0400 C   0  0  0  0  0  0  0  0  0  0  0  0
   34.1900   28.5250   34.2830 H   0  0  0  0  0  0  0  0  0  0  0  0
   34.0360   30.2410   34.6910 H   0  0  0  0  0  0  0  0  0  0  0  0
   32.2900   29.0480   35.2070 C   0  0  0  0  0  0  0  0  0  0  0  0
   32.1300   28.3410   36.0330 H   0  0  0  0  0  0  0  0  0  0  0  0
   31.9210   28.5270   34.2830 H   0  0  0  0  0  0  0  0  0  0  0  0
   31.5760   30.3170   35.3420 C   0  0  0  0  0  0  0  0  0  0  0  0
   31.5030   31.2270   34.3050 C   0  0  0  0  0  0  0  0  0  0  0  0
   32.0050   30.9650   33.3600 H   0  0  0  0  0  0  0  0  0  0  0  0
   30.8560   32.4420   34.3370 C   0  0  0  0  0  3  0  0  0  0  0  0
   30.2340   32.7480   35.5330 C   0  0  0  0  0  0  0  0  0  0  0  0
   29.7150   33.6930   35.6030 H   0  0  0  0  0  0  0  0  0  0  0  0
   30.2410   31.9160   36.6370 C   0  0  0  0  0  0  0  0  0  0  0  0
   29.7490   32.1790   37.5570 H   0  0  0  0  0  0  0  0  0  0  0  0
   30.9190   30.7350   36.4800 C   0  0  0  0  0  3  0  0  0  0  0  0
  1  6  1  0  0  0  0
  2  1  2  0  0  0  0
  2  3  1  0  0  0  0
  3  4  2  0  0  0  0
  4  5  1  0  0  0  0
  5 11  1  0  0  0  0
  6  5  2  0  0  0  0
  7  1  1  0  0  0  0
  8  3  1  0  0  0  0
  9 10  1  0  0  0  0
 10 16  1  0  0  0  0
 11 10  2  0  0  0  0
 11 12  1  0  0  0  0
 12 13  2  0  0  0  0
 13 14  1  0  0  0  0
 13 18  1  0  0  0  0
 14 15  1  0  0  0  0
 16 19  1  0  0  0  0
 16 14  2  0  0  0  0
 17 12  1  0  0  0  0
 20 23  1  0  0  0  0
 20  2  1  0  0  0  0
 21 20  1  0  0  0  0
 22 20  1  0  0  0  0
 23 26  1  0  0  0  0
 23 24  1  0  0  0  0
 25 23  1  0  0  0  0
 26 34  1  0  0  0  0
 27 29  1  0  0  0  0
 27 26  2  0  0  0  0
 28 27  1  0  0  0  0
 29 30  2  0  0  0  0
 30 31  1  0  0  0  0
 30 32  1  0  0  0  0
 32 33  1  0  0  0  0
 34 32  2  0  0  0  0
M  END
>  <minimizedAffinity>
-5.36607885

$$$$

 OpenBabel03252504513D

 34 36  0  0  0  0  0  0  0  0999 V2000
   38.8350   29.2660   40.7910 C   0  0  0  0  0  0  0  0  0  0  0  0
   37.9520   29.6630   41.8070 C   0  0  0  0  0  0  0  0  0  0  0  0
   36.7920   30.3070   41.3910 C   0  0  0  0  0  0  0  0  0  0  0  0
   36.5880   30.5110   40.0570 N   0  0  0  0  0  0  0  0  0  0  0  0
   37.4600   30.1140   39.1320 C   0  0  0  0  0  0  0  0  0  0  0  0
   38.5910   29.4880   39.4890 N   0  0  0  0  0  0  0  0  0  0  0  0
   39.7750   28.7520   41.0220 H   0  0  0  0  0  0  0  0  0  0  0  0
   36.0880   30.6280   42.1300 H   0  0  0  0  0  0  0  0  0  0  0  0
   35.8790   27.9150   37.7130 Cl  0  0  0  0  0  0  0  0  0  0  0  0
   36.4670   29.4170   36.9860 C   0  0  0  0  0  0  0  0  0  0  0  0
   37.1810   30.3620   37.7140 C   0  0  0  0  0  0  0  0  0  0  0  0
   37.6250   31.5200   37.1240 C   0  0  0  0  0  0  0  0  0  0  0  0
   37.3470   31.7320   35.7760 C   0  0  0  0  0  0  0  0  0  0  0  0
   36.6390   30.7730   35.0910 C   0  0  0  0  0  0  0  0  0  0  0  0
   36.3190   31.0930   33.4010 Cl  0  0  0  0  0  0  0  0  0  0  0  0
   36.1770   29.5950   35.6580 C   0  0  0  0  0  0  0  0  0  0  0  0
   38.1770   32.2310   37.7230 H   0  0  0  0  0  0  0  0  0  0  0  0
   37.6940   32.6480   35.2920 H   0  0  0  0  0  0  0  0  0  0  0  0
   35.6220   28.8600   35.0920 H   0  0  0  0  0  0  0  0  0  0  0  0
   38.2940   29.3830   43.1790 C   0  0  0  0  0  0  0  0  0  0  0  0
   38.0910   30.2840   43.7830 H   0  0  0  0  0  0  0  0  0  0  0  0
   39.3780   29.1770   43.2810 H   0  0  0  0  0  0  0  0  0  0  0  0
   37.4670   28.2030   43.6510 C   0  0  0  0  0  0  0  0  0  0  0  0
   36.4390   28.3580   43.2930 H   0  0  0  0  0  0  0  0  0  0  0  0
   37.4140   28.2740   44.7700 H   0  0  0  0  0  0  0  0  0  0  0  0
   38.0490   26.9110   43.2930 C   0  0  0  0  0  0  0  0  0  0  0  0
   37.3610   25.9850   42.5340 C   0  0  0  0  0  0  0  0  0  0  0  0
   36.3460   26.2520   42.2000 H   0  0  0  0  0  0  0  0  0  0  0  0
   37.8250   24.7470   42.1490 C   0  0  0  0  0  3  0  0  0  0  0  0
   39.1010   24.4350   42.5790 C   0  0  0  0  0  0  0  0  0  0  0  0
   39.5050   23.4720   42.3000 H   0  0  0  0  0  0  0  0  0  0  0  0
   39.8820   25.2820   43.3430 C   0  0  0  0  0  0  0  0  0  0  0  0
   40.8730   25.0130   43.6660 H   0  0  0  0  0  0  0  0  0  0  0  0
   39.3080   26.4850   43.6620 C   0  0  0  0  0  3  0  0  0  0  0  0
  1  7  1  0  0  0  0
  1  2  1  0  0  0  0
  2 20  1  0  0  0  0
  3  2  2  0  0  0  0
  3  8  1  0  0  0  0
  4  3  1  0  0  0  0
  5  6  1  0  0  0  0
  5  4  2  0  0  0  0
  6  1  2  0  0  0  0
 10  9  1  0  0  0  0
 10 11  1  0  0  0  0
 11  5  1  0  0  0  0
 12 11  2  0  0  0  0
 12 17  1  0  0  0  0
 13 12  1  0  0  0  0
 14 16  1  0  0  0  0
 14 13  2  0  0  0  0
 15 14  1  0  0  0  0
 16 10  2  0  0  0  0
 18 13  1  0  0  0  0
 19 16  1  0  0  0  0
 20 22  1  0  0  0  0
 20 23  1  0  0  0  0
 20 21  1  0  0  0  0
 23 25  1  0  0  0  0
 24 23  1  0  0  0  0
 26 23  1  0  0  0  0
 26 34  1  0  0  0  0
 27 26  2  0  0  0  0
 28 27  1  0  0  0  0
 29 27  1  0  0  0  0
 29 30  2  0  0  0  0
 30 32  1  0  0  0  0
 31 30  1  0  0  0  0
 32 34  2  0  0  0  0
 32 33  1  0  0  0  0
M  END
>  <minimizedAffinity>
-5.32147741

$$$$

 OpenBabel03252504513D

 34 36  0  0  0  0  0  0  0  0999 V2000
   36.8620   27.9380   41.2720 C   0  0  0  0  0  0  0  0  0  0  0  0
   37.1350   29.1200   41.9760 C   0  0  0  0  0  0  0  0  0  0  0  0
   36.6130   30.2890   41.4330 C   0  0  0  0  0  0  0  0  0  0  0  0
   35.8880   30.2180   40.2790 N   0  0  0  0  0  0  0  0  0  0  0  0
   35.6580   29.0680   39.6490 C   0  0  0  0  0  0  0  0  0  0  0  0
   36.1420   27.9180   40.1380 N   0  0  0  0  0  0  0  0  0  0  0  0
   37.2310   26.9670   41.6220 H   0  0  0  0  0  0  0  0  0  0  0  0
   36.7950   31.2160   41.9360 H   0  0  0  0  0  0  0  0  0  0  0  0
   37.2930   29.0690   37.0650 Cl  0  0  0  0  0  0  0  0  0  0  0  0
   35.5280   29.0600   37.1870 C   0  0  0  0  0  0  0  0  0  0  0  0
   34.8700   29.0600   38.4120 C   0  0  0  0  0  0  0  0  0  0  0  0
   33.4980   29.0520   38.4770 C   0  0  0  0  0  0  0  0  0  0  0  0
   32.7740   29.0440   37.2880 C   0  0  0  0  0  0  0  0  0  0  0  0
   33.4600   29.0440   36.0980 C   0  0  0  0  0  0  0  0  0  0  0  0
   32.4980   29.0340   34.6370 Cl  0  0  0  0  0  0  0  0  0  0  0  0
   34.8440   29.0520   35.9980 C   0  0  0  0  0  0  0  0  0  0  0  0
   33.0240   29.0520   39.4480 H   0  0  0  0  0  0  0  0  0  0  0  0
   31.6820   29.0380   37.3240 H   0  0  0  0  0  0  0  0  0  0  0  0
   35.3550   29.0510   35.0470 H   0  0  0  0  0  0  0  0  0  0  0  0
   37.9160   29.0480   43.1860 C   0  0  0  0  0  0  0  0  0  0  0  0
   37.3620   29.5570   43.9920 H   0  0  0  0  0  0  0  0  0  0  0  0
   38.8730   29.5960   43.0700 H   0  0  0  0  0  0  0  0  0  0  0  0
   38.1580   27.5880   43.5160 C   0  0  0  0  0  0  0  0  0  0  0  0
   37.5060   26.9910   42.8630 H   0  0  0  0  0  0  0  0  0  0  0  0
   37.7760   27.4270   44.5590 H   0  0  0  0  0  0  0  0  0  0  0  0
   39.5700   27.2150   43.4750 C   0  0  0  0  0  0  0  0  0  0  0  0
   40.5640   28.1400   43.2190 C   0  0  0  0  0  0  0  0  0  0  0  0
   40.2570   29.1830   43.0450 H   0  0  0  0  0  0  0  0  0  0  0  0
   41.9150   27.8840   43.1620 C   0  0  0  0  0  3  0  0  0  0  0  0
   42.2760   26.5680   43.3840 C   0  0  0  0  0  0  0  0  0  0  0  0
   43.3280   26.3220   43.3470 H   0  0  0  0  0  0  0  0  0  0  0  0
   41.3710   25.5580   43.6490 C   0  0  0  0  0  0  0  0  0  0  0  0
   41.6790   24.5410   43.8180 H   0  0  0  0  0  0  0  0  0  0  0  0
   40.0550   25.9390   43.6800 C   0  0  0  0  0  3  0  0  0  0  0  0
  1  7  1  0  0  0  0
  1  2  1  0  0  0  0
  2 20  1  0  0  0  0
  3  8  1  0  0  0  0
  3  2  2  0  0  0  0
  4  3  1  0  0  0  0
  5  6  1  0  0  0  0
  5  4  2  0  0  0  0
  6  1  2  0  0  0  0
  9 10  1  0  0  0  0
 10 11  1  0  0  0  0
 11 12  2  0  0  0  0
 11  5  1  0  0  0  0
 12 17  1  0  0  0  0
 13 18  1  0  0  0  0
 13 12  1  0  0  0  0
 14 13  2  0  0  0  0
 15 14  1  0  0  0  0
 16 14  1  0  0  0  0
 16 10  2  0  0  0  0
 19 16  1  0  0  0  0
 20 23  1  0  0  0  0
 20 21  1  0  0  0  0
 22 20  1  0  0  0  0
 23 25  1  0  0  0  0
 24 23  1  0  0  0  0
 26 23  1  0  0  0  0
 26 34  1  0  0  0  0
 27 26  2  0  0  0  0
 28 27  1  0  0  0  0
 29 27  1  0  0  0  0
 29 30  2  0  0  0  0
 30 32  1  0  0  0  0
 31 30  1  0  0  0  0
 32 34  2  0  0  0  0
 32 33  1  0  0  0  0
M  END
>  <minimizedAffinity>
-5.31807232

$$$$

 OpenBabel03252504513D

 34 36  0  0  0  0  0  0  0  0999 V2000
   38.0440   28.6540   39.9340 C   0  0  0  0  0  0  0  0  0  0  0  0
   37.2320   29.0300   41.0140 C   0  0  0  0  0  0  0  0  0  0  0  0
   37.4880   30.2790   41.5660 C   0  0  0  0  0  0  0  0  0  0  0  0
   38.4890   31.0440   41.0400 N   0  0  0  0  0  0  0  0  0  0  0  0
   39.2330   30.6390   40.0130 C   0  0  0  0  0  0  0  0  0  0  0  0
   39.0180   29.4420   39.4500 N   0  0  0  0  0  0  0  0  0  0  0  0
   37.9170   27.6870   39.4330 H   0  0  0  0  0  0  0  0  0  0  0  0
   36.8940   30.6090   42.3920 H   0  0  0  0  0  0  0  0  0  0  0  0
   38.6560   31.9100   37.2920 Cl  0  0  0  0  0  0  0  0  0  0  0  0
   40.1200   32.1310   38.2620 C   0  0  0  0  0  0  0  0  0  0  0  0
   40.2930   31.5090   39.4940 C   0  0  0  0  0  0  0  0  0  0  0  0
   41.4400   31.6990   40.2250 C   0  0  0  0  0  0  0  0  0  0  0  0
   42.4310   32.5300   39.7100 C   0  0  0  0  0  0  0  0  0  0  0  0
   42.2220   33.1270   38.4900 C   0  0  0  0  0  0  0  0  0  0  0  0
   43.5000   34.1600   37.8930 Cl  0  0  0  0  0  0  0  0  0  0  0  0
   41.0760   32.9550   37.7270 C   0  0  0  0  0  0  0  0  0  0  0  0
   41.5370   31.1990   41.1790 H   0  0  0  0  0  0  0  0  0  0  0  0
   43.3490   32.6910   40.2810 H   0  0  0  0  0  0  0  0  0  0  0  0
   40.9410   33.4390   36.7700 H   0  0  0  0  0  0  0  0  0  0  0  0
   36.2080   28.1200   41.4680 C   0  0  0  0  0  0  0  0  0  0  0  0
   36.1650   27.2650   40.7720 H   0  0  0  0  0  0  0  0  0  0  0  0
   35.2110   28.6010   41.4350 H   0  0  0  0  0  0  0  0  0  0  0  0
   36.5530   27.6720   42.8750 C   0  0  0  0  0  0  0  0  0  0  0  0
   35.6320   27.2850   43.3320 H   0  0  0  0  0  0  0  0  0  0  0  0
   36.8140   28.6000   43.4530 H   0  0  0  0  0  0  0  0  0  0  0  0
   37.6910   26.7570   42.9260 C   0  0  0  0  0  0  0  0  0  0  0  0
   37.6810   25.5420   42.2700 C   0  0  0  0  0  0  0  0  0  0  0  0
   36.7780   25.2780   41.6980 H   0  0  0  0  0  0  0  0  0  0  0  0
   38.7020   24.6180   42.2600 C   0  0  0  0  0  3  0  0  0  0  0  0
   39.8250   24.9710   42.9840 C   0  0  0  0  0  0  0  0  0  0  0  0
   40.6500   24.2740   43.0040 H   0  0  0  0  0  0  0  0  0  0  0  0
   39.9480   26.1590   43.6790 C   0  0  0  0  0  0  0  0  0  0  0  0
   40.8340   26.4090   44.2360 H   0  0  0  0  0  0  0  0  0  0  0  0
   38.8640   26.9950   43.6120 C   0  0  0  0  0  3  0  0  0  0  0  0
  1  2  1  0  0  0  0
  2 20  1  0  0  0  0
  2  3  2  0  0  0  0
  3  8  1  0  0  0  0
  4  3  1  0  0  0  0
  5  4  2  0  0  0  0
  6  1  2  0  0  0  0
  6  5  1  0  0  0  0
  7  1  1  0  0  0  0
  9 10  1  0  0  0  0
 10 11  1  0  0  0  0
 11  5  1  0  0  0  0
 11 12  2  0  0  0  0
 12 17  1  0  0  0  0
 13 12  1  0  0  0  0
 13 18  1  0  0  0  0
 14 13  2  0  0  0  0
 15 14  1  0  0  0  0
 16 10  2  0  0  0  0
 16 14  1  0  0  0  0
 19 16  1  0  0  0  0
 20 23  1  0  0  0  0
 21 20  1  0  0  0  0
 22 20  1  0  0  0  0
 23 26  1  0  0  0  0
 23 24  1  0  0  0  0
 23 25  1  0  0  0  0
 26 34  1  0  0  0  0
 27 26  2  0  0  0  0
 28 27  1  0  0  0  0
 29 27  1  0  0  0  0
 29 30  2  0  0  0  0
 30 31  1  0  0  0  0
 30 32  1  0  0  0  0
 32 33  1  0  0  0  0
 34 32  2  0  0  0  0
M  END
>  <minimizedAffinity>
-5.2608304

$$$$

 OpenBabel03252504513D

 34 36  0  0  0  0  0  0  0  0999 V2000
   37.7240   31.4180   39.3990 C   0  0  0  0  0  0  0  0  0  0  0  0
   38.7420   30.5380   39.7970 C   0  0  0  0  0  0  0  0  0  0  0  0
   38.6530   29.2400   39.3080 C   0  0  0  0  0  0  0  0  0  0  0  0
   37.6080   28.9070   38.4940 N   0  0  0  0  0  0  0  0  0  0  0  0
   36.6660   29.7820   38.1480 C   0  0  0  0  0  0  0  0  0  0  0  0
   36.7140   31.0440   38.5960 N   0  0  0  0  0  0  0  0  0  0  0  0
   37.7080   32.4610   39.7340 H   0  0  0  0  0  0  0  0  0  0  0  0
   39.4070   28.5330   39.5840 H   0  0  0  0  0  0  0  0  0  0  0  0
   34.0500   29.0900   39.5720 Cl  0  0  0  0  0  0  0  0  0  0  0  0
   34.3410   29.0270   37.8280 C   0  0  0  0  0  0  0  0  0  0  0  0
   35.5700   29.3610   37.2690 C   0  0  0  0  0  0  0  0  0  0  0  0
   35.7670   29.3030   35.9110 C   0  0  0  0  0  0  0  0  0  0  0  0
   34.7100   28.9020   35.0990 C   0  0  0  0  0  0  0  0  0  0  0  0
   33.5120   28.5790   35.6900 C   0  0  0  0  0  0  0  0  0  0  0  0
   32.2190   28.0810   34.6210 Cl  0  0  0  0  0  0  0  0  0  0  0  0
   33.2800   28.6270   37.0560 C   0  0  0  0  0  0  0  0  0  0  0  0
   36.7370   29.5720   35.5150 H   0  0  0  0  0  0  0  0  0  0  0  0
   34.8520   28.8500   34.0170 H   0  0  0  0  0  0  0  0  0  0  0  0
   32.3260   28.3670   37.4900 H   0  0  0  0  0  0  0  0  0  0  0  0
   39.7880   31.0250   40.6620 C   0  0  0  0  0  0  0  0  0  0  0  0
   40.0560   32.0470   40.3460 H   0  0  0  0  0  0  0  0  0  0  0  0
   40.7050   30.4130   40.5550 H   0  0  0  0  0  0  0  0  0  0  0  0
   39.2790   31.0020   42.0900 C   0  0  0  0  0  0  0  0  0  0  0  0
   38.3610   31.6060   42.1220 H   0  0  0  0  0  0  0  0  0  0  0  0
   40.0330   31.5610   42.7080 H   0  0  0  0  0  0  0  0  0  0  0  0
   39.1420   29.6520   42.6320 C   0  0  0  0  0  0  0  0  0  0  0  0
   37.9470   29.1900   43.1490 C   0  0  0  0  0  0  0  0  0  0  0  0
   37.0880   29.8790   43.1410 H   0  0  0  0  0  0  0  0  0  0  0  0
   37.7230   27.9400   43.6790 C   0  0  0  0  0  3  0  0  0  0  0  0
   38.8150   27.0940   43.6790 C   0  0  0  0  0  0  0  0  0  0  0  0
   38.6840   26.1020   44.0870 H   0  0  0  0  0  0  0  0  0  0  0  0
   40.0590   27.4460   43.1890 C   0  0  0  0  0  0  0  0  0  0  0  0
   40.8950   26.7680   43.2020 H   0  0  0  0  0  0  0  0  0  0  0  0
   40.1560   28.7180   42.6890 C   0  0  0  0  0  3  0  0  0  0  0  0
  1  7  1  0  0  0  0
  1  2  1  0  0  0  0
  2 20  1  0  0  0  0
  3  8  1  0  0  0  0
  3  2  2  0  0  0  0
  4  3  1  0  0  0  0
  5  4  2  0  0  0  0
  5  6  1  0  0  0  0
  6  1  2  0  0  0  0
 10  9  1  0  0  0  0
 11 10  1  0  0  0  0
 11  5  1  0  0  0  0
 12 11  2  0  0  0  0
 13 14  2  0  0  0  0
 13 12  1  0  0  0  0
 14 16  1  0  0  0  0
 15 14  1  0  0  0  0
 16 19  1  0  0  0  0
 16 10  2  0  0  0  0
 17 12  1  0  0  0  0
 18 13  1  0  0  0  0
 20 23  1  0  0  0  0
 21 20  1  0  0  0  0
 22 20  1  0  0  0  0
 23 24  1  0  0  0  0
 23 26  1  0  0  0  0
 23 25  1  0  0  0  0
 26 34  2  0  0  0  0
 26 27  1  0  0  0  0
 27 29  2  0  0  0  0
 28 27  1  0  0  0  0
 29 30  1  0  0  0  0
 30 31  1  0  0  0  0
 32 33  1  0  0  0  0
 32 30  2  0  0  0  0
 34 32  1  0  0  0  0
M  END
>  <minimizedAffinity>
-5.23498297

$$$$

 OpenBabel03252504513D

 34 36  0  0  0  0  0  0  0  0999 V2000
   34.5240   28.9390   35.7990 C   0  0  0  0  0  0  0  0  0  0  0  0
   34.1610   28.6840   37.1300 C   0  0  0  0  0  0  0  0  0  0  0  0
   32.8720   29.0560   37.4940 C   0  0  0  0  0  0  0  0  0  0  0  0
   32.0590   29.6320   36.5610 N   0  0  0  0  0  0  0  0  0  0  0  0
   32.4540   29.8530   35.3090 C   0  0  0  0  0  0  0  0  0  0  0  0
   33.6880   29.5080   34.9150 N   0  0  0  0  0  0  0  0  0  0  0  0
   35.5190   28.6810   35.4200 H   0  0  0  0  0  0  0  0  0  0  0  0
   32.5500   28.8820   38.5000 H   0  0  0  0  0  0  0  0  0  0  0  0
   30.9430   27.9030   33.5010 Cl  0  0  0  0  0  0  0  0  0  0  0  0
   30.8000   29.6670   33.4890 C   0  0  0  0  0  0  0  0  0  0  0  0
   31.5320   30.4750   34.3530 C   0  0  0  0  0  0  0  0  0  0  0  0
   31.4000   31.8410   34.3220 C   0  0  0  0  0  0  0  0  0  0  0  0
   30.5180   32.4070   33.4060 C   0  0  0  0  0  0  0  0  0  0  0  0
   29.8140   31.5750   32.5690 C   0  0  0  0  0  0  0  0  0  0  0  0
   28.7200   32.3400   31.4390 Cl  0  0  0  0  0  0  0  0  0  0  0  0
   29.9230   30.1920   32.5750 C   0  0  0  0  0  0  0  0  0  0  0  0
   31.9850   32.4360   35.0100 H   0  0  0  0  0  0  0  0  0  0  0  0
   30.4030   33.4930   33.3690 H   0  0  0  0  0  0  0  0  0  0  0  0
   29.3550   29.5640   31.9050 H   0  0  0  0  0  0  0  0  0  0  0  0
   35.1220   28.0680   38.0110 C   0  0  0  0  0  0  0  0  0  0  0  0
   36.1150   28.1100   37.5310 H   0  0  0  0  0  0  0  0  0  0  0  0
   34.8910   26.9950   38.1590 H   0  0  0  0  0  0  0  0  0  0  0  0
   35.1140   28.8160   39.3310 C   0  0  0  0  0  0  0  0  0  0  0  0
   35.2600   28.0750   40.1290 H   0  0  0  0  0  0  0  0  0  0  0  0
   34.0720   29.2110   39.4690 H   0  0  0  0  0  0  0  0  0  0  0  0
   36.0460   29.9410   39.3620 C   0  0  0  0  0  0  0  0  0  0  0  0
   36.8850   30.2240   38.3020 C   0  0  0  0  0  0  0  0  0  0  0  0
   36.8300   29.5680   37.4190 H   0  0  0  0  0  0  0  0  0  0  0  0
   37.7920   31.2570   38.2390 C   0  0  0  0  0  3  0  0  0  0  0  0
   37.8430   32.0670   39.3590 C   0  0  0  0  0  0  0  0  0  0  0  0
   38.5420   32.8900   39.3540 H   0  0  0  0  0  0  0  0  0  0  0  0
   37.0530   31.8800   40.4780 C   0  0  0  0  0  0  0  0  0  0  0  0
   37.1130   32.5240   41.3370 H   0  0  0  0  0  0  0  0  0  0  0  0
   36.1900   30.8170   40.4180 C   0  0  0  0  0  3  0  0  0  0  0  0
  1  2  1  0  0  0  0
  2  3  2  0  0  0  0
  2 20  1  0  0  0  0
  3  8  1  0  0  0  0
  4  3  1  0  0  0  0
  5  4  2  0  0  0  0
  6  5  1  0  0  0  0
  6  1  2  0  0  0  0
  7  1  1  0  0  0  0
 10  9  1  0  0  0  0
 10 11  1  0  0  0  0
 11  5  1  0  0  0  0
 12 11  2  0  0  0  0
 12 17  1  0  0  0  0
 13 12  1  0  0  0  0
 14 16  1  0  0  0  0
 14 13  2  0  0  0  0
 15 14  1  0  0  0  0
 16 10  2  0  0  0  0
 18 13  1  0  0  0  0
 19 16  1  0  0  0  0
 20 22  1  0  0  0  0
 20 23  1  0  0  0  0
 21 20  1  0  0  0  0
 23 26  1  0  0  0  0
 23 25  1  0  0  0  0
 23 24  1  0  0  0  0
 26 34  1  0  0  0  0
 27 26  2  0  0  0  0
 28 27  1  0  0  0  0
 29 27  1  0  0  0  0
 29 30  2  0  0  0  0
 30 32  1  0  0  0  0
 31 30  1  0  0  0  0
 32 33  1  0  0  0  0
 34 32  2  0  0  0  0
M  END
>  <minimizedAffinity>
-5.16732025

$$$$

 OpenBabel03252504513D

 34 36  0  0  0  0  0  0  0  0999 V2000
   35.9180   29.0090   41.1630 C   0  0  0  0  0  0  0  0  0  0  0  0
   36.5200   27.7810   41.4740 C   0  0  0  0  0  0  0  0  0  0  0  0
   37.0610   27.0770   40.4040 C   0  0  0  0  0  0  0  0  0  0  0  0
   36.9760   27.6080   39.1490 N   0  0  0  0  0  0  0  0  0  0  0  0
   36.3920   28.7800   38.9080 C   0  0  0  0  0  0  0  0  0  0  0  0
   35.8580   29.4920   39.9110 N   0  0  0  0  0  0  0  0  0  0  0  0
   35.4640   29.6350   41.9400 H   0  0  0  0  0  0  0  0  0  0  0  0
   37.5310   26.1350   40.5920 H   0  0  0  0  0  0  0  0  0  0  0  0
   34.2730   27.4890   37.1220 Cl  0  0  0  0  0  0  0  0  0  0  0  0
   35.4010   28.7690   36.6510 C   0  0  0  0  0  0  0  0  0  0  0  0
   36.3340   29.2960   37.5370 C   0  0  0  0  0  0  0  0  0  0  0  0
   37.1970   30.2900   37.1440 C   0  0  0  0  0  0  0  0  0  0  0  0
   37.1210   30.7630   35.8370 C   0  0  0  0  0  0  0  0  0  0  0  0
   36.1850   30.2160   34.9920 C   0  0  0  0  0  0  0  0  0  0  0  0
   36.1350   30.8480   33.3620 Cl  0  0  0  0  0  0  0  0  0  0  0  0
   35.3000   29.2120   35.3570 C   0  0  0  0  0  0  0  0  0  0  0  0
   37.9080   30.6740   37.8620 H   0  0  0  0  0  0  0  0  0  0  0  0
   37.8010   31.5520   35.5100 H   0  0  0  0  0  0  0  0  0  0  0  0
   34.5750   28.8030   34.6690 H   0  0  0  0  0  0  0  0  0  0  0  0
   36.5390   27.3400   42.8470 C   0  0  0  0  0  0  0  0  0  0  0  0
   36.8350   26.2770   42.8700 H   0  0  0  0  0  0  0  0  0  0  0  0
   35.5260   27.3920   43.2920 H   0  0  0  0  0  0  0  0  0  0  0  0
   37.5200   28.2040   43.6160 C   0  0  0  0  0  0  0  0  0  0  0  0
   37.2360   28.1590   44.6760 H   0  0  0  0  0  0  0  0  0  0  0  0
   37.3340   29.2640   43.2950 H   0  0  0  0  0  0  0  0  0  0  0  0
   38.9170   27.8730   43.3420 C   0  0  0  0  0  0  0  0  0  0  0  0
   39.7670   28.7590   42.7090 C   0  0  0  0  0  0  0  0  0  0  0  0
   39.3550   29.7360   42.4110 H   0  0  0  0  0  0  0  0  0  0  0  0
   41.0920   28.5380   42.4100 C   0  0  0  0  0  3  0  0  0  0  0  0
   41.5860   27.3050   42.7930 C   0  0  0  0  0  0  0  0  0  0  0  0
   42.6220   27.0890   42.5770 H   0  0  0  0  0  0  0  0  0  0  0  0
   40.8300   26.3400   43.4320 C   0  0  0  0  0  0  0  0  0  0  0  0
   41.2390   25.3870   43.7190 H   0  0  0  0  0  0  0  0  0  0  0  0
   39.5250   26.6800   43.6740 C   0  0  0  0  0  3  0  0  0  0  0  0
  1  2  1  0  0  0  0
  1  7  1  0  0  0  0
  2 20  1  0  0  0  0
  3  8  1  0  0  0  0
  3  2  2  0  0  0  0
  4  3  1  0  0  0  0
  5  4  2  0  0  0  0
  5  6  1  0  0  0  0
  6  1  2  0  0  0  0
 10  9  1  0  0  0  0
 10 11  1  0  0  0  0
 11  5  1  0  0  0  0
 12 11  2  0  0  0  0
 12 17  1  0  0  0  0
 13 12  1  0  0  0  0
 14 16  1  0  0  0  0
 14 13  2  0  0  0  0
 15 14  1  0  0  0  0
 16 10  2  0  0  0  0
 18 13  1  0  0  0  0
 19 16  1  0  0  0  0
 20 21  1  0  0  0  0
 20 22  1  0  0  0  0
 20 23  1  0  0  0  0
 23 24  1  0  0  0  0
 25 23  1  0  0  0  0
 26 23  1  0  0  0  0
 26 34  1  0  0  0  0
 27 26  2  0  0  0  0
 28 27  1  0  0  0  0
 29 27  1  0  0  0  0
 29 30  2  0  0  0  0
 30 32  1  0  0  0  0
 31 30  1  0  0  0  0
 32 34  2  0  0  0  0
 32 33  1  0  0  0  0
M  END
>  <minimizedAffinity>
-5.15048838

$$$$
