
 OpenBabel03252504513D

 34 36  0  0  0  0  0  0  0  0999 V2000
   45.8890   34.6760   43.5450 C   0  0  0  0  0  0  0  0  0  0  0  0
   47.1230   34.5460   42.8890 C   0  0  0  0  0  0  0  0  0  0  0  0
   47.9550   33.5320   43.3470 C   0  0  0  0  0  0  0  0  0  0  0  0
   47.5350   32.7460   44.3810 N   0  0  0  0  0  0  0  0  0  0  0  0
   46.3530   32.9110   44.9700 C   0  0  0  0  0  0  0  0  0  0  0  0
   45.5190   33.8770   44.5590 N   0  0  0  0  0  0  0  0  0  0  0  0
   45.1660   35.4470   43.2540 H   0  0  0  0  0  0  0  0  0  0  0  0
   48.9060   33.3950   42.8770 H   0  0  0  0  0  0  0  0  0  0  0  0
   45.9290   29.9800   44.2110 Cl  0  0  0  0  0  0  0  0  0  0  0  0
   45.7460   30.6810   45.8260 C   0  0  0  0  0  0  0  0  0  0  0  0
   45.9610   32.0320   46.0760 C   0  0  0  0  0  0  0  0  0  0  0  0
   45.8110   32.5480   47.3390 C   0  0  0  0  0  0  0  0  0  0  0  0
   45.4390   31.6920   48.3720 C   0  0  0  0  0  0  0  0  0  0  0  0
   45.2350   30.3630   48.0840 C   0  0  0  0  0  0  0  0  0  0  0  0
   44.7690   29.3340   49.4190 Cl  0  0  0  0  0  0  0  0  0  0  0  0
   45.3770   29.8110   46.8200 C   0  0  0  0  0  0  0  0  0  0  0  0
   45.9880   33.6040   47.4940 H   0  0  0  0  0  0  0  0  0  0  0  0
   45.3150   32.0880   49.3820 H   0  0  0  0  0  0  0  0  0  0  0  0
   45.2110   28.7610   46.6260 H   0  0  0  0  0  0  0  0  0  0  0  0
   47.4370   35.4490   41.8090 C   0  0  0  0  0  0  0  0  0  0  0  0
   47.8010   36.3980   42.2390 H   0  0  0  0  0  0  0  0  0  0  0  0
   46.5290   35.6970   41.2250 H   0  0  0  0  0  0  0  0  0  0  0  0
   48.4910   34.8000   40.9320 C   0  0  0  0  0  0  0  0  0  0  0  0
   48.9970   34.0350   41.5370 H   0  0  0  0  0  0  0  0  0  0  0  0
   49.2650   35.5870   40.7250 H   0  0  0  0  0  0  0  0  0  0  0  0
   47.9630   34.3210   39.6560 C   0  0  0  0  0  0  0  0  0  0  0  0
   48.5440   34.6630   38.4500 C   0  0  0  0  0  0  0  0  0  0  0  0
   49.4290   35.3170   38.4780 H   0  0  0  0  0  0  0  0  0  0  0  0
   48.1200   34.2610   37.2040 C   0  0  0  0  0  0  0  0  0  0  0  0
   47.0070   33.4410   37.1940 C   0  0  0  0  0  0  0  0  0  0  0  0
   46.6390   33.1030   36.2360 H   0  0  0  0  0  0  0  0  0  0  0  0
   46.3440   33.0340   38.3360 C   0  0  0  0  0  0  0  0  0  0  0  0
   45.4790   32.3950   38.3010 H   0  0  0  0  0  0  0  0  0  0  0  0
   46.8620   33.5010   39.5160 C   0  0  0  0  0  0  0  0  0  0  0  0
  1  6  1  0  0  0  0
  2  3  1  0  0  0  0
  2  1  2  0  0  0  0
  3  4  2  0  0  0  0
  4  5  1  0  0  0  0
  5 11  1  0  0  0  0
  6  5  2  0  0  0  0
  7  1  1  0  0  0  0
  8  3  1  0  0  0  0
  9 10  1  0  0  0  0
 10 11  2  0  0  0  0
 10 16  1  0  0  0  0
 11 12  1  0  0  0  0
 12 17  1  0  0  0  0
 12 13  2  0  0  0  0
 13 18  1  0  0  0  0
 14 13  1  0  0  0  0
 14 15  1  0  0  0  0
 16 14  2  0  0  0  0
 19 16  1  0  0  0  0
 20 21  1  0  0  0  0
 20  2  1  0  0  0  0
 22 20  1  0  0  0  0
 23 24  1  0  0  0  0
 23 20  1  0  0  0  0
 25 23  1  0  0  0  0
 26 23  1  0  0  0  0
 27 28  1  0  0  0  0
 27 26  2  0  0  0  0
 29 27  1  0  0  0  0
 30 29  2  0  0  0  0
 30 32  1  0  0  0  0
 31 30  1  0  0  0  0
 32 34  2  0  0  0  0
 33 32  1  0  0  0  0
 34 26  1  0  0  0  0
M  END
>  <minimizedAffinity>
-5.18084955

>  <minimizedRMSD>
1.71814263

$$$$
