
 OpenBabel03242523123D

 46 50  0  0  1  0  0  0  0  0999 V2000
   45.2830   35.9890   43.4170 C   0  0  0  0  0  0  0  0  0  0  0  0
   46.1130   34.8910   43.1720 C   0  0  0  0  0  0  0  0  0  0  0  0
   46.2070   33.9110   44.1090 C   0  0  0  0  0  0  0  0  0  0  0  0
   45.4740   34.0720   45.2310 N   0  0  0  0  0  0  0  0  0  0  0  0
   44.6780   35.1070   45.4890 C   0  0  0  0  0  0  0  0  0  0  0  0
   44.5890   36.0560   44.5820 N   0  0  0  0  0  0  0  0  0  0  0  0
   45.2030   36.7750   42.6780 H   0  0  0  0  0  0  0  0  0  0  0  0
   44.0770   35.2740   46.3730 H   0  0  0  0  0  0  0  0  0  0  0  0
   46.7820   34.8590   41.9490 N   0  0  0  0  0  0  0  0  0  0  0  0
   48.0330   35.4390   41.7360 C   0  0  0  0  0  0  0  0  0  0  0  0
   48.6400   35.1350   40.3840 C   0  0  0  0  0  0  0  0  0  0  0  0
   48.4820   33.8310   39.9390 N   0  0  0  0  0  0  0  0  0  0  0  0
   47.2160   33.2740   40.0970 C   0  0  0  0  0  0  0  0  0  0  0  0
   46.2600   34.2320   40.7660 C   0  0  0  0  0  0  0  0  0  0  0  0
   48.8140   35.1890   42.5070 H   0  0  0  0  0  0  0  0  0  0  0  0
   47.9420   36.5470   41.7850 H   0  0  0  0  0  0  0  0  0  0  0  0
   48.1900   35.8470   39.6550 H   0  0  0  0  0  0  0  0  0  0  0  0
   49.7230   35.4070   40.4380 H   0  0  0  0  0  0  0  0  0  0  0  0
   49.0240   33.6580   39.0930 H   0  0  0  0  0  0  0  0  0  0  0  0
   46.7720   33.0730   39.0840 H   0  0  0  0  0  0  0  0  0  0  0  0
   47.1910   32.2940   40.6130 H   0  0  0  0  0  0  0  0  0  0  0  0
   45.8700   34.9880   40.0410 H   0  0  0  0  0  0  0  0  0  0  0  0
   45.3720   33.6280   41.0870 H   0  0  0  0  0  0  0  0  0  0  0  0
   46.4610   31.8340   45.2030 C   0  0  0  0  0  0  0  0  0  0  0  0
   46.9390   32.7180   44.2020 C   0  0  0  0  0  0  0  0  0  0  0  0
   48.0270   32.1910   43.5350 C   0  0  0  0  0  0  0  0  0  0  0  0
   48.6120   30.9850   43.7610 C   0  0  0  0  0  0  0  0  0  0  0  0
   48.1000   30.1740   44.7430 C   0  0  0  0  0  0  0  0  0  0  0  0
   47.0160   30.6110   45.4660 C   0  0  0  0  0  0  0  0  0  0  0  0
   48.8740   29.0360   44.7500 O   0  0  0  0  0  0  0  0  0  0  0  0
   49.8840   29.1540   43.7680 C   0  0  2  0  0  0  0  0  0  0  0  0
   49.6910   30.4130   43.1340 O   0  0  0  0  0  0  0  0  0  0  0  0
   45.6260   31.9470   45.8950 H   0  0  0  0  0  0  0  0  0  0  0  0
   48.3850   32.8410   42.7980 H   0  0  0  0  0  0  0  0  0  0  0  0
   46.6940   29.9070   46.2070 H   0  0  0  0  0  0  0  0  0  0  0  0
   50.8700   29.1090   44.2590 H   0  0  0  0  0  0  0  0  0  0  0  0
   49.6390   28.1730   42.8060 O   0  0  0  0  0  0  0  0  0  0  0  0
   50.3980   28.1320   41.6540 C   0  0  0  0  0  0  0  0  0  0  0  0
   50.1490   28.3160   40.3130 C   0  0  0  0  0  0  0  0  0  0  0  0
   49.1080   28.5440   40.1490 H   0  0  0  0  0  0  0  0  0  0  0  0
   51.1570   28.2020   39.3850 C   0  0  0  0  0  0  0  0  0  0  0  0
   52.4570   27.9010   39.7330 C   0  0  0  0  0  0  0  0  0  0  0  0
   53.1560   27.8390   38.9250 H   0  0  0  0  0  0  0  0  0  0  0  0
   52.7310   27.7140   41.0680 C   0  0  0  0  0  0  0  0  0  0  0  0
   53.7640   27.4820   41.2840 H   0  0  0  0  0  0  0  0  0  0  0  0
   51.7160   27.8260   42.0240 C   0  0  0  0  0  0  0  0  0  0  0  0
  1  6  1  0  0  0  0
  2  1  2  0  0  0  0
  2  3  1  0  0  0  0
  3 25  1  0  0  0  0
  3  4  2  0  0  0  0
  4  5  1  0  0  0  0
  5  8  1  0  0  0  0
  6  5  2  0  0  0  0
  7  1  1  0  0  0  0
  9  2  1  0  0  0  0
 10 16  1  0  0  0  0
 10  9  1  0  0  0  0
 10 15  1  0  0  0  0
 11 18  1  0  0  0  0
 11 10  1  0  0  0  0
 12 13  1  0  0  0  0
 12 11  1  0  0  0  0
 13 21  1  0  0  0  0
 13 14  1  0  0  0  0
 14 23  1  0  0  0  0
 14  9  1  0  0  0  0
 17 11  1  0  0  0  0
 19 12  1  0  0  0  0
 20 13  1  0  0  0  0
 22 14  1  0  0  0  0
 24 29  1  0  0  0  0
 24 33  1  0  0  0  0
 25 24  2  0  0  0  0
 26 27  2  0  0  0  0
 26 25  1  0  0  0  0
 27 28  1  0  0  0  0
 28 30  1  0  0  0  0
 28 29  2  0  0  0  0
 29 35  1  0  0  0  0
 31 36  1  1  0  0  0
 31 30  1  0  0  0  0
 32 27  1  0  0  0  0
 32 31  1  0  0  0  0
 34 26  1  0  0  0  0
 37 31  1  0  0  0  0
 38 46  1  0  0  0  0
 38 37  1  0  0  0  0
 39 38  2  0  0  0  0
 40 39  1  0  0  0  0
 41 42  2  0  0  0  0
 41 39  1  0  0  0  0
 42 44  1  0  0  0  0
 43 42  1  0  0  0  0
 44 45  1  0  0  0  0
 44 46  2  0  0  0  0
M  END
>  <minimizedAffinity>
-4.77833176

>  <minimizedRMSD>
1.47905743

$$$$
