
 OpenBabel03252508443D

 39 41  0  0  0  0  0  0  0  0999 V2000
   36.3020   30.7110   41.0820 C   0  0  0  0  0  0  0  0  0  0  0  0
   37.1380   31.4200   41.2690 H   0  0  0  0  0  0  0  0  0  0  0  0
   35.3830   31.2960   41.3320 H   0  0  0  0  0  0  0  0  0  0  0  0
   37.2450   31.1140   38.8000 C   0  0  0  0  0  0  0  0  0  0  0  0
   36.3690   30.3950   39.6220 C   0  0  0  0  0  0  0  0  0  0  0  0
   35.5890   29.4120   39.0570 C   0  0  0  0  0  0  0  0  0  0  0  0
   35.6730   29.1480   37.7230 C   0  0  0  0  0  0  0  0  0  0  0  0
   36.5160   29.8260   36.8860 C   0  0  0  0  0  0  0  0  0  0  0  0
   37.2920   30.8150   37.4900 C   0  0  0  0  0  0  0  0  0  0  0  0
   34.9070   28.8370   39.6410 H   0  0  0  0  0  0  0  0  0  0  0  0
   35.0540   28.3720   37.2890 H   0  0  0  0  0  0  0  0  0  0  0  0
   36.6240   29.6630   35.8370 H   0  0  0  0  0  0  0  0  0  0  0  0
   37.9900   31.4070   36.9080 H   0  0  0  0  0  0  0  0  0  0  0  0
   38.4910   34.3470   40.2910 C   0  0  0  0  0  0  0  0  0  0  0  0
   37.6330   33.4340   39.6560 C   0  0  0  0  0  0  0  0  0  0  0  0
   38.0490   32.1430   39.4460 C   0  0  0  0  0  0  0  0  0  0  0  0
   39.2970   31.7980   39.8720 N   0  0  0  0  0  0  0  0  0  0  0  0
   40.1170   32.6910   40.4850 C   0  0  0  0  0  0  0  0  0  0  0  0
   39.7230   33.9490   40.6940 N   0  0  0  0  0  0  0  0  0  0  0  0
   38.0190   35.3240   40.3830 H   0  0  0  0  0  0  0  0  0  0  0  0
   36.6420   33.6750   39.3100 H   0  0  0  0  0  0  0  0  0  0  0  0
   41.1040   32.4550   40.8310 H   0  0  0  0  0  0  0  0  0  0  0  0
   36.5130   29.5680   41.9310 N   0  0  0  0  0  0  0  0  0  0  0  0
   36.0500   29.6470   42.8560 H   0  0  0  0  0  0  0  0  0  0  0  0
   38.1740   29.3330   42.2890 S   0  0  0  0  0  0  0  0  0  0  0  0
   38.7920   30.5780   42.8430 O   0  0  0  0  0  0  0  0  0  0  0  0
   39.7260   30.8600   42.7200 H   0  0  0  0  0  0  0  0  0  0  0  0
   38.9350   28.8360   41.1080 O   0  0  0  0  0  0  0  0  0  0  0  0
   39.8060   29.2270   40.8140 H   0  0  0  0  0  0  0  0  0  0  0  0
   38.2260   28.1520   43.5120 O   0  0  0  0  0  0  0  0  0  0  0  0
   38.2190   26.8200   43.0520 C   0  0  0  0  0  0  0  0  0  0  0  0
   39.4370   26.2010   43.2380 C   0  0  0  0  0  0  0  0  0  0  0  0
   40.3060   26.6560   43.6790 H   0  0  0  0  0  0  0  0  0  0  0  0
   39.5920   24.8770   42.8350 C   0  0  0  0  0  3  0  0  0  0  0  0
   38.5320   24.2240   42.2640 C   0  0  0  0  0  0  0  0  0  0  0  0
   38.6800   23.2050   41.9630 H   0  0  0  0  0  0  0  0  0  0  0  0
   37.3270   24.8750   42.0930 C   0  0  0  0  0  0  0  0  0  0  0  0
   36.4750   24.3660   41.6390 H   0  0  0  0  0  0  0  0  0  0  0  0
   37.1250   26.2030   42.4820 C   0  0  0  0  0  3  0  0  0  0  0  0
  1  2  1  0  0  0  0
  1  3  1  0  0  0  0
  1 23  1  0  0  0  0
  4 16  1  0  0  0  0
  4  5  1  0  0  0  0
  5  1  1  0  0  0  0
  6  5  2  0  0  0  0
  6 10  1  0  0  0  0
  7  6  1  0  0  0  0
  8  9  1  0  0  0  0
  8  7  2  0  0  0  0
  9  4  2  0  0  0  0
 11  7  1  0  0  0  0
 12  8  1  0  0  0  0
 13  9  1  0  0  0  0
 14 20  1  0  0  0  0
 14 19  1  0  0  0  0
 15 14  2  0  0  0  0
 16 15  1  0  0  0  0
 16 17  2  0  0  0  0
 17 18  1  0  0  0  0
 18 19  2  0  0  0  0
 18 22  1  0  0  0  0
 21 15  1  0  0  0  0
 23 25  1  0  0  0  0
 23 24  1  0  0  0  0
 25 26  1  0  0  0  0
 25 30  1  0  0  0  0
 27 26  1  0  0  0  0
 28 25  1  0  0  0  0
 29 28  1  0  0  0  0
 31 32  1  0  0  0  0
 31 30  1  0  0  0  0
 32 33  1  0  0  0  0
 34 32  2  0  0  0  0
 35 34  1  0  0  0  0
 36 35  1  0  0  0  0
 37 35  2  0  0  0  0
 37 39  1  0  0  0  0
 38 37  1  0  0  0  0
 39 31  2  0  0  0  0
M  END
>  <minimizedAffinity>
-6.28653812

$$$$

 OpenBabel03252508443D

 39 41  0  0  0  0  0  0  0  0999 V2000
   37.8090   28.1780   42.9870 C   0  0  0  0  0  0  0  0  0  0  0  0
   37.2030   27.5240   42.3220 H   0  0  0  0  0  0  0  0  0  0  0  0
   37.7150   27.7080   43.9960 H   0  0  0  0  0  0  0  0  0  0  0  0
   39.5730   27.0010   41.6590 C   0  0  0  0  0  0  0  0  0  0  0  0
   39.2090   28.0840   42.4680 C   0  0  0  0  0  0  0  0  0  0  0  0
   40.1560   29.0370   42.7650 C   0  0  0  0  0  0  0  0  0  0  0  0
   41.4230   28.9220   42.2760 C   0  0  0  0  0  0  0  0  0  0  0  0
   41.8200   27.8820   41.4830 C   0  0  0  0  0  0  0  0  0  0  0  0
   40.8360   26.9340   41.2010 C   0  0  0  0  0  0  0  0  0  0  0  0
   39.9280   29.8790   43.3760 H   0  0  0  0  0  0  0  0  0  0  0  0
   42.1610   29.6780   42.5160 H   0  0  0  0  0  0  0  0  0  0  0  0
   42.7940   27.7400   41.0730 H   0  0  0  0  0  0  0  0  0  0  0  0
   41.0540   26.0720   40.5810 H   0  0  0  0  0  0  0  0  0  0  0  0
   37.2330   24.0450   41.7910 C   0  0  0  0  0  0  0  0  0  0  0  0
   38.2620   24.9290   42.1600 C   0  0  0  0  0  0  0  0  0  0  0  0
   38.5330   26.0210   41.3750 C   0  0  0  0  0  0  0  0  0  0  0  0
   37.7800   26.2030   40.2530 N   0  0  0  0  0  0  0  0  0  0  0  0
   36.7890   25.3410   39.9080 C   0  0  0  0  0  0  0  0  0  0  0  0
   36.5160   24.2760   40.6640 N   0  0  0  0  0  0  0  0  0  0  0  0
   37.1420   23.2330   42.5110 H   0  0  0  0  0  0  0  0  0  0  0  0
   38.8730   24.8120   43.0380 H   0  0  0  0  0  0  0  0  0  0  0  0
   36.1780   25.4530   39.0340 H   0  0  0  0  0  0  0  0  0  0  0  0
   37.2510   29.5030   42.9080 N   0  0  0  0  0  0  0  0  0  0  0  0
   36.5060   29.6810   43.6070 H   0  0  0  0  0  0  0  0  0  0  0  0
   36.5100   29.7960   41.3900 S   0  0  0  0  0  0  0  0  0  0  0  0
   35.5330   30.9270   41.4710 O   0  0  0  0  0  0  0  0  0  0  0  0
   34.7090   31.0140   40.9420 H   0  0  0  0  0  0  0  0  0  0  0  0
   35.8670   28.5710   40.8360 O   0  0  0  0  0  0  0  0  0  0  0  0
   34.9400   28.5600   40.4630 H   0  0  0  0  0  0  0  0  0  0  0  0
   37.7610   30.2790   40.3440 O   0  0  0  0  0  0  0  0  0  0  0  0
   37.9090   31.6730   40.1970 C   0  0  0  0  0  0  0  0  0  0  0  0
   38.9290   32.1710   40.9800 C   0  0  0  0  0  0  0  0  0  0  0  0
   39.5530   31.5890   41.6340 H   0  0  0  0  0  0  0  0  0  0  0  0
   39.2030   33.5360   40.9480 C   0  0  0  0  0  3  0  0  0  0  0  0
   38.4520   34.3480   40.1400 C   0  0  0  0  0  0  0  0  0  0  0  0
   38.6860   35.3960   40.1350 H   0  0  0  0  0  0  0  0  0  0  0  0
   37.4390   33.8160   39.3690 C   0  0  0  0  0  0  0  0  0  0  0  0
   36.8350   34.4520   38.7210 H   0  0  0  0  0  0  0  0  0  0  0  0
   37.1280   32.4520   39.3690 C   0  0  0  0  0  3  0  0  0  0  0  0
  1  3  1  0  0  0  0
  2  1  1  0  0  0  0
  4  5  1  0  0  0  0
  5  6  2  0  0  0  0
  5  1  1  0  0  0  0
  6 10  1  0  0  0  0
  7 11  1  0  0  0  0
  7  6  1  0  0  0  0
  8  7  2  0  0  0  0
  9  8  1  0  0  0  0
  9  4  2  0  0  0  0
 12  8  1  0  0  0  0
 13  9  1  0  0  0  0
 14 15  1  0  0  0  0
 14 20  1  0  0  0  0
 15 21  1  0  0  0  0
 16  4  1  0  0  0  0
 16 15  2  0  0  0  0
 17 16  1  0  0  0  0
 18 17  2  0  0  0  0
 18 19  1  0  0  0  0
 19 14  2  0  0  0  0
 22 18  1  0  0  0  0
 23  1  1  0  0  0  0
 23 24  1  0  0  0  0
 25 26  1  0  0  0  0
 25 23  1  0  0  0  0
 27 26  1  0  0  0  0
 28 25  1  0  0  0  0
 29 28  1  0  0  0  0
 30 25  1  0  0  0  0
 31 30  1  0  0  0  0
 31 32  1  0  0  0  0
 32 33  1  0  0  0  0
 34 32  2  0  0  0  0
 35 34  1  0  0  0  0
 36 35  1  0  0  0  0
 37 35  2  0  0  0  0
 38 37  1  0  0  0  0
 39 37  1  0  0  0  0
 39 31  2  0  0  0  0
M  END
>  <minimizedAffinity>
-5.89611101

$$$$

 OpenBabel03252508443D

 39 41  0  0  0  0  0  0  0  0999 V2000
   35.8560   29.4710   40.4820 C   0  0  0  0  0  0  0  0  0  0  0  0
   34.7610   29.6020   40.3440 H   0  0  0  0  0  0  0  0  0  0  0  0
   36.0190   28.3720   40.3610 H   0  0  0  0  0  0  0  0  0  0  0  0
   36.6310   29.6530   38.1100 C   0  0  0  0  0  0  0  0  0  0  0  0
   36.4920   30.2440   39.3710 C   0  0  0  0  0  0  0  0  0  0  0  0
   36.9500   31.5290   39.5530 C   0  0  0  0  0  0  0  0  0  0  0  0
   37.5250   32.2070   38.5200 C   0  0  0  0  0  0  0  0  0  0  0  0
   37.6780   31.6670   37.2740 C   0  0  0  0  0  0  0  0  0  0  0  0
   37.2040   30.3640   37.1230 C   0  0  0  0  0  0  0  0  0  0  0  0
   36.8670   32.0230   40.4940 H   0  0  0  0  0  0  0  0  0  0  0  0
   37.8810   33.2190   38.6750 H   0  0  0  0  0  0  0  0  0  0  0  0
   38.1190   32.1480   36.4300 H   0  0  0  0  0  0  0  0  0  0  0  0
   37.2810   29.8500   36.1720 H   0  0  0  0  0  0  0  0  0  0  0  0
   36.2550   25.8990   38.1380 C   0  0  0  0  0  0  0  0  0  0  0  0
   36.8360   27.1670   38.3150 C   0  0  0  0  0  0  0  0  0  0  0  0
   36.1300   28.2910   37.9700 C   0  0  0  0  0  0  0  0  0  0  0  0
   34.8750   28.1260   37.4630 N   0  0  0  0  0  0  0  0  0  0  0  0
   34.3260   26.8950   37.2970 C   0  0  0  0  0  0  0  0  0  0  0  0
   35.0030   25.7940   37.6290 N   0  0  0  0  0  0  0  0  0  0  0  0
   36.9370   25.1120   38.4560 H   0  0  0  0  0  0  0  0  0  0  0  0
   37.8230   27.3290   38.7130 H   0  0  0  0  0  0  0  0  0  0  0  0
   33.3430   26.7290   36.9010 H   0  0  0  0  0  0  0  0  0  0  0  0
   36.1840   29.9670   41.7930 N   0  0  0  0  0  0  0  0  0  0  0  0
   36.7660   30.8250   41.7790 H   0  0  0  0  0  0  0  0  0  0  0  0
   37.0950   28.8310   42.6990 S   0  0  0  0  0  0  0  0  0  0  0  0
   36.2050   27.8610   43.4090 O   0  0  0  0  0  0  0  0  0  0  0  0
   36.3940   27.4350   44.2750 H   0  0  0  0  0  0  0  0  0  0  0  0
   38.0310   29.4970   43.6500 O   0  0  0  0  0  0  0  0  0  0  0  0
   38.1170   29.2310   44.6090 H   0  0  0  0  0  0  0  0  0  0  0  0
   38.0050   27.9500   41.5640 O   0  0  0  0  0  0  0  0  0  0  0  0
   38.4060   26.6680   41.9900 C   0  0  0  0  0  0  0  0  0  0  0  0
   39.5130   26.7170   42.8090 C   0  0  0  0  0  0  0  0  0  0  0  0
   40.0300   27.6130   43.1050 H   0  0  0  0  0  0  0  0  0  0  0  0
   40.0350   25.5290   43.3150 C   0  0  0  0  0  3  0  0  0  0  0  0
   39.4340   24.3430   42.9860 C   0  0  0  0  0  0  0  0  0  0  0  0
   39.8570   23.4430   43.3910 H   0  0  0  0  0  0  0  0  0  0  0  0
   38.3260   24.3310   42.1630 C   0  0  0  0  0  0  0  0  0  0  0  0
   37.8390   23.3920   41.8940 H   0  0  0  0  0  0  0  0  0  0  0  0
   37.7690   25.4980   41.6320 C   0  0  0  0  0  3  0  0  0  0  0  0
  1 23  1  0  0  0  0
  2  1  1  0  0  0  0
  3  1  1  0  0  0  0
  4  5  1  0  0  0  0
  5  6  2  0  0  0  0
  5  1  1  0  0  0  0
  6 10  1  0  0  0  0
  7 11  1  0  0  0  0
  7  6  1  0  0  0  0
  8  7  2  0  0  0  0
  9  8  1  0  0  0  0
  9  4  2  0  0  0  0
 12  8  1  0  0  0  0
 13  9  1  0  0  0  0
 14 15  1  0  0  0  0
 14 20  1  0  0  0  0
 15 21  1  0  0  0  0
 16  4  1  0  0  0  0
 16 15  2  0  0  0  0
 17 16  1  0  0  0  0
 18 17  2  0  0  0  0
 18 19  1  0  0  0  0
 19 14  2  0  0  0  0
 22 18  1  0  0  0  0
 23 25  1  0  0  0  0
 24 23  1  0  0  0  0
 25 26  1  0  0  0  0
 25 28  1  0  0  0  0
 26 27  1  0  0  0  0
 28 29  1  0  0  0  0
 30 31  1  0  0  0  0
 30 25  1  0  0  0  0
 31 32  1  0  0  0  0
 32 33  1  0  0  0  0
 32 34  2  0  0  0  0
 35 34  1  0  0  0  0
 35 36  1  0  0  0  0
 37 35  2  0  0  0  0
 38 37  1  0  0  0  0
 39 31  2  0  0  0  0
 39 37  1  0  0  0  0
M  END
>  <minimizedAffinity>
-5.87236309

$$$$

 OpenBabel03252508443D

 39 41  0  0  0  0  0  0  0  0999 V2000
   35.5580   29.6580   40.5880 C   0  0  0  0  0  0  0  0  0  0  0  0
   35.8090   29.8150   39.5170 H   0  0  0  0  0  0  0  0  0  0  0  0
   34.4410   29.6420   40.6100 H   0  0  0  0  0  0  0  0  0  0  0  0
   36.4150   27.4040   39.9200 C   0  0  0  0  0  0  0  0  0  0  0  0
   36.1310   28.3210   40.9380 C   0  0  0  0  0  0  0  0  0  0  0  0
   36.3880   27.9620   42.2420 C   0  0  0  0  0  0  0  0  0  0  0  0
   36.9100   26.7360   42.5280 C   0  0  0  0  0  0  0  0  0  0  0  0
   37.2030   25.8130   41.5630 C   0  0  0  0  0  0  0  0  0  0  0  0
   36.9310   26.2080   40.2530 C   0  0  0  0  0  0  0  0  0  0  0  0
   36.1890   28.6240   43.0520 H   0  0  0  0  0  0  0  0  0  0  0  0
   37.1080   26.4640   43.5570 H   0  0  0  0  0  0  0  0  0  0  0  0
   37.6110   24.8410   41.7260 H   0  0  0  0  0  0  0  0  0  0  0  0
   37.1290   25.5440   39.4190 H   0  0  0  0  0  0  0  0  0  0  0  0
   34.7130   28.2390   36.6580 C   0  0  0  0  0  0  0  0  0  0  0  0
   34.8800   27.8000   37.9830 C   0  0  0  0  0  0  0  0  0  0  0  0
   36.1260   27.8330   38.5570 C   0  0  0  0  0  0  0  0  0  0  0  0
   37.1630   28.2990   37.8050 N   0  0  0  0  0  0  0  0  0  0  0  0
   36.9870   28.7200   36.5250 C   0  0  0  0  0  0  0  0  0  0  0  0
   35.7810   28.6930   35.9560 N   0  0  0  0  0  0  0  0  0  0  0  0
   33.6720   28.1500   36.3480 H   0  0  0  0  0  0  0  0  0  0  0  0
   34.0810   27.4280   38.6010 H   0  0  0  0  0  0  0  0  0  0  0  0
   37.7800   29.0910   35.9060 H   0  0  0  0  0  0  0  0  0  0  0  0
   36.1400   30.7470   41.3280 N   0  0  0  0  0  0  0  0  0  0  0  0
   35.4410   31.4240   41.6870 H   0  0  0  0  0  0  0  0  0  0  0  0
   37.2040   31.6820   40.3620 S   0  0  0  0  0  0  0  0  0  0  0  0
   36.7890   33.1190   40.3310 O   0  0  0  0  0  0  0  0  0  0  0  0
   36.9150   33.7370   39.5770 H   0  0  0  0  0  0  0  0  0  0  0  0
   37.3360   31.1310   38.9830 O   0  0  0  0  0  0  0  0  0  0  0  0
   37.2690   31.6940   38.1610 H   0  0  0  0  0  0  0  0  0  0  0  0
   38.7200   31.6070   41.1300 O   0  0  0  0  0  0  0  0  0  0  0  0
   39.2620   30.3120   41.2490 C   0  0  0  0  0  0  0  0  0  0  0  0
   39.4520   29.9490   42.5660 C   0  0  0  0  0  0  0  0  0  0  0  0
   39.2220   30.5610   43.4200 H   0  0  0  0  0  0  0  0  0  0  0  0
   39.9820   28.6940   42.8530 C   0  0  0  0  0  3  0  0  0  0  0  0
   40.3020   27.8520   41.8200 C   0  0  0  0  0  0  0  0  0  0  0  0
   40.7090   26.8910   42.0710 H   0  0  0  0  0  0  0  0  0  0  0  0
   40.0980   28.2480   40.5140 C   0  0  0  0  0  0  0  0  0  0  0  0
   40.3490   27.5870   39.6830 H   0  0  0  0  0  0  0  0  0  0  0  0
   39.5690   29.4980   40.1780 C   0  0  0  0  0  3  0  0  0  0  0  0
  1  3  1  0  0  0  0
  1  5  1  0  0  0  0
  1 23  1  0  0  0  0
  2  1  1  0  0  0  0
  4  9  2  0  0  0  0
  4  5  1  0  0  0  0
  5  6  2  0  0  0  0
  6  7  1  0  0  0  0
  6 10  1  0  0  0  0
  7 11  1  0  0  0  0
  8 12  1  0  0  0  0
  8  7  2  0  0  0  0
  9  8  1  0  0  0  0
 13  9  1  0  0  0  0
 14 15  1  0  0  0  0
 15 16  2  0  0  0  0
 15 21  1  0  0  0  0
 16  4  1  0  0  0  0
 17 16  1  0  0  0  0
 18 17  2  0  0  0  0
 19 18  1  0  0  0  0
 19 14  2  0  0  0  0
 20 14  1  0  0  0  0
 22 18  1  0  0  0  0
 23 24  1  0  0  0  0
 25 30  1  0  0  0  0
 25 23  1  0  0  0  0
 26 25  1  0  0  0  0
 27 26  1  0  0  0  0
 28 25  1  0  0  0  0
 29 28  1  0  0  0  0
 30 31  1  0  0  0  0
 31 32  1  0  0  0  0
 32 34  2  0  0  0  0
 32 33  1  0  0  0  0
 35 36  1  0  0  0  0
 35 34  1  0  0  0  0
 37 35  2  0  0  0  0
 38 37  1  0  0  0  0
 39 37  1  0  0  0  0
 39 31  2  0  0  0  0
M  END
>  <minimizedAffinity>
-5.58506107

$$$$

 OpenBabel03252508443D

 39 41  0  0  0  0  0  0  0  0999 V2000
   37.6760   30.8980   40.7980 C   0  0  0  0  0  0  0  0  0  0  0  0
   37.8590   30.5270   39.7660 H   0  0  0  0  0  0  0  0  0  0  0  0
   36.7020   31.4400   40.7280 H   0  0  0  0  0  0  0  0  0  0  0  0
   36.8520   28.5650   41.1670 C   0  0  0  0  0  0  0  0  0  0  0  0
   37.5610   29.6720   41.6470 C   0  0  0  0  0  0  0  0  0  0  0  0
   38.1360   29.5990   42.8950 C   0  0  0  0  0  0  0  0  0  0  0  0
   38.0130   28.4670   43.6440 C   0  0  0  0  0  0  0  0  0  0  0  0
   37.3290   27.3640   43.2130 C   0  0  0  0  0  0  0  0  0  0  0  0
   36.7590   27.4710   41.9440 C   0  0  0  0  0  0  0  0  0  0  0  0
   38.6860   30.4140   43.3050 H   0  0  0  0  0  0  0  0  0  0  0  0
   38.4700   28.4200   44.6250 H   0  0  0  0  0  0  0  0  0  0  0  0
   37.2000   26.4540   43.7530 H   0  0  0  0  0  0  0  0  0  0  0  0
   36.1970   26.6490   41.5150 H   0  0  0  0  0  0  0  0  0  0  0  0
   34.4750   29.0630   38.2800 C   0  0  0  0  0  0  0  0  0  0  0  0
   34.9380   28.9590   39.6030 C   0  0  0  0  0  0  0  0  0  0  0  0
   36.2630   28.6940   39.8400 C   0  0  0  0  0  0  0  0  0  0  0  0
   37.0860   28.5410   38.7640 N   0  0  0  0  0  0  0  0  0  0  0  0
   36.6250   28.6430   37.4900 C   0  0  0  0  0  0  0  0  0  0  0  0
   35.3390   28.9010   37.2470 N   0  0  0  0  0  0  0  0  0  0  0  0
   33.4070   29.2740   38.2570 H   0  0  0  0  0  0  0  0  0  0  0  0
   34.3130   29.0750   40.4720 H   0  0  0  0  0  0  0  0  0  0  0  0
   37.2430   28.5280   36.6220 H   0  0  0  0  0  0  0  0  0  0  0  0
   38.7870   31.7430   41.1520 N   0  0  0  0  0  0  0  0  0  0  0  0
   38.9370   31.8260   42.1750 H   0  0  0  0  0  0  0  0  0  0  0  0
   38.5650   33.3550   40.6080 S   0  0  0  0  0  0  0  0  0  0  0  0
   38.8030   34.3380   41.7100 O   0  0  0  0  0  0  0  0  0  0  0  0
   38.3510   35.2050   41.8150 H   0  0  0  0  0  0  0  0  0  0  0  0
   37.2240   33.5560   39.9890 O   0  0  0  0  0  0  0  0  0  0  0  0
   36.6270   34.3240   40.2140 H   0  0  0  0  0  0  0  0  0  0  0  0
   39.7590   33.6180   39.4250 O   0  0  0  0  0  0  0  0  0  0  0  0
   40.3610   32.4490   38.9180 C   0  0  0  0  0  0  0  0  0  0  0  0
   41.5940   32.2130   39.4880 C   0  0  0  0  0  0  0  0  0  0  0  0
   42.0650   32.8300   40.2320 H   0  0  0  0  0  0  0  0  0  0  0  0
   42.3200   31.0930   39.0910 C   0  0  0  0  0  3  0  0  0  0  0  0
   41.7900   30.2540   38.1460 C   0  0  0  0  0  0  0  0  0  0  0  0
   42.3710   29.3980   37.8600 H   0  0  0  0  0  0  0  0  0  0  0  0
   40.5520   30.5210   37.5970 C   0  0  0  0  0  0  0  0  0  0  0  0
   40.1190   29.8610   36.8440 H   0  0  0  0  0  0  0  0  0  0  0  0
   39.7880   31.6340   37.9640 C   0  0  0  0  0  3  0  0  0  0  0  0
  1 23  1  0  0  0  0
  1  5  1  0  0  0  0
  2  1  1  0  0  0  0
  3  1  1  0  0  0  0
  4  5  2  0  0  0  0
  4  9  1  0  0  0  0
  5  6  1  0  0  0  0
  6 10  1  0  0  0  0
  6  7  2  0  0  0  0
  7 11  1  0  0  0  0
  8  7  1  0  0  0  0
  8 12  1  0  0  0  0
  9  8  2  0  0  0  0
 13  9  1  0  0  0  0
 14 15  1  0  0  0  0
 15 16  2  0  0  0  0
 15 21  1  0  0  0  0
 16  4  1  0  0  0  0
 17 16  1  0  0  0  0
 18 17  2  0  0  0  0
 19 18  1  0  0  0  0
 19 14  2  0  0  0  0
 20 14  1  0  0  0  0
 22 18  1  0  0  0  0
 23 24  1  0  0  0  0
 25 23  1  0  0  0  0
 25 26  1  0  0  0  0
 26 27  1  0  0  0  0
 28 29  1  0  0  0  0
 28 25  1  0  0  0  0
 30 25  1  0  0  0  0
 31 30  1  0  0  0  0
 31 32  1  0  0  0  0
 32 33  1  0  0  0  0
 34 32  2  0  0  0  0
 35 34  1  0  0  0  0
 36 35  1  0  0  0  0
 37 39  1  0  0  0  0
 37 35  2  0  0  0  0
 38 37  1  0  0  0  0
 39 31  2  0  0  0  0
M  END
>  <minimizedAffinity>
-5.55684519

$$$$

 OpenBabel03252508443D

 39 41  0  0  0  0  0  0  0  0999 V2000
   39.7720   29.9280   41.1900 C   0  0  0  0  0  0  0  0  0  0  0  0
   40.2860   30.3420   40.2960 H   0  0  0  0  0  0  0  0  0  0  0  0
   39.1210   29.1160   40.7830 H   0  0  0  0  0  0  0  0  0  0  0  0
   40.5980   28.2750   42.8770 C   0  0  0  0  0  0  0  0  0  0  0  0
   40.8610   29.3760   42.0540 C   0  0  0  0  0  0  0  0  0  0  0  0
   42.1240   29.9220   42.0640 C   0  0  0  0  0  0  0  0  0  0  0  0
   43.0950   29.3950   42.8620 C   0  0  0  0  0  0  0  0  0  0  0  0
   42.8800   28.3210   43.6800 C   0  0  0  0  0  0  0  0  0  0  0  0
   41.5890   27.7910   43.6450 C   0  0  0  0  0  0  0  0  0  0  0  0
   42.3740   30.7610   41.4560 H   0  0  0  0  0  0  0  0  0  0  0  0
   44.0860   29.8340   42.8620 H   0  0  0  0  0  0  0  0  0  0  0  0
   43.5980   27.8670   44.3240 H   0  0  0  0  0  0  0  0  0  0  0  0
   41.3210   26.9380   44.2590 H   0  0  0  0  0  0  0  0  0  0  0  0
   37.5330   26.2170   42.0940 C   0  0  0  0  0  0  0  0  0  0  0  0
   38.8680   26.6580   42.0650 C   0  0  0  0  0  0  0  0  0  0  0  0
   39.2450   27.7330   42.8280 C   0  0  0  0  0  0  0  0  0  0  0  0
   38.2930   28.3370   43.5960 N   0  0  0  0  0  0  0  0  0  0  0  0
   37.0070   27.9010   43.6150 C   0  0  0  0  0  0  0  0  0  0  0  0
   36.6280   26.8560   42.8770 N   0  0  0  0  0  0  0  0  0  0  0  0
   37.3930   25.3600   41.4380 H   0  0  0  0  0  0  0  0  0  0  0  0
   39.6410   26.2020   41.4710 H   0  0  0  0  0  0  0  0  0  0  0  0
   36.2330   28.3520   44.2050 H   0  0  0  0  0  0  0  0  0  0  0  0
   39.0410   31.0070   41.8010 N   0  0  0  0  0  0  0  0  0  0  0  0
   38.0550   30.7700   42.0190 H   0  0  0  0  0  0  0  0  0  0  0  0
   38.9470   32.3790   40.7760 S   0  0  0  0  0  0  0  0  0  0  0  0
   39.7470   32.1810   39.5280 O   0  0  0  0  0  0  0  0  0  0  0  0
   40.2120   32.8870   39.0250 H   0  0  0  0  0  0  0  0  0  0  0  0
   39.3510   33.6300   41.4800 O   0  0  0  0  0  0  0  0  0  0  0  0
   39.9880   34.2940   41.0920 H   0  0  0  0  0  0  0  0  0  0  0  0
   37.3140   32.5110   40.3190 O   0  0  0  0  0  0  0  0  0  0  0  0
   36.6780   31.2870   40.0280 C   0  0  0  0  0  0  0  0  0  0  0  0
   36.7850   30.9520   38.6950 C   0  0  0  0  0  0  0  0  0  0  0  0
   37.2870   31.5350   37.9440 H   0  0  0  0  0  0  0  0  0  0  0  0
   36.2060   29.7680   38.2460 C   0  0  0  0  0  3  0  0  0  0  0  0
   35.5460   28.9660   39.1410 C   0  0  0  0  0  0  0  0  0  0  0  0
   35.1110   28.0590   38.7670 H   0  0  0  0  0  0  0  0  0  0  0  0
   35.4600   29.3330   40.4690 C   0  0  0  0  0  0  0  0  0  0  0  0
   34.9370   28.7030   41.1900 H   0  0  0  0  0  0  0  0  0  0  0  0
   36.0240   30.5130   40.9630 C   0  0  0  0  0  3  0  0  0  0  0  0
  1 23  1  0  0  0  0
  1  5  1  0  0  0  0
  2  1  1  0  0  0  0
  3  1  1  0  0  0  0
  4  9  1  0  0  0  0
  5  6  1  0  0  0  0
  5  4  2  0  0  0  0
  6  7  2  0  0  0  0
  7  8  1  0  0  0  0
  8 12  1  0  0  0  0
  9  8  2  0  0  0  0
  9 13  1  0  0  0  0
 10  6  1  0  0  0  0
 11  7  1  0  0  0  0
 14 19  1  0  0  0  0
 15 14  2  0  0  0  0
 15 16  1  0  0  0  0
 16  4  1  0  0  0  0
 16 17  2  0  0  0  0
 17 18  1  0  0  0  0
 18 22  1  0  0  0  0
 19 18  2  0  0  0  0
 20 14  1  0  0  0  0
 21 15  1  0  0  0  0
 23 24  1  0  0  0  0
 25 28  1  0  0  0  0
 25 23  1  0  0  0  0
 26 25  1  0  0  0  0
 27 26  1  0  0  0  0
 29 28  1  0  0  0  0
 30 25  1  0  0  0  0
 31 30  1  0  0  0  0
 31 39  1  0  0  0  0
 32 31  2  0  0  0  0
 33 32  1  0  0  0  0
 34 32  1  0  0  0  0
 34 35  2  0  0  0  0
 35 37  1  0  0  0  0
 36 35  1  0  0  0  0
 37 39  2  0  0  0  0
 37 38  1  0  0  0  0
M  END
>  <minimizedAffinity>
-5.46175385

$$$$

 OpenBabel03252508443D

 39 41  0  0  0  0  0  0  0  0999 V2000
   35.8600   28.8290   39.8360 C   0  0  0  0  0  0  0  0  0  0  0  0
   35.4740   28.3480   38.9110 H   0  0  0  0  0  0  0  0  0  0  0  0
   34.9590   29.3010   40.2980 H   0  0  0  0  0  0  0  0  0  0  0  0
   36.7690   26.5100   40.0670 C   0  0  0  0  0  0  0  0  0  0  0  0
   36.3830   27.7080   40.6770 C   0  0  0  0  0  0  0  0  0  0  0  0
   36.4950   27.8210   42.0440 C   0  0  0  0  0  0  0  0  0  0  0  0
   36.9750   26.7810   42.7830 C   0  0  0  0  0  0  0  0  0  0  0  0
   37.3640   25.5940   42.2270 C   0  0  0  0  0  0  0  0  0  0  0  0
   37.2380   25.5130   40.8400 C   0  0  0  0  0  0  0  0  0  0  0  0
   36.2140   28.7130   42.5560 H   0  0  0  0  0  0  0  0  0  0  0  0
   37.0600   26.8810   43.8590 H   0  0  0  0  0  0  0  0  0  0  0  0
   37.7460   24.7490   42.7520 H   0  0  0  0  0  0  0  0  0  0  0  0
   37.5200   24.6120   40.3070 H   0  0  0  0  0  0  0  0  0  0  0  0
   35.5270   25.8740   36.5620 C   0  0  0  0  0  0  0  0  0  0  0  0
   35.5590   25.8860   37.9670 C   0  0  0  0  0  0  0  0  0  0  0  0
   36.6310   26.4410   38.6180 C   0  0  0  0  0  0  0  0  0  0  0  0
   37.6350   26.9670   37.8600 N   0  0  0  0  0  0  0  0  0  0  0  0
   37.5930   26.9480   36.5020 C   0  0  0  0  0  0  0  0  0  0  0  0
   36.5550   26.4110   35.8580 N   0  0  0  0  0  0  0  0  0  0  0  0
   34.6160   25.4010   36.1980 H   0  0  0  0  0  0  0  0  0  0  0  0
   34.7820   25.4800   38.5920 H   0  0  0  0  0  0  0  0  0  0  0  0
   38.3640   27.3510   35.8760 H   0  0  0  0  0  0  0  0  0  0  0  0
   36.8710   29.7720   39.4370 N   0  0  0  0  0  0  0  0  0  0  0  0
   37.8390   29.4300   39.5850 H   0  0  0  0  0  0  0  0  0  0  0  0
   36.7780   31.2300   40.3350 S   0  0  0  0  0  0  0  0  0  0  0  0
   35.7130   31.1560   41.3830 O   0  0  0  0  0  0  0  0  0  0  0  0
   35.1710   31.9100   41.7060 H   0  0  0  0  0  0  0  0  0  0  0  0
   36.5830   32.4170   39.4550 O   0  0  0  0  0  0  0  0  0  0  0  0
   35.8970   33.1220   39.6300 H   0  0  0  0  0  0  0  0  0  0  0  0
   38.2700   31.3820   41.1370 O   0  0  0  0  0  0  0  0  0  0  0  0
   39.1770   32.2810   40.5400 C   0  0  0  0  0  0  0  0  0  0  0  0
   40.0120   31.6530   39.6410 C   0  0  0  0  0  0  0  0  0  0  0  0
   39.9970   30.6050   39.4030 H   0  0  0  0  0  0  0  0  0  0  0  0
   40.9690   32.4070   38.9650 C   0  0  0  0  0  3  0  0  0  0  0  0
   41.0540   33.7520   39.2110 C   0  0  0  0  0  0  0  0  0  0  0  0
   41.8000   34.3080   38.6750 H   0  0  0  0  0  0  0  0  0  0  0  0
   40.2010   34.3480   40.1180 C   0  0  0  0  0  0  0  0  0  0  0  0
   40.2590   35.4180   40.3220 H   0  0  0  0  0  0  0  0  0  0  0  0
   39.2270   33.6310   40.8190 C   0  0  0  0  0  3  0  0  0  0  0  0
  1  3  1  0  0  0  0
  1  5  1  0  0  0  0
  2  1  1  0  0  0  0
  4  5  2  0  0  0  0
  4  9  1  0  0  0  0
  5  6  1  0  0  0  0
  6 10  1  0  0  0  0
  6  7  2  0  0  0  0
  7 11  1  0  0  0  0
  8 12  1  0  0  0  0
  8  7  1  0  0  0  0
  9  8  2  0  0  0  0
 13  9  1  0  0  0  0
 14 15  1  0  0  0  0
 15 21  1  0  0  0  0
 15 16  2  0  0  0  0
 16  4  1  0  0  0  0
 17 16  1  0  0  0  0
 18 17  2  0  0  0  0
 19 18  1  0  0  0  0
 19 14  2  0  0  0  0
 20 14  1  0  0  0  0
 22 18  1  0  0  0  0
 23 24  1  0  0  0  0
 23  1  1  0  0  0  0
 23 25  1  0  0  0  0
 25 30  1  0  0  0  0
 25 26  1  0  0  0  0
 26 27  1  0  0  0  0
 28 29  1  0  0  0  0
 28 25  1  0  0  0  0
 31 39  1  0  0  0  0
 31 30  1  0  0  0  0
 32 31  2  0  0  0  0
 33 32  1  0  0  0  0
 34 35  2  0  0  0  0
 34 32  1  0  0  0  0
 35 37  1  0  0  0  0
 36 35  1  0  0  0  0
 37 38  1  0  0  0  0
 37 39  2  0  0  0  0
M  END
>  <minimizedAffinity>
-5.44114733

$$$$

 OpenBabel03252508443D

 39 41  0  0  0  0  0  0  0  0999 V2000
   35.9050   30.3680   40.4430 C   0  0  0  0  0  0  0  0  0  0  0  0
   36.8180   30.9370   40.7230 H   0  0  0  0  0  0  0  0  0  0  0  0
   35.0670   31.0820   40.6330 H   0  0  0  0  0  0  0  0  0  0  0  0
   36.9840   30.7890   38.2260 C   0  0  0  0  0  0  0  0  0  0  0  0
   36.0510   30.0720   38.9840 C   0  0  0  0  0  0  0  0  0  0  0  0
   35.2900   29.1100   38.3610 C   0  0  0  0  0  0  0  0  0  0  0  0
   35.4480   28.8640   37.0290 C   0  0  0  0  0  0  0  0  0  0  0  0
   36.3480   29.5410   36.2530 C   0  0  0  0  0  0  0  0  0  0  0  0
   37.1030   30.5080   36.9160 C   0  0  0  0  0  0  0  0  0  0  0  0
   34.5670   28.5380   38.8950 H   0  0  0  0  0  0  0  0  0  0  0  0
   34.8440   28.1050   36.5490 H   0  0  0  0  0  0  0  0  0  0  0  0
   36.5150   29.3920   35.2100 H   0  0  0  0  0  0  0  0  0  0  0  0
   37.8420   31.0980   36.3850 H   0  0  0  0  0  0  0  0  0  0  0  0
   38.1310   33.9270   39.9780 C   0  0  0  0  0  0  0  0  0  0  0  0
   37.2900   33.0310   39.2950 C   0  0  0  0  0  0  0  0  0  0  0  0
   37.7650   31.7960   38.9330 C   0  0  0  0  0  0  0  0  0  0  0  0
   39.0530   31.4870   39.2580 N   0  0  0  0  0  0  0  0  0  0  0  0
   39.8550   32.3630   39.9170 C   0  0  0  0  0  0  0  0  0  0  0  0
   39.4040   33.5670   40.2740 N   0  0  0  0  0  0  0  0  0  0  0  0
   37.6110   34.8600   40.1930 H   0  0  0  0  0  0  0  0  0  0  0  0
   36.2700   33.2450   39.0270 H   0  0  0  0  0  0  0  0  0  0  0  0
   40.8710   32.1540   40.1870 H   0  0  0  0  0  0  0  0  0  0  0  0
   35.8650   29.1900   41.2700 N   0  0  0  0  0  0  0  0  0  0  0  0
   35.0860   29.1910   41.9560 H   0  0  0  0  0  0  0  0  0  0  0  0
   37.2850   29.0230   42.2170 S   0  0  0  0  0  0  0  0  0  0  0  0
   36.9660   29.0150   43.6780 O   0  0  0  0  0  0  0  0  0  0  0  0
   37.5440   29.3620   44.3940 H   0  0  0  0  0  0  0  0  0  0  0  0
   38.2980   30.0670   41.8930 O   0  0  0  0  0  0  0  0  0  0  0  0
   38.7760   30.6000   42.5900 H   0  0  0  0  0  0  0  0  0  0  0  0
   37.9280   27.4970   41.8280 O   0  0  0  0  0  0  0  0  0  0  0  0
   38.0300   27.2280   40.4490 C   0  0  0  0  0  0  0  0  0  0  0  0
   37.1320   26.2640   40.0410 C   0  0  0  0  0  0  0  0  0  0  0  0
   36.4270   25.7600   40.6780 H   0  0  0  0  0  0  0  0  0  0  0  0
   37.1080   25.8850   38.7020 C   0  0  0  0  0  3  0  0  0  0  0  0
   37.9750   26.4800   37.8230 C   0  0  0  0  0  0  0  0  0  0  0  0
   37.9330   26.1690   36.7970 H   0  0  0  0  0  0  0  0  0  0  0  0
   38.8590   27.4420   38.2660 C   0  0  0  0  0  0  0  0  0  0  0  0
   39.5550   27.9230   37.5770 H   0  0  0  0  0  0  0  0  0  0  0  0
   38.9210   27.8530   39.6010 C   0  0  0  0  0  3  0  0  0  0  0  0
  1  3  1  0  0  0  0
  1  2  1  0  0  0  0
  1 23  1  0  0  0  0
  4 16  1  0  0  0  0
  4  5  1  0  0  0  0
  5  1  1  0  0  0  0
  6 10  1  0  0  0  0
  6  5  2  0  0  0  0
  7  6  1  0  0  0  0
  8  9  1  0  0  0  0
  8  7  2  0  0  0  0
  9  4  2  0  0  0  0
 11  7  1  0  0  0  0
 12  8  1  0  0  0  0
 13  9  1  0  0  0  0
 14 20  1  0  0  0  0
 14 19  1  0  0  0  0
 15 14  2  0  0  0  0
 16 17  2  0  0  0  0
 16 15  1  0  0  0  0
 17 18  1  0  0  0  0
 18 22  1  0  0  0  0
 18 19  2  0  0  0  0
 21 15  1  0  0  0  0
 23 24  1  0  0  0  0
 23 25  1  0  0  0  0
 25 26  1  0  0  0  0
 26 27  1  0  0  0  0
 28 25  1  0  0  0  0
 28 29  1  0  0  0  0
 30 25  1  0  0  0  0
 31 30  1  0  0  0  0
 32 31  1  0  0  0  0
 32 33  1  0  0  0  0
 34 32  2  0  0  0  0
 35 37  2  0  0  0  0
 35 34  1  0  0  0  0
 36 35  1  0  0  0  0
 37 39  1  0  0  0  0
 38 37  1  0  0  0  0
 39 31  2  0  0  0  0
M  END
>  <minimizedAffinity>
-5.43881083

$$$$

 OpenBabel03252508443D

 39 41  0  0  0  0  0  0  0  0999 V2000
   38.7130   30.6460   41.8670 C   0  0  0  0  0  0  0  0  0  0  0  0
   38.2870   29.7910   41.2980 H   0  0  0  0  0  0  0  0  0  0  0  0
   37.9960   30.8010   42.7100 H   0  0  0  0  0  0  0  0  0  0  0  0
   40.2490   28.8050   42.5800 C   0  0  0  0  0  0  0  0  0  0  0  0
   40.0420   30.1710   42.3600 C   0  0  0  0  0  0  0  0  0  0  0  0
   41.0770   31.0450   42.6070 C   0  0  0  0  0  0  0  0  0  0  0  0
   42.2770   30.5810   43.0560 C   0  0  0  0  0  0  0  0  0  0  0  0
   42.5200   29.2540   43.2830 C   0  0  0  0  0  0  0  0  0  0  0  0
   41.4520   28.3960   43.0220 C   0  0  0  0  0  0  0  0  0  0  0  0
   40.9690   32.0940   42.4560 H   0  0  0  0  0  0  0  0  0  0  0  0
   43.0840   31.2780   43.2470 H   0  0  0  0  0  0  0  0  0  0  0  0
   43.4360   28.8340   43.6320 H   0  0  0  0  0  0  0  0  0  0  0  0
   41.5470   27.3270   43.1720 H   0  0  0  0  0  0  0  0  0  0  0  0
   37.0670   26.7920   42.8160 C   0  0  0  0  0  0  0  0  0  0  0  0
   38.1070   27.6610   43.1870 C   0  0  0  0  0  0  0  0  0  0  0  0
   39.1230   27.9220   42.3030 C   0  0  0  0  0  0  0  0  0  0  0  0
   39.0770   27.3180   41.0810 N   0  0  0  0  0  0  0  0  0  0  0  0
   38.0650   26.4800   40.7350 C   0  0  0  0  0  0  0  0  0  0  0  0
   37.0720   26.2180   41.5870 N   0  0  0  0  0  0  0  0  0  0  0  0
   36.3420   26.6870   43.6220 H   0  0  0  0  0  0  0  0  0  0  0  0
   38.1710   28.1530   44.1420 H   0  0  0  0  0  0  0  0  0  0  0  0
   37.9980   25.9870   39.7850 H   0  0  0  0  0  0  0  0  0  0  0  0
   38.7970   31.7620   40.9620 N   0  0  0  0  0  0  0  0  0  0  0  0
   39.0470   32.6550   41.4270 H   0  0  0  0  0  0  0  0  0  0  0  0
   37.2990   32.0730   40.1860 S   0  0  0  0  0  0  0  0  0  0  0  0
   37.0360   33.5420   40.0810 O   0  0  0  0  0  0  0  0  0  0  0  0
   36.1520   33.9710   40.1030 H   0  0  0  0  0  0  0  0  0  0  0  0
   36.1670   31.3720   40.8560 O   0  0  0  0  0  0  0  0  0  0  0  0
   35.3060   31.8220   41.0880 H   0  0  0  0  0  0  0  0  0  0  0  0
   37.4580   31.4700   38.6040 O   0  0  0  0  0  0  0  0  0  0  0  0
   38.7660   31.0910   38.2400 C   0  0  0  0  0  0  0  0  0  0  0  0
   38.9540   29.7280   38.3270 C   0  0  0  0  0  0  0  0  0  0  0  0
   38.2090   29.0150   38.6320 H   0  0  0  0  0  0  0  0  0  0  0  0
   40.1970   29.1940   38.0000 C   0  0  0  0  0  3  0  0  0  0  0  0
   41.2010   30.0360   37.6000 C   0  0  0  0  0  0  0  0  0  0  0  0
   42.1500   29.5970   37.3540 H   0  0  0  0  0  0  0  0  0  0  0  0
   40.9780   31.3960   37.5250 C   0  0  0  0  0  0  0  0  0  0  0  0
   41.7690   32.0770   37.2080 H   0  0  0  0  0  0  0  0  0  0  0  0
   39.7460   31.9770   37.8440 C   0  0  0  0  0  3  0  0  0  0  0  0
  1  5  1  0  0  0  0
  1  3  1  0  0  0  0
  2  1  1  0  0  0  0
  4  9  1  0  0  0  0
  5  4  2  0  0  0  0
  5  6  1  0  0  0  0
  6  7  2  0  0  0  0
  7 11  1  0  0  0  0
  7  8  1  0  0  0  0
  8 12  1  0  0  0  0
  9 13  1  0  0  0  0
  9  8  2  0  0  0  0
 10  6  1  0  0  0  0
 14 15  1  0  0  0  0
 14 20  1  0  0  0  0
 15 21  1  0  0  0  0
 16  4  1  0  0  0  0
 16 15  2  0  0  0  0
 17 16  1  0  0  0  0
 18 17  2  0  0  0  0
 18 19  1  0  0  0  0
 19 14  2  0  0  0  0
 22 18  1  0  0  0  0
 23 24  1  0  0  0  0
 23  1  1  0  0  0  0
 25 28  1  0  0  0  0
 25 23  1  0  0  0  0
 26 27  1  0  0  0  0
 26 25  1  0  0  0  0
 28 29  1  0  0  0  0
 30 25  1  0  0  0  0
 31 32  1  0  0  0  0
 31 30  1  0  0  0  0
 32 33  1  0  0  0  0
 34 32  2  0  0  0  0
 35 34  1  0  0  0  0
 36 35  1  0  0  0  0
 37 35  2  0  0  0  0
 37 39  1  0  0  0  0
 38 37  1  0  0  0  0
 39 31  2  0  0  0  0
M  END
>  <minimizedAffinity>
-5.34976864

$$$$
