
 OpenBabel03252502423D

 24 25  0  0  0  0  0  0  0  0999 V2000
   43.8560   33.6040   40.6350 C   0  0  0  0  0  0  0  0  0  0  0  0
   44.1970   32.5640   40.4200 H   0  0  0  0  0  0  0  0  0  0  0  0
   43.9960   34.2840   39.7810 H   0  0  0  0  0  0  0  0  0  0  0  0
   40.3780   34.8020   41.4780 C   0  0  0  0  0  0  0  0  0  0  0  0
   41.7470   34.8310   41.1060 C   0  0  0  0  0  0  0  0  0  0  0  0
   42.4260   33.6160   41.0210 C   0  0  0  0  0  0  0  0  0  0  0  0
   41.7220   32.4710   41.3040 N   0  0  0  0  0  0  0  0  0  0  0  0
   40.4330   32.4860   41.6510 C   0  0  0  0  0  0  0  0  0  0  0  0
   39.7550   33.6470   41.7400 N   0  0  0  0  0  0  0  0  0  0  0  0
   39.7990   35.6990   41.5610 H   0  0  0  0  0  0  0  0  0  0  0  0
   42.2270   35.7790   40.8990 H   0  0  0  0  0  0  0  0  0  0  0  0
   40.0430   31.4850   41.8380 H   0  0  0  0  0  0  0  0  0  0  0  0
   44.6790   34.0370   41.8400 C   0  0  0  0  0  0  0  0  0  0  0  0
   44.1760   34.8870   42.3520 H   0  0  0  0  0  0  0  0  0  0  0  0
   44.6960   33.1700   42.5340 H   0  0  0  0  0  0  0  0  0  0  0  0
   46.0510   34.3820   41.4400 C   0  0  0  0  0  0  0  0  0  0  0  0
   46.6380   34.0310   40.2430 C   0  0  0  0  0  0  0  0  0  0  0  0
   46.0580   33.4660   39.5490 H   0  0  0  0  0  0  0  0  0  0  0  0
   47.9250   34.3550   39.8680 C   0  0  0  0  0  0  0  0  0  0  0  0
   48.6660   35.0980   40.7950 C   0  0  0  0  0  0  0  0  0  0  0  0
   49.6900   35.3780   40.5410 H   0  0  0  0  0  0  0  0  0  0  0  0
   48.1040   35.4660   42.0070 C   0  0  0  0  0  0  0  0  0  0  0  0
   48.7120   36.0410   42.6980 H   0  0  0  0  0  0  0  0  0  0  0  0
   46.8170   35.1230   42.3460 C   0  0  0  0  0  0  0  0  0  0  0  0
  1  6  1  0  0  0  0
  1 13  1  0  0  0  0
  2  1  1  0  0  0  0
  3  1  1  0  0  0  0
  4 10  1  0  0  0  0
  4  9  1  0  0  0  0
  5  4  2  0  0  0  0
  6  5  1  0  0  0  0
  6  7  2  0  0  0  0
  7  8  1  0  0  0  0
  8  9  2  0  0  0  0
  8 12  1  0  0  0  0
 11  5  1  0  0  0  0
 13 14  1  0  0  0  0
 13 15  1  0  0  0  0
 16 13  1  0  0  0  0
 16 24  1  0  0  0  0
 17 16  2  0  0  0  0
 18 17  1  0  0  0  0
 19 17  1  0  0  0  0
 19 20  2  0  0  0  0
 20 22  1  0  0  0  0
 21 20  1  0  0  0  0
 22 24  2  0  0  0  0
 22 23  1  0  0  0  0
M  END
>  <minimizedAffinity>
-4.25743055

>  <minimizedRMSD>
4.33920145

$$$$
