
 OpenBabel03252509053D

 48 50  0  0  1  0  0  0  0  0999 V2000
   47.0520   34.3420   43.2360 N   0  0  0  0  0  0  0  0  0  0  0  0
   46.7010   34.8830   41.9820 C   0  0  0  0  0  0  0  0  0  0  0  0
   45.2640   34.6520   41.5720 C   0  0  0  0  0  0  0  0  0  0  0  0
   44.2910   34.6710   42.7240 C   0  0  0  0  0  0  0  0  0  0  0  0
   44.9770   34.9920   44.0380 C   0  0  0  0  0  0  0  0  0  0  0  0
   46.1100   33.8940   44.1300 C   0  0  2  0  0  0  0  0  0  0  0  0
   46.8090   35.9990   42.0470 H   0  0  0  0  0  0  0  0  0  0  0  0
   47.3130   34.5740   41.1240 H   0  0  0  0  0  0  0  0  0  0  0  0
   44.9880   35.4390   40.8330 H   0  0  0  0  0  0  0  0  0  0  0  0
   45.1480   33.6760   41.0340 H   0  0  0  0  0  0  0  0  0  0  0  0
   43.5460   35.4990   42.5670 H   0  0  0  0  0  0  0  0  0  0  0  0
   43.7130   33.7550   42.8510 H   0  0  0  0  0  0  0  0  0  0  0  0
   44.2750   34.7780   44.8570 H   0  0  0  0  0  0  0  0  0  0  0  0
   45.4300   35.9810   44.0770 H   0  0  0  0  0  0  0  0  0  0  0  0
   45.6070   32.9250   43.9400 H   0  0  0  0  0  0  0  0  0  0  0  0
   48.3770   33.7770   43.2890 C   0  0  0  0  0  0  0  0  0  0  0  0
   48.8720   33.9460   44.2640 H   0  0  0  0  0  0  0  0  0  0  0  0
   48.9820   34.3590   42.5570 H   0  0  0  0  0  0  0  0  0  0  0  0
   48.2980   32.3630   42.8480 C   0  0  0  0  0  0  0  0  0  0  0  0
   47.2930   32.0800   42.4470 H   0  0  0  0  0  0  0  0  0  0  0  0
   48.4890   31.6940   43.7040 H   0  0  0  0  0  0  0  0  0  0  0  0
   51.5500   31.8880   41.0360 C   0  0  0  0  0  0  0  0  0  0  0  0
   50.6070   32.1250   42.0530 C   0  0  0  0  0  0  0  0  0  0  0  0
   49.2760   32.1110   41.7660 C   0  0  0  0  0  0  0  0  0  0  0  0
   48.9260   31.8680   40.5070 N   0  0  0  0  0  0  0  0  0  0  0  0
   49.8120   31.6400   39.5220 C   0  0  0  0  0  0  0  0  0  0  0  0
   51.1310   31.6480   39.7780 N   0  0  0  0  0  0  0  0  0  0  0  0
   52.6150   31.9020   41.2780 H   0  0  0  0  0  0  0  0  0  0  0  0
   50.9750   32.3160   43.0600 H   0  0  0  0  0  0  0  0  0  0  0  0
   49.4890   31.4460   38.5100 H   0  0  0  0  0  0  0  0  0  0  0  0
   46.4950   34.0320   45.4500 O   0  0  0  0  0  0  0  0  0  0  0  0
   45.8480   31.4540   45.4590 O   0  0  0  0  0  0  0  0  0  0  0  0
   46.2280   32.6280   46.3520 P   0  0  2  0  0  0  0  0  0  0  0  0
   44.8640   32.9520   47.3170 O   0  0  0  0  0  0  0  0  0  0  0  0
   44.2300   32.1910   47.3190 H   0  0  0  0  0  0  0  0  0  0  0  0
   47.5040   32.2650   47.3650 O   0  0  0  0  0  0  0  0  0  0  0  0
   47.6840   30.8900   47.3850 C   0  0  0  0  0  0  0  0  0  0  0  0
   48.0500   30.4870   46.4160 H   0  0  0  0  0  0  0  0  0  0  0  0
   46.7330   30.3790   47.6520 H   0  0  0  0  0  0  0  0  0  0  0  0
   48.6850   30.6350   48.4750 C   0  0  0  0  0  0  0  0  0  0  0  0
   49.1530   29.3420   48.6230 C   0  0  0  0  0  0  0  0  0  0  0  0
   48.8060   28.5400   47.9710 H   0  0  0  0  0  0  0  0  0  0  0  0
   50.0690   28.9820   49.5830 C   0  0  0  0  0  3  0  0  0  0  0  0
   50.5600   29.9480   50.4540 C   0  0  0  0  0  0  0  0  0  0  0  0
   51.2810   29.6770   51.2120 H   0  0  0  0  0  0  0  0  0  0  0  0
   50.0830   31.2440   50.2960 C   0  0  0  0  0  0  0  0  0  0  0  0
   50.4380   32.0280   50.9510 H   0  0  0  0  0  0  0  0  0  0  0  0
   49.1620   31.6030   49.3300 C   0  0  0  0  0  3  0  0  0  0  0  0
  1 16  1  0  0  0  0
  1  6  1  0  0  0  0
  2  7  1  0  0  0  0
  2  1  1  0  0  0  0
  3  2  1  0  0  0  0
  3  4  1  0  0  0  0
  4 12  1  0  0  0  0
  4  5  1  0  0  0  0
  5 14  1  0  0  0  0
  5  6  1  0  0  0  0
  5 13  1  0  0  0  0
  6 15  1  6  0  0  0
  6 31  1  0  0  0  0
  8  2  1  0  0  0  0
  9  3  1  0  0  0  0
 10  3  1  0  0  0  0
 11  4  1  0  0  0  0
 16 17  1  0  0  0  0
 18 16  1  0  0  0  0
 19 16  1  0  0  0  0
 19 21  1  0  0  0  0
 20 19  1  0  0  0  0
 22 28  1  0  0  0  0
 22 23  1  0  0  0  0
 23 29  1  0  0  0  0
 24 23  2  0  0  0  0
 24 19  1  0  0  0  0
 25 24  1  0  0  0  0
 26 27  1  0  0  0  0
 26 25  2  0  0  0  0
 27 22  2  0  0  0  0
 30 26  1  0  0  0  0
 31 33  1  0  0  0  0
 33 32  2  6  0  0  0
 33 34  1  0  0  0  0
 33 36  1  0  0  0  0
 34 35  1  0  0  0  0
 36 37  1  0  0  0  0
 37 39  1  0  0  0  0
 37 40  1  0  0  0  0
 38 37  1  0  0  0  0
 40 41  2  0  0  0  0
 40 48  1  0  0  0  0
 41 43  1  0  0  0  0
 42 41  1  0  0  0  0
 43 44  2  0  0  0  0
 44 45  1  0  0  0  0
 46 44  1  0  0  0  0
 46 47  1  0  0  0  0
 48 46  2  0  0  0  0
M  END
>  <minimizedAffinity>
-5.02390289

>  <minimizedRMSD>
2.9152925

$$$$
