
 OpenBabel03242520533D

 27 28  0  0  0  0  0  0  0  0999 V2000
   33.8520   28.8930   38.5510 C   0  0  0  0  0  3  0  0  0  0  0  0
   33.6080   28.9520   37.2770 C   0  0  0  0  0  3  0  0  0  0  0  0
   37.4460   29.6210   38.7270 C   0  0  0  0  0  0  0  0  0  0  0  0
   37.6930   29.5000   40.0990 C   0  0  0  0  0  0  0  0  0  0  0  0
   36.6480   29.1750   40.9530 C   0  0  0  0  0  0  0  0  0  0  0  0
   35.4250   28.9880   40.4010 N   0  0  0  0  0  0  0  0  0  0  0  0
   35.2110   29.1100   39.0790 C   0  0  0  0  0  0  0  0  0  0  0  0
   36.2050   29.4220   38.2490 N   0  0  0  0  0  0  0  0  0  0  0  0
   38.3040   29.8760   38.1230 H   0  0  0  0  0  0  0  0  0  0  0  0
   38.6500   29.6400   40.5750 H   0  0  0  0  0  0  0  0  0  0  0  0
   36.7340   29.0200   42.3230 O   0  0  0  0  0  0  0  0  0  0  0  0
   36.9140   27.6760   42.8030 C   0  0  0  0  0  0  0  0  0  0  0  0
   37.0150   26.8160   41.7190 F   0  0  0  0  0  0  0  0  0  0  0  0
   38.1160   27.6460   43.5210 F   0  0  0  0  0  0  0  0  0  0  0  0
   35.8840   27.3060   43.6550 F   0  0  0  0  0  0  0  0  0  0  0  0
   32.2640   28.7440   36.6750 C   0  0  0  0  0  0  0  0  0  0  0  0
   31.7550   27.9470   37.2200 H   0  0  0  0  0  0  0  0  0  0  0  0
   32.4680   28.3770   35.6270 H   0  0  0  0  0  0  0  0  0  0  0  0
   31.4790   29.9950   36.6070 C   0  0  0  0  0  0  0  0  0  0  0  0
   31.4510   30.8050   35.4890 C   0  0  0  0  0  0  0  0  0  0  0  0
   32.0590   30.4500   34.6470 H   0  0  0  0  0  0  0  0  0  0  0  0
   30.7340   31.9770   35.3820 C   0  0  0  0  0  3  0  0  0  0  0  0
   30.0010   32.3270   36.5120 C   0  0  0  0  0  0  0  0  0  0  0  0
   29.4310   33.2620   36.4220 H   0  0  0  0  0  0  0  0  0  0  0  0
   29.9620   31.5880   37.6760 C   0  0  0  0  0  0  0  0  0  0  0  0
   29.3760   31.9020   38.5280 H   0  0  0  0  0  0  0  0  0  0  0  0
   30.7130   30.4240   37.6940 C   0  0  0  0  0  3  0  0  0  0  0  0
  1  7  1  0  0  0  0
  2  1  2  0  0  0  0
  3  4  1  0  0  0  0
  4 10  1  0  0  0  0
  4  5  2  0  0  0  0
  5 11  1  0  0  0  0
  6  5  1  0  0  0  0
  7  6  2  0  0  0  0
  8  3  2  0  0  0  0
  8  7  1  0  0  0  0
  9  3  1  0  0  0  0
 11 12  1  0  0  0  0
 12 14  1  0  0  0  0
 12 15  1  0  0  0  0
 13 12  1  0  0  0  0
 16 17  1  0  0  0  0
 16  2  1  0  0  0  0
 18 16  1  0  0  0  0
 19 16  1  0  0  0  0
 19 27  1  0  0  0  0
 20 19  2  0  0  0  0
 21 20  1  0  0  0  0
 22 20  1  0  0  0  0
 22 23  2  0  0  0  0
 23 25  1  0  0  0  0
 24 23  1  0  0  0  0
 25 27  2  0  0  0  0
 25 26  1  0  0  0  0
M  END
>  <minimizedAffinity>
-5.40790558

$$$$

 OpenBabel03242520533D

 27 28  0  0  0  0  0  0  0  0999 V2000
   33.8330   28.8970   38.4750 C   0  0  0  0  0  3  0  0  0  0  0  0
   33.6200   28.9080   37.1940 C   0  0  0  0  0  3  0  0  0  0  0  0
   37.4330   29.5740   38.7130 C   0  0  0  0  0  0  0  0  0  0  0  0
   37.6550   29.4470   40.0890 C   0  0  0  0  0  0  0  0  0  0  0  0
   36.5920   29.1360   40.9240 C   0  0  0  0  0  0  0  0  0  0  0  0
   35.3760   28.9680   40.3510 N   0  0  0  0  0  0  0  0  0  0  0  0
   35.1850   29.0940   39.0260 C   0  0  0  0  0  0  0  0  0  0  0  0
   36.1970   29.3930   38.2140 N   0  0  0  0  0  0  0  0  0  0  0  0
   38.3050   29.8180   38.1240 H   0  0  0  0  0  0  0  0  0  0  0  0
   38.6060   29.5740   40.5810 H   0  0  0  0  0  0  0  0  0  0  0  0
   36.6520   28.9780   42.2960 O   0  0  0  0  0  0  0  0  0  0  0  0
   36.9130   27.6470   42.7740 C   0  0  0  0  0  0  0  0  0  0  0  0
   38.1230   27.6380   43.4550 F   0  0  0  0  0  0  0  0  0  0  0  0
   35.8870   27.3140   43.6660 F   0  0  0  0  0  0  0  0  0  0  0  0
   36.9060   26.7300   41.7330 F   0  0  0  0  0  0  0  0  0  0  0  0
   32.2840   28.7160   36.5690 C   0  0  0  0  0  0  0  0  0  0  0  0
   31.6380   28.1950   37.2770 H   0  0  0  0  0  0  0  0  0  0  0  0
   32.4690   28.0290   35.6920 H   0  0  0  0  0  0  0  0  0  0  0  0
   31.7060   29.9850   36.0790 C   0  0  0  0  0  0  0  0  0  0  0  0
   30.9100   30.7990   36.8600 C   0  0  0  0  0  0  0  0  0  0  0  0
   30.7360   30.4320   37.8810 H   0  0  0  0  0  0  0  0  0  0  0  0
   30.3510   31.9890   36.4460 C   0  0  0  0  0  3  0  0  0  0  0  0
   30.6390   32.3530   35.1340 C   0  0  0  0  0  0  0  0  0  0  0  0
   30.1920   33.3010   34.8080 H   0  0  0  0  0  0  0  0  0  0  0  0
   31.4220   31.6100   34.2740 C   0  0  0  0  0  0  0  0  0  0  0  0
   31.6180   31.9360   33.2610 H   0  0  0  0  0  0  0  0  0  0  0  0
   31.9420   30.4290   34.7750 C   0  0  0  0  0  3  0  0  0  0  0  0
  1  7  1  0  0  0  0
  2  1  2  0  0  0  0
  3  4  1  0  0  0  0
  4 10  1  0  0  0  0
  4  5  2  0  0  0  0
  5 11  1  0  0  0  0
  6  5  1  0  0  0  0
  7  6  2  0  0  0  0
  8  3  2  0  0  0  0
  8  7  1  0  0  0  0
  9  3  1  0  0  0  0
 11 12  1  0  0  0  0
 12 13  1  0  0  0  0
 12 14  1  0  0  0  0
 15 12  1  0  0  0  0
 16  2  1  0  0  0  0
 16 17  1  0  0  0  0
 18 16  1  0  0  0  0
 19 16  1  0  0  0  0
 19 20  1  0  0  0  0
 20 21  1  0  0  0  0
 22 20  2  0  0  0  0
 23 22  1  0  0  0  0
 24 23  1  0  0  0  0
 25 27  1  0  0  0  0
 25 23  2  0  0  0  0
 26 25  1  0  0  0  0
 27 19  2  0  0  0  0
M  END
>  <minimizedAffinity>
-5.36294603

$$$$

 OpenBabel03242520533D

 27 28  0  0  0  0  0  0  0  0999 V2000
   36.5200   30.0100   38.7130 C   0  0  0  0  0  3  0  0  0  0  0  0
   35.8690   30.1000   39.8330 C   0  0  0  0  0  3  0  0  0  0  0  0
   34.0860   28.5230   36.4020 C   0  0  0  0  0  0  0  0  0  0  0  0
   34.6560   28.8220   35.1590 C   0  0  0  0  0  0  0  0  0  0  0  0
   35.8530   29.5210   35.1100 C   0  0  0  0  0  0  0  0  0  0  0  0
   36.4150   29.8820   36.2890 N   0  0  0  0  0  0  0  0  0  0  0  0
   35.8500   29.5840   37.4720 C   0  0  0  0  0  0  0  0  0  0  0  0
   34.7010   28.9130   37.5330 N   0  0  0  0  0  0  0  0  0  0  0  0
   33.1550   27.9770   36.3650 H   0  0  0  0  0  0  0  0  0  0  0  0
   34.2400   28.5520   34.2020 H   0  0  0  0  0  0  0  0  0  0  0  0
   36.5360   29.8890   33.9660 O   0  0  0  0  0  0  0  0  0  0  0  0
   36.3120   31.2280   33.4920 C   0  0  0  0  0  0  0  0  0  0  0  0
   37.0530   32.1120   34.2630 F   0  0  0  0  0  0  0  0  0  0  0  0
   36.7670   31.2850   32.1690 F   0  0  0  0  0  0  0  0  0  0  0  0
   34.9620   31.5460   33.5060 F   0  0  0  0  0  0  0  0  0  0  0  0
   36.4790   30.5220   41.1220 C   0  0  0  0  0  0  0  0  0  0  0  0
   35.7350   31.0750   41.6970 H   0  0  0  0  0  0  0  0  0  0  0  0
   37.3030   31.2380   40.8340 H   0  0  0  0  0  0  0  0  0  0  0  0
   37.0620   29.3850   41.8660 C   0  0  0  0  0  0  0  0  0  0  0  0
   36.4230   28.1680   41.9990 C   0  0  0  0  0  0  0  0  0  0  0  0
   35.4420   28.1050   41.5090 H   0  0  0  0  0  0  0  0  0  0  0  0
   36.9280   27.0830   42.6830 C   0  0  0  0  0  3  0  0  0  0  0  0
   38.1760   27.2780   43.2640 C   0  0  0  0  0  0  0  0  0  0  0  0
   38.5750   26.4110   43.8080 H   0  0  0  0  0  0  0  0  0  0  0  0
   38.8950   28.4540   43.1890 C   0  0  0  0  0  0  0  0  0  0  0  0
   39.8640   28.5580   43.6580 H   0  0  0  0  0  0  0  0  0  0  0  0
   38.3110   29.4920   42.4820 C   0  0  0  0  0  3  0  0  0  0  0  0
  1  2  2  0  0  0  0
  2 16  1  0  0  0  0
  3  8  1  0  0  0  0
  4  3  2  0  0  0  0
  5  4  1  0  0  0  0
  5  6  2  0  0  0  0
  6  7  1  0  0  0  0
  7  8  2  0  0  0  0
  7  1  1  0  0  0  0
  9  3  1  0  0  0  0
 10  4  1  0  0  0  0
 11  5  1  0  0  0  0
 12 15  1  0  0  0  0
 12 11  1  0  0  0  0
 12 13  1  0  0  0  0
 14 12  1  0  0  0  0
 16 17  1  0  0  0  0
 16 19  1  0  0  0  0
 18 16  1  0  0  0  0
 19 20  2  0  0  0  0
 19 27  1  0  0  0  0
 20 22  1  0  0  0  0
 21 20  1  0  0  0  0
 22 23  2  0  0  0  0
 23 24  1  0  0  0  0
 25 23  1  0  0  0  0
 25 26  1  0  0  0  0
 27 25  2  0  0  0  0
M  END
>  <minimizedAffinity>
-5.36248493

$$$$

 OpenBabel03242520533D

 27 28  0  0  0  0  0  0  0  0999 V2000
   39.1130   29.9970   42.4850 C   0  0  0  0  0  3  0  0  0  0  0  0
   37.9120   29.5420   42.6780 C   0  0  0  0  0  3  0  0  0  0  0  0
   40.7700   32.6780   40.6020 C   0  0  0  0  0  0  0  0  0  0  0  0
   39.8360   32.9330   39.5920 C   0  0  0  0  0  0  0  0  0  0  0  0
   38.6570   32.2010   39.5530 C   0  0  0  0  0  0  0  0  0  0  0  0
   38.4720   31.2630   40.5130 N   0  0  0  0  0  0  0  0  0  0  0  0
   39.3840   31.0350   41.4750 C   0  0  0  0  0  0  0  0  0  0  0  0
   40.5180   31.7300   41.5230 N   0  0  0  0  0  0  0  0  0  0  0  0
   41.6630   33.2840   40.5710 H   0  0  0  0  0  0  0  0  0  0  0  0
   39.9470   33.6700   38.8120 H   0  0  0  0  0  0  0  0  0  0  0  0
   37.6440   32.3370   38.6230 O   0  0  0  0  0  0  0  0  0  0  0  0
   37.6110   31.3590   37.5690 C   0  0  0  0  0  0  0  0  0  0  0  0
   36.4920   30.5540   37.7300 F   0  0  0  0  0  0  0  0  0  0  0  0
   37.5010   32.0530   36.3570 F   0  0  0  0  0  0  0  0  0  0  0  0
   38.7790   30.6100   37.5420 F   0  0  0  0  0  0  0  0  0  0  0  0
   37.5660   28.4970   43.6780 C   0  0  0  0  0  0  0  0  0  0  0  0
   36.4880   28.5190   43.8480 H   0  0  0  0  0  0  0  0  0  0  0  0
   38.0780   28.8230   44.6300 H   0  0  0  0  0  0  0  0  0  0  0  0
   38.0660   27.1610   43.2900 C   0  0  0  0  0  0  0  0  0  0  0  0
   39.3010   26.6800   43.6780 C   0  0  0  0  0  0  0  0  0  0  0  0
   39.8900   27.3670   44.3000 H   0  0  0  0  0  0  0  0  0  0  0  0
   39.8070   25.4420   43.3410 C   0  0  0  0  0  3  0  0  0  0  0  0
   38.9730   24.6580   42.5500 C   0  0  0  0  0  0  0  0  0  0  0  0
   39.3800   23.6740   42.2830 H   0  0  0  0  0  0  0  0  0  0  0  0
   37.7250   25.0470   42.1100 C   0  0  0  0  0  0  0  0  0  0  0  0
   37.1130   24.4010   41.4960 H   0  0  0  0  0  0  0  0  0  0  0  0
   37.2970   26.3060   42.4970 C   0  0  0  0  0  3  0  0  0  0  0  0
  1  2  2  0  0  0  0
  2 16  1  0  0  0  0
  3  8  1  0  0  0  0
  4  3  2  0  0  0  0
  5  4  1  0  0  0  0
  5  6  2  0  0  0  0
  6  7  1  0  0  0  0
  7  8  2  0  0  0  0
  7  1  1  0  0  0  0
  9  3  1  0  0  0  0
 10  4  1  0  0  0  0
 11  5  1  0  0  0  0
 12 13  1  0  0  0  0
 12 11  1  0  0  0  0
 14 12  1  0  0  0  0
 15 12  1  0  0  0  0
 16 17  1  0  0  0  0
 16 18  1  0  0  0  0
 19 20  1  0  0  0  0
 19 16  1  0  0  0  0
 20 21  1  0  0  0  0
 22 20  2  0  0  0  0
 23 22  1  0  0  0  0
 24 23  1  0  0  0  0
 25 27  1  0  0  0  0
 25 23  2  0  0  0  0
 26 25  1  0  0  0  0
 27 19  2  0  0  0  0
M  END
>  <minimizedAffinity>
-5.29640722

$$$$

 OpenBabel03242520533D

 27 28  0  0  0  0  0  0  0  0999 V2000
   37.4770   29.5750   41.5780 C   0  0  0  0  0  3  0  0  0  0  0  0
   36.6770   28.5640   41.7320 C   0  0  0  0  0  3  0  0  0  0  0  0
   37.2240   32.4550   39.3160 C   0  0  0  0  0  0  0  0  0  0  0  0
   37.4050   31.8510   38.0670 C   0  0  0  0  0  0  0  0  0  0  0  0
   37.6110   30.4810   37.9960 C   0  0  0  0  0  0  0  0  0  0  0  0
   37.6250   29.7900   39.1620 N   0  0  0  0  0  0  0  0  0  0  0  0
   37.4480   30.3920   40.3520 C   0  0  0  0  0  0  0  0  0  0  0  0
   37.2500   31.7060   40.4330 N   0  0  0  0  0  0  0  0  0  0  0  0
   37.0680   33.5240   39.2960 H   0  0  0  0  0  0  0  0  0  0  0  0
   37.4000   32.3660   37.1190 H   0  0  0  0  0  0  0  0  0  0  0  0
   37.8040   29.7440   36.8440 O   0  0  0  0  0  0  0  0  0  0  0  0
   36.6600   29.5890   35.9860 C   0  0  0  0  0  0  0  0  0  0  0  0
   36.6110   30.6540   35.0980 F   0  0  0  0  0  0  0  0  0  0  0  0
   36.8370   28.4020   35.2630 F   0  0  0  0  0  0  0  0  0  0  0  0
   35.4910   29.4830   36.7240 F   0  0  0  0  0  0  0  0  0  0  0  0
   36.6510   27.6970   42.9400 C   0  0  0  0  0  0  0  0  0  0  0  0
   35.6580   27.2540   43.0320 H   0  0  0  0  0  0  0  0  0  0  0  0
   36.8020   28.4020   43.8080 H   0  0  0  0  0  0  0  0  0  0  0  0
   37.7360   26.6920   42.9350 C   0  0  0  0  0  0  0  0  0  0  0  0
   37.6570   25.5050   42.2340 C   0  0  0  0  0  0  0  0  0  0  0  0
   36.7220   25.3590   41.6770 H   0  0  0  0  0  0  0  0  0  0  0  0
   38.6430   24.5420   42.2000 C   0  0  0  0  0  3  0  0  0  0  0  0
   39.7820   24.8350   42.9430 C   0  0  0  0  0  0  0  0  0  0  0  0
   40.5640   24.0650   42.9140 H   0  0  0  0  0  0  0  0  0  0  0  0
   39.9580   25.9900   43.6770 C   0  0  0  0  0  0  0  0  0  0  0  0
   40.8630   26.1730   44.2390 H   0  0  0  0  0  0  0  0  0  0  0  0
   38.9160   26.9020   43.6530 C   0  0  0  0  0  3  0  0  0  0  0  0
  1  2  2  0  0  0  0
  2 16  1  0  0  0  0
  3  8  1  0  0  0  0
  4  3  2  0  0  0  0
  5  4  1  0  0  0  0
  5  6  2  0  0  0  0
  6  7  1  0  0  0  0
  7  8  2  0  0  0  0
  7  1  1  0  0  0  0
  9  3  1  0  0  0  0
 10  4  1  0  0  0  0
 11  5  1  0  0  0  0
 12 15  1  0  0  0  0
 12 11  1  0  0  0  0
 13 12  1  0  0  0  0
 14 12  1  0  0  0  0
 16 17  1  0  0  0  0
 16 18  1  0  0  0  0
 19 16  1  0  0  0  0
 19 27  1  0  0  0  0
 20 19  2  0  0  0  0
 21 20  1  0  0  0  0
 22 20  1  0  0  0  0
 22 23  2  0  0  0  0
 23 25  1  0  0  0  0
 24 23  1  0  0  0  0
 25 26  1  0  0  0  0
 27 25  2  0  0  0  0
M  END
>  <minimizedAffinity>
-5.12403202

$$$$

 OpenBabel03242520533D

 27 28  0  0  0  0  0  0  0  0999 V2000
   34.1270   28.7930   38.2670 C   0  0  0  0  0  3  0  0  0  0  0  0
   33.7140   28.9790   37.0500 C   0  0  0  0  0  3  0  0  0  0  0  0
   37.5450   28.3190   39.5190 C   0  0  0  0  0  0  0  0  0  0  0  0
   38.0940   29.5930   39.3320 C   0  0  0  0  0  0  0  0  0  0  0  0
   37.3100   30.6000   38.7860 C   0  0  0  0  0  0  0  0  0  0  0  0
   36.0330   30.2880   38.4590 N   0  0  0  0  0  0  0  0  0  0  0  0
   35.5260   29.0570   38.6470 C   0  0  0  0  0  0  0  0  0  0  0  0
   36.2680   28.0830   39.1700 N   0  0  0  0  0  0  0  0  0  0  0  0
   38.2120   27.5860   39.9470 H   0  0  0  0  0  0  0  0  0  0  0  0
   39.1040   29.8790   39.5790 H   0  0  0  0  0  0  0  0  0  0  0  0
   37.7070   31.9000   38.5420 O   0  0  0  0  0  0  0  0  0  0  0  0
   37.5000   32.8420   39.6090 C   0  0  0  0  0  0  0  0  0  0  0  0
   36.8150   32.2150   40.6410 F   0  0  0  0  0  0  0  0  0  0  0  0
   38.7630   33.2320   40.0730 F   0  0  0  0  0  0  0  0  0  0  0  0
   36.8290   33.9700   39.1600 F   0  0  0  0  0  0  0  0  0  0  0  0
   32.3200   28.7340   36.5940 C   0  0  0  0  0  0  0  0  0  0  0  0
   31.8880   27.9380   37.2030 H   0  0  0  0  0  0  0  0  0  0  0  0
   32.4210   28.3520   35.5370 H   0  0  0  0  0  0  0  0  0  0  0  0
   31.5050   29.9680   36.5890 C   0  0  0  0  0  0  0  0  0  0  0  0
   31.4400   30.8200   35.5050 C   0  0  0  0  0  0  0  0  0  0  0  0
   32.0420   30.5130   34.6390 H   0  0  0  0  0  0  0  0  0  0  0  0
   30.6950   31.9790   35.4550 C   0  0  0  0  0  3  0  0  0  0  0  0
   29.9730   32.2670   36.6090 C   0  0  0  0  0  0  0  0  0  0  0  0
   29.3810   33.1910   36.5660 H   0  0  0  0  0  0  0  0  0  0  0  0
   29.9710   31.4820   37.7440 C   0  0  0  0  0  0  0  0  0  0  0  0
   29.3920   31.7480   38.6170 H   0  0  0  0  0  0  0  0  0  0  0  0
   30.7480   30.3360   37.7040 C   0  0  0  0  0  3  0  0  0  0  0  0
  1  7  1  0  0  0  0
  2  1  2  0  0  0  0
  3  9  1  0  0  0  0
  4  3  1  0  0  0  0
  4 10  1  0  0  0  0
  5  4  2  0  0  0  0
  6  7  2  0  0  0  0
  6  5  1  0  0  0  0
  7  8  1  0  0  0  0
  8  3  2  0  0  0  0
 11  5  1  0  0  0  0
 11 12  1  0  0  0  0
 12 14  1  0  0  0  0
 12 13  1  0  0  0  0
 15 12  1  0  0  0  0
 16  2  1  0  0  0  0
 16 17  1  0  0  0  0
 18 16  1  0  0  0  0
 19 16  1  0  0  0  0
 19 27  1  0  0  0  0
 20 19  2  0  0  0  0
 21 20  1  0  0  0  0
 22 20  1  0  0  0  0
 22 23  2  0  0  0  0
 23 25  1  0  0  0  0
 24 23  1  0  0  0  0
 25 26  1  0  0  0  0
 27 25  2  0  0  0  0
M  END
>  <minimizedAffinity>
-5.06014538

$$$$

 OpenBabel03242520533D

 27 28  0  0  0  0  0  0  0  0999 V2000
   34.5420   29.2100   37.5470 C   0  0  0  0  0  3  0  0  0  0  0  0
   33.2760   28.9520   37.6820 C   0  0  0  0  0  3  0  0  0  0  0  0
   35.9000   29.0520   40.9540 C   0  0  0  0  0  0  0  0  0  0  0  0
   37.0240   29.8780   40.8490 C   0  0  0  0  0  0  0  0  0  0  0  0
   37.3160   30.4810   39.6330 C   0  0  0  0  0  0  0  0  0  0  0  0
   36.4800   30.2320   38.5970 N   0  0  0  0  0  0  0  0  0  0  0  0
   35.4050   29.4340   38.7200 C   0  0  0  0  0  0  0  0  0  0  0  0
   35.1140   28.8500   39.8810 N   0  0  0  0  0  0  0  0  0  0  0  0
   35.7340   28.6170   41.9280 H   0  0  0  0  0  0  0  0  0  0  0  0
   37.7120   30.1000   41.6500 H   0  0  0  0  0  0  0  0  0  0  0  0
   38.3840   31.3180   39.3740 O   0  0  0  0  0  0  0  0  0  0  0  0
   38.2100   32.7020   39.7230 C   0  0  0  0  0  0  0  0  0  0  0  0
   38.2380   32.8290   41.1050 F   0  0  0  0  0  0  0  0  0  0  0  0
   39.2890   33.4100   39.1800 F   0  0  0  0  0  0  0  0  0  0  0  0
   37.0360   33.2100   39.1870 F   0  0  0  0  0  0  0  0  0  0  0  0
   32.3470   28.7160   36.5450 C   0  0  0  0  0  0  0  0  0  0  0  0
   31.6320   27.9440   36.8330 H   0  0  0  0  0  0  0  0  0  0  0  0
   32.9950   28.3030   35.7190 H   0  0  0  0  0  0  0  0  0  0  0  0
   31.7000   29.9610   36.0800 C   0  0  0  0  0  0  0  0  0  0  0  0
   30.8660   30.7180   36.8780 C   0  0  0  0  0  0  0  0  0  0  0  0
   30.7150   30.3250   37.8920 H   0  0  0  0  0  0  0  0  0  0  0  0
   30.2430   31.8850   36.4870 C   0  0  0  0  0  3  0  0  0  0  0  0
   30.5070   32.2860   35.1810 C   0  0  0  0  0  0  0  0  0  0  0  0
   30.0090   33.2150   34.8730 H   0  0  0  0  0  0  0  0  0  0  0  0
   31.3240   31.6010   34.3050 C   0  0  0  0  0  0  0  0  0  0  0  0
   31.4990   31.9540   33.2980 H   0  0  0  0  0  0  0  0  0  0  0  0
   31.9080   30.4400   34.7840 C   0  0  0  0  0  3  0  0  0  0  0  0
  1  2  2  0  0  0  0
  1  7  1  0  0  0  0
  3  9  1  0  0  0  0
  4  3  1  0  0  0  0
  4 10  1  0  0  0  0
  5  4  2  0  0  0  0
  6  7  2  0  0  0  0
  6  5  1  0  0  0  0
  7  8  1  0  0  0  0
  8  3  2  0  0  0  0
 11  5  1  0  0  0  0
 11 12  1  0  0  0  0
 12 13  1  0  0  0  0
 14 12  1  0  0  0  0
 15 12  1  0  0  0  0
 16 17  1  0  0  0  0
 16  2  1  0  0  0  0
 18 16  1  0  0  0  0
 19 16  1  0  0  0  0
 19 20  1  0  0  0  0
 20 21  1  0  0  0  0
 22 20  2  0  0  0  0
 23 22  1  0  0  0  0
 24 23  1  0  0  0  0
 25 27  1  0  0  0  0
 25 23  2  0  0  0  0
 26 25  1  0  0  0  0
 27 19  2  0  0  0  0
M  END
>  <minimizedAffinity>
-5.00322342

$$$$

 OpenBabel03242520533D

 27 28  0  0  0  0  0  0  0  0999 V2000
   37.3230   29.2680   41.6340 C   0  0  0  0  0  3  0  0  0  0  0  0
   37.3350   29.1080   42.9220 C   0  0  0  0  0  3  0  0  0  0  0  0
   36.9540   32.3790   39.7200 C   0  0  0  0  0  0  0  0  0  0  0  0
   38.2000   32.9840   39.9210 C   0  0  0  0  0  0  0  0  0  0  0  0
   39.1520   32.3410   40.6980 C   0  0  0  0  0  0  0  0  0  0  0  0
   38.8180   31.1400   41.2290 N   0  0  0  0  0  0  0  0  0  0  0  0
   37.6150   30.5760   41.0230 C   0  0  0  0  0  0  0  0  0  0  0  0
   36.6920   31.1840   40.2790 N   0  0  0  0  0  0  0  0  0  0  0  0
   36.2620   32.9350   39.1060 H   0  0  0  0  0  0  0  0  0  0  0  0
   38.5020   33.9370   39.5160 H   0  0  0  0  0  0  0  0  0  0  0  0
   40.4200   32.8080   40.9860 O   0  0  0  0  0  0  0  0  0  0  0  0
   41.3330   32.9020   39.8780 C   0  0  0  0  0  0  0  0  0  0  0  0
   42.6340   32.8330   40.3540 F   0  0  0  0  0  0  0  0  0  0  0  0
   41.0930   31.8020   39.0450 F   0  0  0  0  0  0  0  0  0  0  0  0
   41.1170   34.0620   39.1480 F   0  0  0  0  0  0  0  0  0  0  0  0
   37.0510   27.8190   43.6070 C   0  0  0  0  0  0  0  0  0  0  0  0
   36.0090   27.5500   43.4270 H   0  0  0  0  0  0  0  0  0  0  0  0
   37.1720   28.0400   44.7070 H   0  0  0  0  0  0  0  0  0  0  0  0
   38.0000   26.7550   43.2180 C   0  0  0  0  0  0  0  0  0  0  0  0
   39.3010   26.7030   43.6800 C   0  0  0  0  0  0  0  0  0  0  0  0
   39.5810   27.5170   44.3620 H   0  0  0  0  0  0  0  0  0  0  0  0
   40.2190   25.7320   43.3440 C   0  0  0  0  0  3  0  0  0  0  0  0
   39.7530   24.7530   42.4720 C   0  0  0  0  0  0  0  0  0  0  0  0
   40.4880   23.9810   42.2080 H   0  0  0  0  0  0  0  0  0  0  0  0
   38.4740   24.7150   41.9550 C   0  0  0  0  0  0  0  0  0  0  0  0
   38.1580   23.9320   41.2800 H   0  0  0  0  0  0  0  0  0  0  0  0
   37.6190   25.7310   42.3470 C   0  0  0  0  0  3  0  0  0  0  0  0
  1  2  2  0  0  0  0
  2 16  1  0  0  0  0
  3  4  2  0  0  0  0
  3  8  1  0  0  0  0
  4  5  1  0  0  0  0
  5 11  1  0  0  0  0
  5  6  2  0  0  0  0
  7  6  1  0  0  0  0
  7  1  1  0  0  0  0
  8  7  2  0  0  0  0
  9  3  1  0  0  0  0
 10  4  1  0  0  0  0
 12 13  1  0  0  0  0
 12 11  1  0  0  0  0
 14 12  1  0  0  0  0
 15 12  1  0  0  0  0
 16 18  1  0  0  0  0
 17 16  1  0  0  0  0
 19 16  1  0  0  0  0
 19 20  1  0  0  0  0
 20 21  1  0  0  0  0
 22 20  2  0  0  0  0
 23 22  1  0  0  0  0
 24 23  1  0  0  0  0
 25 27  1  0  0  0  0
 25 23  2  0  0  0  0
 26 25  1  0  0  0  0
 27 19  2  0  0  0  0
M  END
>  <minimizedAffinity>
-4.90891457

$$$$

 OpenBabel03242520533D

 27 28  0  0  0  0  0  0  0  0999 V2000
   36.9520   28.4330   40.1890 C   0  0  0  0  0  3  0  0  0  0  0  0
   36.7350   28.6880   41.4430 C   0  0  0  0  0  3  0  0  0  0  0  0
   37.1940   30.3090   37.0430 C   0  0  0  0  0  0  0  0  0  0  0  0
   37.7000   31.5370   37.4840 C   0  0  0  0  0  0  0  0  0  0  0  0
   37.9540   31.7240   38.8350 C   0  0  0  0  0  0  0  0  0  0  0  0
   37.6950   30.6870   39.6680 N   0  0  0  0  0  0  0  0  0  0  0  0
   37.2100   29.5150   39.2230 C   0  0  0  0  0  0  0  0  0  0  0  0
   36.9610   29.3240   37.9280 N   0  0  0  0  0  0  0  0  0  0  0  0
   37.0200   30.2350   35.9800 H   0  0  0  0  0  0  0  0  0  0  0  0
   37.9180   32.3840   36.8530 H   0  0  0  0  0  0  0  0  0  0  0  0
   38.4500   32.8730   39.4210 O   0  0  0  0  0  0  0  0  0  0  0  0
   39.8600   32.8850   39.7070 C   0  0  0  0  0  0  0  0  0  0  0  0
   40.3570   34.1610   39.4840 F   0  0  0  0  0  0  0  0  0  0  0  0
   40.0140   32.5670   41.0620 F   0  0  0  0  0  0  0  0  0  0  0  0
   40.5330   31.9350   38.9540 F   0  0  0  0  0  0  0  0  0  0  0  0
   36.4690   27.6480   42.4730 C   0  0  0  0  0  0  0  0  0  0  0  0
   35.5750   27.0920   42.1850 H   0  0  0  0  0  0  0  0  0  0  0  0
   36.2360   28.2240   43.4150 H   0  0  0  0  0  0  0  0  0  0  0  0
   37.6410   26.7790   42.7110 C   0  0  0  0  0  0  0  0  0  0  0  0
   37.7220   25.4820   42.2440 C   0  0  0  0  0  0  0  0  0  0  0  0
   36.8440   25.1390   41.6800 H   0  0  0  0  0  0  0  0  0  0  0  0
   38.7930   24.6380   42.4420 C   0  0  0  0  0  3  0  0  0  0  0  0
   39.8470   25.1800   43.1710 C   0  0  0  0  0  0  0  0  0  0  0  0
   40.6980   24.5040   43.3260 H   0  0  0  0  0  0  0  0  0  0  0  0
   39.8640   26.4620   43.6800 C   0  0  0  0  0  0  0  0  0  0  0  0
   40.7080   26.8390   44.2410 H   0  0  0  0  0  0  0  0  0  0  0  0
   38.7450   27.2400   43.4330 C   0  0  0  0  0  3  0  0  0  0  0  0
  1  2  2  0  0  0  0
  2 16  1  0  0  0  0
  3  4  2  0  0  0  0
  3  8  1  0  0  0  0
  4  5  1  0  0  0  0
  5 11  1  0  0  0  0
  5  6  2  0  0  0  0
  7  6  1  0  0  0  0
  7  1  1  0  0  0  0
  8  7  2  0  0  0  0
  9  3  1  0  0  0  0
 10  4  1  0  0  0  0
 11 12  1  0  0  0  0
 12 14  1  0  0  0  0
 13 12  1  0  0  0  0
 15 12  1  0  0  0  0
 16 19  1  0  0  0  0
 16 18  1  0  0  0  0
 17 16  1  0  0  0  0
 19 27  1  0  0  0  0
 20 22  1  0  0  0  0
 20 19  2  0  0  0  0
 21 20  1  0  0  0  0
 22 23  2  0  0  0  0
 23 24  1  0  0  0  0
 23 25  1  0  0  0  0
 25 26  1  0  0  0  0
 27 25  2  0  0  0  0
M  END
>  <minimizedAffinity>
-4.87796354

$$$$
