
 OpenBabel03242516293D

 46 50  0  0  0  0  0  0  0  0999 V2000
   49.8690   30.3550   49.6740 C   0  0  0  0  0  0  0  0  0  0  0  0
   50.0710   31.6250   50.1570 N   0  0  0  0  0  0  0  0  0  0  0  0
   50.7900   31.8940   51.2420 C   0  0  0  0  0  0  0  0  0  0  0  0
   51.3380   30.8650   51.8860 N   0  0  0  0  0  0  0  0  0  0  0  0
   51.1920   29.5960   51.4850 C   0  0  0  0  0  0  0  0  0  0  0  0
   51.7720   28.5240   52.1450 C   0  0  0  0  0  0  0  0  0  0  0  0
   51.6190   27.2490   51.7130 C   0  0  0  0  0  0  0  0  0  0  0  0
   50.8780   26.9930   50.6020 C   0  0  0  0  0  0  0  0  0  0  0  0
   50.2670   28.0330   49.8970 C   0  0  0  0  0  0  0  0  0  0  0  0
   50.4330   29.3110   50.3420 C   0  0  0  0  0  0  0  0  0  0  0  0
   50.9370   32.8960   51.6030 H   0  0  0  0  0  0  0  0  0  0  0  0
   52.3570   28.7290   53.0240 H   0  0  0  0  0  0  0  0  0  0  0  0
   52.1020   26.4430   52.2740 H   0  0  0  0  0  0  0  0  0  0  0  0
   50.7920   25.9470   50.3070 H   0  0  0  0  0  0  0  0  0  0  0  0
   49.4440   27.6350   48.7350 C   0  0  0  0  0  0  0  0  0  0  0  0
   48.3700   27.7840   48.8350 H   0  0  0  0  0  0  0  0  0  0  0  0
   49.9130   27.8630   47.7580 H   0  0  0  0  0  0  0  0  0  0  0  0
   49.4080   26.1140   48.6370 C   0  0  0  0  0  0  0  0  0  0  0  0
   50.4220   25.3600   48.0440 C   0  0  0  0  0  0  0  0  0  0  0  0
   51.2560   25.9570   47.6520 H   0  0  0  0  0  0  0  0  0  0  0  0
   50.4390   23.9910   47.9270 C   0  0  0  0  0  0  0  0  0  0  0  0
   49.3490   23.3260   48.4470 C   0  0  0  0  0  0  0  0  0  0  0  0
   49.2990   22.2470   48.3890 H   0  0  0  0  0  0  0  0  0  0  0  0
   48.2970   23.9820   49.0520 C   0  0  0  0  0  0  0  0  0  0  0  0
   47.4320   23.4540   49.4650 H   0  0  0  0  0  0  0  0  0  0  0  0
   48.3590   25.3560   49.1270 C   0  0  0  0  0  0  0  0  0  0  0  0
   48.9710   30.0680   48.2290 S   0  0  0  0  0  0  0  0  0  0  0  0
   46.1490   32.6170   46.9920 C   0  0  0  0  0  0  0  0  0  0  0  0
   47.2860   31.8430   47.0900 C   0  0  0  0  0  0  0  0  0  0  0  0
   47.4910   31.0040   48.1550 C   0  0  0  0  0  0  0  0  0  0  0  0
   46.5550   30.9140   49.1590 C   0  0  0  0  0  0  0  0  0  0  0  0
   45.4110   31.6550   49.1180 C   0  0  0  0  0  0  0  0  0  0  0  0
   45.2270   32.4940   48.0370 C   0  0  0  0  0  0  0  0  0  0  0  0
   48.0130   31.9240   46.2920 H   0  0  0  0  0  0  0  0  0  0  0  0
   46.7340   30.2450   49.9910 H   0  0  0  0  0  0  0  0  0  0  0  0
   44.6450   31.6260   49.8770 H   0  0  0  0  0  0  0  0  0  0  0  0
   44.3270   33.0930   47.9810 H   0  0  0  0  0  0  0  0  0  0  0  0
   44.7290   35.2930   44.9600 C   0  0  0  0  0  0  0  0  0  0  0  0
   45.4620   35.2170   43.7570 C   0  0  0  0  0  0  0  0  0  0  0  0
   46.4480   34.2430   43.6470 C   0  0  0  0  0  0  0  0  0  0  0  0
   46.6860   33.3870   44.6950 N   0  0  0  0  0  0  0  0  0  0  0  0
   45.9360   33.5070   45.8540 C   0  0  0  0  0  0  0  0  0  0  0  0
   44.9660   34.4480   45.9900 N   0  0  0  0  0  0  0  0  0  0  0  0
   43.9600   36.0750   45.0110 H   0  0  0  0  0  0  0  0  0  0  0  0
   45.2460   35.9060   42.9560 H   0  0  0  0  0  0  0  0  0  0  0  0
   47.0210   34.1610   42.7440 H   0  0  0  0  0  0  0  0  0  0  0  0
  1  2  2  0  0  0  0
  1 10  1  0  0  0  0
  2  3  1  0  0  0  0
  3 11  1  0  0  0  0
  3  4  2  0  0  0  0
  5  4  1  0  0  0  0
  5  6  1  0  0  0  0
  6 12  1  0  0  0  0
  7  6  2  0  0  0  0
  7 13  1  0  0  0  0
  8  7  1  0  0  0  0
  9 10  1  0  0  0  0
  9  8  2  0  0  0  0
 10  5  2  0  0  0  0
 14  8  1  0  0  0  0
 15 16  1  0  0  0  0
 15  9  1  0  0  0  0
 17 15  1  0  0  0  0
 18 15  1  0  0  0  0
 18 26  1  0  0  0  0
 19 18  2  0  0  0  0
 20 19  1  0  0  0  0
 21 19  1  0  0  0  0
 21 22  2  0  0  0  0
 22 24  1  0  0  0  0
 23 22  1  0  0  0  0
 24 26  2  0  0  0  0
 24 25  1  0  0  0  0
 27  1  1  0  0  0  0
 28 29  2  0  0  0  0
 28 33  1  0  0  0  0
 29 30  1  0  0  0  0
 30 27  1  0  0  0  0
 30 31  2  0  0  0  0
 31 35  1  0  0  0  0
 32 31  1  0  0  0  0
 32 36  1  0  0  0  0
 33 32  2  0  0  0  0
 34 29  1  0  0  0  0
 37 33  1  0  0  0  0
 38 44  1  0  0  0  0
 38 43  1  0  0  0  0
 39 38  2  0  0  0  0
 40 39  1  0  0  0  0
 40 41  2  0  0  0  0
 41 42  1  0  0  0  0
 42 43  2  0  0  0  0
 42 28  1  0  0  0  0
 45 39  1  0  0  0  0
 46 40  1  0  0  0  0
M  END
>  <minimizedAffinity>
-6.61761522

>  <minimizedRMSD>
0.309583992

$$$$
