
 OpenBabel03252509053D

 48 50  0  0  1  0  0  0  0  0999 V2000
   46.7710   34.3640   43.4750 N   0  0  0  0  0  0  0  0  0  0  0  0
   46.4870   34.9520   42.2260 C   0  0  0  0  0  0  0  0  0  0  0  0
   45.0230   34.9630   41.8490 C   0  0  0  0  0  0  0  0  0  0  0  0
   44.0930   35.1490   43.0210 C   0  0  0  0  0  0  0  0  0  0  0  0
   44.8520   35.3540   44.3170 C   0  0  0  0  0  0  0  0  0  0  0  0
   45.7870   34.0820   44.3930 C   0  0  2  0  0  0  0  0  0  0  0  0
   46.7820   36.0340   42.2810 H   0  0  0  0  0  0  0  0  0  0  0  0
   47.0200   34.5410   41.3570 H   0  0  0  0  0  0  0  0  0  0  0  0
   44.8670   35.7830   41.1100 H   0  0  0  0  0  0  0  0  0  0  0  0
   44.7340   34.0190   41.3200 H   0  0  0  0  0  0  0  0  0  0  0  0
   43.4940   36.0890   42.8740 H   0  0  0  0  0  0  0  0  0  0  0  0
   43.3730   34.3430   43.1660 H   0  0  0  0  0  0  0  0  0  0  0  0
   44.1430   35.2630   45.1530 H   0  0  0  0  0  0  0  0  0  0  0  0
   45.4650   36.2540   44.3400 H   0  0  0  0  0  0  0  0  0  0  0  0
   45.1250   33.2110   44.2200 H   0  0  0  0  0  0  0  0  0  0  0  0
   47.9830   33.5850   43.5040 C   0  0  0  0  0  0  0  0  0  0  0  0
   48.3740   33.4440   44.5290 H   0  0  0  0  0  0  0  0  0  0  0  0
   48.7520   34.2050   42.9880 H   0  0  0  0  0  0  0  0  0  0  0  0
   47.7550   32.3390   42.7310 C   0  0  0  0  0  0  0  0  0  0  0  0
   46.8290   32.3720   42.1040 H   0  0  0  0  0  0  0  0  0  0  0  0
   47.6330   31.4880   43.4200 H   0  0  0  0  0  0  0  0  0  0  0  0
   51.2440   32.1200   41.3660 C   0  0  0  0  0  0  0  0  0  0  0  0
   50.1570   32.3440   42.2310 C   0  0  0  0  0  0  0  0  0  0  0  0
   48.8870   32.0990   41.8070 C   0  0  0  0  0  0  0  0  0  0  0  0
   48.7340   31.6500   40.5650 N   0  0  0  0  0  0  0  0  0  0  0  0
   49.7600   31.4310   39.7240 C   0  0  0  0  0  0  0  0  0  0  0  0
   51.0230   31.6640   40.1180 N   0  0  0  0  0  0  0  0  0  0  0  0
   52.2590   32.3210   41.7170 H   0  0  0  0  0  0  0  0  0  0  0  0
   50.3670   32.7120   43.2340 H   0  0  0  0  0  0  0  0  0  0  0  0
   49.5950   31.0650   38.7210 H   0  0  0  0  0  0  0  0  0  0  0  0
   46.2190   34.1580   45.7030 O   0  0  0  0  0  0  0  0  0  0  0  0
   45.6440   31.5650   45.5850 O   0  0  0  0  0  0  0  0  0  0  0  0
   46.0430   32.6930   46.5280 P   0  0  2  0  0  0  0  0  0  0  0  0
   44.7290   32.9150   47.5860 O   0  0  0  0  0  0  0  0  0  0  0  0
   44.1180   32.1360   47.5760 H   0  0  0  0  0  0  0  0  0  0  0  0
   47.3850   32.3080   47.4430 O   0  0  0  0  0  0  0  0  0  0  0  0
   47.3550   30.9530   47.7360 C   0  0  0  0  0  0  0  0  0  0  0  0
   47.2480   30.3160   46.8310 H   0  0  0  0  0  0  0  0  0  0  0  0
   46.5200   30.7270   48.4360 H   0  0  0  0  0  0  0  0  0  0  0  0
   48.6530   30.6660   48.4330 C   0  0  0  0  0  0  0  0  0  0  0  0
   49.1420   31.6300   49.2970 C   0  0  0  0  0  0  0  0  0  0  0  0
   48.6010   32.5620   49.4620 H   0  0  0  0  0  0  0  0  0  0  0  0
   50.3180   31.4850   49.9930 C   0  0  0  0  0  3  0  0  0  0  0  0
   51.0660   30.3240   49.8360 C   0  0  0  0  0  0  0  0  0  0  0  0
   51.9920   30.1980   50.3780 H   0  0  0  0  0  0  0  0  0  0  0  0
   50.5650   29.3610   48.9650 C   0  0  0  0  0  0  0  0  0  0  0  0
   51.1140   28.4420   48.8120 H   0  0  0  0  0  0  0  0  0  0  0  0
   49.3820   29.5090   48.2660 C   0  0  0  0  0  3  0  0  0  0  0  0
  1 16  1  0  0  0  0
  1  6  1  0  0  0  0
  2  7  1  0  0  0  0
  2  1  1  0  0  0  0
  3  2  1  0  0  0  0
  3  4  1  0  0  0  0
  4 12  1  0  0  0  0
  4  5  1  0  0  0  0
  5 14  1  0  0  0  0
  5  6  1  0  0  0  0
  5 13  1  0  0  0  0
  6 15  1  6  0  0  0
  6 31  1  0  0  0  0
  8  2  1  0  0  0  0
  9  3  1  0  0  0  0
 10  3  1  0  0  0  0
 11  4  1  0  0  0  0
 16 17  1  0  0  0  0
 18 16  1  0  0  0  0
 19 21  1  0  0  0  0
 19 16  1  0  0  0  0
 20 19  1  0  0  0  0
 22 28  1  0  0  0  0
 22 23  1  0  0  0  0
 23 29  1  0  0  0  0
 24 23  2  0  0  0  0
 24 19  1  0  0  0  0
 25 24  1  0  0  0  0
 26 27  1  0  0  0  0
 26 25  2  0  0  0  0
 27 22  2  0  0  0  0
 30 26  1  0  0  0  0
 31 33  1  0  0  0  0
 33 32  2  6  0  0  0
 33 36  1  0  0  0  0
 33 34  1  0  0  0  0
 35 34  1  0  0  0  0
 36 37  1  0  0  0  0
 37 40  1  0  0  0  0
 37 39  1  0  0  0  0
 38 37  1  0  0  0  0
 40 41  1  0  0  0  0
 41 42  1  0  0  0  0
 41 43  2  0  0  0  0
 44 43  1  0  0  0  0
 44 45  1  0  0  0  0
 46 44  2  0  0  0  0
 47 46  1  0  0  0  0
 48 40  2  0  0  0  0
 48 46  1  0  0  0  0
M  END
>  <minimizedAffinity>
-5.08497953

>  <minimizedRMSD>
2.97653365

$$$$
