
 OpenBabel03252502253D

 34 36  0  0  1  0  0  0  0  0999 V2000
   37.0400   30.6940   39.5110 N   0  0  0  0  0  0  0  0  0  0  0  0
   37.1060   29.8940   38.2900 C   0  0  0  0  0  0  0  0  0  0  0  0
   35.6420   29.5930   37.9720 C   0  0  0  0  0  0  0  0  0  0  0  0
   35.0340   28.7300   39.0410 C   0  0  0  0  0  0  0  0  0  0  0  0
   35.4780   29.0460   40.4230 C   0  0  0  0  0  0  0  0  0  0  0  0
   36.1390   30.3880   40.5770 C   0  0  1  0  0  0  0  0  0  0  0  0
   37.5360   30.4820   37.4680 H   0  0  0  0  0  0  0  0  0  0  0  0
   37.6030   28.9210   38.4760 H   0  0  0  0  0  0  0  0  0  0  0  0
   35.0680   30.4870   37.7200 H   0  0  0  0  0  0  0  0  0  0  0  0
   35.6940   28.9880   37.0210 H   0  0  0  0  0  0  0  0  0  0  0  0
   33.9230   28.9340   38.9910 H   0  0  0  0  0  0  0  0  0  0  0  0
   35.1010   27.6330   38.8170 H   0  0  0  0  0  0  0  0  0  0  0  0
   34.6130   29.0570   41.1510 H   0  0  0  0  0  0  0  0  0  0  0  0
   36.1430   28.2350   40.7850 H   0  0  0  0  0  0  0  0  0  0  0  0
   35.3550   31.1800   40.5920 H   0  0  0  0  0  0  0  0  0  0  0  0
   38.3500   34.1610   40.0090 C   0  0  0  0  0  0  0  0  0  0  0  0
   37.3930   33.1340   39.8530 C   0  0  0  0  0  0  0  0  0  0  0  0
   37.8970   31.8350   39.6810 C   0  0  0  0  0  0  0  0  0  0  0  0
   39.2600   31.6590   39.6770 N   0  0  0  0  0  0  0  0  0  0  0  0
   40.1370   32.6680   39.8280 C   0  0  0  0  0  0  0  0  0  0  0  0
   39.6560   33.9330   39.9960 N   0  0  0  0  0  0  0  0  0  0  0  0
   37.9090   35.1420   40.1380 H   0  0  0  0  0  0  0  0  0  0  0  0
   36.3350   33.2750   39.8570 H   0  0  0  0  0  0  0  0  0  0  0  0
   41.1830   32.4600   39.8150 H   0  0  0  0  0  0  0  0  0  0  0  0
   36.8350   30.3760   41.7900 O   0  0  0  0  0  0  0  0  0  0  0  0
   37.4420   29.3120   42.3900 C   0  0  0  0  0  0  0  0  0  0  0  0
   36.9080   28.2280   43.0480 C   0  0  0  0  0  0  0  0  0  0  0  0
   35.8280   28.2460   43.0820 H   0  0  0  0  0  0  0  0  0  0  0  0
   37.7260   27.2550   43.5860 C   0  0  0  0  0  3  0  0  0  0  0  0
   39.0950   27.3310   43.4860 C   0  0  0  0  0  0  0  0  0  0  0  0
   39.7290   26.5610   43.9110 H   0  0  0  0  0  0  0  0  0  0  0  0
   39.6550   28.4020   42.8340 C   0  0  0  0  0  0  0  0  0  0  0  0
   40.7270   28.4340   42.7710 H   0  0  0  0  0  0  0  0  0  0  0  0
   38.8340   29.3830   42.2920 C   0  0  0  0  0  3  0  0  0  0  0  0
  1 18  1  0  0  0  0
  1  6  1  0  0  0  0
  2  8  1  0  0  0  0
  2  1  1  0  0  0  0
  3  2  1  0  0  0  0
  3  4  1  0  0  0  0
  4  5  1  0  0  0  0
  5  6  1  0  0  0  0
  5 14  1  0  0  0  0
  5 13  1  0  0  0  0
  6 15  1  1  0  0  0
  6 25  1  0  0  0  0
  7  2  1  0  0  0  0
  9  3  1  0  0  0  0
 10  3  1  0  0  0  0
 11  4  1  0  0  0  0
 12  4  1  0  0  0  0
 16 22  1  0  0  0  0
 17 23  1  0  0  0  0
 17 16  2  0  0  0  0
 18 17  1  0  0  0  0
 19 18  2  0  0  0  0
 19 20  1  0  0  0  0
 20 21  2  0  0  0  0
 21 16  1  0  0  0  0
 24 20  1  0  0  0  0
 25 26  1  0  0  0  0
 26 27  1  0  0  0  0
 27 28  1  0  0  0  0
 27 29  2  0  0  0  0
 30 29  1  0  0  0  0
 30 31  1  0  0  0  0
 32 30  2  0  0  0  0
 33 32  1  0  0  0  0
 34 26  2  0  0  0  0
 34 32  1  0  0  0  0
M  END
>  <minimizedAffinity>
-5.60119629

$$$$

 OpenBabel03252502253D

 34 36  0  0  1  0  0  0  0  0999 V2000
   36.7920   28.1450   40.9680 N   0  0  0  0  0  0  0  0  0  0  0  0
   36.9650   26.9200   41.7450 C   0  0  0  0  0  0  0  0  0  0  0  0
   36.6330   27.3460   43.1750 C   0  0  0  0  0  0  0  0  0  0  0  0
   37.6370   28.3430   43.6790 C   0  0  0  0  0  0  0  0  0  0  0  0
   38.1020   29.3250   42.6660 C   0  0  0  0  0  0  0  0  0  0  0  0
   37.2330   29.4190   41.4410 C   0  0  1  0  0  0  0  0  0  0  0  0
   36.2450   26.1560   41.4240 H   0  0  0  0  0  0  0  0  0  0  0  0
   38.0240   26.5920   41.7440 H   0  0  0  0  0  0  0  0  0  0  0  0
   35.5880   27.6410   43.3000 H   0  0  0  0  0  0  0  0  0  0  0  0
   36.7520   26.3960   43.7730 H   0  0  0  0  0  0  0  0  0  0  0  0
   37.1000   28.9230   44.4870 H   0  0  0  0  0  0  0  0  0  0  0  0
   38.4930   27.8710   44.2310 H   0  0  0  0  0  0  0  0  0  0  0  0
   38.1390   30.3740   43.0830 H   0  0  0  0  0  0  0  0  0  0  0  0
   39.1500   29.0920   42.3880 H   0  0  0  0  0  0  0  0  0  0  0  0
   36.3260   30.0200   41.6840 H   0  0  0  0  0  0  0  0  0  0  0  0
   35.9380   27.3860   37.4070 C   0  0  0  0  0  0  0  0  0  0  0  0
   36.6600   27.3290   38.6200 C   0  0  0  0  0  0  0  0  0  0  0  0
   36.1610   28.1050   39.6780 C   0  0  0  0  0  0  0  0  0  0  0  0
   35.0270   28.8530   39.4610 N   0  0  0  0  0  0  0  0  0  0  0  0
   34.3710   28.8780   38.2870 C   0  0  0  0  0  0  0  0  0  0  0  0
   34.8490   28.1260   37.2540 N   0  0  0  0  0  0  0  0  0  0  0  0
   36.3650   26.7690   36.6250 H   0  0  0  0  0  0  0  0  0  0  0  0
   37.5400   26.7480   38.7850 H   0  0  0  0  0  0  0  0  0  0  0  0
   33.4970   29.4800   38.1870 H   0  0  0  0  0  0  0  0  0  0  0  0
   37.9790   30.0560   40.4460 O   0  0  0  0  0  0  0  0  0  0  0  0
   38.2600   31.3880   40.3400 C   0  0  0  0  0  0  0  0  0  0  0  0
   39.4030   32.0910   40.6460 C   0  0  0  0  0  0  0  0  0  0  0  0
   40.1930   31.4630   41.0320 H   0  0  0  0  0  0  0  0  0  0  0  0
   39.4640   33.4560   40.4550 C   0  0  0  0  0  3  0  0  0  0  0  0
   38.3950   34.1610   39.9560 C   0  0  0  0  0  0  0  0  0  0  0  0
   38.4540   35.2340   39.8090 H   0  0  0  0  0  0  0  0  0  0  0  0
   37.2420   33.4840   39.6420 C   0  0  0  0  0  0  0  0  0  0  0  0
   36.4230   34.0610   39.2540 H   0  0  0  0  0  0  0  0  0  0  0  0
   37.1770   32.1100   39.8330 C   0  0  0  0  0  3  0  0  0  0  0  0
  1  6  1  0  0  0  0
  1  2  1  0  0  0  0
  2  3  1  0  0  0  0
  3  9  1  0  0  0  0
  3  4  1  0  0  0  0
  3 10  1  0  0  0  0
  4 12  1  0  0  0  0
  4 11  1  0  0  0  0
  5 13  1  0  0  0  0
  5  4  1  0  0  0  0
  6 15  1  1  0  0  0
  6  5  1  0  0  0  0
  7  2  1  0  0  0  0
  8  2  1  0  0  0  0
 14  5  1  0  0  0  0
 16 17  1  0  0  0  0
 17 23  1  0  0  0  0
 17 18  2  0  0  0  0
 18  1  1  0  0  0  0
 19 18  1  0  0  0  0
 20 19  2  0  0  0  0
 21 16  2  0  0  0  0
 21 20  1  0  0  0  0
 22 16  1  0  0  0  0
 24 20  1  0  0  0  0
 25  6  1  0  0  0  0
 26 25  1  0  0  0  0
 26 27  1  0  0  0  0
 27 28  1  0  0  0  0
 29 27  2  0  0  0  0
 30 29  1  0  0  0  0
 31 30  1  0  0  0  0
 32 34  1  0  0  0  0
 32 30  2  0  0  0  0
 33 32  1  0  0  0  0
 34 26  2  0  0  0  0
M  END
>  <minimizedAffinity>
-5.07759142

$$$$

 OpenBabel03252502253D

 34 36  0  0  1  0  0  0  0  0999 V2000
   36.3520   28.8980   39.9290 N   0  0  0  0  0  0  0  0  0  0  0  0
   34.9050   29.1010   39.9280 C   0  0  0  0  0  0  0  0  0  0  0  0
   34.4590   28.5360   38.5790 C   0  0  0  0  0  0  0  0  0  0  0  0
   35.0270   29.3480   37.4500 C   0  0  0  0  0  0  0  0  0  0  0  0
   36.4140   29.8320   37.6670 C   0  0  0  0  0  0  0  0  0  0  0  0
   37.1560   29.1280   38.7710 C   0  0  1  0  0  0  0  0  0  0  0  0
   34.4350   28.5190   40.7310 H   0  0  0  0  0  0  0  0  0  0  0  0
   34.6520   30.1800   39.9250 H   0  0  0  0  0  0  0  0  0  0  0  0
   34.6160   27.4580   38.4960 H   0  0  0  0  0  0  0  0  0  0  0  0
   33.3390   28.6790   38.5860 H   0  0  0  0  0  0  0  0  0  0  0  0
   35.0510   28.6480   36.5640 H   0  0  0  0  0  0  0  0  0  0  0  0
   34.3430   30.1690   37.1070 H   0  0  0  0  0  0  0  0  0  0  0  0
   37.0560   29.6970   36.7470 H   0  0  0  0  0  0  0  0  0  0  0  0
   36.3940   30.9270   37.8420 H   0  0  0  0  0  0  0  0  0  0  0  0
   37.5050   28.1360   38.4010 H   0  0  0  0  0  0  0  0  0  0  0  0
   38.2070   26.8660   42.4610 C   0  0  0  0  0  0  0  0  0  0  0  0
   37.5760   27.1670   41.2340 C   0  0  0  0  0  0  0  0  0  0  0  0
   37.0240   28.4530   41.1190 C   0  0  0  0  0  0  0  0  0  0  0  0
   37.1340   29.3090   42.1890 N   0  0  0  0  0  0  0  0  0  0  0  0
   37.7450   28.9790   43.3410 C   0  0  0  0  0  0  0  0  0  0  0  0
   38.2850   27.7310   43.4610 N   0  0  0  0  0  0  0  0  0  0  0  0
   38.6160   25.8620   42.4960 H   0  0  0  0  0  0  0  0  0  0  0  0
   37.4920   26.5010   40.4050 H   0  0  0  0  0  0  0  0  0  0  0  0
   37.7950   29.6930   44.1320 H   0  0  0  0  0  0  0  0  0  0  0  0
   38.2530   29.9260   39.1130 O   0  0  0  0  0  0  0  0  0  0  0  0
   38.2440   31.2430   39.4700 C   0  0  0  0  0  0  0  0  0  0  0  0
   37.3180   32.2320   39.2300 C   0  0  0  0  0  0  0  0  0  0  0  0
   36.4670   31.8830   38.6640 H   0  0  0  0  0  0  0  0  0  0  0  0
   37.5200   33.5160   39.6940 C   0  0  0  0  0  3  0  0  0  0  0  0
   38.6450   33.8550   40.4080 C   0  0  0  0  0  0  0  0  0  0  0  0
   38.7930   34.8660   40.7680 H   0  0  0  0  0  0  0  0  0  0  0  0
   39.5860   32.8870   40.6620 C   0  0  0  0  0  0  0  0  0  0  0  0
   40.4540   33.1800   41.2220 H   0  0  0  0  0  0  0  0  0  0  0  0
   39.3860   31.5940   40.1960 C   0  0  0  0  0  3  0  0  0  0  0  0
  1 18  1  0  0  0  0
  2  1  1  0  0  0  0
  2  7  1  0  0  0  0
  3 10  1  0  0  0  0
  3  2  1  0  0  0  0
  4  5  1  0  0  0  0
  4  3  1  0  0  0  0
  5 14  1  0  0  0  0
  5  6  1  0  0  0  0
  6 15  1  6  0  0  0
  6 25  1  0  0  0  0
  6  1  1  0  0  0  0
  8  2  1  0  0  0  0
  9  3  1  0  0  0  0
 11  4  1  0  0  0  0
 12  4  1  0  0  0  0
 13  5  1  0  0  0  0
 16 22  1  0  0  0  0
 16 21  1  0  0  0  0
 17 16  2  0  0  0  0
 18 17  1  0  0  0  0
 18 19  2  0  0  0  0
 19 20  1  0  0  0  0
 20 21  2  0  0  0  0
 20 24  1  0  0  0  0
 23 17  1  0  0  0  0
 25 26  1  0  0  0  0
 26 34  1  0  0  0  0
 27 26  2  0  0  0  0
 27 29  1  0  0  0  0
 28 27  1  0  0  0  0
 29 30  2  0  0  0  0
 30 32  1  0  0  0  0
 30 31  1  0  0  0  0
 32 33  1  0  0  0  0
 34 32  2  0  0  0  0
M  END
>  <minimizedAffinity>
-5.04192448

$$$$

 OpenBabel03252502253D

 34 36  0  0  1  0  0  0  0  0999 V2000
   38.5430   31.0400   41.0600 N   0  0  0  0  0  0  0  0  0  0  0  0
   39.5740   32.0750   41.0610 C   0  0  0  0  0  0  0  0  0  0  0  0
   38.7800   33.3810   41.0470 C   0  0  0  0  0  0  0  0  0  0  0  0
   38.0070   33.5180   39.7650 C   0  0  0  0  0  0  0  0  0  0  0  0
   37.4260   32.2520   39.2500 C   0  0  0  0  0  0  0  0  0  0  0  0
   37.3650   31.1360   40.2580 C   0  0  1  0  0  0  0  0  0  0  0  0
   40.1660   32.0280   41.9850 H   0  0  0  0  0  0  0  0  0  0  0  0
   40.1680   32.0490   40.1250 H   0  0  0  0  0  0  0  0  0  0  0  0
   38.1940   33.5340   41.9560 H   0  0  0  0  0  0  0  0  0  0  0  0
   39.5770   34.1800   41.0620 H   0  0  0  0  0  0  0  0  0  0  0  0
   37.1460   34.2070   40.0110 H   0  0  0  0  0  0  0  0  0  0  0  0
   38.5640   34.0800   38.9700 H   0  0  0  0  0  0  0  0  0  0  0  0
   36.3620   32.3900   38.8970 H   0  0  0  0  0  0  0  0  0  0  0  0
   37.9870   31.9360   38.3460 H   0  0  0  0  0  0  0  0  0  0  0  0
   36.5040   31.3130   40.9430 H   0  0  0  0  0  0  0  0  0  0  0  0
   39.8450   27.9580   42.7300 C   0  0  0  0  0  0  0  0  0  0  0  0
   39.8440   29.0780   41.8700 C   0  0  0  0  0  0  0  0  0  0  0  0
   38.6850   29.8700   41.8820 C   0  0  0  0  0  0  0  0  0  0  0  0
   37.6530   29.5040   42.7140 N   0  0  0  0  0  0  0  0  0  0  0  0
   37.6970   28.4260   43.5170 C   0  0  0  0  0  0  0  0  0  0  0  0
   38.8200   27.6510   43.5120 N   0  0  0  0  0  0  0  0  0  0  0  0
   40.7620   27.3820   42.6810 H   0  0  0  0  0  0  0  0  0  0  0  0
   40.6470   29.3600   41.2260 H   0  0  0  0  0  0  0  0  0  0  0  0
   36.8600   28.2000   44.1380 H   0  0  0  0  0  0  0  0  0  0  0  0
   37.1810   29.9430   39.5520 O   0  0  0  0  0  0  0  0  0  0  0  0
   36.0980   29.5770   38.8050 C   0  0  0  0  0  0  0  0  0  0  0  0
   35.9740   29.3540   37.4530 C   0  0  0  0  0  0  0  0  0  0  0  0
   36.9010   29.4990   36.9160 H   0  0  0  0  0  0  0  0  0  0  0  0
   34.7620   28.9850   36.9060 C   0  0  0  0  0  3  0  0  0  0  0  0
   33.6400   28.8280   37.6850 C   0  0  0  0  0  0  0  0  0  0  0  0
   32.6930   28.5370   37.2450 H   0  0  0  0  0  0  0  0  0  0  0  0
   33.7350   29.0450   39.0380 C   0  0  0  0  0  0  0  0  0  0  0  0
   32.8420   28.9150   39.6210 H   0  0  0  0  0  0  0  0  0  0  0  0
   34.9540   29.4160   39.5910 C   0  0  0  0  0  3  0  0  0  0  0  0
  1  2  1  0  0  0  0
  1 18  1  0  0  0  0
  2  7  1  0  0  0  0
  3  2  1  0  0  0  0
  3 10  1  0  0  0  0
  3  9  1  0  0  0  0
  4 11  1  0  0  0  0
  4  3  1  0  0  0  0
  5  4  1  0  0  0  0
  5  6  1  0  0  0  0
  6 15  1  1  0  0  0
  6  1  1  0  0  0  0
  8  2  1  0  0  0  0
 12  4  1  0  0  0  0
 13  5  1  0  0  0  0
 14  5  1  0  0  0  0
 16 21  1  0  0  0  0
 17 18  1  0  0  0  0
 17 16  2  0  0  0  0
 18 19  2  0  0  0  0
 19 20  1  0  0  0  0
 20 24  1  0  0  0  0
 21 20  2  0  0  0  0
 22 16  1  0  0  0  0
 23 17  1  0  0  0  0
 25  6  1  0  0  0  0
 26 25  1  0  0  0  0
 26 34  1  0  0  0  0
 27 26  2  0  0  0  0
 28 27  1  0  0  0  0
 29 27  1  0  0  0  0
 29 30  2  0  0  0  0
 30 32  1  0  0  0  0
 31 30  1  0  0  0  0
 32 34  2  0  0  0  0
 32 33  1  0  0  0  0
M  END
>  <minimizedAffinity>
-4.98237896

$$$$

 OpenBabel03252502253D

 34 36  0  0  1  0  0  0  0  0999 V2000
   37.8570   28.0120   40.8840 N   0  0  0  0  0  0  0  0  0  0  0  0
   38.0000   26.7280   41.5670 C   0  0  0  0  0  0  0  0  0  0  0  0
   36.9690   26.7970   42.6940 C   0  0  0  0  0  0  0  0  0  0  0  0
   37.3300   27.8730   43.6780 C   0  0  0  0  0  0  0  0  0  0  0  0
   37.9020   29.1040   43.0740 C   0  0  0  0  0  0  0  0  0  0  0  0
   37.6730   29.2380   41.5930 C   0  0  1  0  0  0  0  0  0  0  0  0
   37.7380   25.9020   40.8940 H   0  0  0  0  0  0  0  0  0  0  0  0
   38.9960   26.6400   42.0470 H   0  0  0  0  0  0  0  0  0  0  0  0
   35.9400   26.8340   42.3280 H   0  0  0  0  0  0  0  0  0  0  0  0
   37.0710   25.8000   43.2120 H   0  0  0  0  0  0  0  0  0  0  0  0
   36.3560   28.1630   44.1710 H   0  0  0  0  0  0  0  0  0  0  0  0
   37.9490   27.5000   44.5370 H   0  0  0  0  0  0  0  0  0  0  0  0
   37.4600   30.0400   43.5270 H   0  0  0  0  0  0  0  0  0  0  0  0
   38.9840   29.1570   43.3110 H   0  0  0  0  0  0  0  0  0  0  0  0
   36.6250   29.5750   41.4160 H   0  0  0  0  0  0  0  0  0  0  0  0
   36.9640   28.4760   37.2830 C   0  0  0  0  0  0  0  0  0  0  0  0
   36.7800   28.4510   38.6830 C   0  0  0  0  0  0  0  0  0  0  0  0
   37.8970   28.0810   39.4490 C   0  0  0  0  0  0  0  0  0  0  0  0
   39.0660   27.7750   38.7940 N   0  0  0  0  0  0  0  0  0  0  0  0
   39.1950   27.8120   37.4560 C   0  0  0  0  0  0  0  0  0  0  0  0
   38.1150   28.1710   36.7030 N   0  0  0  0  0  0  0  0  0  0  0  0
   36.0720   28.7680   36.7390 H   0  0  0  0  0  0  0  0  0  0  0  0
   35.8710   28.6890   39.1880 H   0  0  0  0  0  0  0  0  0  0  0  0
   40.1330   27.5620   37.0120 H   0  0  0  0  0  0  0  0  0  0  0  0
   38.5730   30.1950   41.1150 O   0  0  0  0  0  0  0  0  0  0  0  0
   38.2890   31.4520   40.6640 C   0  0  0  0  0  0  0  0  0  0  0  0
   37.2360   31.9200   39.9120 C   0  0  0  0  0  0  0  0  0  0  0  0
   36.5320   31.1450   39.6470 H   0  0  0  0  0  0  0  0  0  0  0  0
   37.1520   33.2540   39.5680 C   0  0  0  0  0  3  0  0  0  0  0  0
   38.1090   34.1600   39.9600 C   0  0  0  0  0  0  0  0  0  0  0  0
   38.0330   35.2060   39.6850 H   0  0  0  0  0  0  0  0  0  0  0  0
   39.1710   33.7200   40.7120 C   0  0  0  0  0  0  0  0  0  0  0  0
   39.9030   34.4500   41.0040 H   0  0  0  0  0  0  0  0  0  0  0  0
   39.2590   32.3780   41.0600 C   0  0  0  0  0  3  0  0  0  0  0  0
  1  2  1  0  0  0  0
  1  6  1  0  0  0  0
  2  8  1  0  0  0  0
  2  3  1  0  0  0  0
  3 10  1  0  0  0  0
  3  4  1  0  0  0  0
  4 11  1  0  0  0  0
  4 12  1  0  0  0  0
  5 14  1  0  0  0  0
  5 13  1  0  0  0  0
  5  4  1  0  0  0  0
  6 15  1  6  0  0  0
  6  5  1  0  0  0  0
  7  2  1  0  0  0  0
  9  3  1  0  0  0  0
 16 17  1  0  0  0  0
 17 23  1  0  0  0  0
 17 18  2  0  0  0  0
 18  1  1  0  0  0  0
 19 18  1  0  0  0  0
 20 19  2  0  0  0  0
 21 16  2  0  0  0  0
 21 20  1  0  0  0  0
 22 16  1  0  0  0  0
 24 20  1  0  0  0  0
 25  6  1  0  0  0  0
 26 34  1  0  0  0  0
 26 25  1  0  0  0  0
 27 26  2  0  0  0  0
 28 27  1  0  0  0  0
 29 27  1  0  0  0  0
 29 30  2  0  0  0  0
 30 32  1  0  0  0  0
 31 30  1  0  0  0  0
 32 33  1  0  0  0  0
 32 34  2  0  0  0  0
M  END
>  <minimizedAffinity>
-4.81401777

$$$$

 OpenBabel03252502253D

 34 36  0  0  1  0  0  0  0  0999 V2000
   36.9620   29.7910   37.9160 N   0  0  0  0  0  0  0  0  0  0  0  0
   36.6710   29.7800   36.4840 C   0  0  0  0  0  0  0  0  0  0  0  0
   35.2890   29.1320   36.3970 C   0  0  0  0  0  0  0  0  0  0  0  0
   35.3440   27.7020   36.8550 C   0  0  0  0  0  0  0  0  0  0  0  0
   36.2470   27.4520   38.0080 C   0  0  0  0  0  0  0  0  0  0  0  0
   36.6490   28.6870   38.7670 C   0  0  1  0  0  0  0  0  0  0  0  0
   36.6090   30.8050   36.0960 H   0  0  0  0  0  0  0  0  0  0  0  0
   37.3730   29.1170   35.9390 H   0  0  0  0  0  0  0  0  0  0  0  0
   34.5060   29.7350   36.8620 H   0  0  0  0  0  0  0  0  0  0  0  0
   35.0600   29.1370   35.2920 H   0  0  0  0  0  0  0  0  0  0  0  0
   34.2940   27.4580   37.1930 H   0  0  0  0  0  0  0  0  0  0  0  0
   35.5180   26.9750   36.0190 H   0  0  0  0  0  0  0  0  0  0  0  0
   35.7700   26.7750   38.7770 H   0  0  0  0  0  0  0  0  0  0  0  0
   37.1410   26.8970   37.6570 H   0  0  0  0  0  0  0  0  0  0  0  0
   35.8070   28.9990   39.4270 H   0  0  0  0  0  0  0  0  0  0  0  0
   37.6440   32.8450   39.9630 C   0  0  0  0  0  0  0  0  0  0  0  0
   36.9110   31.7550   39.4460 C   0  0  0  0  0  0  0  0  0  0  0  0
   37.5820   30.9350   38.5240 C   0  0  0  0  0  0  0  0  0  0  0  0
   38.8810   31.2490   38.1970 N   0  0  0  0  0  0  0  0  0  0  0  0
   39.5410   32.2990   38.7150 C   0  0  0  0  0  0  0  0  0  0  0  0
   38.8960   33.1000   39.6120 N   0  0  0  0  0  0  0  0  0  0  0  0
   37.0800   33.4440   40.6690 H   0  0  0  0  0  0  0  0  0  0  0  0
   35.9040   31.5140   39.7010 H   0  0  0  0  0  0  0  0  0  0  0  0
   40.5490   32.4850   38.4170 H   0  0  0  0  0  0  0  0  0  0  0  0
   37.7690   28.3590   39.5380 O   0  0  0  0  0  0  0  0  0  0  0  0
   37.8600   28.3250   40.9000 C   0  0  0  0  0  0  0  0  0  0  0  0
   38.8600   28.7530   41.7430 C   0  0  0  0  0  0  0  0  0  0  0  0
   39.7000   29.1820   41.2160 H   0  0  0  0  0  0  0  0  0  0  0  0
   38.7360   28.6170   43.1110 C   0  0  0  0  0  3  0  0  0  0  0  0
   37.6190   28.0530   43.6790 C   0  0  0  0  0  0  0  0  0  0  0  0
   37.5310   27.9510   44.7550 H   0  0  0  0  0  0  0  0  0  0  0  0
   36.6050   27.6170   42.8610 C   0  0  0  0  0  0  0  0  0  0  0  0
   35.7450   27.1810   43.3330 H   0  0  0  0  0  0  0  0  0  0  0  0
   36.7260   27.7530   41.4840 C   0  0  0  0  0  3  0  0  0  0  0  0
  1 18  1  0  0  0  0
  1  6  1  0  0  0  0
  2  1  1  0  0  0  0
  3  2  1  0  0  0  0
  3  4  1  0  0  0  0
  3  9  1  0  0  0  0
  4 11  1  0  0  0  0
  4  5  1  0  0  0  0
  5  6  1  0  0  0  0
  5 13  1  0  0  0  0
  6 15  1  1  0  0  0
  6 25  1  0  0  0  0
  7  2  1  0  0  0  0
  8  2  1  0  0  0  0
 10  3  1  0  0  0  0
 12  4  1  0  0  0  0
 14  5  1  0  0  0  0
 16 22  1  0  0  0  0
 17 23  1  0  0  0  0
 17 16  2  0  0  0  0
 18 17  1  0  0  0  0
 19 18  2  0  0  0  0
 19 20  1  0  0  0  0
 20 21  2  0  0  0  0
 21 16  1  0  0  0  0
 24 20  1  0  0  0  0
 25 26  1  0  0  0  0
 26 34  2  0  0  0  0
 26 27  1  0  0  0  0
 27 29  2  0  0  0  0
 28 27  1  0  0  0  0
 29 30  1  0  0  0  0
 30 31  1  0  0  0  0
 32 33  1  0  0  0  0
 32 30  2  0  0  0  0
 34 32  1  0  0  0  0
M  END
>  <minimizedAffinity>
-4.73895693

$$$$

 OpenBabel03252502253D

 34 36  0  0  1  0  0  0  0  0999 V2000
   37.5450   31.1270   39.3360 N   0  0  0  0  0  0  0  0  0  0  0  0
   36.9500   32.3360   39.9020 C   0  0  0  0  0  0  0  0  0  0  0  0
   38.1240   33.3090   40.0010 C   0  0  0  0  0  0  0  0  0  0  0  0
   39.1460   32.8090   40.9830 C   0  0  0  0  0  0  0  0  0  0  0  0
   39.3570   31.3390   40.9680 C   0  0  0  0  0  0  0  0  0  0  0  0
   38.8250   30.6430   39.7440 C   0  0  1  0  0  0  0  0  0  0  0  0
   36.1990   32.7520   39.2180 H   0  0  0  0  0  0  0  0  0  0  0  0
   36.5900   32.1570   40.9360 H   0  0  0  0  0  0  0  0  0  0  0  0
   38.5250   33.5950   39.0260 H   0  0  0  0  0  0  0  0  0  0  0  0
   37.6610   34.2460   40.4260 H   0  0  0  0  0  0  0  0  0  0  0  0
   40.1190   33.2900   40.6700 H   0  0  0  0  0  0  0  0  0  0  0  0
   38.9910   33.2010   42.0230 H   0  0  0  0  0  0  0  0  0  0  0  0
   40.4530   31.0700   41.0080 H   0  0  0  0  0  0  0  0  0  0  0  0
   38.9230   30.9000   41.8900 H   0  0  0  0  0  0  0  0  0  0  0  0
   39.5330   30.8060   38.8980 H   0  0  0  0  0  0  0  0  0  0  0  0
   35.0960   28.9600   37.5230 C   0  0  0  0  0  0  0  0  0  0  0  0
   35.6750   29.6540   38.6080 C   0  0  0  0  0  0  0  0  0  0  0  0
   36.8470   30.3750   38.3300 C   0  0  0  0  0  0  0  0  0  0  0  0
   37.3390   30.3520   37.0460 N   0  0  0  0  0  0  0  0  0  0  0  0
   36.7530   29.6750   36.0420 C   0  0  0  0  0  0  0  0  0  0  0  0
   35.6130   28.9730   36.3030 N   0  0  0  0  0  0  0  0  0  0  0  0
   34.1940   28.4220   37.7920 H   0  0  0  0  0  0  0  0  0  0  0  0
   35.2910   29.6700   39.6030 H   0  0  0  0  0  0  0  0  0  0  0  0
   37.1880   29.7000   35.0680 H   0  0  0  0  0  0  0  0  0  0  0  0
   38.7370   29.2800   40.0420 O   0  0  0  0  0  0  0  0  0  0  0  0
   38.3570   28.7090   41.2220 C   0  0  0  0  0  0  0  0  0  0  0  0
   37.1300   28.6690   41.8450 C   0  0  0  0  0  0  0  0  0  0  0  0
   36.3580   29.1810   41.2890 H   0  0  0  0  0  0  0  0  0  0  0  0
   36.9740   28.0230   43.0550 C   0  0  0  0  0  3  0  0  0  0  0  0
   38.0290   27.4010   43.6800 C   0  0  0  0  0  0  0  0  0  0  0  0
   37.8950   26.8960   44.6300 H   0  0  0  0  0  0  0  0  0  0  0  0
   39.2640   27.4260   43.0800 C   0  0  0  0  0  0  0  0  0  0  0  0
   40.0690   26.9310   43.5910 H   0  0  0  0  0  0  0  0  0  0  0  0
   39.4250   28.0740   41.8620 C   0  0  0  0  0  3  0  0  0  0  0  0
  1  6  1  0  0  0  0
  1  2  1  0  0  0  0
  2  3  1  0  0  0  0
  2  8  1  0  0  0  0
  3 10  1  0  0  0  0
  3  4  1  0  0  0  0
  4 12  1  0  0  0  0
  5  4  1  0  0  0  0
  5 13  1  0  0  0  0
  5 14  1  0  0  0  0
  6 15  1  6  0  0  0
  6 25  1  0  0  0  0
  6  5  1  0  0  0  0
  7  2  1  0  0  0  0
  9  3  1  0  0  0  0
 11  4  1  0  0  0  0
 16 22  1  0  0  0  0
 16 17  1  0  0  0  0
 17 23  1  0  0  0  0
 18 17  2  0  0  0  0
 18  1  1  0  0  0  0
 19 18  1  0  0  0  0
 20 21  1  0  0  0  0
 20 19  2  0  0  0  0
 21 16  2  0  0  0  0
 24 20  1  0  0  0  0
 25 26  1  0  0  0  0
 26 27  2  0  0  0  0
 26 34  1  0  0  0  0
 27 29  1  0  0  0  0
 28 27  1  0  0  0  0
 29 30  2  0  0  0  0
 30 31  1  0  0  0  0
 32 33  1  0  0  0  0
 32 30  1  0  0  0  0
 34 32  2  0  0  0  0
M  END
>  <minimizedAffinity>
-4.68058062

$$$$

 OpenBabel03252502253D

 34 36  0  0  1  0  0  0  0  0999 V2000
   38.6500   26.9180   42.2770 N   0  0  0  0  0  0  0  0  0  0  0  0
   39.2780   27.7300   43.3170 C   0  0  0  0  0  0  0  0  0  0  0  0
   40.7450   27.3060   43.2750 C   0  0  0  0  0  0  0  0  0  0  0  0
   40.8930   25.8660   43.6790 C   0  0  0  0  0  0  0  0  0  0  0  0
   39.8130   24.9690   43.1940 C   0  0  0  0  0  0  0  0  0  0  0  0
   38.9780   25.5410   42.0810 C   0  0  1  0  0  0  0  0  0  0  0  0
   39.2080   28.7970   43.0660 H   0  0  0  0  0  0  0  0  0  0  0  0
   38.8920   27.4610   44.3210 H   0  0  0  0  0  0  0  0  0  0  0  0
   41.2410   27.5740   42.3390 H   0  0  0  0  0  0  0  0  0  0  0  0
   41.2320   27.9440   44.0690 H   0  0  0  0  0  0  0  0  0  0  0  0
   41.8560   25.5210   43.2000 H   0  0  0  0  0  0  0  0  0  0  0  0
   41.0920   25.7310   44.7750 H   0  0  0  0  0  0  0  0  0  0  0  0
   40.2230   23.9980   42.7880 H   0  0  0  0  0  0  0  0  0  0  0  0
   39.1750   24.6720   44.0520 H   0  0  0  0  0  0  0  0  0  0  0  0
   39.5440   25.4620   41.1240 H   0  0  0  0  0  0  0  0  0  0  0  0
   35.6420   28.6650   40.9060 C   0  0  0  0  0  0  0  0  0  0  0  0
   36.5240   28.1520   41.8820 C   0  0  0  0  0  0  0  0  0  0  0  0
   37.6660   27.4900   41.4010 C   0  0  0  0  0  0  0  0  0  0  0  0
   37.8380   27.3910   40.0400 N   0  0  0  0  0  0  0  0  0  0  0  0
   36.9690   27.8960   39.1460 C   0  0  0  0  0  0  0  0  0  0  0  0
   35.8570   28.5400   39.6050 N   0  0  0  0  0  0  0  0  0  0  0  0
   34.7790   29.1660   41.3310 H   0  0  0  0  0  0  0  0  0  0  0  0
   36.3880   28.2310   42.9370 H   0  0  0  0  0  0  0  0  0  0  0  0
   37.1640   27.7830   38.1030 H   0  0  0  0  0  0  0  0  0  0  0  0
   37.8030   24.7860   42.0080 O   0  0  0  0  0  0  0  0  0  0  0  0
   37.4810   23.8350   41.0840 C   0  0  0  0  0  0  0  0  0  0  0  0
   38.1770   22.7280   40.6560 C   0  0  0  0  0  0  0  0  0  0  0  0
   39.1330   22.6150   41.1480 H   0  0  0  0  0  0  0  0  0  0  0  0
   37.6500   21.8900   39.6940 C   0  0  0  0  0  3  0  0  0  0  0  0
   36.4190   22.1280   39.1300 C   0  0  0  0  0  0  0  0  0  0  0  0
   36.0130   21.4630   38.3760 H   0  0  0  0  0  0  0  0  0  0  0  0
   35.7020   23.2270   39.5390 C   0  0  0  0  0  0  0  0  0  0  0  0
   34.7440   23.3860   39.0820 H   0  0  0  0  0  0  0  0  0  0  0  0
   36.2300   24.0710   40.5070 C   0  0  0  0  0  3  0  0  0  0  0  0
  1  2  1  0  0  0  0
  2  8  1  0  0  0  0
  3  2  1  0  0  0  0
  3  4  1  0  0  0  0
  3 10  1  0  0  0  0
  4 12  1  0  0  0  0
  5  4  1  0  0  0  0
  5 14  1  0  0  0  0
  6 15  1  6  0  0  0
  6  1  1  0  0  0  0
  6  5  1  0  0  0  0
  7  2  1  0  0  0  0
  9  3  1  0  0  0  0
 11  4  1  0  0  0  0
 13  5  1  0  0  0  0
 16 22  1  0  0  0  0
 16 17  1  0  0  0  0
 17 23  1  0  0  0  0
 18 17  2  0  0  0  0
 18  1  1  0  0  0  0
 19 18  1  0  0  0  0
 20 21  1  0  0  0  0
 20 19  2  0  0  0  0
 21 16  2  0  0  0  0
 24 20  1  0  0  0  0
 25  6  1  0  0  0  0
 26 25  1  0  0  0  0
 27 26  1  0  0  0  0
 27 28  1  0  0  0  0
 29 27  2  0  0  0  0
 30 32  2  0  0  0  0
 30 29  1  0  0  0  0
 31 30  1  0  0  0  0
 32 34  1  0  0  0  0
 33 32  1  0  0  0  0
 34 26  2  0  0  0  0
M  END
>  <minimizedAffinity>
-4.66393709

$$$$

 OpenBabel03252502253D

 34 36  0  0  1  0  0  0  0  0999 V2000
   37.8780   30.1320   40.8730 N   0  0  0  0  0  0  0  0  0  0  0  0
   38.0130   31.5870   40.8660 C   0  0  0  0  0  0  0  0  0  0  0  0
   39.5250   31.8120   40.8490 C   0  0  0  0  0  0  0  0  0  0  0  0
   40.1510   31.3090   42.1190 C   0  0  0  0  0  0  0  0  0  0  0  0
   39.5600   30.0540   42.6490 C   0  0  0  0  0  0  0  0  0  0  0  0
   38.7220   29.2900   41.6600 C   0  0  1  0  0  0  0  0  0  0  0  0
   37.5800   32.0100   39.9500 H   0  0  0  0  0  0  0  0  0  0  0  0
   37.6320   32.0290   41.8090 H   0  0  0  0  0  0  0  0  0  0  0  0
   39.9990   31.4580   39.9300 H   0  0  0  0  0  0  0  0  0  0  0  0
   39.6290   32.9360   40.8290 H   0  0  0  0  0  0  0  0  0  0  0  0
   41.2260   31.0870   41.8520 H   0  0  0  0  0  0  0  0  0  0  0  0
   40.2430   32.0990   42.9110 H   0  0  0  0  0  0  0  0  0  0  0  0
   40.3550   29.3250   42.9880 H   0  0  0  0  0  0  0  0  0  0  0  0
   38.9780   30.2850   43.5640 H   0  0  0  0  0  0  0  0  0  0  0  0
   39.3940   28.7400   40.9620 H   0  0  0  0  0  0  0  0  0  0  0  0
   34.6230   29.0110   39.4140 C   0  0  0  0  0  0  0  0  0  0  0  0
   35.4990   29.7080   40.2750 C   0  0  0  0  0  0  0  0  0  0  0  0
   36.8710   29.4910   40.0730 C   0  0  0  0  0  0  0  0  0  0  0  0
   37.2560   28.6320   39.0710 N   0  0  0  0  0  0  0  0  0  0  0  0
   36.3850   27.9880   38.2740 C   0  0  0  0  0  0  0  0  0  0  0  0
   35.0500   28.1920   38.4630 N   0  0  0  0  0  0  0  0  0  0  0  0
   33.5770   29.2140   39.6120 H   0  0  0  0  0  0  0  0  0  0  0  0
   35.1970   30.3740   41.0510 H   0  0  0  0  0  0  0  0  0  0  0  0
   36.7530   27.3340   37.5150 H   0  0  0  0  0  0  0  0  0  0  0  0
   37.9380   28.3870   42.3840 O   0  0  0  0  0  0  0  0  0  0  0  0
   37.9550   27.0240   42.3090 C   0  0  0  0  0  0  0  0  0  0  0  0
   37.0320   26.1420   41.7960 C   0  0  0  0  0  0  0  0  0  0  0  0
   36.1590   26.6340   41.3920 H   0  0  0  0  0  0  0  0  0  0  0  0
   37.2630   24.7820   41.8260 C   0  0  0  0  0  3  0  0  0  0  0  0
   38.4130   24.2590   42.3670 C   0  0  0  0  0  0  0  0  0  0  0  0
   38.5850   23.1890   42.3860 H   0  0  0  0  0  0  0  0  0  0  0  0
   39.3520   25.1170   42.8870 C   0  0  0  0  0  0  0  0  0  0  0  0
   40.2410   24.6800   43.3020 H   0  0  0  0  0  0  0  0  0  0  0  0
   39.1230   26.4870   42.8570 C   0  0  0  0  0  3  0  0  0  0  0  0
  1  6  1  0  0  0  0
  2  1  1  0  0  0  0
  2  8  1  0  0  0  0
  3  2  1  0  0  0  0
  3  4  1  0  0  0  0
  4  5  1  0  0  0  0
  4 12  1  0  0  0  0
  5 13  1  0  0  0  0
  5 14  1  0  0  0  0
  6 15  1  6  0  0  0
  6 25  1  0  0  0  0
  6  5  1  0  0  0  0
  7  2  1  0  0  0  0
  9  3  1  0  0  0  0
 10  3  1  0  0  0  0
 11  4  1  0  0  0  0
 16 22  1  0  0  0  0
 16 17  1  0  0  0  0
 17 23  1  0  0  0  0
 18 17  2  0  0  0  0
 18  1  1  0  0  0  0
 19 18  1  0  0  0  0
 20 21  1  0  0  0  0
 20 19  2  0  0  0  0
 21 16  2  0  0  0  0
 24 20  1  0  0  0  0
 26 25  1  0  0  0  0
 26 34  1  0  0  0  0
 27 29  1  0  0  0  0
 27 26  2  0  0  0  0
 28 27  1  0  0  0  0
 29 30  2  0  0  0  0
 30 31  1  0  0  0  0
 30 32  1  0  0  0  0
 32 33  1  0  0  0  0
 34 32  2  0  0  0  0
M  END
>  <minimizedAffinity>
-4.63025188

$$$$
