
 OpenBabel03252501573D

 31 33  0  0  0  0  0  0  0  0999 V2000
   44.8500   34.8790   44.9840 C   0  0  0  0  0  0  0  0  0  0  0  0
   45.4500   35.0390   43.7150 C   0  0  0  0  0  0  0  0  0  0  0  0
   46.5820   34.2550   43.4820 C   0  0  0  0  0  0  0  0  0  0  0  0
   47.0330   33.4110   44.4440 N   0  0  0  0  0  0  0  0  0  0  0  0
   46.4060   33.3130   45.6400 C   0  0  0  0  0  0  0  0  0  0  0  0
   45.3000   34.0480   45.9270 N   0  0  0  0  0  0  0  0  0  0  0  0
   43.9700   35.4660   45.2090 H   0  0  0  0  0  0  0  0  0  0  0  0
   46.9350   32.5930   46.2470 H   0  0  0  0  0  0  0  0  0  0  0  0
   47.2380   34.3890   42.1850 C   0  0  0  0  0  0  0  0  0  0  0  0
   48.1210   35.3790   41.7760 C   0  0  0  0  0  0  0  0  0  0  0  0
   48.6490   35.3620   40.5080 C   0  0  0  0  0  0  0  0  0  0  0  0
   48.2980   34.3540   39.6480 C   0  0  0  0  0  0  0  0  0  0  0  0
   47.4240   33.3630   40.0410 C   0  0  0  0  0  0  0  0  0  0  0  0
   46.8870   33.3800   41.3270 C   0  0  0  0  0  0  0  0  0  0  0  0
   48.2850   36.1030   42.5950 H   0  0  0  0  0  0  0  0  0  0  0  0
   49.3300   36.1980   40.3090 H   0  0  0  0  0  0  0  0  0  0  0  0
   48.7490   34.3940   38.6550 H   0  0  0  0  0  0  0  0  0  0  0  0
   47.1790   32.5940   39.3280 H   0  0  0  0  0  0  0  0  0  0  0  0
   46.2190   32.5710   41.5380 H   0  0  0  0  0  0  0  0  0  0  0  0
   44.8690   35.9860   42.7910 C   0  0  0  0  0  0  0  0  0  0  0  0
   45.7370   36.4420   42.1960 H   0  0  0  0  0  0  0  0  0  0  0  0
   44.3970   36.8250   43.3890 H   0  0  0  0  0  0  0  0  0  0  0  0
   43.8890   35.4960   41.8390 C   0  0  0  0  0  0  0  0  0  0  0  0
   43.9530   34.8780   40.6050 C   0  0  0  0  0  0  0  0  0  0  0  0
   45.0080   34.7350   40.3110 H   0  0  0  0  0  0  0  0  0  0  0  0
   42.8280   34.5230   39.9070 C   0  0  0  0  0  0  0  0  0  0  0  0
   41.5660   34.7410   40.3490 C   0  0  0  0  0  0  0  0  0  0  0  0
   40.7170   34.4500   39.7710 H   0  0  0  0  0  0  0  0  0  0  0  0
   41.4370   35.3650   41.5930 C   0  0  0  0  0  0  0  0  0  0  0  0
   40.4260   35.5340   41.9330 H   0  0  0  0  0  0  0  0  0  0  0  0
   42.5830   35.7170   42.2880 C   0  0  0  0  0  0  0  0  0  0  0  0
  1  7  1  0  0  0  0
  1  6  1  0  0  0  0
  2  1  2  0  0  0  0
  3  2  1  0  0  0  0
  3  4  2  0  0  0  0
  4  5  1  0  0  0  0
  5  6  2  0  0  0  0
  5  8  1  0  0  0  0
  9  3  1  0  0  0  0
 10  9  1  0  0  0  0
 10 15  1  0  0  0  0
 11 10  2  0  0  0  0
 12 13  2  0  0  0  0
 12 11  1  0  0  0  0
 13 14  1  0  0  0  0
 14 19  1  0  0  0  0
 14  9  2  0  0  0  0
 16 11  1  0  0  0  0
 17 12  1  0  0  0  0
 18 13  1  0  0  0  0
 20 22  1  0  0  0  0
 20  2  1  0  0  0  0
 21 20  1  0  0  0  0
 23 31  1  0  0  0  0
 23 20  1  0  0  0  0
 24 23  2  0  0  0  0
 25 24  1  0  0  0  0
 26 27  2  0  0  0  0
 26 24  1  0  0  0  0
 27 29  1  0  0  0  0
 28 27  1  0  0  0  0
 29 30  1  0  0  0  0
 29 31  2  0  0  0  0
M  END
>  <minimizedAffinity>
-5.65885782

>  <minimizedRMSD>
0.684905648

$$$$
