
 OpenBabel03242520533D

 27 28  0  0  0  0  0  0  0  0999 V2000
   45.8340   32.9120   46.3370 C   0  0  0  0  0  0  0  0  0  0  0  0
   45.2590   32.9180   47.5010 C   0  0  0  0  0  0  0  0  0  0  0  0
   44.5060   35.9430   44.7480 C   0  0  0  0  0  0  0  0  0  0  0  0
   45.2330   35.9780   43.5530 C   0  0  0  0  0  0  0  0  0  0  0  0
   46.1640   34.9830   43.2920 C   0  0  0  0  0  0  0  0  0  0  0  0
   46.3190   34.0130   44.2260 N   0  0  0  0  0  0  0  0  0  0  0  0
   45.6090   33.9990   45.3680 C   0  0  0  0  0  0  0  0  0  0  0  0
   44.7130   34.9480   45.6300 N   0  0  0  0  0  0  0  0  0  0  0  0
   43.7990   36.7480   44.8850 H   0  0  0  0  0  0  0  0  0  0  0  0
   45.1370   36.7320   42.7880 H   0  0  0  0  0  0  0  0  0  0  0  0
   46.9540   34.8810   42.1640 O   0  0  0  0  0  0  0  0  0  0  0  0
   46.3820   34.1830   41.0440 C   0  0  0  0  0  0  0  0  0  0  0  0
   45.1300   34.7160   40.7690 F   0  0  0  0  0  0  0  0  0  0  0  0
   47.2200   34.3990   39.9430 F   0  0  0  0  0  0  0  0  0  0  0  0
   46.3150   32.8190   41.2850 F   0  0  0  0  0  0  0  0  0  0  0  0
   45.4390   31.8560   48.5260 C   0  0  0  0  0  0  0  0  0  0  0  0
   44.5800   31.1850   48.4900 H   0  0  0  0  0  0  0  0  0  0  0  0
   45.4180   32.3990   49.5150 H   0  0  0  0  0  0  0  0  0  0  0  0
   46.7320   31.1530   48.3860 C   0  0  0  0  0  0  0  0  0  0  0  0
   47.9100   31.6330   48.9220 C   0  0  0  0  0  0  0  0  0  0  0  0
   47.8180   32.5830   49.4640 H   0  0  0  0  0  0  0  0  0  0  0  0
   49.1360   31.0110   48.8160 C   0  0  0  0  0  0  0  0  0  0  0  0
   49.1330   29.8140   48.1060 C   0  0  0  0  0  0  0  0  0  0  0  0
   50.1120   29.3230   48.0240 H   0  0  0  0  0  0  0  0  0  0  0  0
   48.0120   29.2510   47.5320 C   0  0  0  0  0  0  0  0  0  0  0  0
   48.0600   28.3170   46.9900 H   0  0  0  0  0  0  0  0  0  0  0  0
   46.8230   29.9450   47.6890 C   0  0  0  0  0  0  0  0  0  0  0  0
  1  2  2  0  0  0  0
  2 16  1  0  0  0  0
  3  9  1  0  0  0  0
  3  8  1  0  0  0  0
  4  3  2  0  0  0  0
  5  4  1  0  0  0  0
  5  6  2  0  0  0  0
  6  7  1  0  0  0  0
  7  8  2  0  0  0  0
  7  1  1  0  0  0  0
 10  4  1  0  0  0  0
 11  5  1  0  0  0  0
 12 15  1  0  0  0  0
 12 11  1  0  0  0  0
 13 12  1  0  0  0  0
 14 12  1  0  0  0  0
 16 18  1  0  0  0  0
 17 16  1  0  0  0  0
 19 16  1  0  0  0  0
 19 20  1  0  0  0  0
 20 21  1  0  0  0  0
 22 20  2  0  0  0  0
 23 22  1  0  0  0  0
 24 23  1  0  0  0  0
 25 27  1  0  0  0  0
 25 23  2  0  0  0  0
 26 25  1  0  0  0  0
 27 19  2  0  0  0  0
M  END
>  <minimizedAffinity>
-5.36061716

>  <minimizedRMSD>
0.628962696

$$$$
