
 OpenBabel03252502243D

 34 36  0  0  1  0  0  0  0  0999 V2000
   46.7520   34.5790   42.2840 N   0  0  0  0  0  0  0  0  0  0  0  0
   48.2120   34.5430   42.3230 C   0  0  0  0  0  0  0  0  0  0  0  0
   48.6290   35.3090   41.0680 C   0  0  0  0  0  0  0  0  0  0  0  0
   48.1950   34.5750   39.8310 C   0  0  0  0  0  0  0  0  0  0  0  0
   46.8680   33.9160   39.9310 C   0  0  0  0  0  0  0  0  0  0  0  0
   46.0150   34.3960   41.0730 C   0  0  1  0  0  0  0  0  0  0  0  0
   48.5860   35.0760   43.2070 H   0  0  0  0  0  0  0  0  0  0  0  0
   48.5890   33.5070   42.2100 H   0  0  0  0  0  0  0  0  0  0  0  0
   48.3490   36.3640   41.1000 H   0  0  0  0  0  0  0  0  0  0  0  0
   49.7570   35.2930   41.1070 H   0  0  0  0  0  0  0  0  0  0  0  0
   48.1160   35.3680   39.0290 H   0  0  0  0  0  0  0  0  0  0  0  0
   48.9800   33.8830   39.4270 H   0  0  0  0  0  0  0  0  0  0  0  0
   46.2430   34.0840   39.0050 H   0  0  0  0  0  0  0  0  0  0  0  0
   47.0110   32.8170   39.9810 H   0  0  0  0  0  0  0  0  0  0  0  0
   45.5640   35.3790   40.8020 H   0  0  0  0  0  0  0  0  0  0  0  0
   44.4670   36.0030   44.8790 C   0  0  0  0  0  0  0  0  0  0  0  0
   45.1470   35.9100   43.6450 C   0  0  0  0  0  0  0  0  0  0  0  0
   45.9960   34.8030   43.4860 C   0  0  0  0  0  0  0  0  0  0  0  0
   46.1030   33.9070   44.5230 N   0  0  0  0  0  0  0  0  0  0  0  0
   45.4350   34.0360   45.6840 C   0  0  0  0  0  0  0  0  0  0  0  0
   44.6070   35.1080   45.8470 N   0  0  0  0  0  0  0  0  0  0  0  0
   43.8260   36.8740   44.9500 H   0  0  0  0  0  0  0  0  0  0  0  0
   45.0630   36.6070   42.8420 H   0  0  0  0  0  0  0  0  0  0  0  0
   45.5640   33.3030   46.4480 H   0  0  0  0  0  0  0  0  0  0  0  0
   45.0100   33.4460   41.2750 O   0  0  0  0  0  0  0  0  0  0  0  0
   43.6640   33.6130   41.1220 C   0  0  0  0  0  0  0  0  0  0  0  0
   42.6180   32.7610   41.3920 C   0  0  0  0  0  0  0  0  0  0  0  0
   42.9410   31.8090   41.7890 H   0  0  0  0  0  0  0  0  0  0  0  0
   41.3140   33.1470   41.1550 C   0  0  0  0  0  0  0  0  0  0  0  0
   41.0130   34.3860   40.6440 C   0  0  0  0  0  0  0  0  0  0  0  0
   39.9850   34.6800   40.4620 H   0  0  0  0  0  0  0  0  0  0  0  0
   42.0380   35.2570   40.3650 C   0  0  0  0  0  0  0  0  0  0  0  0
   41.7720   36.2190   39.9680 H   0  0  0  0  0  0  0  0  0  0  0  0
   43.3510   34.8720   40.6030 C   0  0  0  0  0  0  0  0  0  0  0  0
  1  2  1  0  0  0  0
  1 18  1  0  0  0  0
  2  7  1  0  0  0  0
  3  9  1  0  0  0  0
  3 10  1  0  0  0  0
  3  2  1  0  0  0  0
  4  5  1  0  0  0  0
  4  3  1  0  0  0  0
  5 14  1  0  0  0  0
  5  6  1  0  0  0  0
  6 15  1  6  0  0  0
  6 25  1  0  0  0  0
  6  1  1  0  0  0  0
  8  2  1  0  0  0  0
 11  4  1  0  0  0  0
 12  4  1  0  0  0  0
 13  5  1  0  0  0  0
 16 22  1  0  0  0  0
 16 21  1  0  0  0  0
 17 16  2  0  0  0  0
 18 17  1  0  0  0  0
 18 19  2  0  0  0  0
 19 20  1  0  0  0  0
 20 21  2  0  0  0  0
 20 24  1  0  0  0  0
 23 17  1  0  0  0  0
 26 25  1  0  0  0  0
 26 27  1  0  0  0  0
 27 28  1  0  0  0  0
 29 27  2  0  0  0  0
 30 29  1  0  0  0  0
 31 30  1  0  0  0  0
 32 34  1  0  0  0  0
 32 30  2  0  0  0  0
 33 32  1  0  0  0  0
 34 26  2  0  0  0  0
M  END
>  <minimizedAffinity>
-5.73652744

>  <minimizedRMSD>
0.463464439

$$$$
