
 OpenBabel03252509293D

 21 22  0  0  0  0  0  0  0  0999 V2000
   44.7120   34.3090   42.4870 C   0  0  0  0  0  0  0  0  0  0  0  0
   44.5900   34.8670   43.4570 H   0  0  0  0  0  0  0  0  0  0  0  0
   43.8900   34.6040   41.7870 H   0  0  0  0  0  0  0  0  0  0  0  0
   47.4310   34.1620   39.9480 C   0  0  0  0  0  0  0  0  0  0  0  0
   46.1920   33.9720   40.5900 C   0  0  0  0  0  0  0  0  0  0  0  0
   46.0080   34.5220   41.8470 C   0  0  0  0  0  0  0  0  0  0  0  0
   47.0300   35.2180   42.4070 N   0  0  0  0  0  0  0  0  0  0  0  0
   48.2220   35.3890   41.7690 C   0  0  0  0  0  0  0  0  0  0  0  0
   48.4050   34.8580   40.5490 N   0  0  0  0  0  0  0  0  0  0  0  0
   47.5480   33.7280   38.9790 H   0  0  0  0  0  0  0  0  0  0  0  0
   45.4150   33.4090   40.0920 H   0  0  0  0  0  0  0  0  0  0  0  0
   48.9860   35.9690   42.3070 H   0  0  0  0  0  0  0  0  0  0  0  0
   44.6440   32.8500   42.8170 C   0  0  0  0  0  0  0  0  0  0  0  0
   45.5320   32.3360   43.7260 C   0  0  0  0  0  0  0  0  0  0  0  0
   46.2600   33.0250   44.1750 H   0  0  0  0  0  0  0  0  0  0  0  0
   45.6290   31.0320   44.1580 C   0  0  0  0  0  3  0  0  0  0  0  0
   44.6990   30.1600   43.5820 C   0  0  0  0  0  0  0  0  0  0  0  0
   44.7400   29.1190   43.8960 H   0  0  0  0  0  0  0  0  0  0  0  0
   43.7810   30.6340   42.6570 C   0  0  0  0  0  0  0  0  0  0  0  0
   43.0680   29.9230   42.2270 H   0  0  0  0  0  0  0  0  0  0  0  0
   43.7450   31.9630   42.2710 C   0  0  0  0  0  3  0  0  0  0  0  0
  1 13  1  0  0  0  0
  1  2  1  0  0  0  0
  3  1  1  0  0  0  0
  4  9  2  0  0  0  0
  4  5  1  0  0  0  0
  5  6  2  0  0  0  0
  6  7  1  0  0  0  0
  6  1  1  0  0  0  0
  8 12  1  0  0  0  0
  8  7  2  0  0  0  0
  9  8  1  0  0  0  0
 10  4  1  0  0  0  0
 11  5  1  0  0  0  0
 13 14  1  0  0  0  0
 14 16  2  0  0  0  0
 14 15  1  0  0  0  0
 17 18  1  0  0  0  0
 17 16  1  0  0  0  0
 19 17  2  0  0  0  0
 20 19  1  0  0  0  0
 21 19  1  0  0  0  0
 21 13  2  0  0  0  0
M  END
>  <minimizedAffinity>
-2.99526167

>  <minimizedRMSD>
5.67427731

$$$$
