
 OpenBabel03252509303D

 21 22  0  0  0  0  0  0  0  0999 V2000
   45.8100   35.1080   42.1570 C   0  0  0  0  0  0  0  0  0  0  0  0
   46.6950   34.7590   41.5530 H   0  0  0  0  0  0  0  0  0  0  0  0
   45.8360   36.2230   42.2350 H   0  0  0  0  0  0  0  0  0  0  0  0
   42.3360   35.2800   40.8280 C   0  0  0  0  0  0  0  0  0  0  0  0
   43.5860   35.6630   41.3530 C   0  0  0  0  0  0  0  0  0  0  0  0
   44.5230   34.6780   41.6130 C   0  0  0  0  0  0  0  0  0  0  0  0
   44.1980   33.3860   41.3530 N   0  0  0  0  0  0  0  0  0  0  0  0
   42.9820   33.0370   40.8450 C   0  0  0  0  0  0  0  0  0  0  0  0
   42.0700   33.9890   40.5910 N   0  0  0  0  0  0  0  0  0  0  0  0
   41.6310   36.0570   40.6360 H   0  0  0  0  0  0  0  0  0  0  0  0
   43.7870   36.7090   41.5390 H   0  0  0  0  0  0  0  0  0  0  0  0
   42.8160   31.9640   40.6690 H   0  0  0  0  0  0  0  0  0  0  0  0
   45.9290   34.4670   43.5040 C   0  0  0  0  0  0  0  0  0  0  0  0
   45.1000   34.8870   44.5130 C   0  0  0  0  0  0  0  0  0  0  0  0
   44.3800   35.6850   44.2820 H   0  0  0  0  0  0  0  0  0  0  0  0
   45.0550   34.4260   45.8090 C   0  0  0  0  0  3  0  0  0  0  0  0
   45.9750   33.4110   46.0950 C   0  0  0  0  0  0  0  0  0  0  0  0
   45.9730   33.0170   47.1090 H   0  0  0  0  0  0  0  0  0  0  0  0
   46.8330   32.9510   45.1070 C   0  0  0  0  0  0  0  0  0  0  0  0
   47.5390   32.1570   45.3670 H   0  0  0  0  0  0  0  0  0  0  0  0
   46.8190   33.4670   43.8230 C   0  0  0  0  0  3  0  0  0  0  0  0
  1  3  1  0  0  0  0
  1 13  1  0  0  0  0
  2  1  1  0  0  0  0
  4  5  1  0  0  0  0
  5 11  1  0  0  0  0
  5  6  2  0  0  0  0
  6  1  1  0  0  0  0
  7  6  1  0  0  0  0
  8  7  2  0  0  0  0
  9  4  2  0  0  0  0
  9  8  1  0  0  0  0
 10  4  1  0  0  0  0
 12  8  1  0  0  0  0
 13 21  2  0  0  0  0
 13 14  1  0  0  0  0
 14 16  2  0  0  0  0
 15 14  1  0  0  0  0
 16 17  1  0  0  0  0
 17 18  1  0  0  0  0
 19 20  1  0  0  0  0
 19 17  2  0  0  0  0
 21 19  1  0  0  0  0
M  END
>  <minimizedAffinity>
-3.90900159

>  <minimizedRMSD>
4.57744741

$$$$
