
 OpenBabel03252505313D

 27 28  0  0  0  0  0  0  0  0999 V2000
   37.9420   30.0220   42.6800 O   0  0  0  0  0  0  0  0  0  0  0  0
   37.1170   29.9050   41.3940 P   0  0  1  0  0  0  0  0  0  0  0  0
   35.7010   30.8240   41.5040 O   0  0  0  0  0  0  0  0  0  0  0  0
   34.9120   30.3470   41.1590 H   0  0  0  0  0  0  0  0  0  0  0  0
   38.0860   30.4210   40.1100 O   0  0  0  0  0  0  0  0  0  0  0  0
   40.4400   32.9180   39.1650 C   0  0  0  0  0  0  0  0  0  0  0  0
   39.9270   34.1090   39.7480 C   0  0  0  0  0  0  0  0  0  0  0  0
   38.7340   33.9940   40.4780 C   0  0  0  0  0  0  0  0  0  0  0  0
   38.1470   32.7510   40.5790 N   0  0  0  0  0  0  0  0  0  0  0  0
   38.6840   31.6690   40.0030 C   0  0  0  0  0  0  0  0  0  0  0  0
   39.8080   31.7590   39.3110 N   0  0  0  0  0  0  0  0  0  0  0  0
   41.3600   32.9740   38.5940 H   0  0  0  0  0  0  0  0  0  0  0  0
   40.4370   35.0460   39.6300 H   0  0  0  0  0  0  0  0  0  0  0  0
   38.3060   34.8720   40.9410 H   0  0  0  0  0  0  0  0  0  0  0  0
   36.6800   28.2840   41.2440 O   0  0  0  0  0  0  0  0  0  0  0  0
   36.5940   27.7470   42.5030 C   0  0  0  0  0  0  0  0  0  0  0  0
   36.9610   28.5440   43.2110 H   0  0  0  0  0  0  0  0  0  0  0  0
   35.5420   27.5060   42.7540 H   0  0  0  0  0  0  0  0  0  0  0  0
   37.4800   26.5550   42.5670 C   0  0  0  0  0  0  0  0  0  0  0  0
   38.7180   26.7400   43.1820 C   0  0  0  0  0  0  0  0  0  0  0  0
   39.0620   27.6910   43.6090 H   0  0  0  0  0  0  0  0  0  0  0  0
   39.5820   25.6690   43.2710 C   0  0  0  0  0  3  0  0  0  0  0  0
   39.2930   24.3950   42.7780 C   0  0  0  0  0  0  0  0  0  0  0  0
   39.9580   23.5640   42.8440 H   0  0  0  0  0  0  0  0  0  0  0  0
   38.0490   24.3040   42.1850 C   0  0  0  0  0  0  0  0  0  0  0  0
   37.7420   23.3310   41.7700 H   0  0  0  0  0  0  0  0  0  0  0  0
   37.1390   25.3180   42.0610 C   0  0  0  0  0  3  0  0  0  0  0  0
  2  3  1  0  0  0  0
  2  1  2  1  0  0  0
  4  3  1  0  0  0  0
  5  2  1  0  0  0  0
  6 11  2  0  0  0  0
  6  7  1  0  0  0  0
  7  8  2  0  0  0  0
  8  9  1  0  0  0  0
  8 14  1  0  0  0  0
 10  5  1  0  0  0  0
 10  9  2  0  0  0  0
 11 10  1  0  0  0  0
 12  6  1  0  0  0  0
 13  7  1  0  0  0  0
 15  2  1  0  0  0  0
 15 16  1  0  0  0  0
 16 19  1  0  0  0  0
 16 18  1  0  0  0  0
 16 17  1  0  0  0  0
 19 20  1  0  0  0  0
 20 22  2  0  0  0  0
 20 21  1  0  0  0  0
 23 24  1  0  0  0  0
 23 22  1  0  0  0  0
 25 23  2  0  0  0  0
 26 25  1  0  0  0  0
 27 25  1  0  0  0  0
 27 19  2  0  0  0  0
M  END
>  <minimizedAffinity>
-5.22557735

$$$$

 OpenBabel03252505313D

 27 28  0  0  0  0  0  0  0  0999 V2000
   38.4420   31.1230   41.4150 O   0  0  0  0  0  0  0  0  0  0  0  0
   37.2540   30.1540   41.4180 P   0  0  1  0  0  0  0  0  0  0  0  0
   35.7900   31.0000   41.4560 O   0  0  0  0  0  0  0  0  0  0  0  0
   35.1430   30.6080   42.0850 H   0  0  0  0  0  0  0  0  0  0  0  0
   37.3710   29.1900   40.0350 O   0  0  0  0  0  0  0  0  0  0  0  0
   34.1910   28.8000   38.4850 C   0  0  0  0  0  0  0  0  0  0  0  0
   34.4710   28.9250   37.0950 C   0  0  0  0  0  0  0  0  0  0  0  0
   35.8090   29.1470   36.7370 C   0  0  0  0  0  0  0  0  0  0  0  0
   36.7500   29.2310   37.7400 N   0  0  0  0  0  0  0  0  0  0  0  0
   36.4170   29.1050   39.0300 C   0  0  0  0  0  0  0  0  0  0  0  0
   35.1610   28.8950   39.3870 N   0  0  0  0  0  0  0  0  0  0  0  0
   33.1660   28.6280   38.7950 H   0  0  0  0  0  0  0  0  0  0  0  0
   33.6880   28.8480   36.3650 H   0  0  0  0  0  0  0  0  0  0  0  0
   36.0710   29.2480   35.6930 H   0  0  0  0  0  0  0  0  0  0  0  0
   37.3740   29.2460   42.8330 O   0  0  0  0  0  0  0  0  0  0  0  0
   36.7880   28.0260   42.6060 C   0  0  0  0  0  0  0  0  0  0  0  0
   35.9690   27.9230   43.3730 H   0  0  0  0  0  0  0  0  0  0  0  0
   36.3360   27.9910   41.5960 H   0  0  0  0  0  0  0  0  0  0  0  0
   37.8140   26.9690   42.8060 C   0  0  0  0  0  0  0  0  0  0  0  0
   37.5710   25.7470   42.1790 C   0  0  0  0  0  0  0  0  0  0  0  0
   36.6860   25.5320   41.5650 H   0  0  0  0  0  0  0  0  0  0  0  0
   38.4880   24.7290   42.3290 C   0  0  0  0  0  3  0  0  0  0  0  0
   39.6610   24.8440   43.0770 C   0  0  0  0  0  0  0  0  0  0  0  0
   40.3730   24.0600   43.1950 H   0  0  0  0  0  0  0  0  0  0  0  0
   39.8210   26.0860   43.6610 C   0  0  0  0  0  0  0  0  0  0  0  0
   40.7220   26.2610   44.2700 H   0  0  0  0  0  0  0  0  0  0  0  0
   38.9580   27.1420   43.5580 C   0  0  0  0  0  3  0  0  0  0  0  0
  2  1  2  6  0  0  0
  2  3  1  0  0  0  0
  2 15  1  0  0  0  0
  3  4  1  0  0  0  0
  5  2  1  0  0  0  0
  6 12  1  0  0  0  0
  6 11  1  0  0  0  0
  7  6  2  0  0  0  0
  8  7  1  0  0  0  0
  8  9  2  0  0  0  0
  9 10  1  0  0  0  0
 10 11  2  0  0  0  0
 10  5  1  0  0  0  0
 13  7  1  0  0  0  0
 14  8  1  0  0  0  0
 16 19  1  0  0  0  0
 16 15  1  0  0  0  0
 16 17  1  0  0  0  0
 18 16  1  0  0  0  0
 19 27  1  0  0  0  0
 20 22  1  0  0  0  0
 20 19  2  0  0  0  0
 21 20  1  0  0  0  0
 22 23  2  0  0  0  0
 23 24  1  0  0  0  0
 23 25  1  0  0  0  0
 25 26  1  0  0  0  0
 27 25  2  0  0  0  0
M  END
>  <minimizedAffinity>
-5.01376486

$$$$

 OpenBabel03252505313D

 27 28  0  0  0  0  0  0  0  0999 V2000
   39.5380   28.5280   43.1550 O   0  0  0  0  0  0  0  0  0  0  0  0
   38.5390   29.3340   42.3190 P   0  0  1  0  0  0  0  0  0  0  0  0
   37.0780   29.5280   43.1500 O   0  0  0  0  0  0  0  0  0  0  0  0
   36.2930   29.3840   42.5750 H   0  0  0  0  0  0  0  0  0  0  0  0
   39.2470   30.8280   41.9670 O   0  0  0  0  0  0  0  0  0  0  0  0
   36.9870   32.4210   39.7270 C   0  0  0  0  0  0  0  0  0  0  0  0
   37.5030   33.7400   39.6010 C   0  0  0  0  0  0  0  0  0  0  0  0
   38.6660   34.0370   40.3290 C   0  0  0  0  0  0  0  0  0  0  0  0
   39.2210   33.0440   41.1080 N   0  0  0  0  0  0  0  0  0  0  0  0
   38.6820   31.8220   41.1810 C   0  0  0  0  0  0  0  0  0  0  0  0
   37.5860   31.5240   40.5010 N   0  0  0  0  0  0  0  0  0  0  0  0
   36.0890   32.1600   39.1760 H   0  0  0  0  0  0  0  0  0  0  0  0
   37.0200   34.4660   38.9750 H   0  0  0  0  0  0  0  0  0  0  0  0
   39.0960   35.0260   40.2660 H   0  0  0  0  0  0  0  0  0  0  0  0
   38.2350   28.4350   40.9260 O   0  0  0  0  0  0  0  0  0  0  0  0
   37.1270   27.6590   41.1520 C   0  0  0  0  0  0  0  0  0  0  0  0
   37.4720   26.5890   41.0860 H   0  0  0  0  0  0  0  0  0  0  0  0
   36.7230   27.8400   42.1680 H   0  0  0  0  0  0  0  0  0  0  0  0
   36.1290   27.9440   40.0870 C   0  0  0  0  0  0  0  0  0  0  0  0
   36.1780   27.1210   38.9620 C   0  0  0  0  0  0  0  0  0  0  0  0
   36.8930   26.2990   38.8260 H   0  0  0  0  0  0  0  0  0  0  0  0
   35.2760   27.3380   37.9410 C   0  0  0  0  0  3  0  0  0  0  0  0
   34.3050   28.3410   37.9620 C   0  0  0  0  0  0  0  0  0  0  0  0
   33.6070   28.5120   37.1760 H   0  0  0  0  0  0  0  0  0  0  0  0
   34.3310   29.1060   39.1120 C   0  0  0  0  0  0  0  0  0  0  0  0
   33.5960   29.9210   39.2090 H   0  0  0  0  0  0  0  0  0  0  0  0
   35.1910   28.9520   40.1650 C   0  0  0  0  0  3  0  0  0  0  0  0
  2  3  1  0  0  0  0
  2  1  2  1  0  0  0
  4  3  1  0  0  0  0
  5  2  1  0  0  0  0
  6 11  1  0  0  0  0
  7  6  2  0  0  0  0
  7  8  1  0  0  0  0
  8  9  2  0  0  0  0
  9 10  1  0  0  0  0
 10  5  1  0  0  0  0
 11 10  2  0  0  0  0
 12  6  1  0  0  0  0
 13  7  1  0  0  0  0
 14  8  1  0  0  0  0
 15 16  1  0  0  0  0
 15  2  1  0  0  0  0
 16 18  1  0  0  0  0
 17 16  1  0  0  0  0
 19 27  1  0  0  0  0
 19 16  1  0  0  0  0
 20 19  2  0  0  0  0
 21 20  1  0  0  0  0
 22 23  2  0  0  0  0
 22 20  1  0  0  0  0
 23 25  1  0  0  0  0
 24 23  1  0  0  0  0
 25 26  1  0  0  0  0
 25 27  2  0  0  0  0
M  END
>  <minimizedAffinity>
-4.70274448

$$$$

 OpenBabel03252505313D

 27 28  0  0  0  0  0  0  0  0999 V2000
   36.3820   29.7410   36.5430 O   0  0  0  0  0  0  0  0  0  0  0  0
   37.4020   29.9940   37.6580 P   0  0  1  0  0  0  0  0  0  0  0  0
   38.9810   29.9320   37.0530 O   0  0  0  0  0  0  0  0  0  0  0  0
   39.5910   29.4300   37.6390 H   0  0  0  0  0  0  0  0  0  0  0  0
   37.0630   31.5050   38.3350 O   0  0  0  0  0  0  0  0  0  0  0  0
   38.3820   34.1590   40.3050 C   0  0  0  0  0  0  0  0  0  0  0  0
   39.7840   34.0890   40.0780 C   0  0  0  0  0  0  0  0  0  0  0  0
   40.2350   33.0810   39.2130 C   0  0  0  0  0  0  0  0  0  0  0  0
   39.3030   32.2360   38.6500 N   0  0  0  0  0  0  0  0  0  0  0  0
   37.9960   32.3590   38.9070 C   0  0  0  0  0  0  0  0  0  0  0  0
   37.5520   33.3040   39.7200 N   0  0  0  0  0  0  0  0  0  0  0  0
   38.0010   34.9280   40.9690 H   0  0  0  0  0  0  0  0  0  0  0  0
   40.4560   34.7800   40.5500 H   0  0  0  0  0  0  0  0  0  0  0  0
   41.2930   32.9870   39.0100 H   0  0  0  0  0  0  0  0  0  0  0  0
   37.2190   28.7450   38.7760 O   0  0  0  0  0  0  0  0  0  0  0  0
   36.2530   29.1170   39.6750 C   0  0  0  0  0  0  0  0  0  0  0  0
   36.0530   30.2110   39.4900 H   0  0  0  0  0  0  0  0  0  0  0  0
   35.3170   28.5510   39.5010 H   0  0  0  0  0  0  0  0  0  0  0  0
   36.7880   28.9190   41.0480 C   0  0  0  0  0  0  0  0  0  0  0  0
   36.2490   27.8560   41.7730 C   0  0  0  0  0  0  0  0  0  0  0  0
   35.4720   27.1790   41.3930 H   0  0  0  0  0  0  0  0  0  0  0  0
   36.7080   27.6240   43.0520 C   0  0  0  0  0  3  0  0  0  0  0  0
   37.6900   28.3940   43.6770 C   0  0  0  0  0  0  0  0  0  0  0  0
   38.0480   28.2180   44.6650 H   0  0  0  0  0  0  0  0  0  0  0  0
   38.1670   29.4230   42.8880 C   0  0  0  0  0  0  0  0  0  0  0  0
   38.9460   30.0790   43.3060 H   0  0  0  0  0  0  0  0  0  0  0  0
   37.7630   29.7140   41.6130 C   0  0  0  0  0  3  0  0  0  0  0  0
  2  1  2  6  0  0  0
  2  5  1  0  0  0  0
  2 15  1  0  0  0  0
  3  4  1  0  0  0  0
  3  2  1  0  0  0  0
  5 10  1  0  0  0  0
  6 12  1  0  0  0  0
  7  6  1  0  0  0  0
  7 13  1  0  0  0  0
  8  7  2  0  0  0  0
  9 10  2  0  0  0  0
  9  8  1  0  0  0  0
 10 11  1  0  0  0  0
 11  6  2  0  0  0  0
 14  8  1  0  0  0  0
 15 16  1  0  0  0  0
 16 19  1  0  0  0  0
 17 16  1  0  0  0  0
 18 16  1  0  0  0  0
 19 27  2  0  0  0  0
 19 20  1  0  0  0  0
 20 22  2  0  0  0  0
 21 20  1  0  0  0  0
 22 23  1  0  0  0  0
 23 24  1  0  0  0  0
 25 26  1  0  0  0  0
 25 23  2  0  0  0  0
 27 25  1  0  0  0  0
M  END
>  <minimizedAffinity>
-4.58962965

$$$$

 OpenBabel03252505313D

 27 28  0  0  0  0  0  0  0  0999 V2000
   39.5140   28.1720   43.2800 O   0  0  0  0  0  0  0  0  0  0  0  0
   38.1240   28.2230   42.6380 P   0  0  1  0  0  0  0  0  0  0  0  0
   37.1370   29.3430   43.4320 O   0  0  0  0  0  0  0  0  0  0  0  0
   36.2260   29.0040   43.5860 H   0  0  0  0  0  0  0  0  0  0  0  0
   38.3230   28.6260   41.0080 O   0  0  0  0  0  0  0  0  0  0  0  0
   37.7280   32.1050   40.5550 C   0  0  0  0  0  0  0  0  0  0  0  0
   37.0730   32.1790   39.2950 C   0  0  0  0  0  0  0  0  0  0  0  0
   36.8540   30.9660   38.6240 C   0  0  0  0  0  0  0  0  0  0  0  0
   37.2830   29.8010   39.2220 N   0  0  0  0  0  0  0  0  0  0  0  0
   37.8940   29.8040   40.4120 C   0  0  0  0  0  0  0  0  0  0  0  0
   38.1090   30.9370   41.0600 N   0  0  0  0  0  0  0  0  0  0  0  0
   37.9120   33.0260   41.0990 H   0  0  0  0  0  0  0  0  0  0  0  0
   36.7640   33.1220   38.8860 H   0  0  0  0  0  0  0  0  0  0  0  0
   36.3590   30.9710   37.6630 H   0  0  0  0  0  0  0  0  0  0  0  0
   37.4440   26.6930   42.8310 O   0  0  0  0  0  0  0  0  0  0  0  0
   38.4280   25.7600   42.6250 C   0  0  0  0  0  0  0  0  0  0  0  0
   39.2950   26.3120   42.1630 H   0  0  0  0  0  0  0  0  0  0  0  0
   38.7580   25.3210   43.5870 H   0  0  0  0  0  0  0  0  0  0  0  0
   37.9110   24.7340   41.6820 C   0  0  0  0  0  0  0  0  0  0  0  0
   38.8180   23.7530   41.2800 C   0  0  0  0  0  0  0  0  0  0  0  0
   39.8620   23.7010   41.6150 H   0  0  0  0  0  0  0  0  0  0  0  0
   38.3940   22.7750   40.4050 C   0  0  0  0  0  3  0  0  0  0  0  0
   37.1000   22.7030   39.8880 C   0  0  0  0  0  0  0  0  0  0  0  0
   36.7680   21.9490   39.2120 H   0  0  0  0  0  0  0  0  0  0  0  0
   36.2710   23.7120   40.3380 C   0  0  0  0  0  0  0  0  0  0  0  0
   35.2310   23.7280   39.9780 H   0  0  0  0  0  0  0  0  0  0  0  0
   36.6170   24.7130   41.2040 C   0  0  0  0  0  3  0  0  0  0  0  0
  2 15  1  0  0  0  0
  2  1  2  1  0  0  0
  2  3  1  0  0  0  0
  3  4  1  0  0  0  0
  5  2  1  0  0  0  0
  6 11  1  0  0  0  0
  6 12  1  0  0  0  0
  7  6  2  0  0  0  0
  8  9  2  0  0  0  0
  8  7  1  0  0  0  0
  9 10  1  0  0  0  0
 10  5  1  0  0  0  0
 10 11  2  0  0  0  0
 13  7  1  0  0  0  0
 14  8  1  0  0  0  0
 16 15  1  0  0  0  0
 16 18  1  0  0  0  0
 17 16  1  0  0  0  0
 19 16  1  0  0  0  0
 20 21  1  0  0  0  0
 20 19  1  0  0  0  0
 22 20  2  0  0  0  0
 23 25  2  0  0  0  0
 23 22  1  0  0  0  0
 24 23  1  0  0  0  0
 25 27  1  0  0  0  0
 26 25  1  0  0  0  0
 27 19  2  0  0  0  0
M  END
>  <minimizedAffinity>
-4.57749271

$$$$

 OpenBabel03252505313D

 27 28  0  0  0  0  0  0  0  0999 V2000
   38.2140   30.4440   41.6510 O   0  0  0  0  0  0  0  0  0  0  0  0
   36.8520   29.8690   41.2510 P   0  0  1  0  0  0  0  0  0  0  0  0
   35.6410   31.0410   41.3900 O   0  0  0  0  0  0  0  0  0  0  0  0
   34.8210   30.6920   41.8080 H   0  0  0  0  0  0  0  0  0  0  0  0
   36.9780   29.3000   39.6640 O   0  0  0  0  0  0  0  0  0  0  0  0
   36.2890   25.9500   38.6830 C   0  0  0  0  0  0  0  0  0  0  0  0
   37.5760   25.3570   38.5620 C   0  0  0  0  0  0  0  0  0  0  0  0
   38.6790   26.1790   38.8390 C   0  0  0  0  0  0  0  0  0  0  0  0
   38.4450   27.4880   39.2030 N   0  0  0  0  0  0  0  0  0  0  0  0
   37.2050   27.9820   39.2970 C   0  0  0  0  0  0  0  0  0  0  0  0
   36.1530   27.2220   39.0400 N   0  0  0  0  0  0  0  0  0  0  0  0
   35.4150   25.3410   38.4760 H   0  0  0  0  0  0  0  0  0  0  0  0
   37.6870   24.3290   38.2740 H   0  0  0  0  0  0  0  0  0  0  0  0
   39.6780   25.7740   38.7610 H   0  0  0  0  0  0  0  0  0  0  0  0
   36.5100   28.6290   42.3410 O   0  0  0  0  0  0  0  0  0  0  0  0
   37.6710   28.3060   42.9960 C   0  0  0  0  0  0  0  0  0  0  0  0
   38.4680   28.9850   42.5800 H   0  0  0  0  0  0  0  0  0  0  0  0
   37.5730   28.4970   44.0820 H   0  0  0  0  0  0  0  0  0  0  0  0
   37.9980   26.8870   42.6980 C   0  0  0  0  0  0  0  0  0  0  0  0
   36.9170   26.0460   42.4340 C   0  0  0  0  0  0  0  0  0  0  0  0
   35.8670   26.3690   42.4350 H   0  0  0  0  0  0  0  0  0  0  0  0
   37.1610   24.7190   42.1510 C   0  0  0  0  0  3  0  0  0  0  0  0
   38.4370   24.1550   42.1110 C   0  0  0  0  0  0  0  0  0  0  0  0
   38.6300   23.1290   41.8930 H   0  0  0  0  0  0  0  0  0  0  0  0
   39.4460   25.0580   42.3850 C   0  0  0  0  0  0  0  0  0  0  0  0
   40.4850   24.6940   42.3740 H   0  0  0  0  0  0  0  0  0  0  0  0
   39.2830   26.3850   42.6730 C   0  0  0  0  0  3  0  0  0  0  0  0
  2  3  1  0  0  0  0
  2  1  2  1  0  0  0
  2 15  1  0  0  0  0
  3  4  1  0  0  0  0
  5  2  1  0  0  0  0
  6 11  1  0  0  0  0
  7  6  2  0  0  0  0
  7  8  1  0  0  0  0
  8  9  2  0  0  0  0
  9 10  1  0  0  0  0
 10  5  1  0  0  0  0
 11 10  2  0  0  0  0
 12  6  1  0  0  0  0
 13  7  1  0  0  0  0
 14  8  1  0  0  0  0
 15 16  1  0  0  0  0
 16 18  1  0  0  0  0
 17 16  1  0  0  0  0
 19 16  1  0  0  0  0
 20 21  1  0  0  0  0
 20 19  2  0  0  0  0
 22 20  1  0  0  0  0
 23 22  2  0  0  0  0
 23 25  1  0  0  0  0
 24 23  1  0  0  0  0
 25 27  2  0  0  0  0
 26 25  1  0  0  0  0
 27 19  1  0  0  0  0
M  END
>  <minimizedAffinity>
-4.50717878

$$$$

 OpenBabel03252505313D

 27 28  0  0  0  0  0  0  0  0999 V2000
   35.9110   28.4210   38.6170 O   0  0  0  0  0  0  0  0  0  0  0  0
   36.7380   28.8210   39.8430 P   0  0  1  0  0  0  0  0  0  0  0  0
   38.3920   28.6360   39.5370 O   0  0  0  0  0  0  0  0  0  0  0  0
   38.8720   28.2180   40.2880 H   0  0  0  0  0  0  0  0  0  0  0  0
   36.3590   30.4240   40.2220 O   0  0  0  0  0  0  0  0  0  0  0  0
   39.3290   32.1440   41.1620 C   0  0  0  0  0  0  0  0  0  0  0  0
   39.1380   33.4590   40.6530 C   0  0  0  0  0  0  0  0  0  0  0  0
   37.9340   33.7060   39.9750 C   0  0  0  0  0  0  0  0  0  0  0  0
   37.0300   32.6730   39.8490 N   0  0  0  0  0  0  0  0  0  0  0  0
   37.2750   31.4580   40.3530 C   0  0  0  0  0  0  0  0  0  0  0  0
   38.4040   31.2060   40.9950 N   0  0  0  0  0  0  0  0  0  0  0  0
   40.2490   31.9210   41.6900 H   0  0  0  0  0  0  0  0  0  0  0  0
   39.8850   34.2170   40.7870 H   0  0  0  0  0  0  0  0  0  0  0  0
   37.7440   34.6900   39.5710 H   0  0  0  0  0  0  0  0  0  0  0  0
   36.3120   27.7610   41.0830 O   0  0  0  0  0  0  0  0  0  0  0  0
   37.0150   28.1150   42.2060 C   0  0  0  0  0  0  0  0  0  0  0  0
   37.6190   29.0250   41.9270 H   0  0  0  0  0  0  0  0  0  0  0  0
   36.3260   28.3850   43.0300 H   0  0  0  0  0  0  0  0  0  0  0  0
   37.9180   26.9910   42.5680 C   0  0  0  0  0  0  0  0  0  0  0  0
   37.6190   25.7520   42.0010 C   0  0  0  0  0  0  0  0  0  0  0  0
   36.7760   25.5700   41.3210 H   0  0  0  0  0  0  0  0  0  0  0  0
   38.4220   24.6720   42.3010 C   0  0  0  0  0  3  0  0  0  0  0  0
   39.5300   24.7400   43.1480 C   0  0  0  0  0  0  0  0  0  0  0  0
   40.1530   23.9080   43.3830 H   0  0  0  0  0  0  0  0  0  0  0  0
   39.7500   26.0020   43.6650 C   0  0  0  0  0  0  0  0  0  0  0  0
   40.6060   26.1420   44.3430 H   0  0  0  0  0  0  0  0  0  0  0  0
   39.0010   27.1180   43.4130 C   0  0  0  0  0  3  0  0  0  0  0  0
  2  1  2  6  0  0  0
  2  5  1  0  0  0  0
  2 15  1  0  0  0  0
  3  2  1  0  0  0  0
  3  4  1  0  0  0  0
  5 10  1  0  0  0  0
  6 12  1  0  0  0  0
  7 13  1  0  0  0  0
  7  6  2  0  0  0  0
  8  7  1  0  0  0  0
  9  8  2  0  0  0  0
  9 10  1  0  0  0  0
 10 11  2  0  0  0  0
 11  6  1  0  0  0  0
 14  8  1  0  0  0  0
 15 16  1  0  0  0  0
 16 19  1  0  0  0  0
 16 18  1  0  0  0  0
 17 16  1  0  0  0  0
 19 27  1  0  0  0  0
 20 22  1  0  0  0  0
 20 19  2  0  0  0  0
 21 20  1  0  0  0  0
 22 23  2  0  0  0  0
 23 24  1  0  0  0  0
 23 25  1  0  0  0  0
 25 26  1  0  0  0  0
 27 25  2  0  0  0  0
M  END
>  <minimizedAffinity>
-4.43709707

$$$$

 OpenBabel03252505313D

 27 28  0  0  0  0  0  0  0  0999 V2000
   40.3150   28.2070   41.5780 O   0  0  0  0  0  0  0  0  0  0  0  0
   39.3780   29.3420   42.0040 P   0  0  1  0  0  0  0  0  0  0  0  0
   40.2060   30.4890   42.9310 O   0  0  0  0  0  0  0  0  0  0  0  0
   39.6930   30.7830   43.7180 H   0  0  0  0  0  0  0  0  0  0  0  0
   38.7350   30.0340   40.6030 O   0  0  0  0  0  0  0  0  0  0  0  0
   37.2360   33.0420   39.4340 C   0  0  0  0  0  0  0  0  0  0  0  0
   38.0900   34.0660   39.9300 C   0  0  0  0  0  0  0  0  0  0  0  0
   39.2010   33.6530   40.6810 C   0  0  0  0  0  0  0  0  0  0  0  0
   39.3860   32.3030   40.8870 N   0  0  0  0  0  0  0  0  0  0  0  0
   38.5410   31.3920   40.3910 C   0  0  0  0  0  0  0  0  0  0  0  0
   37.4890   31.7620   39.6800 N   0  0  0  0  0  0  0  0  0  0  0  0
   36.3680   33.3290   38.8480 H   0  0  0  0  0  0  0  0  0  0  0  0
   37.8870   35.1000   39.7310 H   0  0  0  0  0  0  0  0  0  0  0  0
   39.8790   34.3940   41.0800 H   0  0  0  0  0  0  0  0  0  0  0  0
   38.1840   28.6490   42.9710 O   0  0  0  0  0  0  0  0  0  0  0  0
   37.0380   28.5430   42.2240 C   0  0  0  0  0  0  0  0  0  0  0  0
   36.1820   28.7380   42.9300 H   0  0  0  0  0  0  0  0  0  0  0  0
   37.0210   29.3090   41.4240 H   0  0  0  0  0  0  0  0  0  0  0  0
   36.9550   27.1590   41.6860 C   0  0  0  0  0  0  0  0  0  0  0  0
   37.0210   26.1280   42.6220 C   0  0  0  0  0  0  0  0  0  0  0  0
   37.1280   26.2810   43.7050 H   0  0  0  0  0  0  0  0  0  0  0  0
   36.9490   24.8240   42.1810 C   0  0  0  0  0  3  0  0  0  0  0  0
   36.8130   24.4650   40.8390 C   0  0  0  0  0  0  0  0  0  0  0  0
   36.7570   23.4580   40.4930 H   0  0  0  0  0  0  0  0  0  0  0  0
   36.7570   25.5470   39.9830 C   0  0  0  0  0  0  0  0  0  0  0  0
   36.6490   25.3510   38.9050 H   0  0  0  0  0  0  0  0  0  0  0  0
   36.8200   26.8650   40.3450 C   0  0  0  0  0  3  0  0  0  0  0  0
  2  1  2  6  0  0  0
  2  3  1  0  0  0  0
  2 15  1  0  0  0  0
  3  4  1  0  0  0  0
  5  2  1  0  0  0  0
  6 11  2  0  0  0  0
  6  7  1  0  0  0  0
  7  8  2  0  0  0  0
  8  9  1  0  0  0  0
  8 14  1  0  0  0  0
 10  5  1  0  0  0  0
 10  9  2  0  0  0  0
 11 10  1  0  0  0  0
 12  6  1  0  0  0  0
 13  7  1  0  0  0  0
 16 17  1  0  0  0  0
 16 15  1  0  0  0  0
 18 16  1  0  0  0  0
 19 16  1  0  0  0  0
 19 20  1  0  0  0  0
 20 21  1  0  0  0  0
 22 20  2  0  0  0  0
 23 22  1  0  0  0  0
 24 23  1  0  0  0  0
 25 27  1  0  0  0  0
 25 23  2  0  0  0  0
 26 25  1  0  0  0  0
 27 19  2  0  0  0  0
M  END
>  <minimizedAffinity>
-4.38637733

$$$$

 OpenBabel03252505313D

 27 28  0  0  0  0  0  0  0  0999 V2000
   36.4760   28.0890   36.9960 O   0  0  0  0  0  0  0  0  0  0  0  0
   37.6990   28.9300   37.3760 P   0  0  1  0  0  0  0  0  0  0  0  0
   38.9390   28.7320   36.2430 O   0  0  0  0  0  0  0  0  0  0  0  0
   39.8220   28.6250   36.6630 H   0  0  0  0  0  0  0  0  0  0  0  0
   37.2060   30.5440   37.4710 O   0  0  0  0  0  0  0  0  0  0  0  0
   39.7220   32.5560   38.9830 C   0  0  0  0  0  0  0  0  0  0  0  0
   38.9960   33.4190   39.8490 C   0  0  0  0  0  0  0  0  0  0  0  0
   37.6020   33.2610   39.8750 C   0  0  0  0  0  0  0  0  0  0  0  0
   37.0370   32.2940   39.0710 N   0  0  0  0  0  0  0  0  0  0  0  0
   37.7820   31.5150   38.2780 C   0  0  0  0  0  0  0  0  0  0  0  0
   39.0980   31.6490   38.2400 N   0  0  0  0  0  0  0  0  0  0  0  0
   40.8020   32.6530   38.9390 H   0  0  0  0  0  0  0  0  0  0  0  0
   39.5000   34.1520   40.4500 H   0  0  0  0  0  0  0  0  0  0  0  0
   37.0060   33.8940   40.5180 H   0  0  0  0  0  0  0  0  0  0  0  0
   38.2460   28.3480   38.8610 O   0  0  0  0  0  0  0  0  0  0  0  0
   37.2230   27.6460   39.4460 C   0  0  0  0  0  0  0  0  0  0  0  0
   36.2680   28.0720   39.0270 H   0  0  0  0  0  0  0  0  0  0  0  0
   37.2820   26.5730   39.1780 H   0  0  0  0  0  0  0  0  0  0  0  0
   37.2830   27.8670   40.9150 C   0  0  0  0  0  0  0  0  0  0  0  0
   37.6820   29.1370   41.3320 C   0  0  0  0  0  0  0  0  0  0  0  0
   37.9470   29.9570   40.6510 H   0  0  0  0  0  0  0  0  0  0  0  0
   37.7560   29.4000   42.6830 C   0  0  0  0  0  3  0  0  0  0  0  0
   37.4530   28.4650   43.6740 C   0  0  0  0  0  0  0  0  0  0  0  0
   37.5080   28.6640   44.7200 H   0  0  0  0  0  0  0  0  0  0  0  0
   37.0680   27.2370   43.1720 C   0  0  0  0  0  0  0  0  0  0  0  0
   36.8100   26.4410   43.8880 H   0  0  0  0  0  0  0  0  0  0  0  0
   36.9700   26.9020   41.8490 C   0  0  0  0  0  3  0  0  0  0  0  0
  2  1  2  6  0  0  0
  2  5  1  0  0  0  0
  2 15  1  0  0  0  0
  3  4  1  0  0  0  0
  3  2  1  0  0  0  0
  5 10  1  0  0  0  0
  6  7  1  0  0  0  0
  7  8  2  0  0  0  0
  7 13  1  0  0  0  0
  8 14  1  0  0  0  0
  9  8  1  0  0  0  0
 10  9  2  0  0  0  0
 11 10  1  0  0  0  0
 11  6  2  0  0  0  0
 12  6  1  0  0  0  0
 15 16  1  0  0  0  0
 16 19  1  0  0  0  0
 17 16  1  0  0  0  0
 18 16  1  0  0  0  0
 19 20  2  0  0  0  0
 19 27  1  0  0  0  0
 20 22  1  0  0  0  0
 21 20  1  0  0  0  0
 22 23  2  0  0  0  0
 23 24  1  0  0  0  0
 25 23  1  0  0  0  0
 25 26  1  0  0  0  0
 27 25  2  0  0  0  0
M  END
>  <minimizedAffinity>
-4.33080006

$$$$
