
 OpenBabel03252508443D

 39 41  0  0  0  0  0  0  0  0999 V2000
   45.4860   33.6970   42.0560 C   0  0  0  0  0  0  0  0  0  0  0  0
   45.5580   32.6130   41.8200 H   0  0  0  0  0  0  0  0  0  0  0  0
   45.0380   33.7270   43.0790 H   0  0  0  0  0  0  0  0  0  0  0  0
   47.7290   33.8990   43.1440 C   0  0  0  0  0  0  0  0  0  0  0  0
   46.8950   34.1970   42.0600 C   0  0  0  0  0  0  0  0  0  0  0  0
   47.4010   34.9470   41.0220 C   0  0  0  0  0  0  0  0  0  0  0  0
   48.6900   35.3870   41.0560 C   0  0  0  0  0  0  0  0  0  0  0  0
   49.5370   35.1180   42.0950 C   0  0  0  0  0  0  0  0  0  0  0  0
   48.9940   34.3560   43.1300 C   0  0  0  0  0  0  0  0  0  0  0  0
   46.8060   35.1990   40.1750 H   0  0  0  0  0  0  0  0  0  0  0  0
   49.0770   35.9760   40.2340 H   0  0  0  0  0  0  0  0  0  0  0  0
   50.5520   35.4350   42.1760 H   0  0  0  0  0  0  0  0  0  0  0  0
   49.5880   34.0920   43.9970 H   0  0  0  0  0  0  0  0  0  0  0  0
   46.6710   31.0710   45.4060 C   0  0  0  0  0  0  0  0  0  0  0  0
   47.2760   31.7420   44.3280 C   0  0  0  0  0  0  0  0  0  0  0  0
   47.1460   33.1030   44.2160 C   0  0  0  0  0  0  0  0  0  0  0  0
   46.4260   33.7560   45.1710 N   0  0  0  0  0  0  0  0  0  0  0  0
   45.8460   33.0960   46.2080 C   0  0  0  0  0  0  0  0  0  0  0  0
   45.9650   31.7730   46.3270 N   0  0  0  0  0  0  0  0  0  0  0  0
   46.8630   30.0010   45.3540 H   0  0  0  0  0  0  0  0  0  0  0  0
   47.8510   31.2540   43.5600 H   0  0  0  0  0  0  0  0  0  0  0  0
   45.2730   33.5780   46.9750 H   0  0  0  0  0  0  0  0  0  0  0  0
   44.6610   34.3020   41.0420 N   0  0  0  0  0  0  0  0  0  0  0  0
   45.0350   35.2010   40.6850 H   0  0  0  0  0  0  0  0  0  0  0  0
   43.0950   34.6790   41.6310 S   0  0  0  0  0  0  0  0  0  0  0  0
   43.1660   35.4870   42.8880 O   0  0  0  0  0  0  0  0  0  0  0  0
   42.5170   35.4600   43.6260 H   0  0  0  0  0  0  0  0  0  0  0  0
   42.2620   33.4580   41.8240 O   0  0  0  0  0  0  0  0  0  0  0  0
   41.7330   33.2820   42.6530 H   0  0  0  0  0  0  0  0  0  0  0  0
   42.3700   35.6530   40.4400 O   0  0  0  0  0  0  0  0  0  0  0  0
   41.3090   35.0460   39.7390 C   0  0  0  0  0  0  0  0  0  0  0  0
   40.0890   35.2890   40.3340 C   0  0  0  0  0  0  0  0  0  0  0  0
   39.9360   35.8690   41.2270 H   0  0  0  0  0  0  0  0  0  0  0  0
   38.9380   34.7560   39.7610 C   0  0  0  0  0  0  0  0  0  0  0  0
   39.0460   34.0040   38.6210 C   0  0  0  0  0  0  0  0  0  0  0  0
   38.1420   33.6050   38.2010 H   0  0  0  0  0  0  0  0  0  0  0  0
   40.2840   33.7810   38.0520 C   0  0  0  0  0  0  0  0  0  0  0  0
   40.3840   33.1830   37.1450 H   0  0  0  0  0  0  0  0  0  0  0  0
   41.4660   34.2950   38.5930 C   0  0  0  0  0  0  0  0  0  0  0  0
  1  5  1  0  0  0  0
  1  3  1  0  0  0  0
  2  1  1  0  0  0  0
  4 16  1  0  0  0  0
  5  4  2  0  0  0  0
  6  7  2  0  0  0  0
  6  5  1  0  0  0  0
  7  8  1  0  0  0  0
  8 12  1  0  0  0  0
  8  9  2  0  0  0  0
  9  4  1  0  0  0  0
  9 13  1  0  0  0  0
 10  6  1  0  0  0  0
 11  7  1  0  0  0  0
 14 19  1  0  0  0  0
 15 14  2  0  0  0  0
 16 15  1  0  0  0  0
 16 17  2  0  0  0  0
 17 18  1  0  0  0  0
 18 19  2  0  0  0  0
 18 22  1  0  0  0  0
 20 14  1  0  0  0  0
 21 15  1  0  0  0  0
 23 25  1  0  0  0  0
 23  1  1  0  0  0  0
 24 23  1  0  0  0  0
 25 28  1  0  0  0  0
 25 26  1  0  0  0  0
 26 27  1  0  0  0  0
 28 29  1  0  0  0  0
 30 25  1  0  0  0  0
 31 32  1  0  0  0  0
 31 30  1  0  0  0  0
 32 33  1  0  0  0  0
 34 32  2  0  0  0  0
 35 34  1  0  0  0  0
 36 35  1  0  0  0  0
 37 39  1  0  0  0  0
 37 35  2  0  0  0  0
 38 37  1  0  0  0  0
 39 31  2  0  0  0  0
M  END
>  <minimizedAffinity>
-6.53769207

>  <minimizedRMSD>
7.1136694

$$$$
