
 OpenBabel03252504253D

 21 22  0  0  0  0  0  0  0  0999 V2000
   43.9350   35.2420   41.3980 C   0  0  0  0  0  0  0  0  0  0  0  0
   44.5780   34.7100   40.6650 H   0  0  0  0  0  0  0  0  0  0  0  0
   44.0730   36.3220   41.2410 H   0  0  0  0  0  0  0  0  0  0  0  0
   44.2200   35.8170   43.7440 C   0  0  0  0  0  0  0  0  0  0  0  0
   44.4080   34.8570   42.7330 C   0  0  0  0  0  0  0  0  0  0  0  0
   45.0110   33.6710   43.1170 C   0  0  0  0  0  0  0  0  0  0  0  0
   45.3820   33.4920   44.4010 N   0  0  0  0  0  0  0  0  0  0  0  0
   45.1860   34.4370   45.3460 C   0  0  0  0  0  0  0  0  0  0  0  0
   44.5980   35.6290   45.0420 N   0  0  0  0  0  0  0  0  0  0  0  0
   43.7540   36.7950   43.5680 H   0  0  0  0  0  0  0  0  0  0  0  0
   45.1370   32.9680   42.3290 H   0  0  0  0  0  0  0  0  0  0  0  0
   45.5200   34.1930   46.3470 H   0  0  0  0  0  0  0  0  0  0  0  0
   42.5310   34.8460   41.1760 C   0  0  0  0  0  0  0  0  0  0  0  0
   42.0450   33.5550   41.1220 C   0  0  0  0  0  0  0  0  0  0  0  0
   42.7630   32.7660   41.2550 H   0  0  0  0  0  0  0  0  0  0  0  0
   40.6910   33.3080   40.9060 C   0  0  0  0  0  0  0  0  0  0  0  0
   39.7860   34.3350   40.7370 C   0  0  0  0  0  0  0  0  0  0  0  0
   38.7250   34.1970   40.5660 H   0  0  0  0  0  0  0  0  0  0  0  0
   40.2220   35.6330   40.7820 C   0  0  0  0  0  0  0  0  0  0  0  0
   39.5700   36.4940   40.6580 H   0  0  0  0  0  0  0  0  0  0  0  0
   41.5680   35.8400   40.9990 C   0  0  0  0  0  0  0  0  0  0  0  0
  1  5  1  0  0  0  0
  2  1  1  0  0  0  0
  3  1  1  0  0  0  0
  4  9  1  0  0  0  0
  5  6  1  0  0  0  0
  5  4  2  0  0  0  0
  6  7  2  0  0  0  0
  7  8  1  0  0  0  0
  8 12  1  0  0  0  0
  9  8  2  0  0  0  0
 10  4  1  0  0  0  0
 11  6  1  0  0  0  0
 13  1  1  0  0  0  0
 14 13  1  0  0  0  0
 14 15  1  0  0  0  0
 16 14  2  0  0  0  0
 17 19  2  0  0  0  0
 17 16  1  0  0  0  0
 18 17  1  0  0  0  0
 19 21  1  0  0  0  0
 20 19  1  0  0  0  0
 21 13  2  0  0  0  0
M  END
>  <minimizedAffinity>
-4.26165628

>  <minimizedRMSD>
0.79004395

$$$$
