
 OpenBabel03242518293D

 21 22  0  0  0  0  0  0  0  0999 V2000
   39.1110   29.1290   42.7510 C   0  0  0  0  0  0  0  0  0  0  0  0
   40.3550   29.0860   42.8080 O   0  0  0  0  0  0  0  0  0  0  0  0
   38.2930   30.0310   41.9870 C   0  0  0  0  0  0  0  0  0  0  0  0
   39.0190   31.0850   41.4260 C   0  0  0  0  0  0  0  0  0  0  0  0
   38.3090   32.0170   40.6610 C   0  0  0  0  0  0  0  0  0  0  0  0
   36.9710   31.8430   40.5130 N   0  0  0  0  0  0  0  0  0  0  0  0
   36.3140   30.8040   41.0790 C   0  0  0  0  0  0  0  0  0  0  0  0
   36.9870   29.8940   41.8210 N   0  0  0  0  0  0  0  0  0  0  0  0
   40.0650   31.2300   41.5340 H   0  0  0  0  0  0  0  0  0  0  0  0
   38.8160   32.8520   40.2040 H   0  0  0  0  0  0  0  0  0  0  0  0
   35.2420   30.7390   40.9110 H   0  0  0  0  0  0  0  0  0  0  0  0
   38.3920   28.1970   43.5170 O   0  0  0  0  0  0  0  0  0  0  0  0
   38.3390   26.8730   43.1000 C   0  0  0  0  0  0  0  0  0  0  0  0
   39.4420   26.0440   43.3150 C   0  0  0  0  0  0  0  0  0  0  0  0
   40.3490   26.4220   43.8060 H   0  0  0  0  0  0  0  0  0  0  0  0
   39.3730   24.7260   42.8930 C   0  0  0  0  0  3  0  0  0  0  0  0
   38.2220   24.2410   42.2670 C   0  0  0  0  0  0  0  0  0  0  0  0
   38.1340   23.2280   41.9280 H   0  0  0  0  0  0  0  0  0  0  0  0
   37.1430   25.0730   42.0640 C   0  0  0  0  0  0  0  0  0  0  0  0
   36.2140   24.7760   41.5860 H   0  0  0  0  0  0  0  0  0  0  0  0
   37.1860   26.4070   42.4800 C   0  0  0  0  0  3  0  0  0  0  0  0
  1  2  2  0  0  0  0
  1 12  1  0  0  0  0
  3  1  1  0  0  0  0
  4  9  1  0  0  0  0
  4  3  2  0  0  0  0
  5  4  1  0  0  0  0
  6  5  2  0  0  0  0
  6  7  1  0  0  0  0
  7  8  2  0  0  0  0
  8  3  1  0  0  0  0
 10  5  1  0  0  0  0
 11  7  1  0  0  0  0
 13 14  1  0  0  0  0
 13 12  1  0  0  0  0
 14 15  1  0  0  0  0
 16 14  2  0  0  0  0
 17 16  1  0  0  0  0
 18 17  1  0  0  0  0
 19 17  2  0  0  0  0
 19 21  1  0  0  0  0
 20 19  1  0  0  0  0
 21 13  2  0  0  0  0
M  END
>  <minimizedAffinity>
-4.56091785

$$$$

 OpenBabel03242518293D

 21 22  0  0  0  0  0  0  0  0999 V2000
   36.6830   28.8730   41.7000 C   0  0  0  0  0  0  0  0  0  0  0  0
   35.8270   28.3460   40.9630 O   0  0  0  0  0  0  0  0  0  0  0  0
   37.4400   30.0710   41.4570 C   0  0  0  0  0  0  0  0  0  0  0  0
   36.7330   31.0220   40.7160 C   0  0  0  0  0  0  0  0  0  0  0  0
   37.3870   32.2270   40.4290 C   0  0  0  0  0  0  0  0  0  0  0  0
   38.6550   32.3940   40.8820 N   0  0  0  0  0  0  0  0  0  0  0  0
   39.2970   31.4400   41.5960 C   0  0  0  0  0  0  0  0  0  0  0  0
   38.6770   30.2710   41.8830 N   0  0  0  0  0  0  0  0  0  0  0  0
   35.7420   30.9020   40.3570 H   0  0  0  0  0  0  0  0  0  0  0  0
   36.8920   32.9970   39.8600 H   0  0  0  0  0  0  0  0  0  0  0  0
   40.3110   31.6550   41.9210 H   0  0  0  0  0  0  0  0  0  0  0  0
   36.9670   28.2430   42.9220 O   0  0  0  0  0  0  0  0  0  0  0  0
   37.7800   27.1160   42.9320 C   0  0  0  0  0  0  0  0  0  0  0  0
   37.3500   25.9570   42.2830 C   0  0  0  0  0  0  0  0  0  0  0  0
   36.3820   25.9230   41.7660 H   0  0  0  0  0  0  0  0  0  0  0  0
   38.1730   24.8430   42.3020 C   0  0  0  0  0  3  0  0  0  0  0  0
   39.4050   24.8830   42.9580 C   0  0  0  0  0  0  0  0  0  0  0  0
   40.0660   24.0390   42.9930 H   0  0  0  0  0  0  0  0  0  0  0  0
   39.8140   26.0340   43.5930 C   0  0  0  0  0  0  0  0  0  0  0  0
   40.7530   26.1480   44.1250 H   0  0  0  0  0  0  0  0  0  0  0  0
   39.0030   27.1730   43.5890 C   0  0  0  0  0  3  0  0  0  0  0  0
  1 12  1  0  0  0  0
  2  1  2  0  0  0  0
  3  1  1  0  0  0  0
  3  8  1  0  0  0  0
  4  3  2  0  0  0  0
  5  4  1  0  0  0  0
  5  6  2  0  0  0  0
  6  7  1  0  0  0  0
  7  8  2  0  0  0  0
  7 11  1  0  0  0  0
  9  4  1  0  0  0  0
 10  5  1  0  0  0  0
 12 13  1  0  0  0  0
 13 21  1  0  0  0  0
 14 16  1  0  0  0  0
 14 13  2  0  0  0  0
 15 14  1  0  0  0  0
 16 17  2  0  0  0  0
 17 18  1  0  0  0  0
 17 19  1  0  0  0  0
 19 20  1  0  0  0  0
 21 19  2  0  0  0  0
M  END
>  <minimizedAffinity>
-4.51373768

$$$$

 OpenBabel03242518293D

 21 22  0  0  0  0  0  0  0  0999 V2000
   37.0130   30.8800   39.6990 C   0  0  0  0  0  0  0  0  0  0  0  0
   36.5370   30.2380   38.7420 O   0  0  0  0  0  0  0  0  0  0  0  0
   38.0510   31.8740   39.6670 C   0  0  0  0  0  0  0  0  0  0  0  0
   37.6220   33.1250   40.1180 C   0  0  0  0  0  0  0  0  0  0  0  0
   38.5640   34.1610   40.1250 C   0  0  0  0  0  0  0  0  0  0  0  0
   39.8220   33.8900   39.6970 N   0  0  0  0  0  0  0  0  0  0  0  0
   40.1870   32.6590   39.2690 C   0  0  0  0  0  0  0  0  0  0  0  0
   39.2890   31.6470   39.2570 N   0  0  0  0  0  0  0  0  0  0  0  0
   36.6410   33.3490   40.4550 H   0  0  0  0  0  0  0  0  0  0  0  0
   38.2890   35.1480   40.4620 H   0  0  0  0  0  0  0  0  0  0  0  0
   41.2150   32.5280   38.9430 H   0  0  0  0  0  0  0  0  0  0  0  0
   36.4930   30.6230   40.9780 O   0  0  0  0  0  0  0  0  0  0  0  0
   36.9840   29.5450   41.7050 C   0  0  0  0  0  0  0  0  0  0  0  0
   36.3220   28.3170   41.6390 C   0  0  0  0  0  0  0  0  0  0  0  0
   35.4220   28.1910   41.0240 H   0  0  0  0  0  0  0  0  0  0  0  0
   36.8250   27.2530   42.3700 C   0  0  0  0  0  3  0  0  0  0  0  0
   37.9690   27.4100   43.1550 C   0  0  0  0  0  0  0  0  0  0  0  0
   38.3850   26.6080   43.7340 H   0  0  0  0  0  0  0  0  0  0  0  0
   38.6100   28.6280   43.2080 C   0  0  0  0  0  0  0  0  0  0  0  0
   39.5020   28.8330   43.7930 H   0  0  0  0  0  0  0  0  0  0  0  0
   38.1240   29.7180   42.4800 C   0  0  0  0  0  3  0  0  0  0  0  0
  1 12  1  0  0  0  0
  2  1  2  0  0  0  0
  3  1  1  0  0  0  0
  3  4  1  0  0  0  0
  4  5  2  0  0  0  0
  4  9  1  0  0  0  0
  5 10  1  0  0  0  0
  6  5  1  0  0  0  0
  7  6  2  0  0  0  0
  8  7  1  0  0  0  0
  8  3  2  0  0  0  0
 11  7  1  0  0  0  0
 12 13  1  0  0  0  0
 13 21  1  0  0  0  0
 14 13  2  0  0  0  0
 14 16  1  0  0  0  0
 15 14  1  0  0  0  0
 16 17  2  0  0  0  0
 17 19  1  0  0  0  0
 17 18  1  0  0  0  0
 19 20  1  0  0  0  0
 21 19  2  0  0  0  0
M  END
>  <minimizedAffinity>
-4.44356203

$$$$

 OpenBabel03242518293D

 21 22  0  0  0  0  0  0  0  0999 V2000
   36.5420   29.5170   41.3110 C   0  0  0  0  0  0  0  0  0  0  0  0
   35.7870   28.5320   41.1940 O   0  0  0  0  0  0  0  0  0  0  0  0
   36.8320   30.5290   40.3320 C   0  0  0  0  0  0  0  0  0  0  0  0
   36.8670   30.0300   39.0270 C   0  0  0  0  0  0  0  0  0  0  0  0
   37.1410   30.9420   38.0000 C   0  0  0  0  0  0  0  0  0  0  0  0
   37.3560   32.2400   38.3320 N   0  0  0  0  0  0  0  0  0  0  0  0
   37.3120   32.6720   39.6140 C   0  0  0  0  0  0  0  0  0  0  0  0
   37.0470   31.8030   40.6170 N   0  0  0  0  0  0  0  0  0  0  0  0
   36.7000   29.0180   38.7550 H   0  0  0  0  0  0  0  0  0  0  0  0
   37.1820   30.6140   36.9730 H   0  0  0  0  0  0  0  0  0  0  0  0
   37.4960   33.7280   39.7920 H   0  0  0  0  0  0  0  0  0  0  0  0
   37.2070   29.6850   42.5370 O   0  0  0  0  0  0  0  0  0  0  0  0
   38.3280   28.9110   42.8130 C   0  0  0  0  0  0  0  0  0  0  0  0
   38.1630   27.6600   43.4120 C   0  0  0  0  0  0  0  0  0  0  0  0
   37.1660   27.2800   43.6670 H   0  0  0  0  0  0  0  0  0  0  0  0
   39.2910   26.9010   43.6800 C   0  0  0  0  0  3  0  0  0  0  0  0
   40.5630   27.3810   43.3560 C   0  0  0  0  0  0  0  0  0  0  0  0
   41.4560   26.8200   43.5500 H   0  0  0  0  0  0  0  0  0  0  0  0
   40.7050   28.6170   42.7660 C   0  0  0  0  0  0  0  0  0  0  0  0
   41.6550   29.0620   42.4840 H   0  0  0  0  0  0  0  0  0  0  0  0
   39.5850   29.4030   42.4840 C   0  0  0  0  0  3  0  0  0  0  0  0
  1 12  1  0  0  0  0
  2  1  2  0  0  0  0
  3  8  1  0  0  0  0
  3  1  1  0  0  0  0
  4  3  2  0  0  0  0
  5  6  2  0  0  0  0
  5  4  1  0  0  0  0
  6  7  1  0  0  0  0
  7 11  1  0  0  0  0
  7  8  2  0  0  0  0
  9  4  1  0  0  0  0
 10  5  1  0  0  0  0
 12 13  1  0  0  0  0
 13 14  1  0  0  0  0
 14 15  1  0  0  0  0
 14 16  2  0  0  0  0
 17 18  1  0  0  0  0
 17 16  1  0  0  0  0
 19 17  2  0  0  0  0
 20 19  1  0  0  0  0
 21 19  1  0  0  0  0
 21 13  2  0  0  0  0
M  END
>  <minimizedAffinity>
-4.4212594

$$$$

 OpenBabel03242518293D

 21 22  0  0  0  0  0  0  0  0999 V2000
   37.0680   30.8560   39.7570 C   0  0  0  0  0  0  0  0  0  0  0  0
   36.6010   30.1920   38.8110 O   0  0  0  0  0  0  0  0  0  0  0  0
   38.0870   31.8690   39.7070 C   0  0  0  0  0  0  0  0  0  0  0  0
   37.6470   33.1080   40.1820 C   0  0  0  0  0  0  0  0  0  0  0  0
   38.5700   34.1610   40.1750 C   0  0  0  0  0  0  0  0  0  0  0  0
   39.8210   33.9180   39.7100 N   0  0  0  0  0  0  0  0  0  0  0  0
   40.1960   32.6980   39.2590 C   0  0  0  0  0  0  0  0  0  0  0  0
   39.3170   31.6700   39.2610 N   0  0  0  0  0  0  0  0  0  0  0  0
   36.6720   33.3100   40.5480 H   0  0  0  0  0  0  0  0  0  0  0  0
   38.2870   35.1400   40.5290 H   0  0  0  0  0  0  0  0  0  0  0  0
   41.2180   32.5890   38.9040 H   0  0  0  0  0  0  0  0  0  0  0  0
   36.5590   30.6060   41.0420 O   0  0  0  0  0  0  0  0  0  0  0  0
   37.0480   29.5260   41.7670 C   0  0  0  0  0  0  0  0  0  0  0  0
   38.2450   29.6620   42.4720 C   0  0  0  0  0  0  0  0  0  0  0  0
   38.8050   30.6060   42.4620 H   0  0  0  0  0  0  0  0  0  0  0  0
   38.7180   28.5760   43.1910 C   0  0  0  0  0  3  0  0  0  0  0  0
   38.0090   27.3720   43.2050 C   0  0  0  0  0  0  0  0  0  0  0  0
   38.3460   26.5120   43.7500 H   0  0  0  0  0  0  0  0  0  0  0  0
   36.8300   27.2560   42.5040 C   0  0  0  0  0  0  0  0  0  0  0  0
   36.2200   26.3590   42.4630 H   0  0  0  0  0  0  0  0  0  0  0  0
   36.3300   28.3370   41.7710 C   0  0  0  0  0  3  0  0  0  0  0  0
  1 12  1  0  0  0  0
  2  1  2  0  0  0  0
  3  1  1  0  0  0  0
  3  4  1  0  0  0  0
  4  9  1  0  0  0  0
  5  4  2  0  0  0  0
  5 10  1  0  0  0  0
  6  5  1  0  0  0  0
  7  8  1  0  0  0  0
  7  6  2  0  0  0  0
  8  3  2  0  0  0  0
 11  7  1  0  0  0  0
 12 13  1  0  0  0  0
 13 21  2  0  0  0  0
 13 14  1  0  0  0  0
 14 16  2  0  0  0  0
 15 14  1  0  0  0  0
 16 17  1  0  0  0  0
 17 18  1  0  0  0  0
 19 17  2  0  0  0  0
 20 19  1  0  0  0  0
 21 19  1  0  0  0  0
M  END
>  <minimizedAffinity>
-4.39355993

$$$$

 OpenBabel03242518293D

 21 22  0  0  0  0  0  0  0  0999 V2000
   37.4510   29.2020   42.0540 C   0  0  0  0  0  0  0  0  0  0  0  0
   38.2600   30.0000   42.5660 O   0  0  0  0  0  0  0  0  0  0  0  0
   36.8650   29.2570   40.7420 C   0  0  0  0  0  0  0  0  0  0  0  0
   35.4940   28.9870   40.7450 C   0  0  0  0  0  0  0  0  0  0  0  0
   34.8320   29.0180   39.5120 C   0  0  0  0  0  0  0  0  0  0  0  0
   35.5550   29.3040   38.4000 N   0  0  0  0  0  0  0  0  0  0  0  0
   36.8840   29.5580   38.4510 C   0  0  0  0  0  0  0  0  0  0  0  0
   37.5380   29.5330   39.6360 N   0  0  0  0  0  0  0  0  0  0  0  0
   34.9180   28.7620   41.6080 H   0  0  0  0  0  0  0  0  0  0  0  0
   33.7740   28.8170   39.4530 H   0  0  0  0  0  0  0  0  0  0  0  0
   37.3870   29.7790   37.5140 H   0  0  0  0  0  0  0  0  0  0  0  0
   37.0400   28.1050   42.8290 O   0  0  0  0  0  0  0  0  0  0  0  0
   37.8400   26.9700   42.8760 C   0  0  0  0  0  0  0  0  0  0  0  0
   39.0070   26.9870   43.6420 C   0  0  0  0  0  0  0  0  0  0  0  0
   39.3020   27.8820   44.2060 H   0  0  0  0  0  0  0  0  0  0  0  0
   39.7930   25.8460   43.6790 C   0  0  0  0  0  3  0  0  0  0  0  0
   39.4210   24.7060   42.9620 C   0  0  0  0  0  0  0  0  0  0  0  0
   40.0060   23.8070   42.9680 H   0  0  0  0  0  0  0  0  0  0  0  0
   38.2670   24.7070   42.2120 C   0  0  0  0  0  0  0  0  0  0  0  0
   37.9090   23.8650   41.6270 H   0  0  0  0  0  0  0  0  0  0  0  0
   37.4550   25.8440   42.1580 C   0  0  0  0  0  3  0  0  0  0  0  0
  1  2  2  0  0  0  0
  1 12  1  0  0  0  0
  3  4  1  0  0  0  0
  3  1  1  0  0  0  0
  4  9  1  0  0  0  0
  5  4  2  0  0  0  0
  6  7  2  0  0  0  0
  6  5  1  0  0  0  0
  7  8  1  0  0  0  0
  8  3  2  0  0  0  0
 10  5  1  0  0  0  0
 11  7  1  0  0  0  0
 12 13  1  0  0  0  0
 13 14  1  0  0  0  0
 14 16  2  0  0  0  0
 14 15  1  0  0  0  0
 17 18  1  0  0  0  0
 17 16  1  0  0  0  0
 19 17  2  0  0  0  0
 20 19  1  0  0  0  0
 21 19  1  0  0  0  0
 21 13  2  0  0  0  0
M  END
>  <minimizedAffinity>
-4.28654385

$$$$

 OpenBabel03242518293D

 21 22  0  0  0  0  0  0  0  0999 V2000
   36.7330   31.0540   40.3470 C   0  0  0  0  0  0  0  0  0  0  0  0
   37.2010   32.1820   40.5950 O   0  0  0  0  0  0  0  0  0  0  0  0
   36.6310   30.4010   39.0700 C   0  0  0  0  0  0  0  0  0  0  0  0
   35.4720   29.6310   38.9420 C   0  0  0  0  0  0  0  0  0  0  0  0
   35.2820   28.9560   37.7300 C   0  0  0  0  0  0  0  0  0  0  0  0
   36.2260   29.0880   36.7650 N   0  0  0  0  0  0  0  0  0  0  0  0
   37.3330   29.8460   36.9400 C   0  0  0  0  0  0  0  0  0  0  0  0
   37.5310   30.5060   38.1050 N   0  0  0  0  0  0  0  0  0  0  0  0
   34.7270   29.5210   39.6890 H   0  0  0  0  0  0  0  0  0  0  0  0
   34.4060   28.3470   37.5740 H   0  0  0  0  0  0  0  0  0  0  0  0
   38.0400   29.8980   36.1160 H   0  0  0  0  0  0  0  0  0  0  0  0
   36.2340   30.3040   41.4240 O   0  0  0  0  0  0  0  0  0  0  0  0
   37.0420   29.3390   42.0120 C   0  0  0  0  0  0  0  0  0  0  0  0
   36.5510   28.0410   42.1730 C   0  0  0  0  0  0  0  0  0  0  0  0
   35.5380   27.7740   41.8450 H   0  0  0  0  0  0  0  0  0  0  0  0
   37.3710   27.0910   42.7600 C   0  0  0  0  0  3  0  0  0  0  0  0
   38.6600   27.4280   43.1800 C   0  0  0  0  0  0  0  0  0  0  0  0
   39.3200   26.7180   43.6380 H   0  0  0  0  0  0  0  0  0  0  0  0
   39.1280   28.7120   43.0130 C   0  0  0  0  0  0  0  0  0  0  0  0
   40.1140   29.0550   43.3110 H   0  0  0  0  0  0  0  0  0  0  0  0
   38.3220   29.6910   42.4230 C   0  0  0  0  0  3  0  0  0  0  0  0
  1  2  2  0  0  0  0
  1 12  1  0  0  0  0
  3  1  1  0  0  0  0
  4  3  1  0  0  0  0
  4  9  1  0  0  0  0
  5  4  2  0  0  0  0
  6  7  2  0  0  0  0
  6  5  1  0  0  0  0
  7  8  1  0  0  0  0
  8  3  2  0  0  0  0
 10  5  1  0  0  0  0
 11  7  1  0  0  0  0
 12 13  1  0  0  0  0
 13 14  2  0  0  0  0
 13 21  1  0  0  0  0
 14 16  1  0  0  0  0
 15 14  1  0  0  0  0
 16 17  2  0  0  0  0
 17 18  1  0  0  0  0
 19 17  1  0  0  0  0
 19 20  1  0  0  0  0
 21 19  2  0  0  0  0
M  END
>  <minimizedAffinity>
-4.21436787

$$$$

 OpenBabel03242518293D

 21 22  0  0  0  0  0  0  0  0999 V2000
   35.7010   29.1640   39.6640 C   0  0  0  0  0  0  0  0  0  0  0  0
   34.5100   29.0010   39.9900 O   0  0  0  0  0  0  0  0  0  0  0  0
   36.4390   30.3970   39.6010 C   0  0  0  0  0  0  0  0  0  0  0  0
   36.8290   30.7330   38.3020 C   0  0  0  0  0  0  0  0  0  0  0  0
   37.5540   31.9200   38.1370 C   0  0  0  0  0  0  0  0  0  0  0  0
   37.8320   32.6620   39.2380 N   0  0  0  0  0  0  0  0  0  0  0  0
   37.4320   32.2900   40.4770 C   0  0  0  0  0  0  0  0  0  0  0  0
   36.7300   31.1470   40.6520 N   0  0  0  0  0  0  0  0  0  0  0  0
   36.6170   30.1610   37.4340 H   0  0  0  0  0  0  0  0  0  0  0  0
   37.8810   32.2300   37.1580 H   0  0  0  0  0  0  0  0  0  0  0  0
   37.6970   32.9430   41.3040 H   0  0  0  0  0  0  0  0  0  0  0  0
   36.4400   28.0250   39.3070 O   0  0  0  0  0  0  0  0  0  0  0  0
   36.6550   27.0310   40.2550 C   0  0  0  0  0  0  0  0  0  0  0  0
   36.9480   27.3950   41.5720 C   0  0  0  0  0  0  0  0  0  0  0  0
   37.0120   28.4500   41.8680 H   0  0  0  0  0  0  0  0  0  0  0  0
   37.1590   26.3920   42.5050 C   0  0  0  0  0  3  0  0  0  0  0  0
   37.0790   25.0480   42.1310 C   0  0  0  0  0  0  0  0  0  0  0  0
   37.2370   24.2470   42.8270 H   0  0  0  0  0  0  0  0  0  0  0  0
   36.7890   24.7080   40.8290 C   0  0  0  0  0  0  0  0  0  0  0  0
   36.7100   23.6910   40.4570 H   0  0  0  0  0  0  0  0  0  0  0  0
   36.5710   25.7000   39.8670 C   0  0  0  0  0  3  0  0  0  0  0  0
  1  2  2  0  0  0  0
  3  1  1  0  0  0  0
  3  8  1  0  0  0  0
  4  3  2  0  0  0  0
  5  4  1  0  0  0  0
  5  6  2  0  0  0  0
  6  7  1  0  0  0  0
  7  8  2  0  0  0  0
  7 11  1  0  0  0  0
  9  4  1  0  0  0  0
 10  5  1  0  0  0  0
 12  1  1  0  0  0  0
 12 13  1  0  0  0  0
 13 14  1  0  0  0  0
 14 15  1  0  0  0  0
 14 16  2  0  0  0  0
 17 16  1  0  0  0  0
 17 18  1  0  0  0  0
 19 17  2  0  0  0  0
 20 19  1  0  0  0  0
 21 13  2  0  0  0  0
 21 19  1  0  0  0  0
M  END
>  <minimizedAffinity>
-4.19221973

$$$$

 OpenBabel03242518293D

 21 22  0  0  0  0  0  0  0  0999 V2000
   36.2360   27.8540   40.2130 C   0  0  0  0  0  0  0  0  0  0  0  0
   36.0900   27.0210   39.2980 O   0  0  0  0  0  0  0  0  0  0  0  0
   37.0370   27.7310   41.4000 C   0  0  0  0  0  0  0  0  0  0  0  0
   38.3830   27.4770   41.1250 C   0  0  0  0  0  0  0  0  0  0  0  0
   39.2460   27.3430   42.2190 C   0  0  0  0  0  0  0  0  0  0  0  0
   38.7280   27.4640   43.4670 N   0  0  0  0  0  0  0  0  0  0  0  0
   37.4140   27.7100   43.6790 C   0  0  0  0  0  0  0  0  0  0  0  0
   36.5670   27.8440   42.6320 N   0  0  0  0  0  0  0  0  0  0  0  0
   38.8000   27.3810   40.1540 H   0  0  0  0  0  0  0  0  0  0  0  0
   40.2960   27.1460   42.0680 H   0  0  0  0  0  0  0  0  0  0  0  0
   37.0810   27.7930   44.7100 H   0  0  0  0  0  0  0  0  0  0  0  0
   35.5450   29.0720   40.1000 O   0  0  0  0  0  0  0  0  0  0  0  0
   36.2400   30.2140   39.7220 C   0  0  0  0  0  0  0  0  0  0  0  0
   36.6190   30.3740   38.3880 C   0  0  0  0  0  0  0  0  0  0  0  0
   36.3770   29.6120   37.6350 H   0  0  0  0  0  0  0  0  0  0  0  0
   37.3110   31.5190   38.0270 C   0  0  0  0  0  3  0  0  0  0  0  0
   37.6220   32.4890   38.9830 C   0  0  0  0  0  0  0  0  0  0  0  0
   38.1560   33.3860   38.7390 H   0  0  0  0  0  0  0  0  0  0  0  0
   37.2400   32.3150   40.2950 C   0  0  0  0  0  0  0  0  0  0  0  0
   37.4420   33.0190   41.0970 H   0  0  0  0  0  0  0  0  0  0  0  0
   36.5400   31.1700   40.6850 C   0  0  0  0  0  3  0  0  0  0  0  0
  1  3  1  0  0  0  0
  2  1  2  0  0  0  0
  3  8  1  0  0  0  0
  4  3  2  0  0  0  0
  4  5  1  0  0  0  0
  5  6  2  0  0  0  0
  6  7  1  0  0  0  0
  7 11  1  0  0  0  0
  8  7  2  0  0  0  0
  9  4  1  0  0  0  0
 10  5  1  0  0  0  0
 12  1  1  0  0  0  0
 13 12  1  0  0  0  0
 13 21  1  0  0  0  0
 14 13  2  0  0  0  0
 15 14  1  0  0  0  0
 16 14  1  0  0  0  0
 16 17  2  0  0  0  0
 17 19  1  0  0  0  0
 18 17  1  0  0  0  0
 19 21  2  0  0  0  0
 19 20  1  0  0  0  0
M  END
>  <minimizedAffinity>
-4.18220425

$$$$
