
 OpenBabel03252509053D

 48 50  0  0  1  0  0  0  0  0999 V2000
   46.7380   34.3720   43.4820 N   0  0  0  0  0  0  0  0  0  0  0  0
   46.4720   34.9530   42.2250 C   0  0  0  0  0  0  0  0  0  0  0  0
   45.0110   34.9750   41.8350 C   0  0  0  0  0  0  0  0  0  0  0  0
   44.0730   35.1790   42.9960 C   0  0  0  0  0  0  0  0  0  0  0  0
   44.8210   35.3880   44.2980 C   0  0  0  0  0  0  0  0  0  0  0  0
   45.7430   34.1080   44.3930 C   0  0  2  0  0  0  0  0  0  0  0  0
   46.7760   36.0330   42.2740 H   0  0  0  0  0  0  0  0  0  0  0  0
   47.0090   34.5300   41.3650 H   0  0  0  0  0  0  0  0  0  0  0  0
   44.8700   35.7900   41.0880 H   0  0  0  0  0  0  0  0  0  0  0  0
   44.7180   34.0300   41.3110 H   0  0  0  0  0  0  0  0  0  0  0  0
   43.4830   36.1240   42.8360 H   0  0  0  0  0  0  0  0  0  0  0  0
   43.3430   34.3810   43.1410 H   0  0  0  0  0  0  0  0  0  0  0  0
   44.1030   35.3110   45.1280 H   0  0  0  0  0  0  0  0  0  0  0  0
   45.4430   36.2820   44.3190 H   0  0  0  0  0  0  0  0  0  0  0  0
   45.0740   33.2420   44.2210 H   0  0  0  0  0  0  0  0  0  0  0  0
   47.9430   33.5820   43.5290 C   0  0  0  0  0  0  0  0  0  0  0  0
   48.3100   33.4270   44.5610 H   0  0  0  0  0  0  0  0  0  0  0  0
   48.7280   34.2010   43.0350 H   0  0  0  0  0  0  0  0  0  0  0  0
   47.7200   32.3470   42.7370 C   0  0  0  0  0  0  0  0  0  0  0  0
   46.8050   32.3920   42.0950 H   0  0  0  0  0  0  0  0  0  0  0  0
   47.5810   31.4890   43.4150 H   0  0  0  0  0  0  0  0  0  0  0  0
   51.2300   32.1360   41.4250 C   0  0  0  0  0  0  0  0  0  0  0  0
   50.1290   32.3560   42.2740 C   0  0  0  0  0  0  0  0  0  0  0  0
   48.8660   32.1100   41.8310 C   0  0  0  0  0  0  0  0  0  0  0  0
   48.7330   31.6620   40.5860 N   0  0  0  0  0  0  0  0  0  0  0  0
   49.7720   31.4460   39.7610 C   0  0  0  0  0  0  0  0  0  0  0  0
   51.0290   31.6810   40.1730 N   0  0  0  0  0  0  0  0  0  0  0  0
   52.2390   32.3380   41.7920 H   0  0  0  0  0  0  0  0  0  0  0  0
   50.3230   32.7240   43.2810 H   0  0  0  0  0  0  0  0  0  0  0  0
   49.6230   31.0810   38.7550 H   0  0  0  0  0  0  0  0  0  0  0  0
   46.1630   34.1900   45.7060 O   0  0  0  0  0  0  0  0  0  0  0  0
   45.6390   31.5870   45.5760 O   0  0  0  0  0  0  0  0  0  0  0  0
   46.0330   32.7150   46.5210 P   0  0  2  0  0  0  0  0  0  0  0  0
   44.7360   32.9010   47.6070 O   0  0  0  0  0  0  0  0  0  0  0  0
   44.1400   32.1100   47.6010 H   0  0  0  0  0  0  0  0  0  0  0  0
   47.4010   32.3490   47.4060 O   0  0  0  0  0  0  0  0  0  0  0  0
   47.6320   30.9830   47.3300 C   0  0  0  0  0  0  0  0  0  0  0  0
   48.0200   30.6640   46.3390 H   0  0  0  0  0  0  0  0  0  0  0  0
   46.6980   30.4200   47.5500 H   0  0  0  0  0  0  0  0  0  0  0  0
   48.6330   30.6880   48.4100 C   0  0  0  0  0  0  0  0  0  0  0  0
   49.0920   29.3890   48.5170 C   0  0  0  0  0  0  0  0  0  0  0  0
   48.7400   28.6090   47.8400 H   0  0  0  0  0  0  0  0  0  0  0  0
   50.0090   28.9920   49.4630 C   0  0  0  0  0  3  0  0  0  0  0  0
   50.5070   29.9280   50.3630 C   0  0  0  0  0  0  0  0  0  0  0  0
   51.2270   29.6290   51.1110 H   0  0  0  0  0  0  0  0  0  0  0  0
   50.0380   31.2320   50.2460 C   0  0  0  0  0  0  0  0  0  0  0  0
   50.3980   31.9930   50.9250 H   0  0  0  0  0  0  0  0  0  0  0  0
   49.1160   31.6270   49.2940 C   0  0  0  0  0  3  0  0  0  0  0  0
  1 16  1  0  0  0  0
  1  6  1  0  0  0  0
  2  7  1  0  0  0  0
  2  1  1  0  0  0  0
  3  2  1  0  0  0  0
  3  4  1  0  0  0  0
  4 12  1  0  0  0  0
  4  5  1  0  0  0  0
  5 14  1  0  0  0  0
  5  6  1  0  0  0  0
  5 13  1  0  0  0  0
  6 15  1  6  0  0  0
  6 31  1  0  0  0  0
  8  2  1  0  0  0  0
  9  3  1  0  0  0  0
 10  3  1  0  0  0  0
 11  4  1  0  0  0  0
 16 17  1  0  0  0  0
 18 16  1  0  0  0  0
 19 21  1  0  0  0  0
 19 16  1  0  0  0  0
 20 19  1  0  0  0  0
 22 28  1  0  0  0  0
 22 23  1  0  0  0  0
 23 29  1  0  0  0  0
 24 23  2  0  0  0  0
 24 19  1  0  0  0  0
 25 24  1  0  0  0  0
 26 27  1  0  0  0  0
 26 25  2  0  0  0  0
 27 22  2  0  0  0  0
 30 26  1  0  0  0  0
 31 33  1  0  0  0  0
 33 32  2  6  0  0  0
 33 36  1  0  0  0  0
 33 34  1  0  0  0  0
 35 34  1  0  0  0  0
 37 36  1  0  0  0  0
 37 39  1  0  0  0  0
 37 40  1  0  0  0  0
 38 37  1  0  0  0  0
 40 41  2  0  0  0  0
 40 48  1  0  0  0  0
 41 43  1  0  0  0  0
 42 41  1  0  0  0  0
 43 44  2  0  0  0  0
 44 45  1  0  0  0  0
 46 44  1  0  0  0  0
 46 47  1  0  0  0  0
 48 46  2  0  0  0  0
M  END
>  <minimizedAffinity>
-5.14454937

>  <minimizedRMSD>
2.97688961

$$$$
