
 OpenBabel03252509293D

 21 22  0  0  0  0  0  0  0  0999 V2000
   44.3430   34.2510   40.8240 C   0  0  0  0  0  0  0  0  0  0  0  0
   44.7510   33.2380   40.5500 H   0  0  0  0  0  0  0  0  0  0  0  0
   44.8590   35.0330   40.2130 H   0  0  0  0  0  0  0  0  0  0  0  0
   41.0480   35.4220   39.5450 C   0  0  0  0  0  0  0  0  0  0  0  0
   42.4380   35.2890   39.7300 C   0  0  0  0  0  0  0  0  0  0  0  0
   42.8960   34.3660   40.6540 C   0  0  0  0  0  0  0  0  0  0  0  0
   41.9860   33.6280   41.3420 N   0  0  0  0  0  0  0  0  0  0  0  0
   40.6450   33.7730   41.1470 C   0  0  0  0  0  0  0  0  0  0  0  0
   40.1960   34.6680   40.2520 N   0  0  0  0  0  0  0  0  0  0  0  0
   40.7200   36.1400   38.8270 H   0  0  0  0  0  0  0  0  0  0  0  0
   43.1130   35.9040   39.1520 H   0  0  0  0  0  0  0  0  0  0  0  0
   39.9910   33.1300   41.7530 H   0  0  0  0  0  0  0  0  0  0  0  0
   44.6080   34.4420   42.2850 C   0  0  0  0  0  0  0  0  0  0  0  0
   44.4230   35.6850   42.8340 C   0  0  0  0  0  0  0  0  0  0  0  0
   44.0860   36.4910   42.1690 H   0  0  0  0  0  0  0  0  0  0  0  0
   44.6120   36.0580   44.1460 C   0  0  0  0  0  3  0  0  0  0  0  0
   45.0400   35.0250   44.9870 C   0  0  0  0  0  0  0  0  0  0  0  0
   45.2030   35.2770   46.0330 H   0  0  0  0  0  0  0  0  0  0  0  0
   45.2410   33.7500   44.4770 C   0  0  0  0  0  0  0  0  0  0  0  0
   45.5770   32.9680   45.1630 H   0  0  0  0  0  0  0  0  0  0  0  0
   45.0300   33.4520   43.1420 C   0  0  0  0  0  3  0  0  0  0  0  0
  1 13  1  0  0  0  0
  2  1  1  0  0  0  0
  3  1  1  0  0  0  0
  4  5  2  0  0  0  0
  4  9  1  0  0  0  0
  5  6  1  0  0  0  0
  6  1  1  0  0  0  0
  6  7  2  0  0  0  0
  8  7  1  0  0  0  0
  8 12  1  0  0  0  0
  9  8  2  0  0  0  0
 10  4  1  0  0  0  0
 11  5  1  0  0  0  0
 13 14  2  0  0  0  0
 13 21  1  0  0  0  0
 14 16  1  0  0  0  0
 15 14  1  0  0  0  0
 16 17  2  0  0  0  0
 17 18  1  0  0  0  0
 19 17  1  0  0  0  0
 19 20  1  0  0  0  0
 21 19  2  0  0  0  0
M  END
>  <minimizedAffinity>
-3.90502095

>  <minimizedRMSD>
5.34636974

$$$$
