
 OpenBabel03242523133D

 46 50  0  0  1  0  0  0  0  0999 V2000
   45.5310   34.7060   40.8960 C   0  0  0  0  0  0  0  0  0  0  0  0
   44.3050   34.3390   40.3330 C   0  0  0  0  0  0  0  0  0  0  0  0
   43.1630   34.5520   41.0400 C   0  0  0  0  0  0  0  0  0  0  0  0
   43.3010   35.1170   42.2580 N   0  0  0  0  0  0  0  0  0  0  0  0
   44.4550   35.4740   42.8160 C   0  0  0  0  0  0  0  0  0  0  0  0
   45.5590   35.2650   42.1330 N   0  0  0  0  0  0  0  0  0  0  0  0
   46.4460   34.5390   40.3420 H   0  0  0  0  0  0  0  0  0  0  0  0
   44.6070   35.9260   43.7870 H   0  0  0  0  0  0  0  0  0  0  0  0
   44.3310   33.7930   39.0500 N   0  0  0  0  0  0  0  0  0  0  0  0
   45.1210   32.7020   38.6900 C   0  0  0  0  0  0  0  0  0  0  0  0
   44.8610   32.1770   37.2940 C   0  0  0  0  0  0  0  0  0  0  0  0
   43.5280   32.1250   36.9160 N   0  0  0  0  0  0  0  0  0  0  0  0
   42.7540   33.2400   37.2230 C   0  0  0  0  0  0  0  0  0  0  0  0
   43.5530   34.2950   37.9510 C   0  0  0  0  0  0  0  0  0  0  0  0
   45.0650   31.8190   39.3850 H   0  0  0  0  0  0  0  0  0  0  0  0
   46.1940   32.9980   38.7060 H   0  0  0  0  0  0  0  0  0  0  0  0
   45.4350   32.8220   36.5900 H   0  0  0  0  0  0  0  0  0  0  0  0
   45.3330   31.1670   37.2270 H   0  0  0  0  0  0  0  0  0  0  0  0
   43.4120   31.6410   36.0260 H   0  0  0  0  0  0  0  0  0  0  0  0
   42.4170   33.7300   36.2690 H   0  0  0  0  0  0  0  0  0  0  0  0
   41.8170   33.0290   37.7750 H   0  0  0  0  0  0  0  0  0  0  0  0
   44.1810   34.8880   37.2420 H   0  0  0  0  0  0  0  0  0  0  0  0
   42.8120   35.0170   38.3830 H   0  0  0  0  0  0  0  0  0  0  0  0
   41.0380   35.4610   40.5630 C   0  0  0  0  0  0  0  0  0  0  0  0
   41.8060   34.2930   40.8000 C   0  0  0  0  0  0  0  0  0  0  0  0
   41.0310   33.1510   40.7330 C   0  0  0  0  0  0  0  0  0  0  0  0
   39.6980   33.0890   40.4760 C   0  0  0  0  0  0  0  0  0  0  0  0
   39.0110   34.2570   40.2530 C   0  0  0  0  0  0  0  0  0  0  0  0
   39.6950   35.4480   40.2990 C   0  0  0  0  0  0  0  0  0  0  0  0
   37.7030   33.8980   40.0220 O   0  0  0  0  0  0  0  0  0  0  0  0
   37.5800   32.4930   40.1170 C   0  0  2  0  0  0  0  0  0  0  0  0
   38.8790   31.9900   40.4010 O   0  0  0  0  0  0  0  0  0  0  0  0
   41.3440   36.5070   40.5420 H   0  0  0  0  0  0  0  0  0  0  0  0
   41.5940   32.2880   40.9110 H   0  0  0  0  0  0  0  0  0  0  0  0
   39.0700   36.2980   40.1120 H   0  0  0  0  0  0  0  0  0  0  0  0
   36.8780   32.2480   40.9320 H   0  0  0  0  0  0  0  0  0  0  0  0
   37.2290   32.0230   38.8520 O   0  0  0  0  0  0  0  0  0  0  0  0
   36.5790   30.8130   38.7210 C   0  0  0  0  0  0  0  0  0  0  0  0
   36.3970   29.9070   37.7000 C   0  0  0  0  0  0  0  0  0  0  0  0
   36.8880   30.2450   36.8020 H   0  0  0  0  0  0  0  0  0  0  0  0
   35.6710   28.7560   37.8990 C   0  0  0  0  0  3  0  0  0  0  0  0
   35.0910   28.4440   39.1100 C   0  0  0  0  0  0  0  0  0  0  0  0
   34.5500   27.5200   39.1450 H   0  0  0  0  0  0  0  0  0  0  0  0
   35.2590   29.3340   40.1450 C   0  0  0  0  0  0  0  0  0  0  0  0
   34.7840   29.0390   41.0700 H   0  0  0  0  0  0  0  0  0  0  0  0
   35.9940   30.5090   39.9580 C   0  0  0  0  0  3  0  0  0  0  0  0
  1  6  1  0  0  0  0
  2  1  2  0  0  0  0
  2  3  1  0  0  0  0
  3  4  2  0  0  0  0
  4  5  1  0  0  0  0
  5  8  1  0  0  0  0
  6  5  2  0  0  0  0
  7  1  1  0  0  0  0
  9  2  1  0  0  0  0
 10 16  1  0  0  0  0
 10  9  1  0  0  0  0
 10 15  1  0  0  0  0
 11 10  1  0  0  0  0
 12 13  1  0  0  0  0
 12 11  1  0  0  0  0
 13 21  1  0  0  0  0
 13 14  1  0  0  0  0
 14 23  1  0  0  0  0
 14  9  1  0  0  0  0
 17 11  1  0  0  0  0
 18 11  1  0  0  0  0
 19 12  1  0  0  0  0
 20 13  1  0  0  0  0
 22 14  1  0  0  0  0
 24 25  1  0  0  0  0
 25  3  1  0  0  0  0
 26 25  2  0  0  0  0
 26 34  1  0  0  0  0
 27 26  1  0  0  0  0
 28 29  1  0  0  0  0
 28 27  2  0  0  0  0
 29 24  2  0  0  0  0
 30 31  1  0  0  0  0
 30 28  1  0  0  0  0
 31 32  1  0  0  0  0
 31 36  1  1  0  0  0
 32 27  1  0  0  0  0
 33 24  1  0  0  0  0
 35 29  1  0  0  0  0
 37 31  1  0  0  0  0
 38 37  1  0  0  0  0
 38 46  1  0  0  0  0
 39 41  1  0  0  0  0
 39 38  2  0  0  0  0
 40 39  1  0  0  0  0
 41 42  2  0  0  0  0
 42 43  1  0  0  0  0
 42 44  1  0  0  0  0
 44 45  1  0  0  0  0
 46 44  2  0  0  0  0
M  END
>  <minimizedAffinity>
-6.78137541

$$$$

 OpenBabel03242523133D

 46 50  0  0  1  0  0  0  0  0999 V2000
   40.8900   34.4060   39.2360 C   0  0  0  0  0  0  0  0  0  0  0  0
   40.4830   33.1130   39.5770 C   0  0  0  0  0  0  0  0  0  0  0  0
   39.4410   32.9510   40.4340 C   0  0  0  0  0  0  0  0  0  0  0  0
   38.8600   34.0770   40.9010 N   0  0  0  0  0  0  0  0  0  0  0  0
   39.2280   35.3180   40.5930 C   0  0  0  0  0  0  0  0  0  0  0  0
   40.2390   35.4730   39.7650 N   0  0  0  0  0  0  0  0  0  0  0  0
   41.7210   34.5440   38.5560 H   0  0  0  0  0  0  0  0  0  0  0  0
   38.7920   36.2440   40.9460 H   0  0  0  0  0  0  0  0  0  0  0  0
   41.1690   32.0520   38.9840 N   0  0  0  0  0  0  0  0  0  0  0  0
   40.8240   31.5020   37.7490 C   0  0  0  0  0  0  0  0  0  0  0  0
   41.8070   30.4770   37.2270 C   0  0  0  0  0  0  0  0  0  0  0  0
   43.1470   30.7850   37.4130 N   0  0  0  0  0  0  0  0  0  0  0  0
   43.4990   31.2770   38.6670 C   0  0  0  0  0  0  0  0  0  0  0  0
   42.3020   31.3990   39.5790 C   0  0  0  0  0  0  0  0  0  0  0  0
   40.6620   32.2470   36.9220 H   0  0  0  0  0  0  0  0  0  0  0  0
   39.8500   30.9710   37.8370 H   0  0  0  0  0  0  0  0  0  0  0  0
   41.5630   29.5090   37.7220 H   0  0  0  0  0  0  0  0  0  0  0  0
   41.5810   30.3240   36.1440 H   0  0  0  0  0  0  0  0  0  0  0  0
   43.7520   30.1260   36.9250 H   0  0  0  0  0  0  0  0  0  0  0  0
   44.1830   30.5430   39.1730 H   0  0  0  0  0  0  0  0  0  0  0  0
   44.0660   32.2290   38.6590 H   0  0  0  0  0  0  0  0  0  0  0  0
   42.0210   30.4080   40.0140 H   0  0  0  0  0  0  0  0  0  0  0  0
   42.6220   32.0340   40.4450 H   0  0  0  0  0  0  0  0  0  0  0  0
   37.4640   31.6670   40.5560 C   0  0  0  0  0  0  0  0  0  0  0  0
   38.8030   31.8350   40.9940 C   0  0  0  0  0  0  0  0  0  0  0  0
   39.1780   30.8430   41.8790 C   0  0  0  0  0  0  0  0  0  0  0  0
   38.4090   29.8100   42.3140 C   0  0  0  0  0  0  0  0  0  0  0  0
   37.1210   29.7010   41.8510 C   0  0  0  0  0  0  0  0  0  0  0  0
   36.6540   30.6430   40.9650 C   0  0  0  0  0  0  0  0  0  0  0  0
   36.5880   28.5820   42.4470 O   0  0  0  0  0  0  0  0  0  0  0  0
   37.5560   28.0010   43.2980 C   0  0  2  0  0  0  0  0  0  0  0  0
   38.7260   28.8020   43.1900 O   0  0  0  0  0  0  0  0  0  0  0  0
   36.8740   32.2670   39.8640 H   0  0  0  0  0  0  0  0  0  0  0  0
   40.1640   30.9660   42.2060 H   0  0  0  0  0  0  0  0  0  0  0  0
   35.6390   30.4690   40.6660 H   0  0  0  0  0  0  0  0  0  0  0  0
   37.1730   28.0030   44.3320 H   0  0  0  0  0  0  0  0  0  0  0  0
   37.8700   26.7490   42.7700 O   0  0  0  0  0  0  0  0  0  0  0  0
   39.1610   26.2670   42.8580 C   0  0  0  0  0  0  0  0  0  0  0  0
   40.0580   26.0580   43.8810 C   0  0  0  0  0  0  0  0  0  0  0  0
   39.6270   26.3460   44.8260 H   0  0  0  0  0  0  0  0  0  0  0  0
   41.3100   25.5470   43.6290 C   0  0  0  0  0  3  0  0  0  0  0  0
   41.7370   25.2190   42.3600 C   0  0  0  0  0  0  0  0  0  0  0  0
   42.7310   24.8300   42.2870 H   0  0  0  0  0  0  0  0  0  0  0  0
   40.8580   25.4190   41.3210 C   0  0  0  0  0  0  0  0  0  0  0  0
   41.2440   25.1450   40.3500 H   0  0  0  0  0  0  0  0  0  0  0  0
   39.5810   25.9380   41.5610 C   0  0  0  0  0  3  0  0  0  0  0  0
  1  2  2  0  0  0  0
  1  6  1  0  0  0  0
  2  3  1  0  0  0  0
  3  4  2  0  0  0  0
  3 25  1  0  0  0  0
  5  4  1  0  0  0  0
  5  8  1  0  0  0  0
  6  5  2  0  0  0  0
  7  1  1  0  0  0  0
  9  2  1  0  0  0  0
  9 14  1  0  0  0  0
 10 16  1  0  0  0  0
 10  9  1  0  0  0  0
 11 12  1  0  0  0  0
 11 17  1  0  0  0  0
 11 10  1  0  0  0  0
 12 13  1  0  0  0  0
 13 20  1  0  0  0  0
 13 14  1  0  0  0  0
 14 22  1  0  0  0  0
 14 23  1  0  0  0  0
 15 10  1  0  0  0  0
 18 11  1  0  0  0  0
 19 12  1  0  0  0  0
 21 13  1  0  0  0  0
 24 29  2  0  0  0  0
 24 25  1  0  0  0  0
 25 26  2  0  0  0  0
 26 34  1  0  0  0  0
 26 27  1  0  0  0  0
 27 32  1  0  0  0  0
 28 27  2  0  0  0  0
 28 30  1  0  0  0  0
 29 28  1  0  0  0  0
 30 31  1  0  0  0  0
 31 36  1  1  0  0  0
 32 31  1  0  0  0  0
 33 24  1  0  0  0  0
 35 29  1  0  0  0  0
 37 38  1  0  0  0  0
 37 31  1  0  0  0  0
 38 39  1  0  0  0  0
 39 40  1  0  0  0  0
 41 39  2  0  0  0  0
 42 41  1  0  0  0  0
 43 42  1  0  0  0  0
 44 46  1  0  0  0  0
 44 42  2  0  0  0  0
 45 44  1  0  0  0  0
 46 38  2  0  0  0  0
M  END
>  <minimizedAffinity>
-6.53021717

$$$$

 OpenBabel03242523133D

 46 50  0  0  1  0  0  0  0  0999 V2000
   38.2610   29.6240   42.6970 C   0  0  0  0  0  0  0  0  0  0  0  0
   37.7650   29.6860   41.3920 C   0  0  0  0  0  0  0  0  0  0  0  0
   36.8950   28.7310   40.9690 C   0  0  0  0  0  0  0  0  0  0  0  0
   36.5640   27.7740   41.8610 N   0  0  0  0  0  0  0  0  0  0  0  0
   37.0230   27.6910   43.1070 C   0  0  0  0  0  0  0  0  0  0  0  0
   37.8660   28.6140   43.5160 N   0  0  0  0  0  0  0  0  0  0  0  0
   38.9560   30.3790   43.0430 H   0  0  0  0  0  0  0  0  0  0  0  0
   36.7850   26.9420   43.8510 H   0  0  0  0  0  0  0  0  0  0  0  0
   38.1820   30.7580   40.6030 N   0  0  0  0  0  0  0  0  0  0  0  0
   39.2890   30.7090   39.7550 C   0  0  0  0  0  0  0  0  0  0  0  0
   39.4520   31.9270   38.8720 C   0  0  0  0  0  0  0  0  0  0  0  0
   38.2800   32.4310   38.3270 N   0  0  0  0  0  0  0  0  0  0  0  0
   37.1920   32.5350   39.1900 C   0  0  0  0  0  0  0  0  0  0  0  0
   37.5250   32.0360   40.5760 C   0  0  0  0  0  0  0  0  0  0  0  0
   39.3360   29.8100   39.0810 H   0  0  0  0  0  0  0  0  0  0  0  0
   40.2200   30.6490   40.3620 H   0  0  0  0  0  0  0  0  0  0  0  0
   39.9580   32.7090   39.4830 H   0  0  0  0  0  0  0  0  0  0  0  0
   40.1800   31.6580   38.0680 H   0  0  0  0  0  0  0  0  0  0  0  0
   38.4710   33.1600   37.6420 H   0  0  0  0  0  0  0  0  0  0  0  0
   36.9280   33.6190   39.3210 H   0  0  0  0  0  0  0  0  0  0  0  0
   36.2580   32.0600   38.8330 H   0  0  0  0  0  0  0  0  0  0  0  0
   38.0970   32.8020   41.1560 H   0  0  0  0  0  0  0  0  0  0  0  0
   36.5500   31.9090   41.1140 H   0  0  0  0  0  0  0  0  0  0  0  0
   36.2360   27.1110   39.3840 C   0  0  0  0  0  0  0  0  0  0  0  0
   36.2390   28.4800   39.7550 C   0  0  0  0  0  0  0  0  0  0  0  0
   35.5800   29.2610   38.8260 C   0  0  0  0  0  0  0  0  0  0  0  0
   34.9840   28.8320   37.6820 C   0  0  0  0  0  0  0  0  0  0  0  0
   35.0140   27.4940   37.3800 C   0  0  0  0  0  0  0  0  0  0  0  0
   35.6480   26.6330   38.2440 C   0  0  0  0  0  0  0  0  0  0  0  0
   34.3440   27.3500   36.1870 O   0  0  0  0  0  0  0  0  0  0  0  0
   33.9070   28.6180   35.7420 C   0  0  2  0  0  0  0  0  0  0  0  0
   34.3210   29.5590   36.7250 O   0  0  0  0  0  0  0  0  0  0  0  0
   36.6610   26.2470   39.8950 H   0  0  0  0  0  0  0  0  0  0  0  0
   35.5830   30.2720   39.0950 H   0  0  0  0  0  0  0  0  0  0  0  0
   35.6160   25.6130   37.9180 H   0  0  0  0  0  0  0  0  0  0  0  0
   34.3750   28.8380   34.7670 H   0  0  0  0  0  0  0  0  0  0  0  0
   32.5120   28.6020   35.7560 O   0  0  0  0  0  0  0  0  0  0  0  0
   31.8090   29.7890   35.8080 C   0  0  0  0  0  0  0  0  0  0  0  0
   31.0410   30.4290   36.7540 C   0  0  0  0  0  0  0  0  0  0  0  0
   30.9920   29.8460   37.6590 H   0  0  0  0  0  0  0  0  0  0  0  0
   30.4560   31.6440   36.4850 C   0  0  0  0  0  3  0  0  0  0  0  0
   30.6000   32.2860   35.2730 C   0  0  0  0  0  0  0  0  0  0  0  0
   30.1000   33.2270   35.1800 H   0  0  0  0  0  0  0  0  0  0  0  0
   31.3640   31.6660   34.3110 C   0  0  0  0  0  0  0  0  0  0  0  0
   31.4430   32.2120   33.3830 H   0  0  0  0  0  0  0  0  0  0  0  0
   31.9650   30.4290   34.5700 C   0  0  0  0  0  3  0  0  0  0  0  0
  1  7  1  0  0  0  0
  1  6  1  0  0  0  0
  2  1  2  0  0  0  0
  3  2  1  0  0  0  0
  3  4  2  0  0  0  0
  4  5  1  0  0  0  0
  5  6  2  0  0  0  0
  5  8  1  0  0  0  0
  9  2  1  0  0  0  0
 10 16  1  0  0  0  0
 10  9  1  0  0  0  0
 11 17  1  0  0  0  0
 11 10  1  0  0  0  0
 12 11  1  0  0  0  0
 12 13  1  0  0  0  0
 13 20  1  0  0  0  0
 13 14  1  0  0  0  0
 14  9  1  0  0  0  0
 14 23  1  0  0  0  0
 14 22  1  0  0  0  0
 15 10  1  0  0  0  0
 18 11  1  0  0  0  0
 19 12  1  0  0  0  0
 21 13  1  0  0  0  0
 24 25  1  0  0  0  0
 24 33  1  0  0  0  0
 25  3  1  0  0  0  0
 26 34  1  0  0  0  0
 26 25  2  0  0  0  0
 27 26  1  0  0  0  0
 28 27  2  0  0  0  0
 28 29  1  0  0  0  0
 29 24  2  0  0  0  0
 30 28  1  0  0  0  0
 31 36  1  6  0  0  0
 31 37  1  0  0  0  0
 31 30  1  0  0  0  0
 31 32  1  0  0  0  0
 32 27  1  0  0  0  0
 35 29  1  0  0  0  0
 37 38  1  0  0  0  0
 38 39  1  0  0  0  0
 39 40  1  0  0  0  0
 41 39  2  0  0  0  0
 42 41  1  0  0  0  0
 43 42  1  0  0  0  0
 44 46  1  0  0  0  0
 44 42  2  0  0  0  0
 45 44  1  0  0  0  0
 46 38  2  0  0  0  0
M  END
>  <minimizedAffinity>
-6.49663639

$$$$

 OpenBabel03242523133D

 46 50  0  0  1  0  0  0  0  0999 V2000
   38.0880   31.9570   37.8320 C   0  0  0  0  0  0  0  0  0  0  0  0
   38.5250   31.4130   39.0430 C   0  0  0  0  0  0  0  0  0  0  0  0
   38.2280   30.1180   39.3330 C   0  0  0  0  0  0  0  0  0  0  0  0
   37.5210   29.4370   38.4060 N   0  0  0  0  0  0  0  0  0  0  0  0
   37.0930   29.9310   37.2470 C   0  0  0  0  0  0  0  0  0  0  0  0
   37.3780   31.1850   36.9690 N   0  0  0  0  0  0  0  0  0  0  0  0
   38.3180   32.9880   37.5940 H   0  0  0  0  0  0  0  0  0  0  0  0
   36.5240   29.4210   36.4810 H   0  0  0  0  0  0  0  0  0  0  0  0
   39.2720   32.2410   39.8810 N   0  0  0  0  0  0  0  0  0  0  0  0
   40.6670   32.2780   39.8870 C   0  0  0  0  0  0  0  0  0  0  0  0
   41.2580   33.3690   40.7540 C   0  0  0  0  0  0  0  0  0  0  0  0
   40.6080   34.5930   40.6980 N   0  0  0  0  0  0  0  0  0  0  0  0
   39.2180   34.5590   40.7520 C   0  0  0  0  0  0  0  0  0  0  0  0
   38.6950   33.1440   40.8380 C   0  0  0  0  0  0  0  0  0  0  0  0
   41.1480   32.3710   38.8750 H   0  0  0  0  0  0  0  0  0  0  0  0
   41.0630   31.3210   40.2940 H   0  0  0  0  0  0  0  0  0  0  0  0
   41.2670   32.9870   41.8010 H   0  0  0  0  0  0  0  0  0  0  0  0
   42.3320   33.4750   40.4660 H   0  0  0  0  0  0  0  0  0  0  0  0
   41.1300   35.3140   41.1940 H   0  0  0  0  0  0  0  0  0  0  0  0
   38.8730   35.0590   41.6970 H   0  0  0  0  0  0  0  0  0  0  0  0
   38.6990   35.1040   39.9400 H   0  0  0  0  0  0  0  0  0  0  0  0
   38.7750   32.7450   41.8780 H   0  0  0  0  0  0  0  0  0  0  0  0
   37.5980   33.1940   40.6130 H   0  0  0  0  0  0  0  0  0  0  0  0
   37.6920   29.5910   41.5700 C   0  0  0  0  0  0  0  0  0  0  0  0
   38.4780   29.2830   40.4310 C   0  0  0  0  0  0  0  0  0  0  0  0
   39.3180   28.2120   40.6660 C   0  0  0  0  0  0  0  0  0  0  0  0
   39.4230   27.5010   41.8200 C   0  0  0  0  0  0  0  0  0  0  0  0
   38.6320   27.8480   42.8870 C   0  0  0  0  0  0  0  0  0  0  0  0
   37.7630   28.9030   42.7510 C   0  0  0  0  0  0  0  0  0  0  0  0
   38.9440   26.9720   43.9010 O   0  0  0  0  0  0  0  0  0  0  0  0
   39.9500   26.0840   43.4580 C   0  0  2  0  0  0  0  0  0  0  0  0
   40.2370   26.4340   42.1100 O   0  0  0  0  0  0  0  0  0  0  0  0
   36.9390   30.3660   41.7110 H   0  0  0  0  0  0  0  0  0  0  0  0
   39.9020   27.9840   39.8290 H   0  0  0  0  0  0  0  0  0  0  0  0
   37.1920   29.0930   43.6390 H   0  0  0  0  0  0  0  0  0  0  0  0
   40.8430   26.2050   44.0940 H   0  0  0  0  0  0  0  0  0  0  0  0
   39.3890   24.8060   43.4350 O   0  0  0  0  0  0  0  0  0  0  0  0
   38.4850   24.4670   42.4490 C   0  0  0  0  0  0  0  0  0  0  0  0
   37.1400   24.6770   42.2430 C   0  0  0  0  0  0  0  0  0  0  0  0
   36.7160   25.2400   43.0580 H   0  0  0  0  0  0  0  0  0  0  0  0
   36.5140   24.1920   41.1190 C   0  0  0  0  0  3  0  0  0  0  0  0
   37.1820   23.4790   40.1460 C   0  0  0  0  0  0  0  0  0  0  0  0
   36.5900   23.1530   39.3150 H   0  0  0  0  0  0  0  0  0  0  0  0
   38.5270   23.2570   40.3290 C   0  0  0  0  0  0  0  0  0  0  0  0
   39.0000   22.6950   39.5370 H   0  0  0  0  0  0  0  0  0  0  0  0
   39.1780   23.7440   41.4670 C   0  0  0  0  0  3  0  0  0  0  0  0
  1  2  1  0  0  0  0
  2  3  2  0  0  0  0
  2  9  1  0  0  0  0
  3 25  1  0  0  0  0
  4  3  1  0  0  0  0
  5  4  2  0  0  0  0
  6  5  1  0  0  0  0
  6  1  2  0  0  0  0
  7  1  1  0  0  0  0
  8  5  1  0  0  0  0
  9 10  1  0  0  0  0
  9 14  1  0  0  0  0
 10 16  1  0  0  0  0
 10 11  1  0  0  0  0
 11 17  1  0  0  0  0
 12 13  1  0  0  0  0
 12 11  1  0  0  0  0
 12 19  1  0  0  0  0
 13 14  1  0  0  0  0
 13 20  1  0  0  0  0
 14 22  1  0  0  0  0
 15 10  1  0  0  0  0
 18 11  1  0  0  0  0
 21 13  1  0  0  0  0
 23 14  1  0  0  0  0
 24 33  1  0  0  0  0
 24 29  1  0  0  0  0
 25 26  1  0  0  0  0
 25 24  2  0  0  0  0
 26 27  2  0  0  0  0
 27 32  1  0  0  0  0
 27 28  1  0  0  0  0
 28 30  1  0  0  0  0
 29 28  2  0  0  0  0
 29 35  1  0  0  0  0
 31 30  1  0  0  0  0
 31 36  1  1  0  0  0
 32 31  1  0  0  0  0
 34 26  1  0  0  0  0
 37 31  1  0  0  0  0
 38 37  1  0  0  0  0
 39 38  1  0  0  0  0
 39 40  1  0  0  0  0
 41 39  2  0  0  0  0
 42 44  2  0  0  0  0
 42 41  1  0  0  0  0
 43 42  1  0  0  0  0
 44 46  1  0  0  0  0
 45 44  1  0  0  0  0
 46 38  2  0  0  0  0
M  END
>  <minimizedAffinity>
-6.31068659

$$$$

 OpenBabel03242523133D

 46 50  0  0  1  0  0  0  0  0999 V2000
   40.9050   34.4950   39.3730 C   0  0  0  0  0  0  0  0  0  0  0  0
   40.5960   33.1560   39.6260 C   0  0  0  0  0  0  0  0  0  0  0  0
   39.5330   32.8600   40.4210 C   0  0  0  0  0  0  0  0  0  0  0  0
   38.8380   33.9070   40.9160 N   0  0  0  0  0  0  0  0  0  0  0  0
   39.1110   35.1890   40.6910 C   0  0  0  0  0  0  0  0  0  0  0  0
   40.1410   35.4740   39.9240 N   0  0  0  0  0  0  0  0  0  0  0  0
   41.7510   34.7400   38.7430 H   0  0  0  0  0  0  0  0  0  0  0  0
   38.5820   36.0540   41.0690 H   0  0  0  0  0  0  0  0  0  0  0  0
   41.3960   32.1900   39.0150 N   0  0  0  0  0  0  0  0  0  0  0  0
   41.0860   31.5880   37.7950 C   0  0  0  0  0  0  0  0  0  0  0  0
   42.1780   30.6980   37.2430 C   0  0  0  0  0  0  0  0  0  0  0  0
   43.4700   31.1840   37.3800 N   0  0  0  0  0  0  0  0  0  0  0  0
   43.7970   31.7300   38.6180 C   0  0  0  0  0  0  0  0  0  0  0  0
   42.6260   31.7000   39.5720 C   0  0  0  0  0  0  0  0  0  0  0  0
   40.7970   32.2970   36.9710 H   0  0  0  0  0  0  0  0  0  0  0  0
   40.1950   30.9330   37.9190 H   0  0  0  0  0  0  0  0  0  0  0  0
   42.0830   29.7110   37.7510 H   0  0  0  0  0  0  0  0  0  0  0  0
   41.9380   30.5060   36.1690 H   0  0  0  0  0  0  0  0  0  0  0  0
   44.1400   30.6070   36.8740 H   0  0  0  0  0  0  0  0  0  0  0  0
   44.5900   31.0980   39.1030 H   0  0  0  0  0  0  0  0  0  0  0  0
   44.2300   32.7480   38.5870 H   0  0  0  0  0  0  0  0  0  0  0  0
   42.4950   30.6840   40.0210 H   0  0  0  0  0  0  0  0  0  0  0  0
   42.8880   32.3800   40.4230 H   0  0  0  0  0  0  0  0  0  0  0  0
   37.9130   31.1780   40.0780 C   0  0  0  0  0  0  0  0  0  0  0  0
   38.9690   31.6650   40.8900 C   0  0  0  0  0  0  0  0  0  0  0  0
   39.2060   30.8360   41.9690 C   0  0  0  0  0  0  0  0  0  0  0  0
   38.5470   29.6860   42.2680 C   0  0  0  0  0  0  0  0  0  0  0  0
   37.5350   29.2660   41.4410 C   0  0  0  0  0  0  0  0  0  0  0  0
   37.2230   30.0260   40.3390 C   0  0  0  0  0  0  0  0  0  0  0  0
   37.0570   28.0930   41.9770 O   0  0  0  0  0  0  0  0  0  0  0  0
   37.7740   27.7930   43.1580 C   0  0  2  0  0  0  0  0  0  0  0  0
   38.7370   28.8260   43.3220 O   0  0  0  0  0  0  0  0  0  0  0  0
   37.4870   31.5910   39.1640 H   0  0  0  0  0  0  0  0  0  0  0  0
   39.9820   31.1940   42.5720 H   0  0  0  0  0  0  0  0  0  0  0  0
   36.4200   29.6140   39.7600 H   0  0  0  0  0  0  0  0  0  0  0  0
   37.0720   27.7720   44.0090 H   0  0  0  0  0  0  0  0  0  0  0  0
   38.4790   26.6130   42.9220 O   0  0  0  0  0  0  0  0  0  0  0  0
   37.9520   25.6490   42.0870 C   0  0  0  0  0  0  0  0  0  0  0  0
   36.8420   24.8350   42.1120 C   0  0  0  0  0  0  0  0  0  0  0  0
   36.2650   25.0110   43.0050 H   0  0  0  0  0  0  0  0  0  0  0  0
   36.5920   23.9500   41.0900 C   0  0  0  0  0  3  0  0  0  0  0  0
   37.4210   23.8250   39.9960 C   0  0  0  0  0  0  0  0  0  0  0  0
   37.1240   23.1030   39.2630 H   0  0  0  0  0  0  0  0  0  0  0  0
   38.5370   24.6290   39.9480 C   0  0  0  0  0  0  0  0  0  0  0  0
   39.1500   24.4900   39.0690 H   0  0  0  0  0  0  0  0  0  0  0  0
   38.8050   25.5330   40.9800 C   0  0  0  0  0  3  0  0  0  0  0  0
  1  2  2  0  0  0  0
  1  6  1  0  0  0  0
  2  3  1  0  0  0  0
  3 25  1  0  0  0  0
  3  4  2  0  0  0  0
  5  4  1  0  0  0  0
  5  8  1  0  0  0  0
  6  5  2  0  0  0  0
  7  1  1  0  0  0  0
  9 14  1  0  0  0  0
  9  2  1  0  0  0  0
 10 16  1  0  0  0  0
 10  9  1  0  0  0  0
 11 12  1  0  0  0  0
 11 17  1  0  0  0  0
 11 10  1  0  0  0  0
 12 13  1  0  0  0  0
 13 20  1  0  0  0  0
 13 14  1  0  0  0  0
 14 22  1  0  0  0  0
 14 23  1  0  0  0  0
 15 10  1  0  0  0  0
 18 11  1  0  0  0  0
 19 12  1  0  0  0  0
 21 13  1  0  0  0  0
 24 29  2  0  0  0  0
 24 25  1  0  0  0  0
 25 26  2  0  0  0  0
 26 27  1  0  0  0  0
 26 34  1  0  0  0  0
 27 32  1  0  0  0  0
 28 30  1  0  0  0  0
 28 27  2  0  0  0  0
 29 28  1  0  0  0  0
 30 31  1  0  0  0  0
 31 32  1  0  0  0  0
 31 36  1  1  0  0  0
 33 24  1  0  0  0  0
 35 29  1  0  0  0  0
 37 31  1  0  0  0  0
 38 39  1  0  0  0  0
 38 37  1  0  0  0  0
 39 40  1  0  0  0  0
 41 39  2  0  0  0  0
 42 41  1  0  0  0  0
 43 42  1  0  0  0  0
 44 42  2  0  0  0  0
 44 46  1  0  0  0  0
 45 44  1  0  0  0  0
 46 38  2  0  0  0  0
M  END
>  <minimizedAffinity>
-6.29737568

$$$$

 OpenBabel03242523133D

 46 50  0  0  1  0  0  0  0  0999 V2000
   44.3960   33.7980   42.0020 C   0  0  0  0  0  0  0  0  0  0  0  0
   43.2490   33.1540   41.5310 C   0  0  0  0  0  0  0  0  0  0  0  0
   42.7650   32.0820   42.2130 C   0  0  0  0  0  0  0  0  0  0  0  0
   43.4420   31.7120   43.3210 N   0  0  0  0  0  0  0  0  0  0  0  0
   44.5360   32.3070   43.7900 C   0  0  0  0  0  0  0  0  0  0  0  0
   45.0050   33.3440   43.1280 N   0  0  0  0  0  0  0  0  0  0  0  0
   44.7900   34.6520   41.4650 H   0  0  0  0  0  0  0  0  0  0  0  0
   45.1070   32.0420   44.6700 H   0  0  0  0  0  0  0  0  0  0  0  0
   42.6490   33.6780   40.3860 N   0  0  0  0  0  0  0  0  0  0  0  0
   41.7380   34.7340   40.4050 C   0  0  0  0  0  0  0  0  0  0  0  0
   41.3460   35.2450   39.0360 C   0  0  0  0  0  0  0  0  0  0  0  0
   42.3810   35.3390   38.1160 N   0  0  0  0  0  0  0  0  0  0  0  0
   43.2550   34.2570   38.0560 C   0  0  0  0  0  0  0  0  0  0  0  0
   42.8920   33.1860   39.0580 C   0  0  0  0  0  0  0  0  0  0  0  0
   42.0550   35.6300   41.0080 H   0  0  0  0  0  0  0  0  0  0  0  0
   40.7910   34.4000   40.8850 H   0  0  0  0  0  0  0  0  0  0  0  0
   40.5500   34.5690   38.6490 H   0  0  0  0  0  0  0  0  0  0  0  0
   40.8530   36.2370   39.1810 H   0  0  0  0  0  0  0  0  0  0  0  0
   42.0810   35.8120   37.2650 H   0  0  0  0  0  0  0  0  0  0  0  0
   43.1630   33.7640   37.0500 H   0  0  0  0  0  0  0  0  0  0  0  0
   44.3290   34.5110   38.1470 H   0  0  0  0  0  0  0  0  0  0  0  0
   42.0430   32.5590   38.6920 H   0  0  0  0  0  0  0  0  0  0  0  0
   43.7740   32.4990   39.1260 H   0  0  0  0  0  0  0  0  0  0  0  0
   41.9380   30.1950   41.0600 C   0  0  0  0  0  0  0  0  0  0  0  0
   41.6840   31.2100   42.0180 C   0  0  0  0  0  0  0  0  0  0  0  0
   40.4150   31.1010   42.5510 C   0  0  0  0  0  0  0  0  0  0  0  0
   39.4820   30.1630   42.2400 C   0  0  0  0  0  0  0  0  0  0  0  0
   39.7900   29.2060   41.3050 C   0  0  0  0  0  0  0  0  0  0  0  0
   41.0310   29.2310   40.7150 C   0  0  0  0  0  0  0  0  0  0  0  0
   38.6790   28.4020   41.1920 O   0  0  0  0  0  0  0  0  0  0  0  0
   37.6680   28.8780   42.0590 C   0  0  2  0  0  0  0  0  0  0  0  0
   38.2100   30.0080   42.7330 O   0  0  0  0  0  0  0  0  0  0  0  0
   42.8320   30.0020   40.4670 H   0  0  0  0  0  0  0  0  0  0  0  0
   40.2230   31.8490   43.2560 H   0  0  0  0  0  0  0  0  0  0  0  0
   41.1710   28.4440   40.0010 H   0  0  0  0  0  0  0  0  0  0  0  0
   36.7870   29.1640   41.4610 H   0  0  0  0  0  0  0  0  0  0  0  0
   37.4550   27.8930   43.0230 O   0  0  0  0  0  0  0  0  0  0  0  0
   38.0430   26.6530   42.8840 C   0  0  0  0  0  0  0  0  0  0  0  0
   37.7450   25.5030   42.1880 C   0  0  0  0  0  0  0  0  0  0  0  0
   36.8330   25.6250   41.6280 H   0  0  0  0  0  0  0  0  0  0  0  0
   38.5630   24.4000   42.2630 C   0  0  0  0  0  3  0  0  0  0  0  0
   39.7110   24.3770   43.0260 C   0  0  0  0  0  0  0  0  0  0  0  0
   40.2680   23.4630   43.0060 H   0  0  0  0  0  0  0  0  0  0  0  0
   40.0300   25.5150   43.7300 C   0  0  0  0  0  0  0  0  0  0  0  0
   40.9400   25.4420   44.3090 H   0  0  0  0  0  0  0  0  0  0  0  0
   39.2090   26.6440   43.6640 C   0  0  0  0  0  3  0  0  0  0  0  0
  1  6  1  0  0  0  0
  2  1  2  0  0  0  0
  2  3  1  0  0  0  0
  3  4  2  0  0  0  0
  4  5  1  0  0  0  0
  5  8  1  0  0  0  0
  6  5  2  0  0  0  0
  7  1  1  0  0  0  0
  9 10  1  0  0  0  0
  9  2  1  0  0  0  0
 10 16  1  0  0  0  0
 10 15  1  0  0  0  0
 11 18  1  0  0  0  0
 11 10  1  0  0  0  0
 12 11  1  0  0  0  0
 13 12  1  0  0  0  0
 13 21  1  0  0  0  0
 13 14  1  0  0  0  0
 14 23  1  0  0  0  0
 14  9  1  0  0  0  0
 17 11  1  0  0  0  0
 19 12  1  0  0  0  0
 20 13  1  0  0  0  0
 22 14  1  0  0  0  0
 24 25  1  0  0  0  0
 25  3  1  0  0  0  0
 25 26  2  0  0  0  0
 26 34  1  0  0  0  0
 27 26  1  0  0  0  0
 27 32  1  0  0  0  0
 28 27  2  0  0  0  0
 29 24  2  0  0  0  0
 29 28  1  0  0  0  0
 30 28  1  0  0  0  0
 30 31  1  0  0  0  0
 31 36  1  6  0  0  0
 31 32  1  0  0  0  0
 31 37  1  0  0  0  0
 33 24  1  0  0  0  0
 35 29  1  0  0  0  0
 38 37  1  0  0  0  0
 38 46  1  0  0  0  0
 39 41  1  0  0  0  0
 39 38  2  0  0  0  0
 40 39  1  0  0  0  0
 41 42  2  0  0  0  0
 42 44  1  0  0  0  0
 43 42  1  0  0  0  0
 44 45  1  0  0  0  0
 46 44  2  0  0  0  0
M  END
>  <minimizedAffinity>
-6.28345442

$$$$

 OpenBabel03242523133D

 46 50  0  0  1  0  0  0  0  0999 V2000
   36.2110   27.6430   39.0300 C   0  0  0  0  0  0  0  0  0  0  0  0
   37.0340   28.6430   39.5570 C   0  0  0  0  0  0  0  0  0  0  0  0
   37.0950   29.8470   38.9290 C   0  0  0  0  0  0  0  0  0  0  0  0
   36.3380   29.9920   37.8210 N   0  0  0  0  0  0  0  0  0  0  0  0
   35.5480   29.0570   37.3000 C   0  0  0  0  0  0  0  0  0  0  0  0
   35.4910   27.8910   37.9070 N   0  0  0  0  0  0  0  0  0  0  0  0
   36.1570   26.6800   39.5220 H   0  0  0  0  0  0  0  0  0  0  0  0
   34.9280   29.1330   36.4160 H   0  0  0  0  0  0  0  0  0  0  0  0
   37.7310   28.3440   40.7270 N   0  0  0  0  0  0  0  0  0  0  0  0
   39.0030   27.7720   40.7450 C   0  0  0  0  0  0  0  0  0  0  0  0
   39.6330   27.6940   42.1180 C   0  0  0  0  0  0  0  0  0  0  0  0
   39.4460   28.8070   42.9250 N   0  0  0  0  0  0  0  0  0  0  0  0
   38.1610   29.3400   42.9530 C   0  0  0  0  0  0  0  0  0  0  0  0
   37.2180   28.5830   42.0480 C   0  0  0  0  0  0  0  0  0  0  0  0
   39.7580   28.2620   40.0690 H   0  0  0  0  0  0  0  0  0  0  0  0
   38.9450   26.7230   40.3780 H   0  0  0  0  0  0  0  0  0  0  0  0
   39.2220   26.7860   42.6160 H   0  0  0  0  0  0  0  0  0  0  0  0
   40.7220   27.4880   41.9720 H   0  0  0  0  0  0  0  0  0  0  0  0
   40.0030   28.7470   43.7760 H   0  0  0  0  0  0  0  0  0  0  0  0
   37.7360   29.2240   43.9870 H   0  0  0  0  0  0  0  0  0  0  0  0
   38.0940   30.4260   42.7430 H   0  0  0  0  0  0  0  0  0  0  0  0
   36.8680   27.6360   42.5290 H   0  0  0  0  0  0  0  0  0  0  0  0
   36.3050   29.2220   41.9290 H   0  0  0  0  0  0  0  0  0  0  0  0
   36.9870   32.1420   39.4720 C   0  0  0  0  0  0  0  0  0  0  0  0
   37.8110   31.0310   39.1590 C   0  0  0  0  0  0  0  0  0  0  0  0
   39.1490   31.3740   39.1600 C   0  0  0  0  0  0  0  0  0  0  0  0
   39.6720   32.6010   39.4190 C   0  0  0  0  0  0  0  0  0  0  0  0
   38.8210   33.6350   39.7170 C   0  0  0  0  0  0  0  0  0  0  0  0
   37.4680   33.3940   39.7410 C   0  0  0  0  0  0  0  0  0  0  0  0
   39.6120   34.7400   39.9330 O   0  0  0  0  0  0  0  0  0  0  0  0
   40.9680   34.3840   39.7520 C   0  0  2  0  0  0  0  0  0  0  0  0
   40.9860   32.9990   39.4310 O   0  0  0  0  0  0  0  0  0  0  0  0
   35.9020   32.2060   39.5560 H   0  0  0  0  0  0  0  0  0  0  0  0
   39.7600   30.5570   38.9260 H   0  0  0  0  0  0  0  0  0  0  0  0
   36.8910   34.2650   39.9830 H   0  0  0  0  0  0  0  0  0  0  0  0
   41.3900   34.9830   38.9270 H   0  0  0  0  0  0  0  0  0  0  0  0
   41.5990   34.5240   40.9880 O   0  0  0  0  0  0  0  0  0  0  0  0
   42.9770   34.5620   41.0580 C   0  0  0  0  0  0  0  0  0  0  0  0
   44.0090   34.0880   40.2800 C   0  0  0  0  0  0  0  0  0  0  0  0
   43.6250   33.5670   39.4190 H   0  0  0  0  0  0  0  0  0  0  0  0
   45.3200   34.3010   40.6390 C   0  0  0  0  0  3  0  0  0  0  0  0
   45.6750   34.9890   41.7790 C   0  0  0  0  0  0  0  0  0  0  0  0
   46.7260   35.0930   41.9550 H   0  0  0  0  0  0  0  0  0  0  0  0
   44.6610   35.4740   42.5730 C   0  0  0  0  0  0  0  0  0  0  0  0
   44.9970   36.0050   43.4510 H   0  0  0  0  0  0  0  0  0  0  0  0
   43.3240   35.2650   42.2210 C   0  0  0  0  0  3  0  0  0  0  0  0
  1  7  1  0  0  0  0
  1  2  1  0  0  0  0
  2  9  1  0  0  0  0
  3 25  1  0  0  0  0
  3  2  2  0  0  0  0
  4  3  1  0  0  0  0
  5  4  2  0  0  0  0
  5  6  1  0  0  0  0
  6  1  2  0  0  0  0
  8  5  1  0  0  0  0
  9 10  1  0  0  0  0
  9 14  1  0  0  0  0
 10 11  1  0  0  0  0
 11 17  1  0  0  0  0
 11 12  1  0  0  0  0
 12 13  1  0  0  0  0
 12 19  1  0  0  0  0
 13 20  1  0  0  0  0
 14 22  1  0  0  0  0
 14 13  1  0  0  0  0
 15 10  1  0  0  0  0
 16 10  1  0  0  0  0
 18 11  1  0  0  0  0
 21 13  1  0  0  0  0
 23 14  1  0  0  0  0
 24 33  1  0  0  0  0
 24 29  1  0  0  0  0
 25 26  1  0  0  0  0
 25 24  2  0  0  0  0
 26 27  2  0  0  0  0
 27 32  1  0  0  0  0
 27 28  1  0  0  0  0
 28 29  2  0  0  0  0
 28 30  1  0  0  0  0
 29 35  1  0  0  0  0
 31 36  1  6  0  0  0
 31 30  1  0  0  0  0
 31 37  1  0  0  0  0
 32 31  1  0  0  0  0
 34 26  1  0  0  0  0
 37 38  1  0  0  0  0
 38 46  1  0  0  0  0
 39 41  1  0  0  0  0
 39 38  2  0  0  0  0
 40 39  1  0  0  0  0
 41 42  2  0  0  0  0
 42 43  1  0  0  0  0
 42 44  1  0  0  0  0
 44 45  1  0  0  0  0
 46 44  2  0  0  0  0
M  END
>  <minimizedAffinity>
-6.26814556

$$$$

 OpenBabel03242523133D

 46 50  0  0  1  0  0  0  0  0999 V2000
   36.7560   24.1690   41.1470 C   0  0  0  0  0  0  0  0  0  0  0  0
   37.0100   25.5390   41.0460 C   0  0  0  0  0  0  0  0  0  0  0  0
   36.6760   26.1920   39.9010 C   0  0  0  0  0  0  0  0  0  0  0  0
   36.1070   25.4520   38.9260 N   0  0  0  0  0  0  0  0  0  0  0  0
   35.8540   24.1480   38.9970 C   0  0  0  0  0  0  0  0  0  0  0  0
   36.1800   23.5170   40.1040 N   0  0  0  0  0  0  0  0  0  0  0  0
   37.0200   23.6400   42.0540 H   0  0  0  0  0  0  0  0  0  0  0  0
   35.4030   23.5200   38.2400 H   0  0  0  0  0  0  0  0  0  0  0  0
   37.5780   26.1660   42.1560 N   0  0  0  0  0  0  0  0  0  0  0  0
   38.9050   25.9910   42.5480 C   0  0  0  0  0  0  0  0  0  0  0  0
   39.3470   26.8970   43.6770 C   0  0  0  0  0  0  0  0  0  0  0  0
   38.8920   28.2050   43.6040 N   0  0  0  0  0  0  0  0  0  0  0  0
   37.5520   28.3760   43.2720 C   0  0  0  0  0  0  0  0  0  0  0  0
   36.8610   27.0550   43.0270 C   0  0  0  0  0  0  0  0  0  0  0  0
   39.6650   26.1020   41.7260 H   0  0  0  0  0  0  0  0  0  0  0  0
   39.0500   24.9520   42.9190 H   0  0  0  0  0  0  0  0  0  0  0  0
   39.0080   26.4240   44.6270 H   0  0  0  0  0  0  0  0  0  0  0  0
   40.4630   26.8650   43.7090 H   0  0  0  0  0  0  0  0  0  0  0  0
   39.3300   28.7910   44.3130 H   0  0  0  0  0  0  0  0  0  0  0  0
   37.0110   28.8350   44.1440 H   0  0  0  0  0  0  0  0  0  0  0  0
   37.3570   29.0650   42.4270 H   0  0  0  0  0  0  0  0  0  0  0  0
   36.5900   26.5550   43.9900 H   0  0  0  0  0  0  0  0  0  0  0  0
   35.8900   27.2900   42.5200 H   0  0  0  0  0  0  0  0  0  0  0  0
   35.6030   28.0670   38.9500 C   0  0  0  0  0  0  0  0  0  0  0  0
   36.8060   27.5170   39.4610 C   0  0  0  0  0  0  0  0  0  0  0  0
   37.8430   28.4290   39.4140 C   0  0  0  0  0  0  0  0  0  0  0  0
   37.7810   29.7040   38.9480 C   0  0  0  0  0  0  0  0  0  0  0  0
   36.5860   30.1780   38.4680 C   0  0  0  0  0  0  0  0  0  0  0  0
   35.4930   29.3450   38.4720 C   0  0  0  0  0  0  0  0  0  0  0  0
   36.8140   31.4760   38.0720 O   0  0  0  0  0  0  0  0  0  0  0  0
   38.1710   31.8010   38.2990 C   0  0  2  0  0  0  0  0  0  0  0  0
   38.7750   30.6490   38.8740 O   0  0  0  0  0  0  0  0  0  0  0  0
   34.6150   27.6170   38.8510 H   0  0  0  0  0  0  0  0  0  0  0  0
   38.7330   28.0260   39.7870 H   0  0  0  0  0  0  0  0  0  0  0  0
   34.6110   29.8080   38.0770 H   0  0  0  0  0  0  0  0  0  0  0  0
   38.6460   32.0540   37.3360 H   0  0  0  0  0  0  0  0  0  0  0  0
   38.1970   32.8020   39.2710 O   0  0  0  0  0  0  0  0  0  0  0  0
   39.3780   33.4560   39.5560 C   0  0  0  0  0  0  0  0  0  0  0  0
   40.7070   33.2430   39.2660 C   0  0  0  0  0  0  0  0  0  0  0  0
   40.8280   32.3480   38.6770 H   0  0  0  0  0  0  0  0  0  0  0  0
   41.6750   34.1110   39.7130 C   0  0  0  0  0  3  0  0  0  0  0  0
   41.3810   35.2280   40.4660 C   0  0  0  0  0  0  0  0  0  0  0  0
   42.2170   35.8300   40.7570 H   0  0  0  0  0  0  0  0  0  0  0  0
   40.0600   35.4620   40.7680 C   0  0  0  0  0  0  0  0  0  0  0  0
   39.8870   36.3500   41.3590 H   0  0  0  0  0  0  0  0  0  0  0  0
   39.0640   34.5880   40.3210 C   0  0  0  0  0  3  0  0  0  0  0  0
  1  7  1  0  0  0  0
  2  1  1  0  0  0  0
  2  9  1  0  0  0  0
  3  2  2  0  0  0  0
  4  5  2  0  0  0  0
  4  3  1  0  0  0  0
  5  6  1  0  0  0  0
  6  1  2  0  0  0  0
  8  5  1  0  0  0  0
  9 10  1  0  0  0  0
  9 14  1  0  0  0  0
 10 16  1  0  0  0  0
 10 11  1  0  0  0  0
 11 18  1  0  0  0  0
 11 17  1  0  0  0  0
 12 11  1  0  0  0  0
 12 19  1  0  0  0  0
 13 12  1  0  0  0  0
 13 20  1  0  0  0  0
 14 13  1  0  0  0  0
 14 22  1  0  0  0  0
 15 10  1  0  0  0  0
 21 13  1  0  0  0  0
 23 14  1  0  0  0  0
 24 25  1  0  0  0  0
 25  3  1  0  0  0  0
 26 25  2  0  0  0  0
 26 34  1  0  0  0  0
 27 26  1  0  0  0  0
 28 29  1  0  0  0  0
 28 27  2  0  0  0  0
 29 24  2  0  0  0  0
 30 31  1  0  0  0  0
 30 28  1  0  0  0  0
 31 36  1  6  0  0  0
 31 32  1  0  0  0  0
 31 37  1  0  0  0  0
 32 27  1  0  0  0  0
 33 24  1  0  0  0  0
 35 29  1  0  0  0  0
 37 38  1  0  0  0  0
 38 46  1  0  0  0  0
 39 38  2  0  0  0  0
 39 41  1  0  0  0  0
 40 39  1  0  0  0  0
 41 42  2  0  0  0  0
 42 43  1  0  0  0  0
 42 44  1  0  0  0  0
 44 45  1  0  0  0  0
 46 44  2  0  0  0  0
M  END
>  <minimizedAffinity>
-6.16964483

$$$$

 OpenBabel03242523133D

 46 50  0  0  1  0  0  0  0  0999 V2000
   42.3590   32.3580   40.9410 C   0  0  0  0  0  0  0  0  0  0  0  0
   41.3440   31.4070   40.8040 C   0  0  0  0  0  0  0  0  0  0  0  0
   41.0420   30.6050   41.8600 C   0  0  0  0  0  0  0  0  0  0  0  0
   41.7580   30.7940   42.9890 N   0  0  0  0  0  0  0  0  0  0  0  0
   42.7280   31.6910   43.1440 C   0  0  0  0  0  0  0  0  0  0  0  0
   43.0210   32.4650   42.1220 N   0  0  0  0  0  0  0  0  0  0  0  0
   42.6080   33.0000   40.1050 H   0  0  0  0  0  0  0  0  0  0  0  0
   43.3250   31.8720   44.0290 H   0  0  0  0  0  0  0  0  0  0  0  0
   40.6780   31.3580   39.5800 N   0  0  0  0  0  0  0  0  0  0  0  0
   39.3720   31.8110   39.3910 C   0  0  0  0  0  0  0  0  0  0  0  0
   38.9150   31.8150   37.9490 C   0  0  0  0  0  0  0  0  0  0  0  0
   39.8570   32.2460   37.0260 N   0  0  0  0  0  0  0  0  0  0  0  0
   41.1470   31.7460   37.1790 C   0  0  0  0  0  0  0  0  0  0  0  0
   41.2550   30.8290   38.3750 C   0  0  0  0  0  0  0  0  0  0  0  0
   39.1560   32.8350   39.8030 H   0  0  0  0  0  0  0  0  0  0  0  0
   38.6650   31.1410   39.9310 H   0  0  0  0  0  0  0  0  0  0  0  0
   38.5870   30.7780   37.7060 H   0  0  0  0  0  0  0  0  0  0  0  0
   37.9910   32.4410   37.8960 H   0  0  0  0  0  0  0  0  0  0  0  0
   39.4480   32.3530   36.0990 H   0  0  0  0  0  0  0  0  0  0  0  0
   41.4020   31.1060   36.2920 H   0  0  0  0  0  0  0  0  0  0  0  0
   41.9490   32.5090   37.2160 H   0  0  0  0  0  0  0  0  0  0  0  0
   40.8560   29.8110   38.1420 H   0  0  0  0  0  0  0  0  0  0  0  0
   42.3490   30.6910   38.5750 H   0  0  0  0  0  0  0  0  0  0  0  0
   38.9880   29.9390   42.8140 C   0  0  0  0  0  0  0  0  0  0  0  0
   40.1280   29.5600   42.0600 C   0  0  0  0  0  0  0  0  0  0  0  0
   40.0730   28.2320   41.6850 C   0  0  0  0  0  0  0  0  0  0  0  0
   39.0800   27.3490   41.9710 C   0  0  0  0  0  0  0  0  0  0  0  0
   38.0010   27.7780   42.7040 C   0  0  0  0  0  0  0  0  0  0  0  0
   37.9640   29.0860   43.1250 C   0  0  0  0  0  0  0  0  0  0  0  0
   37.1670   26.6930   42.8380 O   0  0  0  0  0  0  0  0  0  0  0  0
   37.7450   25.5770   42.1910 C   0  0  2  0  0  0  0  0  0  0  0  0
   38.9730   26.0240   41.6290 O   0  0  0  0  0  0  0  0  0  0  0  0
   38.7280   30.9030   43.2510 H   0  0  0  0  0  0  0  0  0  0  0  0
   40.9130   27.9480   41.1310 H   0  0  0  0  0  0  0  0  0  0  0  0
   37.0830   29.3200   43.6890 H   0  0  0  0  0  0  0  0  0  0  0  0
   37.9200   24.7810   42.9340 H   0  0  0  0  0  0  0  0  0  0  0  0
   36.9100   25.2410   41.1250 O   0  0  0  0  0  0  0  0  0  0  0  0
   36.9850   23.9840   40.5600 C   0  0  0  0  0  0  0  0  0  0  0  0
   37.8950   22.9510   40.5920 C   0  0  0  0  0  0  0  0  0  0  0  0
   38.7390   23.2100   41.2100 H   0  0  0  0  0  0  0  0  0  0  0  0
   37.6680   21.7880   39.8940 C   0  0  0  0  0  3  0  0  0  0  0  0
   36.5360   21.5870   39.1330 C   0  0  0  0  0  0  0  0  0  0  0  0
   36.4690   20.6420   38.6350 H   0  0  0  0  0  0  0  0  0  0  0  0
   35.6120   22.6050   39.0860 C   0  0  0  0  0  0  0  0  0  0  0  0
   34.7450   22.3930   38.4770 H   0  0  0  0  0  0  0  0  0  0  0  0
   35.8280   23.7940   39.7900 C   0  0  0  0  0  3  0  0  0  0  0  0
  1  6  1  0  0  0  0
  2  1  2  0  0  0  0
  2  3  1  0  0  0  0
  3 25  1  0  0  0  0
  3  4  2  0  0  0  0
  4  5  1  0  0  0  0
  5  8  1  0  0  0  0
  6  5  2  0  0  0  0
  7  1  1  0  0  0  0
  9  2  1  0  0  0  0
 10  9  1  0  0  0  0
 10 15  1  0  0  0  0
 10 16  1  0  0  0  0
 11 10  1  0  0  0  0
 12 13  1  0  0  0  0
 12 11  1  0  0  0  0
 13 21  1  0  0  0  0
 13 14  1  0  0  0  0
 14 23  1  0  0  0  0
 14  9  1  0  0  0  0
 17 11  1  0  0  0  0
 18 11  1  0  0  0  0
 19 12  1  0  0  0  0
 20 13  1  0  0  0  0
 22 14  1  0  0  0  0
 24 29  1  0  0  0  0
 24 33  1  0  0  0  0
 25 24  2  0  0  0  0
 26 27  2  0  0  0  0
 26 25  1  0  0  0  0
 27 28  1  0  0  0  0
 28 30  1  0  0  0  0
 28 29  2  0  0  0  0
 29 35  1  0  0  0  0
 31 30  1  0  0  0  0
 31 36  1  1  0  0  0
 32 27  1  0  0  0  0
 32 31  1  0  0  0  0
 34 26  1  0  0  0  0
 37 31  1  0  0  0  0
 38 39  1  0  0  0  0
 38 37  1  0  0  0  0
 39 40  1  0  0  0  0
 41 39  2  0  0  0  0
 42 41  1  0  0  0  0
 43 42  1  0  0  0  0
 44 42  2  0  0  0  0
 44 46  1  0  0  0  0
 45 44  1  0  0  0  0
 46 38  2  0  0  0  0
M  END
>  <minimizedAffinity>
-6.16063547

$$$$
