
 OpenBabel03252509053D

 48 50  0  0  1  0  0  0  0  0999 V2000
   46.6880   34.3630   43.4740 N   0  0  0  0  0  0  0  0  0  0  0  0
   46.4070   34.8980   42.1990 C   0  0  0  0  0  0  0  0  0  0  0  0
   44.9430   34.9040   41.8240 C   0  0  0  0  0  0  0  0  0  0  0  0
   44.0170   35.1500   42.9880 C   0  0  0  0  0  0  0  0  0  0  0  0
   44.7790   35.4060   44.2730 C   0  0  0  0  0  0  0  0  0  0  0  0
   45.7030   34.1310   44.4040 C   0  0  2  0  0  0  0  0  0  0  0  0
   46.7110   35.9790   42.2060 H   0  0  0  0  0  0  0  0  0  0  0  0
   46.9360   34.4450   41.3490 H   0  0  0  0  0  0  0  0  0  0  0  0
   44.7920   35.6920   41.0500 H   0  0  0  0  0  0  0  0  0  0  0  0
   44.6450   33.9410   41.3380 H   0  0  0  0  0  0  0  0  0  0  0  0
   43.4240   36.0870   42.8000 H   0  0  0  0  0  0  0  0  0  0  0  0
   43.2900   34.3570   43.1690 H   0  0  0  0  0  0  0  0  0  0  0  0
   44.0700   35.3580   45.1130 H   0  0  0  0  0  0  0  0  0  0  0  0
   45.3990   36.3000   44.2550 H   0  0  0  0  0  0  0  0  0  0  0  0
   45.0340   33.2580   44.2710 H   0  0  0  0  0  0  0  0  0  0  0  0
   47.8940   33.5770   43.5350 C   0  0  0  0  0  0  0  0  0  0  0  0
   48.2430   33.4140   44.5720 H   0  0  0  0  0  0  0  0  0  0  0  0
   48.6860   34.2010   43.0610 H   0  0  0  0  0  0  0  0  0  0  0  0
   47.6900   32.3470   42.7300 C   0  0  0  0  0  0  0  0  0  0  0  0
   46.7840   32.3930   42.0760 H   0  0  0  0  0  0  0  0  0  0  0  0
   47.5450   31.4820   43.3990 H   0  0  0  0  0  0  0  0  0  0  0  0
   51.2170   32.1940   41.4580 C   0  0  0  0  0  0  0  0  0  0  0  0
   50.1030   32.4010   42.2920 C   0  0  0  0  0  0  0  0  0  0  0  0
   48.8500   32.1230   41.8390 C   0  0  0  0  0  0  0  0  0  0  0  0
   48.7390   31.6590   40.5980 N   0  0  0  0  0  0  0  0  0  0  0  0
   49.7910   31.4560   39.7860 C   0  0  0  0  0  0  0  0  0  0  0  0
   51.0390   31.7210   40.2090 N   0  0  0  0  0  0  0  0  0  0  0  0
   52.2180   32.4200   41.8330 H   0  0  0  0  0  0  0  0  0  0  0  0
   50.2790   32.7830   43.2970 H   0  0  0  0  0  0  0  0  0  0  0  0
   49.6610   31.0770   38.7830 H   0  0  0  0  0  0  0  0  0  0  0  0
   46.1380   34.2610   45.7090 O   0  0  0  0  0  0  0  0  0  0  0  0
   45.7690   31.6290   45.6410 O   0  0  0  0  0  0  0  0  0  0  0  0
   46.0630   32.8050   46.5640 P   0  0  2  0  0  0  0  0  0  0  0  0
   44.7190   32.9450   47.5980 O   0  0  0  0  0  0  0  0  0  0  0  0
   44.1710   32.1210   47.5960 H   0  0  0  0  0  0  0  0  0  0  0  0
   47.4170   32.5450   47.5060 O   0  0  0  0  0  0  0  0  0  0  0  0
   47.2390   31.3800   48.2360 C   0  0  0  0  0  0  0  0  0  0  0  0
   46.7370   30.5770   47.6540 H   0  0  0  0  0  0  0  0  0  0  0  0
   46.6450   31.5850   49.1540 H   0  0  0  0  0  0  0  0  0  0  0  0
   48.6180   30.9520   48.6470 C   0  0  0  0  0  0  0  0  0  0  0  0
   49.0650   29.7210   48.2020 C   0  0  0  0  0  0  0  0  0  0  0  0
   48.4360   29.0870   47.5760 H   0  0  0  0  0  0  0  0  0  0  0  0
   50.3070   29.2180   48.5090 C   0  0  0  0  0  3  0  0  0  0  0  0
   51.1690   29.9660   49.3030 C   0  0  0  0  0  0  0  0  0  0  0  0
   52.1480   29.5830   49.5510 H   0  0  0  0  0  0  0  0  0  0  0  0
   50.7100   31.2030   49.7450 C   0  0  0  0  0  0  0  0  0  0  0  0
   51.3460   31.8190   50.3650 H   0  0  0  0  0  0  0  0  0  0  0  0
   49.4600   31.7060   49.4350 C   0  0  0  0  0  3  0  0  0  0  0  0
  1 16  1  0  0  0  0
  1  6  1  0  0  0  0
  2  7  1  0  0  0  0
  2  1  1  0  0  0  0
  3  2  1  0  0  0  0
  3  4  1  0  0  0  0
  4 12  1  0  0  0  0
  4  5  1  0  0  0  0
  5  6  1  0  0  0  0
  5 13  1  0  0  0  0
  6 15  1  6  0  0  0
  6 31  1  0  0  0  0
  8  2  1  0  0  0  0
  9  3  1  0  0  0  0
 10  3  1  0  0  0  0
 11  4  1  0  0  0  0
 14  5  1  0  0  0  0
 16 17  1  0  0  0  0
 18 16  1  0  0  0  0
 19 21  1  0  0  0  0
 19 16  1  0  0  0  0
 20 19  1  0  0  0  0
 22 28  1  0  0  0  0
 22 23  1  0  0  0  0
 23 29  1  0  0  0  0
 24 23  2  0  0  0  0
 24 19  1  0  0  0  0
 25 24  1  0  0  0  0
 26 27  1  0  0  0  0
 26 25  2  0  0  0  0
 27 22  2  0  0  0  0
 30 26  1  0  0  0  0
 31 33  1  0  0  0  0
 33 32  2  6  0  0  0
 33 36  1  0  0  0  0
 33 34  1  0  0  0  0
 35 34  1  0  0  0  0
 36 37  1  0  0  0  0
 37 40  1  0  0  0  0
 37 39  1  0  0  0  0
 38 37  1  0  0  0  0
 40 48  1  0  0  0  0
 41 43  1  0  0  0  0
 41 40  2  0  0  0  0
 42 41  1  0  0  0  0
 43 44  2  0  0  0  0
 44 45  1  0  0  0  0
 44 46  1  0  0  0  0
 46 47  1  0  0  0  0
 48 46  2  0  0  0  0
M  END
>  <minimizedAffinity>
-5.1199708

>  <minimizedRMSD>
2.98090506

$$$$
