
 OpenBabel03252509053D

 48 50  0  0  1  0  0  0  0  0999 V2000
   47.0520   34.3420   43.2360 N   0  0  0  0  0  0  0  0  0  0  0  0
   46.7010   34.8830   41.9830 C   0  0  0  0  0  0  0  0  0  0  0  0
   45.2640   34.6530   41.5740 C   0  0  0  0  0  0  0  0  0  0  0  0
   44.2910   34.6730   42.7260 C   0  0  0  0  0  0  0  0  0  0  0  0
   44.9770   34.9930   44.0390 C   0  0  0  0  0  0  0  0  0  0  0  0
   46.1100   33.8940   44.1310 C   0  0  2  0  0  0  0  0  0  0  0  0
   46.8100   35.9990   42.0470 H   0  0  0  0  0  0  0  0  0  0  0  0
   47.3130   34.5730   41.1240 H   0  0  0  0  0  0  0  0  0  0  0  0
   44.9890   35.4400   40.8350 H   0  0  0  0  0  0  0  0  0  0  0  0
   45.1470   33.6780   41.0350 H   0  0  0  0  0  0  0  0  0  0  0  0
   43.5460   35.5010   42.5690 H   0  0  0  0  0  0  0  0  0  0  0  0
   43.7120   33.7570   42.8520 H   0  0  0  0  0  0  0  0  0  0  0  0
   44.2760   34.7800   44.8580 H   0  0  0  0  0  0  0  0  0  0  0  0
   45.4320   35.9820   44.0780 H   0  0  0  0  0  0  0  0  0  0  0  0
   45.6060   32.9260   43.9410 H   0  0  0  0  0  0  0  0  0  0  0  0
   48.3760   33.7760   43.2890 C   0  0  0  0  0  0  0  0  0  0  0  0
   48.8710   33.9430   44.2640 H   0  0  0  0  0  0  0  0  0  0  0  0
   48.9820   34.3590   42.5570 H   0  0  0  0  0  0  0  0  0  0  0  0
   48.2970   32.3620   42.8470 C   0  0  0  0  0  0  0  0  0  0  0  0
   47.2910   32.0810   42.4440 H   0  0  0  0  0  0  0  0  0  0  0  0
   48.4860   31.6920   43.7010 H   0  0  0  0  0  0  0  0  0  0  0  0
   51.5500   31.8880   41.0360 C   0  0  0  0  0  0  0  0  0  0  0  0
   50.6060   32.1250   42.0520 C   0  0  0  0  0  0  0  0  0  0  0  0
   49.2760   32.1110   41.7650 C   0  0  0  0  0  0  0  0  0  0  0  0
   48.9270   31.8680   40.5060 N   0  0  0  0  0  0  0  0  0  0  0  0
   49.8130   31.6400   39.5210 C   0  0  0  0  0  0  0  0  0  0  0  0
   51.1320   31.6480   39.7780 N   0  0  0  0  0  0  0  0  0  0  0  0
   52.6150   31.9030   41.2790 H   0  0  0  0  0  0  0  0  0  0  0  0
   50.9740   32.3160   43.0600 H   0  0  0  0  0  0  0  0  0  0  0  0
   49.4910   31.4450   38.5090 H   0  0  0  0  0  0  0  0  0  0  0  0
   46.4950   34.0320   45.4500 O   0  0  0  0  0  0  0  0  0  0  0  0
   45.8480   31.4530   45.4600 O   0  0  0  0  0  0  0  0  0  0  0  0
   46.2270   32.6280   46.3530 P   0  0  2  0  0  0  0  0  0  0  0  0
   44.8630   32.9520   47.3170 O   0  0  0  0  0  0  0  0  0  0  0  0
   44.2300   32.1910   47.3190 H   0  0  0  0  0  0  0  0  0  0  0  0
   47.5040   32.2640   47.3660 O   0  0  0  0  0  0  0  0  0  0  0  0
   47.6850   30.8900   47.3850 C   0  0  0  0  0  0  0  0  0  0  0  0
   48.0500   30.4880   46.4160 H   0  0  0  0  0  0  0  0  0  0  0  0
   46.7330   30.3780   47.6520 H   0  0  0  0  0  0  0  0  0  0  0  0
   48.6850   30.6340   48.4750 C   0  0  0  0  0  0  0  0  0  0  0  0
   49.1530   29.3420   48.6230 C   0  0  0  0  0  0  0  0  0  0  0  0
   48.8060   28.5400   47.9700 H   0  0  0  0  0  0  0  0  0  0  0  0
   50.0690   28.9810   49.5820 C   0  0  0  0  0  3  0  0  0  0  0  0
   50.5610   29.9470   50.4530 C   0  0  0  0  0  0  0  0  0  0  0  0
   51.2820   29.6760   51.2120 H   0  0  0  0  0  0  0  0  0  0  0  0
   50.0840   31.2430   50.2960 C   0  0  0  0  0  0  0  0  0  0  0  0
   50.4380   32.0270   50.9510 H   0  0  0  0  0  0  0  0  0  0  0  0
   49.1620   31.6030   49.3300 C   0  0  0  0  0  3  0  0  0  0  0  0
  1 16  1  0  0  0  0
  1  6  1  0  0  0  0
  2  7  1  0  0  0  0
  2  1  1  0  0  0  0
  3  2  1  0  0  0  0
  3  4  1  0  0  0  0
  4 12  1  0  0  0  0
  4  5  1  0  0  0  0
  5 14  1  0  0  0  0
  5  6  1  0  0  0  0
  5 13  1  0  0  0  0
  6 15  1  6  0  0  0
  6 31  1  0  0  0  0
  8  2  1  0  0  0  0
  9  3  1  0  0  0  0
 10  3  1  0  0  0  0
 11  4  1  0  0  0  0
 16 17  1  0  0  0  0
 18 16  1  0  0  0  0
 19 16  1  0  0  0  0
 19 21  1  0  0  0  0
 20 19  1  0  0  0  0
 22 28  1  0  0  0  0
 22 23  1  0  0  0  0
 23 29  1  0  0  0  0
 24 23  2  0  0  0  0
 24 19  1  0  0  0  0
 25 24  1  0  0  0  0
 26 27  1  0  0  0  0
 26 25  2  0  0  0  0
 27 22  2  0  0  0  0
 30 26  1  0  0  0  0
 31 33  1  0  0  0  0
 33 32  2  6  0  0  0
 33 34  1  0  0  0  0
 33 36  1  0  0  0  0
 34 35  1  0  0  0  0
 36 37  1  0  0  0  0
 37 39  1  0  0  0  0
 37 40  1  0  0  0  0
 38 37  1  0  0  0  0
 40 41  2  0  0  0  0
 40 48  1  0  0  0  0
 41 43  1  0  0  0  0
 42 41  1  0  0  0  0
 43 44  2  0  0  0  0
 44 45  1  0  0  0  0
 46 44  1  0  0  0  0
 46 47  1  0  0  0  0
 48 46  2  0  0  0  0
M  END
>  <minimizedAffinity>
-5.02383995

>  <minimizedRMSD>
2.9222796

$$$$
