
 OpenBabel03252506203D

 33 35  0  0  0  0  0  0  0  0999 V2000
   45.4550   35.9860   43.5340 C   0  0  0  0  0  0  0  0  0  0  0  0
   44.8280   35.2620   44.5680 C   0  0  0  0  0  0  0  0  0  0  0  0
   45.2690   33.9510   44.7930 C   0  0  0  0  0  0  0  0  0  0  0  0
   46.2600   33.4520   44.0180 N   0  0  0  0  0  0  0  0  0  0  0  0
   46.8380   34.1910   43.0270 C   0  0  0  0  0  0  0  0  0  0  0  0
   46.4340   35.4480   42.7920 N   0  0  0  0  0  0  0  0  0  0  0  0
   44.0470   35.6990   45.1560 H   0  0  0  0  0  0  0  0  0  0  0  0
   44.8260   33.3410   45.5750 H   0  0  0  0  0  0  0  0  0  0  0  0
   45.9180   32.9240   40.4360 Cl  0  0  0  0  0  0  0  0  0  0  0  0
   47.5520   32.9560   41.0450 C   0  0  0  0  0  0  0  0  0  0  0  0
   47.8970   33.5610   42.2490 C   0  0  0  0  0  0  0  0  0  0  0  0
   49.1780   33.5900   42.7330 C   0  0  0  0  0  0  0  0  0  0  0  0
   50.1470   32.9810   41.9640 C   0  0  0  0  0  0  0  0  0  0  0  0
   49.9100   32.3610   40.7650 C   0  0  0  0  0  0  0  0  0  0  0  0
   48.5800   32.3730   40.3390 C   0  0  0  0  0  0  0  0  0  0  0  0
   49.4630   34.0540   43.6670 H   0  0  0  0  0  0  0  0  0  0  0  0
   51.1630   32.9980   42.3360 H   0  0  0  0  0  0  0  0  0  0  0  0
   50.6690   31.8820   40.1590 H   0  0  0  0  0  0  0  0  0  0  0  0
   48.3400   31.8960   39.3980 H   0  0  0  0  0  0  0  0  0  0  0  0
   45.0000   37.3670   43.2870 C   0  0  0  0  0  3  0  0  0  0  0  0
   45.7600   38.3530   43.6980 C   0  0  0  0  0  3  0  0  0  0  0  0
   45.3450   39.7620   43.4720 C   0  0  0  0  0  0  0  0  0  0  0  0
   44.4460   39.7580   42.8180 H   0  0  0  0  0  0  0  0  0  0  0  0
   46.1170   40.3550   42.9410 H   0  0  0  0  0  0  0  0  0  0  0  0
   44.9980   40.4530   44.7230 C   0  0  0  0  0  0  0  0  0  0  0  0
   44.4750   41.7460   44.6420 C   0  0  0  0  0  0  0  0  0  0  0  0
   44.3320   42.2210   43.6650 H   0  0  0  0  0  0  0  0  0  0  0  0
   44.1320   42.4420   45.7820 C   0  0  0  0  0  3  0  0  0  0  0  0
   44.2890   41.8970   47.0380 C   0  0  0  0  0  0  0  0  0  0  0  0
   44.0300   42.4150   47.9470 H   0  0  0  0  0  0  0  0  0  0  0  0
   44.8100   40.6040   47.1500 C   0  0  0  0  0  0  0  0  0  0  0  0
   44.9700   40.0900   48.0930 H   0  0  0  0  0  0  0  0  0  0  0  0
   45.1470   39.9240   45.9930 C   0  0  0  0  0  3  0  0  0  0  0  0
  1  2  1  0  0  0  0
  2  3  2  0  0  0  0
  2  7  1  0  0  0  0
  3  8  1  0  0  0  0
  4  3  1  0  0  0  0
  5  4  2  0  0  0  0
  6  5  1  0  0  0  0
  6  1  2  0  0  0  0
  9 10  1  0  0  0  0
 10 11  1  0  0  0  0
 11 12  2  0  0  0  0
 11  5  1  0  0  0  0
 12 16  1  0  0  0  0
 13 17  1  0  0  0  0
 13 12  1  0  0  0  0
 14 13  2  0  0  0  0
 15 14  1  0  0  0  0
 15 10  2  0  0  0  0
 18 14  1  0  0  0  0
 19 15  1  0  0  0  0
 20  1  1  0  0  0  0
 20 21  2  0  0  0  0
 22 21  1  0  0  0  0
 22 25  1  0  0  0  0
 23 22  1  0  0  0  0
 24 22  1  0  0  0  0
 25 33  1  0  0  0  0
 26 25  2  0  0  0  0
 26 28  1  0  0  0  0
 27 26  1  0  0  0  0
 28 29  2  0  0  0  0
 29 31  1  0  0  0  0
 29 30  1  0  0  0  0
 31 32  1  0  0  0  0
 33 31  2  0  0  0  0
M  END
>  <minimizedAffinity>
-3.95371485

>  <minimizedRMSD>
2.29441786

$$$$
