
 OpenBabel03252507413D

 25 26  0  0  0  0  0  0  0  0999 V2000
   48.1500   34.5650   40.2400 C   0  0  0  0  0  0  0  0  0  0  0  0
   47.3900   34.9600   39.5650 H   0  0  0  0  0  0  0  0  0  0  0  0
   49.0410   35.2390   40.1110 H   0  0  0  0  0  0  0  0  0  0  0  0
   48.6010   33.2150   39.8770 C   0  0  0  0  0  0  0  0  0  0  0  0
   48.6770   32.9560   38.4970 C   0  0  0  0  0  0  0  0  0  0  0  0
   49.1000   31.6910   38.0940 C   0  0  0  0  0  0  0  0  0  0  0  0
   49.4240   30.7490   39.0280 N   0  0  0  0  0  0  0  0  0  0  0  0
   49.3320   31.0540   40.3460 C   0  0  0  0  0  0  0  0  0  0  0  0
   48.9300   32.2610   40.7750 N   0  0  0  0  0  0  0  0  0  0  0  0
   49.1500   31.5160   37.0200 H   0  0  0  0  0  0  0  0  0  0  0  0
   49.6130   30.2360   40.9960 H   0  0  0  0  0  0  0  0  0  0  0  0
   48.2480   34.2050   37.3010 S   0  0  0  0  0  0  0  0  0  0  0  0
   49.1110   35.3060   37.3690 H   0  0  0  0  0  0  0  0  0  0  0  0
   47.7700   34.6940   41.7000 C   0  0  0  0  0  0  0  0  0  0  0  0
   48.3300   35.5550   42.1220 H   0  0  0  0  0  0  0  0  0  0  0  0
   48.0660   33.7580   42.1960 H   0  0  0  0  0  0  0  0  0  0  0  0
   46.3220   34.8770   41.8570 C   0  0  0  0  0  0  0  0  0  0  0  0
   45.8400   35.5440   42.9770 C   0  0  0  0  0  0  0  0  0  0  0  0
   46.5620   35.9100   43.7050 H   0  0  0  0  0  0  0  0  0  0  0  0
   44.4800   35.7500   43.1850 C   0  0  0  0  0  3  0  0  0  0  0  0
   43.5960   35.2660   42.2280 C   0  0  0  0  0  0  0  0  0  0  0  0
   42.5630   35.4630   42.4590 H   0  0  0  0  0  0  0  0  0  0  0  0
   44.0120   34.5960   41.0960 C   0  0  0  0  0  0  0  0  0  0  0  0
   43.2930   34.2380   40.3840 H   0  0  0  0  0  0  0  0  0  0  0  0
   45.3690   34.4370   40.9720 C   0  0  0  0  0  3  0  0  0  0  0  0
  1 14  1  0  0  0  0
  2  1  1  0  0  0  0
  3  1  1  0  0  0  0
  4  1  1  0  0  0  0
  4  9  1  0  0  0  0
  5  4  2  0  0  0  0
  6  5  1  0  0  0  0
  6  7  2  0  0  0  0
  7  8  1  0  0  0  0
  8  9  2  0  0  0  0
  8 11  1  0  0  0  0
 10  6  1  0  0  0  0
 12 13  1  0  0  0  0
 12  5  1  0  0  0  0
 14 17  1  0  0  0  0
 14 15  1  0  0  0  0
 14 16  1  0  0  0  0
 17 18  1  0  0  0  0
 18 20  2  0  0  0  0
 18 19  1  0  0  0  0
 21 22  1  0  0  0  0
 21 20  1  0  0  0  0
 23 21  2  0  0  0  0
 24 23  1  0  0  0  0
 25 23  1  0  0  0  0
 25 17  2  0  0  0  0
M  END
>  <minimizedAffinity>
-4.03585243

>  <minimizedRMSD>
4.1731925

$$$$
