
 OpenBabel03252504533D

 21 22  0  0  0  0  0  0  0  0999 V2000
   44.7950   33.4300   39.9440 C   0  0  0  0  0  0  0  0  0  0  0  0
   45.0870   33.0560   38.9230 H   0  0  0  0  0  0  0  0  0  0  0  0
   43.9720   34.1800   39.8400 H   0  0  0  0  0  0  0  0  0  0  0  0
   42.6670   31.4100   42.2370 C   0  0  0  0  0  0  0  0  0  0  0  0
   43.0910   32.4200   41.3510 C   0  0  0  0  0  0  0  0  0  0  0  0
   44.3850   32.3690   40.8620 C   0  0  0  0  0  0  0  0  0  0  0  0
   45.1900   31.3490   41.2580 N   0  0  0  0  0  0  0  0  0  0  0  0
   44.7590   30.3820   42.1170 C   0  0  0  0  0  0  0  0  0  0  0  0
   43.5050   30.4280   42.5940 N   0  0  0  0  0  0  0  0  0  0  0  0
   41.6650   31.4720   42.6000 H   0  0  0  0  0  0  0  0  0  0  0  0
   42.4040   33.2060   41.0710 H   0  0  0  0  0  0  0  0  0  0  0  0
   45.4870   29.6000   42.3760 H   0  0  0  0  0  0  0  0  0  0  0  0
   46.0200   34.0480   40.5430 C   0  0  0  0  0  0  0  0  0  0  0  0
   45.9280   34.6320   41.7810 C   0  0  0  0  0  0  0  0  0  0  0  0
   44.9500   34.6180   42.2810 H   0  0  0  0  0  0  0  0  0  0  0  0
   46.9330   35.2480   42.4930 C   0  0  0  0  0  3  0  0  0  0  0  0
   48.1760   35.2620   41.8500 C   0  0  0  0  0  0  0  0  0  0  0  0
   48.9980   35.7400   42.3790 H   0  0  0  0  0  0  0  0  0  0  0  0
   48.3170   34.6840   40.5970 C   0  0  0  0  0  0  0  0  0  0  0  0
   49.3030   34.7130   40.1250 H   0  0  0  0  0  0  0  0  0  0  0  0
   47.2570   34.0810   39.9420 C   0  0  0  0  0  3  0  0  0  0  0  0
  1 13  1  0  0  0  0
  1  6  1  0  0  0  0
  2  1  1  0  0  0  0
  3  1  1  0  0  0  0
  4  9  1  0  0  0  0
  4 10  1  0  0  0  0
  5  4  2  0  0  0  0
  6  7  2  0  0  0  0
  6  5  1  0  0  0  0
  7  8  1  0  0  0  0
  8 12  1  0  0  0  0
  8  9  2  0  0  0  0
 11  5  1  0  0  0  0
 13 14  1  0  0  0  0
 14 15  1  0  0  0  0
 14 16  2  0  0  0  0
 17 18  1  0  0  0  0
 17 16  1  0  0  0  0
 19 17  2  0  0  0  0
 20 19  1  0  0  0  0
 21 13  2  0  0  0  0
 21 19  1  0  0  0  0
M  END
>  <minimizedAffinity>
-3.1140697

>  <minimizedRMSD>
4.06124544

$$$$
