
 OpenBabel03252506203D

 33 35  0  0  0  0  0  0  0  0999 V2000
   35.0070   28.9890   38.3350 C   0  0  0  0  0  0  0  0  0  0  0  0
   35.9560   29.4680   37.4090 C   0  0  0  0  0  0  0  0  0  0  0  0
   37.2890   29.5410   37.8360 C   0  0  0  0  0  0  0  0  0  0  0  0
   37.5950   29.1550   39.0960 N   0  0  0  0  0  0  0  0  0  0  0  0
   36.6410   28.6970   39.9580 C   0  0  0  0  0  0  0  0  0  0  0  0
   35.3590   28.6170   39.5740 N   0  0  0  0  0  0  0  0  0  0  0  0
   35.6670   29.7630   36.4210 H   0  0  0  0  0  0  0  0  0  0  0  0
   38.0680   29.9030   37.1700 H   0  0  0  0  0  0  0  0  0  0  0  0
   36.8710   25.7080   40.3860 Cl  0  0  0  0  0  0  0  0  0  0  0  0
   37.2040   26.9480   41.5670 C   0  0  0  0  0  0  0  0  0  0  0  0
   37.0750   28.3060   41.2940 C   0  0  0  0  0  0  0  0  0  0  0  0
   37.3350   29.2840   42.2150 C   0  0  0  0  0  0  0  0  0  0  0  0
   37.7430   28.8680   43.4650 C   0  0  0  0  0  0  0  0  0  0  0  0
   37.9020   27.5570   43.8340 C   0  0  0  0  0  0  0  0  0  0  0  0
   37.6180   26.6190   42.8390 C   0  0  0  0  0  0  0  0  0  0  0  0
   37.2390   30.3430   42.0200 H   0  0  0  0  0  0  0  0  0  0  0  0
   37.9510   29.6320   44.2020 H   0  0  0  0  0  0  0  0  0  0  0  0
   38.2210   27.2280   44.8130 H   0  0  0  0  0  0  0  0  0  0  0  0
   37.7270   25.5700   43.0790 H   0  0  0  0  0  0  0  0  0  0  0  0
   33.6010   28.9060   37.8980 C   0  0  0  0  0  3  0  0  0  0  0  0
   33.3490   28.9250   36.6120 C   0  0  0  0  0  3  0  0  0  0  0  0
   31.9470   28.8440   36.1220 C   0  0  0  0  0  0  0  0  0  0  0  0
   31.3740   28.1970   36.8210 H   0  0  0  0  0  0  0  0  0  0  0  0
   31.8720   28.3710   35.1220 H   0  0  0  0  0  0  0  0  0  0  0  0
   31.2930   30.1600   36.0730 C   0  0  0  0  0  0  0  0  0  0  0  0
   31.4410   30.9280   34.9150 C   0  0  0  0  0  0  0  0  0  0  0  0
   32.0310   30.5480   34.0750 H   0  0  0  0  0  0  0  0  0  0  0  0
   30.8500   32.1700   34.8120 C   0  0  0  0  0  3  0  0  0  0  0  0
   30.0950   32.7010   35.8360 C   0  0  0  0  0  0  0  0  0  0  0  0
   29.6210   33.6670   35.7840 H   0  0  0  0  0  0  0  0  0  0  0  0
   29.9300   31.9530   37.0070 C   0  0  0  0  0  0  0  0  0  0  0  0
   29.3550   32.2860   37.8660 H   0  0  0  0  0  0  0  0  0  0  0  0
   30.5330   30.7100   37.0890 C   0  0  0  0  0  3  0  0  0  0  0  0
  1  6  1  0  0  0  0
  2  3  1  0  0  0  0
  2  1  2  0  0  0  0
  3  4  2  0  0  0  0
  4  5  1  0  0  0  0
  5 11  1  0  0  0  0
  6  5  2  0  0  0  0
  7  2  1  0  0  0  0
  8  3  1  0  0  0  0
  9 10  1  0  0  0  0
 10 15  1  0  0  0  0
 11 10  2  0  0  0  0
 11 12  1  0  0  0  0
 12 13  2  0  0  0  0
 13 14  1  0  0  0  0
 13 17  1  0  0  0  0
 14 18  1  0  0  0  0
 15 19  1  0  0  0  0
 15 14  2  0  0  0  0
 16 12  1  0  0  0  0
 20  1  1  0  0  0  0
 21 20  2  0  0  0  0
 22 21  1  0  0  0  0
 22 23  1  0  0  0  0
 24 22  1  0  0  0  0
 25 22  1  0  0  0  0
 25 33  1  0  0  0  0
 26 25  2  0  0  0  0
 27 26  1  0  0  0  0
 28 26  1  0  0  0  0
 28 29  2  0  0  0  0
 29 31  1  0  0  0  0
 30 29  1  0  0  0  0
 31 33  2  0  0  0  0
 31 32  1  0  0  0  0
M  END
>  <minimizedAffinity>
-6.08384323

$$$$

 OpenBabel03252506203D

 33 35  0  0  0  0  0  0  0  0999 V2000
   35.5900   28.9650   37.2040 C   0  0  0  0  0  0  0  0  0  0  0  0
   36.7120   29.5990   36.6320 C   0  0  0  0  0  0  0  0  0  0  0  0
   37.8830   29.6460   37.4000 C   0  0  0  0  0  0  0  0  0  0  0  0
   37.8790   29.0900   38.6340 N   0  0  0  0  0  0  0  0  0  0  0  0
   36.7680   28.4860   39.1460 C   0  0  0  0  0  0  0  0  0  0  0  0
   35.6350   28.4280   38.4310 N   0  0  0  0  0  0  0  0  0  0  0  0
   36.6670   30.0250   35.6510 H   0  0  0  0  0  0  0  0  0  0  0  0
   38.7820   30.1210   37.0160 H   0  0  0  0  0  0  0  0  0  0  0  0
   36.3660   30.4730   41.3950 Cl  0  0  0  0  0  0  0  0  0  0  0  0
   36.6960   28.7700   41.5700 C   0  0  0  0  0  0  0  0  0  0  0  0
   36.8690   27.9180   40.4840 C   0  0  0  0  0  0  0  0  0  0  0  0
   37.1280   26.5800   40.6150 C   0  0  0  0  0  0  0  0  0  0  0  0
   37.2150   26.0860   41.9000 C   0  0  0  0  0  0  0  0  0  0  0  0
   37.0590   26.8400   43.0330 C   0  0  0  0  0  0  0  0  0  0  0  0
   36.7970   28.1950   42.8180 C   0  0  0  0  0  0  0  0  0  0  0  0
   37.2660   25.9040   39.7820 H   0  0  0  0  0  0  0  0  0  0  0  0
   37.4190   25.0290   42.0150 H   0  0  0  0  0  0  0  0  0  0  0  0
   37.1260   26.4550   44.0430 H   0  0  0  0  0  0  0  0  0  0  0  0
   36.6660   28.8340   43.6800 H   0  0  0  0  0  0  0  0  0  0  0  0
   34.3500   28.9090   36.4060 C   0  0  0  0  0  3  0  0  0  0  0  0
   33.2040   28.8870   37.0410 C   0  0  0  0  0  3  0  0  0  0  0  0
   31.9280   28.8300   36.2820 C   0  0  0  0  0  0  0  0  0  0  0  0
   31.2220   28.1780   36.8390 H   0  0  0  0  0  0  0  0  0  0  0  0
   32.0490   28.3770   35.2770 H   0  0  0  0  0  0  0  0  0  0  0  0
   31.3070   30.1550   36.1300 C   0  0  0  0  0  0  0  0  0  0  0  0
   30.5810   30.6720   37.2070 C   0  0  0  0  0  0  0  0  0  0  0  0
   30.4860   30.0950   38.1330 H   0  0  0  0  0  0  0  0  0  0  0  0
   29.9780   31.9080   37.1230 C   0  0  0  0  0  3  0  0  0  0  0  0
   30.0640   32.6810   35.9840 C   0  0  0  0  0  0  0  0  0  0  0  0
   29.6030   33.6500   35.8890 H   0  0  0  0  0  0  0  0  0  0  0  0
   30.7840   32.1880   34.8900 C   0  0  0  0  0  0  0  0  0  0  0  0
   30.9070   32.7210   33.9530 H   0  0  0  0  0  0  0  0  0  0  0  0
   31.3810   30.9440   34.9970 C   0  0  0  0  0  3  0  0  0  0  0  0
  1  6  1  0  0  0  0
  2  1  2  0  0  0  0
  2  3  1  0  0  0  0
  3  4  2  0  0  0  0
  4  5  1  0  0  0  0
  5 11  1  0  0  0  0
  6  5  2  0  0  0  0
  7  2  1  0  0  0  0
  8  3  1  0  0  0  0
  9 10  1  0  0  0  0
 10 15  1  0  0  0  0
 11 12  1  0  0  0  0
 11 10  2  0  0  0  0
 12 13  2  0  0  0  0
 13 17  1  0  0  0  0
 13 14  1  0  0  0  0
 14 18  1  0  0  0  0
 15 14  2  0  0  0  0
 15 19  1  0  0  0  0
 16 12  1  0  0  0  0
 20 21  2  0  0  0  0
 20  1  1  0  0  0  0
 22 23  1  0  0  0  0
 22 21  1  0  0  0  0
 24 22  1  0  0  0  0
 25 22  1  0  0  0  0
 25 26  1  0  0  0  0
 26 27  1  0  0  0  0
 28 26  2  0  0  0  0
 29 28  1  0  0  0  0
 30 29  1  0  0  0  0
 31 33  1  0  0  0  0
 31 29  2  0  0  0  0
 32 31  1  0  0  0  0
 33 25  2  0  0  0  0
M  END
>  <minimizedAffinity>
-5.89500237

$$$$

 OpenBabel03252506203D

 33 35  0  0  0  0  0  0  0  0999 V2000
   35.0940   28.6620   38.0110 C   0  0  0  0  0  0  0  0  0  0  0  0
   36.0500   28.9430   37.0140 C   0  0  0  0  0  0  0  0  0  0  0  0
   37.3980   28.9420   37.3990 C   0  0  0  0  0  0  0  0  0  0  0  0
   37.7100   28.6760   38.6890 N   0  0  0  0  0  0  0  0  0  0  0  0
   36.7490   28.4080   39.6200 C   0  0  0  0  0  0  0  0  0  0  0  0
   35.4520   28.4030   39.2770 N   0  0  0  0  0  0  0  0  0  0  0  0
   35.7550   29.1480   36.0060 H   0  0  0  0  0  0  0  0  0  0  0  0
   38.1830   29.1520   36.6780 H   0  0  0  0  0  0  0  0  0  0  0  0
   37.0540   30.8620   41.3660 Cl  0  0  0  0  0  0  0  0  0  0  0  0
   37.3540   29.2130   41.8450 C   0  0  0  0  0  0  0  0  0  0  0  0
   37.1900   28.1340   40.9810 C   0  0  0  0  0  0  0  0  0  0  0  0
   37.4230   26.8370   41.3510 C   0  0  0  0  0  0  0  0  0  0  0  0
   37.8380   26.6240   42.6480 C   0  0  0  0  0  0  0  0  0  0  0  0
   38.0280   27.6170   43.5750 C   0  0  0  0  0  0  0  0  0  0  0  0
   37.7700   28.9120   43.1220 C   0  0  0  0  0  0  0  0  0  0  0  0
   37.3010   25.9870   40.6920 H   0  0  0  0  0  0  0  0  0  0  0  0
   38.0260   25.6020   42.9520 H   0  0  0  0  0  0  0  0  0  0  0  0
   38.3550   27.4530   44.5930 H   0  0  0  0  0  0  0  0  0  0  0  0
   37.9050   29.7320   43.8150 H   0  0  0  0  0  0  0  0  0  0  0  0
   33.6720   28.6590   37.6190 C   0  0  0  0  0  3  0  0  0  0  0  0
   33.3800   28.7280   36.3430 C   0  0  0  0  0  3  0  0  0  0  0  0
   31.9620   28.7280   35.8980 C   0  0  0  0  0  0  0  0  0  0  0  0
   31.3600   28.1900   36.6620 H   0  0  0  0  0  0  0  0  0  0  0  0
   31.8150   28.1860   34.9420 H   0  0  0  0  0  0  0  0  0  0  0  0
   31.4180   30.0870   35.7590 C   0  0  0  0  0  0  0  0  0  0  0  0
   31.6590   30.7770   34.5670 C   0  0  0  0  0  0  0  0  0  0  0  0
   32.2380   30.3050   33.7670 H   0  0  0  0  0  0  0  0  0  0  0  0
   31.1730   32.0530   34.3800 C   0  0  0  0  0  3  0  0  0  0  0  0
   30.4360   32.6980   35.3500 C   0  0  0  0  0  0  0  0  0  0  0  0
   30.0440   33.6950   35.2330 H   0  0  0  0  0  0  0  0  0  0  0  0
   30.1790   32.0320   36.5530 C   0  0  0  0  0  0  0  0  0  0  0  0
   29.6110   32.4560   37.3750 H   0  0  0  0  0  0  0  0  0  0  0  0
   30.6770   30.7510   36.7200 C   0  0  0  0  0  3  0  0  0  0  0  0
  1  6  1  0  0  0  0
  2  3  1  0  0  0  0
  2  1  2  0  0  0  0
  3  4  2  0  0  0  0
  4  5  1  0  0  0  0
  5 11  1  0  0  0  0
  6  5  2  0  0  0  0
  7  2  1  0  0  0  0
  8  3  1  0  0  0  0
  9 10  1  0  0  0  0
 10 15  1  0  0  0  0
 11 12  1  0  0  0  0
 11 10  2  0  0  0  0
 12 13  2  0  0  0  0
 13 17  1  0  0  0  0
 13 14  1  0  0  0  0
 14 18  1  0  0  0  0
 15 14  2  0  0  0  0
 15 19  1  0  0  0  0
 16 12  1  0  0  0  0
 20  1  1  0  0  0  0
 21 20  2  0  0  0  0
 22 21  1  0  0  0  0
 22 23  1  0  0  0  0
 24 22  1  0  0  0  0
 25 22  1  0  0  0  0
 25 33  1  0  0  0  0
 26 25  2  0  0  0  0
 27 26  1  0  0  0  0
 28 26  1  0  0  0  0
 28 29  2  0  0  0  0
 29 31  1  0  0  0  0
 30 29  1  0  0  0  0
 31 33  2  0  0  0  0
 31 32  1  0  0  0  0
M  END
>  <minimizedAffinity>
-5.69698

$$$$

 OpenBabel03252506203D

 33 35  0  0  0  0  0  0  0  0999 V2000
   37.7720   30.3800   40.6770 C   0  0  0  0  0  0  0  0  0  0  0  0
   36.5580   30.5190   39.9750 C   0  0  0  0  0  0  0  0  0  0  0  0
   36.5490   31.3850   38.8730 C   0  0  0  0  0  0  0  0  0  0  0  0
   37.6890   32.0360   38.5430 N   0  0  0  0  0  0  0  0  0  0  0  0
   38.8420   31.8690   39.2530 C   0  0  0  0  0  0  0  0  0  0  0  0
   38.8760   31.0460   40.3110 N   0  0  0  0  0  0  0  0  0  0  0  0
   35.6800   29.9840   40.2740 H   0  0  0  0  0  0  0  0  0  0  0  0
   35.6440   31.5360   38.2900 H   0  0  0  0  0  0  0  0  0  0  0  0
   39.3030   34.4740   40.7270 Cl  0  0  0  0  0  0  0  0  0  0  0  0
   40.2920   33.8250   39.4460 C   0  0  0  0  0  0  0  0  0  0  0  0
   40.0150   32.6160   38.8150 C   0  0  0  0  0  0  0  0  0  0  0  0
   40.7870   32.1010   37.8100 C   0  0  0  0  0  0  0  0  0  0  0  0
   41.8860   32.8410   37.4280 C   0  0  0  0  0  0  0  0  0  0  0  0
   42.2460   34.0400   37.9860 C   0  0  0  0  0  0  0  0  0  0  0  0
   41.4090   34.4990   39.0050 C   0  0  0  0  0  0  0  0  0  0  0  0
   40.5850   31.1640   37.3080 H   0  0  0  0  0  0  0  0  0  0  0  0
   42.5050   32.4430   36.6340 H   0  0  0  0  0  0  0  0  0  0  0  0
   43.1080   34.6230   37.6880 H   0  0  0  0  0  0  0  0  0  0  0  0
   41.6490   35.4420   39.4790 H   0  0  0  0  0  0  0  0  0  0  0  0
   37.7950   29.4720   41.8390 C   0  0  0  0  0  3  0  0  0  0  0  0
   36.9670   28.4550   41.8480 C   0  0  0  0  0  3  0  0  0  0  0  0
   36.9530   27.5110   42.9950 C   0  0  0  0  0  0  0  0  0  0  0  0
   36.0450   26.8760   42.9100 H   0  0  0  0  0  0  0  0  0  0  0  0
   36.8840   28.0290   43.9730 H   0  0  0  0  0  0  0  0  0  0  0  0
   38.1290   26.6290   43.0100 C   0  0  0  0  0  0  0  0  0  0  0  0
   38.1780   25.5770   42.0910 C   0  0  0  0  0  0  0  0  0  0  0  0
   37.3550   25.4250   41.3850 H   0  0  0  0  0  0  0  0  0  0  0  0
   39.2570   24.7190   42.0590 C   0  0  0  0  0  3  0  0  0  0  0  0
   40.3220   24.8600   42.9220 C   0  0  0  0  0  0  0  0  0  0  0  0
   41.1780   24.2050   42.9190 H   0  0  0  0  0  0  0  0  0  0  0  0
   40.3000   25.9050   43.8520 C   0  0  0  0  0  0  0  0  0  0  0  0
   41.0900   26.0960   44.5710 H   0  0  0  0  0  0  0  0  0  0  0  0
   39.2070   26.7540   43.8670 C   0  0  0  0  0  3  0  0  0  0  0  0
  1 20  1  0  0  0  0
  2  7  1  0  0  0  0
  2  1  2  0  0  0  0
  3  2  1  0  0  0  0
  4  3  2  0  0  0  0
  4  5  1  0  0  0  0
  5  6  2  0  0  0  0
  6  1  1  0  0  0  0
  8  3  1  0  0  0  0
 10  9  1  0  0  0  0
 11  5  1  0  0  0  0
 11 10  2  0  0  0  0
 12 11  1  0  0  0  0
 13 12  2  0  0  0  0
 13 14  1  0  0  0  0
 14 15  2  0  0  0  0
 15 10  1  0  0  0  0
 15 19  1  0  0  0  0
 16 12  1  0  0  0  0
 17 13  1  0  0  0  0
 18 14  1  0  0  0  0
 20 21  2  0  0  0  0
 21 22  1  0  0  0  0
 22 25  1  0  0  0  0
 22 24  1  0  0  0  0
 23 22  1  0  0  0  0
 25 33  1  0  0  0  0
 26 25  2  0  0  0  0
 27 26  1  0  0  0  0
 28 26  1  0  0  0  0
 28 29  2  0  0  0  0
 29 31  1  0  0  0  0
 30 29  1  0  0  0  0
 31 33  2  0  0  0  0
 31 32  1  0  0  0  0
M  END
>  <minimizedAffinity>
-5.65632343

$$$$

 OpenBabel03252506203D

 33 35  0  0  0  0  0  0  0  0999 V2000
   38.2030   32.3060   39.2860 C   0  0  0  0  0  0  0  0  0  0  0  0
   37.5750   33.4230   39.8730 C   0  0  0  0  0  0  0  0  0  0  0  0
   38.3780   34.5360   40.1570 C   0  0  0  0  0  0  0  0  0  0  0  0
   39.6970   34.4840   39.8580 N   0  0  0  0  0  0  0  0  0  0  0  0
   40.2610   33.3800   39.2890 C   0  0  0  0  0  0  0  0  0  0  0  0
   39.5140   32.3020   39.0080 N   0  0  0  0  0  0  0  0  0  0  0  0
   36.5270   33.4170   40.0920 H   0  0  0  0  0  0  0  0  0  0  0  0
   37.9540   35.4280   40.6100 H   0  0  0  0  0  0  0  0  0  0  0  0
   42.0250   32.3770   41.5360 Cl  0  0  0  0  0  0  0  0  0  0  0  0
   42.5660   32.9810   39.9920 C   0  0  0  0  0  0  0  0  0  0  0  0
   41.6910   33.4260   39.0060 C   0  0  0  0  0  0  0  0  0  0  0  0
   42.1080   33.9010   37.7920 C   0  0  0  0  0  0  0  0  0  0  0  0
   43.4680   33.9270   37.5690 C   0  0  0  0  0  0  0  0  0  0  0  0
   44.4110   33.5110   38.4730 C   0  0  0  0  0  0  0  0  0  0  0  0
   43.9070   33.0400   39.6870 C   0  0  0  0  0  0  0  0  0  0  0  0
   41.4410   34.2510   37.0160 H   0  0  0  0  0  0  0  0  0  0  0  0
   43.8100   34.3000   36.6120 H   0  0  0  0  0  0  0  0  0  0  0  0
   45.4790   33.5300   38.3000 H   0  0  0  0  0  0  0  0  0  0  0  0
   44.6110   32.7000   40.4350 H   0  0  0  0  0  0  0  0  0  0  0  0
   37.3690   31.1280   38.9820 C   0  0  0  0  0  3  0  0  0  0  0  0
   37.0430   30.3280   39.9680 C   0  0  0  0  0  3  0  0  0  0  0  0
   36.2040   29.1280   39.7120 C   0  0  0  0  0  0  0  0  0  0  0  0
   36.4120   28.7730   38.6800 H   0  0  0  0  0  0  0  0  0  0  0  0
   35.1180   29.3500   39.7560 H   0  0  0  0  0  0  0  0  0  0  0  0
   36.4990   28.0280   40.6430 C   0  0  0  0  0  0  0  0  0  0  0  0
   36.7620   26.7630   40.1090 C   0  0  0  0  0  0  0  0  0  0  0  0
   36.7440   26.6100   39.0250 H   0  0  0  0  0  0  0  0  0  0  0  0
   37.0450   25.6950   40.9340 C   0  0  0  0  0  3  0  0  0  0  0  0
   37.0820   25.8270   42.3050 C   0  0  0  0  0  0  0  0  0  0  0  0
   37.3010   25.0110   42.9740 H   0  0  0  0  0  0  0  0  0  0  0  0
   36.8240   27.0830   42.8670 C   0  0  0  0  0  0  0  0  0  0  0  0
   36.8290   27.2850   43.9330 H   0  0  0  0  0  0  0  0  0  0  0  0
   36.5410   28.1400   42.0210 C   0  0  0  0  0  3  0  0  0  0  0  0
  1  2  1  0  0  0  0
  2  7  1  0  0  0  0
  2  3  2  0  0  0  0
  3  8  1  0  0  0  0
  4  3  1  0  0  0  0
  5  4  2  0  0  0  0
  6  1  2  0  0  0  0
  6  5  1  0  0  0  0
 10  9  1  0  0  0  0
 11  5  1  0  0  0  0
 11 10  2  0  0  0  0
 12 11  1  0  0  0  0
 13 12  2  0  0  0  0
 13 14  1  0  0  0  0
 14 15  2  0  0  0  0
 15 10  1  0  0  0  0
 15 19  1  0  0  0  0
 16 12  1  0  0  0  0
 17 13  1  0  0  0  0
 18 14  1  0  0  0  0
 20  1  1  0  0  0  0
 20 21  2  0  0  0  0
 22 24  1  0  0  0  0
 22 21  1  0  0  0  0
 22 25  1  0  0  0  0
 23 22  1  0  0  0  0
 25 33  1  0  0  0  0
 26 25  2  0  0  0  0
 26 28  1  0  0  0  0
 27 26  1  0  0  0  0
 28 29  2  0  0  0  0
 29 31  1  0  0  0  0
 29 30  1  0  0  0  0
 31 32  1  0  0  0  0
 33 31  2  0  0  0  0
M  END
>  <minimizedAffinity>
-5.6166358

$$$$

 OpenBabel03252506203D

 33 35  0  0  0  0  0  0  0  0999 V2000
   35.3490   28.9350   38.7680 C   0  0  0  0  0  0  0  0  0  0  0  0
   36.1210   29.8840   38.0670 C   0  0  0  0  0  0  0  0  0  0  0  0
   37.4880   29.9480   38.3670 C   0  0  0  0  0  0  0  0  0  0  0  0
   37.9930   29.1090   39.3010 N   0  0  0  0  0  0  0  0  0  0  0  0
   37.2070   28.2050   39.9550 C   0  0  0  0  0  0  0  0  0  0  0  0
   35.8960   28.1240   39.6860 N   0  0  0  0  0  0  0  0  0  0  0  0
   35.6760   30.5270   37.3360 H   0  0  0  0  0  0  0  0  0  0  0  0
   38.1370   30.6580   37.8610 H   0  0  0  0  0  0  0  0  0  0  0  0
   37.5270   29.4550   42.6940 Cl  0  0  0  0  0  0  0  0  0  0  0  0
   38.0310   27.8520   42.2260 C   0  0  0  0  0  0  0  0  0  0  0  0
   37.8490   27.3470   40.9430 C   0  0  0  0  0  0  0  0  0  0  0  0
   38.2420   26.0900   40.5700 C   0  0  0  0  0  0  0  0  0  0  0  0
   38.8450   25.3140   41.5370 C   0  0  0  0  0  0  0  0  0  0  0  0
   39.0690   25.7170   42.8270 C   0  0  0  0  0  0  0  0  0  0  0  0
   38.6400   27.0110   43.1310 C   0  0  0  0  0  0  0  0  0  0  0  0
   38.1090   25.6830   39.5760 H   0  0  0  0  0  0  0  0  0  0  0  0
   39.1600   24.3180   41.2530 H   0  0  0  0  0  0  0  0  0  0  0  0
   39.5420   25.1110   43.5880 H   0  0  0  0  0  0  0  0  0  0  0  0
   38.7940   27.3780   44.1370 H   0  0  0  0  0  0  0  0  0  0  0  0
   33.9090   28.8570   38.4620 C   0  0  0  0  0  3  0  0  0  0  0  0
   33.5380   28.9180   37.2070 C   0  0  0  0  0  3  0  0  0  0  0  0
   32.0970   28.8430   36.8470 C   0  0  0  0  0  0  0  0  0  0  0  0
   31.5140   28.7080   37.7830 H   0  0  0  0  0  0  0  0  0  0  0  0
   31.8630   27.9710   36.2020 H   0  0  0  0  0  0  0  0  0  0  0  0
   31.6210   30.0640   36.1810 C   0  0  0  0  0  0  0  0  0  0  0  0
   32.0530   30.3170   34.8760 C   0  0  0  0  0  0  0  0  0  0  0  0
   32.7280   29.6150   34.3750 H   0  0  0  0  0  0  0  0  0  0  0  0
   31.6390   31.4460   34.2020 C   0  0  0  0  0  3  0  0  0  0  0  0
   30.7890   32.3650   34.7810 C   0  0  0  0  0  0  0  0  0  0  0  0
   30.4490   33.2560   34.2790 H   0  0  0  0  0  0  0  0  0  0  0  0
   30.3410   32.1370   36.0860 C   0  0  0  0  0  0  0  0  0  0  0  0
   29.6730   32.8020   36.6250 H   0  0  0  0  0  0  0  0  0  0  0  0
   30.7700   30.9980   36.7440 C   0  0  0  0  0  3  0  0  0  0  0  0
  1  6  1  0  0  0  0
  2  3  1  0  0  0  0
  2  1  2  0  0  0  0
  3  4  2  0  0  0  0
  4  5  1  0  0  0  0
  5 11  1  0  0  0  0
  6  5  2  0  0  0  0
  7  2  1  0  0  0  0
  8  3  1  0  0  0  0
 10  9  1  0  0  0  0
 10 15  1  0  0  0  0
 11 10  2  0  0  0  0
 12 11  1  0  0  0  0
 12 13  2  0  0  0  0
 13 14  1  0  0  0  0
 14 15  2  0  0  0  0
 14 18  1  0  0  0  0
 15 19  1  0  0  0  0
 16 12  1  0  0  0  0
 17 13  1  0  0  0  0
 20  1  1  0  0  0  0
 21 20  2  0  0  0  0
 22 21  1  0  0  0  0
 22 23  1  0  0  0  0
 24 22  1  0  0  0  0
 25 33  1  0  0  0  0
 25 22  1  0  0  0  0
 26 25  2  0  0  0  0
 27 26  1  0  0  0  0
 28 29  2  0  0  0  0
 28 26  1  0  0  0  0
 29 31  1  0  0  0  0
 30 29  1  0  0  0  0
 31 32  1  0  0  0  0
 31 33  2  0  0  0  0
M  END
>  <minimizedAffinity>
-5.6140089

$$$$

 OpenBabel03252506203D

 33 35  0  0  0  0  0  0  0  0999 V2000
   37.2800   26.9730   41.3450 C   0  0  0  0  0  0  0  0  0  0  0  0
   37.0490   26.7380   42.7160 C   0  0  0  0  0  0  0  0  0  0  0  0
   37.1390   27.8360   43.5800 C   0  0  0  0  0  0  0  0  0  0  0  0
   37.4410   29.0510   43.0650 N   0  0  0  0  0  0  0  0  0  0  0  0
   37.6560   29.2320   41.7300 C   0  0  0  0  0  0  0  0  0  0  0  0
   37.5750   28.1960   40.8820 N   0  0  0  0  0  0  0  0  0  0  0  0
   36.8140   25.7580   43.0770 H   0  0  0  0  0  0  0  0  0  0  0  0
   36.9730   27.7210   44.6480 H   0  0  0  0  0  0  0  0  0  0  0  0
   40.4520   30.1680   42.4170 Cl  0  0  0  0  0  0  0  0  0  0  0  0
   39.2410   31.0810   41.5560 C   0  0  0  0  0  0  0  0  0  0  0  0
   37.9740   30.5800   41.2770 C   0  0  0  0  0  0  0  0  0  0  0  0
   37.0190   31.2910   40.6010 C   0  0  0  0  0  0  0  0  0  0  0  0
   37.3630   32.5620   40.1920 C   0  0  0  0  0  0  0  0  0  0  0  0
   38.5840   33.1460   40.4150 C   0  0  0  0  0  0  0  0  0  0  0  0
   39.5030   32.3580   41.1100 C   0  0  0  0  0  0  0  0  0  0  0  0
   36.0290   30.9180   40.3770 H   0  0  0  0  0  0  0  0  0  0  0  0
   36.6170   33.1340   39.6560 H   0  0  0  0  0  0  0  0  0  0  0  0
   38.8570   34.1430   40.0950 H   0  0  0  0  0  0  0  0  0  0  0  0
   40.4820   32.7720   41.3130 H   0  0  0  0  0  0  0  0  0  0  0  0
   37.1870   25.8250   40.4240 C   0  0  0  0  0  3  0  0  0  0  0  0
   36.6340   24.7210   40.8630 C   0  0  0  0  0  3  0  0  0  0  0  0
   36.5170   23.5360   39.9730 C   0  0  0  0  0  0  0  0  0  0  0  0
   36.6600   22.6240   40.5900 H   0  0  0  0  0  0  0  0  0  0  0  0
   37.3010   23.5130   39.1890 H   0  0  0  0  0  0  0  0  0  0  0  0
   35.1990   23.4500   39.3250 C   0  0  0  0  0  0  0  0  0  0  0  0
   35.0000   24.1570   38.1360 C   0  0  0  0  0  0  0  0  0  0  0  0
   35.8120   24.7550   37.7090 H   0  0  0  0  0  0  0  0  0  0  0  0
   33.7850   24.1130   37.4850 C   0  0  0  0  0  3  0  0  0  0  0  0
   32.7270   23.3770   37.9740 C   0  0  0  0  0  0  0  0  0  0  0  0
   31.7670   23.3240   37.4870 H   0  0  0  0  0  0  0  0  0  0  0  0
   32.8990   22.6600   39.1620 C   0  0  0  0  0  0  0  0  0  0  0  0
   32.1260   22.0540   39.6240 H   0  0  0  0  0  0  0  0  0  0  0  0
   34.1260   22.7190   39.7990 C   0  0  0  0  0  3  0  0  0  0  0  0
  1  2  1  0  0  0  0
  2  7  1  0  0  0  0
  2  3  2  0  0  0  0
  3  8  1  0  0  0  0
  4  3  1  0  0  0  0
  5  4  2  0  0  0  0
  6  1  2  0  0  0  0
  6  5  1  0  0  0  0
 10  9  1  0  0  0  0
 11 10  1  0  0  0  0
 11  5  1  0  0  0  0
 12 11  2  0  0  0  0
 13 14  2  0  0  0  0
 13 12  1  0  0  0  0
 14 15  1  0  0  0  0
 15 19  1  0  0  0  0
 15 10  2  0  0  0  0
 16 12  1  0  0  0  0
 17 13  1  0  0  0  0
 18 14  1  0  0  0  0
 20 21  2  0  0  0  0
 20  1  1  0  0  0  0
 22 23  1  0  0  0  0
 22 21  1  0  0  0  0
 24 22  1  0  0  0  0
 25 33  1  0  0  0  0
 25 22  1  0  0  0  0
 26 25  2  0  0  0  0
 27 26  1  0  0  0  0
 28 29  2  0  0  0  0
 28 26  1  0  0  0  0
 29 31  1  0  0  0  0
 30 29  1  0  0  0  0
 31 32  1  0  0  0  0
 31 33  2  0  0  0  0
M  END
>  <minimizedAffinity>
-5.49421167

$$$$

 OpenBabel03252506203D

 33 35  0  0  0  0  0  0  0  0999 V2000
   37.5180   28.7900   41.7380 C   0  0  0  0  0  0  0  0  0  0  0  0
   37.7480   28.8220   43.1290 C   0  0  0  0  0  0  0  0  0  0  0  0
   38.0040   27.6000   43.7650 C   0  0  0  0  0  0  0  0  0  0  0  0
   38.0170   26.4670   43.0260 N   0  0  0  0  0  0  0  0  0  0  0  0
   37.7900   26.4840   41.6800 C   0  0  0  0  0  0  0  0  0  0  0  0
   37.5420   27.6410   41.0470 N   0  0  0  0  0  0  0  0  0  0  0  0
   37.7270   29.7440   43.6720 H   0  0  0  0  0  0  0  0  0  0  0  0
   38.1890   27.5570   44.8350 H   0  0  0  0  0  0  0  0  0  0  0  0
   40.5220   25.6940   40.6420 Cl  0  0  0  0  0  0  0  0  0  0  0  0
   39.0480   24.7780   40.4690 C   0  0  0  0  0  0  0  0  0  0  0  0
   37.8260   25.2090   40.9750 C   0  0  0  0  0  0  0  0  0  0  0  0
   36.6660   24.4950   40.8440 C   0  0  0  0  0  0  0  0  0  0  0  0
   36.7480   23.2940   40.1700 C   0  0  0  0  0  0  0  0  0  0  0  0
   37.9010   22.7820   39.6350 C   0  0  0  0  0  0  0  0  0  0  0  0
   39.0420   23.5680   39.8110 C   0  0  0  0  0  0  0  0  0  0  0  0
   35.7090   24.8150   41.2310 H   0  0  0  0  0  0  0  0  0  0  0  0
   35.8370   22.7200   40.0600 H   0  0  0  0  0  0  0  0  0  0  0  0
   37.9690   21.8400   39.1060 H   0  0  0  0  0  0  0  0  0  0  0  0
   39.9790   23.2080   39.4070 H   0  0  0  0  0  0  0  0  0  0  0  0
   37.2470   30.0690   41.0560 C   0  0  0  0  0  3  0  0  0  0  0  0
   37.2720   30.0900   39.7460 C   0  0  0  0  0  3  0  0  0  0  0  0
   37.0050   31.3550   39.0120 C   0  0  0  0  0  0  0  0  0  0  0  0
   36.0080   31.7330   39.3260 H   0  0  0  0  0  0  0  0  0  0  0  0
   36.9550   31.2090   37.9140 H   0  0  0  0  0  0  0  0  0  0  0  0
   38.0030   32.3950   39.3060 C   0  0  0  0  0  0  0  0  0  0  0  0
   39.3180   32.1870   38.8810 C   0  0  0  0  0  0  0  0  0  0  0  0
   39.5840   31.2700   38.3450 H   0  0  0  0  0  0  0  0  0  0  0  0
   40.2950   33.1280   39.1280 C   0  0  0  0  0  3  0  0  0  0  0  0
   40.0210   34.3010   39.7970 C   0  0  0  0  0  0  0  0  0  0  0  0
   40.7630   35.0540   40.0040 H   0  0  0  0  0  0  0  0  0  0  0  0
   38.7120   34.5350   40.2330 C   0  0  0  0  0  0  0  0  0  0  0  0
   38.3990   35.4270   40.7670 H   0  0  0  0  0  0  0  0  0  0  0  0
   37.7470   33.5780   39.9750 C   0  0  0  0  0  3  0  0  0  0  0  0
  1  2  1  0  0  0  0
  2  7  1  0  0  0  0
  2  3  2  0  0  0  0
  3  8  1  0  0  0  0
  4  3  1  0  0  0  0
  5  4  2  0  0  0  0
  6  5  1  0  0  0  0
  6  1  2  0  0  0  0
 10  9  1  0  0  0  0
 10 11  1  0  0  0  0
 11  5  1  0  0  0  0
 12 11  2  0  0  0  0
 12 16  1  0  0  0  0
 13 12  1  0  0  0  0
 14 15  1  0  0  0  0
 14 13  2  0  0  0  0
 15 10  2  0  0  0  0
 17 13  1  0  0  0  0
 18 14  1  0  0  0  0
 19 15  1  0  0  0  0
 20  1  1  0  0  0  0
 21 20  2  0  0  0  0
 22 25  1  0  0  0  0
 22 23  1  0  0  0  0
 22 21  1  0  0  0  0
 24 22  1  0  0  0  0
 25 33  1  0  0  0  0
 26 28  1  0  0  0  0
 26 25  2  0  0  0  0
 27 26  1  0  0  0  0
 28 29  2  0  0  0  0
 29 30  1  0  0  0  0
 29 31  1  0  0  0  0
 31 32  1  0  0  0  0
 33 31  2  0  0  0  0
M  END
>  <minimizedAffinity>
-5.40534735

$$$$

 OpenBabel03252506203D

 33 35  0  0  0  0  0  0  0  0999 V2000
   38.1040   30.1640   41.0250 C   0  0  0  0  0  0  0  0  0  0  0  0
   36.7690   30.5230   40.7530 C   0  0  0  0  0  0  0  0  0  0  0  0
   36.5570   31.5730   39.8500 C   0  0  0  0  0  0  0  0  0  0  0  0
   37.6290   32.1820   39.2910 N   0  0  0  0  0  0  0  0  0  0  0  0
   38.9060   31.7990   39.5850 C   0  0  0  0  0  0  0  0  0  0  0  0
   39.1350   30.7970   40.4460 N   0  0  0  0  0  0  0  0  0  0  0  0
   35.9520   30.0120   41.2200 H   0  0  0  0  0  0  0  0  0  0  0  0
   35.5510   31.8980   39.5980 H   0  0  0  0  0  0  0  0  0  0  0  0
   39.5360   34.5040   40.7910 Cl  0  0  0  0  0  0  0  0  0  0  0  0
   40.3380   33.7710   39.4270 C   0  0  0  0  0  0  0  0  0  0  0  0
   39.9910   32.5190   38.9290 C   0  0  0  0  0  0  0  0  0  0  0  0
   40.6170   31.9380   37.8600 C   0  0  0  0  0  0  0  0  0  0  0  0
   41.6370   32.6550   37.2710 C   0  0  0  0  0  0  0  0  0  0  0  0
   42.0550   33.8920   37.6860 C   0  0  0  0  0  0  0  0  0  0  0  0
   41.3680   34.4180   38.7820 C   0  0  0  0  0  0  0  0  0  0  0  0
   40.3580   30.9670   37.4590 H   0  0  0  0  0  0  0  0  0  0  0  0
   42.1390   32.2050   36.4240 H   0  0  0  0  0  0  0  0  0  0  0  0
   42.8550   34.4570   37.2260 H   0  0  0  0  0  0  0  0  0  0  0  0
   41.6600   35.3930   39.1490 H   0  0  0  0  0  0  0  0  0  0  0  0
   38.3410   29.0610   41.9750 C   0  0  0  0  0  3  0  0  0  0  0  0
   37.3490   28.2450   42.2370 C   0  0  0  0  0  3  0  0  0  0  0  0
   37.5390   27.1160   43.1860 C   0  0  0  0  0  0  0  0  0  0  0  0
   36.6030   26.9980   43.7730 H   0  0  0  0  0  0  0  0  0  0  0  0
   38.3490   27.3070   43.9190 H   0  0  0  0  0  0  0  0  0  0  0  0
   37.8130   25.8450   42.4990 C   0  0  0  0  0  0  0  0  0  0  0  0
   36.7260   25.0830   42.0600 C   0  0  0  0  0  0  0  0  0  0  0  0
   35.7040   25.4360   42.2310 H   0  0  0  0  0  0  0  0  0  0  0  0
   36.9230   23.8840   41.4100 C   0  0  0  0  0  3  0  0  0  0  0  0
   38.1870   23.3900   41.1660 C   0  0  0  0  0  0  0  0  0  0  0  0
   38.3710   22.4560   40.6610 H   0  0  0  0  0  0  0  0  0  0  0  0
   39.2930   24.1320   41.5940 C   0  0  0  0  0  0  0  0  0  0  0  0
   40.3240   23.8260   41.4490 H   0  0  0  0  0  0  0  0  0  0  0  0
   39.0720   25.3330   42.2450 C   0  0  0  0  0  3  0  0  0  0  0  0
  1 20  1  0  0  0  0
  2  1  1  0  0  0  0
  2  7  1  0  0  0  0
  3  2  2  0  0  0  0
  4  5  2  0  0  0  0
  4  3  1  0  0  0  0
  5  6  1  0  0  0  0
  6  1  2  0  0  0  0
  8  3  1  0  0  0  0
 10  9  1  0  0  0  0
 11 10  1  0  0  0  0
 11  5  1  0  0  0  0
 12 11  2  0  0  0  0
 13 14  2  0  0  0  0
 13 12  1  0  0  0  0
 14 15  1  0  0  0  0
 15 19  1  0  0  0  0
 15 10  2  0  0  0  0
 16 12  1  0  0  0  0
 17 13  1  0  0  0  0
 18 14  1  0  0  0  0
 20 21  2  0  0  0  0
 21 22  1  0  0  0  0
 22 23  1  0  0  0  0
 22 24  1  0  0  0  0
 25 22  1  0  0  0  0
 26 27  1  0  0  0  0
 26 25  2  0  0  0  0
 28 26  1  0  0  0  0
 29 28  2  0  0  0  0
 29 31  1  0  0  0  0
 30 29  1  0  0  0  0
 31 33  2  0  0  0  0
 32 31  1  0  0  0  0
 33 25  1  0  0  0  0
M  END
>  <minimizedAffinity>
-5.34672165

$$$$
