
 OpenBabel03252506203D

 33 35  0  0  0  0  0  0  0  0999 V2000
   45.0280   35.7680   43.0720 C   0  0  0  0  0  0  0  0  0  0  0  0
   44.4170   34.9820   42.0740 C   0  0  0  0  0  0  0  0  0  0  0  0
   44.2760   33.6120   42.3330 C   0  0  0  0  0  0  0  0  0  0  0  0
   44.7270   33.1180   43.5100 N   0  0  0  0  0  0  0  0  0  0  0  0
   45.3120   33.9190   44.4470 C   0  0  0  0  0  0  0  0  0  0  0  0
   45.4590   35.2330   44.2240 N   0  0  0  0  0  0  0  0  0  0  0  0
   44.0760   35.4170   41.1580 H   0  0  0  0  0  0  0  0  0  0  0  0
   43.8140   32.9520   41.6040 H   0  0  0  0  0  0  0  0  0  0  0  0
   47.7390   32.1350   44.1400 Cl  0  0  0  0  0  0  0  0  0  0  0  0
   46.8740   32.4540   45.6210 C   0  0  0  0  0  0  0  0  0  0  0  0
   45.7640   33.2890   45.6820 C   0  0  0  0  0  0  0  0  0  0  0  0
   45.0810   33.5440   46.8400 C   0  0  0  0  0  0  0  0  0  0  0  0
   45.5430   32.9270   47.9840 C   0  0  0  0  0  0  0  0  0  0  0  0
   46.6270   32.0890   48.0290 C   0  0  0  0  0  0  0  0  0  0  0  0
   47.2700   31.8790   46.8080 C   0  0  0  0  0  0  0  0  0  0  0  0
   44.2150   34.1900   46.9050 H   0  0  0  0  0  0  0  0  0  0  0  0
   45.0110   33.1210   48.9060 H   0  0  0  0  0  0  0  0  0  0  0  0
   46.9920   31.6030   48.9250 H   0  0  0  0  0  0  0  0  0  0  0  0
   48.1320   31.2250   46.7890 H   0  0  0  0  0  0  0  0  0  0  0  0
   45.1830   37.2120   42.8120 C   0  0  0  0  0  0  0  0  0  0  0  0
   45.3800   38.0080   43.8340 C   0  0  0  0  0  0  0  0  0  0  0  0
   45.5420   39.4710   43.6240 C   0  0  0  0  0  0  0  0  0  0  0  0
   44.9210   39.7650   42.7500 H   0  0  0  0  0  0  0  0  0  0  0  0
   46.5860   39.7530   43.3780 H   0  0  0  0  0  0  0  0  0  0  0  0
   45.1010   40.2570   44.7860 C   0  0  0  0  0  0  0  0  0  0  0  0
   44.5750   41.5320   44.5600 C   0  0  0  0  0  0  0  0  0  0  0  0
   44.4990   41.9220   43.5400 H   0  0  0  0  0  0  0  0  0  0  0  0
   44.1450   42.3140   45.6110 C   0  0  0  0  0  0  0  0  0  0  0  0
   44.2150   41.8760   46.9170 C   0  0  0  0  0  0  0  0  0  0  0  0
   43.8870   42.4640   47.7580 H   0  0  0  0  0  0  0  0  0  0  0  0
   44.7370   40.6030   47.1720 C   0  0  0  0  0  0  0  0  0  0  0  0
   44.8330   40.1730   48.1630 H   0  0  0  0  0  0  0  0  0  0  0  0
   45.1630   39.8360   46.1020 C   0  0  0  0  0  0  0  0  0  0  0  0
  1  6  1  0  0  0  0
  2  3  1  0  0  0  0
  2  1  2  0  0  0  0
  3  4  2  0  0  0  0
  4  5  1  0  0  0  0
  5 11  1  0  0  0  0
  6  5  2  0  0  0  0
  7  2  1  0  0  0  0
  8  3  1  0  0  0  0
  9 10  1  0  0  0  0
 10 11  2  0  0  0  0
 10 15  1  0  0  0  0
 11 12  1  0  0  0  0
 12 16  1  0  0  0  0
 12 13  2  0  0  0  0
 13 14  1  0  0  0  0
 13 17  1  0  0  0  0
 14 18  1  0  0  0  0
 15 14  2  0  0  0  0
 19 15  1  0  0  0  0
 20  1  1  0  0  0  0
 20 21  2  0  0  0  0
 22 21  1  0  0  0  0
 22 25  1  0  0  0  0
 23 22  1  0  0  0  0
 24 22  1  0  0  0  0
 25 33  1  0  0  0  0
 26 25  2  0  0  0  0
 26 28  1  0  0  0  0
 27 26  1  0  0  0  0
 28 29  2  0  0  0  0
 29 31  1  0  0  0  0
 29 30  1  0  0  0  0
 31 32  1  0  0  0  0
 33 31  2  0  0  0  0
M  END
>  <minimizedAffinity>
-4.2862711

>  <minimizedRMSD>
3.49744463

$$$$
