
 OpenBabel03252504543D

 21 22  0  0  0  0  0  0  0  0999 V2000
   37.4510   28.5350   43.6800 C   0  0  0  0  0  0  0  0  0  0  0  0
   37.9530   28.8230   44.6460 H   0  0  0  0  0  0  0  0  0  0  0  0
   36.3450   28.4860   43.8400 H   0  0  0  0  0  0  0  0  0  0  0  0
   39.3150   30.9190   41.5100 C   0  0  0  0  0  0  0  0  0  0  0  0
   38.9960   30.0440   42.5670 C   0  0  0  0  0  0  0  0  0  0  0  0
   37.7520   29.4380   42.5710 C   0  0  0  0  0  0  0  0  0  0  0  0
   36.8910   29.7130   41.5570 N   0  0  0  0  0  0  0  0  0  0  0  0
   37.2200   30.5640   40.5440 C   0  0  0  0  0  0  0  0  0  0  0  0
   38.4260   31.1540   40.5360 N   0  0  0  0  0  0  0  0  0  0  0  0
   40.2800   31.3730   41.5310 H   0  0  0  0  0  0  0  0  0  0  0  0
   39.7230   29.8630   43.3460 H   0  0  0  0  0  0  0  0  0  0  0  0
   36.4540   30.7220   39.7700 H   0  0  0  0  0  0  0  0  0  0  0  0
   38.0020   27.1980   43.2910 C   0  0  0  0  0  0  0  0  0  0  0  0
   37.2360   26.3670   42.5130 C   0  0  0  0  0  0  0  0  0  0  0  0
   36.2430   26.7260   42.2080 H   0  0  0  0  0  0  0  0  0  0  0  0
   37.5630   25.1110   42.0550 C   0  0  0  0  0  3  0  0  0  0  0  0
   38.8280   24.6620   42.4480 C   0  0  0  0  0  0  0  0  0  0  0  0
   39.1270   23.6730   42.1060 H   0  0  0  0  0  0  0  0  0  0  0  0
   39.6390   25.4670   43.2340 C   0  0  0  0  0  0  0  0  0  0  0  0
   40.6220   25.0830   43.5220 H   0  0  0  0  0  0  0  0  0  0  0  0
   39.2390   26.7230   43.6570 C   0  0  0  0  0  3  0  0  0  0  0  0
  1  3  1  0  0  0  0
  1  2  1  0  0  0  0
  4 10  1  0  0  0  0
  4  5  1  0  0  0  0
  5  6  2  0  0  0  0
  5 11  1  0  0  0  0
  6  1  1  0  0  0  0
  7  6  1  0  0  0  0
  8  7  2  0  0  0  0
  9  8  1  0  0  0  0
  9  4  2  0  0  0  0
 12  8  1  0  0  0  0
 13 21  1  0  0  0  0
 13  1  1  0  0  0  0
 14 13  2  0  0  0  0
 15 14  1  0  0  0  0
 16 17  2  0  0  0  0
 16 14  1  0  0  0  0
 17 19  1  0  0  0  0
 18 17  1  0  0  0  0
 19 20  1  0  0  0  0
 19 21  2  0  0  0  0
M  END
>  <minimizedAffinity>
-4.41596746

$$$$

 OpenBabel03252504543D

 21 22  0  0  0  0  0  0  0  0999 V2000
   35.3680   28.9930   40.7080 C   0  0  0  0  0  0  0  0  0  0  0  0
   34.7610   28.4300   39.9440 H   0  0  0  0  0  0  0  0  0  0  0  0
   34.6800   29.4300   41.4740 H   0  0  0  0  0  0  0  0  0  0  0  0
   37.8220   26.2540   41.2890 C   0  0  0  0  0  0  0  0  0  0  0  0
   36.8400   27.0600   40.6820 C   0  0  0  0  0  0  0  0  0  0  0  0
   36.3860   28.1750   41.3650 C   0  0  0  0  0  0  0  0  0  0  0  0
   36.9060   28.4430   42.5910 N   0  0  0  0  0  0  0  0  0  0  0  0
   37.8550   27.6480   43.1610 C   0  0  0  0  0  0  0  0  0  0  0  0
   38.2980   26.5660   42.5010 N   0  0  0  0  0  0  0  0  0  0  0  0
   38.1560   25.4000   40.7430 H   0  0  0  0  0  0  0  0  0  0  0  0
   36.4650   26.7960   39.7030 H   0  0  0  0  0  0  0  0  0  0  0  0
   38.2110   27.9500   44.1560 H   0  0  0  0  0  0  0  0  0  0  0  0
   36.1060   30.0630   39.9680 C   0  0  0  0  0  0  0  0  0  0  0  0
   36.5180   31.1790   40.6520 C   0  0  0  0  0  0  0  0  0  0  0  0
   36.2850   31.2340   41.7250 H   0  0  0  0  0  0  0  0  0  0  0  0
   37.2040   32.2620   40.1530 C   0  0  0  0  0  3  0  0  0  0  0  0
   37.4970   32.1850   38.7880 C   0  0  0  0  0  0  0  0  0  0  0  0
   38.0400   33.0220   38.3520 H   0  0  0  0  0  0  0  0  0  0  0  0
   37.1020   31.0770   38.0530 C   0  0  0  0  0  0  0  0  0  0  0  0
   37.3480   31.0500   36.9880 H   0  0  0  0  0  0  0  0  0  0  0  0
   36.4130   30.0220   38.6270 C   0  0  0  0  0  3  0  0  0  0  0  0
  1  6  1  0  0  0  0
  1  3  1  0  0  0  0
  2  1  1  0  0  0  0
  4  9  1  0  0  0  0
  5  4  2  0  0  0  0
  5  6  1  0  0  0  0
  6  7  2  0  0  0  0
  7  8  1  0  0  0  0
  8 12  1  0  0  0  0
  9  8  2  0  0  0  0
 10  4  1  0  0  0  0
 11  5  1  0  0  0  0
 13 14  1  0  0  0  0
 13  1  1  0  0  0  0
 14 15  1  0  0  0  0
 16 14  2  0  0  0  0
 17 16  1  0  0  0  0
 18 17  1  0  0  0  0
 19 21  1  0  0  0  0
 19 17  2  0  0  0  0
 20 19  1  0  0  0  0
 21 13  2  0  0  0  0
M  END
>  <minimizedAffinity>
-4.29345369

$$$$

 OpenBabel03252504543D

 21 22  0  0  0  0  0  0  0  0999 V2000
   35.2680   29.0300   40.5950 C   0  0  0  0  0  0  0  0  0  0  0  0
   34.5950   29.3140   41.4530 H   0  0  0  0  0  0  0  0  0  0  0  0
   34.6480   28.6030   39.7680 H   0  0  0  0  0  0  0  0  0  0  0  0
   37.1500   31.1950   38.2220 C   0  0  0  0  0  0  0  0  0  0  0  0
   36.3770   30.1370   38.7390 C   0  0  0  0  0  0  0  0  0  0  0  0
   36.0720   30.1410   40.0890 C   0  0  0  0  0  0  0  0  0  0  0  0
   36.5310   31.1620   40.8570 N   0  0  0  0  0  0  0  0  0  0  0  0
   37.2790   32.1760   40.3360 C   0  0  0  0  0  0  0  0  0  0  0  0
   37.5770   32.1770   39.0270 N   0  0  0  0  0  0  0  0  0  0  0  0
   37.3720   31.1700   37.1780 H   0  0  0  0  0  0  0  0  0  0  0  0
   36.0390   29.3520   38.0770 H   0  0  0  0  0  0  0  0  0  0  0  0
   37.6030   32.9560   41.0410 H   0  0  0  0  0  0  0  0  0  0  0  0
   36.2380   28.0200   41.1250 C   0  0  0  0  0  0  0  0  0  0  0  0
   36.5910   28.0730   42.4490 C   0  0  0  0  0  0  0  0  0  0  0  0
   36.1400   28.8620   43.0670 H   0  0  0  0  0  0  0  0  0  0  0  0
   37.4600   27.2400   43.1180 C   0  0  0  0  0  3  0  0  0  0  0  0
   38.0300   26.2390   42.3250 C   0  0  0  0  0  0  0  0  0  0  0  0
   38.7230   25.5580   42.8150 H   0  0  0  0  0  0  0  0  0  0  0  0
   37.7030   26.1460   40.9800 C   0  0  0  0  0  0  0  0  0  0  0  0
   38.1680   25.3510   40.3910 H   0  0  0  0  0  0  0  0  0  0  0  0
   36.8180   27.0230   40.3770 C   0  0  0  0  0  3  0  0  0  0  0  0
  1 13  1  0  0  0  0
  1  2  1  0  0  0  0
  3  1  1  0  0  0  0
  4  5  2  0  0  0  0
  4  9  1  0  0  0  0
  5  6  1  0  0  0  0
  6  1  1  0  0  0  0
  6  7  2  0  0  0  0
  8  7  1  0  0  0  0
  8 12  1  0  0  0  0
  9  8  2  0  0  0  0
 10  4  1  0  0  0  0
 11  5  1  0  0  0  0
 13 14  1  0  0  0  0
 14 15  1  0  0  0  0
 14 16  2  0  0  0  0
 17 18  1  0  0  0  0
 17 16  1  0  0  0  0
 19 17  2  0  0  0  0
 20 19  1  0  0  0  0
 21 19  1  0  0  0  0
 21 13  2  0  0  0  0
M  END
>  <minimizedAffinity>
-4.27337599

$$$$

 OpenBabel03252504543D

 21 22  0  0  0  0  0  0  0  0999 V2000
   36.9600   27.9080   43.0420 C   0  0  0  0  0  0  0  0  0  0  0  0
   37.4050   28.5380   43.8630 H   0  0  0  0  0  0  0  0  0  0  0  0
   35.9080   27.6430   43.3110 H   0  0  0  0  0  0  0  0  0  0  0  0
   35.7890   29.2520   39.7730 C   0  0  0  0  0  0  0  0  0  0  0  0
   35.7920   28.6380   41.0410 C   0  0  0  0  0  0  0  0  0  0  0  0
   36.9900   28.5500   41.7300 C   0  0  0  0  0  0  0  0  0  0  0  0
   38.1090   29.0590   41.1540 N   0  0  0  0  0  0  0  0  0  0  0  0
   38.0840   29.6490   39.9250 C   0  0  0  0  0  0  0  0  0  0  0  0
   36.9240   29.7360   39.2540 N   0  0  0  0  0  0  0  0  0  0  0  0
   34.8530   29.3070   39.2630 H   0  0  0  0  0  0  0  0  0  0  0  0
   34.8680   28.2520   41.4480 H   0  0  0  0  0  0  0  0  0  0  0  0
   39.0430   30.0290   39.5460 H   0  0  0  0  0  0  0  0  0  0  0  0
   37.8160   26.6850   42.9270 C   0  0  0  0  0  0  0  0  0  0  0  0
   39.0220   26.6570   43.5790 C   0  0  0  0  0  0  0  0  0  0  0  0
   39.3080   27.5440   44.1630 H   0  0  0  0  0  0  0  0  0  0  0  0
   39.9420   25.6330   43.5950 C   0  0  0  0  0  3  0  0  0  0  0  0
   39.5720   24.5090   42.8500 C   0  0  0  0  0  0  0  0  0  0  0  0
   40.2720   23.6750   42.8370 H   0  0  0  0  0  0  0  0  0  0  0  0
   38.3610   24.4900   42.1740 C   0  0  0  0  0  0  0  0  0  0  0  0
   38.1050   23.5940   41.6010 H   0  0  0  0  0  0  0  0  0  0  0  0
   37.4860   25.5620   42.2050 C   0  0  0  0  0  3  0  0  0  0  0  0
  1  3  1  0  0  0  0
  1  2  1  0  0  0  0
  4  5  1  0  0  0  0
  5 11  1  0  0  0  0
  5  6  2  0  0  0  0
  6  1  1  0  0  0  0
  7  6  1  0  0  0  0
  8  7  2  0  0  0  0
  9  4  2  0  0  0  0
  9  8  1  0  0  0  0
 10  4  1  0  0  0  0
 12  8  1  0  0  0  0
 13  1  1  0  0  0  0
 13 14  1  0  0  0  0
 14 16  2  0  0  0  0
 14 15  1  0  0  0  0
 17 16  1  0  0  0  0
 18 17  1  0  0  0  0
 19 21  1  0  0  0  0
 19 17  2  0  0  0  0
 20 19  1  0  0  0  0
 21 13  2  0  0  0  0
M  END
>  <minimizedAffinity>
-4.14627171

$$$$

 OpenBabel03252504543D

 21 22  0  0  0  0  0  0  0  0999 V2000
   35.8190   29.8520   40.6510 C   0  0  0  0  0  0  0  0  0  0  0  0
   35.3660   30.7370   41.1790 H   0  0  0  0  0  0  0  0  0  0  0  0
   35.0000   29.1820   40.2880 H   0  0  0  0  0  0  0  0  0  0  0  0
   37.7140   31.9500   38.2280 C   0  0  0  0  0  0  0  0  0  0  0  0
   36.8780   31.5670   39.2950 C   0  0  0  0  0  0  0  0  0  0  0  0
   36.6910   30.2170   39.5360 C   0  0  0  0  0  0  0  0  0  0  0  0
   37.3210   29.3200   38.7350 N   0  0  0  0  0  0  0  0  0  0  0  0
   38.1250   29.7120   37.7060 C   0  0  0  0  0  0  0  0  0  0  0  0
   38.3090   31.0210   37.4680 N   0  0  0  0  0  0  0  0  0  0  0  0
   37.8410   32.9960   38.0620 H   0  0  0  0  0  0  0  0  0  0  0  0
   36.4040   32.3280   39.8990 H   0  0  0  0  0  0  0  0  0  0  0  0
   38.5890   28.9090   37.1150 H   0  0  0  0  0  0  0  0  0  0  0  0
   36.6890   29.1540   41.6490 C   0  0  0  0  0  0  0  0  0  0  0  0
   36.3910   27.8610   41.9980 C   0  0  0  0  0  0  0  0  0  0  0  0
   35.5180   27.3920   41.5220 H   0  0  0  0  0  0  0  0  0  0  0  0
   37.0640   27.0570   42.8900 C   0  0  0  0  0  3  0  0  0  0  0  0
   38.1730   27.6610   43.4920 C   0  0  0  0  0  0  0  0  0  0  0  0
   38.7350   27.0590   44.2040 H   0  0  0  0  0  0  0  0  0  0  0  0
   38.5140   28.9670   43.1710 C   0  0  0  0  0  0  0  0  0  0  0  0
   39.3880   29.4060   43.6620 H   0  0  0  0  0  0  0  0  0  0  0  0
   37.7860   29.7140   42.2620 C   0  0  0  0  0  3  0  0  0  0  0  0
  1  2  1  0  0  0  0
  1 13  1  0  0  0  0
  3  1  1  0  0  0  0
  4  5  1  0  0  0  0
  5  6  2  0  0  0  0
  5 11  1  0  0  0  0
  6  1  1  0  0  0  0
  7  6  1  0  0  0  0
  8  7  2  0  0  0  0
  9  8  1  0  0  0  0
  9  4  2  0  0  0  0
 10  4  1  0  0  0  0
 12  8  1  0  0  0  0
 13 14  2  0  0  0  0
 13 21  1  0  0  0  0
 14 16  1  0  0  0  0
 15 14  1  0  0  0  0
 16 17  2  0  0  0  0
 17 18  1  0  0  0  0
 19 17  1  0  0  0  0
 19 20  1  0  0  0  0
 21 19  2  0  0  0  0
M  END
>  <minimizedAffinity>
-4.1319499

$$$$

 OpenBabel03252504543D

 21 22  0  0  0  0  0  0  0  0999 V2000
   36.2790   30.5440   41.2770 C   0  0  0  0  0  0  0  0  0  0  0  0
   35.2980   30.6750   41.8140 H   0  0  0  0  0  0  0  0  0  0  0  0
   36.8070   31.5290   41.2310 H   0  0  0  0  0  0  0  0  0  0  0  0
   39.3360   28.9540   42.6870 C   0  0  0  0  0  0  0  0  0  0  0  0
   38.4710   29.9000   42.1020 C   0  0  0  0  0  0  0  0  0  0  0  0
   37.1520   29.5420   41.8840 C   0  0  0  0  0  0  0  0  0  0  0  0
   36.7480   28.2960   42.2420 N   0  0  0  0  0  0  0  0  0  0  0  0
   37.6020   27.3960   42.8070 C   0  0  0  0  0  0  0  0  0  0  0  0
   38.8830   27.7390   43.0200 N   0  0  0  0  0  0  0  0  0  0  0  0
   40.3480   29.2540   42.8450 H   0  0  0  0  0  0  0  0  0  0  0  0
   38.8500   30.8770   41.8390 H   0  0  0  0  0  0  0  0  0  0  0  0
   37.1790   26.4130   43.0610 H   0  0  0  0  0  0  0  0  0  0  0  0
   35.9550   30.0390   39.9050 C   0  0  0  0  0  0  0  0  0  0  0  0
   34.7920   29.3360   39.7160 C   0  0  0  0  0  0  0  0  0  0  0  0
   34.1440   29.1760   40.5900 H   0  0  0  0  0  0  0  0  0  0  0  0
   34.3220   28.7950   38.5410 C   0  0  0  0  0  3  0  0  0  0  0  0
   35.1510   29.0020   37.4350 C   0  0  0  0  0  0  0  0  0  0  0  0
   34.8160   28.5900   36.4850 H   0  0  0  0  0  0  0  0  0  0  0  0
   36.3370   29.7070   37.5760 C   0  0  0  0  0  0  0  0  0  0  0  0
   36.9600   29.8500   36.6890 H   0  0  0  0  0  0  0  0  0  0  0  0
   36.7440   30.2230   38.7940 C   0  0  0  0  0  3  0  0  0  0  0  0
  1  2  1  0  0  0  0
  1  6  1  0  0  0  0
  3  1  1  0  0  0  0
  4 10  1  0  0  0  0
  4  9  1  0  0  0  0
  5  4  2  0  0  0  0
  6  5  1  0  0  0  0
  6  7  2  0  0  0  0
  7  8  1  0  0  0  0
  8  9  2  0  0  0  0
  8 12  1  0  0  0  0
 11  5  1  0  0  0  0
 13  1  1  0  0  0  0
 14 13  1  0  0  0  0
 14 15  1  0  0  0  0
 16 14  2  0  0  0  0
 17 19  2  0  0  0  0
 17 16  1  0  0  0  0
 18 17  1  0  0  0  0
 19 21  1  0  0  0  0
 20 19  1  0  0  0  0
 21 13  2  0  0  0  0
M  END
>  <minimizedAffinity>
-4.10948801

$$$$

 OpenBabel03252504543D

 21 22  0  0  0  0  0  0  0  0999 V2000
   36.8300   27.2980   43.0200 C   0  0  0  0  0  0  0  0  0  0  0  0
   35.7890   27.0190   43.3470 H   0  0  0  0  0  0  0  0  0  0  0  0
   37.4410   27.5620   43.9190 H   0  0  0  0  0  0  0  0  0  0  0  0
   37.4950   23.9950   41.4350 C   0  0  0  0  0  0  0  0  0  0  0  0
   36.8700   25.0240   42.1670 C   0  0  0  0  0  0  0  0  0  0  0  0
   37.5040   26.2510   42.2540 C   0  0  0  0  0  0  0  0  0  0  0  0
   38.7010   26.4100   41.6330 N   0  0  0  0  0  0  0  0  0  0  0  0
   39.2890   25.4010   40.9300 C   0  0  0  0  0  0  0  0  0  0  0  0
   38.6770   24.2090   40.8420 N   0  0  0  0  0  0  0  0  0  0  0  0
   36.9860   23.0580   41.3820 H   0  0  0  0  0  0  0  0  0  0  0  0
   35.9160   24.8370   42.6390 H   0  0  0  0  0  0  0  0  0  0  0  0
   40.2580   25.6300   40.4640 H   0  0  0  0  0  0  0  0  0  0  0  0
   36.6920   28.4670   42.0950 C   0  0  0  0  0  0  0  0  0  0  0  0
   35.7470   28.4180   41.1020 C   0  0  0  0  0  0  0  0  0  0  0  0
   35.1270   27.5130   41.0320 H   0  0  0  0  0  0  0  0  0  0  0  0
   35.4690   29.3830   40.1610 C   0  0  0  0  0  3  0  0  0  0  0  0
   36.2610   30.5310   40.2570 C   0  0  0  0  0  0  0  0  0  0  0  0
   36.0740   31.3210   39.5310 H   0  0  0  0  0  0  0  0  0  0  0  0
   37.2310   30.6280   41.2450 C   0  0  0  0  0  0  0  0  0  0  0  0
   37.8320   31.5410   41.2890 H   0  0  0  0  0  0  0  0  0  0  0  0
   37.4520   29.6120   42.1580 C   0  0  0  0  0  3  0  0  0  0  0  0
  1  2  1  0  0  0  0
  1  3  1  0  0  0  0
  4  5  1  0  0  0  0
  5  6  2  0  0  0  0
  5 11  1  0  0  0  0
  6  1  1  0  0  0  0
  7  6  1  0  0  0  0
  8  7  2  0  0  0  0
  9  8  1  0  0  0  0
  9  4  2  0  0  0  0
 10  4  1  0  0  0  0
 12  8  1  0  0  0  0
 13 21  1  0  0  0  0
 13  1  1  0  0  0  0
 14 13  2  0  0  0  0
 15 14  1  0  0  0  0
 16 17  2  0  0  0  0
 16 14  1  0  0  0  0
 17 19  1  0  0  0  0
 18 17  1  0  0  0  0
 19 20  1  0  0  0  0
 19 21  2  0  0  0  0
M  END
>  <minimizedAffinity>
-4.10026217

$$$$

 OpenBabel03252504543D

 21 22  0  0  0  0  0  0  0  0999 V2000
   37.2400   27.4080   43.3360 C   0  0  0  0  0  0  0  0  0  0  0  0
   36.4300   28.1730   43.5000 H   0  0  0  0  0  0  0  0  0  0  0  0
   37.3220   26.7590   44.2430 H   0  0  0  0  0  0  0  0  0  0  0  0
   36.8370   24.3790   41.2080 C   0  0  0  0  0  0  0  0  0  0  0  0
   37.0360   25.2050   42.3310 C   0  0  0  0  0  0  0  0  0  0  0  0
   37.0310   26.5780   42.1510 C   0  0  0  0  0  0  0  0  0  0  0  0
   36.8360   27.0690   40.9000 N   0  0  0  0  0  0  0  0  0  0  0  0
   36.6460   26.2510   39.8260 C   0  0  0  0  0  0  0  0  0  0  0  0
   36.6500   24.9190   39.9960 N   0  0  0  0  0  0  0  0  0  0  0  0
   36.8460   23.3250   41.3720 H   0  0  0  0  0  0  0  0  0  0  0  0
   37.1860   24.7560   43.3030 H   0  0  0  0  0  0  0  0  0  0  0  0
   36.4970   26.7460   38.8560 H   0  0  0  0  0  0  0  0  0  0  0  0
   38.5070   28.1670   43.0950 C   0  0  0  0  0  0  0  0  0  0  0  0
   38.4380   29.5210   42.8850 C   0  0  0  0  0  0  0  0  0  0  0  0
   37.4440   29.9910   42.9050 H   0  0  0  0  0  0  0  0  0  0  0  0
   39.4820   30.3860   42.6490 C   0  0  0  0  0  3  0  0  0  0  0  0
   40.7430   29.7820   42.6250 C   0  0  0  0  0  0  0  0  0  0  0  0
   41.5970   30.4310   42.4410 H   0  0  0  0  0  0  0  0  0  0  0  0
   40.8630   28.4150   42.8320 C   0  0  0  0  0  0  0  0  0  0  0  0
   41.8650   27.9770   42.8060 H   0  0  0  0  0  0  0  0  0  0  0  0
   39.7630   27.6080   43.0650 C   0  0  0  0  0  3  0  0  0  0  0  0
  1  2  1  0  0  0  0
  1  3  1  0  0  0  0
  4 10  1  0  0  0  0
  4  5  1  0  0  0  0
  5 11  1  0  0  0  0
  6  5  2  0  0  0  0
  6  1  1  0  0  0  0
  7  6  1  0  0  0  0
  8  9  1  0  0  0  0
  8  7  2  0  0  0  0
  9  4  2  0  0  0  0
 12  8  1  0  0  0  0
 13  1  1  0  0  0  0
 14 15  1  0  0  0  0
 14 13  2  0  0  0  0
 16 14  1  0  0  0  0
 17 16  2  0  0  0  0
 17 19  1  0  0  0  0
 18 17  1  0  0  0  0
 19 21  2  0  0  0  0
 20 19  1  0  0  0  0
 21 13  1  0  0  0  0
M  END
>  <minimizedAffinity>
-4.09011507

$$$$

 OpenBabel03252504543D

 21 22  0  0  0  0  0  0  0  0999 V2000
   39.4580   29.6290   40.7650 C   0  0  0  0  0  0  0  0  0  0  0  0
   39.6410   28.9830   39.8600 H   0  0  0  0  0  0  0  0  0  0  0  0
   40.4320   29.8280   41.2770 H   0  0  0  0  0  0  0  0  0  0  0  0
   38.7150   33.2770   40.7280 C   0  0  0  0  0  0  0  0  0  0  0  0
   39.3340   32.0430   41.0060 C   0  0  0  0  0  0  0  0  0  0  0  0
   38.7920   30.8930   40.4580 C   0  0  0  0  0  0  0  0  0  0  0  0
   37.6870   31.0040   39.6770 N   0  0  0  0  0  0  0  0  0  0  0  0
   37.1020   32.2080   39.4210 C   0  0  0  0  0  0  0  0  0  0  0  0
   37.6250   33.3260   39.9500 N   0  0  0  0  0  0  0  0  0  0  0  0
   39.1510   34.1490   41.1620 H   0  0  0  0  0  0  0  0  0  0  0  0
   40.2130   32.0180   41.6350 H   0  0  0  0  0  0  0  0  0  0  0  0
   36.2110   32.1920   38.7770 H   0  0  0  0  0  0  0  0  0  0  0  0
   38.5220   28.8700   41.6530 C   0  0  0  0  0  0  0  0  0  0  0  0
   37.9000   27.7520   41.1590 C   0  0  0  0  0  0  0  0  0  0  0  0
   38.1210   27.4610   40.1220 H   0  0  0  0  0  0  0  0  0  0  0  0
   37.0140   26.9270   41.8140 C   0  0  0  0  0  3  0  0  0  0  0  0
   36.7380   27.3030   43.1320 C   0  0  0  0  0  0  0  0  0  0  0  0
   36.0410   26.6770   43.6870 H   0  0  0  0  0  0  0  0  0  0  0  0
   37.3430   28.4270   43.6770 C   0  0  0  0  0  0  0  0  0  0  0  0
   37.1040   28.6900   44.7110 H   0  0  0  0  0  0  0  0  0  0  0  0
   38.2270   29.2080   42.9530 C   0  0  0  0  0  3  0  0  0  0  0  0
  1  3  1  0  0  0  0
  1 13  1  0  0  0  0
  2  1  1  0  0  0  0
  4  5  1  0  0  0  0
  4 10  1  0  0  0  0
  5 11  1  0  0  0  0
  6  1  1  0  0  0  0
  6  5  2  0  0  0  0
  7  6  1  0  0  0  0
  8  7  2  0  0  0  0
  8  9  1  0  0  0  0
  9  4  2  0  0  0  0
 12  8  1  0  0  0  0
 13 21  1  0  0  0  0
 14 13  2  0  0  0  0
 14 16  1  0  0  0  0
 15 14  1  0  0  0  0
 16 17  2  0  0  0  0
 17 19  1  0  0  0  0
 17 18  1  0  0  0  0
 19 20  1  0  0  0  0
 21 19  2  0  0  0  0
M  END
>  <minimizedAffinity>
-4.06160164

$$$$
