
 OpenBabel03252507413D

 25 26  0  0  0  0  0  0  0  0999 V2000
   46.1490   35.2280   42.2210 C   0  0  0  0  0  0  0  0  0  0  0  0
   47.1340   35.6450   42.0120 H   0  0  0  0  0  0  0  0  0  0  0  0
   45.4450   36.1060   42.2080 H   0  0  0  0  0  0  0  0  0  0  0  0
   46.0420   34.6380   43.5620 C   0  0  0  0  0  0  0  0  0  0  0  0
   47.0220   33.6790   43.8770 C   0  0  0  0  0  0  0  0  0  0  0  0
   46.9710   33.0860   45.1370 C   0  0  0  0  0  0  0  0  0  0  0  0
   45.9910   33.4390   46.0190 N   0  0  0  0  0  0  0  0  0  0  0  0
   45.0720   34.3690   45.6620 C   0  0  0  0  0  0  0  0  0  0  0  0
   45.0870   34.9650   44.4590 N   0  0  0  0  0  0  0  0  0  0  0  0
   47.7410   32.3460   45.3550 H   0  0  0  0  0  0  0  0  0  0  0  0
   44.3440   34.5720   46.4360 H   0  0  0  0  0  0  0  0  0  0  0  0
   48.2890   33.2380   42.7040 S   0  0  0  0  0  0  0  0  0  0  0  0
   49.1250   34.3230   42.4120 H   0  0  0  0  0  0  0  0  0  0  0  0
   45.6490   34.3100   41.1250 C   0  0  0  0  0  0  0  0  0  0  0  0
   45.9100   33.2690   41.4080 H   0  0  0  0  0  0  0  0  0  0  0  0
   46.1660   34.6010   40.1980 H   0  0  0  0  0  0  0  0  0  0  0  0
   44.2020   34.4580   40.9280 C   0  0  0  0  0  0  0  0  0  0  0  0
   43.5030   33.4580   40.2600 C   0  0  0  0  0  0  0  0  0  0  0  0
   44.0610   32.5930   39.9060 H   0  0  0  0  0  0  0  0  0  0  0  0
   42.1320   33.5380   40.0410 C   0  0  0  0  0  3  0  0  0  0  0  0
   41.4620   34.6590   40.5130 C   0  0  0  0  0  0  0  0  0  0  0  0
   40.4060   34.6480   40.3040 H   0  0  0  0  0  0  0  0  0  0  0  0
   42.0990   35.6840   41.1810 C   0  0  0  0  0  0  0  0  0  0  0  0
   41.5410   36.5340   41.5290 H   0  0  0  0  0  0  0  0  0  0  0  0
   43.4510   35.5250   41.3540 C   0  0  0  0  0  3  0  0  0  0  0  0
  1  4  1  0  0  0  0
  2  1  1  0  0  0  0
  3  1  1  0  0  0  0
  4  5  2  0  0  0  0
  4  9  1  0  0  0  0
  5  6  1  0  0  0  0
  6 10  1  0  0  0  0
  6  7  2  0  0  0  0
  8  7  1  0  0  0  0
  8 11  1  0  0  0  0
  9  8  2  0  0  0  0
 12  5  1  0  0  0  0
 13 12  1  0  0  0  0
 14 15  1  0  0  0  0
 14  1  1  0  0  0  0
 16 14  1  0  0  0  0
 17 14  1  0  0  0  0
 17 25  1  0  0  0  0
 18 17  2  0  0  0  0
 19 18  1  0  0  0  0
 20 18  1  0  0  0  0
 20 21  2  0  0  0  0
 21 23  1  0  0  0  0
 22 21  1  0  0  0  0
 23 25  2  0  0  0  0
 23 24  1  0  0  0  0
M  END
>  <minimizedAffinity>
-4.11912584

>  <minimizedRMSD>
2.69902468

$$$$
