
 OpenBabel03242516363D

 44 47  0  0  1  0  0  0  0  0999 V2000
   37.3160   30.0110   40.6580 O   0  0  0  0  0  0  0  0  0  0  0  0
   37.5580   32.3520   40.3760 C   0  0  2  0  0  0  0  0  0  0  0  0
   38.6720   31.9770   39.3610 C   0  0  1  0  0  0  0  0  0  0  0  0
   37.9150   31.8900   38.2320 O   0  0  0  0  0  0  0  0  0  0  0  0
   36.8520   31.0430   38.6040 C   0  0  0  0  0  0  0  0  0  0  0  0
   36.7160   31.1210   40.1410 C   0  0  1  0  0  0  0  0  0  0  0  0
   37.9650   32.4440   41.3840 H   0  0  0  0  0  0  0  0  0  0  0  0
   39.0460   30.9660   39.6540 H   0  0  0  0  0  0  0  0  0  0  0  0
   35.9040   31.3310   38.1230 H   0  0  0  0  0  0  0  0  0  0  0  0
   37.1380   30.0270   38.3000 H   0  0  0  0  0  0  0  0  0  0  0  0
   35.6790   31.2770   40.4750 H   0  0  0  0  0  0  0  0  0  0  0  0
   41.6530   34.2400   38.6940 C   0  0  0  0  0  0  0  0  0  0  0  0
   40.8100   33.1430   38.4940 C   0  0  0  0  0  0  0  0  0  0  0  0
   39.7260   33.0010   39.3420 C   0  0  0  0  0  0  0  0  0  0  0  0
   39.5570   33.9530   40.3220 N   0  0  0  0  0  0  0  0  0  0  0  0
   40.3860   34.9950   40.4850 C   0  0  0  0  0  0  0  0  0  0  0  0
   41.4400   35.1340   39.6630 N   0  0  0  0  0  0  0  0  0  0  0  0
   42.4690   34.2340   37.9590 H   0  0  0  0  0  0  0  0  0  0  0  0
   40.8730   32.3660   37.7620 H   0  0  0  0  0  0  0  0  0  0  0  0
   40.2190   35.7240   41.2670 H   0  0  0  0  0  0  0  0  0  0  0  0
   36.8350   33.4190   39.9320 O   0  0  0  0  0  0  0  0  0  0  0  0
   37.0560   34.1960   40.5170 H   0  0  0  0  0  0  0  0  0  0  0  0
   36.7800   28.1560   42.0130 C   0  0  1  0  0  0  0  0  0  0  0  0
   37.0400   29.7480   41.9990 C   0  0  1  0  0  0  0  0  0  0  0  0
   38.1890   29.7540   42.7000 O   0  0  0  0  0  0  0  0  0  0  0  0
   38.9880   28.9200   41.8700 C   0  0  0  0  0  0  0  0  0  0  0  0
   38.1790   27.6400   41.8680 C   0  0  1  0  0  0  0  0  0  0  0  0
   36.0750   27.9100   41.2390 H   0  0  0  0  0  0  0  0  0  0  0  0
   36.0740   30.0880   42.3580 H   0  0  0  0  0  0  0  0  0  0  0  0
   39.1120   29.3480   40.8580 H   0  0  0  0  0  0  0  0  0  0  0  0
   39.9440   28.7590   42.4070 H   0  0  0  0  0  0  0  0  0  0  0  0
   38.3180   27.1220   40.8890 H   0  0  0  0  0  0  0  0  0  0  0  0
   36.3660   27.8940   43.3270 O   0  0  0  0  0  0  0  0  0  0  0  0
   37.1060   28.2140   43.9060 H   0  0  0  0  0  0  0  0  0  0  0  0
   38.5630   26.8630   42.9410 O   0  0  0  0  0  0  0  0  0  0  0  0
   39.8710   26.5080   43.2240 C   0  0  0  0  0  0  0  0  0  0  0  0
   40.2890   25.5500   42.2930 C   0  0  0  0  0  0  0  0  0  0  0  0
   39.7290   25.1190   41.4650 H   0  0  0  0  0  0  0  0  0  0  0  0
   41.5800   25.0100   42.3420 C   0  0  0  0  0  3  0  0  0  0  0  0
   42.4500   25.4290   43.3220 C   0  0  0  0  0  0  0  0  0  0  0  0
   43.4670   25.0780   43.4510 H   0  0  0  0  0  0  0  0  0  0  0  0
   42.0180   26.3730   44.2270 C   0  0  0  0  0  0  0  0  0  0  0  0
   42.6560   26.7300   45.0080 H   0  0  0  0  0  0  0  0  0  0  0  0
   40.7560   26.9120   44.1940 C   0  0  0  0  0  3  0  0  0  0  0  0
  1 24  1  0  0  0  0
  2  7  1  1  0  0  0
  3  8  1  1  0  0  0
  3  2  1  0  0  0  0
  4  5  1  0  0  0  0
  4  3  1  0  0  0  0
  5  6  1  0  0  0  0
  6  2  1  0  0  0  0
  6 11  1  1  0  0  0
  6  1  1  0  0  0  0
  9  5  1  0  0  0  0
 10  5  1  0  0  0  0
 12 17  1  0  0  0  0
 13 12  2  0  0  0  0
 13 14  1  0  0  0  0
 14  3  1  0  0  0  0
 14 15  2  0  0  0  0
 15 16  1  0  0  0  0
 16 20  1  0  0  0  0
 17 16  2  0  0  0  0
 18 12  1  0  0  0  0
 19 13  1  0  0  0  0
 21  2  1  0  0  0  0
 21 22  1  0  0  0  0
 23 28  1  6  0  0  0
 23 33  1  0  0  0  0
 24 23  1  0  0  0  0
 24 29  1  1  0  0  0
 24 25  1  0  0  0  0
 26 31  1  0  0  0  0
 26 25  1  0  0  0  0
 27 32  1  6  0  0  0
 27 26  1  0  0  0  0
 27 23  1  0  0  0  0
 27 35  1  0  0  0  0
 30 26  1  0  0  0  0
 33 34  1  0  0  0  0
 35 36  1  0  0  0  0
 36 44  1  0  0  0  0
 37 39  1  0  0  0  0
 37 36  2  0  0  0  0
 38 37  1  0  0  0  0
 39 40  2  0  0  0  0
 40 41  1  0  0  0  0
 40 42  1  0  0  0  0
 42 43  1  0  0  0  0
 44 42  2  0  0  0  0
M  END
>  <minimizedAffinity>
-6.525455

$$$$

 OpenBabel03242516363D

 44 47  0  0  1  0  0  0  0  0999 V2000
   37.2370   28.0230   40.6000 O   0  0  0  0  0  0  0  0  0  0  0  0
   38.2500   26.1210   41.5880 C   0  0  2  0  0  0  0  0  0  0  0  0
   38.8860   27.1400   42.5710 C   0  0  1  0  0  0  0  0  0  0  0  0
   37.9150   27.1540   43.5260 O   0  0  0  0  0  0  0  0  0  0  0  0
   36.7300   27.3780   42.7970 C   0  0  0  0  0  0  0  0  0  0  0  0
   36.9850   26.9090   41.3460 C   0  0  1  0  0  0  0  0  0  0  0  0
   38.8790   25.9830   40.7080 H   0  0  0  0  0  0  0  0  0  0  0  0
   38.9200   28.1220   42.0390 H   0  0  0  0  0  0  0  0  0  0  0  0
   35.8710   26.8380   43.2250 H   0  0  0  0  0  0  0  0  0  0  0  0
   36.5460   28.4610   42.8180 H   0  0  0  0  0  0  0  0  0  0  0  0
   36.1820   26.2680   40.9530 H   0  0  0  0  0  0  0  0  0  0  0  0
   42.1840   26.4200   44.3200 C   0  0  0  0  0  0  0  0  0  0  0  0
   40.9500   27.0450   44.1260 C   0  0  0  0  0  0  0  0  0  0  0  0
   40.2080   26.6770   43.0170 C   0  0  0  0  0  0  0  0  0  0  0  0
   40.7420   25.7200   42.1840 N   0  0  0  0  0  0  0  0  0  0  0  0
   41.9320   25.1390   42.4030 C   0  0  0  0  0  0  0  0  0  0  0  0
   42.6530   25.4950   43.4780 N   0  0  0  0  0  0  0  0  0  0  0  0
   42.6670   26.8010   45.2290 H   0  0  0  0  0  0  0  0  0  0  0  0
   40.4690   27.7930   44.7210 H   0  0  0  0  0  0  0  0  0  0  0  0
   42.3190   24.3880   41.7250 H   0  0  0  0  0  0  0  0  0  0  0  0
   37.8870   24.9790   42.2390 O   0  0  0  0  0  0  0  0  0  0  0  0
   38.5040   24.2540   41.9400 H   0  0  0  0  0  0  0  0  0  0  0  0
   36.8570   30.2620   41.2360 C   0  0  1  0  0  0  0  0  0  0  0  0
   36.2030   28.9570   40.5480 C   0  0  1  0  0  0  0  0  0  0  0  0
   36.1010   29.4400   39.2960 O   0  0  0  0  0  0  0  0  0  0  0  0
   37.4660   29.7420   39.0370 C   0  0  0  0  0  0  0  0  0  0  0  0
   37.7660   30.7320   40.1430 C   0  0  1  0  0  0  0  0  0  0  0  0
   37.3060   29.9770   42.1710 H   0  0  0  0  0  0  0  0  0  0  0  0
   35.3800   28.7900   41.2350 H   0  0  0  0  0  0  0  0  0  0  0  0
   38.1020   28.8390   39.0870 H   0  0  0  0  0  0  0  0  0  0  0  0
   37.4970   30.2560   38.0550 H   0  0  0  0  0  0  0  0  0  0  0  0
   38.8380   30.6330   40.4390 H   0  0  0  0  0  0  0  0  0  0  0  0
   35.7900   31.1690   41.3190 O   0  0  0  0  0  0  0  0  0  0  0  0
   35.4720   31.2870   40.3860 H   0  0  0  0  0  0  0  0  0  0  0  0
   37.4490   32.0020   39.7090 O   0  0  0  0  0  0  0  0  0  0  0  0
   38.2940   33.0950   39.7990 C   0  0  0  0  0  0  0  0  0  0  0  0
   39.5890   32.6930   39.4500 C   0  0  0  0  0  0  0  0  0  0  0  0
   39.9350   31.7050   39.1490 H   0  0  0  0  0  0  0  0  0  0  0  0
   40.6540   33.6030   39.4530 C   0  0  0  0  0  3  0  0  0  0  0  0
   40.4220   34.9120   39.8050 C   0  0  0  0  0  0  0  0  0  0  0  0
   41.1700   35.6940   39.8410 H   0  0  0  0  0  0  0  0  0  0  0  0
   39.1400   35.2860   40.1440 C   0  0  0  0  0  0  0  0  0  0  0  0
   38.9100   36.2920   40.4270 H   0  0  0  0  0  0  0  0  0  0  0  0
   38.0850   34.4080   40.1470 C   0  0  0  0  0  3  0  0  0  0  0  0
  1  6  1  0  0  0  0
  2  7  1  6  0  0  0
  2 21  1  0  0  0  0
  2  3  1  0  0  0  0
  3  8  1  6  0  0  0
  3 14  1  0  0  0  0
  3  4  1  0  0  0  0
  5 10  1  0  0  0  0
  5  9  1  0  0  0  0
  5  4  1  0  0  0  0
  6 11  1  6  0  0  0
  6  2  1  0  0  0  0
  6  5  1  0  0  0  0
 12 18  1  0  0  0  0
 13 12  1  0  0  0  0
 13 19  1  0  0  0  0
 14 13  2  0  0  0  0
 15 16  2  0  0  0  0
 15 14  1  0  0  0  0
 16 17  1  0  0  0  0
 17 12  2  0  0  0  0
 20 16  1  0  0  0  0
 22 21  1  0  0  0  0
 23 33  1  0  0  0  0
 23 28  1  1  0  0  0
 24  1  1  0  0  0  0
 24 29  1  1  0  0  0
 24 23  1  0  0  0  0
 25 24  1  0  0  0  0
 26 30  1  0  0  0  0
 26 25  1  0  0  0  0
 26 27  1  0  0  0  0
 27 32  1  1  0  0  0
 27 23  1  0  0  0  0
 31 26  1  0  0  0  0
 34 33  1  0  0  0  0
 35 36  1  0  0  0  0
 35 27  1  0  0  0  0
 36 44  1  0  0  0  0
 37 39  1  0  0  0  0
 37 36  2  0  0  0  0
 38 37  1  0  0  0  0
 39 40  2  0  0  0  0
 40 41  1  0  0  0  0
 40 42  1  0  0  0  0
 42 44  2  0  0  0  0
 42 43  1  0  0  0  0
M  END
>  <minimizedAffinity>
-6.27815771

$$$$

 OpenBabel03242516363D

 44 47  0  0  1  0  0  0  0  0999 V2000
   38.1890   29.9660   41.3560 O   0  0  0  0  0  0  0  0  0  0  0  0
   38.1290   32.2680   40.7950 C   0  0  2  0  0  0  0  0  0  0  0  0
   39.1090   31.8760   39.6560 C   0  0  1  0  0  0  0  0  0  0  0  0
   38.2030   31.5850   38.6820 O   0  0  0  0  0  0  0  0  0  0  0  0
   37.3070   30.6960   39.3090 C   0  0  0  0  0  0  0  0  0  0  0  0
   37.3990   30.9470   40.8320 C   0  0  1  0  0  0  0  0  0  0  0  0
   38.6720   32.5180   41.7070 H   0  0  0  0  0  0  0  0  0  0  0  0
   39.6310   30.9460   39.9880 H   0  0  0  0  0  0  0  0  0  0  0  0
   36.2710   30.8360   38.9630 H   0  0  0  0  0  0  0  0  0  0  0  0
   37.6520   29.6800   39.0720 H   0  0  0  0  0  0  0  0  0  0  0  0
   36.4150   31.0470   41.3130 H   0  0  0  0  0  0  0  0  0  0  0  0
   41.6940   34.3000   38.2810 C   0  0  0  0  0  0  0  0  0  0  0  0
   40.9580   33.1140   38.3390 C   0  0  0  0  0  0  0  0  0  0  0  0
   40.0290   32.9820   39.3580 C   0  0  0  0  0  0  0  0  0  0  0  0
   39.9000   34.0310   40.2400 N   0  0  0  0  0  0  0  0  0  0  0  0
   40.6250   35.1570   40.1520 C   0  0  0  0  0  0  0  0  0  0  0  0
   41.5260   35.2860   39.1650 N   0  0  0  0  0  0  0  0  0  0  0  0
   42.3910   34.2750   37.4320 H   0  0  0  0  0  0  0  0  0  0  0  0
   40.9990   32.2580   37.6980 H   0  0  0  0  0  0  0  0  0  0  0  0
   40.4940   35.9610   40.8640 H   0  0  0  0  0  0  0  0  0  0  0  0
   37.2340   33.2030   40.3660 O   0  0  0  0  0  0  0  0  0  0  0  0
   37.4560   34.0620   40.8220 H   0  0  0  0  0  0  0  0  0  0  0  0
   36.6390   28.2870   41.9390 C   0  0  1  0  0  0  0  0  0  0  0  0
   37.7010   29.3560   42.5120 C   0  0  1  0  0  0  0  0  0  0  0  0
   38.6130   28.4820   42.9740 O   0  0  0  0  0  0  0  0  0  0  0  0
   38.9190   27.7870   41.7710 C   0  0  0  0  0  0  0  0  0  0  0  0
   37.5590   27.2400   41.3910 C   0  0  1  0  0  0  0  0  0  0  0  0
   35.9800   28.7830   41.2480 H   0  0  0  0  0  0  0  0  0  0  0  0
   37.0330   29.9600   43.1190 H   0  0  0  0  0  0  0  0  0  0  0  0
   39.3380   28.4630   41.0030 H   0  0  0  0  0  0  0  0  0  0  0  0
   39.5950   26.9530   42.0480 H   0  0  0  0  0  0  0  0  0  0  0  0
   37.4870   27.1830   40.2780 H   0  0  0  0  0  0  0  0  0  0  0  0
   36.0360   27.7600   43.0910 O   0  0  0  0  0  0  0  0  0  0  0  0
   36.7800   27.3820   43.6280 H   0  0  0  0  0  0  0  0  0  0  0  0
   37.3790   26.0150   41.9990 O   0  0  0  0  0  0  0  0  0  0  0  0
   37.5170   24.7940   41.3610 C   0  0  0  0  0  0  0  0  0  0  0  0
   36.3870   24.5720   40.5660 C   0  0  0  0  0  0  0  0  0  0  0  0
   35.5160   25.2120   40.4300 H   0  0  0  0  0  0  0  0  0  0  0  0
   36.2590   23.4060   39.8020 C   0  0  0  0  0  3  0  0  0  0  0  0
   37.2600   22.4640   39.8350 C   0  0  0  0  0  0  0  0  0  0  0  0
   37.2630   21.5300   39.2860 H   0  0  0  0  0  0  0  0  0  0  0  0
   38.3640   22.7030   40.6240 C   0  0  0  0  0  0  0  0  0  0  0  0
   39.1690   22.0010   40.6850 H   0  0  0  0  0  0  0  0  0  0  0  0
   38.5060   23.8410   41.3790 C   0  0  0  0  0  3  0  0  0  0  0  0
  1 24  1  0  0  0  0
  2  6  1  0  0  0  0
  2  7  1  1  0  0  0
  3  8  1  1  0  0  0
  3  2  1  0  0  0  0
  4  5  1  0  0  0  0
  4  3  1  0  0  0  0
  5  6  1  0  0  0  0
  6 11  1  1  0  0  0
  6  1  1  0  0  0  0
  9  5  1  0  0  0  0
 10  5  1  0  0  0  0
 12 13  2  0  0  0  0
 12 17  1  0  0  0  0
 13 14  1  0  0  0  0
 14  3  1  0  0  0  0
 14 15  2  0  0  0  0
 16 15  1  0  0  0  0
 16 20  1  0  0  0  0
 17 16  2  0  0  0  0
 18 12  1  0  0  0  0
 19 13  1  0  0  0  0
 21  2  1  0  0  0  0
 21 22  1  0  0  0  0
 23 28  1  6  0  0  0
 23 24  1  0  0  0  0
 23 33  1  0  0  0  0
 24 25  1  0  0  0  0
 24 29  1  1  0  0  0
 26 31  1  0  0  0  0
 26 25  1  0  0  0  0
 27 32  1  6  0  0  0
 27 26  1  0  0  0  0
 27 23  1  0  0  0  0
 27 35  1  0  0  0  0
 30 26  1  0  0  0  0
 33 34  1  0  0  0  0
 36 44  1  0  0  0  0
 36 35  1  0  0  0  0
 37 36  2  0  0  0  0
 38 37  1  0  0  0  0
 39 40  2  0  0  0  0
 39 37  1  0  0  0  0
 40 42  1  0  0  0  0
 41 40  1  0  0  0  0
 42 43  1  0  0  0  0
 42 44  2  0  0  0  0
M  END
>  <minimizedAffinity>
-6.25974894

$$$$

 OpenBabel03242516363D

 44 47  0  0  1  0  0  0  0  0999 V2000
   40.3170   31.6480   38.0170 O   0  0  0  0  0  0  0  0  0  0  0  0
   41.8300   33.4500   37.7290 C   0  0  2  0  0  0  0  0  0  0  0  0
   42.8380   32.5450   38.4890 C   0  0  1  0  0  0  0  0  0  0  0  0
   43.3780   31.8840   37.4270 O   0  0  0  0  0  0  0  0  0  0  0  0
   42.2560   31.4120   36.7180 C   0  0  0  0  0  0  0  0  0  0  0  0
   41.0600   32.3190   37.0910 C   0  0  1  0  0  0  0  0  0  0  0  0
   41.2550   34.0610   38.4250 H   0  0  0  0  0  0  0  0  0  0  0  0
   42.2340   31.8440   39.1140 H   0  0  0  0  0  0  0  0  0  0  0  0
   42.4170   31.4240   35.6290 H   0  0  0  0  0  0  0  0  0  0  0  0
   42.0740   30.3850   37.0640 H   0  0  0  0  0  0  0  0  0  0  0  0
   40.4930   32.6660   36.2140 H   0  0  0  0  0  0  0  0  0  0  0  0
   44.7830   34.5000   41.1060 C   0  0  0  0  0  0  0  0  0  0  0  0
   43.7290   33.7300   40.6080 C   0  0  0  0  0  0  0  0  0  0  0  0
   43.7770   33.3580   39.2750 C   0  0  0  0  0  0  0  0  0  0  0  0
   44.8620   33.7750   38.5380 N   0  0  0  0  0  0  0  0  0  0  0  0
   45.8580   34.5140   39.0510 C   0  0  0  0  0  0  0  0  0  0  0  0
   45.8120   34.8760   40.3440 N   0  0  0  0  0  0  0  0  0  0  0  0
   44.6220   34.7250   42.1690 H   0  0  0  0  0  0  0  0  0  0  0  0
   42.8560   33.3690   41.1110 H   0  0  0  0  0  0  0  0  0  0  0  0
   46.6960   34.8220   38.4390 H   0  0  0  0  0  0  0  0  0  0  0  0
   42.4490   34.1270   36.7210 O   0  0  0  0  0  0  0  0  0  0  0  0
   42.4820   35.0890   36.9820 H   0  0  0  0  0  0  0  0  0  0  0  0
   38.4330   30.2570   38.2960 C   0  0  1  0  0  0  0  0  0  0  0  0
   38.9350   31.7220   37.8460 C   0  0  1  0  0  0  0  0  0  0  0  0
   38.3970   32.4220   38.8610 O   0  0  0  0  0  0  0  0  0  0  0  0
   39.0330   31.7850   39.9630 C   0  0  0  0  0  0  0  0  0  0  0  0
   38.5760   30.3530   39.7830 C   0  0  1  0  0  0  0  0  0  0  0  0
   39.0200   29.5130   37.7860 H   0  0  0  0  0  0  0  0  0  0  0  0
   38.5850   31.7200   36.8180 H   0  0  0  0  0  0  0  0  0  0  0  0
   40.1330   31.8910   39.9170 H   0  0  0  0  0  0  0  0  0  0  0  0
   38.5810   32.2120   40.8810 H   0  0  0  0  0  0  0  0  0  0  0  0
   39.3720   29.6670   40.1580 H   0  0  0  0  0  0  0  0  0  0  0  0
   37.0620   30.2650   38.0000 O   0  0  0  0  0  0  0  0  0  0  0  0
   36.6860   31.0250   38.5150 H   0  0  0  0  0  0  0  0  0  0  0  0
   37.3730   30.1800   40.4360 O   0  0  0  0  0  0  0  0  0  0  0  0
   37.1590   29.2680   41.4560 C   0  0  0  0  0  0  0  0  0  0  0  0
   38.0060   29.5820   42.5260 C   0  0  0  0  0  0  0  0  0  0  0  0
   38.7300   30.3920   42.6030 H   0  0  0  0  0  0  0  0  0  0  0  0
   38.0000   28.8200   43.7000 C   0  0  0  0  0  3  0  0  0  0  0  0
   37.1480   27.7450   43.8030 C   0  0  0  0  0  0  0  0  0  0  0  0
   37.0620   27.0910   44.6620 H   0  0  0  0  0  0  0  0  0  0  0  0
   36.3230   27.4540   42.7380 C   0  0  0  0  0  0  0  0  0  0  0  0
   35.6430   26.6280   42.7690 H   0  0  0  0  0  0  0  0  0  0  0  0
   36.3160   28.1900   41.5800 C   0  0  0  0  0  3  0  0  0  0  0  0
  2  7  1  1  0  0  0
  2  3  1  0  0  0  0
  3  8  1  1  0  0  0
  3 14  1  0  0  0  0
  4  3  1  0  0  0  0
  5 10  1  0  0  0  0
  5  6  1  0  0  0  0
  5  4  1  0  0  0  0
  6 11  1  6  0  0  0
  6  2  1  0  0  0  0
  6  1  1  0  0  0  0
  9  5  1  0  0  0  0
 12 18  1  0  0  0  0
 13 12  1  0  0  0  0
 13 19  1  0  0  0  0
 14 13  2  0  0  0  0
 15 16  2  0  0  0  0
 15 14  1  0  0  0  0
 16 17  1  0  0  0  0
 17 12  2  0  0  0  0
 20 16  1  0  0  0  0
 21 22  1  0  0  0  0
 21  2  1  0  0  0  0
 23 28  1  6  0  0  0
 23 27  1  0  0  0  0
 24 29  1  6  0  0  0
 24  1  1  0  0  0  0
 24 23  1  0  0  0  0
 24 25  1  0  0  0  0
 25 26  1  0  0  0  0
 26 31  1  0  0  0  0
 27 26  1  0  0  0  0
 27 32  1  1  0  0  0
 27 35  1  0  0  0  0
 30 26  1  0  0  0  0
 33 23  1  0  0  0  0
 33 34  1  0  0  0  0
 35 36  1  0  0  0  0
 36 44  2  0  0  0  0
 36 37  1  0  0  0  0
 37 38  1  0  0  0  0
 37 39  2  0  0  0  0
 39 40  1  0  0  0  0
 40 41  1  0  0  0  0
 42 43  1  0  0  0  0
 42 40  2  0  0  0  0
 44 42  1  0  0  0  0
M  END
>  <minimizedAffinity>
-6.13064241

$$$$

 OpenBabel03242516363D

 44 47  0  0  1  0  0  0  0  0999 V2000
   37.6860   30.1740   40.8910 O   0  0  0  0  0  0  0  0  0  0  0  0
   36.7730   28.2420   41.9180 C   0  0  2  0  0  0  0  0  0  0  0  0
   38.2100   27.6660   41.7970 C   0  0  1  0  0  0  0  0  0  0  0  0
   38.7160   28.0940   42.9870 O   0  0  0  0  0  0  0  0  0  0  0  0
   38.4030   29.4680   43.0100 C   0  0  0  0  0  0  0  0  0  0  0  0
   37.1980   29.6830   42.0660 C   0  0  1  0  0  0  0  0  0  0  0  0
   36.1900   28.0260   41.0210 H   0  0  0  0  0  0  0  0  0  0  0  0
   38.7020   28.2050   40.9510 H   0  0  0  0  0  0  0  0  0  0  0  0
   38.1600   29.8220   44.0240 H   0  0  0  0  0  0  0  0  0  0  0  0
   39.2850   29.9990   42.6240 H   0  0  0  0  0  0  0  0  0  0  0  0
   36.3990   30.2910   42.5180 H   0  0  0  0  0  0  0  0  0  0  0  0
   38.8140   23.9160   41.6390 C   0  0  0  0  0  0  0  0  0  0  0  0
   39.1280   25.2510   41.9040 C   0  0  0  0  0  0  0  0  0  0  0  0
   38.1730   26.2090   41.6110 C   0  0  0  0  0  0  0  0  0  0  0  0
   36.9800   25.7730   41.0780 N   0  0  0  0  0  0  0  0  0  0  0  0
   36.7110   24.4800   40.8390 C   0  0  0  0  0  0  0  0  0  0  0  0
   37.6380   23.5510   41.1220 N   0  0  0  0  0  0  0  0  0  0  0  0
   39.6530   23.2640   41.9150 H   0  0  0  0  0  0  0  0  0  0  0  0
   40.0260   25.6680   42.3120 H   0  0  0  0  0  0  0  0  0  0  0  0
   35.7600   24.1770   40.4200 H   0  0  0  0  0  0  0  0  0  0  0  0
   36.2000   27.8740   43.0980 O   0  0  0  0  0  0  0  0  0  0  0  0
   35.4750   27.2200   42.8890 H   0  0  0  0  0  0  0  0  0  0  0  0
   38.5850   32.3520   41.0000 C   0  0  1  0  0  0  0  0  0  0  0  0
   37.2980   31.4760   40.5770 C   0  0  1  0  0  0  0  0  0  0  0  0
   37.3800   31.6570   39.2460 O   0  0  0  0  0  0  0  0  0  0  0  0
   38.6800   31.1290   39.0060 C   0  0  0  0  0  0  0  0  0  0  0  0
   39.5300   32.0220   39.8850 C   0  0  1  0  0  0  0  0  0  0  0  0
   38.8790   32.0820   41.9990 H   0  0  0  0  0  0  0  0  0  0  0  0
   36.5590   31.9210   41.2350 H   0  0  0  0  0  0  0  0  0  0  0  0
   38.7470   30.0630   39.2890 H   0  0  0  0  0  0  0  0  0  0  0  0
   38.9100   31.3230   37.9390 H   0  0  0  0  0  0  0  0  0  0  0  0
   40.4060   31.4400   40.2570 H   0  0  0  0  0  0  0  0  0  0  0  0
   38.1640   33.6780   40.8210 O   0  0  0  0  0  0  0  0  0  0  0  0
   37.8940   33.7420   39.8680 H   0  0  0  0  0  0  0  0  0  0  0  0
   39.9000   33.1400   39.1670 O   0  0  0  0  0  0  0  0  0  0  0  0
   41.2020   33.4440   38.8040 C   0  0  0  0  0  0  0  0  0  0  0  0
   41.9560   33.6520   39.9650 C   0  0  0  0  0  0  0  0  0  0  0  0
   41.6320   33.5990   41.0040 H   0  0  0  0  0  0  0  0  0  0  0  0
   43.3160   33.9760   39.8950 C   0  0  0  0  0  3  0  0  0  0  0  0
   43.9200   34.0910   38.6650 C   0  0  0  0  0  0  0  0  0  0  0  0
   44.9610   34.3360   38.4960 H   0  0  0  0  0  0  0  0  0  0  0  0
   43.1590   33.8800   37.5350 C   0  0  0  0  0  0  0  0  0  0  0  0
   43.5830   33.9590   36.5550 H   0  0  0  0  0  0  0  0  0  0  0  0
   41.8250   33.5630   37.5850 C   0  0  0  0  0  3  0  0  0  0  0  0
  1  6  1  0  0  0  0
  2  7  1  6  0  0  0
  2  6  1  0  0  0  0
  2 21  1  0  0  0  0
  3  8  1  6  0  0  0
  3  2  1  0  0  0  0
  3  4  1  0  0  0  0
  4  5  1  0  0  0  0
  5  9  1  0  0  0  0
  6 11  1  1  0  0  0
  6  5  1  0  0  0  0
 10  5  1  0  0  0  0
 12 13  1  0  0  0  0
 12 18  1  0  0  0  0
 13 19  1  0  0  0  0
 14  3  1  0  0  0  0
 14 13  2  0  0  0  0
 15 14  1  0  0  0  0
 16 15  2  0  0  0  0
 16 17  1  0  0  0  0
 17 12  2  0  0  0  0
 20 16  1  0  0  0  0
 22 21  1  0  0  0  0
 23 28  1  1  0  0  0
 24  1  1  0  0  0  0
 24 23  1  0  0  0  0
 24 29  1  1  0  0  0
 25 24  1  0  0  0  0
 26 25  1  0  0  0  0
 26 30  1  0  0  0  0
 26 27  1  0  0  0  0
 27 32  1  1  0  0  0
 27 23  1  0  0  0  0
 31 26  1  0  0  0  0
 33 23  1  0  0  0  0
 34 33  1  0  0  0  0
 35 27  1  0  0  0  0
 36 35  1  0  0  0  0
 36 37  1  0  0  0  0
 37 38  1  0  0  0  0
 39 37  2  0  0  0  0
 40 39  1  0  0  0  0
 41 40  1  0  0  0  0
 42 44  1  0  0  0  0
 42 40  2  0  0  0  0
 43 42  1  0  0  0  0
 44 36  2  0  0  0  0
M  END
>  <minimizedAffinity>
-5.99467087

$$$$

 OpenBabel03242516363D

 44 47  0  0  1  0  0  0  0  0999 V2000
   38.9630   31.4400   40.0420 O   0  0  0  0  0  0  0  0  0  0  0  0
   40.0640   33.5390   40.0100 C   0  0  2  0  0  0  0  0  0  0  0  0
   41.3100   32.7250   39.5690 C   0  0  1  0  0  0  0  0  0  0  0  0
   41.1300   32.7670   38.2200 O   0  0  0  0  0  0  0  0  0  0  0  0
   39.7960   32.3470   38.0450 C   0  0  0  0  0  0  0  0  0  0  0  0
   39.0480   32.6240   39.3690 C   0  0  1  0  0  0  0  0  0  0  0  0
   40.0040   33.6020   41.0970 H   0  0  0  0  0  0  0  0  0  0  0  0
   41.1640   31.6840   39.9460 H   0  0  0  0  0  0  0  0  0  0  0  0
   39.3010   32.8700   37.2120 H   0  0  0  0  0  0  0  0  0  0  0  0
   39.8290   31.2660   37.8490 H   0  0  0  0  0  0  0  0  0  0  0  0
   38.0850   33.1360   39.2220 H   0  0  0  0  0  0  0  0  0  0  0  0
   44.7930   34.1250   40.1720 C   0  0  0  0  0  0  0  0  0  0  0  0
   43.7920   33.4420   39.4750 C   0  0  0  0  0  0  0  0  0  0  0  0
   42.5430   33.3520   40.0650 C   0  0  0  0  0  0  0  0  0  0  0  0
   42.3780   33.9430   41.2970 N   0  0  0  0  0  0  0  0  0  0  0  0
   43.3630   34.5930   41.9380 C   0  0  0  0  0  0  0  0  0  0  0  0
   44.5760   34.6800   41.3670 N   0  0  0  0  0  0  0  0  0  0  0  0
   45.7290   34.1220   39.5980 H   0  0  0  0  0  0  0  0  0  0  0  0
   43.8410   32.9580   38.5220 H   0  0  0  0  0  0  0  0  0  0  0  0
   43.1940   35.0470   42.9060 H   0  0  0  0  0  0  0  0  0  0  0  0
   40.0000   34.7280   39.3470 O   0  0  0  0  0  0  0  0  0  0  0  0
   40.1930   35.4510   40.0070 H   0  0  0  0  0  0  0  0  0  0  0  0
   36.8130   30.5960   40.5190 C   0  0  1  0  0  0  0  0  0  0  0  0
   38.0670   31.4200   41.1100 C   0  0  1  0  0  0  0  0  0  0  0  0
   38.4740   30.5120   42.0160 O   0  0  0  0  0  0  0  0  0  0  0  0
   38.7230   29.4040   41.1600 C   0  0  0  0  0  0  0  0  0  0  0  0
   37.3590   29.2010   40.5340 C   0  0  1  0  0  0  0  0  0  0  0  0
   36.5370   31.0130   39.5670 H   0  0  0  0  0  0  0  0  0  0  0  0
   37.5720   32.3600   41.3300 H   0  0  0  0  0  0  0  0  0  0  0  0
   39.5060   29.6320   40.4130 H   0  0  0  0  0  0  0  0  0  0  0  0
   38.9670   28.5440   41.8150 H   0  0  0  0  0  0  0  0  0  0  0  0
   37.4890   28.8070   39.4980 H   0  0  0  0  0  0  0  0  0  0  0  0
   35.8450   30.6830   41.5310 O   0  0  0  0  0  0  0  0  0  0  0  0
   36.2730   30.2950   42.3380 H   0  0  0  0  0  0  0  0  0  0  0  0
   36.6170   28.3580   41.3350 O   0  0  0  0  0  0  0  0  0  0  0  0
   36.7740   26.9830   41.3830 C   0  0  0  0  0  0  0  0  0  0  0  0
   36.6420   26.4690   40.0880 C   0  0  0  0  0  0  0  0  0  0  0  0
   36.4500   27.0070   39.1600 H   0  0  0  0  0  0  0  0  0  0  0  0
   36.7570   25.0950   39.8400 C   0  0  0  0  0  3  0  0  0  0  0  0
   37.0020   24.2390   40.8880 C   0  0  0  0  0  0  0  0  0  0  0  0
   37.1080   23.1640   40.8090 H   0  0  0  0  0  0  0  0  0  0  0  0
   37.1280   24.7670   42.1550 C   0  0  0  0  0  0  0  0  0  0  0  0
   37.3180   24.1420   43.0020 H   0  0  0  0  0  0  0  0  0  0  0  0
   37.0190   26.1100   42.4150 C   0  0  0  0  0  3  0  0  0  0  0  0
  1 24  1  0  0  0  0
  2  7  1  1  0  0  0
  3  8  1  1  0  0  0
  3  2  1  0  0  0  0
  3 14  1  0  0  0  0
  4  3  1  0  0  0  0
  5  4  1  0  0  0  0
  5  6  1  0  0  0  0
  6 11  1  6  0  0  0
  6  2  1  0  0  0  0
  6  1  1  0  0  0  0
  9  5  1  0  0  0  0
 10  5  1  0  0  0  0
 12 17  1  0  0  0  0
 13 14  1  0  0  0  0
 13 12  2  0  0  0  0
 14 15  2  0  0  0  0
 15 16  1  0  0  0  0
 16 20  1  0  0  0  0
 17 16  2  0  0  0  0
 18 12  1  0  0  0  0
 19 13  1  0  0  0  0
 21 22  1  0  0  0  0
 21  2  1  0  0  0  0
 23 28  1  6  0  0  0
 23 27  1  0  0  0  0
 23 24  1  0  0  0  0
 23 33  1  0  0  0  0
 24 29  1  1  0  0  0
 24 25  1  0  0  0  0
 26 31  1  0  0  0  0
 26 25  1  0  0  0  0
 27 32  1  6  0  0  0
 27 26  1  0  0  0  0
 27 35  1  0  0  0  0
 30 26  1  0  0  0  0
 33 34  1  0  0  0  0
 35 36  1  0  0  0  0
 36 44  1  0  0  0  0
 37 36  2  0  0  0  0
 38 37  1  0  0  0  0
 39 37  1  0  0  0  0
 39 40  2  0  0  0  0
 40 42  1  0  0  0  0
 41 40  1  0  0  0  0
 42 44  2  0  0  0  0
 42 43  1  0  0  0  0
M  END
>  <minimizedAffinity>
-5.98876619

$$$$

 OpenBabel03242516363D

 44 47  0  0  1  0  0  0  0  0999 V2000
   37.7750   31.1160   40.4540 O   0  0  0  0  0  0  0  0  0  0  0  0
   38.9400   33.0230   41.2430 C   0  0  2  0  0  0  0  0  0  0  0  0
   40.1430   32.4490   40.4460 C   0  0  1  0  0  0  0  0  0  0  0  0
   39.9130   33.0500   39.2460 O   0  0  0  0  0  0  0  0  0  0  0  0
   38.5610   32.7590   38.9760 C   0  0  0  0  0  0  0  0  0  0  0  0
   37.8720   32.4700   40.3290 C   0  0  1  0  0  0  0  0  0  0  0  0
   38.9230   32.6280   42.2600 H   0  0  0  0  0  0  0  0  0  0  0  0
   39.9770   31.3470   40.3640 H   0  0  0  0  0  0  0  0  0  0  0  0
   38.0520   33.5870   38.4590 H   0  0  0  0  0  0  0  0  0  0  0  0
   38.5520   31.8570   38.3480 H   0  0  0  0  0  0  0  0  0  0  0  0
   36.9220   33.0100   40.4530 H   0  0  0  0  0  0  0  0  0  0  0  0
   43.4110   32.6170   42.3800 C   0  0  0  0  0  0  0  0  0  0  0  0
   42.2340   32.0310   41.9070 C   0  0  0  0  0  0  0  0  0  0  0  0
   41.4130   32.7960   41.0980 C   0  0  0  0  0  0  0  0  0  0  0  0
   41.8170   34.0820   40.8180 N   0  0  0  0  0  0  0  0  0  0  0  0
   42.9570   34.6120   41.2890 C   0  0  0  0  0  0  0  0  0  0  0  0
   43.7540   33.8700   42.0740 N   0  0  0  0  0  0  0  0  0  0  0  0
   43.9670   31.9070   43.0070 H   0  0  0  0  0  0  0  0  0  0  0  0
   41.8520   31.0460   42.0790 H   0  0  0  0  0  0  0  0  0  0  0  0
   43.2420   35.6280   41.0450 H   0  0  0  0  0  0  0  0  0  0  0  0
   38.8900   34.3810   41.1360 O   0  0  0  0  0  0  0  0  0  0  0  0
   39.1300   34.7610   42.0270 H   0  0  0  0  0  0  0  0  0  0  0  0
   36.0930   29.4770   40.2380 C   0  0  1  0  0  0  0  0  0  0  0  0
   36.6710   30.6570   41.1720 C   0  0  1  0  0  0  0  0  0  0  0  0
   37.0920   29.8930   42.1970 O   0  0  0  0  0  0  0  0  0  0  0  0
   38.0080   29.0470   41.5110 C   0  0  0  0  0  0  0  0  0  0  0  0
   37.1040   28.4000   40.4840 C   0  0  1  0  0  0  0  0  0  0  0  0
   35.9910   29.8440   39.2320 H   0  0  0  0  0  0  0  0  0  0  0  0
   35.8070   31.3140   41.1820 H   0  0  0  0  0  0  0  0  0  0  0  0
   38.8330   29.6230   41.0520 H   0  0  0  0  0  0  0  0  0  0  0  0
   38.3490   28.2880   42.2440 H   0  0  0  0  0  0  0  0  0  0  0  0
   37.6950   28.1830   39.5630 H   0  0  0  0  0  0  0  0  0  0  0  0
   34.9030   29.0950   40.8750 O   0  0  0  0  0  0  0  0  0  0  0  0
   35.1700   28.8260   41.7920 H   0  0  0  0  0  0  0  0  0  0  0  0
   36.5380   27.2670   41.0320 O   0  0  0  0  0  0  0  0  0  0  0  0
   36.9550   25.9740   40.7640 C   0  0  0  0  0  0  0  0  0  0  0  0
   37.3250   25.3620   41.9680 C   0  0  0  0  0  0  0  0  0  0  0  0
   37.3090   25.7790   42.9740 H   0  0  0  0  0  0  0  0  0  0  0  0
   37.7880   24.0410   41.9940 C   0  0  0  0  0  3  0  0  0  0  0  0
   37.8820   23.3350   40.8180 C   0  0  0  0  0  0  0  0  0  0  0  0
   38.2260   22.3120   40.7240 H   0  0  0  0  0  0  0  0  0  0  0  0
   37.5110   23.9570   39.6450 C   0  0  0  0  0  0  0  0  0  0  0  0
   37.5670   23.4500   38.7040 H   0  0  0  0  0  0  0  0  0  0  0  0
   37.0550   25.2500   39.6010 C   0  0  0  0  0  3  0  0  0  0  0  0
  1 24  1  0  0  0  0
  2  7  1  1  0  0  0
  3  8  1  6  0  0  0
  3 14  1  0  0  0  0
  3  2  1  0  0  0  0
  4  3  1  0  0  0  0
  5  4  1  0  0  0  0
  5  6  1  0  0  0  0
  6 11  1  1  0  0  0
  6  1  1  0  0  0  0
  6  2  1  0  0  0  0
  9  5  1  0  0  0  0
 10  5  1  0  0  0  0
 12 18  1  0  0  0  0
 13 19  1  0  0  0  0
 13 12  2  0  0  0  0
 14 13  1  0  0  0  0
 15 14  2  0  0  0  0
 15 16  1  0  0  0  0
 16 17  2  0  0  0  0
 17 12  1  0  0  0  0
 20 16  1  0  0  0  0
 21  2  1  0  0  0  0
 21 22  1  0  0  0  0
 23 28  1  6  0  0  0
 23 27  1  0  0  0  0
 23 33  1  0  0  0  0
 23 24  1  0  0  0  0
 24 29  1  1  0  0  0
 24 25  1  0  0  0  0
 26 25  1  0  0  0  0
 26 31  1  0  0  0  0
 27 32  1  6  0  0  0
 27 35  1  0  0  0  0
 27 26  1  0  0  0  0
 30 26  1  0  0  0  0
 33 34  1  0  0  0  0
 36 35  1  0  0  0  0
 36 37  1  0  0  0  0
 37 39  2  0  0  0  0
 37 38  1  0  0  0  0
 40 39  1  0  0  0  0
 41 40  1  0  0  0  0
 42 40  2  0  0  0  0
 43 42  1  0  0  0  0
 44 42  1  0  0  0  0
 44 36  2  0  0  0  0
M  END
>  <minimizedAffinity>
-5.8763938

$$$$

 OpenBabel03242516363D

 44 47  0  0  1  0  0  0  0  0999 V2000
   37.6950   27.9160   41.3720 O   0  0  0  0  0  0  0  0  0  0  0  0
   37.0330   25.6400   41.3360 C   0  0  2  0  0  0  0  0  0  0  0  0
   38.5110   25.3580   40.9510 C   0  0  1  0  0  0  0  0  0  0  0  0
   39.0360   25.2150   42.1990 O   0  0  0  0  0  0  0  0  0  0  0  0
   38.5930   26.3640   42.8840 C   0  0  0  0  0  0  0  0  0  0  0  0
   37.3220   26.8700   42.1630 C   0  0  1  0  0  0  0  0  0  0  0  0
   36.4260   25.8170   40.4470 H   0  0  0  0  0  0  0  0  0  0  0  0
   38.9010   26.2890   40.4710 H   0  0  0  0  0  0  0  0  0  0  0  0
   38.3720   26.1570   43.9430 H   0  0  0  0  0  0  0  0  0  0  0  0
   39.3960   27.1100   42.8030 H   0  0  0  0  0  0  0  0  0  0  0  0
   36.4940   27.0910   42.8530 H   0  0  0  0  0  0  0  0  0  0  0  0
   38.9910   22.8080   38.1730 C   0  0  0  0  0  0  0  0  0  0  0  0
   38.9630   24.0810   38.7490 C   0  0  0  0  0  0  0  0  0  0  0  0
   38.6060   24.1760   40.0830 C   0  0  0  0  0  0  0  0  0  0  0  0
   38.3030   23.0080   40.7450 N   0  0  0  0  0  0  0  0  0  0  0  0
   38.3410   21.8010   40.1590 C   0  0  0  0  0  0  0  0  0  0  0  0
   38.6870   21.7070   38.8640 N   0  0  0  0  0  0  0  0  0  0  0  0
   39.2870   22.8730   37.1170 H   0  0  0  0  0  0  0  0  0  0  0  0
   39.1820   25.0290   38.3060 H   0  0  0  0  0  0  0  0  0  0  0  0
   38.0980   20.9040   40.7130 H   0  0  0  0  0  0  0  0  0  0  0  0
   36.5640   24.6880   42.1910 O   0  0  0  0  0  0  0  0  0  0  0  0
   35.8970   24.1390   41.6920 H   0  0  0  0  0  0  0  0  0  0  0  0
   36.9460   30.1320   41.6740 C   0  0  1  0  0  0  0  0  0  0  0  0
   36.6560   28.7320   40.9270 C   0  0  1  0  0  0  0  0  0  0  0  0
   36.9130   29.1360   39.6690 O   0  0  0  0  0  0  0  0  0  0  0  0
   38.2600   29.5680   39.8210 C   0  0  0  0  0  0  0  0  0  0  0  0
   38.1120   30.6390   40.8810 C   0  0  1  0  0  0  0  0  0  0  0  0
   37.1000   29.9440   42.7220 H   0  0  0  0  0  0  0  0  0  0  0  0
   35.6750   28.5140   41.3370 H   0  0  0  0  0  0  0  0  0  0  0  0
   38.9220   28.7410   40.1390 H   0  0  0  0  0  0  0  0  0  0  0  0
   38.5560   30.0310   38.8580 H   0  0  0  0  0  0  0  0  0  0  0  0
   39.0390   30.6690   41.5010 H   0  0  0  0  0  0  0  0  0  0  0  0
   35.8350   30.9240   41.3480 O   0  0  0  0  0  0  0  0  0  0  0  0
   35.8190   30.9610   40.3560 H   0  0  0  0  0  0  0  0  0  0  0  0
   37.8420   31.8450   40.2680 O   0  0  0  0  0  0  0  0  0  0  0  0
   38.7720   32.8530   40.0770 C   0  0  0  0  0  0  0  0  0  0  0  0
   38.1540   34.0860   40.3140 C   0  0  0  0  0  0  0  0  0  0  0  0
   37.1220   34.2840   40.6020 H   0  0  0  0  0  0  0  0  0  0  0  0
   38.8650   35.2860   40.1920 C   0  0  0  0  0  3  0  0  0  0  0  0
   40.1930   35.2500   39.8350 C   0  0  0  0  0  0  0  0  0  0  0  0
   40.8340   36.1150   39.7130 H   0  0  0  0  0  0  0  0  0  0  0  0
   40.7810   34.0250   39.6070 C   0  0  0  0  0  0  0  0  0  0  0  0
   41.8100   33.9450   39.3260 H   0  0  0  0  0  0  0  0  0  0  0  0
   40.0990   32.8400   39.7210 C   0  0  0  0  0  3  0  0  0  0  0  0
  1  6  1  0  0  0  0
  2  7  1  6  0  0  0
  2  6  1  0  0  0  0
  2 21  1  0  0  0  0
  3  8  1  6  0  0  0
  3  2  1  0  0  0  0
  3  4  1  0  0  0  0
  4  5  1  0  0  0  0
  5  9  1  0  0  0  0
  6 11  1  1  0  0  0
  6  5  1  0  0  0  0
 10  5  1  0  0  0  0
 12 13  2  0  0  0  0
 12 17  1  0  0  0  0
 13 14  1  0  0  0  0
 14 15  2  0  0  0  0
 14  3  1  0  0  0  0
 16 20  1  0  0  0  0
 16 15  1  0  0  0  0
 17 16  2  0  0  0  0
 18 12  1  0  0  0  0
 19 13  1  0  0  0  0
 22 21  1  0  0  0  0
 23 28  1  1  0  0  0
 24 29  1  1  0  0  0
 24  1  1  0  0  0  0
 24 23  1  0  0  0  0
 25 26  1  0  0  0  0
 25 24  1  0  0  0  0
 26 30  1  0  0  0  0
 26 27  1  0  0  0  0
 27 32  1  1  0  0  0
 27 23  1  0  0  0  0
 31 26  1  0  0  0  0
 33 23  1  0  0  0  0
 34 33  1  0  0  0  0
 35 27  1  0  0  0  0
 36 35  1  0  0  0  0
 36 37  1  0  0  0  0
 37 38  1  0  0  0  0
 39 37  2  0  0  0  0
 40 39  1  0  0  0  0
 41 40  1  0  0  0  0
 42 44  1  0  0  0  0
 42 40  2  0  0  0  0
 43 42  1  0  0  0  0
 44 36  2  0  0  0  0
M  END
>  <minimizedAffinity>
-5.82448244

$$$$

 OpenBabel03242516363D

 44 47  0  0  1  0  0  0  0  0999 V2000
   38.9560   32.1270   40.2670 O   0  0  0  0  0  0  0  0  0  0  0  0
   41.1840   32.8440   40.6420 C   0  0  2  0  0  0  0  0  0  0  0  0
   41.1740   33.2130   39.1340 C   0  0  1  0  0  0  0  0  0  0  0  0
   40.7170   34.4920   39.2280 O   0  0  0  0  0  0  0  0  0  0  0  0
   39.5650   34.3800   40.0320 C   0  0  0  0  0  0  0  0  0  0  0  0
   39.7120   33.0890   40.8700 C   0  0  1  0  0  0  0  0  0  0  0  0
   41.5050   31.8110   40.7880 H   0  0  0  0  0  0  0  0  0  0  0  0
   40.4060   32.5620   38.6490 H   0  0  0  0  0  0  0  0  0  0  0  0
   39.4340   35.2500   40.6940 H   0  0  0  0  0  0  0  0  0  0  0  0
   38.7100   34.2910   39.3480 H   0  0  0  0  0  0  0  0  0  0  0  0
   39.4920   33.2410   41.9380 H   0  0  0  0  0  0  0  0  0  0  0  0
   44.3230   32.2230   37.2480 C   0  0  0  0  0  0  0  0  0  0  0  0
   42.9900   32.1180   37.6550 C   0  0  0  0  0  0  0  0  0  0  0  0
   42.5150   33.0590   38.5520 C   0  0  0  0  0  0  0  0  0  0  0  0
   43.3910   34.0320   38.9770 N   0  0  0  0  0  0  0  0  0  0  0  0
   44.6660   34.1030   38.5620 C   0  0  0  0  0  0  0  0  0  0  0  0
   45.1290   33.1900   37.6930 N   0  0  0  0  0  0  0  0  0  0  0  0
   44.5710   31.4200   36.5410 H   0  0  0  0  0  0  0  0  0  0  0  0
   42.2510   31.3970   37.3740 H   0  0  0  0  0  0  0  0  0  0  0  0
   45.3250   34.8840   38.9180 H   0  0  0  0  0  0  0  0  0  0  0  0
   41.8590   33.7800   41.3670 O   0  0  0  0  0  0  0  0  0  0  0  0
   42.7080   33.3600   41.6830 H   0  0  0  0  0  0  0  0  0  0  0  0
   36.6700   31.5460   40.3040 C   0  0  1  0  0  0  0  0  0  0  0  0
   38.0680   31.4500   41.1030 C   0  0  1  0  0  0  0  0  0  0  0  0
   38.2620   30.1240   40.9790 O   0  0  0  0  0  0  0  0  0  0  0  0
   38.2710   30.0090   39.5610 C   0  0  0  0  0  0  0  0  0  0  0  0
   36.9010   30.5490   39.2100 C   0  0  1  0  0  0  0  0  0  0  0  0
   36.4990   32.5690   40.0190 H   0  0  0  0  0  0  0  0  0  0  0  0
   37.7870   31.9690   42.0140 H   0  0  0  0  0  0  0  0  0  0  0  0
   39.0910   30.5970   39.1080 H   0  0  0  0  0  0  0  0  0  0  0  0
   38.3180   28.9260   39.3300 H   0  0  0  0  0  0  0  0  0  0  0  0
   36.9510   31.0490   38.2140 H   0  0  0  0  0  0  0  0  0  0  0  0
   35.7360   30.9920   41.1920 O   0  0  0  0  0  0  0  0  0  0  0  0
   36.0630   30.0730   41.3790 H   0  0  0  0  0  0  0  0  0  0  0  0
   35.9870   29.5170   39.2430 O   0  0  0  0  0  0  0  0  0  0  0  0
   35.1030   29.2190   38.2200 C   0  0  0  0  0  0  0  0  0  0  0  0
   35.7730   29.3370   36.9970 C   0  0  0  0  0  0  0  0  0  0  0  0
   36.8120   29.6110   36.8150 H   0  0  0  0  0  0  0  0  0  0  0  0
   35.1150   29.0910   35.7850 C   0  0  0  0  0  3  0  0  0  0  0  0
   33.7890   28.7280   35.7990 C   0  0  0  0  0  0  0  0  0  0  0  0
   33.1860   28.5160   34.9250 H   0  0  0  0  0  0  0  0  0  0  0  0
   33.1490   28.6180   37.0150 C   0  0  0  0  0  0  0  0  0  0  0  0
   32.1180   28.3390   37.0780 H   0  0  0  0  0  0  0  0  0  0  0  0
   33.7780   28.8550   38.2110 C   0  0  0  0  0  3  0  0  0  0  0  0
  1  6  1  0  0  0  0
  1 24  1  0  0  0  0
  2  7  1  1  0  0  0
  2  6  1  0  0  0  0
  2 21  1  0  0  0  0
  3  8  1  6  0  0  0
  3  4  1  0  0  0  0
  3  2  1  0  0  0  0
  4  5  1  0  0  0  0
  5  9  1  0  0  0  0
  5  6  1  0  0  0  0
  6 11  1  1  0  0  0
 10  5  1  0  0  0  0
 12 13  2  0  0  0  0
 12 17  1  0  0  0  0
 13 14  1  0  0  0  0
 14 15  2  0  0  0  0
 14  3  1  0  0  0  0
 16 20  1  0  0  0  0
 16 15  1  0  0  0  0
 17 16  2  0  0  0  0
 18 12  1  0  0  0  0
 19 13  1  0  0  0  0
 21 22  1  0  0  0  0
 23 28  1  6  0  0  0
 23 24  1  0  0  0  0
 23 33  1  0  0  0  0
 24 29  1  1  0  0  0
 25 24  1  0  0  0  0
 26 25  1  0  0  0  0
 27 32  1  6  0  0  0
 27 35  1  0  0  0  0
 27 26  1  0  0  0  0
 27 23  1  0  0  0  0
 30 26  1  0  0  0  0
 31 26  1  0  0  0  0
 33 34  1  0  0  0  0
 36 35  1  0  0  0  0
 37 36  2  0  0  0  0
 38 37  1  0  0  0  0
 39 40  2  0  0  0  0
 39 37  1  0  0  0  0
 40 42  1  0  0  0  0
 41 40  1  0  0  0  0
 42 43  1  0  0  0  0
 42 44  2  0  0  0  0
 44 36  1  0  0  0  0
M  END
>  <minimizedAffinity>
-5.76594639

$$$$
