
 OpenBabel03242512183D

 33 35  0  0  0  0  0  0  0  0999 V2000
   48.4890   33.0930   41.3640 C   0  0  0  0  0  0  0  0  0  0  0  0
   48.0590   34.3120   41.8240 C   0  0  0  0  0  0  0  0  0  0  0  0
   48.9530   35.1370   42.4660 C   0  0  0  0  0  0  0  0  0  0  0  0
   50.2640   34.7170   42.6310 C   0  0  0  0  0  0  0  0  0  0  0  0
   50.6470   33.4890   42.1520 C   0  0  0  0  0  0  0  0  0  0  0  0
   49.7650   32.6230   41.4930 C   0  0  0  0  0  0  0  0  0  0  0  0
   48.5840   36.0870   42.8160 H   0  0  0  0  0  0  0  0  0  0  0  0
   50.9550   35.3760   43.1370 H   0  0  0  0  0  0  0  0  0  0  0  0
   51.6760   33.1860   42.2930 H   0  0  0  0  0  0  0  0  0  0  0  0
   46.6330   34.6280   41.5740 C   0  0  0  0  0  0  0  0  0  0  0  0
   46.1370   33.9070   40.9480 H   0  0  0  0  0  0  0  0  0  0  0  0
   46.6010   35.5950   40.9900 H   0  0  0  0  0  0  0  0  0  0  0  0
   45.9330   34.9040   42.8790 C   0  0  0  0  0  0  0  0  0  0  0  0
   45.9740   33.9110   43.8440 C   0  0  0  0  0  0  0  0  0  0  0  0
   45.3360   34.1530   45.0620 C   0  0  0  0  0  0  0  0  0  0  0  0
   44.7170   35.3410   45.2270 N   0  0  0  0  0  0  0  0  0  0  0  0
   44.6950   36.2900   44.2650 C   0  0  0  0  0  0  0  0  0  0  0  0
   45.3010   36.0660   43.1010 N   0  0  0  0  0  0  0  0  0  0  0  0
   46.4720   32.9560   43.7130 H   0  0  0  0  0  0  0  0  0  0  0  0
   45.3280   33.4160   45.8680 H   0  0  0  0  0  0  0  0  0  0  0  0
   44.1840   37.2310   44.4410 H   0  0  0  0  0  0  0  0  0  0  0  0
   47.6470   32.1730   40.6950 O   0  0  0  0  0  0  0  0  0  0  0  0
   47.5240   31.3030   41.2180 H   0  0  0  0  0  0  0  0  0  0  0  0
   50.2600   31.4190   41.0550 O   0  0  0  0  0  0  0  0  0  0  0  0
   51.2690   31.4030   40.1080 C   0  0  0  0  0  0  0  0  0  0  0  0
   52.6230   31.2560   40.1920 C   0  0  0  0  0  0  0  0  0  0  0  0
   52.9510   31.1200   41.2120 H   0  0  0  0  0  0  0  0  0  0  0  0
   53.4040   31.2830   39.0560 C   0  0  0  0  0  0  0  0  0  0  0  0
   52.8680   31.4580   37.7970 C   0  0  0  0  0  0  0  0  0  0  0  0
   53.5380   31.4700   36.9300 H   0  0  0  0  0  0  0  0  0  0  0  0
   51.5100   31.6070   37.6970 C   0  0  0  0  0  0  0  0  0  0  0  0
   51.1370   31.7400   36.6910 H   0  0  0  0  0  0  0  0  0  0  0  0
   50.7030   31.5820   38.8400 C   0  0  0  0  0  0  0  0  0  0  0  0
  1  6  2  0  0  0  0
  1  2  1  0  0  0  0
  2  3  2  0  0  0  0
  3  4  1  0  0  0  0
  3  7  1  0  0  0  0
  4  8  1  0  0  0  0
  5  9  1  0  0  0  0
  5  4  2  0  0  0  0
  6  5  1  0  0  0  0
 10  2  1  0  0  0  0
 10 13  1  0  0  0  0
 11 10  1  0  0  0  0
 12 10  1  0  0  0  0
 13 18  2  0  0  0  0
 13 14  1  0  0  0  0
 14 15  2  0  0  0  0
 15 16  1  0  0  0  0
 15 20  1  0  0  0  0
 17 21  1  0  0  0  0
 17 16  2  0  0  0  0
 18 17  1  0  0  0  0
 19 14  1  0  0  0  0
 22 23  1  0  0  0  0
 22  1  1  0  0  0  0
 24  6  1  0  0  0  0
 25 26  1  0  0  0  0
 25 24  1  0  0  0  0
 26 27  1  0  0  0  0
 28 26  2  0  0  0  0
 29 28  1  0  0  0  0
 30 29  1  0  0  0  0
 31 29  2  0  0  0  0
 31 33  1  0  0  0  0
 32 31  1  0  0  0  0
 33 25  2  0  0  0  0
M  END
>  <minimizedAffinity>
-5.53671503

>  <minimizedRMSD>
1.69142103

$$$$
