
 OpenBabel03242518183D

 23 24  0  0  0  0  0  0  0  0999 V2000
   46.9970   32.5170   45.9020 C   0  0  0  0  0  0  0  0  0  0  0  0
   47.8850   33.1200   46.2370 H   0  0  0  0  0  0  0  0  0  0  0  0
   47.3410   31.7080   45.2200 H   0  0  0  0  0  0  0  0  0  0  0  0
   46.3260   31.8730   47.0330 C   0  0  0  0  0  0  0  0  0  0  0  0
   46.2640   32.3380   48.3310 C   0  0  0  0  0  0  0  0  0  0  0  0
   46.7650   33.2760   48.5320 H   0  0  0  0  0  0  0  0  0  0  0  0
   45.5850   31.6180   49.3140 C   0  0  0  0  0  0  0  0  0  0  0  0
   44.9550   30.4200   49.0220 C   0  0  0  0  0  0  0  0  0  0  0  0
   44.4490   29.9020   49.8030 H   0  0  0  0  0  0  0  0  0  0  0  0
   45.0130   29.9400   47.7080 C   0  0  0  0  0  0  0  0  0  0  0  0
   44.5130   29.0100   47.5190 H   0  0  0  0  0  0  0  0  0  0  0  0
   45.6900   30.6700   46.7510 C   0  0  0  0  0  0  0  0  0  0  0  0
   44.6870   35.1990   44.9550 C   0  0  0  0  0  0  0  0  0  0  0  0
   44.3200   34.8650   43.6260 C   0  0  0  0  0  0  0  0  0  0  0  0
   44.8740   33.7280   43.0890 C   0  0  0  0  0  0  0  0  0  0  0  0
   45.7200   33.0020   43.8310 N   0  0  0  0  0  0  0  0  0  0  0  0
   46.0530   33.3360   45.0860 C   0  0  0  0  0  0  0  0  0  0  0  0
   45.5380   34.4410   45.6590 N   0  0  0  0  0  0  0  0  0  0  0  0
   44.2990   36.0870   45.4700 H   0  0  0  0  0  0  0  0  0  0  0  0
   44.5690   33.5110   42.0810 H   0  0  0  0  0  0  0  0  0  0  0  0
   43.4080   35.7710   43.0160 N   0  0  0  0  0  0  0  0  0  0  0  0
   43.7190   36.7630   42.9620 H   0  0  0  0  0  0  0  0  0  0  0  0
   42.5090   35.3450   42.6810 H   0  0  0  0  0  0  0  0  0  0  0  0
  1  2  1  0  0  0  0
  1  4  1  0  0  0  0
  3  1  1  0  0  0  0
  4  5  1  0  0  0  0
  5  6  1  0  0  0  0
  5  7  2  0  0  0  0
  8  7  1  0  0  0  0
  8  9  1  0  0  0  0
 10  8  2  0  0  0  0
 11 10  1  0  0  0  0
 12  4  2  0  0  0  0
 12 10  1  0  0  0  0
 13 19  1  0  0  0  0
 13 18  1  0  0  0  0
 14 13  2  0  0  0  0
 15 14  1  0  0  0  0
 15 16  2  0  0  0  0
 16 17  1  0  0  0  0
 17 18  2  0  0  0  0
 17  1  1  0  0  0  0
 20 15  1  0  0  0  0
 21 14  1  0  0  0  0
 22 21  1  0  0  0  0
 23 21  1  0  0  0  0
M  END
>  <minimizedAffinity>
-4.53438807

>  <minimizedRMSD>
1.52176583

$$$$
