
 OpenBabel03252504543D

 21 22  0  0  0  0  0  0  0  0999 V2000
   48.6710   34.9360   42.3990 C   0  0  0  0  0  0  0  0  0  0  0  0
   48.7450   35.5160   43.3620 H   0  0  0  0  0  0  0  0  0  0  0  0
   49.2500   35.4690   41.6040 H   0  0  0  0  0  0  0  0  0  0  0  0
   50.8750   31.9490   42.1140 C   0  0  0  0  0  0  0  0  0  0  0  0
   50.3990   33.2710   42.0210 C   0  0  0  0  0  0  0  0  0  0  0  0
   49.1350   33.5550   42.5090 C   0  0  0  0  0  0  0  0  0  0  0  0
   48.4080   32.5470   43.0550 N   0  0  0  0  0  0  0  0  0  0  0  0
   48.8870   31.2730   43.1340 C   0  0  0  0  0  0  0  0  0  0  0  0
   50.1130   30.9930   42.6620 N   0  0  0  0  0  0  0  0  0  0  0  0
   51.8520   31.7560   41.7310 H   0  0  0  0  0  0  0  0  0  0  0  0
   51.0260   34.0320   41.5770 H   0  0  0  0  0  0  0  0  0  0  0  0
   48.2210   30.5280   43.5930 H   0  0  0  0  0  0  0  0  0  0  0  0
   47.2170   34.8610   42.0530 C   0  0  0  0  0  0  0  0  0  0  0  0
   46.8480   34.2610   40.8760 C   0  0  0  0  0  0  0  0  0  0  0  0
   47.6450   33.8590   40.2360 H   0  0  0  0  0  0  0  0  0  0  0  0
   45.5730   34.0940   40.3840 C   0  0  0  0  0  3  0  0  0  0  0  0
   44.5620   34.6080   41.2050 C   0  0  0  0  0  0  0  0  0  0  0  0
   43.5390   34.4970   40.8530 H   0  0  0  0  0  0  0  0  0  0  0  0
   44.8870   35.2240   42.4040 C   0  0  0  0  0  0  0  0  0  0  0  0
   44.0720   35.6140   43.0210 H   0  0  0  0  0  0  0  0  0  0  0  0
   46.1960   35.3530   42.8340 C   0  0  0  0  0  3  0  0  0  0  0  0
  1  6  1  0  0  0  0
  1  2  1  0  0  0  0
  3  1  1  0  0  0  0
  4  9  1  0  0  0  0
  5  4  2  0  0  0  0
  5  6  1  0  0  0  0
  6  7  2  0  0  0  0
  7  8  1  0  0  0  0
  8 12  1  0  0  0  0
  9  8  2  0  0  0  0
 10  4  1  0  0  0  0
 11  5  1  0  0  0  0
 13  1  1  0  0  0  0
 13 21  1  0  0  0  0
 14 13  2  0  0  0  0
 15 14  1  0  0  0  0
 16 14  1  0  0  0  0
 16 17  2  0  0  0  0
 17 19  1  0  0  0  0
 18 17  1  0  0  0  0
 19 21  2  0  0  0  0
 19 20  1  0  0  0  0
M  END
>  <minimizedAffinity>
-3.66347742

>  <minimizedRMSD>
4.95966816

$$$$
