
 OpenBabel03242512193D

 33 35  0  0  0  0  0  0  0  0999 V2000
   36.7200   28.3880   41.8110 C   0  0  0  0  0  0  0  0  0  0  0  0
   36.1010   28.5130   40.5920 C   0  0  0  0  0  0  0  0  0  0  0  0
   36.1420   27.4570   39.7110 C   0  0  0  0  0  0  0  0  0  0  0  0
   36.8060   26.2960   40.0760 C   0  0  0  0  0  0  0  0  0  0  0  0
   37.4080   26.2180   41.3080 C   0  0  0  0  0  0  0  0  0  0  0  0
   37.3870   27.2720   42.2300 C   0  0  0  0  0  0  0  0  0  0  0  0
   35.6480   27.5870   38.7630 H   0  0  0  0  0  0  0  0  0  0  0  0
   36.8290   25.4740   39.3730 H   0  0  0  0  0  0  0  0  0  0  0  0
   37.9180   25.3010   41.5670 H   0  0  0  0  0  0  0  0  0  0  0  0
   35.4290   29.8100   40.3410 C   0  0  0  0  0  0  0  0  0  0  0  0
   34.8150   30.1410   41.1600 H   0  0  0  0  0  0  0  0  0  0  0  0
   34.7130   29.6550   39.4810 H   0  0  0  0  0  0  0  0  0  0  0  0
   36.4370   30.8250   39.8690 C   0  0  0  0  0  0  0  0  0  0  0  0
   36.7880   30.7960   38.5300 C   0  0  0  0  0  0  0  0  0  0  0  0
   37.7170   31.7340   38.0740 C   0  0  0  0  0  0  0  0  0  0  0  0
   38.2160   32.6150   38.9680 N   0  0  0  0  0  0  0  0  0  0  0  0
   37.8520   32.6170   40.2690 C   0  0  0  0  0  0  0  0  0  0  0  0
   36.9680   31.7260   40.7100 N   0  0  0  0  0  0  0  0  0  0  0  0
   36.3880   30.0890   37.8120 H   0  0  0  0  0  0  0  0  0  0  0  0
   38.0400   31.7700   37.0320 H   0  0  0  0  0  0  0  0  0  0  0  0
   38.2800   33.3440   40.9520 H   0  0  0  0  0  0  0  0  0  0  0  0
   36.7370   29.4160   42.7840 O   0  0  0  0  0  0  0  0  0  0  0  0
   37.6800   29.7630   42.9700 H   0  0  0  0  0  0  0  0  0  0  0  0
   38.0230   27.0820   43.4330 O   0  0  0  0  0  0  0  0  0  0  0  0
   39.3900   26.8680   43.4520 C   0  0  0  0  0  0  0  0  0  0  0  0
   40.1570   25.7620   43.6790 C   0  0  0  0  0  0  0  0  0  0  0  0
   39.5550   24.8870   43.8750 H   0  0  0  0  0  0  0  0  0  0  0  0
   41.5330   25.8410   43.6360 C   0  0  0  0  0  3  0  0  0  0  0  0
   42.1960   27.0210   43.3680 C   0  0  0  0  0  0  0  0  0  0  0  0
   43.2900   27.0230   43.3460 H   0  0  0  0  0  0  0  0  0  0  0  0
   41.4390   28.1390   43.1380 C   0  0  0  0  0  0  0  0  0  0  0  0
   42.0020   29.0390   42.9320 H   0  0  0  0  0  0  0  0  0  0  0  0
   40.0410   28.0770   43.1780 C   0  0  0  0  0  3  0  0  0  0  0  0
  1  6  1  0  0  0  0
  1 22  1  0  0  0  0
  2  1  2  0  0  0  0
  3  4  2  0  0  0  0
  3  2  1  0  0  0  0
  4  5  1  0  0  0  0
  5  9  1  0  0  0  0
  5  6  2  0  0  0  0
  6 24  1  0  0  0  0
  7  3  1  0  0  0  0
  8  4  1  0  0  0  0
 10  2  1  0  0  0  0
 10 11  1  0  0  0  0
 12 10  1  0  0  0  0
 13 10  1  0  0  0  0
 13 18  1  0  0  0  0
 14 13  2  0  0  0  0
 15 14  1  0  0  0  0
 15 16  2  0  0  0  0
 16 17  1  0  0  0  0
 17 18  2  0  0  0  0
 17 21  1  0  0  0  0
 19 14  1  0  0  0  0
 20 15  1  0  0  0  0
 22 23  1  0  0  0  0
 24 25  1  0  0  0  0
 25 26  1  0  0  0  0
 26 27  1  0  0  0  0
 28 26  2  0  0  0  0
 29 28  1  0  0  0  0
 30 29  1  0  0  0  0
 31 33  1  0  0  0  0
 31 29  2  0  0  0  0
 32 31  1  0  0  0  0
 33 25  2  0  0  0  0
M  END
>  <minimizedAffinity>
-5.79659081

$$$$

 OpenBabel03242512193D

 33 35  0  0  0  0  0  0  0  0999 V2000
   36.6290   29.2280   41.4020 C   0  0  0  0  0  0  0  0  0  0  0  0
   36.5970   30.0770   40.3240 C   0  0  0  0  0  0  0  0  0  0  0  0
   36.5800   29.5450   39.0560 C   0  0  0  0  0  0  0  0  0  0  0  0
   36.5950   28.1670   38.8990 C   0  0  0  0  0  0  0  0  0  0  0  0
   36.6260   27.3590   40.0090 C   0  0  0  0  0  0  0  0  0  0  0  0
   36.6440   27.8650   41.3150 C   0  0  0  0  0  0  0  0  0  0  0  0
   36.5540   30.2370   38.2310 H   0  0  0  0  0  0  0  0  0  0  0  0
   36.5810   27.7640   37.8960 H   0  0  0  0  0  0  0  0  0  0  0  0
   36.6380   26.2880   39.8580 H   0  0  0  0  0  0  0  0  0  0  0  0
   36.5800   31.5230   40.6440 C   0  0  0  0  0  0  0  0  0  0  0  0
   36.0380   31.7580   41.5440 H   0  0  0  0  0  0  0  0  0  0  0  0
   36.0130   32.0430   39.8170 H   0  0  0  0  0  0  0  0  0  0  0  0
   37.9810   32.0730   40.6020 C   0  0  0  0  0  0  0  0  0  0  0  0
   38.1700   33.2810   39.9500 C   0  0  0  0  0  0  0  0  0  0  0  0
   39.4630   33.8080   39.9060 C   0  0  0  0  0  0  0  0  0  0  0  0
   40.4510   33.1080   40.5030 N   0  0  0  0  0  0  0  0  0  0  0  0
   40.2340   31.9320   41.1300 C   0  0  0  0  0  0  0  0  0  0  0  0
   39.0050   31.4230   41.1760 N   0  0  0  0  0  0  0  0  0  0  0  0
   37.3760   33.8440   39.4710 H   0  0  0  0  0  0  0  0  0  0  0  0
   39.6850   34.7550   39.4110 H   0  0  0  0  0  0  0  0  0  0  0  0
   41.0600   31.4030   41.5960 H   0  0  0  0  0  0  0  0  0  0  0  0
   36.6520   29.6760   42.7450 O   0  0  0  0  0  0  0  0  0  0  0  0
   37.5150   29.4190   43.2290 H   0  0  0  0  0  0  0  0  0  0  0  0
   36.6740   26.9610   42.3490 O   0  0  0  0  0  0  0  0  0  0  0  0
   37.8160   26.2110   42.5640 C   0  0  0  0  0  0  0  0  0  0  0  0
   38.1860   24.9500   42.1940 C   0  0  0  0  0  0  0  0  0  0  0  0
   37.4200   24.4600   41.6120 H   0  0  0  0  0  0  0  0  0  0  0  0
   39.4170   24.4450   42.5580 C   0  0  0  0  0  3  0  0  0  0  0  0
   40.3230   25.1720   43.3010 C   0  0  0  0  0  0  0  0  0  0  0  0
   41.2850   24.7190   43.5600 H   0  0  0  0  0  0  0  0  0  0  0  0
   39.9650   26.4390   43.6800 C   0  0  0  0  0  0  0  0  0  0  0  0
   40.7060   26.9710   44.2610 H   0  0  0  0  0  0  0  0  0  0  0  0
   38.7200   26.9680   43.3200 C   0  0  0  0  0  3  0  0  0  0  0  0
  1 22  1  0  0  0  0
  2 10  1  0  0  0  0
  2  1  2  0  0  0  0
  3  2  1  0  0  0  0
  4  3  2  0  0  0  0
  4  5  1  0  0  0  0
  5  6  2  0  0  0  0
  6  1  1  0  0  0  0
  6 24  1  0  0  0  0
  7  3  1  0  0  0  0
  8  4  1  0  0  0  0
  9  5  1  0  0  0  0
 10 11  1  0  0  0  0
 12 10  1  0  0  0  0
 13 10  1  0  0  0  0
 13 18  1  0  0  0  0
 14 13  2  0  0  0  0
 15 14  1  0  0  0  0
 15 16  2  0  0  0  0
 16 17  1  0  0  0  0
 17 18  2  0  0  0  0
 17 21  1  0  0  0  0
 19 14  1  0  0  0  0
 20 15  1  0  0  0  0
 22 23  1  0  0  0  0
 24 25  1  0  0  0  0
 25 33  1  0  0  0  0
 26 28  1  0  0  0  0
 26 25  2  0  0  0  0
 27 26  1  0  0  0  0
 28 29  2  0  0  0  0
 29 30  1  0  0  0  0
 29 31  1  0  0  0  0
 31 32  1  0  0  0  0
 33 31  2  0  0  0  0
M  END
>  <minimizedAffinity>
-5.73433065

$$$$

 OpenBabel03242512193D

 33 35  0  0  0  0  0  0  0  0999 V2000
   36.8140   28.9690   41.7050 C   0  0  0  0  0  0  0  0  0  0  0  0
   36.7840   27.6140   41.4950 C   0  0  0  0  0  0  0  0  0  0  0  0
   36.6490   27.1400   40.2110 C   0  0  0  0  0  0  0  0  0  0  0  0
   36.5470   28.0430   39.1630 C   0  0  0  0  0  0  0  0  0  0  0  0
   36.5840   29.3900   39.4240 C   0  0  0  0  0  0  0  0  0  0  0  0
   36.7200   29.9090   40.7180 C   0  0  0  0  0  0  0  0  0  0  0  0
   36.6290   26.0710   40.0790 H   0  0  0  0  0  0  0  0  0  0  0  0
   36.4420   27.6550   38.1590 H   0  0  0  0  0  0  0  0  0  0  0  0
   36.5020   30.0720   38.5880 H   0  0  0  0  0  0  0  0  0  0  0  0
   36.9070   26.7710   42.7080 C   0  0  0  0  0  0  0  0  0  0  0  0
   36.2340   25.9310   42.7170 H   0  0  0  0  0  0  0  0  0  0  0  0
   36.5950   27.4060   43.5890 H   0  0  0  0  0  0  0  0  0  0  0  0
   38.3510   26.4140   42.9390 C   0  0  0  0  0  0  0  0  0  0  0  0
   38.7630   25.1490   42.5510 C   0  0  0  0  0  0  0  0  0  0  0  0
   40.1010   24.8030   42.7530 C   0  0  0  0  0  0  0  0  0  0  0  0
   40.9140   25.7250   43.3120 N   0  0  0  0  0  0  0  0  0  0  0  0
   40.4820   26.9510   43.6800 C   0  0  0  0  0  0  0  0  0  0  0  0
   39.2080   27.2870   43.4910 N   0  0  0  0  0  0  0  0  0  0  0  0
   38.1100   24.4090   42.1010 H   0  0  0  0  0  0  0  0  0  0  0  0
   40.4950   23.8250   42.4720 H   0  0  0  0  0  0  0  0  0  0  0  0
   41.1720   27.6590   44.1270 H   0  0  0  0  0  0  0  0  0  0  0  0
   36.9460   29.5550   42.9870 O   0  0  0  0  0  0  0  0  0  0  0  0
   36.1220   30.0970   43.2570 H   0  0  0  0  0  0  0  0  0  0  0  0
   36.7450   31.2750   40.8590 O   0  0  0  0  0  0  0  0  0  0  0  0
   37.9390   31.9530   40.6910 C   0  0  0  0  0  0  0  0  0  0  0  0
   39.2430   31.6150   40.9160 C   0  0  0  0  0  0  0  0  0  0  0  0
   39.3390   30.6090   41.2950 H   0  0  0  0  0  0  0  0  0  0  0  0
   40.2560   32.5130   40.6530 C   0  0  0  0  0  3  0  0  0  0  0  0
   40.0110   33.7780   40.1590 C   0  0  0  0  0  0  0  0  0  0  0  0
   40.8560   34.4480   39.9690 H   0  0  0  0  0  0  0  0  0  0  0  0
   38.7080   34.1310   39.9290 C   0  0  0  0  0  0  0  0  0  0  0  0
   38.5650   35.1310   39.5420 H   0  0  0  0  0  0  0  0  0  0  0  0
   37.6670   33.2320   40.1900 C   0  0  0  0  0  3  0  0  0  0  0  0
  1 22  1  0  0  0  0
  2  1  1  0  0  0  0
  2 10  1  0  0  0  0
  3  2  2  0  0  0  0
  4  5  2  0  0  0  0
  4  3  1  0  0  0  0
  5  6  1  0  0  0  0
  6 24  1  0  0  0  0
  6  1  2  0  0  0  0
  7  3  1  0  0  0  0
  8  4  1  0  0  0  0
  9  5  1  0  0  0  0
 10 11  1  0  0  0  0
 10 13  1  0  0  0  0
 10 12  1  0  0  0  0
 13 18  1  0  0  0  0
 14 15  1  0  0  0  0
 14 13  2  0  0  0  0
 15 16  2  0  0  0  0
 16 17  1  0  0  0  0
 17 21  1  0  0  0  0
 18 17  2  0  0  0  0
 19 14  1  0  0  0  0
 20 15  1  0  0  0  0
 22 23  1  0  0  0  0
 25 24  1  0  0  0  0
 25 26  1  0  0  0  0
 26 27  1  0  0  0  0
 28 26  2  0  0  0  0
 29 28  1  0  0  0  0
 30 29  1  0  0  0  0
 31 29  2  0  0  0  0
 31 33  1  0  0  0  0
 32 31  1  0  0  0  0
 33 25  2  0  0  0  0
M  END
>  <minimizedAffinity>
-5.66973639

$$$$

 OpenBabel03242512193D

 33 35  0  0  0  0  0  0  0  0999 V2000
   37.2240   29.6090   41.9240 C   0  0  0  0  0  0  0  0  0  0  0  0
   38.1820   29.2180   42.8250 C   0  0  0  0  0  0  0  0  0  0  0  0
   39.3710   29.9080   42.8780 C   0  0  0  0  0  0  0  0  0  0  0  0
   39.5700   30.9780   42.0190 C   0  0  0  0  0  0  0  0  0  0  0  0
   38.5810   31.3320   41.1350 C   0  0  0  0  0  0  0  0  0  0  0  0
   37.3590   30.6540   41.0540 C   0  0  0  0  0  0  0  0  0  0  0  0
   40.1020   29.5770   43.5950 H   0  0  0  0  0  0  0  0  0  0  0  0
   40.5100   31.5110   42.0720 H   0  0  0  0  0  0  0  0  0  0  0  0
   38.7630   32.1710   40.4770 H   0  0  0  0  0  0  0  0  0  0  0  0
   37.8270   28.0600   43.6800 C   0  0  0  0  0  0  0  0  0  0  0  0
   36.7780   28.0000   43.9090 H   0  0  0  0  0  0  0  0  0  0  0  0
   38.3370   28.2120   44.6770 H   0  0  0  0  0  0  0  0  0  0  0  0
   38.4100   26.7990   43.0990 C   0  0  0  0  0  0  0  0  0  0  0  0
   39.5740   26.3140   43.6730 C   0  0  0  0  0  0  0  0  0  0  0  0
   40.1250   25.1420   43.1500 C   0  0  0  0  0  0  0  0  0  0  0  0
   39.4880   24.5510   42.1170 N   0  0  0  0  0  0  0  0  0  0  0  0
   38.3540   25.0490   41.5790 C   0  0  0  0  0  0  0  0  0  0  0  0
   37.8240   26.1660   42.0710 N   0  0  0  0  0  0  0  0  0  0  0  0
   40.0850   26.7880   44.5030 H   0  0  0  0  0  0  0  0  0  0  0  0
   41.0390   24.7020   43.5530 H   0  0  0  0  0  0  0  0  0  0  0  0
   37.8770   24.5400   40.7470 H   0  0  0  0  0  0  0  0  0  0  0  0
   35.9710   28.9630   41.7910 O   0  0  0  0  0  0  0  0  0  0  0  0
   35.8520   28.5240   40.8750 H   0  0  0  0  0  0  0  0  0  0  0  0
   36.4420   31.0970   40.1320 O   0  0  0  0  0  0  0  0  0  0  0  0
   36.6070   30.7690   38.7980 C   0  0  0  0  0  0  0  0  0  0  0  0
   37.3600   31.3040   37.7930 C   0  0  0  0  0  0  0  0  0  0  0  0
   37.9410   32.1490   38.1310 H   0  0  0  0  0  0  0  0  0  0  0  0
   37.3280   30.7610   36.5260 C   0  0  0  0  0  3  0  0  0  0  0  0
   36.5470   29.6680   36.2120 C   0  0  0  0  0  0  0  0  0  0  0  0
   36.5630   29.2800   35.1880 H   0  0  0  0  0  0  0  0  0  0  0  0
   35.7860   29.1210   37.2100 C   0  0  0  0  0  0  0  0  0  0  0  0
   35.1910   28.2670   36.9170 H   0  0  0  0  0  0  0  0  0  0  0  0
   35.8060   29.6590   38.5020 C   0  0  0  0  0  3  0  0  0  0  0  0
  1  2  1  0  0  0  0
  2  3  2  0  0  0  0
  2 10  1  0  0  0  0
  3  7  1  0  0  0  0
  4  8  1  0  0  0  0
  4  3  1  0  0  0  0
  5  4  2  0  0  0  0
  6  5  1  0  0  0  0
  6  1  2  0  0  0  0
  9  5  1  0  0  0  0
 10 11  1  0  0  0  0
 10 12  1  0  0  0  0
 13 14  1  0  0  0  0
 13 10  1  0  0  0  0
 14 19  1  0  0  0  0
 15 20  1  0  0  0  0
 15 14  2  0  0  0  0
 16 15  1  0  0  0  0
 17 18  1  0  0  0  0
 17 16  2  0  0  0  0
 18 13  2  0  0  0  0
 21 17  1  0  0  0  0
 22  1  1  0  0  0  0
 23 22  1  0  0  0  0
 24  6  1  0  0  0  0
 25 24  1  0  0  0  0
 26 27  1  0  0  0  0
 26 25  2  0  0  0  0
 28 26  1  0  0  0  0
 29 28  2  0  0  0  0
 29 31  1  0  0  0  0
 30 29  1  0  0  0  0
 31 33  2  0  0  0  0
 32 31  1  0  0  0  0
 33 25  1  0  0  0  0
M  END
>  <minimizedAffinity>
-5.66394997

$$$$

 OpenBabel03242512193D

 33 35  0  0  0  0  0  0  0  0999 V2000
   37.3040   29.8730   41.8190 C   0  0  0  0  0  0  0  0  0  0  0  0
   37.6460   30.9140   40.9930 C   0  0  0  0  0  0  0  0  0  0  0  0
   38.9190   31.4300   41.0620 C   0  0  0  0  0  0  0  0  0  0  0  0
   39.8220   30.8860   41.9630 C   0  0  0  0  0  0  0  0  0  0  0  0
   39.4330   29.8430   42.7670 C   0  0  0  0  0  0  0  0  0  0  0  0
   38.1460   29.2930   42.7240 C   0  0  0  0  0  0  0  0  0  0  0  0
   39.1570   32.2460   40.4010 H   0  0  0  0  0  0  0  0  0  0  0  0
   40.8200   31.3020   42.0060 H   0  0  0  0  0  0  0  0  0  0  0  0
   40.1570   29.4380   43.4600 H   0  0  0  0  0  0  0  0  0  0  0  0
   36.5800   31.3900   40.0810 C   0  0  0  0  0  0  0  0  0  0  0  0
   36.6640   32.4330   39.8290 H   0  0  0  0  0  0  0  0  0  0  0  0
   35.6000   31.3010   40.6360 H   0  0  0  0  0  0  0  0  0  0  0  0
   36.4740   30.4700   38.8940 C   0  0  0  0  0  0  0  0  0  0  0  0
   37.4390   30.5920   37.9080 C   0  0  0  0  0  0  0  0  0  0  0  0
   37.3600   29.7420   36.8020 C   0  0  0  0  0  0  0  0  0  0  0  0
   36.3460   28.8520   36.7610 N   0  0  0  0  0  0  0  0  0  0  0  0
   35.4190   28.7580   37.7400 C   0  0  0  0  0  0  0  0  0  0  0  0
   35.4890   29.5640   38.7960 N   0  0  0  0  0  0  0  0  0  0  0  0
   38.2540   31.3070   37.9400 H   0  0  0  0  0  0  0  0  0  0  0  0
   38.0860   29.7820   35.9880 H   0  0  0  0  0  0  0  0  0  0  0  0
   34.6210   28.0260   37.6640 H   0  0  0  0  0  0  0  0  0  0  0  0
   36.0200   29.2760   41.8260 O   0  0  0  0  0  0  0  0  0  0  0  0
   35.5330   29.4050   42.7160 H   0  0  0  0  0  0  0  0  0  0  0  0
   37.8680   28.2510   43.5760 O   0  0  0  0  0  0  0  0  0  0  0  0
   38.4230   27.0070   43.3310 C   0  0  0  0  0  0  0  0  0  0  0  0
   39.6110   26.4320   43.6780 C   0  0  0  0  0  0  0  0  0  0  0  0
   40.2240   27.0980   44.2670 H   0  0  0  0  0  0  0  0  0  0  0  0
   39.9090   25.1440   43.2850 C   0  0  0  0  0  3  0  0  0  0  0  0
   39.0380   24.3820   42.5340 C   0  0  0  0  0  0  0  0  0  0  0  0
   39.3290   23.3650   42.2520 H   0  0  0  0  0  0  0  0  0  0  0  0
   37.8420   24.9460   42.1780 C   0  0  0  0  0  0  0  0  0  0  0  0
   37.1930   24.3120   41.5900 H   0  0  0  0  0  0  0  0  0  0  0  0
   37.5230   26.2520   42.5680 C   0  0  0  0  0  3  0  0  0  0  0  0
  1 22  1  0  0  0  0
  1  6  1  0  0  0  0
  2  3  1  0  0  0  0
  2  1  2  0  0  0  0
  3  4  2  0  0  0  0
  4  8  1  0  0  0  0
  4  5  1  0  0  0  0
  5  9  1  0  0  0  0
  6  5  2  0  0  0  0
  6 24  1  0  0  0  0
  7  3  1  0  0  0  0
 10 12  1  0  0  0  0
 10  2  1  0  0  0  0
 11 10  1  0  0  0  0
 13 10  1  0  0  0  0
 14 19  1  0  0  0  0
 14 13  2  0  0  0  0
 15 14  1  0  0  0  0
 16 15  2  0  0  0  0
 16 17  1  0  0  0  0
 17 18  2  0  0  0  0
 18 13  1  0  0  0  0
 20 15  1  0  0  0  0
 21 17  1  0  0  0  0
 22 23  1  0  0  0  0
 25 24  1  0  0  0  0
 25 26  1  0  0  0  0
 26 27  1  0  0  0  0
 28 26  2  0  0  0  0
 29 28  1  0  0  0  0
 30 29  1  0  0  0  0
 31 29  2  0  0  0  0
 31 33  1  0  0  0  0
 32 31  1  0  0  0  0
 33 25  2  0  0  0  0
M  END
>  <minimizedAffinity>
-5.62705851

$$$$

 OpenBabel03242512193D

 33 35  0  0  0  0  0  0  0  0999 V2000
   37.7560   31.1760   41.1340 C   0  0  0  0  0  0  0  0  0  0  0  0
   38.8850   31.9550   41.0790 C   0  0  0  0  0  0  0  0  0  0  0  0
   39.9990   31.5670   41.7860 C   0  0  0  0  0  0  0  0  0  0  0  0
   39.9530   30.4010   42.5350 C   0  0  0  0  0  0  0  0  0  0  0  0
   38.8010   29.6540   42.5570 C   0  0  0  0  0  0  0  0  0  0  0  0
   37.6480   30.0180   41.8500 C   0  0  0  0  0  0  0  0  0  0  0  0
   40.8680   32.1990   41.7220 H   0  0  0  0  0  0  0  0  0  0  0  0
   40.8370   30.1080   43.0850 H   0  0  0  0  0  0  0  0  0  0  0  0
   38.7930   28.7490   43.1490 H   0  0  0  0  0  0  0  0  0  0  0  0
   38.7880   33.1700   40.2360 C   0  0  0  0  0  0  0  0  0  0  0  0
   38.7160   34.0820   40.8030 H   0  0  0  0  0  0  0  0  0  0  0  0
   37.8170   33.1040   39.6620 H   0  0  0  0  0  0  0  0  0  0  0  0
   39.8850   33.1650   39.2040 C   0  0  0  0  0  0  0  0  0  0  0  0
   40.8500   34.1540   39.2990 C   0  0  0  0  0  0  0  0  0  0  0  0
   41.8790   34.1610   38.3530 C   0  0  0  0  0  0  0  0  0  0  0  0
   41.8700   33.2010   37.4030 N   0  0  0  0  0  0  0  0  0  0  0  0
   40.9130   32.2500   37.3380 C   0  0  0  0  0  0  0  0  0  0  0  0
   39.9300   32.2370   38.2350 N   0  0  0  0  0  0  0  0  0  0  0  0
   40.8580   34.9250   40.0610 H   0  0  0  0  0  0  0  0  0  0  0  0
   42.6730   34.9090   38.3660 H   0  0  0  0  0  0  0  0  0  0  0  0
   40.9460   31.4980   36.5560 H   0  0  0  0  0  0  0  0  0  0  0  0
   36.5600   31.4910   40.4460 O   0  0  0  0  0  0  0  0  0  0  0  0
   35.7810   31.6800   41.0810 H   0  0  0  0  0  0  0  0  0  0  0  0
   36.5530   29.1940   41.9450 O   0  0  0  0  0  0  0  0  0  0  0  0
   36.7140   27.8290   41.7840 C   0  0  0  0  0  0  0  0  0  0  0  0
   36.9070   26.8030   42.6640 C   0  0  0  0  0  0  0  0  0  0  0  0
   36.9300   27.1480   43.6860 H   0  0  0  0  0  0  0  0  0  0  0  0
   37.0400   25.5070   42.2120 C   0  0  0  0  0  3  0  0  0  0  0  0
   36.9870   25.1840   40.8710 C   0  0  0  0  0  0  0  0  0  0  0  0
   37.0990   24.1370   40.5720 H   0  0  0  0  0  0  0  0  0  0  0  0
   36.7940   26.2040   39.9780 C   0  0  0  0  0  0  0  0  0  0  0  0
   36.7590   25.9020   38.9390 H   0  0  0  0  0  0  0  0  0  0  0  0
   36.6570   27.5250   40.4180 C   0  0  0  0  0  3  0  0  0  0  0  0
  1  6  1  0  0  0  0
  2  1  2  0  0  0  0
  2  3  1  0  0  0  0
  3  4  2  0  0  0  0
  4  5  1  0  0  0  0
  4  8  1  0  0  0  0
  5  9  1  0  0  0  0
  6 24  1  0  0  0  0
  6  5  2  0  0  0  0
  7  3  1  0  0  0  0
 10 11  1  0  0  0  0
 10  2  1  0  0  0  0
 12 10  1  0  0  0  0
 13 14  1  0  0  0  0
 13 10  1  0  0  0  0
 14 19  1  0  0  0  0
 15 20  1  0  0  0  0
 15 14  2  0  0  0  0
 16 15  1  0  0  0  0
 17 16  2  0  0  0  0
 17 18  1  0  0  0  0
 18 13  2  0  0  0  0
 21 17  1  0  0  0  0
 22 23  1  0  0  0  0
 22  1  1  0  0  0  0
 25 24  1  0  0  0  0
 25 26  1  0  0  0  0
 26 27  1  0  0  0  0
 28 26  2  0  0  0  0
 29 28  1  0  0  0  0
 30 29  1  0  0  0  0
 31 33  1  0  0  0  0
 31 29  2  0  0  0  0
 32 31  1  0  0  0  0
 33 25  2  0  0  0  0
M  END
>  <minimizedAffinity>
-5.60122681

$$$$

 OpenBabel03242512193D

 33 35  0  0  0  0  0  0  0  0999 V2000
   38.4900   29.1930   42.7290 C   0  0  0  0  0  0  0  0  0  0  0  0
   39.6240   29.9480   42.5680 C   0  0  0  0  0  0  0  0  0  0  0  0
   40.8510   29.3290   42.6160 C   0  0  0  0  0  0  0  0  0  0  0  0
   40.9100   27.9590   42.8240 C   0  0  0  0  0  0  0  0  0  0  0  0
   39.7470   27.2460   42.9780 C   0  0  0  0  0  0  0  0  0  0  0  0
   38.4810   27.8430   42.9360 C   0  0  0  0  0  0  0  0  0  0  0  0
   41.7220   29.9490   42.4870 H   0  0  0  0  0  0  0  0  0  0  0  0
   41.8820   27.4860   42.8590 H   0  0  0  0  0  0  0  0  0  0  0  0
   39.8220   26.1790   43.1390 H   0  0  0  0  0  0  0  0  0  0  0  0
   39.4070   31.3980   42.3510 C   0  0  0  0  0  0  0  0  0  0  0  0
   40.2410   32.0070   42.6510 H   0  0  0  0  0  0  0  0  0  0  0  0
   38.5550   31.7140   43.0230 H   0  0  0  0  0  0  0  0  0  0  0  0
   38.9370   31.6390   40.9400 C   0  0  0  0  0  0  0  0  0  0  0  0
   39.8630   31.4660   39.9250 C   0  0  0  0  0  0  0  0  0  0  0  0
   39.4430   31.6790   38.6090 C   0  0  0  0  0  0  0  0  0  0  0  0
   38.1580   32.0400   38.4080 N   0  0  0  0  0  0  0  0  0  0  0  0
   37.2790   32.2010   39.4210 C   0  0  0  0  0  0  0  0  0  0  0  0
   37.6720   32.0000   40.6760 N   0  0  0  0  0  0  0  0  0  0  0  0
   40.8950   31.1750   40.0860 H   0  0  0  0  0  0  0  0  0  0  0  0
   40.1180   31.5610   37.7600 H   0  0  0  0  0  0  0  0  0  0  0  0
   36.2550   32.4930   39.2110 H   0  0  0  0  0  0  0  0  0  0  0  0
   37.1820   29.7360   42.7000 O   0  0  0  0  0  0  0  0  0  0  0  0
   36.6980   29.6390   43.5950 H   0  0  0  0  0  0  0  0  0  0  0  0
   37.3860   27.0300   43.1010 O   0  0  0  0  0  0  0  0  0  0  0  0
   37.0990   26.0740   42.1430 C   0  0  0  0  0  0  0  0  0  0  0  0
   36.9910   24.7130   42.1870 C   0  0  0  0  0  0  0  0  0  0  0  0
   37.1610   24.3280   43.1810 H   0  0  0  0  0  0  0  0  0  0  0  0
   36.6880   23.9960   41.0490 C   0  0  0  0  0  3  0  0  0  0  0  0
   36.4820   24.6030   39.8270 C   0  0  0  0  0  0  0  0  0  0  0  0
   36.2440   23.9810   38.9580 H   0  0  0  0  0  0  0  0  0  0  0  0
   36.5880   25.9670   39.7680 C   0  0  0  0  0  0  0  0  0  0  0  0
   36.4180   26.3980   38.7900 H   0  0  0  0  0  0  0  0  0  0  0  0
   36.8950   26.7110   40.9130 C   0  0  0  0  0  3  0  0  0  0  0  0
  1  6  1  0  0  0  0
  2  3  1  0  0  0  0
  2  1  2  0  0  0  0
  3  4  2  0  0  0  0
  4  8  1  0  0  0  0
  4  5  1  0  0  0  0
  5  9  1  0  0  0  0
  6  5  2  0  0  0  0
  6 24  1  0  0  0  0
  7  3  1  0  0  0  0
 10  2  1  0  0  0  0
 10 11  1  0  0  0  0
 10 12  1  0  0  0  0
 13 10  1  0  0  0  0
 14 19  1  0  0  0  0
 14 13  2  0  0  0  0
 15 14  1  0  0  0  0
 16 15  2  0  0  0  0
 16 17  1  0  0  0  0
 17 18  2  0  0  0  0
 18 13  1  0  0  0  0
 20 15  1  0  0  0  0
 21 17  1  0  0  0  0
 22  1  1  0  0  0  0
 22 23  1  0  0  0  0
 25 26  1  0  0  0  0
 25 24  1  0  0  0  0
 26 27  1  0  0  0  0
 28 26  2  0  0  0  0
 29 28  1  0  0  0  0
 30 29  1  0  0  0  0
 31 29  2  0  0  0  0
 31 33  1  0  0  0  0
 32 31  1  0  0  0  0
 33 25  2  0  0  0  0
M  END
>  <minimizedAffinity>
-5.48438406

$$$$

 OpenBabel03242512193D

 33 35  0  0  0  0  0  0  0  0999 V2000
   37.4320   29.8810   41.7680 C   0  0  0  0  0  0  0  0  0  0  0  0
   37.3880   30.7830   40.7340 C   0  0  0  0  0  0  0  0  0  0  0  0
   36.5060   30.5710   39.7000 C   0  0  0  0  0  0  0  0  0  0  0  0
   35.6850   29.4540   39.7290 C   0  0  0  0  0  0  0  0  0  0  0  0
   35.7650   28.5810   40.7860 C   0  0  0  0  0  0  0  0  0  0  0  0
   36.6510   28.7640   41.8560 C   0  0  0  0  0  0  0  0  0  0  0  0
   36.4960   31.2960   38.9040 H   0  0  0  0  0  0  0  0  0  0  0  0
   34.9970   29.3000   38.9100 H   0  0  0  0  0  0  0  0  0  0  0  0
   35.1130   27.7180   40.7840 H   0  0  0  0  0  0  0  0  0  0  0  0
   38.3210   31.9300   40.8400 C   0  0  0  0  0  0  0  0  0  0  0  0
   38.6440   32.1290   41.8470 H   0  0  0  0  0  0  0  0  0  0  0  0
   37.7520   32.8540   40.5260 H   0  0  0  0  0  0  0  0  0  0  0  0
   39.4420   31.7710   39.8470 C   0  0  0  0  0  0  0  0  0  0  0  0
   40.5310   31.0090   40.2360 C   0  0  0  0  0  0  0  0  0  0  0  0
   41.5780   30.8460   39.3240 C   0  0  0  0  0  0  0  0  0  0  0  0
   41.4630   31.4410   38.1180 N   0  0  0  0  0  0  0  0  0  0  0  0
   40.3860   32.1790   37.7690 C   0  0  0  0  0  0  0  0  0  0  0  0
   39.3860   32.3380   38.6320 N   0  0  0  0  0  0  0  0  0  0  0  0
   40.6240   30.5300   41.2040 H   0  0  0  0  0  0  0  0  0  0  0  0
   42.4660   30.2580   39.5620 H   0  0  0  0  0  0  0  0  0  0  0  0
   40.3380   32.6390   36.7880 H   0  0  0  0  0  0  0  0  0  0  0  0
   38.3060   30.0080   42.8750 O   0  0  0  0  0  0  0  0  0  0  0  0
   38.9880   29.2480   42.9250 H   0  0  0  0  0  0  0  0  0  0  0  0
   36.6430   27.8270   42.8600 O   0  0  0  0  0  0  0  0  0  0  0  0
   37.5600   26.7910   42.8290 C   0  0  0  0  0  0  0  0  0  0  0  0
   38.8680   26.6930   43.2110 C   0  0  0  0  0  0  0  0  0  0  0  0
   39.2380   27.6200   43.6220 H   0  0  0  0  0  0  0  0  0  0  0  0
   39.5560   25.5070   43.0600 C   0  0  0  0  0  3  0  0  0  0  0  0
   38.9710   24.3780   42.5240 C   0  0  0  0  0  0  0  0  0  0  0  0
   39.5670   23.4650   42.4290 H   0  0  0  0  0  0  0  0  0  0  0  0
   37.6600   24.4630   42.1370 C   0  0  0  0  0  0  0  0  0  0  0  0
   37.2450   23.5530   41.7230 H   0  0  0  0  0  0  0  0  0  0  0  0
   36.9460   25.6580   42.2830 C   0  0  0  0  0  3  0  0  0  0  0  0
  1  6  1  0  0  0  0
  1 22  1  0  0  0  0
  2 10  1  0  0  0  0
  2  1  2  0  0  0  0
  3  4  2  0  0  0  0
  3  2  1  0  0  0  0
  4  5  1  0  0  0  0
  5  6  2  0  0  0  0
  6 24  1  0  0  0  0
  7  3  1  0  0  0  0
  8  4  1  0  0  0  0
  9  5  1  0  0  0  0
 10 11  1  0  0  0  0
 12 10  1  0  0  0  0
 13 14  1  0  0  0  0
 13 10  1  0  0  0  0
 14 19  1  0  0  0  0
 15 20  1  0  0  0  0
 15 14  2  0  0  0  0
 16 15  1  0  0  0  0
 17 16  2  0  0  0  0
 17 18  1  0  0  0  0
 18 13  2  0  0  0  0
 21 17  1  0  0  0  0
 22 23  1  0  0  0  0
 25 24  1  0  0  0  0
 25 26  1  0  0  0  0
 26 27  1  0  0  0  0
 28 26  2  0  0  0  0
 29 28  1  0  0  0  0
 30 29  1  0  0  0  0
 31 33  1  0  0  0  0
 31 29  2  0  0  0  0
 32 31  1  0  0  0  0
 33 25  2  0  0  0  0
M  END
>  <minimizedAffinity>
-5.37576532

$$$$

 OpenBabel03242512193D

 33 35  0  0  0  0  0  0  0  0999 V2000
   35.1770   29.5480   39.2440 C   0  0  0  0  0  0  0  0  0  0  0  0
   36.2960   30.2130   39.6770 C   0  0  0  0  0  0  0  0  0  0  0  0
   37.2870   30.5130   38.7710 C   0  0  0  0  0  0  0  0  0  0  0  0
   37.1300   30.1340   37.4460 C   0  0  0  0  0  0  0  0  0  0  0  0
   35.9910   29.4710   37.0610 C   0  0  0  0  0  0  0  0  0  0  0  0
   34.9620   29.1500   37.9550 C   0  0  0  0  0  0  0  0  0  0  0  0
   38.1520   31.0350   39.1420 H   0  0  0  0  0  0  0  0  0  0  0  0
   37.9180   30.3770   36.7460 H   0  0  0  0  0  0  0  0  0  0  0  0
   35.8950   29.1880   36.0220 H   0  0  0  0  0  0  0  0  0  0  0  0
   36.3240   30.5560   41.1180 C   0  0  0  0  0  0  0  0  0  0  0  0
   35.3590   30.8200   41.5160 H   0  0  0  0  0  0  0  0  0  0  0  0
   36.9510   31.4890   41.2280 H   0  0  0  0  0  0  0  0  0  0  0  0
   37.0400   29.4770   41.8860 C   0  0  0  0  0  0  0  0  0  0  0  0
   38.3260   29.7530   42.3200 C   0  0  0  0  0  0  0  0  0  0  0  0
   39.0030   28.7650   43.0390 C   0  0  0  0  0  0  0  0  0  0  0  0
   38.3610   27.6000   43.2700 N   0  0  0  0  0  0  0  0  0  0  0  0
   37.1050   27.3620   42.8330 C   0  0  0  0  0  0  0  0  0  0  0  0
   36.4540   28.2980   42.1470 N   0  0  0  0  0  0  0  0  0  0  0  0
   38.8420   30.6880   42.1350 H   0  0  0  0  0  0  0  0  0  0  0  0
   40.0180   28.9120   43.4120 H   0  0  0  0  0  0  0  0  0  0  0  0
   36.6280   26.4090   43.0420 H   0  0  0  0  0  0  0  0  0  0  0  0
   34.1040   29.1920   40.0970 O   0  0  0  0  0  0  0  0  0  0  0  0
   33.9890   28.1790   40.1800 H   0  0  0  0  0  0  0  0  0  0  0  0
   33.8680   28.4850   37.4570 O   0  0  0  0  0  0  0  0  0  0  0  0
   32.8130   29.2110   36.9320 C   0  0  0  0  0  0  0  0  0  0  0  0
   31.7250   29.8130   37.4950 C   0  0  0  0  0  0  0  0  0  0  0  0
   31.7070   29.6920   38.5670 H   0  0  0  0  0  0  0  0  0  0  0  0
   30.8100   30.4830   36.7100 C   0  0  0  0  0  3  0  0  0  0  0  0
   30.9420   30.5780   35.3400 C   0  0  0  0  0  0  0  0  0  0  0  0
   30.1840   31.1240   34.7690 H   0  0  0  0  0  0  0  0  0  0  0  0
   32.0290   29.9780   34.7620 C   0  0  0  0  0  0  0  0  0  0  0  0
   32.0900   30.0790   33.6870 H   0  0  0  0  0  0  0  0  0  0  0  0
   32.9670   29.2940   35.5420 C   0  0  0  0  0  3  0  0  0  0  0  0
  1  2  1  0  0  0  0
  1 22  1  0  0  0  0
  2 10  1  0  0  0  0
  3  7  1  0  0  0  0
  3  2  2  0  0  0  0
  4  3  1  0  0  0  0
  5  4  2  0  0  0  0
  5  6  1  0  0  0  0
  6  1  2  0  0  0  0
  8  4  1  0  0  0  0
  9  5  1  0  0  0  0
 10 12  1  0  0  0  0
 10 11  1  0  0  0  0
 10 13  1  0  0  0  0
 13 18  2  0  0  0  0
 13 14  1  0  0  0  0
 14 15  2  0  0  0  0
 15 16  1  0  0  0  0
 15 20  1  0  0  0  0
 17 21  1  0  0  0  0
 17 16  2  0  0  0  0
 18 17  1  0  0  0  0
 19 14  1  0  0  0  0
 22 23  1  0  0  0  0
 24  6  1  0  0  0  0
 25 24  1  0  0  0  0
 25 26  1  0  0  0  0
 26 27  1  0  0  0  0
 28 26  2  0  0  0  0
 29 28  1  0  0  0  0
 30 29  1  0  0  0  0
 31 29  2  0  0  0  0
 31 33  1  0  0  0  0
 32 31  1  0  0  0  0
 33 25  2  0  0  0  0
M  END
>  <minimizedAffinity>
-5.3503294

$$$$
