
 OpenBabel03242518533D

 39 41  0  0  1  0  0  0  0  0999 V2000
   38.7310   27.9580   41.3970 C   0  0  2  0  0  0  0  0  0  0  0  0
   39.3980   27.6170   42.7220 C   0  0  0  0  0  0  0  0  0  0  0  0
   38.2720   27.4590   43.6800 C   0  0  0  0  0  0  0  0  0  0  0  0
   36.8790   27.3870   43.1340 C   0  0  0  0  0  0  0  0  0  0  0  0
   36.9680   26.3640   42.0190 C   0  0  0  0  0  0  0  0  0  0  0  0
   37.7540   26.9750   40.9590 C   0  0  1  0  0  0  0  0  0  0  0  0
   38.1990   28.8940   41.7480 H   0  0  0  0  0  0  0  0  0  0  0  0
   40.1150   28.4220   42.9800 H   0  0  0  0  0  0  0  0  0  0  0  0
   39.9560   26.6580   42.6240 H   0  0  0  0  0  0  0  0  0  0  0  0
   38.2900   28.3750   44.3400 H   0  0  0  0  0  0  0  0  0  0  0  0
   38.4460   26.6020   44.3580 H   0  0  0  0  0  0  0  0  0  0  0  0
   36.4690   28.3530   42.7880 H   0  0  0  0  0  0  0  0  0  0  0  0
   36.2520   26.9390   43.9330 H   0  0  0  0  0  0  0  0  0  0  0  0
   35.9430   26.0550   41.8760 H   0  0  0  0  0  0  0  0  0  0  0  0
   37.4280   25.4890   42.5800 H   0  0  0  0  0  0  0  0  0  0  0  0
   38.0990   25.9820   40.6090 H   0  0  0  0  0  0  0  0  0  0  0  0
   36.6300   27.6160   40.2070 C   0  0  0  0  0  0  0  0  0  0  0  0
   36.2360   27.2250   38.9460 C   0  0  0  0  0  0  0  0  0  0  0  0
   36.7180   26.4080   38.4420 H   0  0  0  0  0  0  0  0  0  0  0  0
   35.2180   27.8050   38.2200 C   0  0  0  0  0  3  0  0  0  0  0  0
   34.5240   28.8470   38.7520 C   0  0  0  0  0  0  0  0  0  0  0  0
   33.7270   29.3130   38.2020 H   0  0  0  0  0  0  0  0  0  0  0  0
   34.8640   29.2850   39.9970 C   0  0  0  0  0  0  0  0  0  0  0  0
   34.2950   30.1160   40.3970 H   0  0  0  0  0  0  0  0  0  0  0  0
   35.8890   28.6740   40.6870 C   0  0  0  0  0  3  0  0  0  0  0  0
   39.6670   28.3570   40.3480 C   0  0  0  0  0  0  0  0  0  0  0  0
   40.4230   27.5320   39.7630 O   0  0  0  0  0  0  0  0  0  0  0  0
   40.9640   31.5640   39.1820 C   0  0  0  0  0  0  0  0  0  0  0  0
   39.8550   32.4400   39.2450 C   0  0  0  0  0  0  0  0  0  0  0  0
   38.6580   31.8790   39.6950 C   0  0  0  0  0  0  0  0  0  0  0  0
   38.7000   30.5790   40.0140 N   0  0  0  0  0  0  0  0  0  0  0  0
   39.7320   29.7720   39.9510 C   0  0  0  0  0  0  0  0  0  0  0  0
   40.9000   30.2910   39.5190 N   0  0  0  0  0  0  0  0  0  0  0  0
   41.8950   31.9650   38.8430 H   0  0  0  0  0  0  0  0  0  0  0  0
   39.8800   33.4850   38.9760 H   0  0  0  0  0  0  0  0  0  0  0  0
   37.4860   32.7590   39.7360 C   0  0  0  0  0  0  0  0  0  0  0  0
   36.5170   32.2080   40.5550 F   0  0  0  0  0  0  0  0  0  0  0  0
   36.9040   32.6270   38.4700 F   0  0  0  0  0  0  0  0  0  0  0  0
   37.7680   34.0310   40.0580 F   0  0  0  0  0  0  0  0  0  0  0  0
  1  7  1  1  0  0  0
  1  2  1  0  0  0  0
  2  8  1  0  0  0  0
  2  3  1  0  0  0  0
  3 10  1  0  0  0  0
  3 11  1  0  0  0  0
  4  3  1  0  0  0  0
  4 13  1  0  0  0  0
  5 15  1  0  0  0  0
  5  4  1  0  0  0  0
  6 16  1  6  0  0  0
  6  1  1  0  0  0  0
  6  5  1  0  0  0  0
  9  2  1  0  0  0  0
 12  4  1  0  0  0  0
 14  5  1  0  0  0  0
 17 25  1  0  0  0  0
 17  6  1  0  0  0  0
 18 17  2  0  0  0  0
 19 18  1  0  0  0  0
 20 21  2  0  0  0  0
 20 18  1  0  0  0  0
 21 23  1  0  0  0  0
 22 21  1  0  0  0  0
 23 24  1  0  0  0  0
 23 25  2  0  0  0  0
 26  1  1  0  0  0  0
 27 26  2  0  0  0  0
 28 29  2  0  0  0  0
 28 33  1  0  0  0  0
 29 30  1  0  0  0  0
 30 36  1  0  0  0  0
 30 31  2  0  0  0  0
 32 31  1  0  0  0  0
 32 26  1  0  0  0  0
 33 32  2  0  0  0  0
 34 28  1  0  0  0  0
 35 29  1  0  0  0  0
 36 39  1  0  0  0  0
 36 37  1  0  0  0  0
 38 36  1  0  0  0  0
M  END
>  <minimizedAffinity>
-6.00575209

$$$$

 OpenBabel03242518533D

 39 41  0  0  1  0  0  0  0  0999 V2000
   38.0890   26.7090   42.6960 C   0  0  2  0  0  0  0  0  0  0  0  0
   39.2250   26.9490   43.6800 C   0  0  0  0  0  0  0  0  0  0  0  0
   40.1100   25.7650   43.5280 C   0  0  0  0  0  0  0  0  0  0  0  0
   39.8770   24.8470   42.3670 C   0  0  0  0  0  0  0  0  0  0  0  0
   39.7750   25.7740   41.1730 C   0  0  0  0  0  0  0  0  0  0  0  0
   38.5290   26.5090   41.3250 C   0  0  1  0  0  0  0  0  0  0  0  0
   37.7360   25.7250   43.1310 H   0  0  0  0  0  0  0  0  0  0  0  0
   38.7980   27.0810   44.6940 H   0  0  0  0  0  0  0  0  0  0  0  0
   39.7730   27.8780   43.3990 H   0  0  0  0  0  0  0  0  0  0  0  0
   39.9510   25.1320   44.4500 H   0  0  0  0  0  0  0  0  0  0  0  0
   41.1760   26.0620   43.5530 H   0  0  0  0  0  0  0  0  0  0  0  0
   38.9940   24.1920   42.4690 H   0  0  0  0  0  0  0  0  0  0  0  0
   40.8100   24.2590   42.2400 H   0  0  0  0  0  0  0  0  0  0  0  0
   39.9660   25.1250   40.3320 H   0  0  0  0  0  0  0  0  0  0  0  0
   40.7460   26.3540   41.2800 H   0  0  0  0  0  0  0  0  0  0  0  0
   38.9370   27.3650   40.7520 H   0  0  0  0  0  0  0  0  0  0  0  0
   37.6340   25.5580   40.5950 C   0  0  0  0  0  0  0  0  0  0  0  0
   36.8950   24.5760   41.2190 C   0  0  0  0  0  0  0  0  0  0  0  0
   36.9140   24.4600   42.2860 H   0  0  0  0  0  0  0  0  0  0  0  0
   36.0750   23.6730   40.5740 C   0  0  0  0  0  3  0  0  0  0  0  0
   35.9600   23.7200   39.2200 C   0  0  0  0  0  0  0  0  0  0  0  0
   35.3270   23.0260   38.6990 H   0  0  0  0  0  0  0  0  0  0  0  0
   36.6660   24.6680   38.5410 C   0  0  0  0  0  0  0  0  0  0  0  0
   36.5540   24.6840   37.4630 H   0  0  0  0  0  0  0  0  0  0  0  0
   37.4720   25.5500   39.2260 C   0  0  0  0  0  3  0  0  0  0  0  0
   36.9850   27.6590   42.8200 C   0  0  0  0  0  0  0  0  0  0  0  0
   36.0680   27.5250   43.6780 O   0  0  0  0  0  0  0  0  0  0  0  0
   35.8790   29.9730   40.2230 C   0  0  0  0  0  0  0  0  0  0  0  0
   36.8730   30.9790   40.1950 C   0  0  0  0  0  0  0  0  0  0  0  0
   37.9230   30.8250   41.1040 C   0  0  0  0  0  0  0  0  0  0  0  0
   37.8630   29.7460   41.8940 N   0  0  0  0  0  0  0  0  0  0  0  0
   36.9370   28.8180   41.9160 C   0  0  0  0  0  0  0  0  0  0  0  0
   35.9130   28.9450   41.0470 N   0  0  0  0  0  0  0  0  0  0  0  0
   35.0630   30.0620   39.5380 H   0  0  0  0  0  0  0  0  0  0  0  0
   36.8700   31.8300   39.5320 H   0  0  0  0  0  0  0  0  0  0  0  0
   38.9480   31.8730   41.1180 C   0  0  0  0  0  0  0  0  0  0  0  0
   39.7050   31.7990   39.9620 F   0  0  0  0  0  0  0  0  0  0  0  0
   39.8630   31.4550   42.0900 F   0  0  0  0  0  0  0  0  0  0  0  0
   38.4670   33.1060   41.3390 F   0  0  0  0  0  0  0  0  0  0  0  0
  1 26  1  0  0  0  0
  1  7  1  1  0  0  0
  1  2  1  0  0  0  0
  2  8  1  0  0  0  0
  3 11  1  0  0  0  0
  3  2  1  0  0  0  0
  3 10  1  0  0  0  0
  4 12  1  0  0  0  0
  4  3  1  0  0  0  0
  5 15  1  0  0  0  0
  5  6  1  0  0  0  0
  5  4  1  0  0  0  0
  6 16  1  6  0  0  0
  6  1  1  0  0  0  0
  9  2  1  0  0  0  0
 13  4  1  0  0  0  0
 14  5  1  0  0  0  0
 17 18  1  0  0  0  0
 17  6  1  0  0  0  0
 18 19  1  0  0  0  0
 20 18  2  0  0  0  0
 21 20  1  0  0  0  0
 22 21  1  0  0  0  0
 23 21  2  0  0  0  0
 23 25  1  0  0  0  0
 24 23  1  0  0  0  0
 25 17  2  0  0  0  0
 26 27  2  0  0  0  0
 28 33  1  0  0  0  0
 29 28  2  0  0  0  0
 29 30  1  0  0  0  0
 30 36  1  0  0  0  0
 30 31  2  0  0  0  0
 31 32  1  0  0  0  0
 32 26  1  0  0  0  0
 33 32  2  0  0  0  0
 34 28  1  0  0  0  0
 35 29  1  0  0  0  0
 36 39  1  0  0  0  0
 36 38  1  0  0  0  0
 37 36  1  0  0  0  0
M  END
>  <minimizedAffinity>
-5.98329258

$$$$

 OpenBabel03242518533D

 39 41  0  0  1  0  0  0  0  0999 V2000
   36.1860   29.4970   38.7980 C   0  0  2  0  0  0  0  0  0  0  0  0
   35.7920   28.5520   37.6720 C   0  0  0  0  0  0  0  0  0  0  0  0
   36.3330   29.1870   36.4420 C   0  0  0  0  0  0  0  0  0  0  0  0
   37.2910   30.3290   36.5930 C   0  0  0  0  0  0  0  0  0  0  0  0
   38.3070   29.8330   37.6030 C   0  0  0  0  0  0  0  0  0  0  0  0
   37.6150   29.7530   38.8800 C   0  0  1  0  0  0  0  0  0  0  0  0
   35.6570   30.4160   38.3980 H   0  0  0  0  0  0  0  0  0  0  0  0
   34.6910   28.4250   37.6810 H   0  0  0  0  0  0  0  0  0  0  0  0
   36.2680   27.5580   37.8340 H   0  0  0  0  0  0  0  0  0  0  0  0
   35.4450   29.6100   35.8880 H   0  0  0  0  0  0  0  0  0  0  0  0
   36.7710   28.4280   35.7650 H   0  0  0  0  0  0  0  0  0  0  0  0
   36.8250   31.2830   36.8970 H   0  0  0  0  0  0  0  0  0  0  0  0
   37.8220   30.4240   35.6220 H   0  0  0  0  0  0  0  0  0  0  0  0
   39.1570   30.4790   37.4440 H   0  0  0  0  0  0  0  0  0  0  0  0
   38.6240   28.8580   37.1120 H   0  0  0  0  0  0  0  0  0  0  0  0
   38.2940   28.9480   39.2240 H   0  0  0  0  0  0  0  0  0  0  0  0
   37.8970   31.1420   39.3590 C   0  0  0  0  0  0  0  0  0  0  0  0
   37.0450   32.2060   39.1550 C   0  0  0  0  0  0  0  0  0  0  0  0
   36.1080   32.0770   38.6470 H   0  0  0  0  0  0  0  0  0  0  0  0
   37.2830   33.5000   39.5680 C   0  0  0  0  0  3  0  0  0  0  0  0
   38.4350   33.7920   40.2290 C   0  0  0  0  0  0  0  0  0  0  0  0
   38.6410   34.7940   40.5590 H   0  0  0  0  0  0  0  0  0  0  0  0
   39.3230   32.7840   40.4630 C   0  0  0  0  0  0  0  0  0  0  0  0
   40.2320   33.0440   40.9930 H   0  0  0  0  0  0  0  0  0  0  0  0
   39.0430   31.5050   40.0330 C   0  0  0  0  0  3  0  0  0  0  0  0
   35.5780   29.1720   40.0860 C   0  0  0  0  0  0  0  0  0  0  0  0
   34.3610   29.3950   40.3370 O   0  0  0  0  0  0  0  0  0  0  0  0
   37.6880   28.7840   43.0390 C   0  0  0  0  0  0  0  0  0  0  0  0
   38.0030   27.4060   43.0740 C   0  0  0  0  0  0  0  0  0  0  0  0
   37.4570   26.6290   42.0500 C   0  0  0  0  0  0  0  0  0  0  0  0
   36.6990   27.2800   41.1570 N   0  0  0  0  0  0  0  0  0  0  0  0
   36.4100   28.5590   41.1330 C   0  0  0  0  0  0  0  0  0  0  0  0
   36.9260   29.3300   42.1120 N   0  0  0  0  0  0  0  0  0  0  0  0
   38.0930   29.4060   43.8100 H   0  0  0  0  0  0  0  0  0  0  0  0
   38.6230   26.9350   43.8200 H   0  0  0  0  0  0  0  0  0  0  0  0
   37.7410   25.1920   42.0830 C   0  0  0  0  0  0  0  0  0  0  0  0
   38.8230   24.9490   42.9100 F   0  0  0  0  0  0  0  0  0  0  0  0
   38.2730   24.9100   40.8200 F   0  0  0  0  0  0  0  0  0  0  0  0
   36.6790   24.4310   42.3920 F   0  0  0  0  0  0  0  0  0  0  0  0
  1  7  1  6  0  0  0
  1  6  1  0  0  0  0
  1 26  1  0  0  0  0
  2  8  1  0  0  0  0
  2  9  1  0  0  0  0
  2  1  1  0  0  0  0
  3  4  1  0  0  0  0
  3  2  1  0  0  0  0
  4 12  1  0  0  0  0
  4  5  1  0  0  0  0
  5  6  1  0  0  0  0
  6 16  1  1  0  0  0
  6 17  1  0  0  0  0
 10  3  1  0  0  0  0
 11  3  1  0  0  0  0
 13  4  1  0  0  0  0
 14  5  1  0  0  0  0
 15  5  1  0  0  0  0
 17 25  1  0  0  0  0
 18 17  2  0  0  0  0
 18 20  1  0  0  0  0
 19 18  1  0  0  0  0
 20 21  2  0  0  0  0
 21 23  1  0  0  0  0
 21 22  1  0  0  0  0
 23 24  1  0  0  0  0
 25 23  2  0  0  0  0
 26 27  2  0  0  0  0
 26 32  1  0  0  0  0
 28 29  1  0  0  0  0
 28 34  1  0  0  0  0
 29 35  1  0  0  0  0
 30 36  1  0  0  0  0
 30 29  2  0  0  0  0
 31 30  1  0  0  0  0
 32 31  2  0  0  0  0
 32 33  1  0  0  0  0
 33 28  2  0  0  0  0
 36 39  1  0  0  0  0
 36 37  1  0  0  0  0
 38 36  1  0  0  0  0
M  END
>  <minimizedAffinity>
-5.97895527

$$$$

 OpenBabel03242518533D

 39 41  0  0  1  0  0  0  0  0999 V2000
   36.9870   30.5850   39.7860 C   0  0  2  0  0  0  0  0  0  0  0  0
   36.9330   31.9860   40.3780 C   0  0  0  0  0  0  0  0  0  0  0  0
   37.9920   32.7400   39.6570 C   0  0  0  0  0  0  0  0  0  0  0  0
   38.6080   32.1150   38.4420 C   0  0  0  0  0  0  0  0  0  0  0  0
   37.4220   31.6550   37.6170 C   0  0  0  0  0  0  0  0  0  0  0  0
   36.8190   30.5480   38.3420 C   0  0  1  0  0  0  0  0  0  0  0  0
   38.0670   30.3660   40.0490 H   0  0  0  0  0  0  0  0  0  0  0  0
   37.0800   31.9170   41.4740 H   0  0  0  0  0  0  0  0  0  0  0  0
   35.9350   32.4390   40.1780 H   0  0  0  0  0  0  0  0  0  0  0  0
   38.8400   32.8720   40.3910 H   0  0  0  0  0  0  0  0  0  0  0  0
   37.6510   33.7640   39.4110 H   0  0  0  0  0  0  0  0  0  0  0  0
   39.3170   31.2960   38.6560 H   0  0  0  0  0  0  0  0  0  0  0  0
   39.0940   32.9390   37.8780 H   0  0  0  0  0  0  0  0  0  0  0  0
   37.8330   31.5430   36.6250 H   0  0  0  0  0  0  0  0  0  0  0  0
   36.8330   32.6250   37.5480 H   0  0  0  0  0  0  0  0  0  0  0  0
   35.8260   30.7710   37.9030 H   0  0  0  0  0  0  0  0  0  0  0  0
   37.6100   29.4380   37.7260 C   0  0  0  0  0  0  0  0  0  0  0  0
   37.3480   28.9200   36.4760 C   0  0  0  0  0  0  0  0  0  0  0  0
   36.5580   29.3130   35.8660 H   0  0  0  0  0  0  0  0  0  0  0  0
   38.0450   27.8860   35.8860 C   0  0  0  0  0  3  0  0  0  0  0  0
   39.0760   27.3050   36.5560 C   0  0  0  0  0  0  0  0  0  0  0  0
   39.6320   26.4980   36.1150 H   0  0  0  0  0  0  0  0  0  0  0  0
   39.3870   27.7700   37.7990 C   0  0  0  0  0  0  0  0  0  0  0  0
   40.2140   27.2900   38.3100 H   0  0  0  0  0  0  0  0  0  0  0  0
   38.6640   28.8060   38.3490 C   0  0  0  0  0  3  0  0  0  0  0  0
   36.1600   29.6100   40.4930 C   0  0  0  0  0  0  0  0  0  0  0  0
   34.9270   29.4700   40.2600 O   0  0  0  0  0  0  0  0  0  0  0  0
   37.8770   28.5470   43.5340 C   0  0  0  0  0  0  0  0  0  0  0  0
   37.9870   27.1420   43.4080 C   0  0  0  0  0  0  0  0  0  0  0  0
   37.4450   26.5890   42.2460 C   0  0  0  0  0  0  0  0  0  0  0  0
   36.8840   27.4520   41.3890 N   0  0  0  0  0  0  0  0  0  0  0  0
   36.7840   28.7530   41.5130 C   0  0  0  0  0  0  0  0  0  0  0  0
   37.3000   29.3120   42.6280 N   0  0  0  0  0  0  0  0  0  0  0  0
   38.2840   29.0000   44.4120 H   0  0  0  0  0  0  0  0  0  0  0  0
   38.4540   26.4940   44.1330 H   0  0  0  0  0  0  0  0  0  0  0  0
   37.5170   25.1310   42.1090 C   0  0  0  0  0  0  0  0  0  0  0  0
   38.5880   24.6470   42.8370 F   0  0  0  0  0  0  0  0  0  0  0  0
   37.9450   24.9240   40.7930 F   0  0  0  0  0  0  0  0  0  0  0  0
   36.3700   24.4970   42.3980 F   0  0  0  0  0  0  0  0  0  0  0  0
  1  7  1  1  0  0  0
  1  2  1  0  0  0  0
  1 26  1  0  0  0  0
  2  8  1  0  0  0  0
  3  2  1  0  0  0  0
  3 10  1  0  0  0  0
  4 12  1  0  0  0  0
  4  3  1  0  0  0  0
  5  6  1  0  0  0  0
  5  4  1  0  0  0  0
  6 16  1  6  0  0  0
  6  1  1  0  0  0  0
  9  2  1  0  0  0  0
 11  3  1  0  0  0  0
 13  4  1  0  0  0  0
 14  5  1  0  0  0  0
 15  5  1  0  0  0  0
 17  6  1  0  0  0  0
 17 25  1  0  0  0  0
 18 17  2  0  0  0  0
 19 18  1  0  0  0  0
 20 18  1  0  0  0  0
 20 21  2  0  0  0  0
 21 23  1  0  0  0  0
 22 21  1  0  0  0  0
 23 24  1  0  0  0  0
 23 25  2  0  0  0  0
 26 32  1  0  0  0  0
 27 26  2  0  0  0  0
 28 34  1  0  0  0  0
 29 28  1  0  0  0  0
 29 35  1  0  0  0  0
 30 29  2  0  0  0  0
 31 32  2  0  0  0  0
 31 30  1  0  0  0  0
 32 33  1  0  0  0  0
 33 28  2  0  0  0  0
 36 30  1  0  0  0  0
 36 39  1  0  0  0  0
 36 37  1  0  0  0  0
 38 36  1  0  0  0  0
M  END
>  <minimizedAffinity>
-5.90204239

$$$$

 OpenBabel03242518533D

 39 41  0  0  1  0  0  0  0  0999 V2000
   37.6910   26.2970   42.1920 C   0  0  2  0  0  0  0  0  0  0  0  0
   36.9600   24.9760   42.0050 C   0  0  0  0  0  0  0  0  0  0  0  0
   37.9570   24.0820   41.3610 C   0  0  0  0  0  0  0  0  0  0  0  0
   39.3860   24.5300   41.3110 C   0  0  0  0  0  0  0  0  0  0  0  0
   39.6880   24.9710   42.7300 C   0  0  0  0  0  0  0  0  0  0  0  0
   38.9220   26.1870   42.9560 C   0  0  1  0  0  0  0  0  0  0  0  0
   37.9350   26.4750   41.1000 H   0  0  0  0  0  0  0  0  0  0  0  0
   36.0440   25.1550   41.4060 H   0  0  0  0  0  0  0  0  0  0  0  0
   36.6630   24.5680   42.9980 H   0  0  0  0  0  0  0  0  0  0  0  0
   37.6370   23.9770   40.2830 H   0  0  0  0  0  0  0  0  0  0  0  0
   37.9060   23.0610   41.7850 H   0  0  0  0  0  0  0  0  0  0  0  0
   39.5950   25.3210   40.5700 H   0  0  0  0  0  0  0  0  0  0  0  0
   39.9940   23.6200   41.1210 H   0  0  0  0  0  0  0  0  0  0  0  0
   40.7660   24.9470   42.7780 H   0  0  0  0  0  0  0  0  0  0  0  0
   39.3810   24.0390   43.3040 H   0  0  0  0  0  0  0  0  0  0  0  0
   38.8720   25.9810   44.0440 H   0  0  0  0  0  0  0  0  0  0  0  0
   39.9490   27.1710   42.4900 C   0  0  0  0  0  0  0  0  0  0  0  0
   40.7210   27.9280   43.3440 C   0  0  0  0  0  0  0  0  0  0  0  0
   40.6310   27.8290   44.4090 H   0  0  0  0  0  0  0  0  0  0  0  0
   41.6610   28.8550   42.9470 C   0  0  0  0  0  3  0  0  0  0  0  0
   41.8740   29.0700   41.6210 C   0  0  0  0  0  0  0  0  0  0  0  0
   42.6020   29.7880   41.2910 H   0  0  0  0  0  0  0  0  0  0  0  0
   41.1410   28.3530   40.7220 C   0  0  0  0  0  0  0  0  0  0  0  0
   41.3320   28.5430   39.6720 H   0  0  0  0  0  0  0  0  0  0  0  0
   40.2130   27.4370   41.1640 C   0  0  0  0  0  3  0  0  0  0  0  0
   36.8310   27.3950   42.6290 C   0  0  0  0  0  0  0  0  0  0  0  0
   36.1330   27.3320   43.6800 O   0  0  0  0  0  0  0  0  0  0  0  0
   35.6840   29.9240   40.2600 C   0  0  0  0  0  0  0  0  0  0  0  0
   36.6950   30.9120   40.2770 C   0  0  0  0  0  0  0  0  0  0  0  0
   37.7710   30.6710   41.1350 C   0  0  0  0  0  0  0  0  0  0  0  0
   37.7170   29.5340   41.8400 N   0  0  0  0  0  0  0  0  0  0  0  0
   36.7750   28.6220   41.8210 C   0  0  0  0  0  0  0  0  0  0  0  0
   35.7250   28.8330   40.9990 N   0  0  0  0  0  0  0  0  0  0  0  0
   34.8480   30.0790   39.6110 H   0  0  0  0  0  0  0  0  0  0  0  0
   36.6860   31.8120   39.6820 H   0  0  0  0  0  0  0  0  0  0  0  0
   38.8150   31.6980   41.1960 C   0  0  0  0  0  0  0  0  0  0  0  0
   39.7990   31.4180   40.2640 F   0  0  0  0  0  0  0  0  0  0  0  0
   39.4800   31.4500   42.4020 F   0  0  0  0  0  0  0  0  0  0  0  0
   38.3540   32.9540   41.0940 F   0  0  0  0  0  0  0  0  0  0  0  0
  1  7  1  6  0  0  0
  1 26  1  0  0  0  0
  1  6  1  0  0  0  0
  2  1  1  0  0  0  0
  2  9  1  0  0  0  0
  3 11  1  0  0  0  0
  3  2  1  0  0  0  0
  4  3  1  0  0  0  0
  4  5  1  0  0  0  0
  5 14  1  0  0  0  0
  5  6  1  0  0  0  0
  5 15  1  0  0  0  0
  6 16  1  1  0  0  0
  8  2  1  0  0  0  0
 10  3  1  0  0  0  0
 12  4  1  0  0  0  0
 13  4  1  0  0  0  0
 17  6  1  0  0  0  0
 17 18  1  0  0  0  0
 18 19  1  0  0  0  0
 20 18  2  0  0  0  0
 21 20  1  0  0  0  0
 22 21  1  0  0  0  0
 23 25  1  0  0  0  0
 23 21  2  0  0  0  0
 24 23  1  0  0  0  0
 25 17  2  0  0  0  0
 26 27  2  0  0  0  0
 28 29  2  0  0  0  0
 28 33  1  0  0  0  0
 29 30  1  0  0  0  0
 30 36  1  0  0  0  0
 30 31  2  0  0  0  0
 32 31  1  0  0  0  0
 32 26  1  0  0  0  0
 33 32  2  0  0  0  0
 34 28  1  0  0  0  0
 35 29  1  0  0  0  0
 36 38  1  0  0  0  0
 37 36  1  0  0  0  0
 39 36  1  0  0  0  0
M  END
>  <minimizedAffinity>
-5.87987804

$$$$

 OpenBabel03242518533D

 39 41  0  0  1  0  0  0  0  0999 V2000
   38.7620   30.4210   39.5890 C   0  0  2  0  0  0  0  0  0  0  0  0
   39.7110   31.5750   39.8760 C   0  0  0  0  0  0  0  0  0  0  0  0
   38.9330   32.7950   39.5380 C   0  0  0  0  0  0  0  0  0  0  0  0
   37.4600   32.6560   39.3000 C   0  0  0  0  0  0  0  0  0  0  0  0
   36.9670   31.8420   40.4800 C   0  0  0  0  0  0  0  0  0  0  0  0
   37.5020   30.5010   40.3100 C   0  0  1  0  0  0  0  0  0  0  0  0
   38.5890   30.6530   38.4940 H   0  0  0  0  0  0  0  0  0  0  0  0
   40.6350   31.4350   39.2780 H   0  0  0  0  0  0  0  0  0  0  0  0
   39.9810   31.5780   40.9560 H   0  0  0  0  0  0  0  0  0  0  0  0
   39.3600   33.1830   38.5670 H   0  0  0  0  0  0  0  0  0  0  0  0
   39.1110   33.5960   40.2810 H   0  0  0  0  0  0  0  0  0  0  0  0
   37.1920   32.1990   38.3310 H   0  0  0  0  0  0  0  0  0  0  0  0
   37.0270   33.6730   39.4060 H   0  0  0  0  0  0  0  0  0  0  0  0
   35.9070   32.0450   40.5010 H   0  0  0  0  0  0  0  0  0  0  0  0
   37.3690   32.4660   41.3410 H   0  0  0  0  0  0  0  0  0  0  0  0
   37.4890   30.3310   41.4050 H   0  0  0  0  0  0  0  0  0  0  0  0
   36.3750   29.9250   39.5110 C   0  0  0  0  0  0  0  0  0  0  0  0
   36.4170   29.7600   38.1440 C   0  0  0  0  0  0  0  0  0  0  0  0
   37.2910   30.0260   37.5790 H   0  0  0  0  0  0  0  0  0  0  0  0
   35.3910   29.2490   37.3770 C   0  0  0  0  0  3  0  0  0  0  0  0
   34.2320   28.8690   37.9760 C   0  0  0  0  0  0  0  0  0  0  0  0
   33.4190   28.4690   37.3970 H   0  0  0  0  0  0  0  0  0  0  0  0
   34.1240   29.0070   39.3280 C   0  0  0  0  0  0  0  0  0  0  0  0
   33.1890   28.6940   39.7800 H   0  0  0  0  0  0  0  0  0  0  0  0
   35.1750   29.5210   40.0550 C   0  0  0  0  0  3  0  0  0  0  0  0
   39.3900   29.1030   39.6590 C   0  0  0  0  0  0  0  0  0  0  0  0
   40.0560   28.6180   38.7020 O   0  0  0  0  0  0  0  0  0  0  0  0
   39.8660   27.9080   43.0750 C   0  0  0  0  0  0  0  0  0  0  0  0
   39.0030   26.7930   43.1850 C   0  0  0  0  0  0  0  0  0  0  0  0
   38.2570   26.4830   42.0460 C   0  0  0  0  0  0  0  0  0  0  0  0
   38.4470   27.2770   40.9840 N   0  0  0  0  0  0  0  0  0  0  0  0
   39.2480   28.3100   40.8900 C   0  0  0  0  0  0  0  0  0  0  0  0
   39.9790   28.6300   41.9780 N   0  0  0  0  0  0  0  0  0  0  0  0
   40.4520   28.1690   43.9310 H   0  0  0  0  0  0  0  0  0  0  0  0
   38.8920   26.1850   44.0700 H   0  0  0  0  0  0  0  0  0  0  0  0
   37.3300   25.3520   42.1470 C   0  0  0  0  0  0  0  0  0  0  0  0
   36.6170   25.2270   40.9680 F   0  0  0  0  0  0  0  0  0  0  0  0
   36.3420   25.7870   43.0370 F   0  0  0  0  0  0  0  0  0  0  0  0
   37.9090   24.2000   42.5200 F   0  0  0  0  0  0  0  0  0  0  0  0
  1  7  1  6  0  0  0
  1 26  1  0  0  0  0
  1  2  1  0  0  0  0
  1  6  1  0  0  0  0
  2  9  1  0  0  0  0
  3  2  1  0  0  0  0
  3 11  1  0  0  0  0
  4 13  1  0  0  0  0
  4  3  1  0  0  0  0
  4  5  1  0  0  0  0
  5 14  1  0  0  0  0
  5 15  1  0  0  0  0
  6  5  1  0  0  0  0
  6 16  1  1  0  0  0
  8  2  1  0  0  0  0
 10  3  1  0  0  0  0
 12  4  1  0  0  0  0
 17 25  1  0  0  0  0
 17  6  1  0  0  0  0
 18 17  2  0  0  0  0
 19 18  1  0  0  0  0
 20 21  2  0  0  0  0
 20 18  1  0  0  0  0
 21 23  1  0  0  0  0
 22 21  1  0  0  0  0
 23 24  1  0  0  0  0
 23 25  2  0  0  0  0
 26 32  1  0  0  0  0
 27 26  2  0  0  0  0
 28 29  1  0  0  0  0
 28 34  1  0  0  0  0
 29 35  1  0  0  0  0
 30 36  1  0  0  0  0
 30 29  2  0  0  0  0
 31 30  1  0  0  0  0
 32 31  2  0  0  0  0
 32 33  1  0  0  0  0
 33 28  2  0  0  0  0
 36 39  1  0  0  0  0
 36 38  1  0  0  0  0
 37 36  1  0  0  0  0
M  END
>  <minimizedAffinity>
-5.8759346

$$$$

 OpenBabel03242518533D

 39 41  0  0  1  0  0  0  0  0999 V2000
   35.6680   27.3410   37.5920 C   0  0  2  0  0  0  0  0  0  0  0  0
   34.5180   26.4850   37.0810 C   0  0  0  0  0  0  0  0  0  0  0  0
   33.3950   27.4400   36.8880 C   0  0  0  0  0  0  0  0  0  0  0  0
   33.6920   28.9080   36.9480 C   0  0  0  0  0  0  0  0  0  0  0  0
   34.8940   29.0820   36.0410 C   0  0  0  0  0  0  0  0  0  0  0  0
   36.0150   28.4460   36.7140 C   0  0  1  0  0  0  0  0  0  0  0  0
   35.1450   27.7370   38.5150 H   0  0  0  0  0  0  0  0  0  0  0  0
   34.3180   25.6790   37.8150 H   0  0  0  0  0  0  0  0  0  0  0  0
   34.7990   26.0220   36.1080 H   0  0  0  0  0  0  0  0  0  0  0  0
   32.6680   27.2450   37.7290 H   0  0  0  0  0  0  0  0  0  0  0  0
   32.8400   27.2150   35.9580 H   0  0  0  0  0  0  0  0  0  0  0  0
   33.8700   29.3000   37.9650 H   0  0  0  0  0  0  0  0  0  0  0  0
   32.8390   29.4210   36.4560 H   0  0  0  0  0  0  0  0  0  0  0  0
   34.8810   30.1360   35.8050 H   0  0  0  0  0  0  0  0  0  0  0  0
   34.5050   28.5980   35.0900 H   0  0  0  0  0  0  0  0  0  0  0  0
   36.5090   28.2380   35.7440 H   0  0  0  0  0  0  0  0  0  0  0  0
   36.4960   29.6330   37.4890 C   0  0  0  0  0  0  0  0  0  0  0  0
   36.1580   29.8710   38.8040 C   0  0  0  0  0  0  0  0  0  0  0  0
   35.5350   29.1880   39.3490 H   0  0  0  0  0  0  0  0  0  0  0  0
   36.5690   30.9620   39.5410 C   0  0  0  0  0  3  0  0  0  0  0  0
   37.3680   31.8980   38.9630 C   0  0  0  0  0  0  0  0  0  0  0  0
   37.6990   32.7560   39.5200 H   0  0  0  0  0  0  0  0  0  0  0  0
   37.7390   31.7230   37.6630 C   0  0  0  0  0  0  0  0  0  0  0  0
   38.3770   32.4840   37.2290 H   0  0  0  0  0  0  0  0  0  0  0  0
   37.3050   30.6170   36.9660 C   0  0  0  0  0  3  0  0  0  0  0  0
   36.8250   26.5710   38.0440 C   0  0  0  0  0  0  0  0  0  0  0  0
   37.7700   26.2490   37.2710 O   0  0  0  0  0  0  0  0  0  0  0  0
   36.9900   24.4710   41.0250 C   0  0  0  0  0  0  0  0  0  0  0  0
   36.9970   25.3840   42.1040 C   0  0  0  0  0  0  0  0  0  0  0  0
   36.9480   26.7370   41.7600 C   0  0  0  0  0  0  0  0  0  0  0  0
   36.9010   27.0090   40.4500 N   0  0  0  0  0  0  0  0  0  0  0  0
   36.8980   26.1570   39.4540 C   0  0  0  0  0  0  0  0  0  0  0  0
   36.9450   24.8440   39.7610 N   0  0  0  0  0  0  0  0  0  0  0  0
   37.0260   23.4270   41.2570 H   0  0  0  0  0  0  0  0  0  0  0  0
   37.0330   25.1060   43.1460 H   0  0  0  0  0  0  0  0  0  0  0  0
   36.9880   27.7040   42.8610 C   0  0  0  0  0  0  0  0  0  0  0  0
   38.0690   27.4340   43.6790 F   0  0  0  0  0  0  0  0  0  0  0  0
   35.9100   27.3480   43.6790 F   0  0  0  0  0  0  0  0  0  0  0  0
   36.9510   28.9860   42.4650 F   0  0  0  0  0  0  0  0  0  0  0  0
  1 26  1  0  0  0  0
  1  7  1  1  0  0  0
  2  1  1  0  0  0  0
  2  8  1  0  0  0  0
  3  4  1  0  0  0  0
  3  2  1  0  0  0  0
  3 10  1  0  0  0  0
  4 12  1  0  0  0  0
  5  6  1  0  0  0  0
  5  4  1  0  0  0  0
  6 16  1  6  0  0  0
  6 17  1  0  0  0  0
  6  1  1  0  0  0  0
  9  2  1  0  0  0  0
 11  3  1  0  0  0  0
 13  4  1  0  0  0  0
 14  5  1  0  0  0  0
 15  5  1  0  0  0  0
 17 18  1  0  0  0  0
 18 19  1  0  0  0  0
 18 20  2  0  0  0  0
 21 22  1  0  0  0  0
 21 20  1  0  0  0  0
 23 21  2  0  0  0  0
 24 23  1  0  0  0  0
 25 17  2  0  0  0  0
 25 23  1  0  0  0  0
 26 32  1  0  0  0  0
 27 26  2  0  0  0  0
 28 34  1  0  0  0  0
 28 29  1  0  0  0  0
 29 35  1  0  0  0  0
 30 29  2  0  0  0  0
 30 36  1  0  0  0  0
 31 30  1  0  0  0  0
 32 33  1  0  0  0  0
 32 31  2  0  0  0  0
 33 28  2  0  0  0  0
 36 37  1  0  0  0  0
 36 38  1  0  0  0  0
 39 36  1  0  0  0  0
M  END
>  <minimizedAffinity>
-5.79890108

$$$$

 OpenBabel03242518533D

 39 41  0  0  1  0  0  0  0  0999 V2000
   37.0750   26.1690   41.7210 C   0  0  2  0  0  0  0  0  0  0  0  0
   37.1010   24.6920   42.0880 C   0  0  0  0  0  0  0  0  0  0  0  0
   36.5130   24.0020   40.9100 C   0  0  0  0  0  0  0  0  0  0  0  0
   36.3200   24.7870   39.6480 C   0  0  0  0  0  0  0  0  0  0  0  0
   37.6510   25.4800   39.4340 C   0  0  0  0  0  0  0  0  0  0  0  0
   37.7700   26.4800   40.4830 C   0  0  1  0  0  0  0  0  0  0  0  0
   35.9570   26.2510   41.5610 H   0  0  0  0  0  0  0  0  0  0  0  0
   36.5420   24.5490   43.0340 H   0  0  0  0  0  0  0  0  0  0  0  0
   38.1540   24.3620   42.2410 H   0  0  0  0  0  0  0  0  0  0  0  0
   35.4790   23.6730   41.2210 H   0  0  0  0  0  0  0  0  0  0  0  0
   37.0650   23.0700   40.6820 H   0  0  0  0  0  0  0  0  0  0  0  0
   35.4740   25.4960   39.6730 H   0  0  0  0  0  0  0  0  0  0  0  0
   36.2080   24.0440   38.8310 H   0  0  0  0  0  0  0  0  0  0  0  0
   37.6350   25.7390   38.3860 H   0  0  0  0  0  0  0  0  0  0  0  0
   38.3550   24.5890   39.4720 H   0  0  0  0  0  0  0  0  0  0  0  0
   38.8760   26.4190   40.4480 H   0  0  0  0  0  0  0  0  0  0  0  0
   37.1220   27.6200   39.7610 C   0  0  0  0  0  0  0  0  0  0  0  0
   35.9230   28.1800   40.1450 C   0  0  0  0  0  0  0  0  0  0  0  0
   35.3970   27.8280   41.0120 H   0  0  0  0  0  0  0  0  0  0  0  0
   35.2900   29.2180   39.4930 C   0  0  0  0  0  3  0  0  0  0  0  0
   35.8590   29.7570   38.3820 C   0  0  0  0  0  0  0  0  0  0  0  0
   35.3830   30.5660   37.8580 H   0  0  0  0  0  0  0  0  0  0  0  0
   37.0470   29.2480   37.9480 C   0  0  0  0  0  0  0  0  0  0  0  0
   37.4780   29.6970   37.0610 H   0  0  0  0  0  0  0  0  0  0  0  0
   37.6430   28.2110   38.6310 C   0  0  0  0  0  3  0  0  0  0  0  0
   37.4240   27.0610   42.8250 C   0  0  0  0  0  0  0  0  0  0  0  0
   36.5760   27.4480   43.6770 O   0  0  0  0  0  0  0  0  0  0  0  0
   41.0040   27.0960   43.5360 C   0  0  0  0  0  0  0  0  0  0  0  0
   41.4140   28.4150   43.2320 C   0  0  0  0  0  0  0  0  0  0  0  0
   40.4140   29.2750   42.7730 C   0  0  0  0  0  0  0  0  0  0  0  0
   39.1860   28.7500   42.6730 N   0  0  0  0  0  0  0  0  0  0  0  0
   38.8130   27.5250   42.9550 C   0  0  0  0  0  0  0  0  0  0  0  0
   39.7620   26.6750   43.4000 N   0  0  0  0  0  0  0  0  0  0  0  0
   41.7470   26.4150   43.8910 H   0  0  0  0  0  0  0  0  0  0  0  0
   42.4220   28.7860   43.3340 H   0  0  0  0  0  0  0  0  0  0  0  0
   40.8210   30.6380   42.4190 C   0  0  0  0  0  0  0  0  0  0  0  0
   41.7390   31.1050   43.3430 F   0  0  0  0  0  0  0  0  0  0  0  0
   39.6990   31.4250   42.7040 F   0  0  0  0  0  0  0  0  0  0  0  0
   41.2530   30.7700   41.1550 F   0  0  0  0  0  0  0  0  0  0  0  0
  1  7  1  6  0  0  0
  1  2  1  0  0  0  0
  1 26  1  0  0  0  0
  2  9  1  0  0  0  0
  2  8  1  0  0  0  0
  3 10  1  0  0  0  0
  3  2  1  0  0  0  0
  4 12  1  0  0  0  0
  4  3  1  0  0  0  0
  5 15  1  0  0  0  0
  5  4  1  0  0  0  0
  5  6  1  0  0  0  0
  6 16  1  1  0  0  0
  6  1  1  0  0  0  0
 11  3  1  0  0  0  0
 13  4  1  0  0  0  0
 14  5  1  0  0  0  0
 17 18  1  0  0  0  0
 17  6  1  0  0  0  0
 18 19  1  0  0  0  0
 20 18  2  0  0  0  0
 21 20  1  0  0  0  0
 22 21  1  0  0  0  0
 23 21  2  0  0  0  0
 23 25  1  0  0  0  0
 24 23  1  0  0  0  0
 25 17  2  0  0  0  0
 26 32  1  0  0  0  0
 26 27  2  0  0  0  0
 28 34  1  0  0  0  0
 29 35  1  0  0  0  0
 29 28  2  0  0  0  0
 30 29  1  0  0  0  0
 31 30  2  0  0  0  0
 31 32  1  0  0  0  0
 32 33  2  0  0  0  0
 33 28  1  0  0  0  0
 36 38  1  0  0  0  0
 36 30  1  0  0  0  0
 36 37  1  0  0  0  0
 39 36  1  0  0  0  0
M  END
>  <minimizedAffinity>
-5.68923187

$$$$

 OpenBabel03242518533D

 39 41  0  0  1  0  0  0  0  0999 V2000
   37.1310   29.0390   38.5390 C   0  0  2  0  0  0  0  0  0  0  0  0
   36.4080   29.7620   37.4120 C   0  0  0  0  0  0  0  0  0  0  0  0
   35.0040   29.2810   37.4970 C   0  0  0  0  0  0  0  0  0  0  0  0
   34.5890   28.5080   38.7110 C   0  0  0  0  0  0  0  0  0  0  0  0
   35.0910   29.3430   39.8730 C   0  0  0  0  0  0  0  0  0  0  0  0
   36.5430   29.2530   39.8500 C   0  0  1  0  0  0  0  0  0  0  0  0
   36.9100   27.9840   38.1890 H   0  0  0  0  0  0  0  0  0  0  0  0
   36.9180   29.5340   36.4550 H   0  0  0  0  0  0  0  0  0  0  0  0
   36.4490   30.8620   37.5860 H   0  0  0  0  0  0  0  0  0  0  0  0
   34.8600   28.5760   36.6270 H   0  0  0  0  0  0  0  0  0  0  0  0
   34.2910   30.1100   37.3270 H   0  0  0  0  0  0  0  0  0  0  0  0
   34.9630   27.4700   38.7460 H   0  0  0  0  0  0  0  0  0  0  0  0
   33.4800   28.5460   38.7430 H   0  0  0  0  0  0  0  0  0  0  0  0
   34.5020   28.9940   40.7080 H   0  0  0  0  0  0  0  0  0  0  0  0
   34.6200   30.3460   39.6230 H   0  0  0  0  0  0  0  0  0  0  0  0
   36.6350   30.2450   40.3340 H   0  0  0  0  0  0  0  0  0  0  0  0
   36.6920   28.0460   40.7230 C   0  0  0  0  0  0  0  0  0  0  0  0
   36.6020   28.0850   42.0970 C   0  0  0  0  0  0  0  0  0  0  0  0
   36.3960   29.0020   42.6150 H   0  0  0  0  0  0  0  0  0  0  0  0
   36.7520   26.9960   42.9300 C   0  0  0  0  0  3  0  0  0  0  0  0
   37.0100   25.7730   42.3950 C   0  0  0  0  0  0  0  0  0  0  0  0
   37.1310   24.9110   43.0260 H   0  0  0  0  0  0  0  0  0  0  0  0
   37.1130   25.6650   41.0400 C   0  0  0  0  0  0  0  0  0  0  0  0
   37.3180   24.6790   40.6400 H   0  0  0  0  0  0  0  0  0  0  0  0
   36.9550   26.7800   40.2460 C   0  0  0  0  0  3  0  0  0  0  0  0
   38.5830   29.2080   38.5170 C   0  0  0  0  0  0  0  0  0  0  0  0
   39.3470   28.4330   37.8780 O   0  0  0  0  0  0  0  0  0  0  0  0
   39.8010   32.5440   39.3610 C   0  0  0  0  0  0  0  0  0  0  0  0
   40.3410   32.4080   40.6610 C   0  0  0  0  0  0  0  0  0  0  0  0
   40.2600   31.1320   41.2250 C   0  0  0  0  0  0  0  0  0  0  0  0
   39.6810   30.1910   40.4700 N   0  0  0  0  0  0  0  0  0  0  0  0
   39.1810   30.3250   39.2650 C   0  0  0  0  0  0  0  0  0  0  0  0
   39.2470   31.5470   38.6990 N   0  0  0  0  0  0  0  0  0  0  0  0
   39.8500   33.5080   38.9020 H   0  0  0  0  0  0  0  0  0  0  0  0
   40.8000   33.2060   41.2240 H   0  0  0  0  0  0  0  0  0  0  0  0
   40.7820   30.9740   42.5860 C   0  0  0  0  0  0  0  0  0  0  0  0
   41.0170   29.6350   42.8420 F   0  0  0  0  0  0  0  0  0  0  0  0
   39.6860   31.2380   43.4150 F   0  0  0  0  0  0  0  0  0  0  0  0
   41.8470   31.7430   42.8570 F   0  0  0  0  0  0  0  0  0  0  0  0
  1  7  1  6  0  0  0
  1  6  1  0  0  0  0
  2  3  1  0  0  0  0
  2  9  1  0  0  0  0
  2  1  1  0  0  0  0
  3  4  1  0  0  0  0
  4 13  1  0  0  0  0
  4 12  1  0  0  0  0
  4  5  1  0  0  0  0
  5 14  1  0  0  0  0
  6  5  1  0  0  0  0
  6 16  1  1  0  0  0
  6 17  1  0  0  0  0
  8  2  1  0  0  0  0
 10  3  1  0  0  0  0
 11  3  1  0  0  0  0
 15  5  1  0  0  0  0
 17 18  1  0  0  0  0
 18 19  1  0  0  0  0
 18 20  2  0  0  0  0
 21 20  1  0  0  0  0
 21 22  1  0  0  0  0
 23 21  2  0  0  0  0
 24 23  1  0  0  0  0
 25 17  2  0  0  0  0
 25 23  1  0  0  0  0
 26  1  1  0  0  0  0
 26 32  1  0  0  0  0
 27 26  2  0  0  0  0
 28 29  1  0  0  0  0
 29 35  1  0  0  0  0
 29 30  2  0  0  0  0
 30 36  1  0  0  0  0
 31 30  1  0  0  0  0
 32 31  2  0  0  0  0
 33 32  1  0  0  0  0
 33 28  2  0  0  0  0
 34 28  1  0  0  0  0
 36 37  1  0  0  0  0
 36 39  1  0  0  0  0
 36 38  1  0  0  0  0
M  END
>  <minimizedAffinity>
-5.67411041

$$$$
