
 OpenBabel03252501263D

 35 38  0  0  0  0  0  0  0  0999 V2000
   37.6240   27.7370   39.9140 F   0  0  0  0  0  0  0  0  0  0  0  0
   37.5040   27.7860   41.2470 C   0  0  0  0  0  0  0  0  0  0  0  0
   37.4710   29.0050   41.8730 C   0  0  0  0  0  0  0  0  0  0  0  0
   37.3460   29.0680   43.2610 C   0  0  0  0  0  0  0  0  0  0  0  0
   37.2520   27.9510   44.0430 C   0  0  0  0  0  0  0  0  0  0  0  0
   37.2870   26.7410   43.3890 C   0  0  0  0  0  0  0  0  0  0  0  0
   37.4110   26.6360   42.0190 C   0  0  0  0  0  0  0  0  0  0  0  0
   37.3170   30.0260   43.7900 H   0  0  0  0  0  0  0  0  0  0  0  0
   37.1540   27.9900   45.1300 H   0  0  0  0  0  0  0  0  0  0  0  0
   37.2190   25.8090   43.9490 H   0  0  0  0  0  0  0  0  0  0  0  0
   37.4420   25.3170   41.3920 C   0  0  0  0  0  0  0  0  0  0  0  0
   36.3520   24.7120   40.8010 C   0  0  0  0  0  0  0  0  0  0  0  0
   35.4170   25.2490   40.8010 H   0  0  0  0  0  0  0  0  0  0  0  0
   36.5180   23.4550   40.2400 C   0  0  0  0  0  3  0  0  0  0  0  0
   37.7730   22.8510   40.2950 C   0  0  0  0  0  0  0  0  0  0  0  0
   37.8970   21.8730   39.8570 H   0  0  0  0  0  0  0  0  0  0  0  0
   38.8590   23.4600   40.8880 C   0  0  0  0  0  0  0  0  0  0  0  0
   39.8360   22.9750   40.9230 H   0  0  0  0  0  0  0  0  0  0  0  0
   38.7000   24.7090   41.4470 C   0  0  0  0  0  3  0  0  0  0  0  0
   38.5340   32.0100   40.3800 C   0  0  0  0  0  0  0  0  0  0  0  0
   37.1590   32.0930   40.1800 C   0  0  0  0  0  0  0  0  0  0  0  0
   36.5650   30.9910   40.7060 C   0  0  0  0  0  0  0  0  0  0  0  0
   37.5550   30.2350   41.2230 N   0  0  0  0  0  0  0  0  0  0  0  0
   38.7380   30.8530   41.0250 N   0  0  0  0  0  0  0  0  0  0  0  0
   36.6090   32.8850   39.6930 H   0  0  0  0  0  0  0  0  0  0  0  0
   35.5270   30.6910   40.7500 H   0  0  0  0  0  0  0  0  0  0  0  0
   40.4810   35.0980   40.2040 C   0  0  0  0  0  0  0  0  0  0  0  0
   41.3580   34.8530   39.1420 C   0  0  0  0  0  0  0  0  0  0  0  0
   41.2760   33.6110   38.4820 C   0  0  0  0  0  0  0  0  0  0  0  0
   40.3340   32.7580   38.9510 N   0  0  0  0  0  0  0  0  0  0  0  0
   39.5050   32.9960   39.9590 C   0  0  0  0  0  0  0  0  0  0  0  0
   39.5740   34.1820   40.6000 N   0  0  0  0  0  0  0  0  0  0  0  0
   40.5150   36.0500   40.7410 H   0  0  0  0  0  0  0  0  0  0  0  0
   42.0670   35.5860   38.8450 H   0  0  0  0  0  0  0  0  0  0  0  0
   41.9300   33.3680   37.6540 H   0  0  0  0  0  0  0  0  0  0  0  0
  1  2  1  0  0  0  0
  2  3  2  0  0  0  0
  2  7  1  0  0  0  0
  3  4  1  0  0  0  0
  4  8  1  0  0  0  0
  4  5  2  0  0  0  0
  5  9  1  0  0  0  0
  6 10  1  0  0  0  0
  6  5  1  0  0  0  0
  7  6  2  0  0  0  0
 11 19  1  0  0  0  0
 11  7  1  0  0  0  0
 12 11  2  0  0  0  0
 13 12  1  0  0  0  0
 14 15  2  0  0  0  0
 14 12  1  0  0  0  0
 15 17  1  0  0  0  0
 16 15  1  0  0  0  0
 17 18  1  0  0  0  0
 17 19  2  0  0  0  0
 20 24  2  0  0  0  0
 21 20  1  0  0  0  0
 21 22  2  0  0  0  0
 22 26  1  0  0  0  0
 22 23  1  0  0  0  0
 23  3  1  0  0  0  0
 24 23  1  0  0  0  0
 25 21  1  0  0  0  0
 27 32  1  0  0  0  0
 27 33  1  0  0  0  0
 28 27  2  0  0  0  0
 29 30  2  0  0  0  0
 29 28  1  0  0  0  0
 30 31  1  0  0  0  0
 31 20  1  0  0  0  0
 31 32  2  0  0  0  0
 34 28  1  0  0  0  0
 35 29  1  0  0  0  0
M  END
>  <minimizedAffinity>
-6.3631134

$$$$

 OpenBabel03252501263D

 35 38  0  0  0  0  0  0  0  0999 V2000
   37.5490   27.0990   39.2760 F   0  0  0  0  0  0  0  0  0  0  0  0
   37.3010   27.1940   40.5890 C   0  0  0  0  0  0  0  0  0  0  0  0
   37.1660   28.4340   41.1580 C   0  0  0  0  0  0  0  0  0  0  0  0
   36.9070   28.5440   42.5250 C   0  0  0  0  0  0  0  0  0  0  0  0
   36.7790   27.4540   43.3400 C   0  0  0  0  0  0  0  0  0  0  0  0
   36.9190   26.2230   42.7430 C   0  0  0  0  0  0  0  0  0  0  0  0
   37.1760   26.0710   41.3960 C   0  0  0  0  0  0  0  0  0  0  0  0
   36.7940   29.5190   43.0090 H   0  0  0  0  0  0  0  0  0  0  0  0
   36.5770   27.5310   44.4100 H   0  0  0  0  0  0  0  0  0  0  0  0
   36.8310   25.3110   43.3310 H   0  0  0  0  0  0  0  0  0  0  0  0
   37.3130   24.7320   40.8290 C   0  0  0  0  0  0  0  0  0  0  0  0
   38.4320   23.9390   40.9720 C   0  0  0  0  0  0  0  0  0  0  0  0
   39.2600   24.3330   41.5400 H   0  0  0  0  0  0  0  0  0  0  0  0
   38.4320   22.6840   40.3830 C   0  0  0  0  0  3  0  0  0  0  0  0
   37.3070   22.2720   39.6700 C   0  0  0  0  0  0  0  0  0  0  0  0
   37.3120   21.2950   39.2140 H   0  0  0  0  0  0  0  0  0  0  0  0
   36.1900   23.0690   39.5310 C   0  0  0  0  0  0  0  0  0  0  0  0
   35.3170   22.7340   38.9700 H   0  0  0  0  0  0  0  0  0  0  0  0
   36.1850   24.3170   40.1140 C   0  0  0  0  0  3  0  0  0  0  0  0
   38.1000   31.6040   39.9470 C   0  0  0  0  0  0  0  0  0  0  0  0
   37.0030   31.3280   39.1350 C   0  0  0  0  0  0  0  0  0  0  0  0
   36.4960   30.1130   39.4670 C   0  0  0  0  0  0  0  0  0  0  0  0
   37.2670   29.6400   40.4680 N   0  0  0  0  0  0  0  0  0  0  0  0
   38.2300   30.5410   40.7540 N   0  0  0  0  0  0  0  0  0  0  0  0
   36.5850   31.9500   38.3560 H   0  0  0  0  0  0  0  0  0  0  0  0
   35.6580   29.5560   39.0720 H   0  0  0  0  0  0  0  0  0  0  0  0
   40.8260   33.9150   39.1830 C   0  0  0  0  0  0  0  0  0  0  0  0
   40.4140   35.0990   39.8070 C   0  0  0  0  0  0  0  0  0  0  0  0
   39.1850   35.0970   40.4950 C   0  0  0  0  0  0  0  0  0  0  0  0
   38.5090   33.9240   40.4860 N   0  0  0  0  0  0  0  0  0  0  0  0
   38.9040   32.8040   39.8930 C   0  0  0  0  0  0  0  0  0  0  0  0
   40.0800   32.7930   39.2300 N   0  0  0  0  0  0  0  0  0  0  0  0
   41.7740   33.8780   38.6380 H   0  0  0  0  0  0  0  0  0  0  0  0
   41.0150   35.9730   39.7580 H   0  0  0  0  0  0  0  0  0  0  0  0
   38.8190   35.9850   40.9950 H   0  0  0  0  0  0  0  0  0  0  0  0
  1  2  1  0  0  0  0
  2  3  2  0  0  0  0
  2  7  1  0  0  0  0
  3  4  1  0  0  0  0
  4  8  1  0  0  0  0
  4  5  2  0  0  0  0
  5  9  1  0  0  0  0
  6 10  1  0  0  0  0
  6  5  1  0  0  0  0
  7  6  2  0  0  0  0
 11 12  1  0  0  0  0
 11  7  1  0  0  0  0
 12 13  1  0  0  0  0
 14 12  2  0  0  0  0
 15 14  1  0  0  0  0
 16 15  1  0  0  0  0
 17 15  2  0  0  0  0
 17 19  1  0  0  0  0
 18 17  1  0  0  0  0
 19 11  2  0  0  0  0
 20 24  2  0  0  0  0
 21 22  2  0  0  0  0
 21 20  1  0  0  0  0
 22 23  1  0  0  0  0
 23 24  1  0  0  0  0
 23  3  1  0  0  0  0
 25 21  1  0  0  0  0
 26 22  1  0  0  0  0
 27 32  2  0  0  0  0
 27 28  1  0  0  0  0
 28 29  2  0  0  0  0
 29 35  1  0  0  0  0
 30 29  1  0  0  0  0
 31 20  1  0  0  0  0
 31 30  2  0  0  0  0
 32 31  1  0  0  0  0
 33 27  1  0  0  0  0
 34 28  1  0  0  0  0
M  END
>  <minimizedAffinity>
-6.3177681

$$$$

 OpenBabel03252501263D

 35 38  0  0  0  0  0  0  0  0999 V2000
   39.2840   27.0600   40.7660 F   0  0  0  0  0  0  0  0  0  0  0  0
   38.3890   27.2050   41.7520 C   0  0  0  0  0  0  0  0  0  0  0  0
   38.4020   28.3510   42.5060 C   0  0  0  0  0  0  0  0  0  0  0  0
   37.4740   28.5120   43.5360 C   0  0  0  0  0  0  0  0  0  0  0  0
   36.5350   27.5660   43.8360 C   0  0  0  0  0  0  0  0  0  0  0  0
   36.5450   26.4270   43.0640 C   0  0  0  0  0  0  0  0  0  0  0  0
   37.4450   26.2290   42.0380 C   0  0  0  0  0  0  0  0  0  0  0  0
   37.4590   29.4150   44.1550 H   0  0  0  0  0  0  0  0  0  0  0  0
   35.8060   27.6840   44.6400 H   0  0  0  0  0  0  0  0  0  0  0  0
   35.8250   25.6310   43.2470 H   0  0  0  0  0  0  0  0  0  0  0  0
   37.3970   24.9940   41.2590 C   0  0  0  0  0  0  0  0  0  0  0  0
   38.1580   23.8760   41.5270 C   0  0  0  0  0  0  0  0  0  0  0  0
   38.8330   23.9160   42.3680 H   0  0  0  0  0  0  0  0  0  0  0  0
   38.0150   22.7670   40.7080 C   0  0  0  0  0  3  0  0  0  0  0  0
   37.1130   22.8220   39.6470 C   0  0  0  0  0  0  0  0  0  0  0  0
   37.0050   21.9560   39.0130 H   0  0  0  0  0  0  0  0  0  0  0  0
   36.3530   23.9430   39.3830 C   0  0  0  0  0  0  0  0  0  0  0  0
   35.6510   23.9720   38.5490 H   0  0  0  0  0  0  0  0  0  0  0  0
   36.4910   25.0480   40.1940 C   0  0  0  0  0  3  0  0  0  0  0  0
   39.9930   31.3560   41.5990 C   0  0  0  0  0  0  0  0  0  0  0  0
   40.9940   30.7500   42.3540 C   0  0  0  0  0  0  0  0  0  0  0  0
   40.5490   29.5460   42.7990 C   0  0  0  0  0  0  0  0  0  0  0  0
   39.2920   29.4080   42.3300 N   0  0  0  0  0  0  0  0  0  0  0  0
   38.9620   30.4990   41.6080 N   0  0  0  0  0  0  0  0  0  0  0  0
   41.9790   31.1340   42.5750 H   0  0  0  0  0  0  0  0  0  0  0  0
   41.0250   28.7890   43.4060 H   0  0  0  0  0  0  0  0  0  0  0  0
   39.1180   34.6740   40.3400 C   0  0  0  0  0  0  0  0  0  0  0  0
   40.3040   35.0980   39.7300 C   0  0  0  0  0  0  0  0  0  0  0  0
   41.4140   34.2310   39.7550 C   0  0  0  0  0  0  0  0  0  0  0  0
   41.2180   33.0450   40.3800 N   0  0  0  0  0  0  0  0  0  0  0  0
   40.0920   32.6480   40.9570 C   0  0  0  0  0  0  0  0  0  0  0  0
   39.0210   33.4700   40.9400 N   0  0  0  0  0  0  0  0  0  0  0  0
   38.2350   35.3200   40.3420 H   0  0  0  0  0  0  0  0  0  0  0  0
   40.3620   36.0500   39.2630 H   0  0  0  0  0  0  0  0  0  0  0  0
   42.3560   34.5080   39.2980 H   0  0  0  0  0  0  0  0  0  0  0  0
  1  2  1  0  0  0  0
  2  7  2  0  0  0  0
  2  3  1  0  0  0  0
  3  4  2  0  0  0  0
  4  5  1  0  0  0  0
  4  8  1  0  0  0  0
  5  9  1  0  0  0  0
  6 10  1  0  0  0  0
  6  5  2  0  0  0  0
  7  6  1  0  0  0  0
 11 12  1  0  0  0  0
 11  7  1  0  0  0  0
 12 13  1  0  0  0  0
 14 12  2  0  0  0  0
 15 14  1  0  0  0  0
 16 15  1  0  0  0  0
 17 15  2  0  0  0  0
 17 19  1  0  0  0  0
 18 17  1  0  0  0  0
 19 11  2  0  0  0  0
 20 24  2  0  0  0  0
 20 21  1  0  0  0  0
 21 25  1  0  0  0  0
 21 22  2  0  0  0  0
 22 26  1  0  0  0  0
 23  3  1  0  0  0  0
 23 22  1  0  0  0  0
 24 23  1  0  0  0  0
 27 33  1  0  0  0  0
 27 32  1  0  0  0  0
 28 29  1  0  0  0  0
 28 27  2  0  0  0  0
 29 30  2  0  0  0  0
 30 31  1  0  0  0  0
 31 20  1  0  0  0  0
 32 31  2  0  0  0  0
 34 28  1  0  0  0  0
 35 29  1  0  0  0  0
M  END
>  <minimizedAffinity>
-6.26015568

$$$$

 OpenBabel03252501263D

 35 38  0  0  0  0  0  0  0  0999 V2000
   39.3320   28.0380   40.8970 F   0  0  0  0  0  0  0  0  0  0  0  0
   38.1940   28.7430   40.8610 C   0  0  0  0  0  0  0  0  0  0  0  0
   38.2530   30.1130   40.8880 C   0  0  0  0  0  0  0  0  0  0  0  0
   37.0730   30.8580   40.8500 C   0  0  0  0  0  0  0  0  0  0  0  0
   35.8380   30.2770   40.7860 C   0  0  0  0  0  0  0  0  0  0  0  0
   35.8080   28.9020   40.7590 C   0  0  0  0  0  0  0  0  0  0  0  0
   36.9500   28.1300   40.7950 C   0  0  0  0  0  0  0  0  0  0  0  0
   37.0870   31.9520   40.8710 H   0  0  0  0  0  0  0  0  0  0  0  0
   34.9100   30.8520   40.7560 H   0  0  0  0  0  0  0  0  0  0  0  0
   34.8580   28.3720   40.7090 H   0  0  0  0  0  0  0  0  0  0  0  0
   36.8430   26.6730   40.7640 C   0  0  0  0  0  0  0  0  0  0  0  0
   36.5700   25.9390   39.6290 C   0  0  0  0  0  0  0  0  0  0  0  0
   36.4270   26.4750   38.7040 H   0  0  0  0  0  0  0  0  0  0  0  0
   36.4960   24.5590   39.7370 C   0  0  0  0  0  3  0  0  0  0  0  0
   36.6980   23.9670   40.9820 C   0  0  0  0  0  0  0  0  0  0  0  0
   36.6400   22.8920   41.0610 H   0  0  0  0  0  0  0  0  0  0  0  0
   36.9720   24.7060   42.1140 C   0  0  0  0  0  0  0  0  0  0  0  0
   37.1280   24.2290   43.0830 H   0  0  0  0  0  0  0  0  0  0  0  0
   37.0460   26.0780   42.0120 C   0  0  0  0  0  3  0  0  0  0  0  0
   41.1090   32.0490   40.1930 C   0  0  0  0  0  0  0  0  0  0  0  0
   41.2190   31.9080   41.5740 C   0  0  0  0  0  0  0  0  0  0  0  0
   40.1760   31.1700   42.0320 C   0  0  0  0  0  0  0  0  0  0  0  0
   39.4290   30.8570   40.9530 N   0  0  0  0  0  0  0  0  0  0  0  0
   39.9950   31.3870   39.8500 N   0  0  0  0  0  0  0  0  0  0  0  0
   41.9920   32.3050   42.2190 H   0  0  0  0  0  0  0  0  0  0  0  0
   39.9120   30.8480   43.0300 H   0  0  0  0  0  0  0  0  0  0  0  0
   42.4480   34.0290   37.4280 C   0  0  0  0  0  0  0  0  0  0  0  0
   43.8060   34.1340   37.7510 C   0  0  0  0  0  0  0  0  0  0  0  0
   44.2610   33.5160   38.9320 C   0  0  0  0  0  0  0  0  0  0  0  0
   43.3190   32.8660   39.6550 N   0  0  0  0  0  0  0  0  0  0  0  0
   42.0320   32.7700   39.3460 C   0  0  0  0  0  0  0  0  0  0  0  0
   41.5830   33.3570   38.2160 N   0  0  0  0  0  0  0  0  0  0  0  0
   42.0570   34.4960   36.5200 H   0  0  0  0  0  0  0  0  0  0  0  0
   44.4720   34.6670   37.1190 H   0  0  0  0  0  0  0  0  0  0  0  0
   45.3020   33.5660   39.2290 H   0  0  0  0  0  0  0  0  0  0  0  0
  2  3  1  0  0  0  0
  2  1  1  0  0  0  0
  3 23  1  0  0  0  0
  4  8  1  0  0  0  0
  4  3  2  0  0  0  0
  5  4  1  0  0  0  0
  6  5  2  0  0  0  0
  6  7  1  0  0  0  0
  7  2  2  0  0  0  0
  9  5  1  0  0  0  0
 10  6  1  0  0  0  0
 11  7  1  0  0  0  0
 11 19  1  0  0  0  0
 12 14  1  0  0  0  0
 12 11  2  0  0  0  0
 13 12  1  0  0  0  0
 14 15  2  0  0  0  0
 15 16  1  0  0  0  0
 15 17  1  0  0  0  0
 17 18  1  0  0  0  0
 19 17  2  0  0  0  0
 20 21  1  0  0  0  0
 21 22  2  0  0  0  0
 21 25  1  0  0  0  0
 22 26  1  0  0  0  0
 23 22  1  0  0  0  0
 24 20  2  0  0  0  0
 24 23  1  0  0  0  0
 27 28  2  0  0  0  0
 27 32  1  0  0  0  0
 28 29  1  0  0  0  0
 29 35  1  0  0  0  0
 29 30  2  0  0  0  0
 31 30  1  0  0  0  0
 31 20  1  0  0  0  0
 32 31  2  0  0  0  0
 33 27  1  0  0  0  0
 34 28  1  0  0  0  0
M  END
>  <minimizedAffinity>
-5.79065466

$$$$

 OpenBabel03252501263D

 35 38  0  0  0  0  0  0  0  0999 V2000
   39.2220   28.4190   40.3220 F   0  0  0  0  0  0  0  0  0  0  0  0
   38.0290   29.0250   40.3860 C   0  0  0  0  0  0  0  0  0  0  0  0
   37.9580   30.3860   40.2350 C   0  0  0  0  0  0  0  0  0  0  0  0
   36.7200   31.0260   40.2990 C   0  0  0  0  0  0  0  0  0  0  0  0
   35.5510   30.3510   40.5080 C   0  0  0  0  0  0  0  0  0  0  0  0
   35.6510   28.9860   40.6560 C   0  0  0  0  0  0  0  0  0  0  0  0
   36.8550   28.3150   40.6000 C   0  0  0  0  0  0  0  0  0  0  0  0
   36.6310   32.1110   40.1830 H   0  0  0  0  0  0  0  0  0  0  0  0
   34.5780   30.8430   40.5600 H   0  0  0  0  0  0  0  0  0  0  0  0
   34.7600   28.3830   40.8270 H   0  0  0  0  0  0  0  0  0  0  0  0
   36.8860   26.8640   40.7650 C   0  0  0  0  0  0  0  0  0  0  0  0
   36.7360   25.9610   39.7340 C   0  0  0  0  0  0  0  0  0  0  0  0
   36.5880   26.3520   38.7390 H   0  0  0  0  0  0  0  0  0  0  0  0
   36.7860   24.6080   40.0280 C   0  0  0  0  0  3  0  0  0  0  0  0
   36.9830   24.2100   41.3490 C   0  0  0  0  0  0  0  0  0  0  0  0
   37.0220   23.1560   41.5730 H   0  0  0  0  0  0  0  0  0  0  0  0
   37.1320   25.1170   42.3770 C   0  0  0  0  0  0  0  0  0  0  0  0
   37.2860   24.7920   43.4070 H   0  0  0  0  0  0  0  0  0  0  0  0
   37.0830   26.4640   42.0900 C   0  0  0  0  0  3  0  0  0  0  0  0
   40.8630   32.3520   40.5290 C   0  0  0  0  0  0  0  0  0  0  0  0
   40.5710   32.5190   39.1780 C   0  0  0  0  0  0  0  0  0  0  0  0
   39.4510   31.8150   38.8730 C   0  0  0  0  0  0  0  0  0  0  0  0
   39.0540   31.2190   40.0160 N   0  0  0  0  0  0  0  0  0  0  0  0
   39.9060   31.5460   41.0090 N   0  0  0  0  0  0  0  0  0  0  0  0
   41.1170   33.1050   38.4510 H   0  0  0  0  0  0  0  0  0  0  0  0
   38.9140   31.6940   37.9420 H   0  0  0  0  0  0  0  0  0  0  0  0
   43.2960   34.8090   41.7130 C   0  0  0  0  0  0  0  0  0  0  0  0
   44.1110   34.0540   42.5640 C   0  0  0  0  0  0  0  0  0  0  0  0
   43.8160   32.6870   42.7300 C   0  0  0  0  0  0  0  0  0  0  0  0
   42.7500   32.2270   42.0330 N   0  0  0  0  0  0  0  0  0  0  0  0
   41.9800   32.9470   41.2270 C   0  0  0  0  0  0  0  0  0  0  0  0
   42.2520   34.2590   41.0590 N   0  0  0  0  0  0  0  0  0  0  0  0
   43.4930   35.8740   41.5590 H   0  0  0  0  0  0  0  0  0  0  0  0
   44.9280   34.5050   43.0710 H   0  0  0  0  0  0  0  0  0  0  0  0
   44.4140   32.0560   43.3770 H   0  0  0  0  0  0  0  0  0  0  0  0
  1  2  1  0  0  0  0
  2  7  1  0  0  0  0
  3  4  1  0  0  0  0
  3  2  2  0  0  0  0
  4  5  2  0  0  0  0
  5  9  1  0  0  0  0
  5  6  1  0  0  0  0
  6 10  1  0  0  0  0
  7  6  2  0  0  0  0
  7 11  1  0  0  0  0
  8  4  1  0  0  0  0
 11 19  1  0  0  0  0
 12 14  1  0  0  0  0
 12 11  2  0  0  0  0
 13 12  1  0  0  0  0
 14 15  2  0  0  0  0
 15 16  1  0  0  0  0
 15 17  1  0  0  0  0
 17 18  1  0  0  0  0
 19 17  2  0  0  0  0
 20 24  2  0  0  0  0
 20 31  1  0  0  0  0
 21 20  1  0  0  0  0
 22 21  2  0  0  0  0
 22 23  1  0  0  0  0
 23  3  1  0  0  0  0
 23 24  1  0  0  0  0
 25 21  1  0  0  0  0
 26 22  1  0  0  0  0
 27 28  1  0  0  0  0
 28 29  2  0  0  0  0
 28 34  1  0  0  0  0
 29 35  1  0  0  0  0
 30 29  1  0  0  0  0
 31 30  2  0  0  0  0
 32 31  1  0  0  0  0
 32 27  2  0  0  0  0
 33 27  1  0  0  0  0
M  END
>  <minimizedAffinity>
-5.78781509

$$$$

 OpenBabel03252501263D

 35 38  0  0  0  0  0  0  0  0999 V2000
   32.6440   29.2110   38.7320 F   0  0  0  0  0  0  0  0  0  0  0  0
   33.0130   29.0680   37.4530 C   0  0  0  0  0  0  0  0  0  0  0  0
   34.1850   28.4200   37.1610 C   0  0  0  0  0  0  0  0  0  0  0  0
   34.5780   28.2640   35.8310 C   0  0  0  0  0  0  0  0  0  0  0  0
   33.8380   28.7360   34.7840 C   0  0  0  0  0  0  0  0  0  0  0  0
   32.6660   29.3820   35.1050 C   0  0  0  0  0  0  0  0  0  0  0  0
   32.2420   29.5570   36.4060 C   0  0  0  0  0  0  0  0  0  0  0  0
   35.5090   27.7520   35.5660 H   0  0  0  0  0  0  0  0  0  0  0  0
   34.1370   28.6200   33.7410 H   0  0  0  0  0  0  0  0  0  0  0  0
   32.0260   29.7850   34.3220 H   0  0  0  0  0  0  0  0  0  0  0  0
   30.9860   30.2540   36.6730 C   0  0  0  0  0  0  0  0  0  0  0  0
   29.9470   29.7270   37.4120 C   0  0  0  0  0  0  0  0  0  0  0  0
   30.0710   28.7360   37.8190 H   0  0  0  0  0  0  0  0  0  0  0  0
   28.8080   30.4950   37.5910 C   0  0  0  0  0  3  0  0  0  0  0  0
   28.7530   31.7660   37.0200 C   0  0  0  0  0  0  0  0  0  0  0  0
   27.8640   32.3600   37.1620 H   0  0  0  0  0  0  0  0  0  0  0  0
   29.7950   32.2880   36.2820 C   0  0  0  0  0  0  0  0  0  0  0  0
   29.7380   33.2840   35.8410 H   0  0  0  0  0  0  0  0  0  0  0  0
   30.9300   31.5280   36.1010 C   0  0  0  0  0  3  0  0  0  0  0  0
   36.2490   27.8250   39.9500 C   0  0  0  0  0  0  0  0  0  0  0  0
   36.3980   26.6280   39.2560 C   0  0  0  0  0  0  0  0  0  0  0  0
   35.6550   26.6740   38.1200 C   0  0  0  0  0  0  0  0  0  0  0  0
   35.0530   27.8810   38.1090 N   0  0  0  0  0  0  0  0  0  0  0  0
   35.4130   28.5700   39.2120 N   0  0  0  0  0  0  0  0  0  0  0  0
   36.9970   25.7720   39.5360 H   0  0  0  0  0  0  0  0  0  0  0  0
   35.5110   25.9500   37.3310 H   0  0  0  0  0  0  0  0  0  0  0  0
   38.1250   29.6300   42.5150 C   0  0  0  0  0  0  0  0  0  0  0  0
   38.0840   28.7530   43.6050 C   0  0  0  0  0  0  0  0  0  0  0  0
   37.4030   27.5300   43.4510 C   0  0  0  0  0  0  0  0  0  0  0  0
   36.8430   27.3180   42.2370 N   0  0  0  0  0  0  0  0  0  0  0  0
   36.8840   28.1530   41.2060 C   0  0  0  0  0  0  0  0  0  0  0  0
   37.5340   29.3290   41.3410 N   0  0  0  0  0  0  0  0  0  0  0  0
   38.6440   30.5900   42.5960 H   0  0  0  0  0  0  0  0  0  0  0  0
   38.5550   29.0080   44.5220 H   0  0  0  0  0  0  0  0  0  0  0  0
   37.3410   26.8140   44.2620 H   0  0  0  0  0  0  0  0  0  0  0  0
  2  1  1  0  0  0  0
  3  2  1  0  0  0  0
  3 23  1  0  0  0  0
  4  3  2  0  0  0  0
  5  6  2  0  0  0  0
  5  4  1  0  0  0  0
  6  7  1  0  0  0  0
  7 11  1  0  0  0  0
  7  2  2  0  0  0  0
  8  4  1  0  0  0  0
  9  5  1  0  0  0  0
 10  6  1  0  0  0  0
 11 12  1  0  0  0  0
 12 14  2  0  0  0  0
 12 13  1  0  0  0  0
 15 16  1  0  0  0  0
 15 14  1  0  0  0  0
 17 15  2  0  0  0  0
 18 17  1  0  0  0  0
 19 17  1  0  0  0  0
 19 11  2  0  0  0  0
 20 31  1  0  0  0  0
 21 25  1  0  0  0  0
 21 20  1  0  0  0  0
 22 21  2  0  0  0  0
 23 22  1  0  0  0  0
 23 24  1  0  0  0  0
 24 20  2  0  0  0  0
 26 22  1  0  0  0  0
 27 33  1  0  0  0  0
 27 28  1  0  0  0  0
 28 34  1  0  0  0  0
 29 28  2  0  0  0  0
 29 35  1  0  0  0  0
 30 29  1  0  0  0  0
 31 32  1  0  0  0  0
 31 30  2  0  0  0  0
 32 27  2  0  0  0  0
M  END
>  <minimizedAffinity>
-5.77630997

$$$$

 OpenBabel03252501263D

 35 38  0  0  0  0  0  0  0  0999 V2000
   40.7980   31.5650   39.0930 F   0  0  0  0  0  0  0  0  0  0  0  0
   40.2000   32.7140   39.4340 C   0  0  0  0  0  0  0  0  0  0  0  0
   38.8640   32.7090   39.7430 C   0  0  0  0  0  0  0  0  0  0  0  0
   38.2320   33.9000   40.1010 C   0  0  0  0  0  0  0  0  0  0  0  0
   38.8910   35.0960   40.1580 C   0  0  0  0  0  0  0  0  0  0  0  0
   40.2300   35.0720   39.8430 C   0  0  0  0  0  0  0  0  0  0  0  0
   40.8920   33.9160   39.4850 C   0  0  0  0  0  0  0  0  0  0  0  0
   37.1670   33.9290   40.3530 H   0  0  0  0  0  0  0  0  0  0  0  0
   38.4040   36.0330   40.4360 H   0  0  0  0  0  0  0  0  0  0  0  0
   40.8190   35.9880   39.8670 H   0  0  0  0  0  0  0  0  0  0  0  0
   42.3170   33.9660   39.1630 C   0  0  0  0  0  0  0  0  0  0  0  0
   42.8250   33.9350   37.8810 C   0  0  0  0  0  0  0  0  0  0  0  0
   42.1250   33.8720   37.0630 H   0  0  0  0  0  0  0  0  0  0  0  0
   44.2000   33.9900   37.7140 C   0  0  0  0  0  3  0  0  0  0  0  0
   45.0150   34.0710   38.8420 C   0  0  0  0  0  0  0  0  0  0  0  0
   46.0840   34.1130   38.7070 H   0  0  0  0  0  0  0  0  0  0  0  0
   44.5010   34.1010   40.1220 C   0  0  0  0  0  0  0  0  0  0  0  0
   45.1510   34.1640   40.9960 H   0  0  0  0  0  0  0  0  0  0  0  0
   43.1350   34.0470   40.2930 C   0  0  0  0  0  3  0  0  0  0  0  0
   37.3560   29.5850   40.3370 C   0  0  0  0  0  0  0  0  0  0  0  0
   36.5270   30.0880   39.3380 C   0  0  0  0  0  0  0  0  0  0  0  0
   36.9670   31.3200   38.9720 C   0  0  0  0  0  0  0  0  0  0  0  0
   38.0500   31.5780   39.7330 N   0  0  0  0  0  0  0  0  0  0  0  0
   38.2810   30.5310   40.5520 N   0  0  0  0  0  0  0  0  0  0  0  0
   35.6640   29.6120   38.8940 H   0  0  0  0  0  0  0  0  0  0  0  0
   36.5950   32.0220   38.2380 H   0  0  0  0  0  0  0  0  0  0  0  0
   37.0970   25.9750   40.8460 C   0  0  0  0  0  0  0  0  0  0  0  0
   36.9270   25.8670   42.2310 C   0  0  0  0  0  0  0  0  0  0  0  0
   36.9030   27.0510   42.9940 C   0  0  0  0  0  0  0  0  0  0  0  0
   37.0480   28.2030   42.2950 N   0  0  0  0  0  0  0  0  0  0  0  0
   37.2090   28.2990   40.9820 C   0  0  0  0  0  0  0  0  0  0  0  0
   37.2350   27.1720   40.2400 N   0  0  0  0  0  0  0  0  0  0  0  0
   37.1230   25.0780   40.2200 H   0  0  0  0  0  0  0  0  0  0  0  0
   36.8220   24.9160   42.6910 H   0  0  0  0  0  0  0  0  0  0  0  0
   36.7740   27.0260   44.0690 H   0  0  0  0  0  0  0  0  0  0  0  0
  1  2  1  0  0  0  0
  2  7  2  0  0  0  0
  2  3  1  0  0  0  0
  3  4  2  0  0  0  0
  4  5  1  0  0  0  0
  4  8  1  0  0  0  0
  5  9  1  0  0  0  0
  6 10  1  0  0  0  0
  6  5  2  0  0  0  0
  7  6  1  0  0  0  0
 11  7  1  0  0  0  0
 11 19  1  0  0  0  0
 12 11  2  0  0  0  0
 13 12  1  0  0  0  0
 14 12  1  0  0  0  0
 14 15  2  0  0  0  0
 15 17  1  0  0  0  0
 16 15  1  0  0  0  0
 17 19  2  0  0  0  0
 17 18  1  0  0  0  0
 20 24  2  0  0  0  0
 20 31  1  0  0  0  0
 21 20  1  0  0  0  0
 22 21  2  0  0  0  0
 22 23  1  0  0  0  0
 23  3  1  0  0  0  0
 23 24  1  0  0  0  0
 25 21  1  0  0  0  0
 26 22  1  0  0  0  0
 27 28  1  0  0  0  0
 28 34  1  0  0  0  0
 28 29  2  0  0  0  0
 29 35  1  0  0  0  0
 30 29  1  0  0  0  0
 31 30  2  0  0  0  0
 32 27  2  0  0  0  0
 32 31  1  0  0  0  0
 33 27  1  0  0  0  0
M  END
>  <minimizedAffinity>
-5.7723875

$$$$

 OpenBabel03252501263D

 35 38  0  0  0  0  0  0  0  0999 V2000
   38.5660   28.4470   40.5590 F   0  0  0  0  0  0  0  0  0  0  0  0
   37.4650   28.4010   39.7970 C   0  0  0  0  0  0  0  0  0  0  0  0
   36.9770   29.5600   39.2510 C   0  0  0  0  0  0  0  0  0  0  0  0
   35.8320   29.5230   38.4560 C   0  0  0  0  0  0  0  0  0  0  0  0
   35.1570   28.3650   38.1900 C   0  0  0  0  0  0  0  0  0  0  0  0
   35.6680   27.2170   38.7500 C   0  0  0  0  0  0  0  0  0  0  0  0
   36.7970   27.2100   39.5420 C   0  0  0  0  0  0  0  0  0  0  0  0
   35.4180   30.4320   38.0070 H   0  0  0  0  0  0  0  0  0  0  0  0
   34.2600   28.3270   37.5690 H   0  0  0  0  0  0  0  0  0  0  0  0
   35.1810   26.2570   38.5800 H   0  0  0  0  0  0  0  0  0  0  0  0
   37.2820   25.9520   40.1040 C   0  0  0  0  0  0  0  0  0  0  0  0
   38.0730   25.0510   39.4220 C   0  0  0  0  0  0  0  0  0  0  0  0
   38.3520   25.2910   38.4090 H   0  0  0  0  0  0  0  0  0  0  0  0
   38.4660   23.8930   40.0740 C   0  0  0  0  0  3  0  0  0  0  0  0
   38.0490   23.6810   41.3870 C   0  0  0  0  0  0  0  0  0  0  0  0
   38.3580   22.7780   41.8900 H   0  0  0  0  0  0  0  0  0  0  0  0
   37.2580   24.5860   42.0640 C   0  0  0  0  0  0  0  0  0  0  0  0
   36.9390   24.4070   43.0920 H   0  0  0  0  0  0  0  0  0  0  0  0
   36.8650   25.7390   41.4210 C   0  0  0  0  0  3  0  0  0  0  0  0
   39.0410   32.4110   39.1910 C   0  0  0  0  0  0  0  0  0  0  0  0
   37.9930   32.8650   39.9870 C   0  0  0  0  0  0  0  0  0  0  0  0
   37.0760   31.8730   40.1260 C   0  0  0  0  0  0  0  0  0  0  0  0
   37.5460   30.8210   39.4260 N   0  0  0  0  0  0  0  0  0  0  0  0
   38.7280   31.1490   38.8660 N   0  0  0  0  0  0  0  0  0  0  0  0
   37.8840   33.8390   40.4440 H   0  0  0  0  0  0  0  0  0  0  0  0
   36.1370   31.8380   40.6620 H   0  0  0  0  0  0  0  0  0  0  0  0
   41.6000   35.0210   39.1450 C   0  0  0  0  0  0  0  0  0  0  0  0
   42.4280   34.6250   38.0880 C   0  0  0  0  0  0  0  0  0  0  0  0
   42.0990   33.4480   37.3880 C   0  0  0  0  0  0  0  0  0  0  0  0
   40.9890   32.8020   37.8150 N   0  0  0  0  0  0  0  0  0  0  0  0
   40.2070   33.1800   38.8180 C   0  0  0  0  0  0  0  0  0  0  0  0
   40.5110   34.3060   39.4980 N   0  0  0  0  0  0  0  0  0  0  0  0
   41.8230   35.9280   39.7140 H   0  0  0  0  0  0  0  0  0  0  0  0
   43.2810   35.2000   37.8260 H   0  0  0  0  0  0  0  0  0  0  0  0
   42.7050   33.0970   36.5620 H   0  0  0  0  0  0  0  0  0  0  0  0
  2  1  1  0  0  0  0
  3 23  1  0  0  0  0
  3  2  2  0  0  0  0
  4  3  1  0  0  0  0
  5  4  2  0  0  0  0
  5  6  1  0  0  0  0
  6  7  2  0  0  0  0
  7  2  1  0  0  0  0
  7 11  1  0  0  0  0
  8  4  1  0  0  0  0
  9  5  1  0  0  0  0
 10  6  1  0  0  0  0
 11 19  1  0  0  0  0
 12 14  1  0  0  0  0
 12 11  2  0  0  0  0
 13 12  1  0  0  0  0
 14 15  2  0  0  0  0
 15 16  1  0  0  0  0
 15 17  1  0  0  0  0
 17 18  1  0  0  0  0
 19 17  2  0  0  0  0
 20 21  1  0  0  0  0
 21 22  2  0  0  0  0
 21 25  1  0  0  0  0
 22 26  1  0  0  0  0
 23 22  1  0  0  0  0
 24 20  2  0  0  0  0
 24 23  1  0  0  0  0
 27 32  1  0  0  0  0
 27 33  1  0  0  0  0
 28 27  2  0  0  0  0
 29 30  2  0  0  0  0
 29 28  1  0  0  0  0
 30 31  1  0  0  0  0
 31 20  1  0  0  0  0
 31 32  2  0  0  0  0
 34 28  1  0  0  0  0
 35 29  1  0  0  0  0
M  END
>  <minimizedAffinity>
-5.69253016

$$$$

 OpenBabel03252501263D

 35 38  0  0  0  0  0  0  0  0999 V2000
   36.5590   30.7410   37.9280 F   0  0  0  0  0  0  0  0  0  0  0  0
   36.5690   30.1880   39.1480 C   0  0  0  0  0  0  0  0  0  0  0  0
   37.3400   30.7490   40.1330 C   0  0  0  0  0  0  0  0  0  0  0  0
   37.3560   30.1810   41.4080 C   0  0  0  0  0  0  0  0  0  0  0  0
   36.6270   29.0710   41.7290 C   0  0  0  0  0  0  0  0  0  0  0  0
   35.8620   28.5290   40.7220 C   0  0  0  0  0  0  0  0  0  0  0  0
   35.8190   29.0590   39.4490 C   0  0  0  0  0  0  0  0  0  0  0  0
   37.9610   30.6060   42.2150 H   0  0  0  0  0  0  0  0  0  0  0  0
   36.6340   28.6200   42.7230 H   0  0  0  0  0  0  0  0  0  0  0  0
   35.2560   27.6430   40.9060 H   0  0  0  0  0  0  0  0  0  0  0  0
   34.9830   28.4300   38.4290 C   0  0  0  0  0  0  0  0  0  0  0  0
   33.8220   28.9800   37.9280 C   0  0  0  0  0  0  0  0  0  0  0  0
   33.5110   29.9380   38.3130 H   0  0  0  0  0  0  0  0  0  0  0  0
   33.1230   28.2770   36.9590 C   0  0  0  0  0  3  0  0  0  0  0  0
   33.6150   27.0460   36.5300 C   0  0  0  0  0  0  0  0  0  0  0  0
   33.0670   26.5030   35.7760 H   0  0  0  0  0  0  0  0  0  0  0  0
   34.7770   26.5000   37.0340 C   0  0  0  0  0  0  0  0  0  0  0  0
   35.1500   25.5350   36.6890 H   0  0  0  0  0  0  0  0  0  0  0  0
   35.4760   27.1940   37.9970 C   0  0  0  0  0  3  0  0  0  0  0  0
   39.9490   33.0160   39.4680 C   0  0  0  0  0  0  0  0  0  0  0  0
   38.9470   33.8880   39.8840 C   0  0  0  0  0  0  0  0  0  0  0  0
   37.8330   33.1740   40.1920 C   0  0  0  0  0  0  0  0  0  0  0  0
   38.1390   31.8790   39.9700 N   0  0  0  0  0  0  0  0  0  0  0  0
   39.4130   31.7890   39.5350 N   0  0  0  0  0  0  0  0  0  0  0  0
   39.0000   34.9640   39.9650 H   0  0  0  0  0  0  0  0  0  0  0  0
   36.8600   33.4850   40.5460 H   0  0  0  0  0  0  0  0  0  0  0  0
   42.7970   33.9290   37.3670 C   0  0  0  0  0  0  0  0  0  0  0  0
   43.8200   34.1330   38.3010 C   0  0  0  0  0  0  0  0  0  0  0  0
   43.5210   33.9530   39.6660 C   0  0  0  0  0  0  0  0  0  0  0  0
   42.2470   33.5920   39.9460 N   0  0  0  0  0  0  0  0  0  0  0  0
   41.2810   33.4010   39.0570 C   0  0  0  0  0  0  0  0  0  0  0  0
   41.5530   33.5700   37.7450 N   0  0  0  0  0  0  0  0  0  0  0  0
   42.9900   34.0590   36.2980 H   0  0  0  0  0  0  0  0  0  0  0  0
   44.7930   34.4160   37.9850 H   0  0  0  0  0  0  0  0  0  0  0  0
   44.2750   34.0980   40.4310 H   0  0  0  0  0  0  0  0  0  0  0  0
  1  2  1  0  0  0  0
  2  7  2  0  0  0  0
  2  3  1  0  0  0  0
  3  4  2  0  0  0  0
  4  5  1  0  0  0  0
  4  8  1  0  0  0  0
  5  9  1  0  0  0  0
  6 10  1  0  0  0  0
  6  5  2  0  0  0  0
  7  6  1  0  0  0  0
 11  7  1  0  0  0  0
 12 13  1  0  0  0  0
 12 11  2  0  0  0  0
 14 12  1  0  0  0  0
 15 14  2  0  0  0  0
 15 17  1  0  0  0  0
 16 15  1  0  0  0  0
 17 19  2  0  0  0  0
 18 17  1  0  0  0  0
 19 11  1  0  0  0  0
 20 24  2  0  0  0  0
 20 21  1  0  0  0  0
 21 25  1  0  0  0  0
 21 22  2  0  0  0  0
 22 26  1  0  0  0  0
 23  3  1  0  0  0  0
 23 22  1  0  0  0  0
 24 23  1  0  0  0  0
 27 32  2  0  0  0  0
 27 28  1  0  0  0  0
 28 29  2  0  0  0  0
 29 30  1  0  0  0  0
 29 35  1  0  0  0  0
 31 20  1  0  0  0  0
 31 30  2  0  0  0  0
 32 31  1  0  0  0  0
 33 27  1  0  0  0  0
 34 28  1  0  0  0  0
M  END
>  <minimizedAffinity>
-5.68549728

$$$$
