
 OpenBabel03252506393D

 44 47  0  0  1  0  0  0  0  0999 V2000
   44.5090   35.5180   45.1360 C   0  0  0  0  0  0  0  0  0  0  0  0
   45.1630   35.5070   43.8810 C   0  0  0  0  0  0  0  0  0  0  0  0
   46.0800   34.5480   43.6240 C   0  0  0  0  0  0  0  0  0  0  0  0
   46.3240   33.6360   44.6010 N   0  0  0  0  0  0  0  0  0  0  0  0
   45.7060   33.6530   45.7740 C   0  0  0  0  0  0  0  0  0  0  0  0
   44.7970   34.5870   46.0570 N   0  0  0  0  0  0  0  0  0  0  0  0
   46.0380   32.6400   46.7410 N   0  0  0  0  0  0  0  0  0  0  0  0
   45.2970   32.3960   47.9290 C   0  0  0  0  0  0  0  0  0  0  0  0
   46.3740   32.0390   48.9390 C   0  0  0  0  0  0  0  0  0  0  0  0
   47.6510   31.9390   48.1710 C   0  0  0  0  0  0  0  0  0  0  0  0
   47.1520   31.7280   46.7410 C   0  0  1  0  0  0  0  0  0  0  0  0
   43.7840   36.2900   45.3150 H   0  0  0  0  0  0  0  0  0  0  0  0
   46.5960   34.5120   42.6790 H   0  0  0  0  0  0  0  0  0  0  0  0
   44.4540   31.7860   48.0040 H   0  0  0  0  0  0  0  0  0  0  0  0
   44.9540   33.4190   48.2920 H   0  0  0  0  0  0  0  0  0  0  0  0
   46.3890   32.6550   49.8340 H   0  0  0  0  0  0  0  0  0  0  0  0
   46.1340   30.9900   49.2800 H   0  0  0  0  0  0  0  0  0  0  0  0
   48.2600   31.1000   48.5360 H   0  0  0  0  0  0  0  0  0  0  0  0
   48.1860   32.8970   48.2910 H   0  0  0  0  0  0  0  0  0  0  0  0
   47.9910   32.0480   46.0910 H   0  0  0  0  0  0  0  0  0  0  0  0
   44.8070   36.5290   42.9400 N   0  0  0  0  0  0  0  0  0  0  0  0
   45.6120   36.8940   42.3620 H   0  0  0  0  0  0  0  0  0  0  0  0
   43.8610   36.9270   42.7850 H   0  0  0  0  0  0  0  0  0  0  0  0
   46.6360   30.0380   46.5540 S   0  0  0  0  0  0  0  0  0  0  0  0
   45.6270   30.5130   43.4130 O   0  0  0  0  0  0  0  0  0  0  0  0
   44.9950   29.9780   44.3370 C   0  0  0  0  0  0  0  0  0  0  0  0
   45.0850   29.7560   45.8040 C   0  0  1  0  0  0  0  0  0  0  0  0
   44.5410   28.3560   45.9360 C   0  0  0  0  0  0  0  0  0  0  0  0
   43.2280   28.5750   45.1750 C   0  0  0  0  0  0  0  0  0  0  0  0
   43.7480   29.3210   44.0340 N   0  0  0  0  0  0  0  0  0  0  0  0
   44.2080   30.3660   46.1440 H   0  0  0  0  0  0  0  0  0  0  0  0
   45.1340   27.6220   45.3610 H   0  0  0  0  0  0  0  0  0  0  0  0
   44.3600   28.0400   46.9720 H   0  0  0  0  0  0  0  0  0  0  0  0
   42.5260   29.1710   45.7790 H   0  0  0  0  0  0  0  0  0  0  0  0
   42.8290   27.5830   44.8840 H   0  0  0  0  0  0  0  0  0  0  0  0
   42.9690   29.2880   42.8340 C   0  0  0  0  0  0  0  0  0  0  0  0
   43.1930   28.5260   41.7340 C   0  0  0  0  0  0  0  0  0  0  0  0
   44.0450   27.8770   41.7630 H   0  0  0  0  0  0  0  0  0  0  0  0
   42.3210   28.6270   40.6510 C   0  0  0  0  0  0  0  0  0  0  0  0
   41.2350   29.5060   40.7110 C   0  0  0  0  0  0  0  0  0  0  0  0
   40.5370   29.6140   39.8950 H   0  0  0  0  0  0  0  0  0  0  0  0
   41.0140   30.2780   41.8330 C   0  0  0  0  0  0  0  0  0  0  0  0
   40.1630   30.9620   41.8720 H   0  0  0  0  0  0  0  0  0  0  0  0
   41.8870   30.1670   42.9000 C   0  0  0  0  0  0  0  0  0  0  0  0
  1 12  1  0  0  0  0
  1  6  1  0  0  0  0
  2  1  2  0  0  0  0
  3  2  1  0  0  0  0
  3  4  2  0  0  0  0
  4  5  1  0  0  0  0
  5  6  2  0  0  0  0
  5  7  1  0  0  0  0
  7 11  1  0  0  0  0
  7  8  1  0  0  0  0
  8 14  1  0  0  0  0
  8 15  1  0  0  0  0
  8  9  1  0  0  0  0
  9 17  1  0  0  0  0
  9 16  1  0  0  0  0
 10 19  1  0  0  0  0
 10 18  1  0  0  0  0
 10  9  1  0  0  0  0
 11 20  1  6  0  0  0
 11 10  1  0  0  0  0
 13  3  1  0  0  0  0
 21  2  1  0  0  0  0
 22 21  1  0  0  0  0
 23 21  1  0  0  0  0
 24 11  1  0  0  0  0
 25 26  2  0  0  0  0
 26 27  1  0  0  0  0
 27 28  1  0  0  0  0
 27 31  1  1  0  0  0
 27 24  1  0  0  0  0
 28 33  1  0  0  0  0
 29 34  1  0  0  0  0
 29 28  1  0  0  0  0
 30 26  1  0  0  0  0
 30 29  1  0  0  0  0
 32 28  1  0  0  0  0
 35 29  1  0  0  0  0
 36 44  1  0  0  0  0
 36 30  1  0  0  0  0
 37 38  1  0  0  0  0
 37 36  2  0  0  0  0
 39 40  2  0  0  0  0
 39 37  1  0  0  0  0
 40 42  1  0  0  0  0
 41 40  1  0  0  0  0
 42 43  1  0  0  0  0
 42 44  2  0  0  0  0
M  END
>  <minimizedAffinity>
-5.32496881

>  <minimizedRMSD>
0.302103043

$$$$
