
 OpenBabel03252509243D

 27 29  0  0  1  0  0  0  0  0999 V2000
   46.5190   35.0310   41.9610 C   0  0  1  0  0  0  0  0  0  0  0  0
   48.0430   35.3120   41.9220 C   0  0  0  0  0  0  0  0  0  0  0  0
   47.3360   34.0450   41.3510 C   0  0  2  0  0  0  0  0  0  0  0  0
   45.9330   35.7910   41.4090 H   0  0  0  0  0  0  0  0  0  0  0  0
   48.4200   35.9940   41.1410 H   0  0  0  0  0  0  0  0  0  0  0  0
   48.6380   35.1980   42.8190 H   0  0  0  0  0  0  0  0  0  0  0  0
   47.6050   33.1240   41.9170 H   0  0  0  0  0  0  0  0  0  0  0  0
   47.3290   33.9200   39.8560 C   0  0  0  0  0  0  0  0  0  0  0  0
   48.3440   34.5080   39.1270 C   0  0  0  0  0  0  0  0  0  0  0  0
   49.1430   35.0580   39.5940 H   0  0  0  0  0  0  0  0  0  0  0  0
   48.3460   34.3970   37.7320 C   0  0  0  0  0  3  0  0  0  0  0  0
   47.2930   33.6810   37.1900 C   0  0  0  0  0  0  0  0  0  0  0  0
   47.2920   33.5910   36.0970 H   0  0  0  0  0  0  0  0  0  0  0  0
   46.2600   33.0770   37.8880 C   0  0  0  0  0  0  0  0  0  0  0  0
   45.5010   32.5480   37.3300 H   0  0  0  0  0  0  0  0  0  0  0  0
   46.2940   33.2120   39.2790 C   0  0  0  0  0  3  0  0  0  0  0  0
   44.6650   35.3740   45.2030 C   0  0  0  0  0  0  0  0  0  0  0  0
   45.1150   35.6910   43.8720 C   0  0  0  0  0  0  0  0  0  0  0  0
   46.0560   34.8270   43.3770 C   0  0  0  0  0  0  0  0  0  0  0  0
   46.5250   33.7530   44.1050 N   0  0  0  0  0  0  0  0  0  0  0  0
   46.0710   33.5010   45.3460 C   0  0  0  0  0  0  0  0  0  0  0  0
   45.1350   34.3190   45.8950 N   0  0  0  0  0  0  0  0  0  0  0  0
   43.9200   36.0240   45.6410 H   0  0  0  0  0  0  0  0  0  0  0  0
   46.5330   32.6280   45.7830 H   0  0  0  0  0  0  0  0  0  0  0  0
   44.6400   36.8130   43.1510 N   0  0  0  0  0  0  0  0  0  0  0  0
   45.1090   37.6840   43.5060 H   0  0  0  0  0  0  0  0  0  0  0  0
   43.9560   36.9100   42.3900 H   0  0  0  0  0  0  0  0  0  0  0  0
  1  4  1  6  0  0  0
  1 19  1  0  0  0  0
  2  1  1  0  0  0  0
  2  6  1  0  0  0  0
  3  7  1  1  0  0  0
  3  2  1  0  0  0  0
  3  1  1  0  0  0  0
  5  2  1  0  0  0  0
  8  3  1  0  0  0  0
  9 10  1  0  0  0  0
  9  8  2  0  0  0  0
 11  9  1  0  0  0  0
 12 11  2  0  0  0  0
 12 14  1  0  0  0  0
 13 12  1  0  0  0  0
 14 16  2  0  0  0  0
 15 14  1  0  0  0  0
 16  8  1  0  0  0  0
 17 23  1  0  0  0  0
 17 22  1  0  0  0  0
 18 17  2  0  0  0  0
 19 18  1  0  0  0  0
 19 20  2  0  0  0  0
 20 21  1  0  0  0  0
 21 24  1  0  0  0  0
 21 22  2  0  0  0  0
 25 26  1  0  0  0  0
 25 18  1  0  0  0  0
 27 25  1  0  0  0  0
M  END
>  <minimizedAffinity>
-5.5062542

>  <minimizedRMSD>
0.497308284

$$$$
