
 OpenBabel03252509243D

 27 29  0  0  1  0  0  0  0  0999 V2000
   46.7220   34.7280   42.0220 C   0  0  1  0  0  0  0  0  0  0  0  0
   48.1250   35.3860   42.0450 C   0  0  0  0  0  0  0  0  0  0  0  0
   47.8300   33.8800   41.7720 C   0  0  2  0  0  0  0  0  0  0  0  0
   46.0660   35.1550   41.2380 H   0  0  0  0  0  0  0  0  0  0  0  0
   48.4480   35.9410   41.1470 H   0  0  0  0  0  0  0  0  0  0  0  0
   48.5860   35.6480   42.9890 H   0  0  0  0  0  0  0  0  0  0  0  0
   48.2160   33.2230   42.5840 H   0  0  0  0  0  0  0  0  0  0  0  0
   48.0830   33.4100   40.3690 C   0  0  0  0  0  0  0  0  0  0  0  0
   49.1110   32.5180   40.1330 C   0  0  0  0  0  0  0  0  0  0  0  0
   49.7400   32.1460   40.9220 H   0  0  0  0  0  0  0  0  0  0  0  0
   49.3530   32.0750   38.8280 C   0  0  0  0  0  3  0  0  0  0  0  0
   48.5110   32.5890   37.8580 C   0  0  0  0  0  0  0  0  0  0  0  0
   48.6980   32.2430   36.8350 H   0  0  0  0  0  0  0  0  0  0  0  0
   47.4720   33.4830   38.0570 C   0  0  0  0  0  0  0  0  0  0  0  0
   46.8930   33.7990   37.2010 H   0  0  0  0  0  0  0  0  0  0  0  0
   47.2610   33.9010   39.3740 C   0  0  0  0  0  3  0  0  0  0  0  0
   44.5450   35.5790   44.9550 C   0  0  0  0  0  0  0  0  0  0  0  0
   45.1400   35.6840   43.6470 C   0  0  0  0  0  0  0  0  0  0  0  0
   46.1080   34.7490   43.3940 C   0  0  0  0  0  0  0  0  0  0  0  0
   46.4720   33.7960   44.3240 N   0  0  0  0  0  0  0  0  0  0  0  0
   45.8840   33.7410   45.5320 C   0  0  0  0  0  0  0  0  0  0  0  0
   44.9150   34.6400   45.8460 N   0  0  0  0  0  0  0  0  0  0  0  0
   43.7730   36.2940   45.2060 H   0  0  0  0  0  0  0  0  0  0  0  0
   46.2770   32.9430   46.1440 H   0  0  0  0  0  0  0  0  0  0  0  0
   44.7700   36.6850   42.7180 N   0  0  0  0  0  0  0  0  0  0  0  0
   45.2190   37.5970   42.9840 H   0  0  0  0  0  0  0  0  0  0  0  0
   44.1730   36.6690   41.8810 H   0  0  0  0  0  0  0  0  0  0  0  0
  1  4  1  6  0  0  0
  1  2  1  0  0  0  0
  1 19  1  0  0  0  0
  2  6  1  0  0  0  0
  3  1  1  0  0  0  0
  3  2  1  0  0  0  0
  3  7  1  1  0  0  0
  5  2  1  0  0  0  0
  8  3  1  0  0  0  0
  9  8  1  0  0  0  0
  9 10  1  0  0  0  0
 11  9  2  0  0  0  0
 12 14  2  0  0  0  0
 12 11  1  0  0  0  0
 13 12  1  0  0  0  0
 14 16  1  0  0  0  0
 15 14  1  0  0  0  0
 16  8  2  0  0  0  0
 17 23  1  0  0  0  0
 17 22  1  0  0  0  0
 18 17  2  0  0  0  0
 19 18  1  0  0  0  0
 19 20  2  0  0  0  0
 20 21  1  0  0  0  0
 21 22  2  0  0  0  0
 21 24  1  0  0  0  0
 25 26  1  0  0  0  0
 25 18  1  0  0  0  0
 27 25  1  0  0  0  0
M  END
>  <minimizedAffinity>
-4.8266325

>  <minimizedRMSD>
0.805340946

$$$$
