
 OpenBabel03252508153D

 37 40  0  0  1  0  0  0  0  0999 V2000
   45.6680   33.1050   46.2200 C   0  0  0  0  0  0  0  0  0  0  0  0
   45.9610   31.9320   45.8180 C   0  0  0  0  0  0  0  0  0  0  0  0
   44.5490   36.1540   44.4910 C   0  0  0  0  0  0  0  0  0  0  0  0
   45.2220   36.1040   43.2780 C   0  0  0  0  0  0  0  0  0  0  0  0
   46.0490   35.0390   43.0930 C   0  0  0  0  0  0  0  0  0  0  0  0
   46.1830   34.0970   44.0640 N   0  0  0  0  0  0  0  0  0  0  0  0
   45.5200   34.1660   45.2340 C   0  0  0  0  0  0  0  0  0  0  0  0
   44.7150   35.2080   45.4100 N   0  0  0  0  0  0  0  0  0  0  0  0
   43.8790   36.9560   44.7250 H   0  0  0  0  0  0  0  0  0  0  0  0
   45.0840   36.8740   42.5330 H   0  0  0  0  0  0  0  0  0  0  0  0
   46.8180   34.8550   41.8680 C   0  0  0  0  0  0  0  0  0  0  0  0
   48.0510   35.4160   41.6360 C   0  0  0  0  0  0  0  0  0  0  0  0
   48.4980   36.0350   42.3910 H   0  0  0  0  0  0  0  0  0  0  0  0
   48.7730   35.2380   40.4740 C   0  0  0  0  0  0  0  0  0  0  0  0
   48.2530   34.4550   39.4640 C   0  0  0  0  0  0  0  0  0  0  0  0
   48.7750   34.2790   38.5320 H   0  0  0  0  0  0  0  0  0  0  0  0
   47.0180   33.8650   39.6400 C   0  0  0  0  0  0  0  0  0  0  0  0
   46.5360   33.2330   38.8960 H   0  0  0  0  0  0  0  0  0  0  0  0
   46.3480   34.0820   40.8250 C   0  0  0  0  0  0  0  0  0  0  0  0
   46.0890   30.8770   46.9070 C   0  0  0  0  0  0  0  0  0  0  0  0
   47.0640   30.3650   46.8120 H   0  0  0  0  0  0  0  0  0  0  0  0
   45.2130   30.2060   46.7510 H   0  0  0  0  0  0  0  0  0  0  0  0
   45.9070   31.5140   48.2580 C   0  0  1  0  0  0  0  0  0  0  0  0
   45.6940   30.5890   49.4040 C   0  0  0  0  0  0  0  0  0  0  0  0
   46.9420   31.3200   49.3030 C   0  0  1  0  0  0  0  0  0  0  0  0
   45.3750   32.4800   48.2720 H   0  0  0  0  0  0  0  0  0  0  0  0
   44.9300   30.8400   50.1760 H   0  0  0  0  0  0  0  0  0  0  0  0
   45.6820   29.4940   49.1870 H   0  0  0  0  0  0  0  0  0  0  0  0
   47.0530   32.1640   50.0500 H   0  0  0  0  0  0  0  0  0  0  0  0
   48.2460   30.7490   48.8920 C   0  0  0  0  0  0  0  0  0  0  0  0
   49.2010   30.4270   50.0700 C   0  0  0  0  0  0  0  0  0  0  0  0
   49.4900   31.5960   49.2110 C   0  0  0  0  0  0  0  0  0  0  0  0
   48.3100   30.0590   48.0300 H   0  0  0  0  0  0  0  0  0  0  0  0
   48.8470   30.6330   51.0950 H   0  0  0  0  0  0  0  0  0  0  0  0
   49.8030   29.5000   49.9530 H   0  0  0  0  0  0  0  0  0  0  0  0
   49.2940   32.6040   49.6160 H   0  0  0  0  0  0  0  0  0  0  0  0
   50.3140   31.5660   48.4730 H   0  0  0  0  0  0  0  0  0  0  0  0
  2  1  2  0  0  0  0
  2 20  1  0  0  0  0
  3  9  1  0  0  0  0
  3  8  1  0  0  0  0
  4  3  2  0  0  0  0
  5  4  1  0  0  0  0
  5  6  2  0  0  0  0
  6  7  1  0  0  0  0
  7  8  2  0  0  0  0
  7  1  1  0  0  0  0
 10  4  1  0  0  0  0
 11  5  1  0  0  0  0
 12 11  1  0  0  0  0
 12 13  1  0  0  0  0
 14 12  2  0  0  0  0
 15 17  2  0  0  0  0
 15 14  1  0  0  0  0
 16 15  1  0  0  0  0
 17 19  1  0  0  0  0
 18 17  1  0  0  0  0
 19 11  2  0  0  0  0
 20 23  1  0  0  0  0
 21 20  1  0  0  0  0
 22 20  1  0  0  0  0
 23 26  1  1  0  0  0
 23 25  1  0  0  0  0
 23 24  1  0  0  0  0
 24 27  1  0  0  0  0
 25 24  1  0  0  0  0
 25 29  1  1  0  0  0
 28 24  1  0  0  0  0
 30 32  1  0  0  0  0
 30 25  1  0  0  0  0
 30 31  1  0  0  0  0
 31 34  1  0  0  0  0
 32 36  1  0  0  0  0
 32 31  1  0  0  0  0
 33 30  1  0  0  0  0
 35 31  1  0  0  0  0
 37 32  1  0  0  0  0
M  END
>  <minimizedAffinity>
-6.25631332

>  <minimizedRMSD>
0.654500425

$$$$
