
 OpenBabel03242513393D

 34 37  0  0  0  0  0  0  0  0999 V2000
   39.9730   30.5310   41.2490 C   0  0  0  0  0  0  0  0  0  0  0  0
   38.6770   30.1040   41.1050 C   0  0  0  0  0  0  0  0  0  0  0  0
   37.7120   31.0330   40.7470 C   0  0  0  0  0  0  0  0  0  0  0  0
   38.0070   32.3700   40.5290 C   0  0  0  0  0  0  0  0  0  0  0  0
   37.3550   33.4900   40.1870 N   0  0  0  0  0  0  0  0  0  0  0  0
   38.2030   34.5360   40.1260 C   0  0  0  0  0  0  0  0  0  0  0  0
   39.4360   34.0510   40.4430 N   0  0  0  0  0  0  0  0  0  0  0  0
   39.3340   32.7250   40.6920 C   0  0  0  0  0  0  0  0  0  0  0  0
   40.3180   31.8540   41.0440 C   0  0  0  0  0  0  0  0  0  0  0  0
   40.7210   29.8020   41.5300 H   0  0  0  0  0  0  0  0  0  0  0  0
   36.6760   30.7560   40.6180 H   0  0  0  0  0  0  0  0  0  0  0  0
   36.3310   33.5180   39.9990 H   0  0  0  0  0  0  0  0  0  0  0  0
   37.9640   35.5670   39.8760 H   0  0  0  0  0  0  0  0  0  0  0  0
   41.7100   32.2810   41.2040 C   0  0  0  0  0  0  0  0  0  0  0  0
   42.4880   32.9800   40.2830 C   0  0  0  0  0  0  0  0  0  0  0  0
   41.9720   33.2170   39.3560 H   0  0  0  0  0  0  0  0  0  0  0  0
   43.7880   33.2940   40.6190 C   0  0  0  0  0  3  0  0  0  0  0  0
   44.3360   32.9420   41.8240 C   0  0  0  0  0  0  0  0  0  0  0  0
   45.3660   33.2110   42.0440 H   0  0  0  0  0  0  0  0  0  0  0  0
   43.5660   32.2460   42.7460 C   0  0  0  0  0  0  0  0  0  0  0  0
   43.9790   31.9540   43.7120 H   0  0  0  0  0  0  0  0  0  0  0  0
   42.2510   31.9160   42.4320 C   0  0  0  0  0  3  0  0  0  0  0  0
   38.6000   26.4460   40.8560 C   0  0  0  0  0  0  0  0  0  0  0  0
   37.6190   26.0930   41.7650 C   0  0  0  0  0  0  0  0  0  0  0  0
   36.9900   27.1380   42.4600 C   0  0  0  0  0  0  0  0  0  0  0  0
   37.3590   28.4200   42.2200 N   0  0  0  0  0  0  0  0  0  0  0  0
   38.3190   28.7070   41.3240 C   0  0  0  0  0  0  0  0  0  0  0  0
   38.9430   27.7330   40.6400 N   0  0  0  0  0  0  0  0  0  0  0  0
   39.1590   25.7240   40.2570 H   0  0  0  0  0  0  0  0  0  0  0  0
   36.2240   26.8580   43.1700 H   0  0  0  0  0  0  0  0  0  0  0  0
   37.3050   24.6550   41.9390 C   0  0  0  0  0  0  0  0  0  0  0  0
   36.1950   24.6130   42.7590 F   0  0  0  0  0  0  0  0  0  0  0  0
   38.3830   24.0590   42.5600 F   0  0  0  0  0  0  0  0  0  0  0  0
   37.0950   24.0970   40.6970 F   0  0  0  0  0  0  0  0  0  0  0  0
  1 10  1  0  0  0  0
  2  1  1  0  0  0  0
  2 27  1  0  0  0  0
  3  2  2  0  0  0  0
  4  8  2  0  0  0  0
  4  3  1  0  0  0  0
  5  4  1  0  0  0  0
  6  5  1  0  0  0  0
  6  7  2  0  0  0  0
  7  8  1  0  0  0  0
  8  9  1  0  0  0  0
  9 14  1  0  0  0  0
  9  1  2  0  0  0  0
 11  3  1  0  0  0  0
 12  5  1  0  0  0  0
 13  6  1  0  0  0  0
 14 22  1  0  0  0  0
 15 17  1  0  0  0  0
 15 14  2  0  0  0  0
 16 15  1  0  0  0  0
 17 18  2  0  0  0  0
 18 19  1  0  0  0  0
 18 20  1  0  0  0  0
 20 21  1  0  0  0  0
 22 20  2  0  0  0  0
 23 24  1  0  0  0  0
 24 31  1  0  0  0  0
 24 25  2  0  0  0  0
 25 30  1  0  0  0  0
 26 25  1  0  0  0  0
 27 26  2  0  0  0  0
 28 23  2  0  0  0  0
 28 27  1  0  0  0  0
 29 23  1  0  0  0  0
 31 33  1  0  0  0  0
 31 32  1  0  0  0  0
 34 31  1  0  0  0  0
M  END
>  <minimizedAffinity>
-6.00407648

$$$$

 OpenBabel03242513393D

 34 37  0  0  0  0  0  0  0  0999 V2000
   33.2950   29.1900   37.1410 C   0  0  0  0  0  0  0  0  0  0  0  0
   34.0650   28.1140   37.5050 C   0  0  0  0  0  0  0  0  0  0  0  0
   34.0630   26.9940   36.6880 C   0  0  0  0  0  0  0  0  0  0  0  0
   33.3170   26.9220   35.5230 C   0  0  0  0  0  0  0  0  0  0  0  0
   33.0890   26.0390   34.5400 N   0  0  0  0  0  0  0  0  0  0  0  0
   32.2320   26.5470   33.6320 C   0  0  0  0  0  0  0  0  0  0  0  0
   31.9100   27.7980   34.0640 N   0  0  0  0  0  0  0  0  0  0  0  0
   32.5670   28.0440   35.2210 C   0  0  0  0  0  0  0  0  0  0  0  0
   32.5320   29.1670   35.9880 C   0  0  0  0  0  0  0  0  0  0  0  0
   33.3000   30.0600   37.7830 H   0  0  0  0  0  0  0  0  0  0  0  0
   34.6500   26.1180   36.9240 H   0  0  0  0  0  0  0  0  0  0  0  0
   33.5290   25.0950   34.5090 H   0  0  0  0  0  0  0  0  0  0  0  0
   31.8620   26.0640   32.7300 H   0  0  0  0  0  0  0  0  0  0  0  0
   31.7200   30.3300   35.6240 C   0  0  0  0  0  0  0  0  0  0  0  0
   31.7520   31.0370   34.4230 C   0  0  0  0  0  0  0  0  0  0  0  0
   32.4700   30.6540   33.7020 H   0  0  0  0  0  0  0  0  0  0  0  0
   30.9040   32.1130   34.2660 C   0  0  0  0  0  3  0  0  0  0  0  0
   30.0360   32.5080   35.2500 C   0  0  0  0  0  0  0  0  0  0  0  0
   29.3860   33.3630   35.0810 H   0  0  0  0  0  0  0  0  0  0  0  0
   29.9990   31.8070   36.4480 C   0  0  0  0  0  0  0  0  0  0  0  0
   29.3170   32.1010   37.2460 H   0  0  0  0  0  0  0  0  0  0  0  0
   30.8440   30.7170   36.6320 C   0  0  0  0  0  3  0  0  0  0  0  0
   35.4260   29.1260   40.7570 C   0  0  0  0  0  0  0  0  0  0  0  0
   36.3930   28.1680   41.0010 C   0  0  0  0  0  0  0  0  0  0  0  0
   36.5630   27.1730   40.0250 C   0  0  0  0  0  0  0  0  0  0  0  0
   35.7930   27.1890   38.9100 N   0  0  0  0  0  0  0  0  0  0  0  0
   34.8670   28.1450   38.7240 C   0  0  0  0  0  0  0  0  0  0  0  0
   34.6770   29.1130   39.6360 N   0  0  0  0  0  0  0  0  0  0  0  0
   35.2020   29.9480   41.4400 H   0  0  0  0  0  0  0  0  0  0  0  0
   37.3200   26.4260   40.2200 H   0  0  0  0  0  0  0  0  0  0  0  0
   37.1720   28.2570   42.2590 C   0  0  0  0  0  0  0  0  0  0  0  0
   36.4290   27.5800   43.2060 F   0  0  0  0  0  0  0  0  0  0  0  0
   37.2790   29.5900   42.5960 F   0  0  0  0  0  0  0  0  0  0  0  0
   38.4190   27.7130   42.0440 F   0  0  0  0  0  0  0  0  0  0  0  0
  1  2  1  0  0  0  0
  1 10  1  0  0  0  0
  2 27  1  0  0  0  0
  3 11  1  0  0  0  0
  3  2  2  0  0  0  0
  4  3  1  0  0  0  0
  5  4  1  0  0  0  0
  6  7  2  0  0  0  0
  6  5  1  0  0  0  0
  7  8  1  0  0  0  0
  8  4  2  0  0  0  0
  8  9  1  0  0  0  0
  9  1  2  0  0  0  0
 12  5  1  0  0  0  0
 13  6  1  0  0  0  0
 14  9  1  0  0  0  0
 14 22  1  0  0  0  0
 15 14  2  0  0  0  0
 16 15  1  0  0  0  0
 17 15  1  0  0  0  0
 17 18  2  0  0  0  0
 18 20  1  0  0  0  0
 19 18  1  0  0  0  0
 20 22  2  0  0  0  0
 20 21  1  0  0  0  0
 23 24  1  0  0  0  0
 23 29  1  0  0  0  0
 24 31  1  0  0  0  0
 25 30  1  0  0  0  0
 25 24  2  0  0  0  0
 26 25  1  0  0  0  0
 27 26  2  0  0  0  0
 27 28  1  0  0  0  0
 28 23  2  0  0  0  0
 31 33  1  0  0  0  0
 31 32  1  0  0  0  0
 34 31  1  0  0  0  0
M  END
>  <minimizedAffinity>
-5.89758444

$$$$

 OpenBabel03242513393D

 34 37  0  0  0  0  0  0  0  0999 V2000
   40.0370   30.4860   40.9110 C   0  0  0  0  0  0  0  0  0  0  0  0
   38.7270   30.0780   40.9520 C   0  0  0  0  0  0  0  0  0  0  0  0
   37.7350   31.0230   40.7400 C   0  0  0  0  0  0  0  0  0  0  0  0
   38.0160   32.3570   40.4880 C   0  0  0  0  0  0  0  0  0  0  0  0
   37.3390   33.4890   40.2480 N   0  0  0  0  0  0  0  0  0  0  0  0
   38.1850   34.5230   40.0720 C   0  0  0  0  0  0  0  0  0  0  0  0
   39.4430   34.0180   40.2070 N   0  0  0  0  0  0  0  0  0  0  0  0
   39.3580   32.6920   40.4620 C   0  0  0  0  0  0  0  0  0  0  0  0
   40.3690   31.8050   40.6640 C   0  0  0  0  0  0  0  0  0  0  0  0
   40.8060   29.7440   41.0780 H   0  0  0  0  0  0  0  0  0  0  0  0
   36.6870   30.7610   40.7600 H   0  0  0  0  0  0  0  0  0  0  0  0
   36.2990   33.5330   40.2100 H   0  0  0  0  0  0  0  0  0  0  0  0
   37.9290   35.5580   39.8620 H   0  0  0  0  0  0  0  0  0  0  0  0
   41.7760   32.2110   40.6260 C   0  0  0  0  0  0  0  0  0  0  0  0
   42.5300   32.7360   41.6750 C   0  0  0  0  0  0  0  0  0  0  0  0
   41.9790   32.8410   42.6070 H   0  0  0  0  0  0  0  0  0  0  0  0
   43.8490   33.0610   41.4430 C   0  0  0  0  0  3  0  0  0  0  0  0
   44.4400   32.8840   40.2200 C   0  0  0  0  0  0  0  0  0  0  0  0
   45.4840   33.1540   40.0840 H   0  0  0  0  0  0  0  0  0  0  0  0
   43.6950   32.3600   39.1720 C   0  0  0  0  0  0  0  0  0  0  0  0
   44.1420   32.2100   38.1890 H   0  0  0  0  0  0  0  0  0  0  0  0
   42.3610   32.0240   39.3790 C   0  0  0  0  0  3  0  0  0  0  0  0
   37.1650   27.0830   42.3810 C   0  0  0  0  0  0  0  0  0  0  0  0
   37.7640   26.0540   41.6760 C   0  0  0  0  0  0  0  0  0  0  0  0
   38.7110   26.4160   40.7040 C   0  0  0  0  0  0  0  0  0  0  0  0
   38.9960   27.7250   40.5000 N   0  0  0  0  0  0  0  0  0  0  0  0
   38.3830   28.6840   41.2140 C   0  0  0  0  0  0  0  0  0  0  0  0
   37.4720   28.3760   42.1520 N   0  0  0  0  0  0  0  0  0  0  0  0
   36.4150   26.9280   43.1590 H   0  0  0  0  0  0  0  0  0  0  0  0
   39.1770   25.6080   40.1560 H   0  0  0  0  0  0  0  0  0  0  0  0
   37.3680   24.6610   41.9910 C   0  0  0  0  0  0  0  0  0  0  0  0
   36.2230   24.7640   42.7560 F   0  0  0  0  0  0  0  0  0  0  0  0
   38.3860   24.0880   42.7250 F   0  0  0  0  0  0  0  0  0  0  0  0
   37.1830   23.9780   40.8090 F   0  0  0  0  0  0  0  0  0  0  0  0
  1  2  1  0  0  0  0
  1 10  1  0  0  0  0
  2 27  1  0  0  0  0
  3 11  1  0  0  0  0
  3  2  2  0  0  0  0
  4  3  1  0  0  0  0
  5  4  1  0  0  0  0
  6  7  2  0  0  0  0
  6  5  1  0  0  0  0
  7  8  1  0  0  0  0
  8  4  2  0  0  0  0
  8  9  1  0  0  0  0
  9  1  2  0  0  0  0
 12  5  1  0  0  0  0
 13  6  1  0  0  0  0
 14  9  1  0  0  0  0
 14 15  1  0  0  0  0
 15 16  1  0  0  0  0
 17 15  2  0  0  0  0
 18 17  1  0  0  0  0
 19 18  1  0  0  0  0
 20 22  1  0  0  0  0
 20 18  2  0  0  0  0
 21 20  1  0  0  0  0
 22 14  2  0  0  0  0
 23 29  1  0  0  0  0
 24 31  1  0  0  0  0
 24 23  2  0  0  0  0
 25 24  1  0  0  0  0
 26 25  2  0  0  0  0
 26 27  1  0  0  0  0
 27 28  2  0  0  0  0
 28 23  1  0  0  0  0
 30 25  1  0  0  0  0
 31 33  1  0  0  0  0
 31 32  1  0  0  0  0
 34 31  1  0  0  0  0
M  END
>  <minimizedAffinity>
-5.88073015

$$$$

 OpenBabel03242513393D

 34 37  0  0  0  0  0  0  0  0999 V2000
   36.0070   27.3200   39.1470 C   0  0  0  0  0  0  0  0  0  0  0  0
   35.3250   28.5090   39.0840 C   0  0  0  0  0  0  0  0  0  0  0  0
   35.4970   29.4230   40.1120 C   0  0  0  0  0  0  0  0  0  0  0  0
   36.3260   29.1820   41.1950 C   0  0  0  0  0  0  0  0  0  0  0  0
   36.7110   29.8100   42.3150 N   0  0  0  0  0  0  0  0  0  0  0  0
   37.5740   29.0500   43.0180 C   0  0  0  0  0  0  0  0  0  0  0  0
   37.7370   27.8980   42.3090 N   0  0  0  0  0  0  0  0  0  0  0  0
   36.9800   27.9620   41.1900 C   0  0  0  0  0  0  0  0  0  0  0  0
   36.8460   27.0310   40.2070 C   0  0  0  0  0  0  0  0  0  0  0  0
   35.8680   26.6100   38.3430 H   0  0  0  0  0  0  0  0  0  0  0  0
   34.9870   30.3760   40.1160 H   0  0  0  0  0  0  0  0  0  0  0  0
   36.3710   30.7590   42.5800 H   0  0  0  0  0  0  0  0  0  0  0  0
   38.0530   29.2950   43.9630 H   0  0  0  0  0  0  0  0  0  0  0  0
   37.5610   25.7530   40.2480 C   0  0  0  0  0  0  0  0  0  0  0  0
   38.8550   25.4960   39.7970 C   0  0  0  0  0  0  0  0  0  0  0  0
   39.3570   26.3640   39.3760 H   0  0  0  0  0  0  0  0  0  0  0  0
   39.3580   24.2190   39.9220 C   0  0  0  0  0  3  0  0  0  0  0  0
   38.6290   23.1980   40.4720 C   0  0  0  0  0  0  0  0  0  0  0  0
   39.0670   22.2060   40.5490 H   0  0  0  0  0  0  0  0  0  0  0  0
   37.3390   23.4470   40.9240 C   0  0  0  0  0  0  0  0  0  0  0  0
   36.7390   22.6510   41.3660 H   0  0  0  0  0  0  0  0  0  0  0  0
   36.8080   24.7270   40.8090 C   0  0  0  0  0  3  0  0  0  0  0  0
   32.3350   29.3390   37.1300 C   0  0  0  0  0  0  0  0  0  0  0  0
   32.8100   29.3640   35.8310 C   0  0  0  0  0  0  0  0  0  0  0  0
   34.1750   29.0900   35.6470 C   0  0  0  0  0  0  0  0  0  0  0  0
   34.9550   28.8180   36.7220 N   0  0  0  0  0  0  0  0  0  0  0  0
   34.4400   28.8070   37.9630 C   0  0  0  0  0  0  0  0  0  0  0  0
   33.1390   29.0650   38.1770 N   0  0  0  0  0  0  0  0  0  0  0  0
   31.2950   29.5360   37.3980 H   0  0  0  0  0  0  0  0  0  0  0  0
   34.5420   29.1110   34.6300 H   0  0  0  0  0  0  0  0  0  0  0  0
   31.8570   29.6750   34.7390 C   0  0  0  0  0  0  0  0  0  0  0  0
   32.3620   30.7980   34.1130 F   0  0  0  0  0  0  0  0  0  0  0  0
   30.6340   29.9530   35.3110 F   0  0  0  0  0  0  0  0  0  0  0  0
   31.7640   28.5780   33.9110 F   0  0  0  0  0  0  0  0  0  0  0  0
  1  9  1  0  0  0  0
  2  1  2  0  0  0  0
  2  3  1  0  0  0  0
  3 11  1  0  0  0  0
  3  4  2  0  0  0  0
  4  5  1  0  0  0  0
  5 12  1  0  0  0  0
  5  6  1  0  0  0  0
  6 13  1  0  0  0  0
  7  6  2  0  0  0  0
  8  4  1  0  0  0  0
  8  7  1  0  0  0  0
  9 14  1  0  0  0  0
  9  8  2  0  0  0  0
 10  1  1  0  0  0  0
 14 22  1  0  0  0  0
 15 17  1  0  0  0  0
 15 14  2  0  0  0  0
 16 15  1  0  0  0  0
 17 18  2  0  0  0  0
 18 19  1  0  0  0  0
 18 20  1  0  0  0  0
 20 21  1  0  0  0  0
 22 20  2  0  0  0  0
 23 29  1  0  0  0  0
 23 28  1  0  0  0  0
 24 23  2  0  0  0  0
 25 24  1  0  0  0  0
 25 26  2  0  0  0  0
 26 27  1  0  0  0  0
 27 28  2  0  0  0  0
 27  2  1  0  0  0  0
 30 25  1  0  0  0  0
 31 33  1  0  0  0  0
 31 24  1  0  0  0  0
 32 31  1  0  0  0  0
 34 31  1  0  0  0  0
M  END
>  <minimizedAffinity>
-5.8372736

$$$$

 OpenBabel03242513393D

 34 37  0  0  0  0  0  0  0  0999 V2000
   33.3630   29.2720   38.2890 C   0  0  0  0  0  0  0  0  0  0  0  0
   34.5030   28.5110   38.3510 C   0  0  0  0  0  0  0  0  0  0  0  0
   34.7620   27.6260   37.3150 C   0  0  0  0  0  0  0  0  0  0  0  0
   33.9180   27.4840   36.2260 C   0  0  0  0  0  0  0  0  0  0  0  0
   33.8600   26.7610   35.0980 N   0  0  0  0  0  0  0  0  0  0  0  0
   32.7520   27.0640   34.3930 C   0  0  0  0  0  0  0  0  0  0  0  0
   32.0890   28.0150   35.1080 N   0  0  0  0  0  0  0  0  0  0  0  0
   32.7900   28.2840   36.2330 C   0  0  0  0  0  0  0  0  0  0  0  0
   32.4880   29.1670   37.2240 C   0  0  0  0  0  0  0  0  0  0  0  0
   33.1660   29.9600   39.1000 H   0  0  0  0  0  0  0  0  0  0  0  0
   35.6440   27.0010   37.3090 H   0  0  0  0  0  0  0  0  0  0  0  0
   34.5880   26.0660   34.8300 H   0  0  0  0  0  0  0  0  0  0  0  0
   32.4380   26.6410   33.4420 H   0  0  0  0  0  0  0  0  0  0  0  0
   31.2790   29.9920   37.1850 C   0  0  0  0  0  0  0  0  0  0  0  0
   30.2090   29.9620   38.0790 C   0  0  0  0  0  0  0  0  0  0  0  0
   30.3200   29.2330   38.8780 H   0  0  0  0  0  0  0  0  0  0  0  0
   29.1520   30.8230   37.8750 C   0  0  0  0  0  3  0  0  0  0  0  0
   29.1200   31.7040   36.8260 C   0  0  0  0  0  0  0  0  0  0  0  0
   28.2650   32.3640   36.7050 H   0  0  0  0  0  0  0  0  0  0  0  0
   30.1830   31.7390   35.9330 C   0  0  0  0  0  0  0  0  0  0  0  0
   30.1810   32.4310   35.0900 H   0  0  0  0  0  0  0  0  0  0  0  0
   31.2620   30.8810   36.1160 C   0  0  0  0  0  3  0  0  0  0  0  0
   36.3260   29.8500   41.2380 C   0  0  0  0  0  0  0  0  0  0  0  0
   37.1610   28.8040   41.5900 C   0  0  0  0  0  0  0  0  0  0  0  0
   37.0800   27.6360   40.8140 C   0  0  0  0  0  0  0  0  0  0  0  0
   36.2100   27.5800   39.7770 N   0  0  0  0  0  0  0  0  0  0  0  0
   35.4220   28.6260   39.4780 C   0  0  0  0  0  0  0  0  0  0  0  0
   35.4710   29.7600   40.1980 N   0  0  0  0  0  0  0  0  0  0  0  0
   36.2970   30.8060   41.7640 H   0  0  0  0  0  0  0  0  0  0  0  0
   37.7340   26.8220   41.0930 H   0  0  0  0  0  0  0  0  0  0  0  0
   38.0690   28.9880   42.7460 C   0  0  0  0  0  0  0  0  0  0  0  0
   37.3030   28.7310   43.8660 F   0  0  0  0  0  0  0  0  0  0  0  0
   38.4950   30.3000   42.7460 F   0  0  0  0  0  0  0  0  0  0  0  0
   39.1410   28.1340   42.6040 F   0  0  0  0  0  0  0  0  0  0  0  0
  1  2  1  0  0  0  0
  1 10  1  0  0  0  0
  2 27  1  0  0  0  0
  3  2  2  0  0  0  0
  4  8  2  0  0  0  0
  4  3  1  0  0  0  0
  5  4  1  0  0  0  0
  6  5  1  0  0  0  0
  6  7  2  0  0  0  0
  7  8  1  0  0  0  0
  8  9  1  0  0  0  0
  9  1  2  0  0  0  0
 11  3  1  0  0  0  0
 12  5  1  0  0  0  0
 13  6  1  0  0  0  0
 14  9  1  0  0  0  0
 14 15  1  0  0  0  0
 15 16  1  0  0  0  0
 17 15  2  0  0  0  0
 18 17  1  0  0  0  0
 19 18  1  0  0  0  0
 20 22  1  0  0  0  0
 20 18  2  0  0  0  0
 21 20  1  0  0  0  0
 22 14  2  0  0  0  0
 23 24  1  0  0  0  0
 23 29  1  0  0  0  0
 24 31  1  0  0  0  0
 25 30  1  0  0  0  0
 25 24  2  0  0  0  0
 26 25  1  0  0  0  0
 27 26  2  0  0  0  0
 27 28  1  0  0  0  0
 28 23  2  0  0  0  0
 31 33  1  0  0  0  0
 31 32  1  0  0  0  0
 34 31  1  0  0  0  0
M  END
>  <minimizedAffinity>
-5.75187111

$$$$

 OpenBabel03242513393D

 34 37  0  0  0  0  0  0  0  0999 V2000
   36.7770   30.4200   39.3900 C   0  0  0  0  0  0  0  0  0  0  0  0
   35.8240   29.4330   39.3780 C   0  0  0  0  0  0  0  0  0  0  0  0
   35.7090   28.6130   40.4890 C   0  0  0  0  0  0  0  0  0  0  0  0
   36.5170   28.7510   41.6060 C   0  0  0  0  0  0  0  0  0  0  0  0
   36.6740   28.1640   42.8010 N   0  0  0  0  0  0  0  0  0  0  0  0
   37.6640   28.7560   43.4980 C   0  0  0  0  0  0  0  0  0  0  0  0
   38.1460   29.7550   42.7080 N   0  0  0  0  0  0  0  0  0  0  0  0
   37.4540   29.7670   41.5450 C   0  0  0  0  0  0  0  0  0  0  0  0
   37.6090   30.5990   40.4800 C   0  0  0  0  0  0  0  0  0  0  0  0
   36.8630   31.0560   38.5190 H   0  0  0  0  0  0  0  0  0  0  0  0
   34.9760   27.8200   40.5370 H   0  0  0  0  0  0  0  0  0  0  0  0
   36.0950   27.3580   43.1200 H   0  0  0  0  0  0  0  0  0  0  0  0
   38.0180   28.4970   44.4930 H   0  0  0  0  0  0  0  0  0  0  0  0
   38.6180   31.6600   40.4650 C   0  0  0  0  0  0  0  0  0  0  0  0
   40.0040   31.5050   40.4610 C   0  0  0  0  0  0  0  0  0  0  0  0
   40.3330   30.4690   40.4710 H   0  0  0  0  0  0  0  0  0  0  0  0
   40.7950   32.6330   40.4460 C   0  0  0  0  0  3  0  0  0  0  0  0
   40.2660   33.8970   40.4350 C   0  0  0  0  0  0  0  0  0  0  0  0
   40.9300   34.7570   40.4230 H   0  0  0  0  0  0  0  0  0  0  0  0
   38.8860   34.0570   40.4380 C   0  0  0  0  0  0  0  0  0  0  0  0
   38.4400   35.0530   40.4290 H   0  0  0  0  0  0  0  0  0  0  0  0
   38.0640   32.9350   40.4530 C   0  0  0  0  0  3  0  0  0  0  0  0
   34.6400   29.0700   35.9250 C   0  0  0  0  0  0  0  0  0  0  0  0
   33.2760   28.9000   36.0810 C   0  0  0  0  0  0  0  0  0  0  0  0
   32.7790   28.9130   37.3940 C   0  0  0  0  0  0  0  0  0  0  0  0
   33.6320   29.0880   38.4320 N   0  0  0  0  0  0  0  0  0  0  0  0
   34.9500   29.2490   38.2230 C   0  0  0  0  0  0  0  0  0  0  0  0
   35.4620   29.2420   36.9810 N   0  0  0  0  0  0  0  0  0  0  0  0
   35.1430   29.0780   34.9560 H   0  0  0  0  0  0  0  0  0  0  0  0
   31.7120   28.7790   37.5110 H   0  0  0  0  0  0  0  0  0  0  0  0
   32.4460   28.7170   34.8660 C   0  0  0  0  0  0  0  0  0  0  0  0
   32.3630   29.9660   34.2820 F   0  0  0  0  0  0  0  0  0  0  0  0
   31.1970   28.2900   35.2670 F   0  0  0  0  0  0  0  0  0  0  0  0
   33.0440   27.7710   34.0630 F   0  0  0  0  0  0  0  0  0  0  0  0
  1  9  1  0  0  0  0
  2  1  2  0  0  0  0
  2  3  1  0  0  0  0
  3 11  1  0  0  0  0
  3  4  2  0  0  0  0
  4  5  1  0  0  0  0
  5 12  1  0  0  0  0
  5  6  1  0  0  0  0
  6 13  1  0  0  0  0
  7  6  2  0  0  0  0
  8  4  1  0  0  0  0
  8  7  1  0  0  0  0
  9  8  2  0  0  0  0
 10  1  1  0  0  0  0
 14  9  1  0  0  0  0
 15 14  1  0  0  0  0
 15 16  1  0  0  0  0
 17 15  2  0  0  0  0
 18 20  2  0  0  0  0
 18 17  1  0  0  0  0
 19 18  1  0  0  0  0
 20 22  1  0  0  0  0
 21 20  1  0  0  0  0
 22 14  2  0  0  0  0
 23 24  2  0  0  0  0
 23 28  1  0  0  0  0
 24 25  1  0  0  0  0
 25 30  1  0  0  0  0
 25 26  2  0  0  0  0
 27 26  1  0  0  0  0
 27  2  1  0  0  0  0
 28 27  2  0  0  0  0
 29 23  1  0  0  0  0
 31 33  1  0  0  0  0
 31 24  1  0  0  0  0
 32 31  1  0  0  0  0
 34 31  1  0  0  0  0
M  END
>  <minimizedAffinity>
-5.68177319

$$$$

 OpenBabel03242513393D

 34 37  0  0  0  0  0  0  0  0999 V2000
   36.9310   26.8080   38.8030 C   0  0  0  0  0  0  0  0  0  0  0  0
   36.6690   28.1550   38.7640 C   0  0  0  0  0  0  0  0  0  0  0  0
   36.5040   28.8300   39.9640 C   0  0  0  0  0  0  0  0  0  0  0  0
   36.5930   28.1980   41.1940 C   0  0  0  0  0  0  0  0  0  0  0  0
   36.4930   28.5240   42.4900 N   0  0  0  0  0  0  0  0  0  0  0  0
   36.6820   27.4420   43.2720 C   0  0  0  0  0  0  0  0  0  0  0  0
   36.9100   26.3960   42.4300 N   0  0  0  0  0  0  0  0  0  0  0  0
   36.8590   26.8410   41.1530 C   0  0  0  0  0  0  0  0  0  0  0  0
   37.0290   26.1320   40.0050 C   0  0  0  0  0  0  0  0  0  0  0  0
   37.0580   26.2870   37.8640 H   0  0  0  0  0  0  0  0  0  0  0  0
   36.2960   29.8890   39.9960 H   0  0  0  0  0  0  0  0  0  0  0  0
   36.2950   29.4930   42.8200 H   0  0  0  0  0  0  0  0  0  0  0  0
   36.6600   27.4000   44.3580 H   0  0  0  0  0  0  0  0  0  0  0  0
   37.3090   24.6950   40.0160 C   0  0  0  0  0  0  0  0  0  0  0  0
   38.4670   24.0650   40.4720 C   0  0  0  0  0  0  0  0  0  0  0  0
   39.2210   24.7490   40.8550 H   0  0  0  0  0  0  0  0  0  0  0  0
   38.5450   22.6910   40.3990 C   0  0  0  0  0  3  0  0  0  0  0  0
   37.5260   21.9270   39.8940 C   0  0  0  0  0  0  0  0  0  0  0  0
   37.6330   20.8470   39.8560 H   0  0  0  0  0  0  0  0  0  0  0  0
   36.3700   22.5490   39.4380 C   0  0  0  0  0  0  0  0  0  0  0  0
   35.5450   21.9630   39.0320 H   0  0  0  0  0  0  0  0  0  0  0  0
   36.2660   23.9340   39.5000 C   0  0  0  0  0  3  0  0  0  0  0  0
   37.1740   30.6210   36.0970 C   0  0  0  0  0  0  0  0  0  0  0  0
   36.3460   30.1620   35.0890 C   0  0  0  0  0  0  0  0  0  0  0  0
   35.6160   28.9910   35.3480 C   0  0  0  0  0  0  0  0  0  0  0  0
   35.7460   28.3720   36.5470 N   0  0  0  0  0  0  0  0  0  0  0  0
   36.5660   28.8620   37.4920 C   0  0  0  0  0  0  0  0  0  0  0  0
   37.2800   29.9800   37.2790 N   0  0  0  0  0  0  0  0  0  0  0  0
   37.7900   31.5190   36.0140 H   0  0  0  0  0  0  0  0  0  0  0  0
   34.9700   28.6360   34.5570 H   0  0  0  0  0  0  0  0  0  0  0  0
   36.2890   30.9280   33.8210 C   0  0  0  0  0  0  0  0  0  0  0  0
   37.0280   32.0730   34.0450 F   0  0  0  0  0  0  0  0  0  0  0  0
   34.9690   31.2480   33.5790 F   0  0  0  0  0  0  0  0  0  0  0  0
   36.7870   30.1390   32.8080 F   0  0  0  0  0  0  0  0  0  0  0  0
  1  9  1  0  0  0  0
  2  1  2  0  0  0  0
  2  3  1  0  0  0  0
  3 11  1  0  0  0  0
  3  4  2  0  0  0  0
  4  5  1  0  0  0  0
  5 12  1  0  0  0  0
  5  6  1  0  0  0  0
  6 13  1  0  0  0  0
  7  6  2  0  0  0  0
  8  4  1  0  0  0  0
  8  7  1  0  0  0  0
  9 14  1  0  0  0  0
  9  8  2  0  0  0  0
 10  1  1  0  0  0  0
 14 15  1  0  0  0  0
 15 16  1  0  0  0  0
 17 15  2  0  0  0  0
 18 17  1  0  0  0  0
 19 18  1  0  0  0  0
 20 22  1  0  0  0  0
 20 18  2  0  0  0  0
 21 20  1  0  0  0  0
 22 14  2  0  0  0  0
 23 28  1  0  0  0  0
 24 25  1  0  0  0  0
 24 23  2  0  0  0  0
 25 26  2  0  0  0  0
 26 27  1  0  0  0  0
 27  2  1  0  0  0  0
 28 27  2  0  0  0  0
 29 23  1  0  0  0  0
 30 25  1  0  0  0  0
 31 32  1  0  0  0  0
 31 24  1  0  0  0  0
 33 31  1  0  0  0  0
 34 31  1  0  0  0  0
M  END
>  <minimizedAffinity>
-5.66685295

$$$$

 OpenBabel03242513393D

 34 37  0  0  0  0  0  0  0  0999 V2000
   37.0150   28.9230   38.8910 C   0  0  0  0  0  0  0  0  0  0  0  0
   36.7690   29.5410   37.6920 C   0  0  0  0  0  0  0  0  0  0  0  0
   36.9470   30.9130   37.6080 C   0  0  0  0  0  0  0  0  0  0  0  0
   37.3620   31.6790   38.6850 C   0  0  0  0  0  0  0  0  0  0  0  0
   37.6260   32.9670   38.9490 N   0  0  0  0  0  0  0  0  0  0  0  0
   38.0080   33.1240   40.2320 C   0  0  0  0  0  0  0  0  0  0  0  0
   37.9830   31.8830   40.7940 N   0  0  0  0  0  0  0  0  0  0  0  0
   37.5900   30.9870   39.8600 C   0  0  0  0  0  0  0  0  0  0  0  0
   37.4300   29.6430   39.9960 C   0  0  0  0  0  0  0  0  0  0  0  0
   36.8730   27.8520   38.9510 H   0  0  0  0  0  0  0  0  0  0  0  0
   36.7690   31.4540   36.6890 H   0  0  0  0  0  0  0  0  0  0  0  0
   37.5370   33.7230   38.2380 H   0  0  0  0  0  0  0  0  0  0  0  0
   38.2840   34.0490   40.7310 H   0  0  0  0  0  0  0  0  0  0  0  0
   37.6850   28.9550   41.2650 C   0  0  0  0  0  0  0  0  0  0  0  0
   38.9020   28.8520   41.9370 C   0  0  0  0  0  0  0  0  0  0  0  0
   39.7290   29.3480   41.4350 H   0  0  0  0  0  0  0  0  0  0  0  0
   38.9420   28.1580   43.1280 C   0  0  0  0  0  3  0  0  0  0  0  0
   37.8290   27.5700   43.6690 C   0  0  0  0  0  0  0  0  0  0  0  0
   37.9100   27.0340   44.6100 H   0  0  0  0  0  0  0  0  0  0  0  0
   36.6140   27.6710   43.0040 C   0  0  0  0  0  0  0  0  0  0  0  0
   35.7140   27.2120   43.4140 H   0  0  0  0  0  0  0  0  0  0  0  0
   36.5450   28.3650   41.8000 C   0  0  0  0  0  3  0  0  0  0  0  0
   35.5410   26.8020   35.5840 C   0  0  0  0  0  0  0  0  0  0  0  0
   35.5110   27.3710   34.3220 C   0  0  0  0  0  0  0  0  0  0  0  0
   35.9210   28.7090   34.2180 C   0  0  0  0  0  0  0  0  0  0  0  0
   36.3210   29.3770   35.3280 N   0  0  0  0  0  0  0  0  0  0  0  0
   36.3300   28.7750   36.5290 C   0  0  0  0  0  0  0  0  0  0  0  0
   35.9440   27.4960   36.6680 N   0  0  0  0  0  0  0  0  0  0  0  0
   35.2460   25.7720   35.7910 H   0  0  0  0  0  0  0  0  0  0  0  0
   35.8960   29.1490   33.2300 H   0  0  0  0  0  0  0  0  0  0  0  0
   35.0540   26.5370   33.1850 C   0  0  0  0  0  0  0  0  0  0  0  0
   35.5830   25.2810   33.4090 F   0  0  0  0  0  0  0  0  0  0  0  0
   35.5730   27.0780   32.0280 F   0  0  0  0  0  0  0  0  0  0  0  0
   33.6770   26.5570   33.1510 F   0  0  0  0  0  0  0  0  0  0  0  0
  1 10  1  0  0  0  0
  1  9  1  0  0  0  0
  2  1  2  0  0  0  0
  3  2  1  0  0  0  0
  3  4  2  0  0  0  0
  4  5  1  0  0  0  0
  4  8  1  0  0  0  0
  5  6  1  0  0  0  0
  6 13  1  0  0  0  0
  6  7  2  0  0  0  0
  8  9  2  0  0  0  0
  8  7  1  0  0  0  0
  9 14  1  0  0  0  0
 11  3  1  0  0  0  0
 12  5  1  0  0  0  0
 14 22  2  0  0  0  0
 14 15  1  0  0  0  0
 15 17  2  0  0  0  0
 16 15  1  0  0  0  0
 17 18  1  0  0  0  0
 18 19  1  0  0  0  0
 20 21  1  0  0  0  0
 20 18  2  0  0  0  0
 22 20  1  0  0  0  0
 23 29  1  0  0  0  0
 23 28  1  0  0  0  0
 24 23  2  0  0  0  0
 25 24  1  0  0  0  0
 25 26  2  0  0  0  0
 26 27  1  0  0  0  0
 27 28  2  0  0  0  0
 27  2  1  0  0  0  0
 30 25  1  0  0  0  0
 31 32  1  0  0  0  0
 31 24  1  0  0  0  0
 33 31  1  0  0  0  0
 34 31  1  0  0  0  0
M  END
>  <minimizedAffinity>
-5.47310638

$$$$

 OpenBabel03242513393D

 34 37  0  0  0  0  0  0  0  0999 V2000
   36.6220   27.3290   38.9370 C   0  0  0  0  0  0  0  0  0  0  0  0
   35.9910   28.4830   38.5450 C   0  0  0  0  0  0  0  0  0  0  0  0
   34.8230   28.3790   37.8060 C   0  0  0  0  0  0  0  0  0  0  0  0
   34.2710   27.1580   37.4510 C   0  0  0  0  0  0  0  0  0  0  0  0
   33.2040   26.7060   36.7770 N   0  0  0  0  0  0  0  0  0  0  0  0
   33.1870   25.3590   36.7580 C   0  0  0  0  0  0  0  0  0  0  0  0
   34.2870   24.9500   37.4500 N   0  0  0  0  0  0  0  0  0  0  0  0
   34.9620   26.0400   37.8820 C   0  0  0  0  0  0  0  0  0  0  0  0
   36.1120   26.0870   38.6070 C   0  0  0  0  0  0  0  0  0  0  0  0
   37.5340   27.4170   39.5120 H   0  0  0  0  0  0  0  0  0  0  0  0
   34.2830   29.2520   37.4710 H   0  0  0  0  0  0  0  0  0  0  0  0
   32.5010   27.3360   36.3360 H   0  0  0  0  0  0  0  0  0  0  0  0
   32.4480   24.7140   36.2880 H   0  0  0  0  0  0  0  0  0  0  0  0
   36.8070   24.8720   39.0390 C   0  0  0  0  0  0  0  0  0  0  0  0
   37.5080   23.9730   38.2370 C   0  0  0  0  0  0  0  0  0  0  0  0
   37.5180   24.2350   37.1820 H   0  0  0  0  0  0  0  0  0  0  0  0
   38.0990   22.8790   38.8320 C   0  0  0  0  0  3  0  0  0  0  0  0
   38.0200   22.6490   40.1800 C   0  0  0  0  0  0  0  0  0  0  0  0
   38.5020   21.7720   40.6040 H   0  0  0  0  0  0  0  0  0  0  0  0
   37.3230   23.5420   40.9840 C   0  0  0  0  0  0  0  0  0  0  0  0
   37.2460   23.3810   42.0600 H   0  0  0  0  0  0  0  0  0  0  0  0
   36.7170   24.6540   40.4090 C   0  0  0  0  0  3  0  0  0  0  0  0
   37.5560   31.7900   38.2850 C   0  0  0  0  0  0  0  0  0  0  0  0
   37.5480   32.2410   39.5930 C   0  0  0  0  0  0  0  0  0  0  0  0
   36.9940   31.3850   40.5570 C   0  0  0  0  0  0  0  0  0  0  0  0
   36.5020   30.1800   40.1810 N   0  0  0  0  0  0  0  0  0  0  0  0
   36.5360   29.7910   38.8950 C   0  0  0  0  0  0  0  0  0  0  0  0
   37.0580   30.5840   37.9440 N   0  0  0  0  0  0  0  0  0  0  0  0
   37.9590   32.3650   37.4480 H   0  0  0  0  0  0  0  0  0  0  0  0
   36.9890   31.7420   41.5780 H   0  0  0  0  0  0  0  0  0  0  0  0
   38.1160   33.5800   39.8790 C   0  0  0  0  0  0  0  0  0  0  0  0
   39.2920   33.6470   39.1570 F   0  0  0  0  0  0  0  0  0  0  0  0
   38.3780   33.6480   41.2310 F   0  0  0  0  0  0  0  0  0  0  0  0
   37.1920   34.5360   39.5180 F   0  0  0  0  0  0  0  0  0  0  0  0
  1 10  1  0  0  0  0
  2 27  1  0  0  0  0
  2  1  2  0  0  0  0
  3  2  1  0  0  0  0
  4  3  2  0  0  0  0
  4  8  1  0  0  0  0
  5  4  1  0  0  0  0
  6  5  1  0  0  0  0
  6  7  2  0  0  0  0
  7  8  1  0  0  0  0
  8  9  2  0  0  0  0
  9  1  1  0  0  0  0
  9 14  1  0  0  0  0
 11  3  1  0  0  0  0
 12  5  1  0  0  0  0
 13  6  1  0  0  0  0
 14 22  1  0  0  0  0
 15 17  1  0  0  0  0
 15 14  2  0  0  0  0
 16 15  1  0  0  0  0
 17 18  2  0  0  0  0
 18 19  1  0  0  0  0
 18 20  1  0  0  0  0
 20 21  1  0  0  0  0
 22 20  2  0  0  0  0
 23 24  1  0  0  0  0
 24 31  1  0  0  0  0
 24 25  2  0  0  0  0
 25 30  1  0  0  0  0
 26 25  1  0  0  0  0
 27 26  2  0  0  0  0
 28 23  2  0  0  0  0
 28 27  1  0  0  0  0
 29 23  1  0  0  0  0
 31 33  1  0  0  0  0
 32 31  1  0  0  0  0
 34 31  1  0  0  0  0
M  END
>  <minimizedAffinity>
-5.460392

$$$$
