
 OpenBabel03252504143D

 35 37  0  0  0  0  0  0  0  0999 V2000
   47.7790   30.1080   44.9140 F   0  0  0  0  0  0  0  0  0  0  0  0
   47.5760   30.8570   46.0410 C   0  0  0  0  0  0  0  0  0  0  0  0
   46.9370   32.0750   45.9510 C   0  0  0  0  0  0  0  0  0  0  0  0
   46.7720   32.7720   47.1480 C   0  0  0  0  0  0  0  0  0  0  0  0
   47.2260   32.2630   48.3470 C   0  0  0  0  0  0  0  0  0  0  0  0
   47.8650   31.0240   48.3750 C   0  0  0  0  0  0  0  0  0  0  0  0
   48.0560   30.2860   47.2090 C   0  0  0  0  0  0  0  0  0  0  0  0
   46.2660   33.7400   47.0930 H   0  0  0  0  0  0  0  0  0  0  0  0
   47.0680   32.8500   49.2490 H   0  0  0  0  0  0  0  0  0  0  0  0
   48.2130   30.6410   49.3200 H   0  0  0  0  0  0  0  0  0  0  0  0
   48.7230   28.9880   47.2150 C   0  0  0  0  0  0  0  0  0  0  0  0
   50.0990   28.8550   47.0140 C   0  0  0  0  0  0  0  0  0  0  0  0
   50.6920   29.7280   46.8510 H   0  0  0  0  0  0  0  0  0  0  0  0
   50.6930   27.6050   47.0270 C   0  0  0  0  0  0  0  0  0  0  0  0
   49.9320   26.4550   47.2390 C   0  0  0  0  0  0  0  0  0  0  0  0
   50.3960   25.4680   47.2490 H   0  0  0  0  0  0  0  0  0  0  0  0
   48.5550   26.5830   47.4400 C   0  0  0  0  0  0  0  0  0  0  0  0
   47.9190   25.7110   47.6090 H   0  0  0  0  0  0  0  0  0  0  0  0
   47.9600   27.8410   47.4260 C   0  0  0  0  0  0  0  0  0  0  0  0
   46.7730   34.1180   42.9500 C   0  0  0  0  0  0  0  0  0  0  0  0
   45.6520   33.6590   42.2850 C   0  0  0  0  0  0  0  0  0  0  0  0
   44.9290   32.6100   42.8900 C   0  0  0  0  0  0  0  0  0  0  0  0
   45.3640   32.1150   44.0740 N   0  0  0  0  0  0  0  0  0  0  0  0
   46.4640   32.6000   44.6810 C   0  0  0  0  0  0  0  0  0  0  0  0
   47.1620   33.5980   44.1150 N   0  0  0  0  0  0  0  0  0  0  0  0
   44.0520   32.2490   42.3710 H   0  0  0  0  0  0  0  0  0  0  0  0
   45.2400   34.2490   40.9970 C   0  0  0  0  0  0  0  0  0  0  0  0
   44.9240   35.5750   41.1600 F   0  0  0  0  0  0  0  0  0  0  0  0
   46.3570   34.2140   40.1530 F   0  0  0  0  0  0  0  0  0  0  0  0
   44.2110   33.6340   40.3700 F   0  0  0  0  0  0  0  0  0  0  0  0
   47.4690   35.1350   42.3570 O   0  0  0  0  0  0  0  0  0  0  0  0
   48.7850   35.0910   41.8790 C   0  0  0  0  0  0  0  0  0  0  0  0
   49.6280   35.3570   42.9550 F   0  0  0  0  0  0  0  0  0  0  0  0
   49.0400   33.8610   41.3040 F   0  0  0  0  0  0  0  0  0  0  0  0
   49.0060   36.1170   41.0020 F   0  0  0  0  0  0  0  0  0  0  0  0
  1  2  1  0  0  0  0
  2  7  1  0  0  0  0
  3  2  2  0  0  0  0
  3  4  1  0  0  0  0
  4  5  2  0  0  0  0
  5  6  1  0  0  0  0
  5  9  1  0  0  0  0
  6 10  1  0  0  0  0
  7 11  1  0  0  0  0
  7  6  2  0  0  0  0
  8  4  1  0  0  0  0
 11 19  1  0  0  0  0
 12 14  1  0  0  0  0
 12 11  2  0  0  0  0
 13 12  1  0  0  0  0
 14 15  2  0  0  0  0
 15 16  1  0  0  0  0
 15 17  1  0  0  0  0
 17 18  1  0  0  0  0
 19 17  2  0  0  0  0
 20 25  1  0  0  0  0
 21 22  1  0  0  0  0
 21 20  2  0  0  0  0
 22 23  2  0  0  0  0
 23 24  1  0  0  0  0
 24  3  1  0  0  0  0
 25 24  2  0  0  0  0
 26 22  1  0  0  0  0
 27 28  1  0  0  0  0
 27 21  1  0  0  0  0
 29 27  1  0  0  0  0
 30 27  1  0  0  0  0
 31 20  1  0  0  0  0
 32 31  1  0  0  0  0
 32 33  1  0  0  0  0
 34 32  1  0  0  0  0
 35 32  1  0  0  0  0
M  END
>  <minimizedAffinity>
-5.6184864

>  <minimizedRMSD>
0.390995622

$$$$
