
 OpenBabel03242522233D

 28 30  0  0  0  0  0  0  0  0999 V2000
   44.4600   35.8140   44.9260 C   0  0  0  0  0  0  0  0  0  0  0  0
   45.1260   35.7310   43.6950 C   0  0  0  0  0  0  0  0  0  0  0  0
   46.0590   34.7480   43.4220 C   0  0  0  0  0  0  0  0  0  0  0  0
   46.2990   33.8600   44.4220 N   0  0  0  0  0  0  0  0  0  0  0  0
   45.6590   33.9440   45.6010 C   0  0  0  0  0  0  0  0  0  0  0  0
   44.7640   34.8950   45.8430 N   0  0  0  0  0  0  0  0  0  0  0  0
   43.7510   36.6260   45.0210 H   0  0  0  0  0  0  0  0  0  0  0  0
   44.8970   36.4740   42.9170 H   0  0  0  0  0  0  0  0  0  0  0  0
   44.6210   33.1100   41.4630 Cl  0  0  0  0  0  0  0  0  0  0  0  0
   46.1460   33.9090   41.1430 C   0  0  0  0  0  0  0  0  0  0  0  0
   46.7510   34.6650   42.1380 C   0  0  0  0  0  0  0  0  0  0  0  0
   47.9480   35.2730   41.8410 C   0  0  0  0  0  0  0  0  0  0  0  0
   48.5380   35.1440   40.5990 C   0  0  0  0  0  0  0  0  0  0  0  0
   47.8810   34.3710   39.6390 C   0  0  0  0  0  0  0  0  0  0  0  0
   48.6150   34.1930   38.0540 Cl  0  0  0  0  0  0  0  0  0  0  0  0
   46.6860   33.7430   39.8840 C   0  0  0  0  0  0  0  0  0  0  0  0
   48.4100   35.8590   42.6230 H   0  0  0  0  0  0  0  0  0  0  0  0
   49.4860   35.6290   40.3720 H   0  0  0  0  0  0  0  0  0  0  0  0
   46.2000   33.1460   39.1150 H   0  0  0  0  0  0  0  0  0  0  0  0
   45.9720   32.9380   46.6410 C   0  0  0  0  0  0  0  0  0  0  0  0
   47.0670   32.1140   46.4720 C   0  0  0  0  0  0  0  0  0  0  0  0
   47.7100   32.1720   45.6060 H   0  0  0  0  0  0  0  0  0  0  0  0
   47.3140   31.1950   47.4720 C   0  0  0  0  0  0  0  0  0  0  0  0
   46.5480   31.0510   48.6100 C   0  0  0  0  0  0  0  0  0  0  0  0
   46.7560   30.3270   49.3830 H   0  0  0  0  0  0  0  0  0  0  0  0
   45.4520   31.9160   48.7230 C   0  0  0  0  0  0  0  0  0  0  0  0
   44.8220   31.8410   49.6000 H   0  0  0  0  0  0  0  0  0  0  0  0
   45.1330   32.8740   47.7570 C   0  0  0  0  0  0  0  0  0  0  0  0
  1  7  1  0  0  0  0
  1  6  1  0  0  0  0
  2  1  2  0  0  0  0
  3  2  1  0  0  0  0
  3  4  2  0  0  0  0
  4  5  1  0  0  0  0
  5  6  2  0  0  0  0
  5 20  1  0  0  0  0
  8  2  1  0  0  0  0
 10  9  1  0  0  0  0
 10 11  1  0  0  0  0
 11  3  1  0  0  0  0
 12 11  2  0  0  0  0
 12 17  1  0  0  0  0
 13 12  1  0  0  0  0
 14 16  1  0  0  0  0
 14 13  2  0  0  0  0
 15 14  1  0  0  0  0
 16 10  2  0  0  0  0
 18 13  1  0  0  0  0
 19 16  1  0  0  0  0
 20 28  1  0  0  0  0
 21 20  2  0  0  0  0
 21 23  1  0  0  0  0
 22 21  1  0  0  0  0
 23 24  2  0  0  0  0
 24 26  1  0  0  0  0
 24 25  1  0  0  0  0
 26 27  1  0  0  0  0
 28 26  2  0  0  0  0
M  END
>  <minimizedAffinity>
-6.81897831

>  <minimizedRMSD>
0.472654969

$$$$
