
 OpenBabel03252508363D

 31 33  0  0  0  0  0  0  0  0999 V2000
   38.5260   29.0990   41.0640 C   0  0  0  0  0  0  0  0  0  0  0  0
   37.8620   30.1810   40.5520 C   0  0  0  0  0  0  0  0  0  0  0  0
   36.4950   30.1360   40.5540 C   0  0  0  0  0  0  0  0  0  0  0  0
   35.7640   29.0750   41.0360 C   0  0  0  0  0  0  0  0  0  0  0  0
   36.4610   28.0030   41.5430 C   0  0  0  0  0  0  0  0  0  0  0  0
   37.8380   28.0040   41.5610 C   0  0  0  0  0  0  0  0  0  0  0  0
   35.9690   30.9920   40.1490 H   0  0  0  0  0  0  0  0  0  0  0  0
   34.6780   29.1430   40.9900 H   0  0  0  0  0  0  0  0  0  0  0  0
   35.8840   27.1630   41.9250 H   0  0  0  0  0  0  0  0  0  0  0  0
   39.8950   32.4020   38.2740 C   0  0  0  0  0  0  0  0  0  0  0  0
   39.1160   31.3150   38.7190 C   0  0  0  0  0  0  0  0  0  0  0  0
   38.6650   31.2790   40.0530 C   0  0  0  0  0  0  0  0  0  0  0  0
   39.0330   32.3330   40.8200 N   0  0  0  0  0  0  0  0  0  0  0  0
   39.7700   33.3520   40.3790 C   0  0  0  0  0  0  0  0  0  0  0  0
   40.2000   33.3840   39.1100 N   0  0  0  0  0  0  0  0  0  0  0  0
   40.3210   32.3880   36.9270 N   0  0  0  0  0  0  0  0  0  0  0  0
   38.8600   30.5060   38.0470 H   0  0  0  0  0  0  0  0  0  0  0  0
   40.0360   34.1730   41.0430 H   0  0  0  0  0  0  0  0  0  0  0  0
   41.0910   31.7010   36.7130 H   0  0  0  0  0  0  0  0  0  0  0  0
   39.9050   33.0120   36.1980 H   0  0  0  0  0  0  0  0  0  0  0  0
   38.4870   26.8230   42.1190 C   0  0  0  0  0  0  0  0  0  0  0  0
   38.3340   25.6590   41.3950 C   0  0  0  0  0  0  0  0  0  0  0  0
   37.7690   25.6080   40.4670 H   0  0  0  0  0  0  0  0  0  0  0  0
   38.8790   24.4340   41.7680 C   0  0  0  0  0  3  0  0  0  0  0  0
   39.6140   24.3980   42.9360 C   0  0  0  0  0  0  0  0  0  0  0  0
   40.0630   23.4790   43.2800 H   0  0  0  0  0  0  0  0  0  0  0  0
   39.7840   25.5460   43.6790 C   0  0  0  0  0  0  0  0  0  0  0  0
   40.3550   25.5830   44.6110 H   0  0  0  0  0  0  0  0  0  0  0  0
   39.2290   26.7530   43.2800 C   0  0  0  0  0  3  0  0  0  0  0  0
   41.1380   29.0310   41.1250 N   0  0  0  0  0  0  0  0  0  0  0  0
   39.9640   29.0650   41.0990 C   0  0  0  0  0  0  0  0  0  0  0  0
  1 31  1  0  0  0  0
  1  6  1  0  0  0  0
  2  3  1  0  0  0  0
  2  1  2  0  0  0  0
  3  4  2  0  0  0  0
  4  5  1  0  0  0  0
  5  6  2  0  0  0  0
  5  9  1  0  0  0  0
  6 21  1  0  0  0  0
  7  3  1  0  0  0  0
  8  4  1  0  0  0  0
 10 11  2  0  0  0  0
 10 15  1  0  0  0  0
 11 12  1  0  0  0  0
 12  2  1  0  0  0  0
 12 13  2  0  0  0  0
 14 13  1  0  0  0  0
 14 18  1  0  0  0  0
 15 14  2  0  0  0  0
 16 10  1  0  0  0  0
 17 11  1  0  0  0  0
 19 16  1  0  0  0  0
 20 16  1  0  0  0  0
 21 29  1  0  0  0  0
 22 24  1  0  0  0  0
 22 21  2  0  0  0  0
 23 22  1  0  0  0  0
 24 25  2  0  0  0  0
 25 26  1  0  0  0  0
 25 27  1  0  0  0  0
 27 28  1  0  0  0  0
 29 27  2  0  0  0  0
 31 30  3  0  0  0  0
M  END
>  <minimizedAffinity>
-5.66428804

$$$$

 OpenBabel03252508363D

 31 33  0  0  0  0  0  0  0  0999 V2000
   37.8710   28.0620   41.1250 C   0  0  0  0  0  0  0  0  0  0  0  0
   37.8150   29.1330   41.9770 C   0  0  0  0  0  0  0  0  0  0  0  0
   37.3260   28.9080   43.2340 C   0  0  0  0  0  0  0  0  0  0  0  0
   36.8930   27.6810   43.6800 C   0  0  0  0  0  0  0  0  0  0  0  0
   36.9630   26.6260   42.8000 C   0  0  0  0  0  0  0  0  0  0  0  0
   37.4480   26.8050   41.5240 C   0  0  0  0  0  0  0  0  0  0  0  0
   37.2820   29.7550   43.9090 H   0  0  0  0  0  0  0  0  0  0  0  0
   36.5220   27.6130   44.7010 H   0  0  0  0  0  0  0  0  0  0  0  0
   36.6210   25.6540   43.1510 H   0  0  0  0  0  0  0  0  0  0  0  0
   37.8830   32.5710   40.4200 C   0  0  0  0  0  0  0  0  0  0  0  0
   37.3910   31.3410   40.8990 C   0  0  0  0  0  0  0  0  0  0  0  0
   38.2780   30.4090   41.4720 C   0  0  0  0  0  0  0  0  0  0  0  0
   39.5770   30.7930   41.5130 N   0  0  0  0  0  0  0  0  0  0  0  0
   40.0210   31.9630   41.0550 C   0  0  0  0  0  0  0  0  0  0  0  0
   39.1760   32.8480   40.5090 N   0  0  0  0  0  0  0  0  0  0  0  0
   36.9490   33.4690   39.8560 N   0  0  0  0  0  0  0  0  0  0  0  0
   36.3370   31.1020   40.8320 H   0  0  0  0  0  0  0  0  0  0  0  0
   41.0790   32.2170   41.1150 H   0  0  0  0  0  0  0  0  0  0  0  0
   36.5940   33.1980   38.9010 H   0  0  0  0  0  0  0  0  0  0  0  0
   36.6350   34.3380   40.3470 H   0  0  0  0  0  0  0  0  0  0  0  0
   37.4820   25.6260   40.6640 C   0  0  0  0  0  0  0  0  0  0  0  0
   38.5420   24.7690   40.8690 C   0  0  0  0  0  0  0  0  0  0  0  0
   39.3110   24.9440   41.6180 H   0  0  0  0  0  0  0  0  0  0  0  0
   38.7440   23.5960   40.1470 C   0  0  0  0  0  3  0  0  0  0  0  0
   37.8190   23.2870   39.1710 C   0  0  0  0  0  0  0  0  0  0  0  0
   37.9180   22.3920   38.5770 H   0  0  0  0  0  0  0  0  0  0  0  0
   36.7490   24.1260   38.9450 C   0  0  0  0  0  0  0  0  0  0  0  0
   35.9840   23.9370   38.1870 H   0  0  0  0  0  0  0  0  0  0  0  0
   36.5750   25.2880   39.6810 C   0  0  0  0  0  3  0  0  0  0  0  0
   38.7860   28.3340   38.6920 N   0  0  0  0  0  0  0  0  0  0  0  0
   38.3720   28.2120   39.7840 C   0  0  0  0  0  0  0  0  0  0  0  0
  1  6  2  0  0  0  0
  1  2  1  0  0  0  0
  2  3  2  0  0  0  0
  3  4  1  0  0  0  0
  3  7  1  0  0  0  0
  4  8  1  0  0  0  0
  5  9  1  0  0  0  0
  5  4  2  0  0  0  0
  6  5  1  0  0  0  0
 10 15  2  0  0  0  0
 10 11  1  0  0  0  0
 11 12  2  0  0  0  0
 12 13  1  0  0  0  0
 12  2  1  0  0  0  0
 14 18  1  0  0  0  0
 14 13  2  0  0  0  0
 15 14  1  0  0  0  0
 16 20  1  0  0  0  0
 16 10  1  0  0  0  0
 17 11  1  0  0  0  0
 19 16  1  0  0  0  0
 21 22  1  0  0  0  0
 21  6  1  0  0  0  0
 22 23  1  0  0  0  0
 24 22  2  0  0  0  0
 25 24  1  0  0  0  0
 26 25  1  0  0  0  0
 27 25  2  0  0  0  0
 27 29  1  0  0  0  0
 28 27  1  0  0  0  0
 29 21  2  0  0  0  0
 30 31  3  0  0  0  0
 31  1  1  0  0  0  0
M  END
>  <minimizedAffinity>
-5.64543009

$$$$

 OpenBabel03252508363D

 31 33  0  0  0  0  0  0  0  0999 V2000
   38.8640   29.8050   39.3870 C   0  0  0  0  0  0  0  0  0  0  0  0
   38.9230   30.3600   38.1370 C   0  0  0  0  0  0  0  0  0  0  0  0
   37.7420   30.5160   37.4640 C   0  0  0  0  0  0  0  0  0  0  0  0
   36.5170   30.1480   37.9710 C   0  0  0  0  0  0  0  0  0  0  0  0
   36.4920   29.5930   39.2300 C   0  0  0  0  0  0  0  0  0  0  0  0
   37.6560   29.4170   39.9440 C   0  0  0  0  0  0  0  0  0  0  0  0
   37.7880   30.9550   36.4750 H   0  0  0  0  0  0  0  0  0  0  0  0
   35.6390   30.3170   37.3500 H   0  0  0  0  0  0  0  0  0  0  0  0
   35.5240   29.3030   39.6320 H   0  0  0  0  0  0  0  0  0  0  0  0
   41.8910   32.4020   37.0110 C   0  0  0  0  0  0  0  0  0  0  0  0
   40.6100   32.0830   37.5010 C   0  0  0  0  0  0  0  0  0  0  0  0
   40.2300   30.7330   37.6360 C   0  0  0  0  0  0  0  0  0  0  0  0
   41.1670   29.8260   37.2680 N   0  0  0  0  0  0  0  0  0  0  0  0
   42.3740   30.1500   36.8060 C   0  0  0  0  0  0  0  0  0  0  0  0
   42.7330   31.4350   36.6780 N   0  0  0  0  0  0  0  0  0  0  0  0
   42.2200   33.7710   36.8960 N   0  0  0  0  0  0  0  0  0  0  0  0
   39.9120   32.8630   37.7770 H   0  0  0  0  0  0  0  0  0  0  0  0
   43.0870   29.3760   36.5250 H   0  0  0  0  0  0  0  0  0  0  0  0
   41.7500   34.2760   36.0990 H   0  0  0  0  0  0  0  0  0  0  0  0
   42.8810   34.2490   37.5520 H   0  0  0  0  0  0  0  0  0  0  0  0
   37.5280   28.8210   41.2690 C   0  0  0  0  0  0  0  0  0  0  0  0
   37.2150   27.4780   41.2930 C   0  0  0  0  0  0  0  0  0  0  0  0
   37.0700   26.8870   40.3910 H   0  0  0  0  0  0  0  0  0  0  0  0
   37.0510   26.7380   42.4600 C   0  0  0  0  0  3  0  0  0  0  0  0
   37.2160   27.4020   43.6590 C   0  0  0  0  0  0  0  0  0  0  0  0
   37.1020   26.8860   44.5980 H   0  0  0  0  0  0  0  0  0  0  0  0
   37.5290   28.7450   43.6650 C   0  0  0  0  0  0  0  0  0  0  0  0
   37.6710   29.3270   44.5800 H   0  0  0  0  0  0  0  0  0  0  0  0
   37.6860   29.4550   42.4840 C   0  0  0  0  0  3  0  0  0  0  0  0
   41.0320   29.4430   40.8010 N   0  0  0  0  0  0  0  0  0  0  0  0
   40.0590   29.6050   40.1630 C   0  0  0  0  0  0  0  0  0  0  0  0
  1  6  1  0  0  0  0
  1 31  1  0  0  0  0
  2  1  2  0  0  0  0
  3  4  2  0  0  0  0
  3  2  1  0  0  0  0
  4  5  1  0  0  0  0
  5  9  1  0  0  0  0
  5  6  2  0  0  0  0
  6 21  1  0  0  0  0
  7  3  1  0  0  0  0
  8  4  1  0  0  0  0
 10 11  1  0  0  0  0
 11 12  2  0  0  0  0
 11 17  1  0  0  0  0
 12  2  1  0  0  0  0
 13 12  1  0  0  0  0
 14 13  2  0  0  0  0
 15 14  1  0  0  0  0
 15 10  2  0  0  0  0
 16 10  1  0  0  0  0
 16 20  1  0  0  0  0
 18 14  1  0  0  0  0
 19 16  1  0  0  0  0
 21 22  2  0  0  0  0
 21 29  1  0  0  0  0
 22 24  1  0  0  0  0
 23 22  1  0  0  0  0
 24 25  2  0  0  0  0
 25 27  1  0  0  0  0
 25 26  1  0  0  0  0
 27 28  1  0  0  0  0
 29 27  2  0  0  0  0
 31 30  3  0  0  0  0
M  END
>  <minimizedAffinity>
-5.64114857

$$$$

 OpenBabel03252508363D

 31 33  0  0  0  0  0  0  0  0999 V2000
   37.8820   28.9570   40.3440 C   0  0  0  0  0  0  0  0  0  0  0  0
   37.7280   30.3010   40.1320 C   0  0  0  0  0  0  0  0  0  0  0  0
   36.4670   30.8150   40.2600 C   0  0  0  0  0  0  0  0  0  0  0  0
   35.3620   30.0620   40.5840 C   0  0  0  0  0  0  0  0  0  0  0  0
   35.5500   28.7160   40.7900 C   0  0  0  0  0  0  0  0  0  0  0  0
   36.8020   28.1540   40.6720 C   0  0  0  0  0  0  0  0  0  0  0  0
   36.3450   31.8780   40.0930 H   0  0  0  0  0  0  0  0  0  0  0  0
   34.4040   30.5740   40.6590 H   0  0  0  0  0  0  0  0  0  0  0  0
   34.6770   28.1200   41.0470 H   0  0  0  0  0  0  0  0  0  0  0  0
   40.3650   32.1620   38.1740 C   0  0  0  0  0  0  0  0  0  0  0  0
   39.2010   31.4230   38.4620 C   0  0  0  0  0  0  0  0  0  0  0  0
   38.9140   31.0600   39.7920 C   0  0  0  0  0  0  0  0  0  0  0  0
   39.8190   31.4700   40.7140 N   0  0  0  0  0  0  0  0  0  0  0  0
   40.9150   32.1690   40.4200 C   0  0  0  0  0  0  0  0  0  0  0  0
   41.1860   32.5130   39.1540 N   0  0  0  0  0  0  0  0  0  0  0  0
   40.6040   32.4990   36.8230 N   0  0  0  0  0  0  0  0  0  0  0  0
   38.5220   31.1290   37.6710 H   0  0  0  0  0  0  0  0  0  0  0  0
   41.6070   32.4720   41.2050 H   0  0  0  0  0  0  0  0  0  0  0  0
   40.9190   31.6970   36.2150 H   0  0  0  0  0  0  0  0  0  0  0  0
   40.4790   33.4700   36.4540 H   0  0  0  0  0  0  0  0  0  0  0  0
   36.9010   26.7170   40.9100 C   0  0  0  0  0  0  0  0  0  0  0  0
   36.6670   25.9140   39.8150 C   0  0  0  0  0  0  0  0  0  0  0  0
   36.4240   26.3080   38.8310 H   0  0  0  0  0  0  0  0  0  0  0  0
   36.7160   24.5230   39.8460 C   0  0  0  0  0  3  0  0  0  0  0  0
   37.0170   23.9280   41.0550 C   0  0  0  0  0  0  0  0  0  0  0  0
   37.0710   22.8550   41.1460 H   0  0  0  0  0  0  0  0  0  0  0  0
   37.2560   24.7070   42.1660 C   0  0  0  0  0  0  0  0  0  0  0  0
   37.4990   24.2970   43.1500 H   0  0  0  0  0  0  0  0  0  0  0  0
   37.2000   26.0920   42.1020 C   0  0  0  0  0  3  0  0  0  0  0  0
   40.2290   27.8270   40.1310 N   0  0  0  0  0  0  0  0  0  0  0  0
   39.1750   28.3350   40.2300 C   0  0  0  0  0  0  0  0  0  0  0  0
  1  6  1  0  0  0  0
  2  3  1  0  0  0  0
  2  1  2  0  0  0  0
  3  4  2  0  0  0  0
  4  8  1  0  0  0  0
  4  5  1  0  0  0  0
  5  9  1  0  0  0  0
  6  5  2  0  0  0  0
  6 21  1  0  0  0  0
  7  3  1  0  0  0  0
 10 11  2  0  0  0  0
 10 15  1  0  0  0  0
 11 12  1  0  0  0  0
 12  2  1  0  0  0  0
 12 13  2  0  0  0  0
 14 13  1  0  0  0  0
 14 18  1  0  0  0  0
 15 14  2  0  0  0  0
 16 10  1  0  0  0  0
 17 11  1  0  0  0  0
 19 16  1  0  0  0  0
 20 16  1  0  0  0  0
 21 29  1  0  0  0  0
 22 24  1  0  0  0  0
 22 21  2  0  0  0  0
 23 22  1  0  0  0  0
 24 25  2  0  0  0  0
 25 26  1  0  0  0  0
 25 27  1  0  0  0  0
 27 28  1  0  0  0  0
 29 27  2  0  0  0  0
 30 31  3  0  0  0  0
 31  1  1  0  0  0  0
M  END
>  <minimizedAffinity>
-5.5334034

$$$$

 OpenBabel03252508363D

 31 33  0  0  0  0  0  0  0  0999 V2000
   38.1060   30.0580   39.6970 C   0  0  0  0  0  0  0  0  0  0  0  0
   38.1010   31.0030   38.7060 C   0  0  0  0  0  0  0  0  0  0  0  0
   37.1160   30.9150   37.7610 C   0  0  0  0  0  0  0  0  0  0  0  0
   36.1460   29.9400   37.7540 C   0  0  0  0  0  0  0  0  0  0  0  0
   36.1790   29.0060   38.7620 C   0  0  0  0  0  0  0  0  0  0  0  0
   37.1510   29.0540   39.7350 C   0  0  0  0  0  0  0  0  0  0  0  0
   37.1120   31.6630   36.9770 H   0  0  0  0  0  0  0  0  0  0  0  0
   35.4090   29.9640   36.9530 H   0  0  0  0  0  0  0  0  0  0  0  0
   35.4110   28.2340   38.7570 H   0  0  0  0  0  0  0  0  0  0  0  0
   41.1620   33.0460   37.8650 C   0  0  0  0  0  0  0  0  0  0  0  0
   40.1720   32.0470   37.7900 C   0  0  0  0  0  0  0  0  0  0  0  0
   39.1390   32.0130   38.7460 C   0  0  0  0  0  0  0  0  0  0  0  0
   39.1890   32.9830   39.6920 N   0  0  0  0  0  0  0  0  0  0  0  0
   40.1360   33.9200   39.7440 C   0  0  0  0  0  0  0  0  0  0  0  0
   41.1180   33.9500   38.8330 N   0  0  0  0  0  0  0  0  0  0  0  0
   42.1750   33.0340   36.8800 N   0  0  0  0  0  0  0  0  0  0  0  0
   40.1950   31.3020   37.0040 H   0  0  0  0  0  0  0  0  0  0  0  0
   40.1250   34.6760   40.5280 H   0  0  0  0  0  0  0  0  0  0  0  0
   42.8890   32.2670   36.9890 H   0  0  0  0  0  0  0  0  0  0  0  0
   42.2130   33.7330   36.1030 H   0  0  0  0  0  0  0  0  0  0  0  0
   37.1030   28.0200   40.7630 C   0  0  0  0  0  0  0  0  0  0  0  0
   37.5660   26.7780   40.3830 C   0  0  0  0  0  0  0  0  0  0  0  0
   37.9460   26.5660   39.3860 H   0  0  0  0  0  0  0  0  0  0  0  0
   37.5980   25.6690   41.2240 C   0  0  0  0  0  3  0  0  0  0  0  0
   37.1340   25.8390   42.5130 C   0  0  0  0  0  0  0  0  0  0  0  0
   37.1320   25.0190   43.2130 H   0  0  0  0  0  0  0  0  0  0  0  0
   36.6650   27.0690   42.9200 C   0  0  0  0  0  0  0  0  0  0  0  0
   36.2850   27.2680   43.9260 H   0  0  0  0  0  0  0  0  0  0  0  0
   36.6470   28.1560   42.0580 C   0  0  0  0  0  3  0  0  0  0  0  0
   39.9190   30.0960   41.5780 N   0  0  0  0  0  0  0  0  0  0  0  0
   39.1060   30.0770   40.7300 C   0  0  0  0  0  0  0  0  0  0  0  0
  1  6  1  0  0  0  0
  1 31  1  0  0  0  0
  2 12  1  0  0  0  0
  2  1  2  0  0  0  0
  3  2  1  0  0  0  0
  4  3  2  0  0  0  0
  4  5  1  0  0  0  0
  5  6  2  0  0  0  0
  6 21  1  0  0  0  0
  7  3  1  0  0  0  0
  8  4  1  0  0  0  0
  9  5  1  0  0  0  0
 10 15  1  0  0  0  0
 11 10  2  0  0  0  0
 11 12  1  0  0  0  0
 12 13  2  0  0  0  0
 13 14  1  0  0  0  0
 14 18  1  0  0  0  0
 15 14  2  0  0  0  0
 16 19  1  0  0  0  0
 16 10  1  0  0  0  0
 17 11  1  0  0  0  0
 20 16  1  0  0  0  0
 21 29  1  0  0  0  0
 22 21  2  0  0  0  0
 22 24  1  0  0  0  0
 23 22  1  0  0  0  0
 24 25  2  0  0  0  0
 25 27  1  0  0  0  0
 25 26  1  0  0  0  0
 27 28  1  0  0  0  0
 29 27  2  0  0  0  0
 31 30  3  0  0  0  0
M  END
>  <minimizedAffinity>
-5.53271294

$$$$

 OpenBabel03252508363D

 31 33  0  0  0  0  0  0  0  0999 V2000
   38.6240   27.9720   41.5080 C   0  0  0  0  0  0  0  0  0  0  0  0
   38.9810   27.6000   42.7760 C   0  0  0  0  0  0  0  0  0  0  0  0
   37.9720   27.4040   43.6790 C   0  0  0  0  0  0  0  0  0  0  0  0
   36.6380   27.5600   43.3840 C   0  0  0  0  0  0  0  0  0  0  0  0
   36.3120   27.9340   42.1010 C   0  0  0  0  0  0  0  0  0  0  0  0
   37.2940   28.1430   41.1580 C   0  0  0  0  0  0  0  0  0  0  0  0
   38.2550   27.1100   44.6830 H   0  0  0  0  0  0  0  0  0  0  0  0
   35.9170   27.3780   44.1790 H   0  0  0  0  0  0  0  0  0  0  0  0
   35.2570   28.0570   41.8660 H   0  0  0  0  0  0  0  0  0  0  0  0
   42.3790   26.0730   43.3850 C   0  0  0  0  0  0  0  0  0  0  0  0
   41.0000   26.1770   43.1160 C   0  0  0  0  0  0  0  0  0  0  0  0
   40.3950   27.4470   43.0500 C   0  0  0  0  0  0  0  0  0  0  0  0
   41.2250   28.4980   43.2580 N   0  0  0  0  0  0  0  0  0  0  0  0
   42.5280   28.3770   43.5110 C   0  0  0  0  0  0  0  0  0  0  0  0
   43.1020   27.1670   43.5740 N   0  0  0  0  0  0  0  0  0  0  0  0
   42.9340   24.7750   43.4400 N   0  0  0  0  0  0  0  0  0  0  0  0
   40.3980   25.2910   42.9600 H   0  0  0  0  0  0  0  0  0  0  0  0
   43.1470   29.2590   43.6700 H   0  0  0  0  0  0  0  0  0  0  0  0
   42.6870   24.2230   44.3030 H   0  0  0  0  0  0  0  0  0  0  0  0
   43.5440   24.3910   42.6820 H   0  0  0  0  0  0  0  0  0  0  0  0
   36.8500   28.5370   39.8250 C   0  0  0  0  0  0  0  0  0  0  0  0
   36.9710   29.8770   39.5270 C   0  0  0  0  0  0  0  0  0  0  0  0
   37.3690   30.6070   40.2290 H   0  0  0  0  0  0  0  0  0  0  0  0
   36.6000   30.4400   38.3100 C   0  0  0  0  0  3  0  0  0  0  0  0
   36.0810   29.5920   37.3520 C   0  0  0  0  0  0  0  0  0  0  0  0
   35.7750   29.9650   36.3880 H   0  0  0  0  0  0  0  0  0  0  0  0
   35.9490   28.2470   37.6230 C   0  0  0  0  0  0  0  0  0  0  0  0
   35.5460   27.5240   36.9080 H   0  0  0  0  0  0  0  0  0  0  0  0
   36.3290   27.7150   38.8470 C   0  0  0  0  0  3  0  0  0  0  0  0
   40.4320   28.3830   39.6670 N   0  0  0  0  0  0  0  0  0  0  0  0
   39.6210   28.1990   40.4960 C   0  0  0  0  0  0  0  0  0  0  0  0
  1  2  1  0  0  0  0
  2 12  1  0  0  0  0
  2  3  2  0  0  0  0
  3  7  1  0  0  0  0
  4  3  1  0  0  0  0
  4  8  1  0  0  0  0
  5  4  2  0  0  0  0
  6  1  2  0  0  0  0
  6  5  1  0  0  0  0
  9  5  1  0  0  0  0
 10 16  1  0  0  0  0
 10 15  1  0  0  0  0
 11 10  2  0  0  0  0
 12 11  1  0  0  0  0
 12 13  2  0  0  0  0
 13 14  1  0  0  0  0
 14 15  2  0  0  0  0
 14 18  1  0  0  0  0
 16 19  1  0  0  0  0
 17 11  1  0  0  0  0
 20 16  1  0  0  0  0
 21  6  1  0  0  0  0
 22 21  1  0  0  0  0
 22 23  1  0  0  0  0
 24 22  2  0  0  0  0
 25 27  2  0  0  0  0
 25 24  1  0  0  0  0
 26 25  1  0  0  0  0
 27 29  1  0  0  0  0
 28 27  1  0  0  0  0
 29 21  2  0  0  0  0
 30 31  3  0  0  0  0
 31  1  1  0  0  0  0
M  END
>  <minimizedAffinity>
-5.43069506

$$$$

 OpenBabel03252508363D

 31 33  0  0  0  0  0  0  0  0999 V2000
   36.9620   29.3500   39.4580 C   0  0  0  0  0  0  0  0  0  0  0  0
   36.6440   30.2560   38.4810 C   0  0  0  0  0  0  0  0  0  0  0  0
   36.9190   31.5720   38.7340 C   0  0  0  0  0  0  0  0  0  0  0  0
   37.4880   32.0250   39.9010 C   0  0  0  0  0  0  0  0  0  0  0  0
   37.7950   31.0910   40.8620 C   0  0  0  0  0  0  0  0  0  0  0  0
   37.5370   29.7550   40.6520 C   0  0  0  0  0  0  0  0  0  0  0  0
   36.6670   32.2890   37.9610 H   0  0  0  0  0  0  0  0  0  0  0  0
   37.6640   33.0960   39.9980 H   0  0  0  0  0  0  0  0  0  0  0  0
   38.2460   31.4480   41.7850 H   0  0  0  0  0  0  0  0  0  0  0  0
   36.1310   29.2120   34.8900 C   0  0  0  0  0  0  0  0  0  0  0  0
   36.7500   29.7220   36.0480 C   0  0  0  0  0  0  0  0  0  0  0  0
   36.0450   29.7410   37.2670 C   0  0  0  0  0  0  0  0  0  0  0  0
   34.7840   29.2470   37.2170 N   0  0  0  0  0  0  0  0  0  0  0  0
   34.2170   28.7690   36.1100 C   0  0  0  0  0  0  0  0  0  0  0  0
   34.8890   28.7520   34.9510 N   0  0  0  0  0  0  0  0  0  0  0  0
   36.8840   29.2160   33.6940 N   0  0  0  0  0  0  0  0  0  0  0  0
   37.7650   30.1010   36.0120 H   0  0  0  0  0  0  0  0  0  0  0  0
   33.1980   28.3840   36.1300 H   0  0  0  0  0  0  0  0  0  0  0  0
   37.0100   30.1650   33.2530 H   0  0  0  0  0  0  0  0  0  0  0  0
   37.2850   28.3440   33.2780 H   0  0  0  0  0  0  0  0  0  0  0  0
   37.8990   28.8390   41.7290 C   0  0  0  0  0  0  0  0  0  0  0  0
   39.2270   28.4750   41.7820 C   0  0  0  0  0  0  0  0  0  0  0  0
   39.9700   28.8360   41.0750 H   0  0  0  0  0  0  0  0  0  0  0  0
   39.7590   27.6120   42.7360 C   0  0  0  0  0  3  0  0  0  0  0  0
   38.8920   27.1000   43.6800 C   0  0  0  0  0  0  0  0  0  0  0  0
   39.2410   26.4260   44.4460 H   0  0  0  0  0  0  0  0  0  0  0  0
   37.5580   27.4480   43.6510 C   0  0  0  0  0  0  0  0  0  0  0  0
   36.8220   27.0760   44.3680 H   0  0  0  0  0  0  0  0  0  0  0  0
   37.0580   28.3110   42.6870 C   0  0  0  0  0  3  0  0  0  0  0  0
   36.4940   26.8020   39.1190 N   0  0  0  0  0  0  0  0  0  0  0  0
   36.7070   27.9460   39.2740 C   0  0  0  0  0  0  0  0  0  0  0  0
  1  6  1  0  0  0  0
  2  3  1  0  0  0  0
  2  1  2  0  0  0  0
  3  4  2  0  0  0  0
  4  8  1  0  0  0  0
  4  5  1  0  0  0  0
  5  9  1  0  0  0  0
  6  5  2  0  0  0  0
  6 21  1  0  0  0  0
  7  3  1  0  0  0  0
 10 15  2  0  0  0  0
 10 11  1  0  0  0  0
 11 12  2  0  0  0  0
 12  2  1  0  0  0  0
 13 12  1  0  0  0  0
 14 18  1  0  0  0  0
 14 13  2  0  0  0  0
 15 14  1  0  0  0  0
 16 10  1  0  0  0  0
 17 11  1  0  0  0  0
 19 16  1  0  0  0  0
 20 16  1  0  0  0  0
 21 22  2  0  0  0  0
 21 29  1  0  0  0  0
 22 24  1  0  0  0  0
 23 22  1  0  0  0  0
 24 25  2  0  0  0  0
 25 26  1  0  0  0  0
 27 25  1  0  0  0  0
 27 28  1  0  0  0  0
 29 27  2  0  0  0  0
 30 31  3  0  0  0  0
 31  1  1  0  0  0  0
M  END
>  <minimizedAffinity>
-5.41121769

$$$$

 OpenBabel03252508363D

 31 33  0  0  0  0  0  0  0  0999 V2000
   38.3130   28.9890   40.8500 C   0  0  0  0  0  0  0  0  0  0  0  0
   38.3700   30.3520   40.7310 C   0  0  0  0  0  0  0  0  0  0  0  0
   37.1830   31.0310   40.7310 C   0  0  0  0  0  0  0  0  0  0  0  0
   35.9530   30.4250   40.8420 C   0  0  0  0  0  0  0  0  0  0  0  0
   35.9300   29.0550   40.9600 C   0  0  0  0  0  0  0  0  0  0  0  0
   37.1000   28.3290   40.9640 C   0  0  0  0  0  0  0  0  0  0  0  0
   37.2280   32.1100   40.6370 H   0  0  0  0  0  0  0  0  0  0  0  0
   35.0700   31.0630   40.8310 H   0  0  0  0  0  0  0  0  0  0  0  0
   34.9570   28.5750   41.0480 H   0  0  0  0  0  0  0  0  0  0  0  0
   41.6870   31.9340   41.5950 C   0  0  0  0  0  0  0  0  0  0  0  0
   40.4130   31.3530   41.7510 C   0  0  0  0  0  0  0  0  0  0  0  0
   39.6830   30.9540   40.6150 C   0  0  0  0  0  0  0  0  0  0  0  0
   40.2930   31.1720   39.4250 N   0  0  0  0  0  0  0  0  0  0  0  0
   41.5000   31.7240   39.3000 C   0  0  0  0  0  0  0  0  0  0  0  0
   42.1930   32.1040   40.3820 N   0  0  0  0  0  0  0  0  0  0  0  0
   42.3760   32.3160   42.7670 N   0  0  0  0  0  0  0  0  0  0  0  0
   39.9870   31.2090   42.7370 H   0  0  0  0  0  0  0  0  0  0  0  0
   41.9410   31.8750   38.3150 H   0  0  0  0  0  0  0  0  0  0  0  0
   42.0000   33.1790   43.2420 H   0  0  0  0  0  0  0  0  0  0  0  0
   43.1970   31.7830   43.1370 H   0  0  0  0  0  0  0  0  0  0  0  0
   36.9720   26.8810   41.0940 C   0  0  0  0  0  0  0  0  0  0  0  0
   36.6380   26.2050   39.9400 C   0  0  0  0  0  0  0  0  0  0  0  0
   36.4760   26.7030   38.9870 H   0  0  0  0  0  0  0  0  0  0  0  0
   36.4720   24.8250   39.8670 C   0  0  0  0  0  3  0  0  0  0  0  0
   36.6560   24.1040   41.0290 C   0  0  0  0  0  0  0  0  0  0  0  0
   36.5420   23.0320   41.0400 H   0  0  0  0  0  0  0  0  0  0  0  0
   36.9910   24.7540   42.1980 C   0  0  0  0  0  0  0  0  0  0  0  0
   37.1510   24.2400   43.1500 H   0  0  0  0  0  0  0  0  0  0  0  0
   37.1510   26.1310   42.2380 C   0  0  0  0  0  3  0  0  0  0  0  0
   40.4930   27.5480   40.8700 N   0  0  0  0  0  0  0  0  0  0  0  0
   39.5140   28.1970   40.8580 C   0  0  0  0  0  0  0  0  0  0  0  0
  1 31  1  0  0  0  0
  1  6  1  0  0  0  0
  2  3  1  0  0  0  0
  2  1  2  0  0  0  0
  3  4  2  0  0  0  0
  4  5  1  0  0  0  0
  5  6  2  0  0  0  0
  5  9  1  0  0  0  0
  6 21  1  0  0  0  0
  7  3  1  0  0  0  0
  8  4  1  0  0  0  0
 10 11  1  0  0  0  0
 10 16  1  0  0  0  0
 11 17  1  0  0  0  0
 12  2  1  0  0  0  0
 12 11  2  0  0  0  0
 13 12  1  0  0  0  0
 14 13  2  0  0  0  0
 14 15  1  0  0  0  0
 15 10  2  0  0  0  0
 16 20  1  0  0  0  0
 16 19  1  0  0  0  0
 18 14  1  0  0  0  0
 21 29  1  0  0  0  0
 22 21  2  0  0  0  0
 23 22  1  0  0  0  0
 24 22  1  0  0  0  0
 24 25  2  0  0  0  0
 25 26  1  0  0  0  0
 25 27  1  0  0  0  0
 27 29  2  0  0  0  0
 27 28  1  0  0  0  0
 31 30  3  0  0  0  0
M  END
>  <minimizedAffinity>
-5.39628172

$$$$

 OpenBabel03252508363D

 31 33  0  0  0  0  0  0  0  0999 V2000
   39.2240   31.1740   40.6650 C   0  0  0  0  0  0  0  0  0  0  0  0
   39.3830   32.3390   39.9630 C   0  0  0  0  0  0  0  0  0  0  0  0
   38.2480   33.0110   39.6000 C   0  0  0  0  0  0  0  0  0  0  0  0
   36.9760   32.5830   39.8970 C   0  0  0  0  0  0  0  0  0  0  0  0
   36.8500   31.4100   40.6030 C   0  0  0  0  0  0  0  0  0  0  0  0
   37.9640   30.6990   40.9910 C   0  0  0  0  0  0  0  0  0  0  0  0
   38.3740   33.9330   39.0440 H   0  0  0  0  0  0  0  0  0  0  0  0
   36.1420   33.1970   39.5590 H   0  0  0  0  0  0  0  0  0  0  0  0
   35.8430   31.0700   40.8400 H   0  0  0  0  0  0  0  0  0  0  0  0
   42.6450   32.9450   38.1620 C   0  0  0  0  0  0  0  0  0  0  0  0
   41.3240   32.5220   38.4090 C   0  0  0  0  0  0  0  0  0  0  0  0
   40.7380   32.7570   39.6680 C   0  0  0  0  0  0  0  0  0  0  0  0
   41.5270   33.3950   40.5660 N   0  0  0  0  0  0  0  0  0  0  0  0
   42.7750   33.7870   40.3120 C   0  0  0  0  0  0  0  0  0  0  0  0
   43.3310   33.5620   39.1130 N   0  0  0  0  0  0  0  0  0  0  0  0
   43.1830   32.6840   36.8830 N   0  0  0  0  0  0  0  0  0  0  0  0
   40.7520   32.0160   37.6400 H   0  0  0  0  0  0  0  0  0  0  0  0
   43.3630   34.2970   41.0740 H   0  0  0  0  0  0  0  0  0  0  0  0
   43.4340   31.6750   36.7040 H   0  0  0  0  0  0  0  0  0  0  0  0
   43.3230   33.4330   36.1660 H   0  0  0  0  0  0  0  0  0  0  0  0
   37.7290   29.4660   41.7360 C   0  0  0  0  0  0  0  0  0  0  0  0
   37.2920   28.3920   40.9900 C   0  0  0  0  0  0  0  0  0  0  0  0
   37.1280   28.4430   39.9160 H   0  0  0  0  0  0  0  0  0  0  0  0
   37.0140   27.1370   41.5240 C   0  0  0  0  0  3  0  0  0  0  0  0
   37.1930   26.9740   42.8830 C   0  0  0  0  0  0  0  0  0  0  0  0
   36.9950   26.0260   43.3580 H   0  0  0  0  0  0  0  0  0  0  0  0
   37.6280   28.0310   43.6520 C   0  0  0  0  0  0  0  0  0  0  0  0
   37.7890   27.9660   44.7320 H   0  0  0  0  0  0  0  0  0  0  0  0
   37.8970   29.2700   43.0910 C   0  0  0  0  0  3  0  0  0  0  0  0
   41.2960   29.7740   41.4250 N   0  0  0  0  0  0  0  0  0  0  0  0
   40.3640   30.4050   41.0860 C   0  0  0  0  0  0  0  0  0  0  0  0
  1  6  1  0  0  0  0
  1 31  1  0  0  0  0
  2  1  2  0  0  0  0
  3  4  2  0  0  0  0
  3  2  1  0  0  0  0
  4  5  1  0  0  0  0
  5  9  1  0  0  0  0
  5  6  2  0  0  0  0
  6 21  1  0  0  0  0
  7  3  1  0  0  0  0
  8  4  1  0  0  0  0
 10 11  2  0  0  0  0
 10 15  1  0  0  0  0
 11 12  1  0  0  0  0
 12  2  1  0  0  0  0
 12 13  2  0  0  0  0
 14 13  1  0  0  0  0
 14 18  1  0  0  0  0
 15 14  2  0  0  0  0
 16 10  1  0  0  0  0
 17 11  1  0  0  0  0
 19 16  1  0  0  0  0
 20 16  1  0  0  0  0
 21 29  1  0  0  0  0
 22 24  1  0  0  0  0
 22 21  2  0  0  0  0
 23 22  1  0  0  0  0
 24 25  2  0  0  0  0
 25 26  1  0  0  0  0
 25 27  1  0  0  0  0
 27 28  1  0  0  0  0
 29 27  2  0  0  0  0
 31 30  3  0  0  0  0
M  END
>  <minimizedAffinity>
-5.36592579

$$$$
