
 OpenBabel03252509243D

 27 29  0  0  1  0  0  0  0  0999 V2000
   46.9590   34.7740   41.9460 C   0  0  1  0  0  0  0  0  0  0  0  0
   48.3340   35.4850   42.0280 C   0  0  0  0  0  0  0  0  0  0  0  0
   48.1050   33.9860   41.6700 C   0  0  2  0  0  0  0  0  0  0  0  0
   46.2990   35.2160   41.1750 H   0  0  0  0  0  0  0  0  0  0  0  0
   48.6480   36.1000   41.1670 H   0  0  0  0  0  0  0  0  0  0  0  0
   48.7700   35.7130   42.9930 H   0  0  0  0  0  0  0  0  0  0  0  0
   48.5050   33.3010   42.4520 H   0  0  0  0  0  0  0  0  0  0  0  0
   48.3970   33.6030   40.2480 C   0  0  0  0  0  0  0  0  0  0  0  0
   49.0710   32.4250   39.9940 C   0  0  0  0  0  0  0  0  0  0  0  0
   49.3970   31.7670   40.7810 H   0  0  0  0  0  0  0  0  0  0  0  0
   49.3480   32.0610   38.6710 C   0  0  0  0  0  3  0  0  0  0  0  0
   48.9050   32.9450   37.7040 C   0  0  0  0  0  0  0  0  0  0  0  0
   49.1200   32.6630   36.6670 H   0  0  0  0  0  0  0  0  0  0  0  0
   48.2270   34.1340   37.9210 C   0  0  0  0  0  0  0  0  0  0  0  0
   47.9410   34.7270   37.0660 H   0  0  0  0  0  0  0  0  0  0  0  0
   47.9700   34.4610   39.2560 C   0  0  0  0  0  3  0  0  0  0  0  0
   44.6960   35.3650   44.8780 C   0  0  0  0  0  0  0  0  0  0  0  0
   45.3050   35.5650   43.5880 C   0  0  0  0  0  0  0  0  0  0  0  0
   46.3240   34.6950   43.3070 C   0  0  0  0  0  0  0  0  0  0  0  0
   46.7250   33.7190   44.1960 N   0  0  0  0  0  0  0  0  0  0  0  0
   46.1230   33.5740   45.3900 C   0  0  0  0  0  0  0  0  0  0  0  0
   45.1020   34.4050   45.7290 N   0  0  0  0  0  0  0  0  0  0  0  0
   43.8840   36.0260   45.1500 H   0  0  0  0  0  0  0  0  0  0  0  0
   46.5480   32.7690   45.9690 H   0  0  0  0  0  0  0  0  0  0  0  0
   44.8960   36.5900   42.7010 N   0  0  0  0  0  0  0  0  0  0  0  0
   45.2920   37.5100   43.0190 H   0  0  0  0  0  0  0  0  0  0  0  0
   44.3130   36.5830   41.8540 H   0  0  0  0  0  0  0  0  0  0  0  0
  1  4  1  6  0  0  0
  1  2  1  0  0  0  0
  1 19  1  0  0  0  0
  2  6  1  0  0  0  0
  3  1  1  0  0  0  0
  3  2  1  0  0  0  0
  3  7  1  1  0  0  0
  5  2  1  0  0  0  0
  8  3  1  0  0  0  0
  9  8  1  0  0  0  0
  9 10  1  0  0  0  0
 11  9  2  0  0  0  0
 12 14  2  0  0  0  0
 12 11  1  0  0  0  0
 13 12  1  0  0  0  0
 14 16  1  0  0  0  0
 15 14  1  0  0  0  0
 16  8  2  0  0  0  0
 17 23  1  0  0  0  0
 17 22  1  0  0  0  0
 18 17  2  0  0  0  0
 19 18  1  0  0  0  0
 19 20  2  0  0  0  0
 20 21  1  0  0  0  0
 21 22  2  0  0  0  0
 21 24  1  0  0  0  0
 25 26  1  0  0  0  0
 25 18  1  0  0  0  0
 27 25  1  0  0  0  0
M  END
>  <minimizedAffinity>
-5.03575659

>  <minimizedRMSD>
0.882947743

$$$$
