
 OpenBabel03252503133D

 34 37  0  0  0  0  0  0  0  0999 V2000
   46.9290   34.7850   41.8450 C   0  0  0  0  0  0  0  0  0  0  0  0
   48.1410   35.1700   41.9300 O   0  0  0  0  0  0  0  0  0  0  0  0
   45.5060   36.1990   43.2420 C   0  0  0  0  0  0  0  0  0  0  0  0
   46.1420   34.9630   43.0050 C   0  0  0  0  0  0  0  0  0  0  0  0
   45.9230   33.9960   43.9810 C   0  0  0  0  0  0  0  0  0  0  0  0
   45.1640   34.2250   45.0610 N   0  0  0  0  0  0  0  0  0  0  0  0
   44.5710   35.4410   45.2420 C   0  0  0  0  0  0  0  0  0  0  0  0
   44.7440   36.4120   44.3370 N   0  0  0  0  0  0  0  0  0  0  0  0
   45.6200   37.0090   42.5380 H   0  0  0  0  0  0  0  0  0  0  0  0
   43.9670   35.6150   46.1050 H   0  0  0  0  0  0  0  0  0  0  0  0
   46.5230   32.7400   43.8210 C   0  0  0  0  0  0  0  0  0  0  0  0
   47.7730   32.2380   44.0640 C   0  0  0  0  0  0  0  0  0  0  0  0
   48.0900   30.9720   43.8140 C   0  0  0  0  0  0  0  0  0  0  0  0
   47.1130   30.1750   43.2970 C   0  0  0  0  0  0  0  0  0  0  0  0
   45.6730   31.3240   43.1730 S   0  0  0  0  0  0  0  0  0  0  0  0
   48.4920   32.9700   44.4850 H   0  0  0  0  0  0  0  0  0  0  0  0
   49.0550   30.5100   43.9800 H   0  0  0  0  0  0  0  0  0  0  0  0
   47.0870   29.1390   43.0050 H   0  0  0  0  0  0  0  0  0  0  0  0
   46.3310   34.1750   40.6120 C   0  0  0  0  0  0  0  0  0  0  0  0
   44.9950   33.9370   40.3850 C   0  0  0  0  0  0  0  0  0  0  0  0
   44.9400   33.3880   39.1590 N   0  0  0  0  0  0  0  0  0  0  0  0
   46.1930   33.2920   38.6500 C   0  0  0  0  0  0  0  0  0  0  0  0
   47.0750   33.7850   39.5570 N   0  0  0  0  0  0  0  0  0  0  0  0
   44.2290   34.1750   41.1020 H   0  0  0  0  0  0  0  0  0  0  0  0
   44.0200   33.1030   38.7320 H   0  0  0  0  0  0  0  0  0  0  0  0
   46.4990   32.7400   37.3330 C   0  0  0  0  0  0  0  0  0  0  0  0
   45.4790   32.7160   36.3990 C   0  0  0  0  0  0  0  0  0  0  0  0
   44.4760   33.0790   36.5870 H   0  0  0  0  0  0  0  0  0  0  0  0
   45.7400   32.1930   35.1260 C   0  0  0  0  0  0  0  0  0  0  0  0
   47.0170   31.7240   34.8660 C   0  0  0  0  0  0  0  0  0  0  0  0
   47.1460   31.3350   33.8640 H   0  0  0  0  0  0  0  0  0  0  0  0
   48.0240   31.7550   35.8090 C   0  0  0  0  0  0  0  0  0  0  0  0
   49.0140   31.3720   35.5540 H   0  0  0  0  0  0  0  0  0  0  0  0
   47.7730   32.2700   37.0670 C   0  0  0  0  0  0  0  0  0  0  0  0
  1  2  2  0  0  0  0
  1  4  1  0  0  0  0
  3  8  1  0  0  0  0
  4  3  2  0  0  0  0
  4  5  1  0  0  0  0
  5  6  2  0  0  0  0
  6  7  1  0  0  0  0
  7 10  1  0  0  0  0
  8  7  2  0  0  0  0
  9  3  1  0  0  0  0
 11  5  1  0  0  0  0
 11 12  2  0  0  0  0
 12 16  1  0  0  0  0
 13 17  1  0  0  0  0
 13 12  1  0  0  0  0
 14 13  2  0  0  0  0
 15 14  1  0  0  0  0
 15 11  1  0  0  0  0
 18 14  1  0  0  0  0
 19  1  1  0  0  0  0
 20 19  2  0  0  0  0
 20 24  1  0  0  0  0
 21 20  1  0  0  0  0
 22 21  1  0  0  0  0
 22 23  2  0  0  0  0
 23 19  1  0  0  0  0
 25 21  1  0  0  0  0
 26 22  1  0  0  0  0
 27 28  1  0  0  0  0
 27 26  2  0  0  0  0
 29 27  1  0  0  0  0
 30 29  2  0  0  0  0
 30 32  1  0  0  0  0
 31 30  1  0  0  0  0
 32 34  2  0  0  0  0
 33 32  1  0  0  0  0
 34 26  1  0  0  0  0
M  END
>  <minimizedAffinity>
-4.98047543

>  <minimizedRMSD>
0.832177103

$$$$
