
 OpenBabel03242511103D

 43 47  0  0  1  0  0  0  0  0999 V2000
   36.9180   28.8450   41.4420 C   0  0  0  0  0  0  0  0  0  0  0  0
   37.3520   29.1830   42.7150 C   0  0  0  0  0  0  0  0  0  0  0  0
   37.7310   28.2450   43.6740 C   0  0  0  0  0  0  0  0  0  0  0  0
   37.6810   26.8980   43.3640 C   0  0  0  0  0  0  0  0  0  0  0  0
   37.2630   26.5300   42.1310 C   0  0  0  0  0  0  0  0  0  0  0  0
   37.1960   25.1950   41.7880 C   0  0  0  0  0  0  0  0  0  0  0  0
   36.7800   24.7480   40.5670 C   0  0  0  0  0  0  0  0  0  0  0  0
   36.4120   25.7210   39.6470 C   0  0  0  0  0  0  0  0  0  0  0  0
   36.4780   27.0670   39.9840 C   0  0  0  0  0  0  0  0  0  0  0  0
   36.8950   27.4950   41.2080 C   0  0  0  0  0  0  0  0  0  0  0  0
   37.4460   30.1890   43.0870 H   0  0  0  0  0  0  0  0  0  0  0  0
   38.0700   28.5000   44.6680 H   0  0  0  0  0  0  0  0  0  0  0  0
   37.9730   26.1590   44.0980 H   0  0  0  0  0  0  0  0  0  0  0  0
   37.4950   24.4860   42.5420 H   0  0  0  0  0  0  0  0  0  0  0  0
   36.7660   23.6750   40.4040 H   0  0  0  0  0  0  0  0  0  0  0  0
   36.0920   25.2770   38.6970 H   0  0  0  0  0  0  0  0  0  0  0  0
   36.0730   27.8420   38.8260 C   0  0  0  0  0  0  0  0  0  0  0  0
   34.9530   28.5120   38.3880 C   0  0  0  0  0  0  0  0  0  0  0  0
   34.1950   28.4120   39.1580 H   0  0  0  0  0  0  0  0  0  0  0  0
   34.8910   29.1680   37.1860 C   0  0  0  0  0  3  0  0  0  0  0  0
   35.9510   29.2110   36.3140 C   0  0  0  0  0  0  0  0  0  0  0  0
   35.7360   29.7640   35.4250 H   0  0  0  0  0  0  0  0  0  0  0  0
   37.1060   28.5590   36.6920 C   0  0  0  0  0  0  0  0  0  0  0  0
   37.9100   28.6160   35.9850 H   0  0  0  0  0  0  0  0  0  0  0  0
   37.1520   27.8950   37.9200 C   0  0  0  0  0  3  0  0  0  0  0  0
   36.5610   29.8690   40.5610 N   0  0  0  0  0  0  0  0  0  0  0  0
   35.5620   29.6050   40.5930 H   0  0  0  0  0  0  0  0  0  0  0  0
   37.8670   32.0370   40.5760 C   0  0  1  0  0  0  0  0  0  0  0  0
   37.0170   32.0290   39.3220 C   0  0  0  0  0  0  0  0  0  0  0  0
   37.5330   30.7540   39.9750 C   0  0  2  0  0  0  0  0  0  0  0  0
   37.2990   32.4940   41.4310 H   0  0  0  0  0  0  0  0  0  0  0  0
   37.5470   32.3230   38.3940 H   0  0  0  0  0  0  0  0  0  0  0  0
   35.9380   32.2100   39.3730 H   0  0  0  0  0  0  0  0  0  0  0  0
   38.3700   30.2050   39.4910 H   0  0  0  0  0  0  0  0  0  0  0  0
   40.7250   34.1610   39.5700 C   0  0  0  0  0  0  0  0  0  0  0  0
   41.7920   33.5850   40.3250 C   0  0  0  0  0  0  0  0  0  0  0  0
   41.4940   32.4830   41.1670 C   0  0  0  0  0  0  0  0  0  0  0  0
   40.2400   32.0230   41.2290 N   0  0  0  0  0  0  0  0  0  0  0  0
   39.2480   32.5940   40.4990 C   0  0  0  0  0  0  0  0  0  0  0  0
   39.4890   33.6630   39.6700 N   0  0  0  0  0  0  0  0  0  0  0  0
   41.0270   34.9940   38.9510 H   0  0  0  0  0  0  0  0  0  0  0  0
   42.8090   33.9020   40.3190 H   0  0  0  0  0  0  0  0  0  0  0  0
   42.2920   32.0360   41.7440 H   0  0  0  0  0  0  0  0  0  0  0  0
  1  2  1  0  0  0  0
  2 11  1  0  0  0  0
  2  3  2  0  0  0  0
  3 12  1  0  0  0  0
  4  3  1  0  0  0  0
  4 13  1  0  0  0  0
  5  4  2  0  0  0  0
  6  5  1  0  0  0  0
  6 14  1  0  0  0  0
  7  6  2  0  0  0  0
  8  9  2  0  0  0  0
  8  7  1  0  0  0  0
  9 10  1  0  0  0  0
 10  1  2  0  0  0  0
 10  5  1  0  0  0  0
 15  7  1  0  0  0  0
 16  8  1  0  0  0  0
 17  9  1  0  0  0  0
 18 17  1  0  0  0  0
 18 19  1  0  0  0  0
 20 18  2  0  0  0  0
 21 23  2  0  0  0  0
 21 20  1  0  0  0  0
 22 21  1  0  0  0  0
 23 25  1  0  0  0  0
 24 23  1  0  0  0  0
 25 17  2  0  0  0  0
 26 27  1  0  0  0  0
 26  1  1  0  0  0  0
 28 31  1  1  0  0  0
 29 33  1  0  0  0  0
 29 30  1  0  0  0  0
 29 28  1  0  0  0  0
 30 34  1  6  0  0  0
 30 26  1  0  0  0  0
 30 28  1  0  0  0  0
 32 29  1  0  0  0  0
 35 40  2  0  0  0  0
 35 36  1  0  0  0  0
 36 37  2  0  0  0  0
 37 38  1  0  0  0  0
 37 43  1  0  0  0  0
 39 28  1  0  0  0  0
 39 38  2  0  0  0  0
 40 39  1  0  0  0  0
 41 35  1  0  0  0  0
 42 36  1  0  0  0  0
M  END
>  <minimizedAffinity>
-6.48733521

$$$$

 OpenBabel03242511103D

 43 47  0  0  1  0  0  0  0  0999 V2000
   39.0940   28.0650   42.3390 C   0  0  0  0  0  0  0  0  0  0  0  0
   40.2680   28.1810   43.0680 C   0  0  0  0  0  0  0  0  0  0  0  0
   40.9300   27.0950   43.6400 C   0  0  0  0  0  0  0  0  0  0  0  0
   40.4080   25.8230   43.4870 C   0  0  0  0  0  0  0  0  0  0  0  0
   39.2640   25.6720   42.7820 C   0  0  0  0  0  0  0  0  0  0  0  0
   38.7120   24.4180   42.6120 C   0  0  0  0  0  0  0  0  0  0  0  0
   37.5590   24.1880   41.9180 C   0  0  0  0  0  0  0  0  0  0  0  0
   36.9370   25.3010   41.3680 C   0  0  0  0  0  0  0  0  0  0  0  0
   37.4870   26.5660   41.5340 C   0  0  0  0  0  0  0  0  0  0  0  0
   38.6380   26.7770   42.2300 C   0  0  0  0  0  0  0  0  0  0  0  0
   40.7860   29.1050   43.2590 H   0  0  0  0  0  0  0  0  0  0  0  0
   41.8440   27.1770   44.2100 H   0  0  0  0  0  0  0  0  0  0  0  0
   40.9110   24.9720   43.9260 H   0  0  0  0  0  0  0  0  0  0  0  0
   39.2390   23.5930   43.0610 H   0  0  0  0  0  0  0  0  0  0  0  0
   37.2140   23.1610   41.8470 H   0  0  0  0  0  0  0  0  0  0  0  0
   36.0210   25.0270   40.8310 H   0  0  0  0  0  0  0  0  0  0  0  0
   36.6500   27.5170   40.8260 C   0  0  0  0  0  0  0  0  0  0  0  0
   35.7450   28.5070   41.1360 C   0  0  0  0  0  0  0  0  0  0  0  0
   35.6800   28.5570   42.2180 H   0  0  0  0  0  0  0  0  0  0  0  0
   35.0920   29.2530   40.1890 C   0  0  0  0  0  3  0  0  0  0  0  0
   35.2910   29.0720   38.8430 C   0  0  0  0  0  0  0  0  0  0  0  0
   34.7050   29.7360   38.2440 H   0  0  0  0  0  0  0  0  0  0  0  0
   36.1870   28.0950   38.4630 C   0  0  0  0  0  0  0  0  0  0  0  0
   36.3140   27.9850   37.4040 H   0  0  0  0  0  0  0  0  0  0  0  0
   36.8430   27.3430   39.4400 C   0  0  0  0  0  3  0  0  0  0  0  0
   38.5160   29.2220   41.8110 N   0  0  0  0  0  0  0  0  0  0  0  0
   37.6170   29.0410   42.2880 H   0  0  0  0  0  0  0  0  0  0  0  0
   39.0960   31.5400   40.9770 C   0  0  1  0  0  0  0  0  0  0  0  0
   38.4040   30.8110   39.8430 C   0  0  0  0  0  0  0  0  0  0  0  0
   39.2220   30.0910   40.9070 C   0  0  2  0  0  0  0  0  0  0  0  0
   38.3420   32.0720   41.6180 H   0  0  0  0  0  0  0  0  0  0  0  0
   38.8990   30.8990   38.8560 H   0  0  0  0  0  0  0  0  0  0  0  0
   37.3200   30.6500   39.8580 H   0  0  0  0  0  0  0  0  0  0  0  0
   40.2260   29.6980   40.6350 H   0  0  0  0  0  0  0  0  0  0  0  0
   41.1270   34.1600   39.3320 C   0  0  0  0  0  0  0  0  0  0  0  0
   42.3670   34.0450   40.0320 C   0  0  0  0  0  0  0  0  0  0  0  0
   42.4650   33.0710   41.0580 C   0  0  0  0  0  0  0  0  0  0  0  0
   41.4090   32.3000   41.3370 N   0  0  0  0  0  0  0  0  0  0  0  0
   40.2440   32.4350   40.6540 C   0  0  0  0  0  0  0  0  0  0  0  0
   40.1010   33.3650   39.6520 N   0  0  0  0  0  0  0  0  0  0  0  0
   41.1260   34.9210   38.5650 H   0  0  0  0  0  0  0  0  0  0  0  0
   43.2430   34.6250   39.8580 H   0  0  0  0  0  0  0  0  0  0  0  0
   43.3980   32.9720   41.5960 H   0  0  0  0  0  0  0  0  0  0  0  0
  1  2  1  0  0  0  0
  2 11  1  0  0  0  0
  2  3  2  0  0  0  0
  3 12  1  0  0  0  0
  4  3  1  0  0  0  0
  4 13  1  0  0  0  0
  5  4  2  0  0  0  0
  6  5  1  0  0  0  0
  6 14  1  0  0  0  0
  7  6  2  0  0  0  0
  8  9  2  0  0  0  0
  8  7  1  0  0  0  0
  9 10  1  0  0  0  0
 10  1  2  0  0  0  0
 10  5  1  0  0  0  0
 15  7  1  0  0  0  0
 16  8  1  0  0  0  0
 17 18  1  0  0  0  0
 17  9  1  0  0  0  0
 18 19  1  0  0  0  0
 20 18  2  0  0  0  0
 21 20  1  0  0  0  0
 22 21  1  0  0  0  0
 23 21  2  0  0  0  0
 23 25  1  0  0  0  0
 24 23  1  0  0  0  0
 25 17  2  0  0  0  0
 26 27  1  0  0  0  0
 26  1  1  0  0  0  0
 28 31  1  1  0  0  0
 29 33  1  0  0  0  0
 29 30  1  0  0  0  0
 29 28  1  0  0  0  0
 30 34  1  6  0  0  0
 30 28  1  0  0  0  0
 30 26  1  0  0  0  0
 32 29  1  0  0  0  0
 35 40  2  0  0  0  0
 35 36  1  0  0  0  0
 36 37  2  0  0  0  0
 37 38  1  0  0  0  0
 37 43  1  0  0  0  0
 39 28  1  0  0  0  0
 39 38  2  0  0  0  0
 40 39  1  0  0  0  0
 41 35  1  0  0  0  0
 42 36  1  0  0  0  0
M  END
>  <minimizedAffinity>
-6.36316442

$$$$

 OpenBabel03242511103D

 43 47  0  0  1  0  0  0  0  0999 V2000
   36.2390   26.5120   39.2280 C   0  0  0  0  0  0  0  0  0  0  0  0
   35.7230   26.4740   37.9410 C   0  0  0  0  0  0  0  0  0  0  0  0
   35.7160   25.3270   37.1480 C   0  0  0  0  0  0  0  0  0  0  0  0
   36.2450   24.1510   37.6480 C   0  0  0  0  0  0  0  0  0  0  0  0
   36.7580   24.1510   38.9010 C   0  0  0  0  0  0  0  0  0  0  0  0
   37.2990   22.9970   39.4310 C   0  0  0  0  0  0  0  0  0  0  0  0
   37.8380   22.9220   40.6830 C   0  0  0  0  0  0  0  0  0  0  0  0
   37.8220   24.0900   41.4330 C   0  0  0  0  0  0  0  0  0  0  0  0
   37.2790   25.2550   40.9060 C   0  0  0  0  0  0  0  0  0  0  0  0
   36.7450   25.3130   39.6550 C   0  0  0  0  0  0  0  0  0  0  0  0
   35.2750   27.3090   37.4310 H   0  0  0  0  0  0  0  0  0  0  0  0
   35.3160   25.2890   36.1450 H   0  0  0  0  0  0  0  0  0  0  0  0
   36.2460   23.2540   37.0450 H   0  0  0  0  0  0  0  0  0  0  0  0
   37.2820   22.1220   38.8030 H   0  0  0  0  0  0  0  0  0  0  0  0
   38.2360   21.9630   41.0000 H   0  0  0  0  0  0  0  0  0  0  0  0
   38.2730   23.9410   42.4210 H   0  0  0  0  0  0  0  0  0  0  0  0
   37.3670   26.2920   41.9190 C   0  0  0  0  0  0  0  0  0  0  0  0
   36.5370   26.8950   42.8350 C   0  0  0  0  0  0  0  0  0  0  0  0
   35.5620   26.4270   42.7440 H   0  0  0  0  0  0  0  0  0  0  0  0
   36.9470   27.8940   43.6800 C   0  0  0  0  0  3  0  0  0  0  0  0
   38.2330   28.3770   43.6790 C   0  0  0  0  0  0  0  0  0  0  0  0
   38.3850   29.1530   44.3990 H   0  0  0  0  0  0  0  0  0  0  0  0
   39.1180   27.8160   42.7830 C   0  0  0  0  0  0  0  0  0  0  0  0
   40.1100   28.2200   42.8140 H   0  0  0  0  0  0  0  0  0  0  0  0
   38.6830   26.7990   41.9300 C   0  0  0  0  0  3  0  0  0  0  0  0
   36.1950   27.7180   39.9320 N   0  0  0  0  0  0  0  0  0  0  0  0
   35.5000   27.3500   40.6020 H   0  0  0  0  0  0  0  0  0  0  0  0
   36.8890   30.1300   40.2580 C   0  0  1  0  0  0  0  0  0  0  0  0
   36.1960   30.0370   38.9150 C   0  0  0  0  0  0  0  0  0  0  0  0
   36.9580   28.8710   39.5310 C   0  0  2  0  0  0  0  0  0  0  0  0
   36.1420   30.3430   41.0700 H   0  0  0  0  0  0  0  0  0  0  0  0
   36.7180   30.5450   38.0800 H   0  0  0  0  0  0  0  0  0  0  0  0
   35.1060   29.9380   38.8510 H   0  0  0  0  0  0  0  0  0  0  0  0
   37.9510   28.6000   39.1110 H   0  0  0  0  0  0  0  0  0  0  0  0
   38.9420   33.1800   40.6790 C   0  0  0  0  0  0  0  0  0  0  0  0
   40.2660   32.6530   40.5750 C   0  0  0  0  0  0  0  0  0  0  0  0
   40.4140   31.2580   40.3710 C   0  0  0  0  0  0  0  0  0  0  0  0
   39.3250   30.4870   40.2830 N   0  0  0  0  0  0  0  0  0  0  0  0
   38.0800   31.0190   40.3870 C   0  0  0  0  0  0  0  0  0  0  0  0
   37.8870   32.3650   40.5860 N   0  0  0  0  0  0  0  0  0  0  0  0
   38.9080   34.2490   40.8340 H   0  0  0  0  0  0  0  0  0  0  0  0
   41.1710   33.2110   40.6350 H   0  0  0  0  0  0  0  0  0  0  0  0
   41.4090   30.8440   40.2890 H   0  0  0  0  0  0  0  0  0  0  0  0
  1 10  1  0  0  0  0
  1 26  1  0  0  0  0
  2  1  2  0  0  0  0
  3  4  2  0  0  0  0
  3  2  1  0  0  0  0
  4  5  1  0  0  0  0
  5  6  2  0  0  0  0
  5 10  1  0  0  0  0
  6  7  1  0  0  0  0
  7 15  1  0  0  0  0
  7  8  2  0  0  0  0
  8 16  1  0  0  0  0
  9  8  1  0  0  0  0
  9 17  1  0  0  0  0
 10  9  2  0  0  0  0
 11  2  1  0  0  0  0
 12  3  1  0  0  0  0
 13  4  1  0  0  0  0
 14  6  1  0  0  0  0
 17 25  2  0  0  0  0
 17 18  1  0  0  0  0
 18 20  2  0  0  0  0
 19 18  1  0  0  0  0
 21 20  1  0  0  0  0
 21 22  1  0  0  0  0
 23 24  1  0  0  0  0
 23 21  2  0  0  0  0
 25 23  1  0  0  0  0
 26 27  1  0  0  0  0
 28 39  1  0  0  0  0
 28 31  1  1  0  0  0
 29 30  1  0  0  0  0
 29 28  1  0  0  0  0
 30 34  1  6  0  0  0
 30 26  1  0  0  0  0
 30 28  1  0  0  0  0
 32 29  1  0  0  0  0
 33 29  1  0  0  0  0
 35 41  1  0  0  0  0
 36 42  1  0  0  0  0
 36 35  2  0  0  0  0
 37 36  1  0  0  0  0
 38 37  2  0  0  0  0
 38 39  1  0  0  0  0
 39 40  2  0  0  0  0
 40 35  1  0  0  0  0
 43 37  1  0  0  0  0
M  END
>  <minimizedAffinity>
-6.03028774

$$$$

 OpenBabel03242511103D

 43 47  0  0  1  0  0  0  0  0999 V2000
   36.2930   29.0180   39.2650 C   0  0  0  0  0  0  0  0  0  0  0  0
   35.8590   29.7850   38.1940 C   0  0  0  0  0  0  0  0  0  0  0  0
   35.3710   29.2430   37.0060 C   0  0  0  0  0  0  0  0  0  0  0  0
   35.3060   27.8690   36.8610 C   0  0  0  0  0  0  0  0  0  0  0  0
   35.7210   27.0890   37.8860 C   0  0  0  0  0  0  0  0  0  0  0  0
   35.6750   25.7130   37.7750 C   0  0  0  0  0  0  0  0  0  0  0  0
   36.0800   24.8620   38.7630 C   0  0  0  0  0  0  0  0  0  0  0  0
   36.5580   25.4500   39.9270 C   0  0  0  0  0  0  0  0  0  0  0  0
   36.6070   26.8340   40.0450 C   0  0  0  0  0  0  0  0  0  0  0  0
   36.1990   27.6680   39.0490 C   0  0  0  0  0  0  0  0  0  0  0  0
   35.8460   30.8610   38.1720 H   0  0  0  0  0  0  0  0  0  0  0  0
   35.0310   29.8340   36.1670 H   0  0  0  0  0  0  0  0  0  0  0  0
   34.9300   27.4350   35.9450 H   0  0  0  0  0  0  0  0  0  0  0  0
   35.2930   25.3150   36.8500 H   0  0  0  0  0  0  0  0  0  0  0  0
   36.0000   23.7970   38.5700 H   0  0  0  0  0  0  0  0  0  0  0  0
   36.8610   24.6980   40.6640 H   0  0  0  0  0  0  0  0  0  0  0  0
   37.1100   27.1550   41.3680 C   0  0  0  0  0  0  0  0  0  0  0  0
   36.6050   27.5810   42.5750 C   0  0  0  0  0  0  0  0  0  0  0  0
   35.5310   27.6800   42.4590 H   0  0  0  0  0  0  0  0  0  0  0  0
   37.3860   27.8080   43.6800 C   0  0  0  0  0  3  0  0  0  0  0  0
   38.7470   27.6260   43.6700 C   0  0  0  0  0  0  0  0  0  0  0  0
   39.2020   27.8460   44.6120 H   0  0  0  0  0  0  0  0  0  0  0  0
   39.3180   27.2000   42.4890 C   0  0  0  0  0  0  0  0  0  0  0  0
   40.3820   27.0710   42.5220 H   0  0  0  0  0  0  0  0  0  0  0  0
   38.5090   26.9740   41.3730 C   0  0  0  0  0  3  0  0  0  0  0  0
   36.7640   29.6680   40.4080 N   0  0  0  0  0  0  0  0  0  0  0  0
   36.1370   29.1260   41.0260 H   0  0  0  0  0  0  0  0  0  0  0  0
   39.1300   30.4540   39.9730 C   0  0  1  0  0  0  0  0  0  0  0  0
   38.8190   30.7370   41.4290 C   0  0  0  0  0  0  0  0  0  0  0  0
   37.7480   30.7160   40.3470 C   0  0  2  0  0  0  0  0  0  0  0  0
   39.5620   29.4230   39.8590 H   0  0  0  0  0  0  0  0  0  0  0  0
   39.1040   31.7480   41.7820 H   0  0  0  0  0  0  0  0  0  0  0  0
   38.7940   29.9270   42.1660 H   0  0  0  0  0  0  0  0  0  0  0  0
   37.3200   31.6820   39.9990 H   0  0  0  0  0  0  0  0  0  0  0  0
   41.0770   32.0110   37.2390 C   0  0  0  0  0  0  0  0  0  0  0  0
   41.4400   33.2640   37.8210 C   0  0  0  0  0  0  0  0  0  0  0  0
   40.9950   33.5410   39.1390 C   0  0  0  0  0  0  0  0  0  0  0  0
   40.2590   32.6330   39.7890 N   0  0  0  0  0  0  0  0  0  0  0  0
   39.9310   31.4520   39.2070 C   0  0  0  0  0  0  0  0  0  0  0  0
   40.3380   31.1400   37.9320 N   0  0  0  0  0  0  0  0  0  0  0  0
   41.4510   31.8700   36.2350 H   0  0  0  0  0  0  0  0  0  0  0  0
   42.0210   34.0270   37.3590 H   0  0  0  0  0  0  0  0  0  0  0  0
   41.2620   34.4850   39.5930 H   0  0  0  0  0  0  0  0  0  0  0  0
  1 26  1  0  0  0  0
  2  1  2  0  0  0  0
  3  2  1  0  0  0  0
  4  3  2  0  0  0  0
  4  5  1  0  0  0  0
  5 10  1  0  0  0  0
  6  5  2  0  0  0  0
  6  7  1  0  0  0  0
  7  8  2  0  0  0  0
  8  9  1  0  0  0  0
  8 16  1  0  0  0  0
  9 17  1  0  0  0  0
 10  1  1  0  0  0  0
 10  9  2  0  0  0  0
 11  2  1  0  0  0  0
 12  3  1  0  0  0  0
 13  4  1  0  0  0  0
 14  6  1  0  0  0  0
 15  7  1  0  0  0  0
 17 25  2  0  0  0  0
 17 18  1  0  0  0  0
 18 20  2  0  0  0  0
 19 18  1  0  0  0  0
 21 20  1  0  0  0  0
 21 22  1  0  0  0  0
 23 24  1  0  0  0  0
 23 21  2  0  0  0  0
 25 23  1  0  0  0  0
 26 27  1  0  0  0  0
 28 31  1  6  0  0  0
 28 30  1  0  0  0  0
 28 29  1  0  0  0  0
 29 32  1  0  0  0  0
 29 33  1  0  0  0  0
 30 34  1  6  0  0  0
 30 26  1  0  0  0  0
 30 29  1  0  0  0  0
 35 36  2  0  0  0  0
 35 40  1  0  0  0  0
 36 37  1  0  0  0  0
 37 43  1  0  0  0  0
 37 38  2  0  0  0  0
 39 38  1  0  0  0  0
 39 28  1  0  0  0  0
 40 39  2  0  0  0  0
 41 35  1  0  0  0  0
 42 36  1  0  0  0  0
M  END
>  <minimizedAffinity>
-5.96435118

$$$$

 OpenBabel03242511103D

 43 47  0  0  1  0  0  0  0  0999 V2000
   36.0920   28.3740   40.4990 C   0  0  0  0  0  0  0  0  0  0  0  0
   35.1010   29.2150   40.0140 C   0  0  0  0  0  0  0  0  0  0  0  0
   34.4380   29.0070   38.8060 C   0  0  0  0  0  0  0  0  0  0  0  0
   34.7660   27.9100   38.0300 C   0  0  0  0  0  0  0  0  0  0  0  0
   35.7280   27.0670   38.4720 C   0  0  0  0  0  0  0  0  0  0  0  0
   36.0850   25.9650   37.7210 C   0  0  0  0  0  0  0  0  0  0  0  0
   37.0490   25.0740   38.0990 C   0  0  0  0  0  0  0  0  0  0  0  0
   37.6810   25.3250   39.3100 C   0  0  0  0  0  0  0  0  0  0  0  0
   37.3260   26.4320   40.0700 C   0  0  0  0  0  0  0  0  0  0  0  0
   36.3630   27.3110   39.6780 C   0  0  0  0  0  0  0  0  0  0  0  0
   34.7420   30.0970   40.5150 H   0  0  0  0  0  0  0  0  0  0  0  0
   33.6650   29.6570   38.4210 H   0  0  0  0  0  0  0  0  0  0  0  0
   34.2600   27.7360   37.0910 H   0  0  0  0  0  0  0  0  0  0  0  0
   35.5600   25.8210   36.7920 H   0  0  0  0  0  0  0  0  0  0  0  0
   37.2500   24.2410   37.4320 H   0  0  0  0  0  0  0  0  0  0  0  0
   38.4380   24.5650   39.5350 H   0  0  0  0  0  0  0  0  0  0  0  0
   38.1190   26.4160   41.2860 C   0  0  0  0  0  0  0  0  0  0  0  0
   37.9200   26.2030   42.6310 C   0  0  0  0  0  0  0  0  0  0  0  0
   36.8670   25.9790   42.7690 H   0  0  0  0  0  0  0  0  0  0  0  0
   38.9250   26.2710   43.5610 C   0  0  0  0  0  3  0  0  0  0  0  0
   40.2240   26.5600   43.2220 C   0  0  0  0  0  0  0  0  0  0  0  0
   40.8800   26.5720   44.0660 H   0  0  0  0  0  0  0  0  0  0  0  0
   40.4930   26.7850   41.8890 C   0  0  0  0  0  0  0  0  0  0  0  0
   41.5180   27.0070   41.6660 H   0  0  0  0  0  0  0  0  0  0  0  0
   39.4580   26.7130   40.9540 C   0  0  0  0  0  3  0  0  0  0  0  0
   36.6910   28.6800   41.7230 N   0  0  0  0  0  0  0  0  0  0  0  0
   36.3760   27.7920   42.1480 H   0  0  0  0  0  0  0  0  0  0  0  0
   38.6540   30.2270   41.3220 C   0  0  1  0  0  0  0  0  0  0  0  0
   38.6470   29.8790   42.7970 C   0  0  0  0  0  0  0  0  0  0  0  0
   37.3790   29.9230   41.9540 C   0  0  2  0  0  0  0  0  0  0  0  0
   39.2610   29.4770   40.7460 H   0  0  0  0  0  0  0  0  0  0  0  0
   38.7790   30.7380   43.4830 H   0  0  0  0  0  0  0  0  0  0  0  0
   38.9760   28.8930   43.1430 H   0  0  0  0  0  0  0  0  0  0  0  0
   36.6790   30.7780   42.0850 H   0  0  0  0  0  0  0  0  0  0  0  0
   38.3040   33.7330   40.1910 C   0  0  0  0  0  0  0  0  0  0  0  0
   39.6680   34.1550   40.1340 C   0  0  0  0  0  0  0  0  0  0  0  0
   40.6710   33.2190   40.4950 C   0  0  0  0  0  0  0  0  0  0  0  0
   40.3150   31.9870   40.8740 N   0  0  0  0  0  0  0  0  0  0  0  0
   39.0100   31.6180   40.9190 C   0  0  0  0  0  0  0  0  0  0  0  0
   38.0030   32.4900   40.5780 N   0  0  0  0  0  0  0  0  0  0  0  0
   37.5970   34.4970   39.9010 H   0  0  0  0  0  0  0  0  0  0  0  0
   40.0160   35.1170   39.8410 H   0  0  0  0  0  0  0  0  0  0  0  0
   41.7070   33.5240   40.4570 H   0  0  0  0  0  0  0  0  0  0  0  0
  1 26  1  0  0  0  0
  2  1  1  0  0  0  0
  2 11  1  0  0  0  0
  3  2  2  0  0  0  0
  4  5  2  0  0  0  0
  4  3  1  0  0  0  0
  5 10  1  0  0  0  0
  6  7  2  0  0  0  0
  6  5  1  0  0  0  0
  7  8  1  0  0  0  0
  8 16  1  0  0  0  0
  8  9  2  0  0  0  0
  9 17  1  0  0  0  0
 10  9  1  0  0  0  0
 10  1  2  0  0  0  0
 12  3  1  0  0  0  0
 13  4  1  0  0  0  0
 14  6  1  0  0  0  0
 15  7  1  0  0  0  0
 17 18  1  0  0  0  0
 18 19  1  0  0  0  0
 18 20  2  0  0  0  0
 21 20  1  0  0  0  0
 21 22  1  0  0  0  0
 23 21  2  0  0  0  0
 24 23  1  0  0  0  0
 25 17  2  0  0  0  0
 25 23  1  0  0  0  0
 26 30  1  0  0  0  0
 26 27  1  0  0  0  0
 28 31  1  6  0  0  0
 28 30  1  0  0  0  0
 28 29  1  0  0  0  0
 29 33  1  0  0  0  0
 29 32  1  0  0  0  0
 30 34  1  1  0  0  0
 30 29  1  0  0  0  0
 35 40  1  0  0  0  0
 36 35  2  0  0  0  0
 36 37  1  0  0  0  0
 37 38  2  0  0  0  0
 38 39  1  0  0  0  0
 39 28  1  0  0  0  0
 40 39  2  0  0  0  0
 41 35  1  0  0  0  0
 42 36  1  0  0  0  0
 43 37  1  0  0  0  0
M  END
>  <minimizedAffinity>
-5.94698334

$$$$

 OpenBabel03242511103D

 43 47  0  0  1  0  0  0  0  0999 V2000
   37.1060   26.9110   39.8280 C   0  0  0  0  0  0  0  0  0  0  0  0
   36.9370   25.5360   39.7560 C   0  0  0  0  0  0  0  0  0  0  0  0
   36.8670   24.7090   40.8770 C   0  0  0  0  0  0  0  0  0  0  0  0
   36.9680   25.2650   42.1390 C   0  0  0  0  0  0  0  0  0  0  0  0
   37.1340   26.6030   42.2480 C   0  0  0  0  0  0  0  0  0  0  0  0
   37.2440   27.1920   43.4920 C   0  0  0  0  0  0  0  0  0  0  0  0
   37.4180   28.5330   43.6800 C   0  0  0  0  0  0  0  0  0  0  0  0
   37.4820   29.3140   42.5330 C   0  0  0  0  0  0  0  0  0  0  0  0
   37.3720   28.7290   41.2790 C   0  0  0  0  0  0  0  0  0  0  0  0
   37.1990   27.3890   41.1090 C   0  0  0  0  0  0  0  0  0  0  0  0
   36.8360   24.9750   38.8440 H   0  0  0  0  0  0  0  0  0  0  0  0
   36.7350   23.6380   40.8290 H   0  0  0  0  0  0  0  0  0  0  0  0
   36.9160   24.6360   43.0170 H   0  0  0  0  0  0  0  0  0  0  0  0
   37.1860   26.5360   44.3440 H   0  0  0  0  0  0  0  0  0  0  0  0
   37.4920   28.8900   44.7030 H   0  0  0  0  0  0  0  0  0  0  0  0
   37.6230   30.3740   42.7750 H   0  0  0  0  0  0  0  0  0  0  0  0
   37.4370   29.7820   40.2820 C   0  0  0  0  0  0  0  0  0  0  0  0
   36.5780   30.4270   39.4220 C   0  0  0  0  0  0  0  0  0  0  0  0
   35.5910   30.0020   39.5740 H   0  0  0  0  0  0  0  0  0  0  0  0
   36.9760   31.4210   38.5660 C   0  0  0  0  0  3  0  0  0  0  0  0
   38.2760   31.8580   38.4970 C   0  0  0  0  0  0  0  0  0  0  0  0
   38.4150   32.6380   37.7790 H   0  0  0  0  0  0  0  0  0  0  0  0
   39.1900   31.2530   39.3340 C   0  0  0  0  0  0  0  0  0  0  0  0
   40.1930   31.6220   39.2510 H   0  0  0  0  0  0  0  0  0  0  0  0
   38.7680   30.2420   40.2000 C   0  0  0  0  0  3  0  0  0  0  0  0
   37.1640   27.6420   38.6390 N   0  0  0  0  0  0  0  0  0  0  0  0
   36.3630   28.2340   38.9150 H   0  0  0  0  0  0  0  0  0  0  0  0
   39.1750   28.2780   37.2390 C   0  0  1  0  0  0  0  0  0  0  0  0
   37.9970   28.1280   36.2980 C   0  0  0  0  0  0  0  0  0  0  0  0
   38.1150   27.3470   37.6000 C   0  0  2  0  0  0  0  0  0  0  0  0
   39.2380   29.3320   37.6220 H   0  0  0  0  0  0  0  0  0  0  0  0
   38.1990   27.5390   35.3820 H   0  0  0  0  0  0  0  0  0  0  0  0
   37.2160   28.8950   36.2490 H   0  0  0  0  0  0  0  0  0  0  0  0
   38.3740   26.2670   37.5540 H   0  0  0  0  0  0  0  0  0  0  0  0
   41.8870   26.0010   36.1670 C   0  0  0  0  0  0  0  0  0  0  0  0
   42.9810   26.9070   36.0140 C   0  0  0  0  0  0  0  0  0  0  0  0
   42.7500   28.2810   36.2780 C   0  0  0  0  0  0  0  0  0  0  0  0
   41.5310   28.6820   36.6560 N   0  0  0  0  0  0  0  0  0  0  0  0
   40.5130   27.7960   36.7910 C   0  0  0  0  0  0  0  0  0  0  0  0
   40.6890   26.4550   36.5460 N   0  0  0  0  0  0  0  0  0  0  0  0
   42.1380   24.9720   35.9500 H   0  0  0  0  0  0  0  0  0  0  0  0
   43.9710   26.6530   35.7180 H   0  0  0  0  0  0  0  0  0  0  0  0
   43.5680   28.9790   36.1670 H   0  0  0  0  0  0  0  0  0  0  0  0
  1 10  1  0  0  0  0
  2  1  2  0  0  0  0
  2  3  1  0  0  0  0
  3  4  2  0  0  0  0
  4  5  1  0  0  0  0
  4 13  1  0  0  0  0
  5  6  1  0  0  0  0
  6  7  2  0  0  0  0
  6 14  1  0  0  0  0
  7 15  1  0  0  0  0
  8 16  1  0  0  0  0
  8  7  1  0  0  0  0
  9  8  2  0  0  0  0
 10  9  1  0  0  0  0
 10  5  2  0  0  0  0
 11  2  1  0  0  0  0
 12  3  1  0  0  0  0
 17  9  1  0  0  0  0
 18 19  1  0  0  0  0
 18 17  2  0  0  0  0
 20 18  1  0  0  0  0
 21 20  2  0  0  0  0
 21 23  1  0  0  0  0
 22 21  1  0  0  0  0
 23 25  2  0  0  0  0
 24 23  1  0  0  0  0
 25 17  1  0  0  0  0
 26 27  1  0  0  0  0
 26  1  1  0  0  0  0
 28 30  1  0  0  0  0
 28 31  1  1  0  0  0
 29 28  1  0  0  0  0
 29 30  1  0  0  0  0
 30 34  1  6  0  0  0
 30 26  1  0  0  0  0
 32 29  1  0  0  0  0
 33 29  1  0  0  0  0
 35 40  1  0  0  0  0
 36 35  2  0  0  0  0
 36 37  1  0  0  0  0
 37 38  2  0  0  0  0
 38 39  1  0  0  0  0
 39 28  1  0  0  0  0
 40 39  2  0  0  0  0
 41 35  1  0  0  0  0
 42 36  1  0  0  0  0
 43 37  1  0  0  0  0
M  END
>  <minimizedAffinity>
-5.85990286

$$$$

 OpenBabel03242511103D

 43 47  0  0  1  0  0  0  0  0999 V2000
   38.2480   30.2100   39.8770 C   0  0  0  0  0  0  0  0  0  0  0  0
   38.9480   31.2760   39.3330 C   0  0  0  0  0  0  0  0  0  0  0  0
   38.7020   31.7890   38.0600 C   0  0  0  0  0  0  0  0  0  0  0  0
   37.7130   31.2210   37.2770 C   0  0  0  0  0  0  0  0  0  0  0  0
   37.0100   30.1780   37.7760 C   0  0  0  0  0  0  0  0  0  0  0  0
   36.0180   29.5840   37.0210 C   0  0  0  0  0  0  0  0  0  0  0  0
   35.2710   28.5270   37.4550 C   0  0  0  0  0  0  0  0  0  0  0  0
   35.5530   28.0520   38.7280 C   0  0  0  0  0  0  0  0  0  0  0  0
   36.5490   28.6460   39.4930 C   0  0  0  0  0  0  0  0  0  0  0  0
   37.2860   29.7000   39.0450 C   0  0  0  0  0  0  0  0  0  0  0  0
   39.7350   31.8150   39.8310 H   0  0  0  0  0  0  0  0  0  0  0  0
   39.2430   32.6190   37.6280 H   0  0  0  0  0  0  0  0  0  0  0  0
   37.5120   31.6090   36.2880 H   0  0  0  0  0  0  0  0  0  0  0  0
   35.8430   29.9950   36.0420 H   0  0  0  0  0  0  0  0  0  0  0  0
   34.5160   28.1360   36.7780 H   0  0  0  0  0  0  0  0  0  0  0  0
   34.9100   27.2050   38.9950 H   0  0  0  0  0  0  0  0  0  0  0  0
   36.5940   27.9700   40.7780 C   0  0  0  0  0  0  0  0  0  0  0  0
   36.2750   28.2490   42.0870 C   0  0  0  0  0  0  0  0  0  0  0  0
   35.8770   29.2580   42.1150 H   0  0  0  0  0  0  0  0  0  0  0  0
   36.4530   27.3540   43.1110 C   0  0  0  0  0  3  0  0  0  0  0  0
   36.9670   26.0960   42.9100 C   0  0  0  0  0  0  0  0  0  0  0  0
   37.0370   25.5280   43.8130 H   0  0  0  0  0  0  0  0  0  0  0  0
   37.3070   25.7530   41.6190 C   0  0  0  0  0  0  0  0  0  0  0  0
   37.7040   24.7640   41.5040 H   0  0  0  0  0  0  0  0  0  0  0  0
   37.1210   26.6760   40.5880 C   0  0  0  0  0  3  0  0  0  0  0  0
   38.5790   29.7770   41.1630 N   0  0  0  0  0  0  0  0  0  0  0  0
   37.6610   30.0630   41.5420 H   0  0  0  0  0  0  0  0  0  0  0  0
   40.1700   28.6770   42.7960 C   0  0  1  0  0  0  0  0  0  0  0  0
   40.7610   30.0220   42.4250 C   0  0  0  0  0  0  0  0  0  0  0  0
   39.8700   29.2250   41.4820 C   0  0  2  0  0  0  0  0  0  0  0  0
   39.4920   28.7800   43.6860 H   0  0  0  0  0  0  0  0  0  0  0  0
   41.8390   30.0070   42.1700 H   0  0  0  0  0  0  0  0  0  0  0  0
   40.3460   30.9500   42.8330 H   0  0  0  0  0  0  0  0  0  0  0  0
   40.3360   28.7070   40.6150 H   0  0  0  0  0  0  0  0  0  0  0  0
   43.1980   26.7040   43.5900 C   0  0  0  0  0  0  0  0  0  0  0  0
   42.7890   25.3860   43.2190 C   0  0  0  0  0  0  0  0  0  0  0  0
   41.4750   25.2140   42.7130 C   0  0  0  0  0  0  0  0  0  0  0  0
   40.6700   26.2750   42.5990 N   0  0  0  0  0  0  0  0  0  0  0  0
   41.0890   27.5140   42.9610 C   0  0  0  0  0  0  0  0  0  0  0  0
   42.3530   27.7300   43.4570 N   0  0  0  0  0  0  0  0  0  0  0  0
   44.2100   26.7580   43.9650 H   0  0  0  0  0  0  0  0  0  0  0  0
   43.3800   24.5030   43.2840 H   0  0  0  0  0  0  0  0  0  0  0  0
   41.1520   24.2230   42.4280 H   0  0  0  0  0  0  0  0  0  0  0  0
  1 26  1  0  0  0  0
  2 11  1  0  0  0  0
  2  1  1  0  0  0  0
  3  2  2  0  0  0  0
  4  5  2  0  0  0  0
  4  3  1  0  0  0  0
  5 10  1  0  0  0  0
  6  7  2  0  0  0  0
  6  5  1  0  0  0  0
  7  8  1  0  0  0  0
  8 16  1  0  0  0  0
  8  9  2  0  0  0  0
  9 17  1  0  0  0  0
 10  9  1  0  0  0  0
 10  1  2  0  0  0  0
 12  3  1  0  0  0  0
 13  4  1  0  0  0  0
 14  6  1  0  0  0  0
 15  7  1  0  0  0  0
 17 18  1  0  0  0  0
 18 19  1  0  0  0  0
 18 20  2  0  0  0  0
 21 20  1  0  0  0  0
 21 22  1  0  0  0  0
 23 21  2  0  0  0  0
 24 23  1  0  0  0  0
 25 17  2  0  0  0  0
 25 23  1  0  0  0  0
 26 30  1  0  0  0  0
 26 27  1  0  0  0  0
 28 39  1  0  0  0  0
 28 31  1  1  0  0  0
 29 28  1  0  0  0  0
 29 33  1  0  0  0  0
 30 34  1  6  0  0  0
 30 29  1  0  0  0  0
 30 28  1  0  0  0  0
 32 29  1  0  0  0  0
 35 41  1  0  0  0  0
 36 42  1  0  0  0  0
 36 35  2  0  0  0  0
 37 36  1  0  0  0  0
 38 37  2  0  0  0  0
 38 39  1  0  0  0  0
 39 40  2  0  0  0  0
 40 35  1  0  0  0  0
 43 37  1  0  0  0  0
M  END
>  <minimizedAffinity>
-5.8529048

$$$$

 OpenBabel03242511103D

 43 47  0  0  1  0  0  0  0  0999 V2000
   36.5990   27.6760   40.4380 C   0  0  0  0  0  0  0  0  0  0  0  0
   36.8730   28.1580   41.7100 C   0  0  0  0  0  0  0  0  0  0  0  0
   37.1510   27.3370   42.8010 C   0  0  0  0  0  0  0  0  0  0  0  0
   37.1630   25.9640   42.6340 C   0  0  0  0  0  0  0  0  0  0  0  0
   36.9000   25.4580   41.4070 C   0  0  0  0  0  0  0  0  0  0  0  0
   36.8980   24.0920   41.2040 C   0  0  0  0  0  0  0  0  0  0  0  0
   36.6370   23.5090   39.9970 C   0  0  0  0  0  0  0  0  0  0  0  0
   36.3650   24.3690   38.9420 C   0  0  0  0  0  0  0  0  0  0  0  0
   36.3660   25.7440   39.1390 C   0  0  0  0  0  0  0  0  0  0  0  0
   36.6270   26.3090   40.3490 C   0  0  0  0  0  0  0  0  0  0  0  0
   36.9050   29.1990   41.9800 H   0  0  0  0  0  0  0  0  0  0  0  0
   37.3650   27.7040   43.7950 H   0  0  0  0  0  0  0  0  0  0  0  0
   37.3770   25.3150   43.4720 H   0  0  0  0  0  0  0  0  0  0  0  0
   37.1170   23.4750   42.0590 H   0  0  0  0  0  0  0  0  0  0  0  0
   36.6620   22.4240   39.9500 H   0  0  0  0  0  0  0  0  0  0  0  0
   36.1670   23.8190   38.0140 H   0  0  0  0  0  0  0  0  0  0  0  0
   36.0880   26.3820   37.8650 C   0  0  0  0  0  0  0  0  0  0  0  0
   35.0200   26.9780   37.2350 C   0  0  0  0  0  0  0  0  0  0  0  0
   34.1820   26.9470   37.9220 H   0  0  0  0  0  0  0  0  0  0  0  0
   35.0890   27.5000   35.9680 C   0  0  0  0  0  3  0  0  0  0  0  0
   36.2400   27.4690   35.2200 C   0  0  0  0  0  0  0  0  0  0  0  0
   36.1220   27.9190   34.2580 H   0  0  0  0  0  0  0  0  0  0  0  0
   37.3500   26.8850   35.7930 C   0  0  0  0  0  0  0  0  0  0  0  0
   38.2280   26.8810   35.1780 H   0  0  0  0  0  0  0  0  0  0  0  0
   37.2630   26.3570   37.0840 C   0  0  0  0  0  3  0  0  0  0  0  0
   36.3320   28.5920   39.4180 N   0  0  0  0  0  0  0  0  0  0  0  0
   35.4020   28.1790   39.2340 H   0  0  0  0  0  0  0  0  0  0  0  0
   36.9410   31.0010   38.9350 C   0  0  1  0  0  0  0  0  0  0  0  0
   37.0900   30.2280   37.6400 C   0  0  0  0  0  0  0  0  0  0  0  0
   37.2860   29.5890   39.0090 C   0  0  2  0  0  0  0  0  0  0  0  0
   35.8930   31.3940   39.0380 H   0  0  0  0  0  0  0  0  0  0  0  0
   38.0250   30.4250   37.0810 H   0  0  0  0  0  0  0  0  0  0  0  0
   36.2090   29.9150   37.0690 H   0  0  0  0  0  0  0  0  0  0  0  0
   38.3190   29.3520   39.3460 H   0  0  0  0  0  0  0  0  0  0  0  0
   38.4000   34.1580   40.1980 C   0  0  0  0  0  0  0  0  0  0  0  0
   39.7630   34.0290   39.7910 C   0  0  0  0  0  0  0  0  0  0  0  0
   40.1430   32.8500   39.1000 C   0  0  0  0  0  0  0  0  0  0  0  0
   39.2270   31.9080   38.8520 N   0  0  0  0  0  0  0  0  0  0  0  0
   37.9390   32.0620   39.2530 C   0  0  0  0  0  0  0  0  0  0  0  0
   37.5240   33.1860   39.9260 N   0  0  0  0  0  0  0  0  0  0  0  0
   38.1840   35.0810   40.7180 H   0  0  0  0  0  0  0  0  0  0  0  0
   40.5380   34.7390   39.9560 H   0  0  0  0  0  0  0  0  0  0  0  0
   41.1710   32.7380   38.7850 H   0  0  0  0  0  0  0  0  0  0  0  0
  1  2  1  0  0  0  0
  2 11  1  0  0  0  0
  2  3  2  0  0  0  0
  3 12  1  0  0  0  0
  4  3  1  0  0  0  0
  4 13  1  0  0  0  0
  5  4  2  0  0  0  0
  6  5  1  0  0  0  0
  6 14  1  0  0  0  0
  7  6  2  0  0  0  0
  8  9  2  0  0  0  0
  8  7  1  0  0  0  0
  9 10  1  0  0  0  0
 10  1  2  0  0  0  0
 10  5  1  0  0  0  0
 15  7  1  0  0  0  0
 16  8  1  0  0  0  0
 17  9  1  0  0  0  0
 18 17  1  0  0  0  0
 18 19  1  0  0  0  0
 20 18  2  0  0  0  0
 21 23  2  0  0  0  0
 21 20  1  0  0  0  0
 22 21  1  0  0  0  0
 23 25  1  0  0  0  0
 24 23  1  0  0  0  0
 25 17  2  0  0  0  0
 26  1  1  0  0  0  0
 27 26  1  0  0  0  0
 28 30  1  0  0  0  0
 28 31  1  1  0  0  0
 28 39  1  0  0  0  0
 29 28  1  0  0  0  0
 29 30  1  0  0  0  0
 30 34  1  1  0  0  0
 30 26  1  0  0  0  0
 32 29  1  0  0  0  0
 33 29  1  0  0  0  0
 35 41  1  0  0  0  0
 36 42  1  0  0  0  0
 36 35  2  0  0  0  0
 37 36  1  0  0  0  0
 38 37  2  0  0  0  0
 38 39  1  0  0  0  0
 39 40  2  0  0  0  0
 40 35  1  0  0  0  0
 43 37  1  0  0  0  0
M  END
>  <minimizedAffinity>
-5.84067583

$$$$

 OpenBabel03242511103D

 43 47  0  0  1  0  0  0  0  0999 V2000
   37.4190   27.5370   39.5200 C   0  0  0  0  0  0  0  0  0  0  0  0
   37.3460   26.2470   39.0150 C   0  0  0  0  0  0  0  0  0  0  0  0
   37.1650   25.1180   39.8120 C   0  0  0  0  0  0  0  0  0  0  0  0
   37.0470   25.2640   41.1820 C   0  0  0  0  0  0  0  0  0  0  0  0
   37.1130   26.5080   41.7100 C   0  0  0  0  0  0  0  0  0  0  0  0
   37.0050   26.6910   43.0740 C   0  0  0  0  0  0  0  0  0  0  0  0
   37.0670   27.9140   43.6790 C   0  0  0  0  0  0  0  0  0  0  0  0
   37.2490   29.0080   42.8430 C   0  0  0  0  0  0  0  0  0  0  0  0
   37.3580   28.8310   41.4700 C   0  0  0  0  0  0  0  0  0  0  0  0
   37.2950   27.6040   40.8830 C   0  0  0  0  0  0  0  0  0  0  0  0
   37.4140   25.9890   37.9730 H   0  0  0  0  0  0  0  0  0  0  0  0
   37.1070   24.1100   39.4270 H   0  0  0  0  0  0  0  0  0  0  0  0
   36.9060   24.3970   41.8120 H   0  0  0  0  0  0  0  0  0  0  0  0
   36.8640   25.8070   43.6720 H   0  0  0  0  0  0  0  0  0  0  0  0
   36.9700   27.9430   44.7600 H   0  0  0  0  0  0  0  0  0  0  0  0
   37.2880   29.9460   43.4090 H   0  0  0  0  0  0  0  0  0  0  0  0
   37.5030   30.1390   40.8570 C   0  0  0  0  0  0  0  0  0  0  0  0
   36.6880   31.1070   40.3170 C   0  0  0  0  0  0  0  0  0  0  0  0
   35.6660   30.7550   40.4040 H   0  0  0  0  0  0  0  0  0  0  0  0
   37.1620   32.2820   39.7910 C   0  0  0  0  0  3  0  0  0  0  0  0
   38.5000   32.5880   39.7600 C   0  0  0  0  0  0  0  0  0  0  0  0
   38.6980   33.5410   39.3180 H   0  0  0  0  0  0  0  0  0  0  0  0
   39.3730   31.6600   40.2860 C   0  0  0  0  0  0  0  0  0  0  0  0
   40.4080   31.9360   40.2440 H   0  0  0  0  0  0  0  0  0  0  0  0
   38.8740   30.4680   40.8180 C   0  0  0  0  0  3  0  0  0  0  0  0
   37.6040   28.5960   38.6280 N   0  0  0  0  0  0  0  0  0  0  0  0
   38.2820   29.0610   39.2550 H   0  0  0  0  0  0  0  0  0  0  0  0
   36.6070   29.9720   36.7520 C   0  0  1  0  0  0  0  0  0  0  0  0
   35.4660   29.2470   37.4360 C   0  0  0  0  0  0  0  0  0  0  0  0
   36.8830   28.6920   37.3860 C   0  0  2  0  0  0  0  0  0  0  0  0
   36.7900   30.9660   37.2440 H   0  0  0  0  0  0  0  0  0  0  0  0
   34.7480   28.7510   36.7540 H   0  0  0  0  0  0  0  0  0  0  0  0
   35.0980   29.5760   38.4140 H   0  0  0  0  0  0  0  0  0  0  0  0
   37.1010   27.8420   36.7020 H   0  0  0  0  0  0  0  0  0  0  0  0
   36.5150   29.0860   33.1600 C   0  0  0  0  0  0  0  0  0  0  0  0
   36.5640   30.3740   32.5440 C   0  0  0  0  0  0  0  0  0  0  0  0
   36.6190   31.5140   33.3870 C   0  0  0  0  0  0  0  0  0  0  0  0
   36.6230   31.3520   34.7140 N   0  0  0  0  0  0  0  0  0  0  0  0
   36.5750   30.1140   35.2680 C   0  0  0  0  0  0  0  0  0  0  0  0
   36.5200   28.9800   34.4920 N   0  0  0  0  0  0  0  0  0  0  0  0
   36.4750   28.2660   32.4570 H   0  0  0  0  0  0  0  0  0  0  0  0
   36.5640   30.5710   31.4980 H   0  0  0  0  0  0  0  0  0  0  0  0
   36.6570   32.4950   32.9350 H   0  0  0  0  0  0  0  0  0  0  0  0
  1 10  1  0  0  0  0
  2  1  2  0  0  0  0
  2  3  1  0  0  0  0
  3  4  2  0  0  0  0
  4  5  1  0  0  0  0
  4 13  1  0  0  0  0
  5  6  1  0  0  0  0
  6 14  1  0  0  0  0
  6  7  2  0  0  0  0
  7 15  1  0  0  0  0
  8 16  1  0  0  0  0
  8  7  1  0  0  0  0
  9  8  2  0  0  0  0
 10  9  1  0  0  0  0
 10  5  2  0  0  0  0
 11  2  1  0  0  0  0
 12  3  1  0  0  0  0
 17  9  1  0  0  0  0
 18 19  1  0  0  0  0
 18 17  2  0  0  0  0
 20 18  1  0  0  0  0
 21 20  2  0  0  0  0
 21 23  1  0  0  0  0
 22 21  1  0  0  0  0
 23 25  2  0  0  0  0
 24 23  1  0  0  0  0
 25 17  1  0  0  0  0
 26 27  1  0  0  0  0
 26  1  1  0  0  0  0
 28 31  1  1  0  0  0
 28 30  1  0  0  0  0
 28 29  1  0  0  0  0
 29 33  1  0  0  0  0
 30 34  1  6  0  0  0
 30 29  1  0  0  0  0
 30 26  1  0  0  0  0
 32 29  1  0  0  0  0
 35 40  1  0  0  0  0
 36 35  2  0  0  0  0
 36 37  1  0  0  0  0
 37 38  2  0  0  0  0
 38 39  1  0  0  0  0
 39 28  1  0  0  0  0
 40 39  2  0  0  0  0
 41 35  1  0  0  0  0
 42 36  1  0  0  0  0
 43 37  1  0  0  0  0
M  END
>  <minimizedAffinity>
-5.83118439

$$$$
