
 OpenBabel03252508553D

 43 46  0  0  1  0  0  0  0  0999 V2000
   43.3780   34.5030   40.7700 C   0  0  0  0  0  0  0  0  0  0  0  0
   43.3290   35.7510   40.4890 O   0  0  0  0  0  0  0  0  0  0  0  0
   42.0180   34.1210   40.4460 N   0  0  0  0  0  0  0  0  0  0  0  0
   41.6390   34.3410   39.0650 C   0  0  0  0  0  0  0  0  0  0  0  0
   40.8360   35.6580   39.0830 C   0  0  0  0  0  0  0  0  0  0  0  0
   40.0530   35.6660   40.4070 C   0  0  0  0  0  0  0  0  0  0  0  0
   39.7090   34.2570   40.8390 C   0  0  0  0  0  0  0  0  0  0  0  0
   40.9860   33.5570   41.2930 C   0  0  1  0  0  0  0  0  0  0  0  0
   42.4980   34.4080   38.3760 H   0  0  0  0  0  0  0  0  0  0  0  0
   40.9270   33.5630   38.6940 H   0  0  0  0  0  0  0  0  0  0  0  0
   41.5140   36.5370   39.1060 H   0  0  0  0  0  0  0  0  0  0  0  0
   40.1760   35.7220   38.2090 H   0  0  0  0  0  0  0  0  0  0  0  0
   40.6470   36.1240   41.2120 H   0  0  0  0  0  0  0  0  0  0  0  0
   39.0710   36.1740   40.2400 H   0  0  0  0  0  0  0  0  0  0  0  0
   39.2590   33.7800   39.9490 H   0  0  0  0  0  0  0  0  0  0  0  0
   39.0100   34.3590   41.6900 H   0  0  0  0  0  0  0  0  0  0  0  0
   41.1850   33.9270   42.3230 H   0  0  0  0  0  0  0  0  0  0  0  0
   40.8800   32.0970   41.2430 C   0  0  0  0  0  0  0  0  0  0  0  0
   41.7830   31.3970   42.0250 C   0  0  0  0  0  0  0  0  0  0  0  0
   42.5300   31.8660   42.6430 H   0  0  0  0  0  0  0  0  0  0  0  0
   41.8120   30.0250   42.0880 C   0  0  0  0  0  3  0  0  0  0  0  0
   40.9100   29.2890   41.3460 C   0  0  0  0  0  0  0  0  0  0  0  0
   40.9190   28.2040   41.3850 H   0  0  0  0  0  0  0  0  0  0  0  0
   39.9840   29.9570   40.5460 C   0  0  0  0  0  0  0  0  0  0  0  0
   39.2610   29.4160   39.9500 H   0  0  0  0  0  0  0  0  0  0  0  0
   39.9940   31.3370   40.5160 C   0  0  0  0  0  3  0  0  0  0  0  0
   44.4550   33.8210   41.2350 O   0  0  0  0  0  0  0  0  0  0  0  0
   45.7820   34.1380   41.0880 C   0  0  0  0  0  0  0  0  0  0  0  0
   46.4130   34.7560   42.1800 C   0  0  0  0  0  0  0  0  0  0  0  0
   47.7730   35.0710   42.0060 C   0  0  0  0  0  0  0  0  0  0  0  0
   48.3780   34.7650   40.8190 N   0  0  0  0  0  0  0  0  0  0  0  0
   47.7200   34.1790   39.8280 C   0  0  0  0  0  0  0  0  0  0  0  0
   46.4220   33.8620   39.9550 N   0  0  0  0  0  0  0  0  0  0  0  0
   48.2430   35.5430   42.8460 H   0  0  0  0  0  0  0  0  0  0  0  0
   48.2700   33.9730   38.9300 H   0  0  0  0  0  0  0  0  0  0  0  0
   45.6780   35.0360   43.3900 C   0  0  0  0  0  0  0  0  0  0  0  0
   45.0350   36.2460   43.6250 C   0  0  0  0  0  0  0  0  0  0  0  0
   44.4760   36.0840   44.8650 C   0  0  0  0  0  0  0  0  0  0  0  0
   44.7560   34.8590   45.3560 N   0  0  0  0  0  0  0  0  0  0  0  0
   45.4760   34.2580   44.4470 N   0  0  0  0  0  0  0  0  0  0  0  0
   45.0100   37.0990   42.9510 H   0  0  0  0  0  0  0  0  0  0  0  0
   43.8860   36.8340   45.3910 H   0  0  0  0  0  0  0  0  0  0  0  0
   44.4950   34.4030   46.2580 H   0  0  0  0  0  0  0  0  0  0  0  0
  1 27  1  0  0  0  0
  2  1  2  0  0  0  0
  3  1  1  0  0  0  0
  3  8  1  0  0  0  0
  4  5  1  0  0  0  0
  4  3  1  0  0  0  0
  5 11  1  0  0  0  0
  5  6  1  0  0  0  0
  6  7  1  0  0  0  0
  6 13  1  0  0  0  0
  7  8  1  0  0  0  0
  7 16  1  0  0  0  0
  8 17  1  1  0  0  0
  9  4  1  0  0  0  0
 10  4  1  0  0  0  0
 12  5  1  0  0  0  0
 14  6  1  0  0  0  0
 15  7  1  0  0  0  0
 18  8  1  0  0  0  0
 18 19  1  0  0  0  0
 19 21  2  0  0  0  0
 19 20  1  0  0  0  0
 22 23  1  0  0  0  0
 22 21  1  0  0  0  0
 24 22  2  0  0  0  0
 25 24  1  0  0  0  0
 26 24  1  0  0  0  0
 26 18  2  0  0  0  0
 28 27  1  0  0  0  0
 28 29  1  0  0  0  0
 29 36  1  0  0  0  0
 30 29  2  0  0  0  0
 30 34  1  0  0  0  0
 31 30  1  0  0  0  0
 32 33  1  0  0  0  0
 32 31  2  0  0  0  0
 33 28  2  0  0  0  0
 35 32  1  0  0  0  0
 36 37  1  0  0  0  0
 36 40  2  0  0  0  0
 37 38  2  0  0  0  0
 38 39  1  0  0  0  0
 38 42  1  0  0  0  0
 39 43  1  0  0  0  0
 40 39  1  0  0  0  0
 41 37  1  0  0  0  0
M  END
>  <minimizedAffinity>
-6.64444351

>  <minimizedRMSD>
0.165775776

$$$$
