
 OpenBabel03252508173D

 47 51  0  0  1  0  0  0  0  0999 V2000
   47.0930   31.0220   46.9700 C   0  0  0  0  0  0  0  0  0  0  0  0
   47.8060   30.2730   46.6980 H   0  0  0  0  0  0  0  0  0  0  0  0
   46.0870   30.4980   46.9760 H   0  0  0  0  0  0  0  0  0  0  0  0
   47.2230   31.6530   48.3040 C   0  0  1  0  0  0  0  0  0  0  0  0
   46.8220   30.7740   49.4400 C   0  0  0  0  0  0  0  0  0  0  0  0
   48.2260   31.1630   49.2790 C   0  0  1  0  0  0  0  0  0  0  0  0
   46.8910   32.6850   48.4920 H   0  0  0  0  0  0  0  0  0  0  0  0
   46.1900   31.1560   50.2650 H   0  0  0  0  0  0  0  0  0  0  0  0
   46.5880   29.6920   49.2410 H   0  0  0  0  0  0  0  0  0  0  0  0
   48.5730   31.8430   50.0880 H   0  0  0  0  0  0  0  0  0  0  0  0
   49.2570   30.2270   48.7920 C   0  0  2  0  0  0  0  0  0  0  0  0
   49.8970   29.3350   49.8810 C   0  0  0  0  0  0  0  0  0  0  0  0
   50.6980   30.4110   49.2920 C   0  0  2  0  0  0  0  0  0  0  0  0
   49.1570   29.6550   47.8580 H   0  0  0  0  0  0  0  0  0  0  0  0
   50.2170   28.3090   49.6070 H   0  0  0  0  0  0  0  0  0  0  0  0
   49.4980   29.4010   50.8890 H   0  0  0  0  0  0  0  0  0  0  0  0
   51.4530   30.2660   48.4790 H   0  0  0  0  0  0  0  0  0  0  0  0
   51.0330   31.5560   50.1580 C   0  0  0  0  0  0  0  0  0  0  0  0
   51.2980   32.8550   49.7770 C   0  0  0  0  0  0  0  0  0  0  0  0
   51.2430   33.1040   48.7310 H   0  0  0  0  0  0  0  0  0  0  0  0
   51.6160   33.8770   50.6190 C   0  0  0  0  0  0  0  0  0  0  0  0
   51.6940   33.6460   51.9760 C   0  0  0  0  0  0  0  0  0  0  0  0
   51.9420   34.4460   52.6280 H   0  0  0  0  0  0  0  0  0  0  0  0
   51.4460   32.3770   52.4530 C   0  0  0  0  0  0  0  0  0  0  0  0
   51.4990   32.1670   53.5060 H   0  0  0  0  0  0  0  0  0  0  0  0
   51.1300   31.3940   51.5430 C   0  0  0  0  0  0  0  0  0  0  0  0
   46.0790   32.9940   46.1910 C   0  0  0  0  0  0  0  0  0  0  0  0
   46.9040   32.0520   45.8750 C   0  0  0  0  0  0  0  0  0  0  0  0
   44.5410   35.8360   44.4470 C   0  0  0  0  0  0  0  0  0  0  0  0
   45.1920   35.8660   43.2250 C   0  0  0  0  0  0  0  0  0  0  0  0
   46.1600   34.9270   43.0400 C   0  0  0  0  0  0  0  0  0  0  0  0
   46.4550   34.0180   44.0100 N   0  0  0  0  0  0  0  0  0  0  0  0
   45.8130   34.0020   45.1890 C   0  0  0  0  0  0  0  0  0  0  0  0
   44.8700   34.9250   45.3640 N   0  0  0  0  0  0  0  0  0  0  0  0
   43.7560   36.5400   44.6950 H   0  0  0  0  0  0  0  0  0  0  0  0
   44.9390   36.5970   42.4710 H   0  0  0  0  0  0  0  0  0  0  0  0
   46.9270   34.8490   41.8060 C   0  0  0  0  0  0  0  0  0  0  0  0
   48.1360   35.4950   41.6030 C   0  0  0  0  0  0  0  0  0  0  0  0
   48.8660   35.4240   40.4380 C   0  0  0  0  0  0  0  0  0  0  0  0
   48.3960   34.6760   39.3910 C   0  0  0  0  0  0  0  0  0  0  0  0
   47.2060   34.0140   39.5300 C   0  0  0  0  0  0  0  0  0  0  0  0
   46.5170   34.1210   40.7220 C   0  0  0  0  0  0  0  0  0  0  0  0
   48.5430   36.1060   42.4250 H   0  0  0  0  0  0  0  0  0  0  0  0
   49.8090   35.9540   40.3410 H   0  0  0  0  0  0  0  0  0  0  0  0
   49.0000   34.6450   38.4900 H   0  0  0  0  0  0  0  0  0  0  0  0
   46.8210   33.4160   38.7080 H   0  0  0  0  0  0  0  0  0  0  0  0
   45.5680   33.5690   40.7780 H   0  0  0  0  0  0  0  0  0  0  0  0
  1  3  1  0  0  0  0
  1  4  1  0  0  0  0
  2  1  1  0  0  0  0
  4  7  1  1  0  0  0
  4  6  1  0  0  0  0
  4  5  1  0  0  0  0
  5  8  1  0  0  0  0
  6  5  1  0  0  0  0
  6 10  1  1  0  0  0
  9  5  1  0  0  0  0
 11 14  1  6  0  0  0
 11  6  1  0  0  0  0
 11 13  1  0  0  0  0
 11 12  1  0  0  0  0
 12 16  1  0  0  0  0
 13 17  1  6  0  0  0
 13 12  1  0  0  0  0
 13 18  1  0  0  0  0
 15 12  1  0  0  0  0
 18 26  1  0  0  0  0
 19 18  2  0  0  0  0
 19 21  1  0  0  0  0
 20 19  1  0  0  0  0
 21 22  2  0  0  0  0
 22 24  1  0  0  0  0
 22 23  1  0  0  0  0
 24 25  1  0  0  0  0
 26 24  2  0  0  0  0
 28 27  1  0  0  0  0
 28  1  1  0  0  0  0
 29 35  1  0  0  0  0
 29 34  1  0  0  0  0
 30 29  2  0  0  0  0
 31 30  1  0  0  0  0
 31 32  2  0  0  0  0
 32 33  1  0  0  0  0
 33 34  2  0  0  0  0
 33 27  1  0  0  0  0
 36 30  1  0  0  0  0
 37 31  1  0  0  0  0
 38 37  1  0  0  0  0
 38 43  1  0  0  0  0
 39 38  2  0  0  0  0
 40 41  2  0  0  0  0
 40 39  1  0  0  0  0
 41 42  1  0  0  0  0
 42 47  1  0  0  0  0
 42 37  2  0  0  0  0
 44 39  1  0  0  0  0
 45 40  1  0  0  0  0
 46 41  1  0  0  0  0
M  END
>  <minimizedAffinity>
-7.03149843

>  <minimizedRMSD>
1.51296711

$$$$
