
 OpenBabel03252508333D

 32 34  0  0  1  0  0  0  0  0999 V2000
   45.1190   34.4640   42.3590 N   0  0  0  0  0  0  0  0  0  0  0  0
   46.0660   33.7040   41.6250 C   0  0  1  0  0  0  0  0  0  0  0  0
   45.8760   33.6830   40.1530 C   0  0  0  0  0  0  0  0  0  0  0  0
   44.5860   33.8440   39.6460 N   0  0  0  0  0  0  0  0  0  0  0  0
   43.6510   34.5590   40.3960 C   0  0  0  0  0  0  0  0  0  0  0  0
   44.2790   35.3040   41.5540 C   0  0  0  0  0  0  0  0  0  0  0  0
   45.9870   32.6400   41.9970 H   0  0  0  0  0  0  0  0  0  0  0  0
   46.2760   32.7040   39.7610 H   0  0  0  0  0  0  0  0  0  0  0  0
   46.5320   34.4790   39.6910 H   0  0  0  0  0  0  0  0  0  0  0  0
   44.6030   33.9840   38.6360 H   0  0  0  0  0  0  0  0  0  0  0  0
   43.1460   35.3260   39.7610 H   0  0  0  0  0  0  0  0  0  0  0  0
   42.8350   33.8910   40.7530 H   0  0  0  0  0  0  0  0  0  0  0  0
   43.4220   35.7420   42.1050 H   0  0  0  0  0  0  0  0  0  0  0  0
   44.8440   36.1690   41.1450 H   0  0  0  0  0  0  0  0  0  0  0  0
   44.5740   35.4230   44.4760 C   0  0  0  0  0  0  0  0  0  0  0  0
   45.0980   34.3340   43.7650 C   0  0  0  0  0  0  0  0  0  0  0  0
   45.5420   33.2530   44.5040 C   0  0  0  0  0  0  0  0  0  0  0  0
   45.4700   33.2530   45.8610 N   0  0  0  0  0  0  0  0  0  0  0  0
   44.9530   34.3340   46.5200 C   0  0  0  0  0  0  0  0  0  0  0  0
   44.5140   35.4000   45.8180 N   0  0  0  0  0  0  0  0  0  0  0  0
   44.1790   36.3580   44.1120 H   0  0  0  0  0  0  0  0  0  0  0  0
   45.9400   32.4130   43.9580 H   0  0  0  0  0  0  0  0  0  0  0  0
   44.9360   34.2440   47.5980 H   0  0  0  0  0  0  0  0  0  0  0  0
   47.4710   34.1240   41.8710 C   0  0  0  0  0  0  0  0  0  0  0  0
   48.4590   33.2870   42.4020 C   0  0  0  0  0  0  0  0  0  0  0  0
   48.1740   32.2690   42.6450 H   0  0  0  0  0  0  0  0  0  0  0  0
   49.7600   33.6810   42.6300 C   0  0  0  0  0  0  0  0  0  0  0  0
   50.1390   34.9710   42.3260 C   0  0  0  0  0  0  0  0  0  0  0  0
   51.1780   35.1760   42.5420 H   0  0  0  0  0  0  0  0  0  0  0  0
   49.2200   35.8400   41.8040 C   0  0  0  0  0  0  0  0  0  0  0  0
   49.5470   36.8390   41.5780 H   0  0  0  0  0  0  0  0  0  0  0  0
   47.9330   35.3950   41.5960 C   0  0  0  0  0  0  0  0  0  0  0  0
  1 16  1  0  0  0  0
  2 24  1  0  0  0  0
  2  7  1  1  0  0  0
  2  1  1  0  0  0  0
  3  2  1  0  0  0  0
  4  3  1  0  0  0  0
  4  5  1  0  0  0  0
  5 12  1  0  0  0  0
  5  6  1  0  0  0  0
  6 13  1  0  0  0  0
  6  1  1  0  0  0  0
  8  3  1  0  0  0  0
  9  3  1  0  0  0  0
 10  4  1  0  0  0  0
 11  5  1  0  0  0  0
 14  6  1  0  0  0  0
 15 20  1  0  0  0  0
 16 15  2  0  0  0  0
 16 17  1  0  0  0  0
 17 18  2  0  0  0  0
 18 19  1  0  0  0  0
 19 23  1  0  0  0  0
 20 19  2  0  0  0  0
 21 15  1  0  0  0  0
 22 17  1  0  0  0  0
 24 25  1  0  0  0  0
 25 27  2  0  0  0  0
 25 26  1  0  0  0  0
 28 29  1  0  0  0  0
 28 27  1  0  0  0  0
 30 28  2  0  0  0  0
 31 30  1  0  0  0  0
 32 30  1  0  0  0  0
 32 24  2  0  0  0  0
M  END
>  <minimizedAffinity>
-5.38748741

>  <minimizedRMSD>
1.96389019

$$$$
