
 OpenBabel03242515193D

 37 39  0  0  0  0  0  0  0  0999 V2000
   33.3530   29.0180   36.6120 C   0  0  0  0  0  0  0  0  0  0  0  0
   32.9280   29.5760   35.4320 C   0  0  0  0  0  0  0  0  0  0  0  0
   31.7320   30.2290   35.6870 C   0  0  0  0  0  0  0  0  0  0  0  0
   31.4590   30.0620   36.9730 N   0  0  0  0  0  0  0  0  0  0  0  0
   32.4410   29.3330   37.5200 N   0  0  0  0  0  0  0  0  0  0  0  0
   33.5060   29.4610   34.5260 H   0  0  0  0  0  0  0  0  0  0  0  0
   31.0690   30.8710   34.5910 C   0  0  0  0  0  0  0  0  0  0  0  0
   30.8070   32.1850   34.3000 C   0  0  0  0  0  0  0  0  0  0  0  0
   31.1850   32.9150   34.9850 H   0  0  0  0  0  0  0  0  0  0  0  0
   30.1320   32.6590   33.2180 C   0  0  0  0  0  3  0  0  0  0  0  0
   29.6410   31.7790   32.2900 C   0  0  0  0  0  0  0  0  0  0  0  0
   29.1100   32.1460   31.4380 H   0  0  0  0  0  0  0  0  0  0  0  0
   29.8450   30.4310   32.4780 C   0  0  0  0  0  0  0  0  0  0  0  0
   29.4650   29.7310   31.7590 H   0  0  0  0  0  0  0  0  0  0  0  0
   30.5380   30.0340   33.6010 C   0  0  0  0  0  3  0  0  0  0  0  0
   30.2830   30.5680   37.6960 C   0  0  0  0  0  0  0  0  0  0  0  0
   30.2780   31.9800   37.6320 F   0  0  0  0  0  0  0  0  0  0  0  0
   30.2860   30.1290   38.9800 F   0  0  0  0  0  0  0  0  0  0  0  0
   29.1520   30.1660   37.0450 F   0  0  0  0  0  0  0  0  0  0  0  0
   34.5550   28.2270   36.8910 C   0  0  0  0  0  0  0  0  0  0  0  0
   34.4290   27.5700   37.7760 H   0  0  0  0  0  0  0  0  0  0  0  0
   34.7390   27.5360   36.0410 H   0  0  0  0  0  0  0  0  0  0  0  0
   35.7750   29.0950   37.0350 C   0  0  0  0  0  0  0  0  0  0  0  0
   36.7230   28.5070   36.8580 H   0  0  0  0  0  0  0  0  0  0  0  0
   35.7290   29.8330   36.2490 H   0  0  0  0  0  0  0  0  0  0  0  0
   35.7450   29.7630   40.6990 C   0  0  0  0  0  0  0  0  0  0  0  0
   36.4380   30.9890   40.7420 C   0  0  0  0  0  0  0  0  0  0  0  0
   36.8710   31.5180   39.5380 C   0  0  0  0  0  0  0  0  0  0  0  0
   36.5920   30.8110   38.4330 N   0  0  0  0  0  0  0  0  0  0  0  0
   35.9370   29.6530   38.3990 C   0  0  0  0  0  0  0  0  0  0  0  0
   35.5180   29.1350   39.5380 N   0  0  0  0  0  0  0  0  0  0  0  0
   35.3900   29.3160   41.6240 H   0  0  0  0  0  0  0  0  0  0  0  0
   36.5740   31.4200   41.7280 H   0  0  0  0  0  0  0  0  0  0  0  0
   37.5900   32.7870   39.5980 C   0  0  0  0  0  0  0  0  0  0  0  0
   38.7650   32.6870   38.8470 F   0  0  0  0  0  0  0  0  0  0  0  0
   38.0290   32.9190   40.9190 F   0  0  0  0  0  0  0  0  0  0  0  0
   36.8510   33.8450   39.1680 F   0  0  0  0  0  0  0  0  0  0  0  0
  1 20  1  0  0  0  0
  1  5  2  0  0  0  0
  2  3  2  0  0  0  0
  2  1  1  0  0  0  0
  3  4  1  0  0  0  0
  4  5  1  0  0  0  0
  4 16  1  0  0  0  0
  6  2  1  0  0  0  0
  7  3  1  0  0  0  0
  8  7  1  0  0  0  0
  8  9  1  0  0  0  0
 10  8  2  0  0  0  0
 11 13  2  0  0  0  0
 11 10  1  0  0  0  0
 12 11  1  0  0  0  0
 13 15  1  0  0  0  0
 14 13  1  0  0  0  0
 15  7  2  0  0  0  0
 16 18  1  0  0  0  0
 17 16  1  0  0  0  0
 19 16  1  0  0  0  0
 20 23  1  0  0  0  0
 20 21  1  0  0  0  0
 22 20  1  0  0  0  0
 23 30  1  0  0  0  0
 24 23  1  0  0  0  0
 25 23  1  0  0  0  0
 26 27  1  0  0  0  0
 26 32  1  0  0  0  0
 27 33  1  0  0  0  0
 28 34  1  0  0  0  0
 28 27  2  0  0  0  0
 29 28  1  0  0  0  0
 30 29  2  0  0  0  0
 30 31  1  0  0  0  0
 31 26  2  0  0  0  0
 34 36  1  0  0  0  0
 35 34  1  0  0  0  0
 37 34  1  0  0  0  0
M  END
>  <minimizedAffinity>
-6.22997522

$$$$

 OpenBabel03242515193D

 37 39  0  0  0  0  0  0  0  0999 V2000
   37.6070   29.6530   41.9330 C   0  0  0  0  0  0  0  0  0  0  0  0
   36.7550   29.1130   41.0020 C   0  0  0  0  0  0  0  0  0  0  0  0
   36.8030   29.9190   39.8760 C   0  0  0  0  0  0  0  0  0  0  0  0
   37.6540   30.9020   40.1310 N   0  0  0  0  0  0  0  0  0  0  0  0
   38.1320   30.7330   41.3720 N   0  0  0  0  0  0  0  0  0  0  0  0
   36.1950   28.2140   41.2210 H   0  0  0  0  0  0  0  0  0  0  0  0
   35.9670   29.5740   38.7650 C   0  0  0  0  0  0  0  0  0  0  0  0
   36.1730   29.5610   37.4100 C   0  0  0  0  0  0  0  0  0  0  0  0
   37.1530   29.8230   37.0690 H   0  0  0  0  0  0  0  0  0  0  0  0
   35.2640   29.2320   36.4520 C   0  0  0  0  0  3  0  0  0  0  0  0
   33.9980   28.8650   36.8210 C   0  0  0  0  0  0  0  0  0  0  0  0
   33.2800   28.6050   36.0720 H   0  0  0  0  0  0  0  0  0  0  0  0
   33.6750   28.8410   38.1590 C   0  0  0  0  0  0  0  0  0  0  0  0
   32.6860   28.5560   38.4610 H   0  0  0  0  0  0  0  0  0  0  0  0
   34.6530   29.1890   39.0640 C   0  0  0  0  0  3  0  0  0  0  0  0
   38.0170   32.0080   39.2330 C   0  0  0  0  0  0  0  0  0  0  0  0
   36.8420   32.6990   38.8590 F   0  0  0  0  0  0  0  0  0  0  0  0
   38.6860   31.5420   38.1480 F   0  0  0  0  0  0  0  0  0  0  0  0
   38.7730   32.9120   39.9220 F   0  0  0  0  0  0  0  0  0  0  0  0
   37.9250   29.1900   43.2870 C   0  0  0  0  0  0  0  0  0  0  0  0
   39.0190   29.1310   43.4650 H   0  0  0  0  0  0  0  0  0  0  0  0
   37.5520   29.9350   44.0210 H   0  0  0  0  0  0  0  0  0  0  0  0
   37.2580   27.8790   43.6000 C   0  0  0  0  0  0  0  0  0  0  0  0
   37.0920   27.7550   44.7110 H   0  0  0  0  0  0  0  0  0  0  0  0
   36.2770   27.9110   43.1520 H   0  0  0  0  0  0  0  0  0  0  0  0
   39.8990   25.2840   43.1940 C   0  0  0  0  0  0  0  0  0  0  0  0
   39.2680   24.4160   42.2790 C   0  0  0  0  0  0  0  0  0  0  0  0
   37.9950   24.7570   41.8530 C   0  0  0  0  0  0  0  0  0  0  0  0
   37.4740   25.8880   42.3530 N   0  0  0  0  0  0  0  0  0  0  0  0
   38.0750   26.7020   43.2170 C   0  0  0  0  0  0  0  0  0  0  0  0
   39.2880   26.3920   43.6330 N   0  0  0  0  0  0  0  0  0  0  0  0
   40.8980   25.0490   43.5510 H   0  0  0  0  0  0  0  0  0  0  0  0
   39.8420   23.5450   41.9830 H   0  0  0  0  0  0  0  0  0  0  0  0
   37.3530   23.8500   40.9080 C   0  0  0  0  0  0  0  0  0  0  0  0
   37.9070   22.5740   41.0460 F   0  0  0  0  0  0  0  0  0  0  0  0
   37.7570   24.2690   39.6370 F   0  0  0  0  0  0  0  0  0  0  0  0
   36.0020   23.7900   41.0510 F   0  0  0  0  0  0  0  0  0  0  0  0
  1 20  1  0  0  0  0
  2  6  1  0  0  0  0
  2  1  1  0  0  0  0
  3  4  1  0  0  0  0
  3  2  2  0  0  0  0
  4  5  1  0  0  0  0
  5  1  2  0  0  0  0
  7 15  1  0  0  0  0
  7  3  1  0  0  0  0
  8  7  2  0  0  0  0
  9  8  1  0  0  0  0
 10 11  2  0  0  0  0
 10  8  1  0  0  0  0
 11 13  1  0  0  0  0
 12 11  1  0  0  0  0
 13 14  1  0  0  0  0
 13 15  2  0  0  0  0
 16 19  1  0  0  0  0
 16  4  1  0  0  0  0
 17 16  1  0  0  0  0
 18 16  1  0  0  0  0
 20 21  1  0  0  0  0
 20 23  1  0  0  0  0
 20 22  1  0  0  0  0
 23 24  1  0  0  0  0
 25 23  1  0  0  0  0
 26 32  1  0  0  0  0
 26 31  1  0  0  0  0
 27 26  2  0  0  0  0
 28 27  1  0  0  0  0
 28 29  2  0  0  0  0
 29 30  1  0  0  0  0
 30 23  1  0  0  0  0
 30 31  2  0  0  0  0
 33 27  1  0  0  0  0
 34 35  1  0  0  0  0
 34 37  1  0  0  0  0
 34 28  1  0  0  0  0
 36 34  1  0  0  0  0
M  END
>  <minimizedAffinity>
-6.16795111

$$$$

 OpenBabel03242515193D

 37 39  0  0  0  0  0  0  0  0999 V2000
   38.5560   28.3970   42.4610 C   0  0  0  0  0  0  0  0  0  0  0  0
   37.6240   27.7570   41.6830 C   0  0  0  0  0  0  0  0  0  0  0  0
   37.9820   26.4200   41.6180 C   0  0  0  0  0  0  0  0  0  0  0  0
   39.0890   26.2740   42.3310 N   0  0  0  0  0  0  0  0  0  0  0  0
   39.4260   27.4690   42.8340 N   0  0  0  0  0  0  0  0  0  0  0  0
   36.7970   28.3030   41.2490 H   0  0  0  0  0  0  0  0  0  0  0  0
   37.1690   25.5430   40.8290 C   0  0  0  0  0  0  0  0  0  0  0  0
   36.6250   24.3080   41.0680 C   0  0  0  0  0  0  0  0  0  0  0  0
   36.7870   23.8900   42.0400 H   0  0  0  0  0  0  0  0  0  0  0  0
   35.8840   23.5640   40.2020 C   0  0  0  0  0  3  0  0  0  0  0  0
   35.6200   24.0510   38.9500 C   0  0  0  0  0  0  0  0  0  0  0  0
   35.0370   23.4700   38.2660 H   0  0  0  0  0  0  0  0  0  0  0  0
   36.1160   25.2850   38.5970 C   0  0  0  0  0  0  0  0  0  0  0  0
   35.9170   25.6770   37.6180 H   0  0  0  0  0  0  0  0  0  0  0  0
   36.8580   25.9730   39.5320 C   0  0  0  0  0  3  0  0  0  0  0  0
   39.8450   25.0300   42.5400 C   0  0  0  0  0  0  0  0  0  0  0  0
   40.2710   24.5380   41.2850 F   0  0  0  0  0  0  0  0  0  0  0  0
   39.0890   24.1160   43.2000 F   0  0  0  0  0  0  0  0  0  0  0  0
   40.9870   25.3120   43.2320 F   0  0  0  0  0  0  0  0  0  0  0  0
   38.6410   29.8090   42.8450 C   0  0  0  0  0  0  0  0  0  0  0  0
   37.8580   30.4250   42.3560 H   0  0  0  0  0  0  0  0  0  0  0  0
   38.4450   29.9010   43.9340 H   0  0  0  0  0  0  0  0  0  0  0  0
   40.0110   30.3770   42.5870 C   0  0  0  0  0  0  0  0  0  0  0  0
   40.4350   30.8670   43.5120 H   0  0  0  0  0  0  0  0  0  0  0  0
   40.6590   29.5430   42.3660 H   0  0  0  0  0  0  0  0  0  0  0  0
   40.8620   33.1720   40.2770 C   0  0  0  0  0  0  0  0  0  0  0  0
   39.6330   33.3350   39.6070 C   0  0  0  0  0  0  0  0  0  0  0  0
   38.5930   32.4970   39.9730 C   0  0  0  0  0  0  0  0  0  0  0  0
   38.8500   31.6010   40.9370 N   0  0  0  0  0  0  0  0  0  0  0  0
   40.0140   31.4520   41.5660 C   0  0  0  0  0  0  0  0  0  0  0  0
   41.0150   32.2420   41.2290 N   0  0  0  0  0  0  0  0  0  0  0  0
   41.7020   33.8100   40.0160 H   0  0  0  0  0  0  0  0  0  0  0  0
   39.6070   34.1130   38.8520 H   0  0  0  0  0  0  0  0  0  0  0  0
   37.3270   32.6750   39.2690 C   0  0  0  0  0  0  0  0  0  0  0  0
   36.3850   31.7770   39.7810 F   0  0  0  0  0  0  0  0  0  0  0  0
   37.5490   32.2390   37.9600 F   0  0  0  0  0  0  0  0  0  0  0  0
   36.8450   33.9450   39.3390 F   0  0  0  0  0  0  0  0  0  0  0  0
  1  5  2  0  0  0  0
  1 20  1  0  0  0  0
  2  1  1  0  0  0  0
  3  2  2  0  0  0  0
  3  4  1  0  0  0  0
  4 16  1  0  0  0  0
  4  5  1  0  0  0  0
  6  2  1  0  0  0  0
  7  8  1  0  0  0  0
  7  3  1  0  0  0  0
  8  9  1  0  0  0  0
 10  8  2  0  0  0  0
 11 10  1  0  0  0  0
 12 11  1  0  0  0  0
 13 11  2  0  0  0  0
 13 15  1  0  0  0  0
 14 13  1  0  0  0  0
 15  7  2  0  0  0  0
 16 18  1  0  0  0  0
 16 19  1  0  0  0  0
 17 16  1  0  0  0  0
 20 22  1  0  0  0  0
 21 20  1  0  0  0  0
 23 20  1  0  0  0  0
 23 24  1  0  0  0  0
 25 23  1  0  0  0  0
 26 31  1  0  0  0  0
 27 28  1  0  0  0  0
 27 26  2  0  0  0  0
 28 29  2  0  0  0  0
 29 30  1  0  0  0  0
 30 23  1  0  0  0  0
 31 30  2  0  0  0  0
 32 26  1  0  0  0  0
 33 27  1  0  0  0  0
 34 37  1  0  0  0  0
 34 35  1  0  0  0  0
 34 28  1  0  0  0  0
 36 34  1  0  0  0  0
M  END
>  <minimizedAffinity>
-6.05276346

$$$$

 OpenBabel03242515193D

 37 39  0  0  0  0  0  0  0  0999 V2000
   33.2950   28.9060   37.2350 C   0  0  0  0  0  0  0  0  0  0  0  0
   32.9520   29.4380   36.0170 C   0  0  0  0  0  0  0  0  0  0  0  0
   31.7500   30.1100   36.1790 C   0  0  0  0  0  0  0  0  0  0  0  0
   31.3940   29.9800   37.4480 N   0  0  0  0  0  0  0  0  0  0  0  0
   32.3300   29.2530   38.0750 N   0  0  0  0  0  0  0  0  0  0  0  0
   33.5850   29.2940   35.1520 H   0  0  0  0  0  0  0  0  0  0  0  0
   31.1660   30.7320   35.0280 C   0  0  0  0  0  0  0  0  0  0  0  0
   30.9210   32.0390   34.6970 C   0  0  0  0  0  0  0  0  0  0  0  0
   31.2450   32.7820   35.3950 H   0  0  0  0  0  0  0  0  0  0  0  0
   30.3230   32.4920   33.5610 C   0  0  0  0  0  3  0  0  0  0  0  0
   29.9050   31.5950   32.6150 C   0  0  0  0  0  0  0  0  0  0  0  0
   29.4340   31.9460   31.7210 H   0  0  0  0  0  0  0  0  0  0  0  0
   30.0990   30.2510   32.8400 C   0  0  0  0  0  0  0  0  0  0  0  0
   29.7750   29.5380   32.1060 H   0  0  0  0  0  0  0  0  0  0  0  0
   30.7110   29.8760   34.0160 C   0  0  0  0  0  3  0  0  0  0  0  0
   30.1810   30.5160   38.0830 C   0  0  0  0  0  0  0  0  0  0  0  0
   29.0510   30.0570   37.3690 F   0  0  0  0  0  0  0  0  0  0  0  0
   30.2240   31.8720   38.1270 F   0  0  0  0  0  0  0  0  0  0  0  0
   30.0630   29.9890   39.3370 F   0  0  0  0  0  0  0  0  0  0  0  0
   34.4660   28.1090   37.6090 C   0  0  0  0  0  0  0  0  0  0  0  0
   34.3160   27.5630   38.5630 H   0  0  0  0  0  0  0  0  0  0  0  0
   34.6260   27.3200   36.8440 H   0  0  0  0  0  0  0  0  0  0  0  0
   35.7170   28.9440   37.6590 C   0  0  0  0  0  0  0  0  0  0  0  0
   36.6210   28.3530   37.3290 H   0  0  0  0  0  0  0  0  0  0  0  0
   35.5950   29.7350   36.9360 H   0  0  0  0  0  0  0  0  0  0  0  0
   36.4710   30.9010   40.7370 C   0  0  0  0  0  0  0  0  0  0  0  0
   36.7090   29.8570   41.6540 C   0  0  0  0  0  0  0  0  0  0  0  0
   36.6030   28.5600   41.1810 C   0  0  0  0  0  0  0  0  0  0  0  0
   36.2810   28.4130   39.8870 N   0  0  0  0  0  0  0  0  0  0  0  0
   36.0580   29.4030   39.0270 C   0  0  0  0  0  0  0  0  0  0  0  0
   36.1540   30.6450   39.4610 N   0  0  0  0  0  0  0  0  0  0  0  0
   36.5440   31.9330   41.0710 H   0  0  0  0  0  0  0  0  0  0  0  0
   36.9580   30.1640   42.6640 H   0  0  0  0  0  0  0  0  0  0  0  0
   36.8490   27.4890   42.1410 C   0  0  0  0  0  0  0  0  0  0  0  0
   38.1840   27.5370   42.5530 F   0  0  0  0  0  0  0  0  0  0  0  0
   36.7500   26.2950   41.4200 F   0  0  0  0  0  0  0  0  0  0  0  0
   36.0260   27.5340   43.2230 F   0  0  0  0  0  0  0  0  0  0  0  0
  1 20  1  0  0  0  0
  1  5  2  0  0  0  0
  2  3  2  0  0  0  0
  2  1  1  0  0  0  0
  3  4  1  0  0  0  0
  4  5  1  0  0  0  0
  4 16  1  0  0  0  0
  6  2  1  0  0  0  0
  7  3  1  0  0  0  0
  8  7  1  0  0  0  0
  8  9  1  0  0  0  0
 10  8  2  0  0  0  0
 11 13  2  0  0  0  0
 11 10  1  0  0  0  0
 12 11  1  0  0  0  0
 13 15  1  0  0  0  0
 14 13  1  0  0  0  0
 15  7  2  0  0  0  0
 16 18  1  0  0  0  0
 16 19  1  0  0  0  0
 17 16  1  0  0  0  0
 20 23  1  0  0  0  0
 20 21  1  0  0  0  0
 22 20  1  0  0  0  0
 23 30  1  0  0  0  0
 24 23  1  0  0  0  0
 25 23  1  0  0  0  0
 26 32  1  0  0  0  0
 26 27  1  0  0  0  0
 27 33  1  0  0  0  0
 28 27  2  0  0  0  0
 28 34  1  0  0  0  0
 29 28  1  0  0  0  0
 30 31  1  0  0  0  0
 30 29  2  0  0  0  0
 31 26  2  0  0  0  0
 34 35  1  0  0  0  0
 34 37  1  0  0  0  0
 36 34  1  0  0  0  0
M  END
>  <minimizedAffinity>
-6.03629827

$$$$

 OpenBabel03242515193D

 37 39  0  0  0  0  0  0  0  0999 V2000
   33.6070   28.8820   36.3760 C   0  0  0  0  0  0  0  0  0  0  0  0
   33.0760   29.3840   35.2140 C   0  0  0  0  0  0  0  0  0  0  0  0
   31.8620   29.9730   35.5320 C   0  0  0  0  0  0  0  0  0  0  0  0
   31.6810   29.8240   36.8350 N   0  0  0  0  0  0  0  0  0  0  0  0
   32.7360   29.1660   37.3340 N   0  0  0  0  0  0  0  0  0  0  0  0
   33.6020   29.2790   34.2760 H   0  0  0  0  0  0  0  0  0  0  0  0
   31.0950   30.5480   34.4670 C   0  0  0  0  0  0  0  0  0  0  0  0
   30.3740   30.0030   33.4360 C   0  0  0  0  0  0  0  0  0  0  0  0
   30.3180   28.9350   33.3990 H   0  0  0  0  0  0  0  0  0  0  0  0
   29.7060   30.6810   32.4630 C   0  0  0  0  0  3  0  0  0  0  0  0
   29.7190   32.0500   32.4650 C   0  0  0  0  0  0  0  0  0  0  0  0
   29.1950   32.5880   31.7030 H   0  0  0  0  0  0  0  0  0  0  0  0
   30.4110   32.7090   33.4560 C   0  0  0  0  0  0  0  0  0  0  0  0
   30.4290   33.7810   33.4680 H   0  0  0  0  0  0  0  0  0  0  0  0
   31.0610   31.9480   34.4020 C   0  0  0  0  0  3  0  0  0  0  0  0
   30.5250   30.2790   37.6220 C   0  0  0  0  0  0  0  0  0  0  0  0
   30.7260   29.9270   38.9760 F   0  0  0  0  0  0  0  0  0  0  0  0
   29.3750   29.7450   37.1350 F   0  0  0  0  0  0  0  0  0  0  0  0
   30.4780   31.6430   37.5990 F   0  0  0  0  0  0  0  0  0  0  0  0
   34.8680   28.1680   36.5940 C   0  0  0  0  0  0  0  0  0  0  0  0
   35.0070   27.8750   37.6550 H   0  0  0  0  0  0  0  0  0  0  0  0
   34.8460   27.2130   36.0290 H   0  0  0  0  0  0  0  0  0  0  0  0
   36.0490   28.9560   36.0950 C   0  0  0  0  0  0  0  0  0  0  0  0
   36.9230   28.2820   35.8550 H   0  0  0  0  0  0  0  0  0  0  0  0
   35.7530   29.4070   35.1610 H   0  0  0  0  0  0  0  0  0  0  0  0
   37.7410   31.7360   37.9070 C   0  0  0  0  0  0  0  0  0  0  0  0
   37.3740   31.4390   39.2350 C   0  0  0  0  0  0  0  0  0  0  0  0
   36.5820   30.3210   39.4410 C   0  0  0  0  0  0  0  0  0  0  0  0
   36.2340   29.6200   38.3520 N   0  0  0  0  0  0  0  0  0  0  0  0
   36.5830   29.9060   37.1000 C   0  0  0  0  0  0  0  0  0  0  0  0
   37.3380   30.9670   36.8870 N   0  0  0  0  0  0  0  0  0  0  0  0
   38.3620   32.6050   37.7060 H   0  0  0  0  0  0  0  0  0  0  0  0
   37.7490   32.1190   39.9920 H   0  0  0  0  0  0  0  0  0  0  0  0
   36.2080   30.0260   40.8200 C   0  0  0  0  0  0  0  0  0  0  0  0
   35.8650   31.2160   41.4690 F   0  0  0  0  0  0  0  0  0  0  0  0
   37.3800   29.6070   41.4560 F   0  0  0  0  0  0  0  0  0  0  0  0
   35.1900   29.1300   40.9220 F   0  0  0  0  0  0  0  0  0  0  0  0
  1 20  1  0  0  0  0
  1  5  2  0  0  0  0
  2  3  2  0  0  0  0
  2  1  1  0  0  0  0
  3  4  1  0  0  0  0
  4  5  1  0  0  0  0
  4 16  1  0  0  0  0
  6  2  1  0  0  0  0
  7  3  1  0  0  0  0
  8  7  2  0  0  0  0
  9  8  1  0  0  0  0
 10 11  2  0  0  0  0
 10  8  1  0  0  0  0
 11 13  1  0  0  0  0
 12 11  1  0  0  0  0
 13 14  1  0  0  0  0
 13 15  2  0  0  0  0
 15  7  1  0  0  0  0
 16 17  1  0  0  0  0
 18 16  1  0  0  0  0
 19 16  1  0  0  0  0
 20 21  1  0  0  0  0
 22 20  1  0  0  0  0
 23 20  1  0  0  0  0
 23 30  1  0  0  0  0
 24 23  1  0  0  0  0
 25 23  1  0  0  0  0
 26 27  1  0  0  0  0
 27 28  2  0  0  0  0
 27 33  1  0  0  0  0
 28 34  1  0  0  0  0
 29 28  1  0  0  0  0
 30 29  2  0  0  0  0
 31 30  1  0  0  0  0
 31 26  2  0  0  0  0
 32 26  1  0  0  0  0
 34 37  1  0  0  0  0
 34 36  1  0  0  0  0
 34 35  1  0  0  0  0
M  END
>  <minimizedAffinity>
-5.96278095

$$$$

 OpenBabel03242515193D

 37 39  0  0  0  0  0  0  0  0999 V2000
   36.4070   29.0110   39.7590 C   0  0  0  0  0  0  0  0  0  0  0  0
   36.7240   27.7050   39.4740 C   0  0  0  0  0  0  0  0  0  0  0  0
   37.0360   27.0810   40.6720 C   0  0  0  0  0  0  0  0  0  0  0  0
   36.9080   27.9850   41.6320 N   0  0  0  0  0  0  0  0  0  0  0  0
   36.5300   29.1420   41.0720 N   0  0  0  0  0  0  0  0  0  0  0  0
   36.7010   27.3400   38.4570 H   0  0  0  0  0  0  0  0  0  0  0  0
   37.4330   25.7050   40.6300 C   0  0  0  0  0  0  0  0  0  0  0  0
   36.8920   24.5610   41.1580 C   0  0  0  0  0  0  0  0  0  0  0  0
   35.9680   24.6650   41.6880 H   0  0  0  0  0  0  0  0  0  0  0  0
   37.3990   23.3020   41.0620 C   0  0  0  0  0  3  0  0  0  0  0  0
   38.5670   23.0960   40.3780 C   0  0  0  0  0  0  0  0  0  0  0  0
   38.9690   22.1080   40.2990 H   0  0  0  0  0  0  0  0  0  0  0  0
   39.2010   24.1740   39.8030 C   0  0  0  0  0  0  0  0  0  0  0  0
   40.1170   24.0250   39.2650 H   0  0  0  0  0  0  0  0  0  0  0  0
   38.6220   25.4150   39.9480 C   0  0  0  0  0  3  0  0  0  0  0  0
   37.1480   27.7840   43.0690 C   0  0  0  0  0  0  0  0  0  0  0  0
   38.4080   27.1680   43.2400 F   0  0  0  0  0  0  0  0  0  0  0  0
   36.1540   27.0430   43.6210 F   0  0  0  0  0  0  0  0  0  0  0  0
   37.2480   29.0010   43.6790 F   0  0  0  0  0  0  0  0  0  0  0  0
   36.0070   30.0920   38.8560 C   0  0  0  0  0  0  0  0  0  0  0  0
   35.2520   29.7610   38.1120 H   0  0  0  0  0  0  0  0  0  0  0  0
   35.5050   30.8890   39.4440 H   0  0  0  0  0  0  0  0  0  0  0  0
   37.1930   30.7200   38.1750 C   0  0  0  0  0  0  0  0  0  0  0  0
   38.0590   29.9980   38.1070 H   0  0  0  0  0  0  0  0  0  0  0  0
   36.8960   30.9290   37.1590 H   0  0  0  0  0  0  0  0  0  0  0  0
   37.7680   33.9860   39.8690 C   0  0  0  0  0  0  0  0  0  0  0  0
   39.0940   33.8140   40.3160 C   0  0  0  0  0  0  0  0  0  0  0  0
   39.7140   32.6130   40.0180 C   0  0  0  0  0  0  0  0  0  0  0  0
   38.9930   31.7150   39.3290 N   0  0  0  0  0  0  0  0  0  0  0  0
   37.7410   31.8840   38.9120 C   0  0  0  0  0  0  0  0  0  0  0  0
   37.1350   33.0230   39.1870 N   0  0  0  0  0  0  0  0  0  0  0  0
   37.2470   34.9160   40.0840 H   0  0  0  0  0  0  0  0  0  0  0  0
   39.5200   34.6490   40.8610 H   0  0  0  0  0  0  0  0  0  0  0  0
   41.0860   32.4470   40.4880 C   0  0  0  0  0  0  0  0  0  0  0  0
   41.7770   33.6510   40.3240 F   0  0  0  0  0  0  0  0  0  0  0  0
   41.6970   31.5680   39.5890 F   0  0  0  0  0  0  0  0  0  0  0  0
   41.1670   32.0360   41.7820 F   0  0  0  0  0  0  0  0  0  0  0  0
  1  5  2  0  0  0  0
  2  1  1  0  0  0  0
  2  3  2  0  0  0  0
  3  4  1  0  0  0  0
  4 16  1  0  0  0  0
  5  4  1  0  0  0  0
  6  2  1  0  0  0  0
  7  3  1  0  0  0  0
  7  8  1  0  0  0  0
  8  9  1  0  0  0  0
 10  8  2  0  0  0  0
 11 10  1  0  0  0  0
 12 11  1  0  0  0  0
 13 15  1  0  0  0  0
 13 11  2  0  0  0  0
 14 13  1  0  0  0  0
 15  7  2  0  0  0  0
 16 17  1  0  0  0  0
 16 18  1  0  0  0  0
 16 19  1  0  0  0  0
 20 22  1  0  0  0  0
 20  1  1  0  0  0  0
 21 20  1  0  0  0  0
 23 20  1  0  0  0  0
 23 30  1  0  0  0  0
 24 23  1  0  0  0  0
 25 23  1  0  0  0  0
 26 32  1  0  0  0  0
 26 27  1  0  0  0  0
 27 33  1  0  0  0  0
 28 27  2  0  0  0  0
 28 34  1  0  0  0  0
 29 28  1  0  0  0  0
 30 31  1  0  0  0  0
 30 29  2  0  0  0  0
 31 26  2  0  0  0  0
 34 37  1  0  0  0  0
 35 34  1  0  0  0  0
 36 34  1  0  0  0  0
M  END
>  <minimizedAffinity>
-5.91756153

$$$$

 OpenBabel03242515193D

 37 39  0  0  0  0  0  0  0  0999 V2000
   34.8760   28.7050   37.8760 C   0  0  0  0  0  0  0  0  0  0  0  0
   35.2150   28.1830   39.1000 C   0  0  0  0  0  0  0  0  0  0  0  0
   36.1340   29.0430   39.6800 C   0  0  0  0  0  0  0  0  0  0  0  0
   36.3330   30.0390   38.8290 N   0  0  0  0  0  0  0  0  0  0  0  0
   35.5720   29.8260   37.7470 N   0  0  0  0  0  0  0  0  0  0  0  0
   34.7780   27.2570   39.4450 H   0  0  0  0  0  0  0  0  0  0  0  0
   36.6650   28.6940   40.9630 C   0  0  0  0  0  0  0  0  0  0  0  0
   37.1220   29.4400   42.0190 C   0  0  0  0  0  0  0  0  0  0  0  0
   37.0550   30.5040   41.9220 H   0  0  0  0  0  0  0  0  0  0  0  0
   37.6350   28.9670   43.1880 C   0  0  0  0  0  3  0  0  0  0  0  0
   37.7260   27.6150   43.3860 C   0  0  0  0  0  0  0  0  0  0  0  0
   38.1280   27.2380   44.3030 H   0  0  0  0  0  0  0  0  0  0  0  0
   37.2960   26.7660   42.3920 C   0  0  0  0  0  0  0  0  0  0  0  0
   37.3640   25.7040   42.5350 H   0  0  0  0  0  0  0  0  0  0  0  0
   36.7910   27.3260   41.2390 C   0  0  0  0  0  3  0  0  0  0  0  0
   37.2370   31.1840   39.0090 C   0  0  0  0  0  0  0  0  0  0  0  0
   37.2130   31.9740   37.8370 F   0  0  0  0  0  0  0  0  0  0  0  0
   38.4940   30.7600   39.2970 F   0  0  0  0  0  0  0  0  0  0  0  0
   36.7510   31.9840   40.0020 F   0  0  0  0  0  0  0  0  0  0  0  0
   33.9480   28.1900   36.8660 C   0  0  0  0  0  0  0  0  0  0  0  0
   34.0260   27.0890   36.7460 H   0  0  0  0  0  0  0  0  0  0  0  0
   32.9060   28.3710   37.2050 H   0  0  0  0  0  0  0  0  0  0  0  0
   34.1160   28.8880   35.5440 C   0  0  0  0  0  0  0  0  0  0  0  0
   34.5990   29.9000   35.6700 H   0  0  0  0  0  0  0  0  0  0  0  0
   34.8060   28.2960   34.9630 H   0  0  0  0  0  0  0  0  0  0  0  0
   30.8410   28.7330   33.7770 C   0  0  0  0  0  0  0  0  0  0  0  0
   30.5280   30.1040   33.6950 C   0  0  0  0  0  0  0  0  0  0  0  0
   31.4370   30.9980   34.2360 C   0  0  0  0  0  0  0  0  0  0  0  0
   32.5390   30.4740   34.7930 N   0  0  0  0  0  0  0  0  0  0  0  0
   32.8280   29.1770   34.8680 C   0  0  0  0  0  0  0  0  0  0  0  0
   31.9720   28.3130   34.3580 N   0  0  0  0  0  0  0  0  0  0  0  0
   30.1510   28.0010   33.3640 H   0  0  0  0  0  0  0  0  0  0  0  0
   29.5890   30.3460   33.2070 H   0  0  0  0  0  0  0  0  0  0  0  0
   31.1000   32.4150   34.1450 C   0  0  0  0  0  0  0  0  0  0  0  0
   32.2700   33.1560   33.9570 F   0  0  0  0  0  0  0  0  0  0  0  0
   30.6520   32.7860   35.4170 F   0  0  0  0  0  0  0  0  0  0  0  0
   30.2070   32.6950   33.1580 F   0  0  0  0  0  0  0  0  0  0  0  0
  1  2  1  0  0  0  0
  2  6  1  0  0  0  0
  2  3  2  0  0  0  0
  3  7  1  0  0  0  0
  4 16  1  0  0  0  0
  4  3  1  0  0  0  0
  5  1  2  0  0  0  0
  5  4  1  0  0  0  0
  7 15  2  0  0  0  0
  7  8  1  0  0  0  0
  8 10  2  0  0  0  0
  9  8  1  0  0  0  0
 10 11  1  0  0  0  0
 11 12  1  0  0  0  0
 13 14  1  0  0  0  0
 13 11  2  0  0  0  0
 15 13  1  0  0  0  0
 16 18  1  0  0  0  0
 16 19  1  0  0  0  0
 17 16  1  0  0  0  0
 20 22  1  0  0  0  0
 20  1  1  0  0  0  0
 21 20  1  0  0  0  0
 23 24  1  0  0  0  0
 23 20  1  0  0  0  0
 25 23  1  0  0  0  0
 26 31  1  0  0  0  0
 27 26  2  0  0  0  0
 27 28  1  0  0  0  0
 28 29  2  0  0  0  0
 29 30  1  0  0  0  0
 30 23  1  0  0  0  0
 31 30  2  0  0  0  0
 32 26  1  0  0  0  0
 33 27  1  0  0  0  0
 34 28  1  0  0  0  0
 34 36  1  0  0  0  0
 35 34  1  0  0  0  0
 37 34  1  0  0  0  0
M  END
>  <minimizedAffinity>
-5.89235163

$$$$

 OpenBabel03242515193D

 37 39  0  0  0  0  0  0  0  0999 V2000
   39.4940   29.1990   39.6990 C   0  0  0  0  0  0  0  0  0  0  0  0
   38.3540   28.6680   39.1490 C   0  0  0  0  0  0  0  0  0  0  0  0
   37.5610   29.7260   38.7330 C   0  0  0  0  0  0  0  0  0  0  0  0
   38.2090   30.8440   39.0270 N   0  0  0  0  0  0  0  0  0  0  0  0
   39.3710   30.5150   39.6080 N   0  0  0  0  0  0  0  0  0  0  0  0
   38.2090   27.5980   39.1030 H   0  0  0  0  0  0  0  0  0  0  0  0
   36.2900   29.4240   38.1460 C   0  0  0  0  0  0  0  0  0  0  0  0
   35.0620   29.1270   38.6800 C   0  0  0  0  0  0  0  0  0  0  0  0
   34.9830   29.1480   39.7470 H   0  0  0  0  0  0  0  0  0  0  0  0
   33.9270   28.8270   37.9920 C   0  0  0  0  0  3  0  0  0  0  0  0
   33.9530   28.8060   36.6240 C   0  0  0  0  0  0  0  0  0  0  0  0
   33.0630   28.5710   36.0780 H   0  0  0  0  0  0  0  0  0  0  0  0
   35.1340   29.0890   35.9760 C   0  0  0  0  0  0  0  0  0  0  0  0
   35.1680   29.0750   34.9030 H   0  0  0  0  0  0  0  0  0  0  0  0
   36.2380   29.3820   36.7460 C   0  0  0  0  0  3  0  0  0  0  0  0
   37.7490   32.2190   38.7830 C   0  0  0  0  0  0  0  0  0  0  0  0
   37.4280   32.3570   37.4130 F   0  0  0  0  0  0  0  0  0  0  0  0
   38.6960   33.1140   39.1640 F   0  0  0  0  0  0  0  0  0  0  0  0
   36.5810   32.4250   39.4570 F   0  0  0  0  0  0  0  0  0  0  0  0
   40.6520   28.5180   40.2850 C   0  0  0  0  0  0  0  0  0  0  0  0
   40.7480   27.4710   39.9300 H   0  0  0  0  0  0  0  0  0  0  0  0
   41.5800   29.0250   39.9480 H   0  0  0  0  0  0  0  0  0  0  0  0
   40.6320   28.5750   41.7880 C   0  0  0  0  0  0  0  0  0  0  0  0
   41.3810   27.8600   42.2390 H   0  0  0  0  0  0  0  0  0  0  0  0
   40.9570   29.5650   42.0690 H   0  0  0  0  0  0  0  0  0  0  0  0
   37.3790   28.3560   43.5890 C   0  0  0  0  0  0  0  0  0  0  0  0
   36.9890   27.0430   43.2560 C   0  0  0  0  0  0  0  0  0  0  0  0
   37.8430   26.3110   42.4490 C   0  0  0  0  0  0  0  0  0  0  0  0
   38.9710   26.9210   42.0540 N   0  0  0  0  0  0  0  0  0  0  0  0
   39.3330   28.1620   42.3710 C   0  0  0  0  0  0  0  0  0  0  0  0
   38.5300   28.8720   43.1400 N   0  0  0  0  0  0  0  0  0  0  0  0
   36.7340   28.9610   44.2200 H   0  0  0  0  0  0  0  0  0  0  0  0
   36.0400   26.7140   43.6660 H   0  0  0  0  0  0  0  0  0  0  0  0
   37.4260   24.9540   42.1100 C   0  0  0  0  0  0  0  0  0  0  0  0
   37.0990   24.8990   40.7520 F   0  0  0  0  0  0  0  0  0  0  0  0
   36.2100   24.7490   42.7700 F   0  0  0  0  0  0  0  0  0  0  0  0
   38.3630   24.0130   42.4030 F   0  0  0  0  0  0  0  0  0  0  0  0
  1 20  1  0  0  0  0
  2  1  1  0  0  0  0
  3  4  1  0  0  0  0
  3  2  2  0  0  0  0
  4  5  1  0  0  0  0
  5  1  2  0  0  0  0
  6  2  1  0  0  0  0
  7  8  1  0  0  0  0
  7  3  1  0  0  0  0
  8  9  1  0  0  0  0
 10  8  2  0  0  0  0
 11 10  1  0  0  0  0
 12 11  1  0  0  0  0
 13 11  2  0  0  0  0
 13 15  1  0  0  0  0
 14 13  1  0  0  0  0
 15  7  2  0  0  0  0
 16  4  1  0  0  0  0
 16 18  1  0  0  0  0
 16 19  1  0  0  0  0
 17 16  1  0  0  0  0
 20 23  1  0  0  0  0
 21 20  1  0  0  0  0
 22 20  1  0  0  0  0
 23 25  1  0  0  0  0
 23 24  1  0  0  0  0
 23 30  1  0  0  0  0
 26 32  1  0  0  0  0
 27 26  1  0  0  0  0
 27 33  1  0  0  0  0
 28 27  2  0  0  0  0
 29 30  2  0  0  0  0
 29 28  1  0  0  0  0
 30 31  1  0  0  0  0
 31 26  2  0  0  0  0
 34 37  1  0  0  0  0
 34 28  1  0  0  0  0
 34 36  1  0  0  0  0
 35 34  1  0  0  0  0
M  END
>  <minimizedAffinity>
-5.87417793

$$$$

 OpenBabel03242515193D

 37 39  0  0  0  0  0  0  0  0999 V2000
   35.1390   28.5570   38.5990 C   0  0  0  0  0  0  0  0  0  0  0  0
   35.7790   27.9750   39.6650 C   0  0  0  0  0  0  0  0  0  0  0  0
   36.6530   28.9150   40.1890 C   0  0  0  0  0  0  0  0  0  0  0  0
   36.5350   30.0130   39.4590 N   0  0  0  0  0  0  0  0  0  0  0  0
   35.6210   29.7870   38.5050 N   0  0  0  0  0  0  0  0  0  0  0  0
   35.5590   26.9560   39.9530 H   0  0  0  0  0  0  0  0  0  0  0  0
   37.4660   28.5290   41.3040 C   0  0  0  0  0  0  0  0  0  0  0  0
   38.8180   28.5620   41.5290 C   0  0  0  0  0  0  0  0  0  0  0  0
   39.4250   28.9850   40.7560 H   0  0  0  0  0  0  0  0  0  0  0  0
   39.4680   28.1290   42.6430 C   0  0  0  0  0  3  0  0  0  0  0  0
   38.7480   27.5970   43.6800 C   0  0  0  0  0  0  0  0  0  0  0  0
   39.2550   27.2550   44.5580 H   0  0  0  0  0  0  0  0  0  0  0  0
   37.3800   27.5130   43.5660 C   0  0  0  0  0  0  0  0  0  0  0  0
   36.8040   27.0980   44.3710 H   0  0  0  0  0  0  0  0  0  0  0  0
   36.8000   27.9730   42.4040 C   0  0  0  0  0  3  0  0  0  0  0  0
   37.2760   31.2710   39.6330 C   0  0  0  0  0  0  0  0  0  0  0  0
   36.7710   32.2290   38.7250 F   0  0  0  0  0  0  0  0  0  0  0  0
   38.6060   31.0710   39.4560 F   0  0  0  0  0  0  0  0  0  0  0  0
   37.0170   31.7720   40.8770 F   0  0  0  0  0  0  0  0  0  0  0  0
   34.1220   27.9990   37.7030 C   0  0  0  0  0  0  0  0  0  0  0  0
   34.1730   26.8910   37.6470 H   0  0  0  0  0  0  0  0  0  0  0  0
   33.1150   28.2220   38.1140 H   0  0  0  0  0  0  0  0  0  0  0  0
   34.1900   28.6100   36.3300 C   0  0  0  0  0  0  0  0  0  0  0  0
   35.0210   29.3720   36.2580 H   0  0  0  0  0  0  0  0  0  0  0  0
   34.4510   27.8170   35.6470 H   0  0  0  0  0  0  0  0  0  0  0  0
   31.4570   30.4540   34.5970 C   0  0  0  0  0  0  0  0  0  0  0  0
   30.6070   30.7370   35.6860 C   0  0  0  0  0  0  0  0  0  0  0  0
   31.0060   30.2920   36.9350 C   0  0  0  0  0  0  0  0  0  0  0  0
   32.1700   29.6290   36.9980 N   0  0  0  0  0  0  0  0  0  0  0  0
   32.9670   29.3640   35.9650 C   0  0  0  0  0  0  0  0  0  0  0  0
   32.6020   29.7800   34.7680 N   0  0  0  0  0  0  0  0  0  0  0  0
   31.1780   30.7860   33.6010 H   0  0  0  0  0  0  0  0  0  0  0  0
   29.7030   31.2860   35.4480 H   0  0  0  0  0  0  0  0  0  0  0  0
   30.1160   30.5900   38.0530 C   0  0  0  0  0  0  0  0  0  0  0  0
   30.5260   29.8640   39.1750 F   0  0  0  0  0  0  0  0  0  0  0  0
   28.8760   30.0390   37.7150 F   0  0  0  0  0  0  0  0  0  0  0  0
   30.0510   31.9150   38.3530 F   0  0  0  0  0  0  0  0  0  0  0  0
  1  2  1  0  0  0  0
  2  6  1  0  0  0  0
  2  3  2  0  0  0  0
  3  7  1  0  0  0  0
  4 16  1  0  0  0  0
  4  3  1  0  0  0  0
  5  1  2  0  0  0  0
  5  4  1  0  0  0  0
  7  8  2  0  0  0  0
  7 15  1  0  0  0  0
  8 10  1  0  0  0  0
  9  8  1  0  0  0  0
 10 11  2  0  0  0  0
 11 12  1  0  0  0  0
 13 11  1  0  0  0  0
 13 14  1  0  0  0  0
 15 13  2  0  0  0  0
 16 19  1  0  0  0  0
 17 16  1  0  0  0  0
 18 16  1  0  0  0  0
 20 22  1  0  0  0  0
 20  1  1  0  0  0  0
 21 20  1  0  0  0  0
 23 20  1  0  0  0  0
 24 23  1  0  0  0  0
 25 23  1  0  0  0  0
 26 31  2  0  0  0  0
 26 27  1  0  0  0  0
 27 28  2  0  0  0  0
 28 29  1  0  0  0  0
 28 34  1  0  0  0  0
 30 23  1  0  0  0  0
 30 29  2  0  0  0  0
 31 30  1  0  0  0  0
 32 26  1  0  0  0  0
 33 27  1  0  0  0  0
 34 37  1  0  0  0  0
 34 35  1  0  0  0  0
 36 34  1  0  0  0  0
M  END
>  <minimizedAffinity>
-5.81888103

$$$$
