
 OpenBabel03252508293D

 39 42  0  0  1  0  0  0  0  0999 V2000
   39.9830   34.0890   42.1470 N   0  0  0  0  0  0  0  0  0  0  0  0
   40.5870   35.2210   41.4410 C   0  0  2  0  0  0  0  0  0  0  0  0
   39.9000   35.5680   40.1950 C   0  0  0  0  0  0  0  0  0  0  0  0
   38.7600   34.7340   39.8460 N   0  0  0  0  0  0  0  0  0  0  0  0
   38.8030   33.3770   40.2380 C   0  0  0  0  0  0  0  0  0  0  0  0
   39.9530   33.0420   41.1650 C   0  0  2  0  0  0  0  0  0  0  0  0
   40.6310   33.9180   42.9330 H   0  0  0  0  0  0  0  0  0  0  0  0
   40.5800   36.0330   42.2360 H   0  0  0  0  0  0  0  0  0  0  0  0
   39.3670   36.5550   40.4440 H   0  0  0  0  0  0  0  0  0  0  0  0
   40.4440   35.8630   39.3130 H   0  0  0  0  0  0  0  0  0  0  0  0
   37.8390   35.1170   40.1480 H   0  0  0  0  0  0  0  0  0  0  0  0
   38.9310   32.7660   39.3080 H   0  0  0  0  0  0  0  0  0  0  0  0
   37.8710   33.0150   40.7350 H   0  0  0  0  0  0  0  0  0  0  0  0
   40.8840   33.0280   40.5870 H   0  0  0  0  0  0  0  0  0  0  0  0
   39.7630   31.6940   41.7410 C   0  0  0  0  0  0  0  0  0  0  0  0
   38.6840   30.8990   41.3360 C   0  0  0  0  0  0  0  0  0  0  0  0
   37.9580   31.2430   40.5930 H   0  0  0  0  0  0  0  0  0  0  0  0
   38.5110   29.6410   41.8780 C   0  0  0  0  0  0  0  0  0  0  0  0
   39.4060   29.1510   42.8290 C   0  0  0  0  0  0  0  0  0  0  0  0
   39.2630   28.1620   43.2490 H   0  0  0  0  0  0  0  0  0  0  0  0
   40.4500   29.9360   43.2120 C   0  0  0  0  0  0  0  0  0  0  0  0
   41.1190   29.5220   43.9500 H   0  0  0  0  0  0  0  0  0  0  0  0
   40.6340   31.1780   42.6880 C   0  0  0  0  0  0  0  0  0  0  0  0
   44.1230   34.5910   41.4600 C   0  0  0  0  0  0  0  0  0  0  0  0
   43.8090   34.5310   40.1210 C   0  0  0  0  0  0  0  0  0  0  0  0
   42.4230   34.7590   39.9910 C   0  0  0  0  0  0  0  0  0  0  0  0
   41.9730   34.9440   41.2270 N   0  0  0  0  0  0  0  0  0  0  0  0
   42.9520   34.8480   42.0870 N   0  0  0  0  0  0  0  0  0  0  0  0
   44.5870   34.3340   39.3830 H   0  0  0  0  0  0  0  0  0  0  0  0
   42.1230   34.7170   38.9500 H   0  0  0  0  0  0  0  0  0  0  0  0
   47.8460   34.2920   41.9430 C   0  0  0  0  0  0  0  0  0  0  0  0
   46.6050   34.5070   41.2900 C   0  0  0  0  0  0  0  0  0  0  0  0
   45.4440   34.3940   42.0560 C   0  0  0  0  0  0  0  0  0  0  0  0
   45.5420   34.0910   43.3600 N   0  0  0  0  0  0  0  0  0  0  0  0
   46.7390   33.8880   43.9660 C   0  0  0  0  0  0  0  0  0  0  0  0
   47.8630   33.9920   43.2510 N   0  0  0  0  0  0  0  0  0  0  0  0
   48.6730   34.4060   41.2540 H   0  0  0  0  0  0  0  0  0  0  0  0
   46.4700   34.7490   40.2640 H   0  0  0  0  0  0  0  0  0  0  0  0
   46.8170   33.6440   45.0180 H   0  0  0  0  0  0  0  0  0  0  0  0
  1  7  1  0  0  0  0
  2  1  1  0  0  0  0
  2  8  1  1  0  0  0
  3  9  1  0  0  0  0
  3  2  1  0  0  0  0
  4 11  1  0  0  0  0
  4  3  1  0  0  0  0
  4  5  1  0  0  0  0
  5 13  1  0  0  0  0
  5  6  1  0  0  0  0
  6 14  1  6  0  0  0
  6 15  1  0  0  0  0
  6  1  1  0  0  0  0
 10  3  1  0  0  0  0
 12  5  1  0  0  0  0
 15 23  1  0  0  0  0
 16 15  2  0  0  0  0
 16 18  1  0  0  0  0
 17 16  1  0  0  0  0
 18 19  2  0  0  0  0
 19 21  1  0  0  0  0
 19 20  1  0  0  0  0
 21 22  1  0  0  0  0
 23 21  2  0  0  0  0
 24 33  1  0  0  0  0
 24 28  2  0  0  0  0
 25 24  1  0  0  0  0
 26 25  2  0  0  0  0
 26 27  1  0  0  0  0
 27  2  1  0  0  0  0
 27 28  1  0  0  0  0
 29 25  1  0  0  0  0
 30 26  1  0  0  0  0
 31 36  1  0  0  0  0
 32 31  2  0  0  0  0
 32 33  1  0  0  0  0
 33 34  2  0  0  0  0
 34 35  1  0  0  0  0
 35 39  1  0  0  0  0
 36 35  2  0  0  0  0
 37 31  1  0  0  0  0
 38 32  1  0  0  0  0
M  END
>  <minimizedAffinity>
-6.15241909

>  <minimizedRMSD>
4.94178152

$$$$
