
 OpenBabel03252508543D

 43 46  0  0  1  0  0  0  0  0999 V2000
   43.3810   34.4120   40.7470 C   0  0  0  0  0  0  0  0  0  0  0  0
   43.3030   35.6480   40.4230 O   0  0  0  0  0  0  0  0  0  0  0  0
   42.0250   33.9920   40.4560 N   0  0  0  0  0  0  0  0  0  0  0  0
   41.6240   34.1540   39.0730 C   0  0  0  0  0  0  0  0  0  0  0  0
   40.7950   35.4540   39.0550 C   0  0  0  0  0  0  0  0  0  0  0  0
   40.0290   35.4940   40.3880 C   0  0  0  0  0  0  0  0  0  0  0  0
   39.7190   34.0950   40.8740 C   0  0  0  0  0  0  0  0  0  0  0  0
   41.0160   33.4380   41.3370 C   0  0  1  0  0  0  0  0  0  0  0  0
   42.4730   34.2130   38.3700 H   0  0  0  0  0  0  0  0  0  0  0  0
   40.9230   33.3480   38.7400 H   0  0  0  0  0  0  0  0  0  0  0  0
   41.4550   36.3470   39.0370 H   0  0  0  0  0  0  0  0  0  0  0  0
   40.1230   35.4740   38.1880 H   0  0  0  0  0  0  0  0  0  0  0  0
   40.6240   35.9930   41.1670 H   0  0  0  0  0  0  0  0  0  0  0  0
   39.0350   35.9770   40.2160 H   0  0  0  0  0  0  0  0  0  0  0  0
   39.2680   33.5780   40.0080 H   0  0  0  0  0  0  0  0  0  0  0  0
   39.0290   34.2140   41.7310 H   0  0  0  0  0  0  0  0  0  0  0  0
   41.2200   33.8490   42.3490 H   0  0  0  0  0  0  0  0  0  0  0  0
   40.9390   31.9760   41.3400 C   0  0  0  0  0  0  0  0  0  0  0  0
   40.3280   31.4050   42.4430 C   0  0  0  0  0  0  0  0  0  0  0  0
   39.9240   31.9710   43.2650 H   0  0  0  0  0  0  0  0  0  0  0  0
   40.1770   30.0470   42.5940 C   0  0  0  0  0  3  0  0  0  0  0  0
   40.6480   29.1940   41.6170 C   0  0  0  0  0  0  0  0  0  0  0  0
   40.5370   28.1200   41.7210 H   0  0  0  0  0  0  0  0  0  0  0  0
   41.2700   29.7310   40.4900 C   0  0  0  0  0  0  0  0  0  0  0  0
   41.6520   29.0950   39.7020 H   0  0  0  0  0  0  0  0  0  0  0  0
   41.3990   31.1000   40.3820 C   0  0  0  0  0  3  0  0  0  0  0  0
   44.4770   33.7680   41.2220 O   0  0  0  0  0  0  0  0  0  0  0  0
   45.7950   34.1170   41.0630 C   0  0  0  0  0  0  0  0  0  0  0  0
   46.4190   34.7580   42.1460 C   0  0  0  0  0  0  0  0  0  0  0  0
   47.7690   35.1050   41.9600 C   0  0  0  0  0  0  0  0  0  0  0  0
   48.3730   34.8060   40.7700 N   0  0  0  0  0  0  0  0  0  0  0  0
   47.7230   34.1970   39.7880 C   0  0  0  0  0  0  0  0  0  0  0  0
   46.4340   33.8490   39.9260 N   0  0  0  0  0  0  0  0  0  0  0  0
   48.2340   35.5940   42.7920 H   0  0  0  0  0  0  0  0  0  0  0  0
   48.2700   33.9980   38.8870 H   0  0  0  0  0  0  0  0  0  0  0  0
   45.6860   35.0270   43.3600 C   0  0  0  0  0  0  0  0  0  0  0  0
   45.0210   36.2260   43.5950 C   0  0  0  0  0  0  0  0  0  0  0  0
   44.4740   36.0570   44.8390 C   0  0  0  0  0  0  0  0  0  0  0  0
   44.7810   34.8400   45.3320 N   0  0  0  0  0  0  0  0  0  0  0  0
   45.5070   34.2500   44.4210 N   0  0  0  0  0  0  0  0  0  0  0  0
   44.9750   37.0750   42.9170 H   0  0  0  0  0  0  0  0  0  0  0  0
   43.8720   36.7980   45.3650 H   0  0  0  0  0  0  0  0  0  0  0  0
   44.5350   34.3830   46.2380 H   0  0  0  0  0  0  0  0  0  0  0  0
  1 27  1  0  0  0  0
  2  1  2  0  0  0  0
  3  1  1  0  0  0  0
  3  8  1  0  0  0  0
  4  3  1  0  0  0  0
  5  4  1  0  0  0  0
  5  6  1  0  0  0  0
  6  7  1  0  0  0  0
  6 13  1  0  0  0  0
  7  8  1  0  0  0  0
  7 16  1  0  0  0  0
  8 18  1  0  0  0  0
  8 17  1  1  0  0  0
  9  4  1  0  0  0  0
 10  4  1  0  0  0  0
 11  5  1  0  0  0  0
 12  5  1  0  0  0  0
 14  6  1  0  0  0  0
 15  7  1  0  0  0  0
 18 19  1  0  0  0  0
 19 21  2  0  0  0  0
 19 20  1  0  0  0  0
 22 23  1  0  0  0  0
 22 21  1  0  0  0  0
 24 22  2  0  0  0  0
 25 24  1  0  0  0  0
 26 24  1  0  0  0  0
 26 18  2  0  0  0  0
 28 27  1  0  0  0  0
 28 29  1  0  0  0  0
 29 36  1  0  0  0  0
 30 29  2  0  0  0  0
 30 34  1  0  0  0  0
 31 30  1  0  0  0  0
 32 33  1  0  0  0  0
 32 31  2  0  0  0  0
 33 28  2  0  0  0  0
 35 32  1  0  0  0  0
 36 37  1  0  0  0  0
 36 40  2  0  0  0  0
 37 38  2  0  0  0  0
 38 39  1  0  0  0  0
 38 42  1  0  0  0  0
 39 43  1  0  0  0  0
 40 39  1  0  0  0  0
 41 37  1  0  0  0  0
M  END
>  <minimizedAffinity>
-6.73059845

>  <minimizedRMSD>
0.276281148

$$$$
