
 OpenBabel03252501383D

 35 37  0  0  0  0  0  0  0  0999 V2000
   42.5390   31.5880   39.3350 Cl  0  0  0  0  0  0  0  0  0  0  0  0
   41.6960   33.0920   39.6260 C   0  0  0  0  0  0  0  0  0  0  0  0
   42.3450   34.2500   40.0190 C   0  0  0  0  0  0  0  0  0  0  0  0
   41.6210   35.3910   40.2290 C   0  0  0  0  0  0  0  0  0  0  0  0
   40.2580   35.4890   40.0800 C   0  0  0  0  0  0  0  0  0  0  0  0
   39.5750   34.3280   39.6820 C   0  0  0  0  0  0  0  0  0  0  0  0
   37.8400   34.3110   39.4540 Cl  0  0  0  0  0  0  0  0  0  0  0  0
   40.3170   33.1870   39.4740 C   0  0  0  0  0  0  0  0  0  0  0  0
   42.1600   36.2970   40.5390 H   0  0  0  0  0  0  0  0  0  0  0  0
   39.7020   36.3940   40.2480 H   0  0  0  0  0  0  0  0  0  0  0  0
   39.6390   31.9480   39.0570 C   0  0  0  0  0  0  0  0  0  0  0  0
   39.1620   31.0140   39.9740 C   0  0  0  0  0  0  0  0  0  0  0  0
   39.3200   31.2520   41.0340 H   0  0  0  0  0  0  0  0  0  0  0  0
   38.5330   29.8680   39.5300 C   0  0  0  0  0  0  0  0  0  0  0  0
   38.3970   29.6870   38.1510 C   0  0  0  0  0  0  0  0  0  0  0  0
   37.8960   28.7730   37.8100 H   0  0  0  0  0  0  0  0  0  0  0  0
   38.8800   30.6300   37.2790 C   0  0  0  0  0  0  0  0  0  0  0  0
   38.7780   30.4940   36.1950 H   0  0  0  0  0  0  0  0  0  0  0  0
   39.5100   31.7790   37.7000 C   0  0  0  0  0  0  0  0  0  0  0  0
   43.7250   34.1540   40.1700 O   0  0  0  0  0  0  0  0  0  0  0  0
   44.2450   33.9850   41.4530 C   0  0  0  0  0  0  0  0  0  0  0  0
   43.9040   33.0710   42.2790 O   0  0  0  0  0  0  0  0  0  0  0  0
   45.2440   34.8540   41.9850 N   0  0  0  0  0  0  0  0  0  0  0  0
   45.6230   35.6300   41.4170 H   0  0  0  0  0  0  0  0  0  0  0  0
   45.5570   34.4360   43.3400 C   0  0  0  0  0  0  0  0  0  0  0  0
   44.8690   34.8410   44.4690 C   0  0  0  0  0  0  0  0  0  0  0  0
   45.3190   34.3350   45.6700 C   0  0  0  0  0  0  0  0  0  0  0  0
   46.3760   33.4970   45.6570 N   0  0  0  0  0  0  0  0  0  0  0  0
   47.0150   33.1290   44.5400 C   0  0  0  0  0  0  0  0  0  0  0  0
   46.6080   33.6030   43.3320 N   0  0  0  0  0  0  0  0  0  0  0  0
   44.7860   34.6470   46.5610 H   0  0  0  0  0  0  0  0  0  0  0  0
   47.8700   32.4420   44.6230 H   0  0  0  0  0  0  0  0  0  0  0  0
   43.7860   35.7220   44.2940 N   0  0  0  0  0  0  0  0  0  0  0  0
   42.9070   35.2600   43.9980 H   0  0  0  0  0  0  0  0  0  0  0  0
   43.7280   36.7570   44.4140 H   0  0  0  0  0  0  0  0  0  0  0  0
  1  2  1  0  0  0  0
  2  3  1  0  0  0  0
  3 20  1  0  0  0  0
  3  4  2  0  0  0  0
  4  9  1  0  0  0  0
  5  4  1  0  0  0  0
  5 10  1  0  0  0  0
  6  5  2  0  0  0  0
  7  6  1  0  0  0  0
  8  2  2  0  0  0  0
  8  6  1  0  0  0  0
 11  8  1  0  0  0  0
 11 12  1  0  0  0  0
 12 13  1  0  0  0  0
 14 12  2  0  0  0  0
 15 14  1  0  0  0  0
 16 15  1  0  0  0  0
 17 19  1  0  0  0  0
 17 15  2  0  0  0  0
 18 17  1  0  0  0  0
 19 11  2  0  0  0  0
 20 21  1  0  0  0  0
 21 23  1  0  0  0  0
 21 22  2  0  0  0  0
 23 25  1  0  0  0  0
 24 23  1  0  0  0  0
 25 26  1  0  0  0  0
 26 27  2  0  0  0  0
 27 31  1  0  0  0  0
 28 27  1  0  0  0  0
 29 32  1  0  0  0  0
 29 28  2  0  0  0  0
 30 25  2  0  0  0  0
 30 29  1  0  0  0  0
 33 35  1  0  0  0  0
 33 26  1  0  0  0  0
 34 33  1  0  0  0  0
M  END
>  <minimizedAffinity>
-5.95473242

>  <minimizedRMSD>
1.82113683

$$$$
