
 OpenBabel03252502213D

 33 35  0  0  1  0  0  0  0  0999 V2000
   46.8050   34.5630   42.3110 N   0  0  0  0  0  0  0  0  0  0  0  0
   48.2530   34.5840   42.3250 C   0  0  0  0  0  0  0  0  0  0  0  0
   48.6470   35.3530   41.0460 C   0  0  0  0  0  0  0  0  0  0  0  0
   48.2180   34.6120   39.8240 C   0  0  0  0  0  0  0  0  0  0  0  0
   46.9310   33.8870   39.9530 C   0  0  0  0  0  0  0  0  0  0  0  0
   46.0600   34.3220   41.0910 C   0  0  1  0  0  0  0  0  0  0  0  0
   48.6640   35.1370   43.1730 H   0  0  0  0  0  0  0  0  0  0  0  0
   48.6930   33.5730   42.2670 H   0  0  0  0  0  0  0  0  0  0  0  0
   49.7590   35.3600   41.0490 H   0  0  0  0  0  0  0  0  0  0  0  0
   48.2430   36.3760   41.0900 H   0  0  0  0  0  0  0  0  0  0  0  0
   48.0900   35.3710   39.0140 H   0  0  0  0  0  0  0  0  0  0  0  0
   48.9970   33.9070   39.4290 H   0  0  0  0  0  0  0  0  0  0  0  0
   46.3070   33.9040   39.0340 H   0  0  0  0  0  0  0  0  0  0  0  0
   47.1610   32.7960   40.1170 H   0  0  0  0  0  0  0  0  0  0  0  0
   45.5250   35.2450   40.7880 H   0  0  0  0  0  0  0  0  0  0  0  0
   44.4560   35.9990   44.8430 C   0  0  0  0  0  0  0  0  0  0  0  0
   45.1570   35.8780   43.6390 C   0  0  0  0  0  0  0  0  0  0  0  0
   46.0440   34.7780   43.4940 C   0  0  0  0  0  0  0  0  0  0  0  0
   46.1490   33.9170   44.5400 N   0  0  0  0  0  0  0  0  0  0  0  0
   45.4530   34.0680   45.6890 C   0  0  0  0  0  0  0  0  0  0  0  0
   44.6040   35.1180   45.8310 N   0  0  0  0  0  0  0  0  0  0  0  0
   43.8190   36.8800   44.8110 H   0  0  0  0  0  0  0  0  0  0  0  0
   45.0970   36.5350   42.8010 H   0  0  0  0  0  0  0  0  0  0  0  0
   45.5160   33.4060   46.5280 H   0  0  0  0  0  0  0  0  0  0  0  0
   45.0910   33.2100   41.3480 C   0  0  0  0  0  0  0  0  0  0  0  0
   45.5430   31.9390   41.6480 C   0  0  0  0  0  0  0  0  0  0  0  0
   46.6190   31.7800   41.6910 H   0  0  0  0  0  0  0  0  0  0  0  0
   44.6160   30.9620   41.8730 C   0  0  0  0  0  0  0  0  0  0  0  0
   43.2720   31.2490   41.7990 C   0  0  0  0  0  0  0  0  0  0  0  0
   42.5750   30.4410   41.9850 H   0  0  0  0  0  0  0  0  0  0  0  0
   42.7960   32.5280   41.4960 C   0  0  0  0  0  0  0  0  0  0  0  0
   41.7130   32.7040   41.4500 H   0  0  0  0  0  0  0  0  0  0  0  0
   43.7360   33.5220   41.2680 C   0  0  0  0  0  0  0  0  0  0  0  0
  1  2  1  0  0  0  0
  1 18  1  0  0  0  0
  2  7  1  0  0  0  0
  3  9  1  0  0  0  0
  3 10  1  0  0  0  0
  3  2  1  0  0  0  0
  4  5  1  0  0  0  0
  4  3  1  0  0  0  0
  5 14  1  0  0  0  0
  5  6  1  0  0  0  0
  6 15  1  6  0  0  0
  6 25  1  0  0  0  0
  6  1  1  0  0  0  0
  8  2  1  0  0  0  0
 11  4  1  0  0  0  0
 12  4  1  0  0  0  0
 13  5  1  0  0  0  0
 16 21  1  0  0  0  0
 17 16  2  0  0  0  0
 18 17  1  0  0  0  0
 18 19  2  0  0  0  0
 19 20  1  0  0  0  0
 20 21  2  0  0  0  0
 20 24  1  0  0  0  0
 22 16  1  0  0  0  0
 23 17  1  0  0  0  0
 25 26  1  0  0  0  0
 26 27  1  0  0  0  0
 26 28  2  0  0  0  0
 29 28  1  0  0  0  0
 29 30  1  0  0  0  0
 31 29  2  0  0  0  0
 32 31  1  0  0  0  0
 33 25  2  0  0  0  0
 33 31  1  0  0  0  0
M  END
>  <minimizedAffinity>
-5.17730665

>  <minimizedRMSD>
0.196197316

$$$$
