
 OpenBabel03252508553D

 43 46  0  0  1  0  0  0  0  0999 V2000
   43.2970   34.4100   40.7220 C   0  0  0  0  0  0  0  0  0  0  0  0
   43.2550   35.6030   40.2580 O   0  0  0  0  0  0  0  0  0  0  0  0
   41.9300   33.9980   40.4740 N   0  0  0  0  0  0  0  0  0  0  0  0
   41.5350   34.0130   39.0810 C   0  0  0  0  0  0  0  0  0  0  0  0
   40.7440   35.3260   38.9100 C   0  0  0  0  0  0  0  0  0  0  0  0
   39.9780   35.5390   40.2270 C   0  0  0  0  0  0  0  0  0  0  0  0
   39.6270   34.2140   40.8690 C   0  0  0  0  0  0  0  0  0  0  0  0
   40.9040   33.5770   41.4090 C   0  0  1  0  0  0  0  0  0  0  0  0
   42.3860   33.9670   38.3790 H   0  0  0  0  0  0  0  0  0  0  0  0
   40.8120   33.1950   38.8390 H   0  0  0  0  0  0  0  0  0  0  0  0
   41.4290   36.1920   38.7930 H   0  0  0  0  0  0  0  0  0  0  0  0
   40.0730   35.2650   38.0440 H   0  0  0  0  0  0  0  0  0  0  0  0
   40.5860   36.1070   40.9470 H   0  0  0  0  0  0  0  0  0  0  0  0
   38.9980   36.0270   39.9970 H   0  0  0  0  0  0  0  0  0  0  0  0
   39.1620   33.6150   40.0660 H   0  0  0  0  0  0  0  0  0  0  0  0
   38.9400   34.4500   41.7030 H   0  0  0  0  0  0  0  0  0  0  0  0
   41.1200   34.0960   42.3680 H   0  0  0  0  0  0  0  0  0  0  0  0
   40.7860   32.1280   41.5790 C   0  0  0  0  0  0  0  0  0  0  0  0
   41.9140   31.4800   42.0530 C   0  0  0  0  0  0  0  0  0  0  0  0
   42.8370   31.9820   42.2900 H   0  0  0  0  0  0  0  0  0  0  0  0
   41.9620   30.1240   42.2660 C   0  0  0  0  0  3  0  0  0  0  0  0
   40.8490   29.3510   42.0050 C   0  0  0  0  0  0  0  0  0  0  0  0
   40.8710   28.2780   42.1690 H   0  0  0  0  0  0  0  0  0  0  0  0
   39.6930   29.9670   41.5260 C   0  0  0  0  0  0  0  0  0  0  0  0
   38.8000   29.3950   41.3090 H   0  0  0  0  0  0  0  0  0  0  0  0
   39.6920   31.3330   41.3260 C   0  0  0  0  0  3  0  0  0  0  0  0
   44.3740   33.7940   41.2710 O   0  0  0  0  0  0  0  0  0  0  0  0
   45.7000   34.1070   41.1070 C   0  0  0  0  0  0  0  0  0  0  0  0
   46.3450   34.7350   42.1840 C   0  0  0  0  0  0  0  0  0  0  0  0
   47.7040   35.0450   41.9920 C   0  0  0  0  0  0  0  0  0  0  0  0
   48.2950   34.7250   40.8010 N   0  0  0  0  0  0  0  0  0  0  0  0
   47.6240   34.1310   39.8240 C   0  0  0  0  0  0  0  0  0  0  0  0
   46.3270   33.8180   39.9680 N   0  0  0  0  0  0  0  0  0  0  0  0
   48.1840   35.5240   42.8210 H   0  0  0  0  0  0  0  0  0  0  0  0
   48.1630   33.9150   38.9210 H   0  0  0  0  0  0  0  0  0  0  0  0
   45.6250   35.0280   43.4000 C   0  0  0  0  0  0  0  0  0  0  0  0
   44.9950   36.2450   43.6340 C   0  0  0  0  0  0  0  0  0  0  0  0
   44.4470   36.0950   44.8810 C   0  0  0  0  0  0  0  0  0  0  0  0
   44.7210   34.8710   45.3760 N   0  0  0  0  0  0  0  0  0  0  0  0
   45.4270   34.2580   44.4640 N   0  0  0  0  0  0  0  0  0  0  0  0
   44.9700   37.0930   42.9550 H   0  0  0  0  0  0  0  0  0  0  0  0
   43.8680   36.8530   45.4080 H   0  0  0  0  0  0  0  0  0  0  0  0
   44.4660   34.4230   46.2840 H   0  0  0  0  0  0  0  0  0  0  0  0
  1 27  1  0  0  0  0
  2  1  2  0  0  0  0
  3  1  1  0  0  0  0
  3  8  1  0  0  0  0
  4  3  1  0  0  0  0
  5  4  1  0  0  0  0
  5  6  1  0  0  0  0
  6  7  1  0  0  0  0
  6 13  1  0  0  0  0
  7  8  1  0  0  0  0
  7 16  1  0  0  0  0
  8 18  1  0  0  0  0
  8 17  1  1  0  0  0
  9  4  1  0  0  0  0
 10  4  1  0  0  0  0
 11  5  1  0  0  0  0
 12  5  1  0  0  0  0
 14  6  1  0  0  0  0
 15  7  1  0  0  0  0
 18 19  1  0  0  0  0
 19 21  2  0  0  0  0
 19 20  1  0  0  0  0
 22 23  1  0  0  0  0
 22 21  1  0  0  0  0
 24 22  2  0  0  0  0
 25 24  1  0  0  0  0
 26 24  1  0  0  0  0
 26 18  2  0  0  0  0
 28 27  1  0  0  0  0
 28 29  1  0  0  0  0
 29 36  1  0  0  0  0
 30 29  2  0  0  0  0
 30 34  1  0  0  0  0
 31 30  1  0  0  0  0
 32 33  1  0  0  0  0
 32 31  2  0  0  0  0
 33 28  2  0  0  0  0
 35 32  1  0  0  0  0
 36 37  1  0  0  0  0
 36 40  2  0  0  0  0
 37 38  2  0  0  0  0
 38 39  1  0  0  0  0
 38 42  1  0  0  0  0
 39 43  1  0  0  0  0
 40 39  1  0  0  0  0
 41 37  1  0  0  0  0
M  END
>  <minimizedAffinity>
-6.67221594

>  <minimizedRMSD>
0.67767185

$$$$
