
 OpenBabel03242517213D

 33 35  0  0  1  0  0  0  0  0999 V2000
   44.7730   35.2170   45.3870 C   0  0  0  0  0  0  0  0  0  0  0  0
   44.6970   36.0550   44.2530 C   0  0  0  0  0  0  0  0  0  0  0  0
   45.3310   35.6540   43.0580 C   0  0  0  0  0  0  0  0  0  0  0  0
   45.9800   34.4670   43.0870 N   0  0  0  0  0  0  0  0  0  0  0  0
   46.0450   33.6720   44.1810 C   0  0  0  0  0  0  0  0  0  0  0  0
   45.4360   34.0680   45.3110 N   0  0  0  0  0  0  0  0  0  0  0  0
   46.7670   32.4310   44.1050 N   0  0  0  0  0  0  0  0  0  0  0  0
   46.6300   31.5540   45.2510 C   0  0  0  0  0  0  0  0  0  0  0  0
   47.6030   30.4470   45.3010 C   0  0  0  0  0  0  0  0  0  0  0  0
   48.0270   30.0110   43.9540 C   0  0  0  0  0  0  0  0  0  0  0  0
   48.6710   31.1930   43.2750 C   0  0  0  0  0  0  0  0  0  0  0  0
   47.5580   32.1440   42.9180 C   0  0  2  0  0  0  0  0  0  0  0  0
   44.2840   35.5230   46.3130 H   0  0  0  0  0  0  0  0  0  0  0  0
   44.1560   37.0020   44.2960 H   0  0  0  0  0  0  0  0  0  0  0  0
   45.2940   36.2700   42.1700 H   0  0  0  0  0  0  0  0  0  0  0  0
   45.5860   31.1350   45.2300 H   0  0  0  0  0  0  0  0  0  0  0  0
   46.6520   32.1730   46.1910 H   0  0  0  0  0  0  0  0  0  0  0  0
   48.4980   30.7670   45.8630 H   0  0  0  0  0  0  0  0  0  0  0  0
   47.1060   29.5620   45.7940 H   0  0  0  0  0  0  0  0  0  0  0  0
   47.2240   29.6130   43.3150 H   0  0  0  0  0  0  0  0  0  0  0  0
   48.8140   29.2150   44.0750 H   0  0  0  0  0  0  0  0  0  0  0  0
   49.3710   31.6370   44.0170 H   0  0  0  0  0  0  0  0  0  0  0  0
   49.2640   30.9120   42.3930 H   0  0  0  0  0  0  0  0  0  0  0  0
   46.8910   31.6040   42.2180 H   0  0  0  0  0  0  0  0  0  0  0  0
   48.0870   33.3910   42.3020 C   0  0  0  0  0  0  0  0  0  0  0  0
   48.9400   34.2790   42.9460 C   0  0  0  0  0  0  0  0  0  0  0  0
   49.1870   33.9500   43.9520 H   0  0  0  0  0  0  0  0  0  0  0  0
   49.4090   35.4300   42.3730 C   0  0  0  0  0  0  0  0  0  0  0  0
   49.0130   35.7310   41.0740 C   0  0  0  0  0  0  0  0  0  0  0  0
   49.4260   36.6560   40.6950 H   0  0  0  0  0  0  0  0  0  0  0  0
   48.1680   34.8800   40.3970 C   0  0  0  0  0  0  0  0  0  0  0  0
   47.9160   35.1980   39.3960 H   0  0  0  0  0  0  0  0  0  0  0  0
   47.6980   33.7090   40.9960 C   0  0  0  0  0  0  0  0  0  0  0  0
  1 13  1  0  0  0  0
  2 14  1  0  0  0  0
  2  1  2  0  0  0  0
  3  4  2  0  0  0  0
  3  2  1  0  0  0  0
  4  5  1  0  0  0  0
  5  6  2  0  0  0  0
  6  1  1  0  0  0  0
  7  5  1  0  0  0  0
  7  8  1  0  0  0  0
  8  9  1  0  0  0  0
  8 17  1  0  0  0  0
  9 19  1  0  0  0  0
  9 18  1  0  0  0  0
 10 21  1  0  0  0  0
 10  9  1  0  0  0  0
 11 10  1  0  0  0  0
 11 22  1  0  0  0  0
 12 24  1  6  0  0  0
 12 11  1  0  0  0  0
 12  7  1  0  0  0  0
 15  3  1  0  0  0  0
 16  8  1  0  0  0  0
 20 10  1  0  0  0  0
 23 11  1  0  0  0  0
 25 12  1  0  0  0  0
 25 26  1  0  0  0  0
 26 27  1  0  0  0  0
 28 26  2  0  0  0  0
 29 28  1  0  0  0  0
 30 29  1  0  0  0  0
 31 33  1  0  0  0  0
 31 29  2  0  0  0  0
 32 31  1  0  0  0  0
 33 25  2  0  0  0  0
M  END
>  <minimizedAffinity>
-5.75426149

>  <minimizedRMSD>
3.31970429

$$$$
