
 OpenBabel03242517213D

 33 35  0  0  1  0  0  0  0  0999 V2000
   39.0210   32.6070   40.6650 C   0  0  0  0  0  0  0  0  0  0  0  0
   38.1350   33.0000   39.6370 C   0  0  0  0  0  0  0  0  0  0  0  0
   36.9940   32.2130   39.3760 C   0  0  0  0  0  0  0  0  0  0  0  0
   36.8270   31.1140   40.1480 N   0  0  0  0  0  0  0  0  0  0  0  0
   37.6840   30.7490   41.1310 C   0  0  0  0  0  0  0  0  0  0  0  0
   38.7660   31.5080   41.3670 N   0  0  0  0  0  0  0  0  0  0  0  0
   37.4140   29.5570   41.8900 N   0  0  0  0  0  0  0  0  0  0  0  0
   38.2690   29.3400   43.0400 C   0  0  0  0  0  0  0  0  0  0  0  0
   38.1930   27.9850   43.6180 C   0  0  0  0  0  0  0  0  0  0  0  0
   36.8640   27.3670   43.4270 C   0  0  0  0  0  0  0  0  0  0  0  0
   36.6130   27.2770   41.9440 C   0  0  0  0  0  0  0  0  0  0  0  0
   36.3340   28.6790   41.4680 C   0  0  2  0  0  0  0  0  0  0  0  0
   39.9050   33.2130   40.8700 H   0  0  0  0  0  0  0  0  0  0  0  0
   38.3280   33.8990   39.0500 H   0  0  0  0  0  0  0  0  0  0  0  0
   36.2930   32.4830   38.5980 H   0  0  0  0  0  0  0  0  0  0  0  0
   37.9790   30.0960   43.8200 H   0  0  0  0  0  0  0  0  0  0  0  0
   39.3240   29.6220   42.7710 H   0  0  0  0  0  0  0  0  0  0  0  0
   38.9510   27.3380   43.1420 H   0  0  0  0  0  0  0  0  0  0  0  0
   38.3640   28.0650   44.7300 H   0  0  0  0  0  0  0  0  0  0  0  0
   36.0280   27.8940   43.9100 H   0  0  0  0  0  0  0  0  0  0  0  0
   36.9050   26.3170   43.8320 H   0  0  0  0  0  0  0  0  0  0  0  0
   37.5430   26.8650   41.4930 H   0  0  0  0  0  0  0  0  0  0  0  0
   35.7930   26.5900   41.6880 H   0  0  0  0  0  0  0  0  0  0  0  0
   35.4250   29.0210   42.0000 H   0  0  0  0  0  0  0  0  0  0  0  0
   36.1410   28.7230   39.9930 C   0  0  0  0  0  0  0  0  0  0  0  0
   34.9550   29.0980   39.3720 C   0  0  0  0  0  0  0  0  0  0  0  0
   34.1860   29.3680   40.0910 H   0  0  0  0  0  0  0  0  0  0  0  0
   34.7860   29.1220   38.0140 C   0  0  0  0  0  3  0  0  0  0  0  0
   35.8570   28.7520   37.2070 C   0  0  0  0  0  0  0  0  0  0  0  0
   35.6420   28.7970   36.1490 H   0  0  0  0  0  0  0  0  0  0  0  0
   37.0510   28.3730   37.7790 C   0  0  0  0  0  0  0  0  0  0  0  0
   37.8220   28.1020   37.0740 H   0  0  0  0  0  0  0  0  0  0  0  0
   37.2080   28.3530   39.1670 C   0  0  0  0  0  3  0  0  0  0  0  0
  1 13  1  0  0  0  0
  1  6  1  0  0  0  0
  2  1  2  0  0  0  0
  3  2  1  0  0  0  0
  3  4  2  0  0  0  0
  4  5  1  0  0  0  0
  5  6  2  0  0  0  0
  5  7  1  0  0  0  0
  7  8  1  0  0  0  0
  8  9  1  0  0  0  0
  8 16  1  0  0  0  0
  9 19  1  0  0  0  0
 10  9  1  0  0  0  0
 10 21  1  0  0  0  0
 10 20  1  0  0  0  0
 11 10  1  0  0  0  0
 12  7  1  0  0  0  0
 12 11  1  0  0  0  0
 12 24  1  1  0  0  0
 14  2  1  0  0  0  0
 15  3  1  0  0  0  0
 17  8  1  0  0  0  0
 18  9  1  0  0  0  0
 22 11  1  0  0  0  0
 23 11  1  0  0  0  0
 25 12  1  0  0  0  0
 26 25  1  0  0  0  0
 26 27  1  0  0  0  0
 28 26  2  0  0  0  0
 29 31  2  0  0  0  0
 29 28  1  0  0  0  0
 30 29  1  0  0  0  0
 31 33  1  0  0  0  0
 32 31  1  0  0  0  0
 33 25  2  0  0  0  0
M  END
>  <minimizedAffinity>
-5.52314806

$$$$

 OpenBabel03242517213D

 33 35  0  0  1  0  0  0  0  0999 V2000
   42.0380   30.4620   42.2470 C   0  0  0  0  0  0  0  0  0  0  0  0
   41.8250   31.7300   41.6610 C   0  0  0  0  0  0  0  0  0  0  0  0
   40.5090   32.1270   41.3450 C   0  0  0  0  0  0  0  0  0  0  0  0
   39.5250   31.2450   41.6320 N   0  0  0  0  0  0  0  0  0  0  0  0
   39.7430   30.0320   42.1940 C   0  0  0  0  0  0  0  0  0  0  0  0
   41.0010   29.6680   42.4900 N   0  0  0  0  0  0  0  0  0  0  0  0
   38.6230   29.1680   42.4540 N   0  0  0  0  0  0  0  0  0  0  0  0
   38.9170   27.9770   43.2260 C   0  0  0  0  0  0  0  0  0  0  0  0
   37.8490   26.9580   43.2190 C   0  0  0  0  0  0  0  0  0  0  0  0
   36.5060   27.5550   43.0700 C   0  0  0  0  0  0  0  0  0  0  0  0
   36.4790   28.2940   41.7570 C   0  0  0  0  0  0  0  0  0  0  0  0
   37.3110   29.5360   41.9440 C   0  0  2  0  0  0  0  0  0  0  0  0
   43.0540   30.1510   42.4940 H   0  0  0  0  0  0  0  0  0  0  0  0
   42.6640   32.3950   41.4550 H   0  0  0  0  0  0  0  0  0  0  0  0
   40.3080   33.0900   40.8960 H   0  0  0  0  0  0  0  0  0  0  0  0
   39.1160   28.3030   44.2830 H   0  0  0  0  0  0  0  0  0  0  0  0
   39.9020   27.5520   42.8850 H   0  0  0  0  0  0  0  0  0  0  0  0
   38.0140   26.2560   42.3830 H   0  0  0  0  0  0  0  0  0  0  0  0
   37.8650   26.4240   44.2120 H   0  0  0  0  0  0  0  0  0  0  0  0
   36.2010   28.2350   43.8800 H   0  0  0  0  0  0  0  0  0  0  0  0
   35.7550   26.7170   43.0060 H   0  0  0  0  0  0  0  0  0  0  0  0
   36.9250   27.6090   41.0030 H   0  0  0  0  0  0  0  0  0  0  0  0
   35.4610   28.5350   41.4190 H   0  0  0  0  0  0  0  0  0  0  0  0
   36.8200   30.1310   42.7400 H   0  0  0  0  0  0  0  0  0  0  0  0
   37.4170   30.3140   40.6810 C   0  0  0  0  0  0  0  0  0  0  0  0
   36.9660   31.6200   40.5280 C   0  0  0  0  0  0  0  0  0  0  0  0
   36.5360   32.0130   41.4450 H   0  0  0  0  0  0  0  0  0  0  0  0
   37.0580   32.3210   39.3550 C   0  0  0  0  0  3  0  0  0  0  0  0
   37.6330   31.6960   38.2540 C   0  0  0  0  0  0  0  0  0  0  0  0
   37.6670   32.3160   37.3690 H   0  0  0  0  0  0  0  0  0  0  0  0
   38.0950   30.4030   38.3600 C   0  0  0  0  0  0  0  0  0  0  0  0
   38.5240   30.0030   37.4530 H   0  0  0  0  0  0  0  0  0  0  0  0
   37.9940   29.7000   39.5630 C   0  0  0  0  0  3  0  0  0  0  0  0
  1  6  1  0  0  0  0
  1 13  1  0  0  0  0
  2  1  2  0  0  0  0
  3  4  2  0  0  0  0
  3  2  1  0  0  0  0
  4  5  1  0  0  0  0
  5  7  1  0  0  0  0
  5  6  2  0  0  0  0
  7  8  1  0  0  0  0
  8 16  1  0  0  0  0
  9  8  1  0  0  0  0
  9 19  1  0  0  0  0
 10  9  1  0  0  0  0
 10 20  1  0  0  0  0
 11 12  1  0  0  0  0
 11 10  1  0  0  0  0
 12  7  1  0  0  0  0
 12 24  1  1  0  0  0
 14  2  1  0  0  0  0
 15  3  1  0  0  0  0
 17  8  1  0  0  0  0
 18  9  1  0  0  0  0
 21 10  1  0  0  0  0
 22 11  1  0  0  0  0
 23 11  1  0  0  0  0
 25 12  1  0  0  0  0
 26 25  1  0  0  0  0
 26 27  1  0  0  0  0
 28 26  2  0  0  0  0
 29 31  2  0  0  0  0
 29 28  1  0  0  0  0
 30 29  1  0  0  0  0
 31 33  1  0  0  0  0
 32 31  1  0  0  0  0
 33 25  2  0  0  0  0
M  END
>  <minimizedAffinity>
-5.12441158

$$$$

 OpenBabel03242517213D

 33 35  0  0  1  0  0  0  0  0999 V2000
   35.4550   28.7030   38.1980 C   0  0  0  0  0  0  0  0  0  0  0  0
   36.3200   29.7040   38.6940 C   0  0  0  0  0  0  0  0  0  0  0  0
   37.3680   29.3370   39.5630 C   0  0  0  0  0  0  0  0  0  0  0  0
   37.4710   28.0220   39.8660 N   0  0  0  0  0  0  0  0  0  0  0  0
   36.6360   27.0720   39.3830 C   0  0  0  0  0  0  0  0  0  0  0  0
   35.6420   27.4370   38.5560 N   0  0  0  0  0  0  0  0  0  0  0  0
   36.8320   25.7020   39.7720 N   0  0  0  0  0  0  0  0  0  0  0  0
   36.0220   24.7280   39.0680 C   0  0  0  0  0  0  0  0  0  0  0  0
   36.0000   23.3850   39.6790 C   0  0  0  0  0  0  0  0  0  0  0  0
   37.2540   23.0760   40.3960 C   0  0  0  0  0  0  0  0  0  0  0  0
   37.4200   24.1020   41.4870 C   0  0  0  0  0  0  0  0  0  0  0  0
   37.8030   25.3930   40.8100 C   0  0  2  0  0  0  0  0  0  0  0  0
   34.6430   28.9830   37.5250 H   0  0  0  0  0  0  0  0  0  0  0  0
   36.1820   30.7490   38.4110 H   0  0  0  0  0  0  0  0  0  0  0  0
   38.0500   30.0760   39.9620 H   0  0  0  0  0  0  0  0  0  0  0  0
   36.4200   24.6560   38.0180 H   0  0  0  0  0  0  0  0  0  0  0  0
   34.9840   25.1430   38.9330 H   0  0  0  0  0  0  0  0  0  0  0  0
   35.1620   23.3180   40.3940 H   0  0  0  0  0  0  0  0  0  0  0  0
   35.8950   22.6240   38.8530 H   0  0  0  0  0  0  0  0  0  0  0  0
   38.1600   23.0550   39.7710 H   0  0  0  0  0  0  0  0  0  0  0  0
   37.1370   22.0700   40.8890 H   0  0  0  0  0  0  0  0  0  0  0  0
   36.4330   24.1810   41.9960 H   0  0  0  0  0  0  0  0  0  0  0  0
   38.1580   23.8080   42.2470 H   0  0  0  0  0  0  0  0  0  0  0  0
   38.7670   25.2080   40.2950 H   0  0  0  0  0  0  0  0  0  0  0  0
   37.9240   26.5050   41.7910 C   0  0  0  0  0  0  0  0  0  0  0  0
   39.0880   27.2320   42.0080 C   0  0  0  0  0  0  0  0  0  0  0  0
   39.9010   26.9000   41.3680 H   0  0  0  0  0  0  0  0  0  0  0  0
   39.1900   28.2450   42.9230 C   0  0  0  0  0  3  0  0  0  0  0  0
   38.0680   28.5690   43.6790 C   0  0  0  0  0  0  0  0  0  0  0  0
   38.2310   29.3780   44.3770 H   0  0  0  0  0  0  0  0  0  0  0  0
   36.8920   27.8760   43.4970 C   0  0  0  0  0  0  0  0  0  0  0  0
   36.0780   28.1980   44.1290 H   0  0  0  0  0  0  0  0  0  0  0  0
   36.8040   26.8440   42.5600 C   0  0  0  0  0  3  0  0  0  0  0  0
  1  6  2  0  0  0  0
  1  2  1  0  0  0  0
  2  3  2  0  0  0  0
  3  4  1  0  0  0  0
  3 15  1  0  0  0  0
  5  7  1  0  0  0  0
  5  4  2  0  0  0  0
  6  5  1  0  0  0  0
  7 12  1  0  0  0  0
  8  9  1  0  0  0  0
  8  7  1  0  0  0  0
  9 18  1  0  0  0  0
  9 10  1  0  0  0  0
 10 21  1  0  0  0  0
 10 11  1  0  0  0  0
 11 22  1  0  0  0  0
 11 23  1  0  0  0  0
 12 24  1  6  0  0  0
 12 11  1  0  0  0  0
 12 25  1  0  0  0  0
 13  1  1  0  0  0  0
 14  2  1  0  0  0  0
 16  8  1  0  0  0  0
 17  8  1  0  0  0  0
 19  9  1  0  0  0  0
 20 10  1  0  0  0  0
 25 26  2  0  0  0  0
 25 33  1  0  0  0  0
 26 28  1  0  0  0  0
 27 26  1  0  0  0  0
 28 29  2  0  0  0  0
 29 30  1  0  0  0  0
 31 29  1  0  0  0  0
 31 32  1  0  0  0  0
 33 31  2  0  0  0  0
M  END
>  <minimizedAffinity>
-5.047791

$$$$

 OpenBabel03242517213D

 33 35  0  0  1  0  0  0  0  0999 V2000
   36.5760   30.2970   38.3550 C   0  0  0  0  0  0  0  0  0  0  0  0
   35.4790   29.6640   38.9810 C   0  0  0  0  0  0  0  0  0  0  0  0
   35.5730   29.3190   40.3450 C   0  0  0  0  0  0  0  0  0  0  0  0
   36.7340   29.6260   40.9690 N   0  0  0  0  0  0  0  0  0  0  0  0
   37.7780   30.2340   40.3570 C   0  0  0  0  0  0  0  0  0  0  0  0
   37.6730   30.5560   39.0570 N   0  0  0  0  0  0  0  0  0  0  0  0
   38.9690   30.5120   41.1120 N   0  0  0  0  0  0  0  0  0  0  0  0
   39.9610   31.3280   40.4410 C   0  0  0  0  0  0  0  0  0  0  0  0
   41.2870   31.3460   41.0890 C   0  0  0  0  0  0  0  0  0  0  0  0
   41.1980   31.1610   42.5520 C   0  0  0  0  0  0  0  0  0  0  0  0
   40.5540   29.8230   42.8040 C   0  0  0  0  0  0  0  0  0  0  0  0
   39.0950   29.9750   42.4590 C   0  0  2  0  0  0  0  0  0  0  0  0
   36.5070   30.5660   37.2990 H   0  0  0  0  0  0  0  0  0  0  0  0
   34.5690   29.4430   38.4200 H   0  0  0  0  0  0  0  0  0  0  0  0
   34.7530   28.8340   40.8580 H   0  0  0  0  0  0  0  0  0  0  0  0
   39.5550   32.3760   40.3910 H   0  0  0  0  0  0  0  0  0  0  0  0
   40.0260   31.0140   39.3630 H   0  0  0  0  0  0  0  0  0  0  0  0
   41.9120   30.5380   40.6710 H   0  0  0  0  0  0  0  0  0  0  0  0
   41.7530   32.3580   40.9110 H   0  0  0  0  0  0  0  0  0  0  0  0
   40.6430   31.9440   43.0920 H   0  0  0  0  0  0  0  0  0  0  0  0
   42.2460   31.1190   42.9640 H   0  0  0  0  0  0  0  0  0  0  0  0
   41.0630   29.0980   42.1310 H   0  0  0  0  0  0  0  0  0  0  0  0
   40.6920   29.4650   43.8350 H   0  0  0  0  0  0  0  0  0  0  0  0
   38.6840   30.7430   43.1430 H   0  0  0  0  0  0  0  0  0  0  0  0
   38.3660   28.6860   42.6010 C   0  0  0  0  0  0  0  0  0  0  0  0
   38.6420   27.5470   41.8540 C   0  0  0  0  0  0  0  0  0  0  0  0
   39.4630   27.7030   41.1600 H   0  0  0  0  0  0  0  0  0  0  0  0
   37.9550   26.3700   41.9860 C   0  0  0  0  0  3  0  0  0  0  0  0
   36.9230   26.3060   42.9170 C   0  0  0  0  0  0  0  0  0  0  0  0
   36.4310   25.3440   42.9580 H   0  0  0  0  0  0  0  0  0  0  0  0
   36.6140   27.4110   43.6790 C   0  0  0  0  0  0  0  0  0  0  0  0
   35.7990   27.2660   44.3720 H   0  0  0  0  0  0  0  0  0  0  0  0
   37.3240   28.6050   43.5330 C   0  0  0  0  0  3  0  0  0  0  0  0
  1  2  2  0  0  0  0
  1  6  1  0  0  0  0
  2  3  1  0  0  0  0
  3 15  1  0  0  0  0
  3  4  2  0  0  0  0
  5  4  1  0  0  0  0
  5  7  1  0  0  0  0
  6  5  2  0  0  0  0
  7 12  1  0  0  0  0
  8  9  1  0  0  0  0
  8  7  1  0  0  0  0
  9 10  1  0  0  0  0
 10 11  1  0  0  0  0
 10 21  1  0  0  0  0
 10 20  1  0  0  0  0
 11 23  1  0  0  0  0
 12 25  1  0  0  0  0
 12 11  1  0  0  0  0
 12 24  1  1  0  0  0
 13  1  1  0  0  0  0
 14  2  1  0  0  0  0
 16  8  1  0  0  0  0
 17  8  1  0  0  0  0
 18  9  1  0  0  0  0
 19  9  1  0  0  0  0
 22 11  1  0  0  0  0
 25 33  1  0  0  0  0
 26 28  1  0  0  0  0
 26 25  2  0  0  0  0
 27 26  1  0  0  0  0
 28 29  2  0  0  0  0
 29 30  1  0  0  0  0
 29 31  1  0  0  0  0
 31 32  1  0  0  0  0
 33 31  2  0  0  0  0
M  END
>  <minimizedAffinity>
-5.01808023

$$$$

 OpenBabel03242517213D

 33 35  0  0  1  0  0  0  0  0999 V2000
   36.2370   23.9970   40.3100 C   0  0  0  0  0  0  0  0  0  0  0  0
   36.0990   24.1910   38.9180 C   0  0  0  0  0  0  0  0  0  0  0  0
   36.4060   25.4520   38.3660 C   0  0  0  0  0  0  0  0  0  0  0  0
   36.8200   26.4060   39.2310 N   0  0  0  0  0  0  0  0  0  0  0  0
   36.9490   26.2080   40.5640 C   0  0  0  0  0  0  0  0  0  0  0  0
   36.6520   25.0010   41.0750 N   0  0  0  0  0  0  0  0  0  0  0  0
   37.3930   27.2930   41.3960 N   0  0  0  0  0  0  0  0  0  0  0  0
   37.6850   26.9490   42.7730 C   0  0  0  0  0  0  0  0  0  0  0  0
   37.8350   28.1030   43.6800 C   0  0  0  0  0  0  0  0  0  0  0  0
   38.3510   29.3000   42.9830 C   0  0  0  0  0  0  0  0  0  0  0  0
   37.3650   29.6580   41.9010 C   0  0  0  0  0  0  0  0  0  0  0  0
   37.5200   28.6220   40.8170 C   0  0  2  0  0  0  0  0  0  0  0  0
   36.0000   23.0230   40.7410 H   0  0  0  0  0  0  0  0  0  0  0  0
   35.7590   23.3780   38.2740 H   0  0  0  0  0  0  0  0  0  0  0  0
   36.3140   25.6370   37.3040 H   0  0  0  0  0  0  0  0  0  0  0  0
   38.6350   26.3460   42.7740 H   0  0  0  0  0  0  0  0  0  0  0  0
   36.9080   26.2240   43.1430 H   0  0  0  0  0  0  0  0  0  0  0  0
   36.8560   28.3530   44.1240 H   0  0  0  0  0  0  0  0  0  0  0  0
   38.5880   27.8320   44.4750 H   0  0  0  0  0  0  0  0  0  0  0  0
   39.3550   29.1920   42.5440 H   0  0  0  0  0  0  0  0  0  0  0  0
   38.3740   30.1510   43.7200 H   0  0  0  0  0  0  0  0  0  0  0  0
   36.3570   29.6160   42.3700 H   0  0  0  0  0  0  0  0  0  0  0  0
   37.5040   30.6760   41.5120 H   0  0  0  0  0  0  0  0  0  0  0  0
   38.5600   28.7050   40.4440 H   0  0  0  0  0  0  0  0  0  0  0  0
   36.5380   28.8340   39.7200 C   0  0  0  0  0  0  0  0  0  0  0  0
   36.8860   29.0870   38.3990 C   0  0  0  0  0  0  0  0  0  0  0  0
   37.9630   29.1000   38.2560 H   0  0  0  0  0  0  0  0  0  0  0  0
   35.9720   29.2920   37.4000 C   0  0  0  0  0  3  0  0  0  0  0  0
   34.6190   29.2470   37.7210 C   0  0  0  0  0  0  0  0  0  0  0  0
   33.9650   29.4200   36.8790 H   0  0  0  0  0  0  0  0  0  0  0  0
   34.2280   28.9990   39.0180 C   0  0  0  0  0  0  0  0  0  0  0  0
   33.1590   28.9830   39.1700 H   0  0  0  0  0  0  0  0  0  0  0  0
   35.1720   28.7910   40.0260 C   0  0  0  0  0  3  0  0  0  0  0  0
  1 13  1  0  0  0  0
  1  6  1  0  0  0  0
  2  1  2  0  0  0  0
  3  2  1  0  0  0  0
  3  4  2  0  0  0  0
  4  5  1  0  0  0  0
  5  6  2  0  0  0  0
  5  7  1  0  0  0  0
  7  8  1  0  0  0  0
  8 16  1  0  0  0  0
  8 17  1  0  0  0  0
  8  9  1  0  0  0  0
  9 18  1  0  0  0  0
  9 19  1  0  0  0  0
 10  9  1  0  0  0  0
 10 21  1  0  0  0  0
 11 22  1  0  0  0  0
 11 10  1  0  0  0  0
 12 24  1  6  0  0  0
 12  7  1  0  0  0  0
 12 11  1  0  0  0  0
 14  2  1  0  0  0  0
 15  3  1  0  0  0  0
 20 10  1  0  0  0  0
 23 11  1  0  0  0  0
 25 33  1  0  0  0  0
 25 12  1  0  0  0  0
 26 25  2  0  0  0  0
 27 26  1  0  0  0  0
 28 29  2  0  0  0  0
 28 26  1  0  0  0  0
 29 31  1  0  0  0  0
 30 29  1  0  0  0  0
 31 32  1  0  0  0  0
 31 33  2  0  0  0  0
M  END
>  <minimizedAffinity>
-4.95556927

$$$$

 OpenBabel03242517213D

 33 35  0  0  1  0  0  0  0  0999 V2000
   37.6460   23.4250   39.3760 C   0  0  0  0  0  0  0  0  0  0  0  0
   37.7000   23.2210   40.7730 C   0  0  0  0  0  0  0  0  0  0  0  0
   37.2890   24.2590   41.6350 C   0  0  0  0  0  0  0  0  0  0  0  0
   36.8630   25.4010   41.0480 N   0  0  0  0  0  0  0  0  0  0  0  0
   36.8150   25.5840   39.7060 C   0  0  0  0  0  0  0  0  0  0  0  0
   37.2100   24.5860   38.8990 N   0  0  0  0  0  0  0  0  0  0  0  0
   36.3490   26.8410   39.1850 N   0  0  0  0  0  0  0  0  0  0  0  0
   36.1500   26.8890   37.7510 C   0  0  0  0  0  0  0  0  0  0  0  0
   35.9780   28.2460   37.1970 C   0  0  0  0  0  0  0  0  0  0  0  0
   35.3550   29.1720   38.1660 C   0  0  0  0  0  0  0  0  0  0  0  0
   36.2600   29.2500   39.3680 C   0  0  0  0  0  0  0  0  0  0  0  0
   36.1130   27.9440   40.1040 C   0  0  2  0  0  0  0  0  0  0  0  0
   37.9630   22.6250   38.7060 H   0  0  0  0  0  0  0  0  0  0  0  0
   38.0540   22.2750   41.1840 H   0  0  0  0  0  0  0  0  0  0  0  0
   37.3150   24.1390   42.7100 H   0  0  0  0  0  0  0  0  0  0  0  0
   35.2400   26.2710   37.5170 H   0  0  0  0  0  0  0  0  0  0  0  0
   36.9880   26.3340   37.2450 H   0  0  0  0  0  0  0  0  0  0  0  0
   36.9620   28.6540   36.9070 H   0  0  0  0  0  0  0  0  0  0  0  0
   35.2840   28.1800   36.3100 H   0  0  0  0  0  0  0  0  0  0  0  0
   34.3380   28.9000   38.4890 H   0  0  0  0  0  0  0  0  0  0  0  0
   35.3190   30.1960   37.6980 H   0  0  0  0  0  0  0  0  0  0  0  0
   37.2920   29.3880   38.9750 H   0  0  0  0  0  0  0  0  0  0  0  0
   36.0400   30.1090   40.0180 H   0  0  0  0  0  0  0  0  0  0  0  0
   35.0520   27.8720   40.4160 H   0  0  0  0  0  0  0  0  0  0  0  0
   37.0230   27.8770   41.2800 C   0  0  0  0  0  0  0  0  0  0  0  0
   38.4100   27.8760   41.1940 C   0  0  0  0  0  0  0  0  0  0  0  0
   38.7550   27.9410   40.1660 H   0  0  0  0  0  0  0  0  0  0  0  0
   39.2360   27.8020   42.2840 C   0  0  0  0  0  3  0  0  0  0  0  0
   38.6600   27.7230   43.5470 C   0  0  0  0  0  0  0  0  0  0  0  0
   39.3790   27.6660   44.3520 H   0  0  0  0  0  0  0  0  0  0  0  0
   37.2890   27.7210   43.6790 C   0  0  0  0  0  0  0  0  0  0  0  0
   36.9350   27.6560   44.6980 H   0  0  0  0  0  0  0  0  0  0  0  0
   36.4590   27.7970   42.5590 C   0  0  0  0  0  3  0  0  0  0  0  0
  1  2  1  0  0  0  0
  2 14  1  0  0  0  0
  2  3  2  0  0  0  0
  3 15  1  0  0  0  0
  4  3  1  0  0  0  0
  5  4  2  0  0  0  0
  6  1  2  0  0  0  0
  6  5  1  0  0  0  0
  7  5  1  0  0  0  0
  7 12  1  0  0  0  0
  8  7  1  0  0  0  0
  9  8  1  0  0  0  0
  9 10  1  0  0  0  0
 10 20  1  0  0  0  0
 10 11  1  0  0  0  0
 11 23  1  0  0  0  0
 11 12  1  0  0  0  0
 12 24  1  1  0  0  0
 12 25  1  0  0  0  0
 13  1  1  0  0  0  0
 16  8  1  0  0  0  0
 17  8  1  0  0  0  0
 18  9  1  0  0  0  0
 19  9  1  0  0  0  0
 21 10  1  0  0  0  0
 22 11  1  0  0  0  0
 25 33  1  0  0  0  0
 26 25  2  0  0  0  0
 26 28  1  0  0  0  0
 27 26  1  0  0  0  0
 28 29  2  0  0  0  0
 29 31  1  0  0  0  0
 29 30  1  0  0  0  0
 31 32  1  0  0  0  0
 33 31  2  0  0  0  0
M  END
>  <minimizedAffinity>
-4.90713644

$$$$

 OpenBabel03242517213D

 33 35  0  0  1  0  0  0  0  0999 V2000
   37.9950   27.5330   37.3810 C   0  0  0  0  0  0  0  0  0  0  0  0
   38.7160   28.6570   36.9200 C   0  0  0  0  0  0  0  0  0  0  0  0
   39.2190   29.5820   37.8590 C   0  0  0  0  0  0  0  0  0  0  0  0
   38.9680   29.3190   39.1620 N   0  0  0  0  0  0  0  0  0  0  0  0
   38.2750   28.2370   39.5910 C   0  0  0  0  0  0  0  0  0  0  0  0
   37.8030   27.3660   38.6850 N   0  0  0  0  0  0  0  0  0  0  0  0
   38.0610   28.0550   41.0010 N   0  0  0  0  0  0  0  0  0  0  0  0
   37.4810   26.7850   41.3880 C   0  0  0  0  0  0  0  0  0  0  0  0
   36.9830   26.7310   42.7760 C   0  0  0  0  0  0  0  0  0  0  0  0
   37.7440   27.6200   43.6800 C   0  0  0  0  0  0  0  0  0  0  0  0
   37.5940   29.0280   43.1650 C   0  0  0  0  0  0  0  0  0  0  0  0
   38.4330   29.1230   41.9170 C   0  0  2  0  0  0  0  0  0  0  0  0
   37.6030   26.8150   36.6590 H   0  0  0  0  0  0  0  0  0  0  0  0
   38.8840   28.8110   35.8530 H   0  0  0  0  0  0  0  0  0  0  0  0
   39.7770   30.4530   37.5430 H   0  0  0  0  0  0  0  0  0  0  0  0
   38.2700   25.9970   41.2430 H   0  0  0  0  0  0  0  0  0  0  0  0
   36.6820   26.5050   40.6470 H   0  0  0  0  0  0  0  0  0  0  0  0
   35.9220   27.0340   42.8000 H   0  0  0  0  0  0  0  0  0  0  0  0
   37.1170   25.6780   43.1580 H   0  0  0  0  0  0  0  0  0  0  0  0
   38.8120   27.3790   43.7850 H   0  0  0  0  0  0  0  0  0  0  0  0
   37.2650   27.5750   44.6990 H   0  0  0  0  0  0  0  0  0  0  0  0
   36.5120   29.1680   42.9460 H   0  0  0  0  0  0  0  0  0  0  0  0
   37.8800   29.7900   43.9050 H   0  0  0  0  0  0  0  0  0  0  0  0
   39.4800   28.9250   42.2220 H   0  0  0  0  0  0  0  0  0  0  0  0
   38.3040   30.4590   41.2770 C   0  0  0  0  0  0  0  0  0  0  0  0
   39.3530   31.3610   41.1330 C   0  0  0  0  0  0  0  0  0  0  0  0
   40.2840   30.9700   41.5330 H   0  0  0  0  0  0  0  0  0  0  0  0
   39.2180   32.5930   40.5520 C   0  0  0  0  0  3  0  0  0  0  0  0
   37.9650   32.9690   40.0790 C   0  0  0  0  0  0  0  0  0  0  0  0
   37.9430   33.9550   39.6370 H   0  0  0  0  0  0  0  0  0  0  0  0
   36.8970   32.1070   40.2000 C   0  0  0  0  0  0  0  0  0  0  0  0
   35.9660   32.4860   39.8050 H   0  0  0  0  0  0  0  0  0  0  0  0
   37.0500   30.8530   40.7950 C   0  0  0  0  0  3  0  0  0  0  0  0
  1  6  1  0  0  0  0
  2  1  2  0  0  0  0
  2  3  1  0  0  0  0
  3  4  2  0  0  0  0
  4  5  1  0  0  0  0
  5  7  1  0  0  0  0
  6  5  2  0  0  0  0
  7  8  1  0  0  0  0
  7 12  1  0  0  0  0
  8  9  1  0  0  0  0
  9 18  1  0  0  0  0
  9 19  1  0  0  0  0
  9 10  1  0  0  0  0
 10 20  1  0  0  0  0
 10 21  1  0  0  0  0
 11 10  1  0  0  0  0
 11 23  1  0  0  0  0
 12 24  1  1  0  0  0
 12 11  1  0  0  0  0
 13  1  1  0  0  0  0
 14  2  1  0  0  0  0
 15  3  1  0  0  0  0
 16  8  1  0  0  0  0
 17  8  1  0  0  0  0
 22 11  1  0  0  0  0
 25 12  1  0  0  0  0
 26 25  1  0  0  0  0
 26 27  1  0  0  0  0
 28 26  2  0  0  0  0
 29 31  2  0  0  0  0
 29 28  1  0  0  0  0
 30 29  1  0  0  0  0
 31 33  1  0  0  0  0
 32 31  1  0  0  0  0
 33 25  2  0  0  0  0
M  END
>  <minimizedAffinity>
-4.85837078

$$$$

 OpenBabel03242517213D

 33 35  0  0  1  0  0  0  0  0999 V2000
   37.4620   26.8720   42.5420 C   0  0  0  0  0  0  0  0  0  0  0  0
   37.7830   27.9910   43.3430 C   0  0  0  0  0  0  0  0  0  0  0  0
   37.5620   29.2870   42.8320 C   0  0  0  0  0  0  0  0  0  0  0  0
   37.0460   29.3660   41.5840 N   0  0  0  0  0  0  0  0  0  0  0  0
   36.7430   28.2850   40.8260 C   0  0  0  0  0  0  0  0  0  0  0  0
   36.9590   27.0580   41.3260 N   0  0  0  0  0  0  0  0  0  0  0  0
   36.2030   28.4820   39.5070 N   0  0  0  0  0  0  0  0  0  0  0  0
   35.7300   27.2860   38.8390 C   0  0  0  0  0  0  0  0  0  0  0  0
   35.4740   27.4470   37.3950 C   0  0  0  0  0  0  0  0  0  0  0  0
   35.0640   28.8230   37.0480 C   0  0  0  0  0  0  0  0  0  0  0  0
   36.1860   29.7470   37.4470 C   0  0  0  0  0  0  0  0  0  0  0  0
   36.1660   29.8260   38.9510 C   0  0  2  0  0  0  0  0  0  0  0  0
   37.6310   25.8680   42.9320 H   0  0  0  0  0  0  0  0  0  0  0  0
   38.1960   27.8580   44.3440 H   0  0  0  0  0  0  0  0  0  0  0  0
   37.7940   30.1660   43.4170 H   0  0  0  0  0  0  0  0  0  0  0  0
   34.7830   26.9660   39.3540 H   0  0  0  0  0  0  0  0  0  0  0  0
   36.4460   26.4430   39.0460 H   0  0  0  0  0  0  0  0  0  0  0  0
   36.3890   27.2010   36.8280 H   0  0  0  0  0  0  0  0  0  0  0  0
   34.6210   26.7660   37.1100 H   0  0  0  0  0  0  0  0  0  0  0  0
   34.1260   29.1650   37.5100 H   0  0  0  0  0  0  0  0  0  0  0  0
   34.9530   28.8840   35.9290 H   0  0  0  0  0  0  0  0  0  0  0  0
   37.1240   29.2800   37.0710 H   0  0  0  0  0  0  0  0  0  0  0  0
   36.1090   30.7420   36.9870 H   0  0  0  0  0  0  0  0  0  0  0  0
   35.1840   30.2560   39.2340 H   0  0  0  0  0  0  0  0  0  0  0  0
   37.2850   30.6600   39.4670 C   0  0  0  0  0  0  0  0  0  0  0  0
   37.1150   31.8450   40.1720 C   0  0  0  0  0  0  0  0  0  0  0  0
   36.0650   32.0880   40.3150 H   0  0  0  0  0  0  0  0  0  0  0  0
   38.1540   32.6100   40.6300 C   0  0  0  0  0  3  0  0  0  0  0  0
   39.4530   32.1810   40.3780 C   0  0  0  0  0  0  0  0  0  0  0  0
   40.2140   32.8410   40.7710 H   0  0  0  0  0  0  0  0  0  0  0  0
   39.6690   31.0120   39.6820 C   0  0  0  0  0  0  0  0  0  0  0  0
   40.7090   30.7620   39.5350 H   0  0  0  0  0  0  0  0  0  0  0  0
   38.5980   30.2430   39.2210 C   0  0  0  0  0  3  0  0  0  0  0  0
  1 13  1  0  0  0  0
  1  2  1  0  0  0  0
  2 14  1  0  0  0  0
  3  2  2  0  0  0  0
  3 15  1  0  0  0  0
  4  3  1  0  0  0  0
  5  6  1  0  0  0  0
  5  4  2  0  0  0  0
  6  1  2  0  0  0  0
  7  5  1  0  0  0  0
  8 17  1  0  0  0  0
  8 16  1  0  0  0  0
  8  7  1  0  0  0  0
  9  8  1  0  0  0  0
 10  9  1  0  0  0  0
 10 11  1  0  0  0  0
 10 20  1  0  0  0  0
 11 12  1  0  0  0  0
 12 24  1  1  0  0  0
 12 25  1  0  0  0  0
 12  7  1  0  0  0  0
 18  9  1  0  0  0  0
 19  9  1  0  0  0  0
 21 10  1  0  0  0  0
 22 11  1  0  0  0  0
 23 11  1  0  0  0  0
 25 26  1  0  0  0  0
 26 27  1  0  0  0  0
 26 28  2  0  0  0  0
 29 28  1  0  0  0  0
 29 30  1  0  0  0  0
 31 29  2  0  0  0  0
 32 31  1  0  0  0  0
 33 25  2  0  0  0  0
 33 31  1  0  0  0  0
M  END
>  <minimizedAffinity>
-4.80335188

$$$$

 OpenBabel03242517213D

 33 35  0  0  1  0  0  0  0  0999 V2000
   36.7860   26.7310   37.8550 C   0  0  0  0  0  0  0  0  0  0  0  0
   36.5940   25.8610   38.9510 C   0  0  0  0  0  0  0  0  0  0  0  0
   36.5740   26.3950   40.2570 C   0  0  0  0  0  0  0  0  0  0  0  0
   36.7450   27.7330   40.3660 N   0  0  0  0  0  0  0  0  0  0  0  0
   36.9290   28.5560   39.3060 C   0  0  0  0  0  0  0  0  0  0  0  0
   36.9450   28.0330   38.0700 N   0  0  0  0  0  0  0  0  0  0  0  0
   37.1060   29.9650   39.5350 N   0  0  0  0  0  0  0  0  0  0  0  0
   37.1050   30.7970   38.3490 C   0  0  0  0  0  0  0  0  0  0  0  0
   37.5920   32.1740   38.5600 C   0  0  0  0  0  0  0  0  0  0  0  0
   37.3240   32.6590   39.9300 C   0  0  0  0  0  0  0  0  0  0  0  0
   38.0370   31.7400   40.8870 C   0  0  0  0  0  0  0  0  0  0  0  0
   37.2650   30.4460   40.8990 C   0  0  2  0  0  0  0  0  0  0  0  0
   36.8020   26.3220   36.8440 H   0  0  0  0  0  0  0  0  0  0  0  0
   36.4610   24.7890   38.7940 H   0  0  0  0  0  0  0  0  0  0  0  0
   36.4280   25.7600   41.1200 H   0  0  0  0  0  0  0  0  0  0  0  0
   36.0500   30.8290   37.9610 H   0  0  0  0  0  0  0  0  0  0  0  0
   37.6750   30.2730   37.5320 H   0  0  0  0  0  0  0  0  0  0  0  0
   38.6820   32.2110   38.3830 H   0  0  0  0  0  0  0  0  0  0  0  0
   37.0390   32.8560   37.8530 H   0  0  0  0  0  0  0  0  0  0  0  0
   36.2600   32.7230   40.2050 H   0  0  0  0  0  0  0  0  0  0  0  0
   37.7810   33.6830   40.0340 H   0  0  0  0  0  0  0  0  0  0  0  0
   39.0650   31.6030   40.4830 H   0  0  0  0  0  0  0  0  0  0  0  0
   38.1360   32.1630   41.8970 H   0  0  0  0  0  0  0  0  0  0  0  0
   36.2480   30.6860   41.2680 H   0  0  0  0  0  0  0  0  0  0  0  0
   37.9230   29.4290   41.7620 C   0  0  0  0  0  0  0  0  0  0  0  0
   37.3320   28.8530   42.8800 C   0  0  0  0  0  0  0  0  0  0  0  0
   36.3250   29.2240   43.0450 H   0  0  0  0  0  0  0  0  0  0  0  0
   37.9540   27.9270   43.6730 C   0  0  0  0  0  3  0  0  0  0  0  0
   39.2490   27.5370   43.3460 C   0  0  0  0  0  0  0  0  0  0  0  0
   39.6680   26.8050   44.0220 H   0  0  0  0  0  0  0  0  0  0  0  0
   39.8740   28.0820   42.2470 C   0  0  0  0  0  0  0  0  0  0  0  0
   40.8760   27.7190   42.0740 H   0  0  0  0  0  0  0  0  0  0  0  0
   39.2270   29.0260   41.4470 C   0  0  0  0  0  3  0  0  0  0  0  0
  1  6  2  0  0  0  0
  1  2  1  0  0  0  0
  2  3  2  0  0  0  0
  3  4  1  0  0  0  0
  3 15  1  0  0  0  0
  5  7  1  0  0  0  0
  5  4  2  0  0  0  0
  6  5  1  0  0  0  0
  7 12  1  0  0  0  0
  8  9  1  0  0  0  0
  8  7  1  0  0  0  0
  9 10  1  0  0  0  0
 10 21  1  0  0  0  0
 10 20  1  0  0  0  0
 10 11  1  0  0  0  0
 11 12  1  0  0  0  0
 11 23  1  0  0  0  0
 12 24  1  1  0  0  0
 12 25  1  0  0  0  0
 13  1  1  0  0  0  0
 14  2  1  0  0  0  0
 16  8  1  0  0  0  0
 17  8  1  0  0  0  0
 18  9  1  0  0  0  0
 19  9  1  0  0  0  0
 22 11  1  0  0  0  0
 25 26  1  0  0  0  0
 26 27  1  0  0  0  0
 26 28  2  0  0  0  0
 29 28  1  0  0  0  0
 29 30  1  0  0  0  0
 31 29  2  0  0  0  0
 32 31  1  0  0  0  0
 33 25  2  0  0  0  0
 33 31  1  0  0  0  0
M  END
>  <minimizedAffinity>
-4.79940033

$$$$
