
 OpenBabel03252501393D

 35 37  0  0  0  0  0  0  0  0999 V2000
   40.4690   31.0960   42.2890 Cl  0  0  0  0  0  0  0  0  0  0  0  0
   39.1400   31.4960   41.2260 C   0  0  0  0  0  0  0  0  0  0  0  0
   39.0640   32.6970   40.5410 C   0  0  0  0  0  0  0  0  0  0  0  0
   37.9950   32.9420   39.7250 C   0  0  0  0  0  0  0  0  0  0  0  0
   36.9530   32.0700   39.5200 C   0  0  0  0  0  0  0  0  0  0  0  0
   37.0060   30.8430   40.2020 C   0  0  0  0  0  0  0  0  0  0  0  0
   35.7470   29.6390   40.0330 Cl  0  0  0  0  0  0  0  0  0  0  0  0
   38.0880   30.6100   41.0210 C   0  0  0  0  0  0  0  0  0  0  0  0
   37.9580   33.9030   39.1930 H   0  0  0  0  0  0  0  0  0  0  0  0
   36.1190   32.2760   38.8740 H   0  0  0  0  0  0  0  0  0  0  0  0
   38.1810   29.3370   41.7540 C   0  0  0  0  0  0  0  0  0  0  0  0
   37.6150   29.1590   43.0150 C   0  0  0  0  0  0  0  0  0  0  0  0
   37.0920   30.0280   43.4370 H   0  0  0  0  0  0  0  0  0  0  0  0
   37.7300   27.9450   43.6600 C   0  0  0  0  0  3  0  0  0  0  0  0
   38.4240   26.9200   43.0110 C   0  0  0  0  0  0  0  0  0  0  0  0
   38.5100   25.9590   43.5320 H   0  0  0  0  0  0  0  0  0  0  0  0
   38.9680   27.1330   41.7680 C   0  0  0  0  0  0  0  0  0  0  0  0
   39.5140   26.3330   41.2530 H   0  0  0  0  0  0  0  0  0  0  0  0
   38.8640   28.3350   41.1080 C   0  0  0  0  0  3  0  0  0  0  0  0
   40.1170   33.5840   40.7470 O   0  0  0  0  0  0  0  0  0  0  0  0
   41.3400   33.3220   40.1290 C   0  0  0  0  0  0  0  0  0  0  0  0
   42.4890   33.6320   40.5950 O   0  0  0  0  0  0  0  0  0  0  0  0
   41.4240   32.6590   38.8690 N   0  0  0  0  0  0  0  0  0  0  0  0
   40.5680   32.3380   38.3860 H   0  0  0  0  0  0  0  0  0  0  0  0
   42.8200   32.5580   38.4820 C   0  0  0  0  0  0  0  0  0  0  0  0
   43.4360   33.3590   37.5390 C   0  0  0  0  0  0  0  0  0  0  0  0
   44.7730   33.1100   37.3080 C   0  0  0  0  0  0  0  0  0  0  0  0
   45.3710   32.1230   38.0080 N   0  0  0  0  0  0  0  0  0  0  0  0
   44.7370   31.3700   38.9160 C   0  0  0  0  0  0  0  0  0  0  0  0
   43.4180   31.5790   39.1760 N   0  0  0  0  0  0  0  0  0  0  0  0
   45.2660   33.7320   36.5700 H   0  0  0  0  0  0  0  0  0  0  0  0
   45.3030   30.5860   39.4390 H   0  0  0  0  0  0  0  0  0  0  0  0
   42.6560   34.3430   36.9050 N   0  0  0  0  0  0  0  0  0  0  0  0
   42.5260   35.2060   37.4630 H   0  0  0  0  0  0  0  0  0  0  0  0
   42.1920   34.3420   35.9710 H   0  0  0  0  0  0  0  0  0  0  0  0
  2  1  1  0  0  0  0
  3 20  1  0  0  0  0
  3  2  2  0  0  0  0
  4  3  1  0  0  0  0
  5  4  2  0  0  0  0
  5  6  1  0  0  0  0
  6  8  2  0  0  0  0
  7  6  1  0  0  0  0
  8  2  1  0  0  0  0
  8 11  1  0  0  0  0
  9  4  1  0  0  0  0
 10  5  1  0  0  0  0
 11 12  1  0  0  0  0
 12 13  1  0  0  0  0
 12 14  2  0  0  0  0
 15 16  1  0  0  0  0
 15 14  1  0  0  0  0
 17 15  2  0  0  0  0
 18 17  1  0  0  0  0
 19 11  2  0  0  0  0
 19 17  1  0  0  0  0
 21 22  2  0  0  0  0
 21 20  1  0  0  0  0
 23 21  1  0  0  0  0
 24 23  1  0  0  0  0
 25 23  1  0  0  0  0
 25 30  1  0  0  0  0
 26 25  2  0  0  0  0
 27 26  1  0  0  0  0
 27 28  2  0  0  0  0
 28 29  1  0  0  0  0
 29 30  2  0  0  0  0
 29 32  1  0  0  0  0
 31 27  1  0  0  0  0
 33 34  1  0  0  0  0
 33 26  1  0  0  0  0
 35 33  1  0  0  0  0
M  END
>  <minimizedAffinity>
-6.20347595

$$$$

 OpenBabel03252501393D

 35 37  0  0  0  0  0  0  0  0999 V2000
   39.1510   30.1550   42.5110 Cl  0  0  0  0  0  0  0  0  0  0  0  0
   38.0950   30.4900   41.1580 C   0  0  0  0  0  0  0  0  0  0  0  0
   38.0170   31.7360   40.5600 C   0  0  0  0  0  0  0  0  0  0  0  0
   37.1680   31.9260   39.5040 C   0  0  0  0  0  0  0  0  0  0  0  0
   36.3590   30.9530   38.9680 C   0  0  0  0  0  0  0  0  0  0  0  0
   36.4200   29.6790   39.5560 C   0  0  0  0  0  0  0  0  0  0  0  0
   35.4440   28.3470   38.9740 Cl  0  0  0  0  0  0  0  0  0  0  0  0
   37.2780   29.5020   40.6180 C   0  0  0  0  0  0  0  0  0  0  0  0
   37.1250   32.9240   39.0470 H   0  0  0  0  0  0  0  0  0  0  0  0
   35.6970   31.1170   38.1370 H   0  0  0  0  0  0  0  0  0  0  0  0
   37.3710   28.1820   41.2630 C   0  0  0  0  0  0  0  0  0  0  0  0
   38.2230   27.1820   40.7970 C   0  0  0  0  0  0  0  0  0  0  0  0
   38.8250   27.4340   39.9150 H   0  0  0  0  0  0  0  0  0  0  0  0
   38.2720   25.9610   41.4380 C   0  0  0  0  0  3  0  0  0  0  0  0
   37.4490   25.7720   42.5520 C   0  0  0  0  0  0  0  0  0  0  0  0
   37.4970   24.7980   43.0540 H   0  0  0  0  0  0  0  0  0  0  0  0
   36.6240   26.7800   42.9820 C   0  0  0  0  0  0  0  0  0  0  0  0
   35.9750   26.6380   43.8550 H   0  0  0  0  0  0  0  0  0  0  0  0
   36.5590   28.0050   42.3570 C   0  0  0  0  0  3  0  0  0  0  0  0
   38.8340   32.7240   41.1000 O   0  0  0  0  0  0  0  0  0  0  0  0
   39.9470   33.1420   40.3700 C   0  0  0  0  0  0  0  0  0  0  0  0
   40.1920   34.3430   40.0100 O   0  0  0  0  0  0  0  0  0  0  0  0
   40.9550   32.2280   39.9390 N   0  0  0  0  0  0  0  0  0  0  0  0
   40.8900   31.2240   40.1760 H   0  0  0  0  0  0  0  0  0  0  0  0
   41.9600   32.9580   39.1860 C   0  0  0  0  0  0  0  0  0  0  0  0
   41.8670   33.2690   37.8430 C   0  0  0  0  0  0  0  0  0  0  0  0
   42.9260   33.9700   37.3050 C   0  0  0  0  0  0  0  0  0  0  0  0
   43.9560   34.2940   38.1140 N   0  0  0  0  0  0  0  0  0  0  0  0
   44.0070   33.9730   39.4130 C   0  0  0  0  0  0  0  0  0  0  0  0
   42.9860   33.2820   39.9870 N   0  0  0  0  0  0  0  0  0  0  0  0
   42.8620   34.2190   36.2530 H   0  0  0  0  0  0  0  0  0  0  0  0
   44.8870   34.2780   39.9970 H   0  0  0  0  0  0  0  0  0  0  0  0
   40.7150   32.8500   37.1520 N   0  0  0  0  0  0  0  0  0  0  0  0
   39.8910   33.4640   37.2890 H   0  0  0  0  0  0  0  0  0  0  0  0
   40.5600   32.0270   36.5300 H   0  0  0  0  0  0  0  0  0  0  0  0
  2  1  1  0  0  0  0
  3 20  1  0  0  0  0
  3  2  2  0  0  0  0
  4  3  1  0  0  0  0
  5  4  2  0  0  0  0
  5  6  1  0  0  0  0
  6  8  2  0  0  0  0
  7  6  1  0  0  0  0
  8  2  1  0  0  0  0
  8 11  1  0  0  0  0
  9  4  1  0  0  0  0
 10  5  1  0  0  0  0
 11 19  1  0  0  0  0
 12 11  2  0  0  0  0
 12 14  1  0  0  0  0
 13 12  1  0  0  0  0
 14 15  2  0  0  0  0
 15 17  1  0  0  0  0
 15 16  1  0  0  0  0
 17 18  1  0  0  0  0
 19 17  2  0  0  0  0
 21 20  1  0  0  0  0
 22 21  2  0  0  0  0
 23 24  1  0  0  0  0
 23 21  1  0  0  0  0
 25 23  1  0  0  0  0
 25 30  1  0  0  0  0
 26 25  2  0  0  0  0
 27 26  1  0  0  0  0
 27 28  2  0  0  0  0
 28 29  1  0  0  0  0
 29 30  2  0  0  0  0
 29 32  1  0  0  0  0
 31 27  1  0  0  0  0
 33 34  1  0  0  0  0
 33 26  1  0  0  0  0
 35 33  1  0  0  0  0
M  END
>  <minimizedAffinity>
-6.12518978

$$$$

 OpenBabel03252501393D

 35 37  0  0  0  0  0  0  0  0999 V2000
   36.7740   27.7140   39.8720 Cl  0  0  0  0  0  0  0  0  0  0  0  0
   37.7180   27.4930   41.3270 C   0  0  0  0  0  0  0  0  0  0  0  0
   38.0260   28.5360   42.1850 C   0  0  0  0  0  0  0  0  0  0  0  0
   38.7680   28.2900   43.3070 C   0  0  0  0  0  0  0  0  0  0  0  0
   39.2520   27.0550   43.6670 C   0  0  0  0  0  0  0  0  0  0  0  0
   38.9540   25.9800   42.8140 C   0  0  0  0  0  0  0  0  0  0  0  0
   39.5070   24.3540   43.1520 Cl  0  0  0  0  0  0  0  0  0  0  0  0
   38.2060   26.2420   41.6880 C   0  0  0  0  0  0  0  0  0  0  0  0
   38.9990   29.1340   43.9710 H   0  0  0  0  0  0  0  0  0  0  0  0
   39.8350   26.8770   44.5530 H   0  0  0  0  0  0  0  0  0  0  0  0
   37.8720   25.1430   40.7680 C   0  0  0  0  0  0  0  0  0  0  0  0
   38.7020   24.7760   39.7110 C   0  0  0  0  0  0  0  0  0  0  0  0
   39.6270   25.3570   39.6000 H   0  0  0  0  0  0  0  0  0  0  0  0
   38.3420   23.7370   38.8770 C   0  0  0  0  0  3  0  0  0  0  0  0
   37.1350   23.0800   39.1300 C   0  0  0  0  0  0  0  0  0  0  0  0
   36.8590   22.2570   38.4610 H   0  0  0  0  0  0  0  0  0  0  0  0
   36.3430   23.4700   40.1810 C   0  0  0  0  0  0  0  0  0  0  0  0
   35.3940   22.9600   40.3860 H   0  0  0  0  0  0  0  0  0  0  0  0
   36.6830   24.5030   41.0250 C   0  0  0  0  0  3  0  0  0  0  0  0
   37.5370   29.7880   41.8230 O   0  0  0  0  0  0  0  0  0  0  0  0
   38.3810   30.6600   41.1370 C   0  0  0  0  0  0  0  0  0  0  0  0
   39.6420   30.7690   41.3150 O   0  0  0  0  0  0  0  0  0  0  0  0
   37.8950   31.5510   40.1340 N   0  0  0  0  0  0  0  0  0  0  0  0
   36.8940   31.5580   39.8780 H   0  0  0  0  0  0  0  0  0  0  0  0
   39.0040   32.3410   39.6290 C   0  0  0  0  0  0  0  0  0  0  0  0
   39.4480   33.5240   40.1890 C   0  0  0  0  0  0  0  0  0  0  0  0
   40.5180   34.1300   39.5630 C   0  0  0  0  0  0  0  0  0  0  0  0
   41.0430   33.5350   38.4720 N   0  0  0  0  0  0  0  0  0  0  0  0
   40.5820   32.3860   37.9620 C   0  0  0  0  0  0  0  0  0  0  0  0
   39.5290   31.7530   38.5440 N   0  0  0  0  0  0  0  0  0  0  0  0
   40.8740   35.0580   39.9940 H   0  0  0  0  0  0  0  0  0  0  0  0
   41.0710   31.9720   37.0680 H   0  0  0  0  0  0  0  0  0  0  0  0
   38.7790   34.0000   41.3310 N   0  0  0  0  0  0  0  0  0  0  0  0
   39.0710   33.5440   42.2150 H   0  0  0  0  0  0  0  0  0  0  0  0
   38.0430   34.7330   41.4300 H   0  0  0  0  0  0  0  0  0  0  0  0
  1  2  1  0  0  0  0
  2  8  2  0  0  0  0
  2  3  1  0  0  0  0
  3  4  2  0  0  0  0
  4  5  1  0  0  0  0
  4  9  1  0  0  0  0
  5 10  1  0  0  0  0
  6  7  1  0  0  0  0
  6  5  2  0  0  0  0
  8  6  1  0  0  0  0
 11 19  1  0  0  0  0
 11  8  1  0  0  0  0
 12 11  2  0  0  0  0
 13 12  1  0  0  0  0
 14 15  2  0  0  0  0
 14 12  1  0  0  0  0
 15 17  1  0  0  0  0
 16 15  1  0  0  0  0
 17 18  1  0  0  0  0
 17 19  2  0  0  0  0
 20  3  1  0  0  0  0
 21 22  2  0  0  0  0
 21 20  1  0  0  0  0
 23 21  1  0  0  0  0
 24 23  1  0  0  0  0
 25 23  1  0  0  0  0
 25 26  1  0  0  0  0
 26 33  1  0  0  0  0
 27 31  1  0  0  0  0
 27 26  2  0  0  0  0
 28 27  1  0  0  0  0
 29 28  2  0  0  0  0
 29 30  1  0  0  0  0
 30 25  2  0  0  0  0
 32 29  1  0  0  0  0
 33 35  1  0  0  0  0
 33 34  1  0  0  0  0
M  END
>  <minimizedAffinity>
-6.11936522

$$$$

 OpenBabel03252501393D

 35 37  0  0  0  0  0  0  0  0999 V2000
   38.9730   30.6790   41.3420 Cl  0  0  0  0  0  0  0  0  0  0  0  0
   38.0770   30.4230   39.8620 C   0  0  0  0  0  0  0  0  0  0  0  0
   38.0910   31.3270   38.8130 C   0  0  0  0  0  0  0  0  0  0  0  0
   37.3660   31.0610   37.6840 C   0  0  0  0  0  0  0  0  0  0  0  0
   36.5980   29.9370   37.4960 C   0  0  0  0  0  0  0  0  0  0  0  0
   36.5670   29.0040   38.5450 C   0  0  0  0  0  0  0  0  0  0  0  0
   35.6310   27.5280   38.4400 Cl  0  0  0  0  0  0  0  0  0  0  0  0
   37.3010   29.2840   39.6760 C   0  0  0  0  0  0  0  0  0  0  0  0
   37.3940   31.7940   36.8660 H   0  0  0  0  0  0  0  0  0  0  0  0
   36.0340   29.7410   36.6020 H   0  0  0  0  0  0  0  0  0  0  0  0
   37.2950   28.3320   40.7980 C   0  0  0  0  0  0  0  0  0  0  0  0
   36.3890   28.4280   41.8530 C   0  0  0  0  0  0  0  0  0  0  0  0
   35.6750   29.2600   41.8020 H   0  0  0  0  0  0  0  0  0  0  0  0
   36.4260   27.5090   42.8820 C   0  0  0  0  0  3  0  0  0  0  0  0
   37.3890   26.4970   42.8240 C   0  0  0  0  0  0  0  0  0  0  0  0
   37.4090   25.7730   43.6470 H   0  0  0  0  0  0  0  0  0  0  0  0
   38.2640   26.4350   41.7690 C   0  0  0  0  0  0  0  0  0  0  0  0
   39.0230   25.6450   41.7180 H   0  0  0  0  0  0  0  0  0  0  0  0
   38.2450   27.3410   40.7330 C   0  0  0  0  0  3  0  0  0  0  0  0
   38.8670   32.4660   39.0000 O   0  0  0  0  0  0  0  0  0  0  0  0
   40.2100   32.4270   38.6260 C   0  0  0  0  0  0  0  0  0  0  0  0
   41.1760   32.0310   39.3630 O   0  0  0  0  0  0  0  0  0  0  0  0
   40.6480   32.8460   37.3350 N   0  0  0  0  0  0  0  0  0  0  0  0
   39.9680   33.1770   36.6310 H   0  0  0  0  0  0  0  0  0  0  0  0
   42.0920   32.7120   37.2610 C   0  0  0  0  0  0  0  0  0  0  0  0
   42.7590   31.5710   36.8550 C   0  0  0  0  0  0  0  0  0  0  0  0
   44.1360   31.6380   36.8520 C   0  0  0  0  0  0  0  0  0  0  0  0
   44.7220   32.7910   37.2390 N   0  0  0  0  0  0  0  0  0  0  0  0
   44.0380   33.8750   37.6250 C   0  0  0  0  0  0  0  0  0  0  0  0
   42.6780   33.8550   37.6440 N   0  0  0  0  0  0  0  0  0  0  0  0
   44.6680   30.7490   36.5350 H   0  0  0  0  0  0  0  0  0  0  0  0
   44.5990   34.7730   37.9250 H   0  0  0  0  0  0  0  0  0  0  0  0
   41.9840   30.4570   36.4850 N   0  0  0  0  0  0  0  0  0  0  0  0
   41.6040   30.5050   35.5210 H   0  0  0  0  0  0  0  0  0  0  0  0
   41.7320   29.5980   37.0210 H   0  0  0  0  0  0  0  0  0  0  0  0
  2  1  1  0  0  0  0
  3 20  1  0  0  0  0
  3  2  2  0  0  0  0
  4  3  1  0  0  0  0
  5  4  2  0  0  0  0
  5  6  1  0  0  0  0
  6  8  2  0  0  0  0
  7  6  1  0  0  0  0
  8  2  1  0  0  0  0
  8 11  1  0  0  0  0
  9  4  1  0  0  0  0
 10  5  1  0  0  0  0
 11 12  1  0  0  0  0
 12 14  2  0  0  0  0
 13 12  1  0  0  0  0
 15 14  1  0  0  0  0
 15 16  1  0  0  0  0
 17 15  2  0  0  0  0
 18 17  1  0  0  0  0
 19 11  2  0  0  0  0
 19 17  1  0  0  0  0
 21 20  1  0  0  0  0
 21 22  2  0  0  0  0
 23 21  1  0  0  0  0
 24 23  1  0  0  0  0
 25 23  1  0  0  0  0
 25 30  1  0  0  0  0
 26 25  2  0  0  0  0
 27 26  1  0  0  0  0
 27 28  2  0  0  0  0
 28 29  1  0  0  0  0
 29 30  2  0  0  0  0
 29 32  1  0  0  0  0
 31 27  1  0  0  0  0
 33 26  1  0  0  0  0
 33 35  1  0  0  0  0
 34 33  1  0  0  0  0
M  END
>  <minimizedAffinity>
-6.11161327

$$$$

 OpenBabel03252501393D

 35 37  0  0  0  0  0  0  0  0999 V2000
   37.7530   31.9960   38.7860 Cl  0  0  0  0  0  0  0  0  0  0  0  0
   38.3910   31.3120   40.2630 C   0  0  0  0  0  0  0  0  0  0  0  0
   39.4260   31.8980   40.9720 C   0  0  0  0  0  0  0  0  0  0  0  0
   39.8750   31.3070   42.1220 C   0  0  0  0  0  0  0  0  0  0  0  0
   39.3710   30.1430   42.6490 C   0  0  0  0  0  0  0  0  0  0  0  0
   38.3200   29.5280   41.9480 C   0  0  0  0  0  0  0  0  0  0  0  0
   37.5830   28.0420   42.5080 Cl  0  0  0  0  0  0  0  0  0  0  0  0
   37.8780   30.1340   40.7940 C   0  0  0  0  0  0  0  0  0  0  0  0
   40.6970   31.7920   42.6660 H   0  0  0  0  0  0  0  0  0  0  0  0
   39.7340   29.6900   43.5540 H   0  0  0  0  0  0  0  0  0  0  0  0
   36.7780   29.5220   40.0300 C   0  0  0  0  0  0  0  0  0  0  0  0
   35.4390   29.7970   40.2990 C   0  0  0  0  0  0  0  0  0  0  0  0
   35.2460   30.5010   41.1200 H   0  0  0  0  0  0  0  0  0  0  0  0
   34.4460   29.1960   39.5520 C   0  0  0  0  0  3  0  0  0  0  0  0
   34.8300   28.3180   38.5350 C   0  0  0  0  0  0  0  0  0  0  0  0
   34.0330   27.8470   37.9480 H   0  0  0  0  0  0  0  0  0  0  0  0
   36.1590   28.0720   38.2990 C   0  0  0  0  0  0  0  0  0  0  0  0
   36.4680   27.3840   37.5030 H   0  0  0  0  0  0  0  0  0  0  0  0
   37.1650   28.6600   39.0320 C   0  0  0  0  0  3  0  0  0  0  0  0
   39.9390   33.0770   40.4410 O   0  0  0  0  0  0  0  0  0  0  0  0
   41.2450   33.0750   39.9500 C   0  0  0  0  0  0  0  0  0  0  0  0
   42.2410   33.6700   40.4840 O   0  0  0  0  0  0  0  0  0  0  0  0
   41.6020   32.3810   38.7560 N   0  0  0  0  0  0  0  0  0  0  0  0
   40.8940   31.8430   38.2290 H   0  0  0  0  0  0  0  0  0  0  0  0
   43.0160   32.5890   38.4960 C   0  0  0  0  0  0  0  0  0  0  0  0
   43.5260   33.5240   37.6150 C   0  0  0  0  0  0  0  0  0  0  0  0
   44.9000   33.5700   37.5050 C   0  0  0  0  0  0  0  0  0  0  0  0
   45.6320   32.7170   38.2520 N   0  0  0  0  0  0  0  0  0  0  0  0
   45.0970   31.8250   39.0950 C   0  0  0  0  0  0  0  0  0  0  0  0
   43.7470   31.7430   39.2360 N   0  0  0  0  0  0  0  0  0  0  0  0
   45.3110   34.3000   36.8170 H   0  0  0  0  0  0  0  0  0  0  0  0
   45.7700   31.1680   39.6640 H   0  0  0  0  0  0  0  0  0  0  0  0
   42.6120   34.3340   36.9180 N   0  0  0  0  0  0  0  0  0  0  0  0
   42.2520   35.1370   37.4660 H   0  0  0  0  0  0  0  0  0  0  0  0
   42.2420   34.2560   35.9460 H   0  0  0  0  0  0  0  0  0  0  0  0
  1  2  1  0  0  0  0
  2  8  2  0  0  0  0
  2  3  1  0  0  0  0
  3  4  2  0  0  0  0
  4  5  1  0  0  0  0
  4  9  1  0  0  0  0
  5 10  1  0  0  0  0
  6  7  1  0  0  0  0
  6  5  2  0  0  0  0
  8  6  1  0  0  0  0
 11 12  1  0  0  0  0
 11  8  1  0  0  0  0
 12 13  1  0  0  0  0
 14 12  2  0  0  0  0
 15 14  1  0  0  0  0
 16 15  1  0  0  0  0
 17 15  2  0  0  0  0
 17 19  1  0  0  0  0
 18 17  1  0  0  0  0
 19 11  2  0  0  0  0
 20  3  1  0  0  0  0
 21 20  1  0  0  0  0
 21 22  2  0  0  0  0
 23 21  1  0  0  0  0
 24 23  1  0  0  0  0
 25 23  1  0  0  0  0
 25 30  1  0  0  0  0
 26 25  2  0  0  0  0
 27 26  1  0  0  0  0
 27 28  2  0  0  0  0
 28 29  1  0  0  0  0
 29 30  2  0  0  0  0
 29 32  1  0  0  0  0
 31 27  1  0  0  0  0
 33 34  1  0  0  0  0
 33 26  1  0  0  0  0
 35 33  1  0  0  0  0
M  END
>  <minimizedAffinity>
-5.84341669

$$$$

 OpenBabel03252501393D

 35 37  0  0  0  0  0  0  0  0999 V2000
   39.3190   28.8340   42.1760 Cl  0  0  0  0  0  0  0  0  0  0  0  0
   38.2290   29.2310   40.8670 C   0  0  0  0  0  0  0  0  0  0  0  0
   38.0470   30.5250   40.4120 C   0  0  0  0  0  0  0  0  0  0  0  0
   37.1770   30.7620   39.3820 C   0  0  0  0  0  0  0  0  0  0  0  0
   36.4440   29.7930   38.7410 C   0  0  0  0  0  0  0  0  0  0  0  0
   36.6110   28.4700   39.1850 C   0  0  0  0  0  0  0  0  0  0  0  0
   35.7390   27.1380   38.4570 Cl  0  0  0  0  0  0  0  0  0  0  0  0
   37.4890   28.2470   40.2210 C   0  0  0  0  0  0  0  0  0  0  0  0
   37.0510   31.7980   39.0390 H   0  0  0  0  0  0  0  0  0  0  0  0
   35.7640   29.9940   37.9330 H   0  0  0  0  0  0  0  0  0  0  0  0
   37.6920   26.8750   40.7150 C   0  0  0  0  0  0  0  0  0  0  0  0
   36.9320   26.3350   41.7520 C   0  0  0  0  0  0  0  0  0  0  0  0
   36.1680   26.9950   42.1850 H   0  0  0  0  0  0  0  0  0  0  0  0
   37.1630   25.0430   42.1780 C   0  0  0  0  0  3  0  0  0  0  0  0
   38.1690   24.3120   41.5400 C   0  0  0  0  0  0  0  0  0  0  0  0
   38.3430   23.2860   41.8860 H   0  0  0  0  0  0  0  0  0  0  0  0
   38.8960   24.8770   40.5220 C   0  0  0  0  0  0  0  0  0  0  0  0
   39.6870   24.3100   40.0180 H   0  0  0  0  0  0  0  0  0  0  0  0
   38.6820   26.1640   40.0820 C   0  0  0  0  0  3  0  0  0  0  0  0
   38.7870   31.5100   41.0580 O   0  0  0  0  0  0  0  0  0  0  0  0
   39.7660   32.1910   40.3360 C   0  0  0  0  0  0  0  0  0  0  0  0
   39.8270   33.4570   40.1780 O   0  0  0  0  0  0  0  0  0  0  0  0
   40.8320   31.5080   39.6780 N   0  0  0  0  0  0  0  0  0  0  0  0
   40.9130   30.4800   39.7360 H   0  0  0  0  0  0  0  0  0  0  0  0
   41.6650   32.4840   38.9950 C   0  0  0  0  0  0  0  0  0  0  0  0
   41.4350   32.9610   37.7190 C   0  0  0  0  0  0  0  0  0  0  0  0
   42.3400   33.8870   37.2420 C   0  0  0  0  0  0  0  0  0  0  0  0
   43.3640   34.2520   38.0420 N   0  0  0  0  0  0  0  0  0  0  0  0
   43.5510   33.7640   39.2750 C   0  0  0  0  0  0  0  0  0  0  0  0
   42.6840   32.8490   39.7870 N   0  0  0  0  0  0  0  0  0  0  0  0
   42.1680   34.2670   36.2430 H   0  0  0  0  0  0  0  0  0  0  0  0
   44.4140   34.1180   39.8570 H   0  0  0  0  0  0  0  0  0  0  0  0
   40.3130   32.4690   37.0270 N   0  0  0  0  0  0  0  0  0  0  0  0
   39.4190   32.9210   37.2920 H   0  0  0  0  0  0  0  0  0  0  0  0
   40.2390   31.7270   36.2980 H   0  0  0  0  0  0  0  0  0  0  0  0
  2  1  1  0  0  0  0
  3  2  1  0  0  0  0
  3 20  1  0  0  0  0
  4  3  2  0  0  0  0
  5  6  2  0  0  0  0
  5  4  1  0  0  0  0
  6  8  1  0  0  0  0
  7  6  1  0  0  0  0
  8 11  1  0  0  0  0
  8  2  2  0  0  0  0
  9  4  1  0  0  0  0
 10  5  1  0  0  0  0
 11 12  1  0  0  0  0
 12 14  2  0  0  0  0
 12 13  1  0  0  0  0
 15 16  1  0  0  0  0
 15 14  1  0  0  0  0
 17 15  2  0  0  0  0
 18 17  1  0  0  0  0
 19 17  1  0  0  0  0
 19 11  2  0  0  0  0
 21 20  1  0  0  0  0
 22 21  2  0  0  0  0
 23 24  1  0  0  0  0
 23 21  1  0  0  0  0
 25 23  1  0  0  0  0
 25 30  1  0  0  0  0
 26 25  2  0  0  0  0
 27 26  1  0  0  0  0
 27 28  2  0  0  0  0
 28 29  1  0  0  0  0
 29 30  2  0  0  0  0
 29 32  1  0  0  0  0
 31 27  1  0  0  0  0
 33 34  1  0  0  0  0
 33 26  1  0  0  0  0
 35 33  1  0  0  0  0
M  END
>  <minimizedAffinity>
-5.79169083

$$$$

 OpenBabel03252501393D

 35 37  0  0  0  0  0  0  0  0999 V2000
   37.0300   31.8730   39.3530 Cl  0  0  0  0  0  0  0  0  0  0  0  0
   37.6310   30.7360   40.5370 C   0  0  0  0  0  0  0  0  0  0  0  0
   38.5730   31.0780   41.4920 C   0  0  0  0  0  0  0  0  0  0  0  0
   38.9980   30.1370   42.3890 C   0  0  0  0  0  0  0  0  0  0  0  0
   38.5550   28.8360   42.4240 C   0  0  0  0  0  0  0  0  0  0  0  0
   37.5990   28.4630   41.4650 C   0  0  0  0  0  0  0  0  0  0  0  0
   36.9490   26.8390   41.3950 Cl  0  0  0  0  0  0  0  0  0  0  0  0
   37.1800   29.4210   40.5690 C   0  0  0  0  0  0  0  0  0  0  0  0
   39.7460   30.4340   43.1370 H   0  0  0  0  0  0  0  0  0  0  0  0
   38.8980   28.1070   43.1350 H   0  0  0  0  0  0  0  0  0  0  0  0
   36.1790   29.0700   39.5490 C   0  0  0  0  0  0  0  0  0  0  0  0
   36.5330   28.5700   38.2970 C   0  0  0  0  0  0  0  0  0  0  0  0
   37.6080   28.4510   38.1110 H   0  0  0  0  0  0  0  0  0  0  0  0
   35.5540   28.2560   37.3760 C   0  0  0  0  0  3  0  0  0  0  0  0
   34.2200   28.4560   37.7420 C   0  0  0  0  0  0  0  0  0  0  0  0
   33.4510   28.2030   37.0020 H   0  0  0  0  0  0  0  0  0  0  0  0
   33.9110   28.9500   38.9840 C   0  0  0  0  0  0  0  0  0  0  0  0
   32.8660   29.1100   39.2780 H   0  0  0  0  0  0  0  0  0  0  0  0
   34.8700   29.2690   39.9170 C   0  0  0  0  0  3  0  0  0  0  0  0
   39.0230   32.3940   41.4600 O   0  0  0  0  0  0  0  0  0  0  0  0
   40.1790   32.6870   40.7370 C   0  0  0  0  0  0  0  0  0  0  0  0
   40.8490   31.8530   40.0370 O   0  0  0  0  0  0  0  0  0  0  0  0
   40.7440   33.9960   40.7110 N   0  0  0  0  0  0  0  0  0  0  0  0
   40.2940   34.7730   41.2230 H   0  0  0  0  0  0  0  0  0  0  0  0
   41.9480   33.9740   39.8990 C   0  0  0  0  0  0  0  0  0  0  0  0
   43.2090   33.6560   40.3670 C   0  0  0  0  0  0  0  0  0  0  0  0
   44.2290   33.6900   39.4390 C   0  0  0  0  0  0  0  0  0  0  0  0
   43.9280   34.0230   38.1670 N   0  0  0  0  0  0  0  0  0  0  0  0
   42.6900   34.3240   37.7540 C   0  0  0  0  0  0  0  0  0  0  0  0
   41.6520   34.3040   38.6330 N   0  0  0  0  0  0  0  0  0  0  0  0
   45.2220   33.4430   39.7960 H   0  0  0  0  0  0  0  0  0  0  0  0
   42.5350   34.5850   36.6970 H   0  0  0  0  0  0  0  0  0  0  0  0
   43.3400   33.3310   41.7290 N   0  0  0  0  0  0  0  0  0  0  0  0
   43.0750   32.3560   41.9600 H   0  0  0  0  0  0  0  0  0  0  0  0
   43.6570   33.9110   42.5370 H   0  0  0  0  0  0  0  0  0  0  0  0
  1  2  1  0  0  0  0
  2  8  2  0  0  0  0
  2  3  1  0  0  0  0
  3  4  2  0  0  0  0
  4  5  1  0  0  0  0
  4  9  1  0  0  0  0
  5 10  1  0  0  0  0
  6  5  2  0  0  0  0
  7  6  1  0  0  0  0
  8  6  1  0  0  0  0
 11 19  1  0  0  0  0
 11  8  1  0  0  0  0
 12 11  2  0  0  0  0
 13 12  1  0  0  0  0
 14 15  2  0  0  0  0
 14 12  1  0  0  0  0
 15 17  1  0  0  0  0
 16 15  1  0  0  0  0
 17 18  1  0  0  0  0
 17 19  2  0  0  0  0
 20  3  1  0  0  0  0
 21 20  1  0  0  0  0
 22 21  2  0  0  0  0
 23 21  1  0  0  0  0
 23 24  1  0  0  0  0
 25 26  1  0  0  0  0
 25 23  1  0  0  0  0
 26 33  1  0  0  0  0
 27 31  1  0  0  0  0
 27 26  2  0  0  0  0
 28 27  1  0  0  0  0
 29 28  2  0  0  0  0
 29 30  1  0  0  0  0
 30 25  2  0  0  0  0
 32 29  1  0  0  0  0
 33 34  1  0  0  0  0
 33 35  1  0  0  0  0
M  END
>  <minimizedAffinity>
-5.7807889

$$$$

 OpenBabel03252501393D

 35 37  0  0  0  0  0  0  0  0999 V2000
   38.8530   27.2820   38.5750 Cl  0  0  0  0  0  0  0  0  0  0  0  0
   38.1360   28.2400   39.8500 C   0  0  0  0  0  0  0  0  0  0  0  0
   38.0200   29.6180   39.7760 C   0  0  0  0  0  0  0  0  0  0  0  0
   37.4470   30.3030   40.8120 C   0  0  0  0  0  0  0  0  0  0  0  0
   36.9610   29.7220   41.9590 C   0  0  0  0  0  0  0  0  0  0  0  0
   37.0670   28.3250   42.0590 C   0  0  0  0  0  0  0  0  0  0  0  0
   36.4880   27.4550   43.4640 Cl  0  0  0  0  0  0  0  0  0  0  0  0
   37.6450   27.6480   41.0090 C   0  0  0  0  0  0  0  0  0  0  0  0
   37.3660   31.3960   40.7280 H   0  0  0  0  0  0  0  0  0  0  0  0
   36.5130   30.2740   42.7650 H   0  0  0  0  0  0  0  0  0  0  0  0
   37.7750   26.1830   41.0750 C   0  0  0  0  0  0  0  0  0  0  0  0
   36.7880   25.3240   40.5960 C   0  0  0  0  0  0  0  0  0  0  0  0
   35.8990   25.8030   40.1630 H   0  0  0  0  0  0  0  0  0  0  0  0
   36.9590   23.9580   40.6820 C   0  0  0  0  0  3  0  0  0  0  0  0
   38.1390   23.4790   41.2570 C   0  0  0  0  0  0  0  0  0  0  0  0
   38.2640   22.3910   41.3200 H   0  0  0  0  0  0  0  0  0  0  0  0
   39.0880   24.3560   41.7180 C   0  0  0  0  0  0  0  0  0  0  0  0
   40.0170   23.9880   42.1720 H   0  0  0  0  0  0  0  0  0  0  0  0
   38.9380   25.7220   41.6420 C   0  0  0  0  0  3  0  0  0  0  0  0
   38.5110   30.2100   38.6170 O   0  0  0  0  0  0  0  0  0  0  0  0
   39.5980   31.0760   38.7190 C   0  0  0  0  0  0  0  0  0  0  0  0
   40.7830   30.7450   39.0630 O   0  0  0  0  0  0  0  0  0  0  0  0
   39.4820   32.4710   38.4390 N   0  0  0  0  0  0  0  0  0  0  0  0
   38.5810   32.8730   38.1340 H   0  0  0  0  0  0  0  0  0  0  0  0
   40.7720   33.1030   38.6590 C   0  0  0  0  0  0  0  0  0  0  0  0
   41.2380   33.5350   39.8870 C   0  0  0  0  0  0  0  0  0  0  0  0
   42.4910   34.1130   39.8930 C   0  0  0  0  0  0  0  0  0  0  0  0
   43.1570   34.2110   38.7230 N   0  0  0  0  0  0  0  0  0  0  0  0
   42.6680   33.7790   37.5540 C   0  0  0  0  0  0  0  0  0  0  0  0
   41.4370   33.2030   37.4990 N   0  0  0  0  0  0  0  0  0  0  0  0
   42.8660   34.4550   40.8500 H   0  0  0  0  0  0  0  0  0  0  0  0
   43.2800   33.9010   36.6490 H   0  0  0  0  0  0  0  0  0  0  0  0
   40.4060   33.3500   41.0060 N   0  0  0  0  0  0  0  0  0  0  0  0
   40.4330   32.3920   41.4010 H   0  0  0  0  0  0  0  0  0  0  0  0
   39.7720   34.0170   41.4970 H   0  0  0  0  0  0  0  0  0  0  0  0
  1  2  1  0  0  0  0
  2  8  1  0  0  0  0
  3  2  2  0  0  0  0
  3  4  1  0  0  0  0
  4  5  2  0  0  0  0
  5  6  1  0  0  0  0
  5 10  1  0  0  0  0
  6  7  1  0  0  0  0
  8 11  1  0  0  0  0
  8  6  2  0  0  0  0
  9  4  1  0  0  0  0
 11 19  1  0  0  0  0
 12 14  1  0  0  0  0
 12 11  2  0  0  0  0
 13 12  1  0  0  0  0
 14 15  2  0  0  0  0
 15 16  1  0  0  0  0
 15 17  1  0  0  0  0
 17 18  1  0  0  0  0
 19 17  2  0  0  0  0
 20 21  1  0  0  0  0
 20  3  1  0  0  0  0
 21 22  2  0  0  0  0
 23 25  1  0  0  0  0
 23 21  1  0  0  0  0
 24 23  1  0  0  0  0
 25 26  1  0  0  0  0
 26 27  2  0  0  0  0
 26 33  1  0  0  0  0
 27 31  1  0  0  0  0
 28 27  1  0  0  0  0
 29 28  2  0  0  0  0
 30 29  1  0  0  0  0
 30 25  2  0  0  0  0
 32 29  1  0  0  0  0
 33 34  1  0  0  0  0
 33 35  1  0  0  0  0
M  END
>  <minimizedAffinity>
-5.76983786

$$$$

 OpenBabel03252501393D

 35 37  0  0  0  0  0  0  0  0999 V2000
   38.6960   27.2750   38.5250 Cl  0  0  0  0  0  0  0  0  0  0  0  0
   38.1200   28.3290   39.7950 C   0  0  0  0  0  0  0  0  0  0  0  0
   37.9820   29.6970   39.6270 C   0  0  0  0  0  0  0  0  0  0  0  0
   37.5250   30.4610   40.6650 C   0  0  0  0  0  0  0  0  0  0  0  0
   37.1800   29.9710   41.9020 C   0  0  0  0  0  0  0  0  0  0  0  0
   37.3100   28.5870   42.0980 C   0  0  0  0  0  0  0  0  0  0  0  0
   36.9050   27.8290   43.6240 Cl  0  0  0  0  0  0  0  0  0  0  0  0
   37.7710   27.8300   41.0450 C   0  0  0  0  0  0  0  0  0  0  0  0
   37.4240   31.5440   40.5070 H   0  0  0  0  0  0  0  0  0  0  0  0
   36.8210   30.5850   42.7090 H   0  0  0  0  0  0  0  0  0  0  0  0
   37.9230   26.3750   41.2100 C   0  0  0  0  0  0  0  0  0  0  0  0
   36.8960   25.4800   40.9130 C   0  0  0  0  0  0  0  0  0  0  0  0
   35.9600   25.9220   40.5480 H   0  0  0  0  0  0  0  0  0  0  0  0
   37.0900   24.1240   41.0860 C   0  0  0  0  0  3  0  0  0  0  0  0
   38.3320   23.6930   41.5590 C   0  0  0  0  0  0  0  0  0  0  0  0
   38.4750   22.6140   41.6920 H   0  0  0  0  0  0  0  0  0  0  0  0
   39.3190   24.6050   41.8400 C   0  0  0  0  0  0  0  0  0  0  0  0
   40.2960   24.2750   42.2130 H   0  0  0  0  0  0  0  0  0  0  0  0
   39.1470   25.9610   41.6760 C   0  0  0  0  0  3  0  0  0  0  0  0
   38.3310   30.1960   38.3760 O   0  0  0  0  0  0  0  0  0  0  0  0
   39.5950   30.7620   38.2120 C   0  0  0  0  0  0  0  0  0  0  0  0
   40.5820   30.6200   39.0110 O   0  0  0  0  0  0  0  0  0  0  0  0
   39.9140   31.5870   37.0930 N   0  0  0  0  0  0  0  0  0  0  0  0
   39.2110   31.7740   36.3590 H   0  0  0  0  0  0  0  0  0  0  0  0
   41.2880   32.0420   37.2210 C   0  0  0  0  0  0  0  0  0  0  0  0
   42.3990   31.3110   36.8440 C   0  0  0  0  0  0  0  0  0  0  0  0
   43.6220   31.9150   37.0450 C   0  0  0  0  0  0  0  0  0  0  0  0
   43.6450   33.1520   37.5840 N   0  0  0  0  0  0  0  0  0  0  0  0
   42.5440   33.8270   37.9350 C   0  0  0  0  0  0  0  0  0  0  0  0
   41.3150   33.2710   37.7560 N   0  0  0  0  0  0  0  0  0  0  0  0
   44.5000   31.3500   36.7530 H   0  0  0  0  0  0  0  0  0  0  0  0
   42.6560   34.8320   38.3680 H   0  0  0  0  0  0  0  0  0  0  0  0
   42.1870   30.0320   36.2970 N   0  0  0  0  0  0  0  0  0  0  0  0
   41.9260   30.0380   35.2940 H   0  0  0  0  0  0  0  0  0  0  0  0
   42.2490   29.0880   36.7360 H   0  0  0  0  0  0  0  0  0  0  0  0
  1  2  1  0  0  0  0
  2  8  1  0  0  0  0
  3  2  2  0  0  0  0
  3  4  1  0  0  0  0
  4  5  2  0  0  0  0
  5  6  1  0  0  0  0
  5 10  1  0  0  0  0
  6  7  1  0  0  0  0
  8 11  1  0  0  0  0
  8  6  2  0  0  0  0
  9  4  1  0  0  0  0
 11 19  1  0  0  0  0
 12 14  1  0  0  0  0
 12 11  2  0  0  0  0
 13 12  1  0  0  0  0
 14 15  2  0  0  0  0
 15 16  1  0  0  0  0
 15 17  1  0  0  0  0
 17 18  1  0  0  0  0
 19 17  2  0  0  0  0
 20  3  1  0  0  0  0
 21 20  1  0  0  0  0
 21 22  2  0  0  0  0
 23 25  1  0  0  0  0
 23 21  1  0  0  0  0
 24 23  1  0  0  0  0
 25 30  1  0  0  0  0
 26 27  1  0  0  0  0
 26 25  2  0  0  0  0
 27 28  2  0  0  0  0
 28 29  1  0  0  0  0
 29 32  1  0  0  0  0
 30 29  2  0  0  0  0
 31 27  1  0  0  0  0
 33 35  1  0  0  0  0
 33 26  1  0  0  0  0
 34 33  1  0  0  0  0
M  END
>  <minimizedAffinity>
-5.76673698

$$$$
