
 OpenBabel03242518023D

 37 39  0  0  0  0  0  0  0  0999 V2000
   46.3280   31.6590   45.6840 C   0  0  0  0  0  0  0  0  0  0  0  0
   46.2300   30.6870   45.1110 H   0  0  0  0  0  0  0  0  0  0  0  0
   45.2980   31.9250   45.9230 H   0  0  0  0  0  0  0  0  0  0  0  0
   47.4120   32.4160   47.7730 C   0  0  0  0  0  0  0  0  0  0  0  0
   47.2280   31.4090   46.7950 C   0  0  0  0  0  0  0  0  0  0  0  0
   47.9350   30.2160   46.9490 C   0  0  0  0  0  0  0  0  0  0  0  0
   48.7460   30.0970   48.0170 N   0  0  0  0  0  0  0  0  0  0  0  0
   48.9130   31.0580   48.9390 C   0  0  0  0  0  0  0  0  0  0  0  0
   48.2460   32.2000   48.8060 N   0  0  0  0  0  0  0  0  0  0  0  0
   46.9200   33.3660   47.7510 H   0  0  0  0  0  0  0  0  0  0  0  0
   47.7780   29.4770   46.2010 H   0  0  0  0  0  0  0  0  0  0  0  0
   49.8210   30.8270   50.0650 C   0  0  0  0  0  0  0  0  0  0  0  0
   49.9310   29.5580   50.5950 C   0  0  0  0  0  0  0  0  0  0  0  0
   49.3310   28.7820   50.1470 H   0  0  0  0  0  0  0  0  0  0  0  0
   50.7840   29.3050   51.6640 C   0  0  0  0  0  0  0  0  0  0  0  0
   51.5010   30.3810   52.1530 C   0  0  0  0  0  0  0  0  0  0  0  0
   52.1630   30.1440   52.9950 H   0  0  0  0  0  0  0  0  0  0  0  0
   51.4150   31.6630   51.6460 C   0  0  0  0  0  0  0  0  0  0  0  0
   52.0180   32.4650   52.0900 H   0  0  0  0  0  0  0  0  0  0  0  0
   50.5510   31.8830   50.5750 C   0  0  0  0  0  0  0  0  0  0  0  0
   47.0240   32.5980   44.7180 C   0  0  0  0  0  0  0  0  0  0  0  0
   47.3960   32.0820   43.8010 H   0  0  0  0  0  0  0  0  0  0  0  0
   47.9750   32.9930   45.1840 H   0  0  0  0  0  0  0  0  0  0  0  0
   46.4780   34.4850   43.2390 C   0  0  0  0  0  0  0  0  0  0  0  0
   46.2430   33.8240   44.4310 C   0  0  0  0  0  0  0  0  0  0  0  0
   45.3290   34.2400   45.3610 C   0  0  0  0  0  0  0  0  0  0  0  0
   44.6030   35.3810   45.0950 C   0  0  0  0  0  0  0  0  0  0  0  0
   44.7620   36.1020   43.9490 C   0  0  0  0  0  0  0  0  0  0  0  0
   45.7070   35.6190   43.0530 C   0  0  0  0  0  0  0  0  0  0  0  0
   45.1170   33.7700   46.2810 H   0  0  0  0  0  0  0  0  0  0  0  0
   43.8640   35.7590   45.7950 H   0  0  0  0  0  0  0  0  0  0  0  0
   44.2180   37.0090   43.6860 H   0  0  0  0  0  0  0  0  0  0  0  0
   45.8530   36.1770   42.1300 H   0  0  0  0  0  0  0  0  0  0  0  0
   47.6250   33.9930   42.0330 S   0  0  0  0  0  0  0  0  0  0  0  0
   48.9780   34.6150   42.2200 O   0  0  0  0  0  0  0  0  0  0  0  0
   47.1470   34.5090   40.6760 O   0  0  0  0  0  0  0  0  0  0  0  0
   47.6980   32.6360   41.8580 H   0  0  0  0  0  0  0  0  0  0  0  0
  1  3  1  0  0  0  0
  1  5  1  0  0  0  0
  2  1  1  0  0  0  0
  4  9  1  0  0  0  0
  5  6  1  0  0  0  0
  5  4  2  0  0  0  0
  6  7  2  0  0  0  0
  7  8  1  0  0  0  0
  8 12  1  0  0  0  0
  9  8  2  0  0  0  0
 10  4  1  0  0  0  0
 11  6  1  0  0  0  0
 12 20  2  0  0  0  0
 12 13  1  0  0  0  0
 13 15  2  0  0  0  0
 14 13  1  0  0  0  0
 15 16  1  0  0  0  0
 16 17  1  0  0  0  0
 18 19  1  0  0  0  0
 18 16  2  0  0  0  0
 20 18  1  0  0  0  0
 21 23  1  0  0  0  0
 21  1  1  0  0  0  0
 22 21  1  0  0  0  0
 24 25  1  0  0  0  0
 25 21  1  0  0  0  0
 25 26  2  0  0  0  0
 26 30  1  0  0  0  0
 27 26  1  0  0  0  0
 27 31  1  0  0  0  0
 28 27  2  0  0  0  0
 29 24  2  0  0  0  0
 29 28  1  0  0  0  0
 32 28  1  0  0  0  0
 33 29  1  0  0  0  0
 34 35  2  0  0  0  0
 34 24  1  0  0  0  0
 36 34  2  0  0  0  0
 37 34  1  0  0  0  0
M  END
>  <minimizedAffinity>
-5.94889116

>  <minimizedRMSD>
0.499473572

$$$$
