
 OpenBabel03252500473D

 26 28  0  0  0  0  0  0  0  0999 V2000
   37.9940   27.9470   39.3810 C   0  0  0  0  0  0  0  0  0  0  0  0
   37.1890   27.3880   40.3890 C   0  0  0  0  0  0  0  0  0  0  0  0
   36.6190   28.1710   41.3850 C   0  0  0  0  0  0  0  0  0  0  0  0
   36.9040   29.5010   41.3010 N   0  0  0  0  0  0  0  0  0  0  0  0
   37.6710   30.0370   40.3410 C   0  0  0  0  0  0  0  0  0  0  0  0
   38.2190   29.2690   39.3790 N   0  0  0  0  0  0  0  0  0  0  0  0
   38.4400   27.3450   38.6030 H   0  0  0  0  0  0  0  0  0  0  0  0
   36.0080   27.7840   42.1590 H   0  0  0  0  0  0  0  0  0  0  0  0
   37.9320   31.4760   40.3220 C   0  0  0  0  0  0  0  0  0  0  0  0
   37.1630   32.3240   39.6090 C   0  0  0  0  0  0  0  0  0  0  0  0
   37.3640   33.6850   39.5580 C   0  0  0  0  0  0  0  0  0  0  0  0
   38.4090   34.1610   40.2810 N   0  0  0  0  0  0  0  0  0  0  0  0
   39.1740   33.3250   40.9870 C   0  0  0  0  0  0  0  0  0  0  0  0
   38.9810   31.9740   41.0450 N   0  0  0  0  0  0  0  0  0  0  0  0
   36.3060   31.9890   39.0070 H   0  0  0  0  0  0  0  0  0  0  0  0
   36.7570   34.3820   38.9910 H   0  0  0  0  0  0  0  0  0  0  0  0
   39.9830   33.8040   41.5300 H   0  0  0  0  0  0  0  0  0  0  0  0
   36.9520   25.9470   40.3780 C   0  0  0  0  0  0  0  0  0  0  0  0
   36.3430   25.4590   39.2380 C   0  0  0  0  0  0  0  0  0  0  0  0
   36.0470   26.0650   38.3940 H   0  0  0  0  0  0  0  0  0  0  0  0
   36.1070   24.0830   39.2050 C   0  0  0  0  0  3  0  0  0  0  0  0
   36.4480   23.2240   40.2340 C   0  0  0  0  0  0  0  0  0  0  0  0
   36.2500   22.1630   40.1760 H   0  0  0  0  0  0  0  0  0  0  0  0
   37.0600   23.8020   41.3500 C   0  0  0  0  0  0  0  0  0  0  0  0
   37.3310   23.1250   42.1620 H   0  0  0  0  0  0  0  0  0  0  0  0
   37.3230   25.1590   41.4470 C   0  0  0  0  0  3  0  0  0  0  0  0
  1  2  1  0  0  0  0
  2  3  2  0  0  0  0
  3  8  1  0  0  0  0
  4  3  1  0  0  0  0
  5  4  2  0  0  0  0
  6  1  2  0  0  0  0
  6  5  1  0  0  0  0
  7  1  1  0  0  0  0
  9  5  1  0  0  0  0
  9 14  1  0  0  0  0
 10  9  2  0  0  0  0
 11 10  1  0  0  0  0
 11 12  2  0  0  0  0
 12 13  1  0  0  0  0
 13 14  2  0  0  0  0
 13 17  1  0  0  0  0
 15 10  1  0  0  0  0
 16 11  1  0  0  0  0
 18  2  1  0  0  0  0
 18 26  1  0  0  0  0
 19 18  2  0  0  0  0
 20 19  1  0  0  0  0
 21 19  1  0  0  0  0
 21 22  2  0  0  0  0
 22 24  1  0  0  0  0
 23 22  1  0  0  0  0
 24 26  2  0  0  0  0
 24 25  1  0  0  0  0
M  END
>  <minimizedAffinity>
-4.7137289

$$$$

 OpenBabel03252500473D

 26 28  0  0  0  0  0  0  0  0999 V2000
   34.4760   29.2480   39.5990 C   0  0  0  0  0  0  0  0  0  0  0  0
   34.6450   28.6040   38.3600 C   0  0  0  0  0  0  0  0  0  0  0  0
   35.6190   27.6340   38.1700 C   0  0  0  0  0  0  0  0  0  0  0  0
   36.3830   27.3660   39.2660 N   0  0  0  0  0  0  0  0  0  0  0  0
   36.2250   27.9780   40.4480 C   0  0  0  0  0  0  0  0  0  0  0  0
   35.2760   28.9180   40.6230 N   0  0  0  0  0  0  0  0  0  0  0  0
   33.7200   30.0040   39.7540 H   0  0  0  0  0  0  0  0  0  0  0  0
   35.7740   27.1280   37.2510 H   0  0  0  0  0  0  0  0  0  0  0  0
   37.0880   27.6360   41.5780 C   0  0  0  0  0  0  0  0  0  0  0  0
   37.8190   26.5020   41.5910 C   0  0  0  0  0  0  0  0  0  0  0  0
   38.6470   26.1340   42.6280 C   0  0  0  0  0  0  0  0  0  0  0  0
   38.7030   26.9900   43.6790 N   0  0  0  0  0  0  0  0  0  0  0  0
   37.9800   28.1120   43.6710 C   0  0  0  0  0  0  0  0  0  0  0  0
   37.1570   28.4860   42.6470 N   0  0  0  0  0  0  0  0  0  0  0  0
   37.8090   25.7760   40.7660 H   0  0  0  0  0  0  0  0  0  0  0  0
   39.2420   25.2280   42.6560 H   0  0  0  0  0  0  0  0  0  0  0  0
   38.0950   28.7280   44.5580 H   0  0  0  0  0  0  0  0  0  0  0  0
   33.7660   28.9740   37.2530 C   0  0  0  0  0  0  0  0  0  0  0  0
   34.3520   28.9500   36.0030 C   0  0  0  0  0  0  0  0  0  0  0  0
   35.3820   28.6840   35.8130 H   0  0  0  0  0  0  0  0  0  0  0  0
   33.5300   29.2990   34.9290 C   0  0  0  0  0  3  0  0  0  0  0  0
   32.2000   29.6540   35.0680 C   0  0  0  0  0  0  0  0  0  0  0  0
   31.5920   29.9190   34.2150 H   0  0  0  0  0  0  0  0  0  0  0  0
   31.6880   29.6520   36.3690 C   0  0  0  0  0  0  0  0  0  0  0  0
   30.6390   29.9310   36.4790 H   0  0  0  0  0  0  0  0  0  0  0  0
   32.4480   29.3160   37.4780 C   0  0  0  0  0  3  0  0  0  0  0  0
  1  7  1  0  0  0  0
  1  6  1  0  0  0  0
  2  1  2  0  0  0  0
  3  2  1  0  0  0  0
  3  4  2  0  0  0  0
  4  5  1  0  0  0  0
  5  6  2  0  0  0  0
  5  9  1  0  0  0  0
  8  3  1  0  0  0  0
  9 10  2  0  0  0  0
  9 14  1  0  0  0  0
 10 11  1  0  0  0  0
 11 16  1  0  0  0  0
 11 12  2  0  0  0  0
 13 12  1  0  0  0  0
 13 17  1  0  0  0  0
 14 13  2  0  0  0  0
 15 10  1  0  0  0  0
 18 26  1  0  0  0  0
 18  2  1  0  0  0  0
 19 18  2  0  0  0  0
 20 19  1  0  0  0  0
 21 22  2  0  0  0  0
 21 19  1  0  0  0  0
 22 24  1  0  0  0  0
 23 22  1  0  0  0  0
 24 25  1  0  0  0  0
 24 26  2  0  0  0  0
M  END
>  <minimizedAffinity>
-4.67738581

$$$$

 OpenBabel03252500473D

 26 28  0  0  0  0  0  0  0  0999 V2000
   36.3190   27.2870   39.3340 C   0  0  0  0  0  0  0  0  0  0  0  0
   36.2200   28.0250   40.5260 C   0  0  0  0  0  0  0  0  0  0  0  0
   35.3030   29.0580   40.6710 C   0  0  0  0  0  0  0  0  0  0  0  0
   34.5240   29.2890   39.5770 N   0  0  0  0  0  0  0  0  0  0  0  0
   34.6150   28.5880   38.4390 C   0  0  0  0  0  0  0  0  0  0  0  0
   35.5080   27.5870   38.3080 N   0  0  0  0  0  0  0  0  0  0  0  0
   37.0290   26.4820   39.2140 H   0  0  0  0  0  0  0  0  0  0  0  0
   35.2020   29.6340   41.5550 H   0  0  0  0  0  0  0  0  0  0  0  0
   33.7430   28.8990   37.3070 C   0  0  0  0  0  0  0  0  0  0  0  0
   32.4620   29.2830   37.4870 C   0  0  0  0  0  0  0  0  0  0  0  0
   31.6000   29.5890   36.4570 C   0  0  0  0  0  0  0  0  0  0  0  0
   32.1090   29.4860   35.2030 N   0  0  0  0  0  0  0  0  0  0  0  0
   33.3760   29.1050   35.0210 C   0  0  0  0  0  0  0  0  0  0  0  0
   34.2380   28.8010   36.0360 N   0  0  0  0  0  0  0  0  0  0  0  0
   32.0030   29.3810   38.4810 H   0  0  0  0  0  0  0  0  0  0  0  0
   30.5690   29.8980   36.5820 H   0  0  0  0  0  0  0  0  0  0  0  0
   33.6850   29.0540   33.9810 H   0  0  0  0  0  0  0  0  0  0  0  0
   37.1090   27.6870   41.6350 C   0  0  0  0  0  0  0  0  0  0  0  0
   37.7000   26.4410   41.5570 C   0  0  0  0  0  0  0  0  0  0  0  0
   37.5430   25.7360   40.7530 H   0  0  0  0  0  0  0  0  0  0  0  0
   38.5550   26.0960   42.6060 C   0  0  0  0  0  3  0  0  0  0  0  0
   38.8200   26.9260   43.6800 C   0  0  0  0  0  0  0  0  0  0  0  0
   39.4880   26.6280   44.4760 H   0  0  0  0  0  0  0  0  0  0  0  0
   38.1810   28.1690   43.6790 C   0  0  0  0  0  0  0  0  0  0  0  0
   38.3910   28.8250   44.5250 H   0  0  0  0  0  0  0  0  0  0  0  0
   37.3210   28.5730   42.6700 C   0  0  0  0  0  3  0  0  0  0  0  0
  1  2  1  0  0  0  0
  2  3  2  0  0  0  0
  2 18  1  0  0  0  0
  3  8  1  0  0  0  0
  4  3  1  0  0  0  0
  5  4  2  0  0  0  0
  6  5  1  0  0  0  0
  6  1  2  0  0  0  0
  7  1  1  0  0  0  0
  9 10  1  0  0  0  0
  9  5  1  0  0  0  0
 10 15  1  0  0  0  0
 11 16  1  0  0  0  0
 11 10  2  0  0  0  0
 12 11  1  0  0  0  0
 13 12  2  0  0  0  0
 13 14  1  0  0  0  0
 14  9  2  0  0  0  0
 17 13  1  0  0  0  0
 18 26  1  0  0  0  0
 19 18  2  0  0  0  0
 19 21  1  0  0  0  0
 20 19  1  0  0  0  0
 21 22  2  0  0  0  0
 22 23  1  0  0  0  0
 24 22  1  0  0  0  0
 24 25  1  0  0  0  0
 26 24  2  0  0  0  0
M  END
>  <minimizedAffinity>
-4.64633894

$$$$

 OpenBabel03252500473D

 26 28  0  0  0  0  0  0  0  0999 V2000
   39.5050   29.8020   39.8440 C   0  0  0  0  0  0  0  0  0  0  0  0
   39.2190   30.0250   41.2020 C   0  0  0  0  0  0  0  0  0  0  0  0
   39.7950   31.0740   41.9070 C   0  0  0  0  0  0  0  0  0  0  0  0
   40.6460   31.8520   41.1810 N   0  0  0  0  0  0  0  0  0  0  0  0
   40.9220   31.6430   39.8860 C   0  0  0  0  0  0  0  0  0  0  0  0
   40.3580   30.6220   39.2110 N   0  0  0  0  0  0  0  0  0  0  0  0
   39.0610   28.9890   39.2900 H   0  0  0  0  0  0  0  0  0  0  0  0
   39.6020   31.2720   42.9300 H   0  0  0  0  0  0  0  0  0  0  0  0
   41.8500   32.5220   39.1760 C   0  0  0  0  0  0  0  0  0  0  0  0
   42.9960   32.9480   39.7460 C   0  0  0  0  0  0  0  0  0  0  0  0
   43.9030   33.7750   39.1220 C   0  0  0  0  0  0  0  0  0  0  0  0
   43.5890   34.1610   37.8600 N   0  0  0  0  0  0  0  0  0  0  0  0
   42.4550   33.7430   37.2930 C   0  0  0  0  0  0  0  0  0  0  0  0
   41.5490   32.9230   37.9030 N   0  0  0  0  0  0  0  0  0  0  0  0
   43.2960   32.6650   40.7650 H   0  0  0  0  0  0  0  0  0  0  0  0
   44.8280   34.1270   39.5640 H   0  0  0  0  0  0  0  0  0  0  0  0
   42.2960   34.1080   36.2820 H   0  0  0  0  0  0  0  0  0  0  0  0
   38.2890   29.1250   41.8790 C   0  0  0  0  0  0  0  0  0  0  0  0
   38.7830   28.5140   43.0150 C   0  0  0  0  0  0  0  0  0  0  0  0
   39.7780   28.6630   43.4090 H   0  0  0  0  0  0  0  0  0  0  0  0
   37.9110   27.6480   43.6800 C   0  0  0  0  0  3  0  0  0  0  0  0
   36.6200   27.3910   43.2560 C   0  0  0  0  0  0  0  0  0  0  0  0
   35.9700   26.7140   43.7940 H   0  0  0  0  0  0  0  0  0  0  0  0
   36.2010   28.0510   42.0970 C   0  0  0  0  0  0  0  0  0  0  0  0
   35.1820   27.8500   41.7630 H   0  0  0  0  0  0  0  0  0  0  0  0
   37.0150   28.9220   41.3910 C   0  0  0  0  0  3  0  0  0  0  0  0
  1  2  1  0  0  0  0
  2 18  1  0  0  0  0
  2  3  2  0  0  0  0
  3  8  1  0  0  0  0
  4  3  1  0  0  0  0
  5  4  2  0  0  0  0
  6  1  2  0  0  0  0
  6  5  1  0  0  0  0
  7  1  1  0  0  0  0
  9 10  1  0  0  0  0
  9  5  1  0  0  0  0
 10 15  1  0  0  0  0
 11 16  1  0  0  0  0
 11 10  2  0  0  0  0
 12 11  1  0  0  0  0
 13 12  2  0  0  0  0
 13 14  1  0  0  0  0
 14  9  2  0  0  0  0
 17 13  1  0  0  0  0
 18 19  1  0  0  0  0
 19 20  1  0  0  0  0
 19 21  2  0  0  0  0
 22 21  1  0  0  0  0
 22 23  1  0  0  0  0
 24 22  2  0  0  0  0
 25 24  1  0  0  0  0
 26 18  2  0  0  0  0
 26 24  1  0  0  0  0
M  END
>  <minimizedAffinity>
-4.64237881

$$$$

 OpenBabel03252500473D

 26 28  0  0  0  0  0  0  0  0999 V2000
   36.2660   27.1490   39.2880 C   0  0  0  0  0  0  0  0  0  0  0  0
   36.2620   27.9050   40.4730 C   0  0  0  0  0  0  0  0  0  0  0  0
   35.4310   29.0050   40.6340 C   0  0  0  0  0  0  0  0  0  0  0  0
   34.6360   29.2830   39.5630 N   0  0  0  0  0  0  0  0  0  0  0  0
   34.6360   28.5650   38.4320 C   0  0  0  0  0  0  0  0  0  0  0  0
   35.4470   27.4990   38.2850 N   0  0  0  0  0  0  0  0  0  0  0  0
   36.9100   26.2920   39.1560 H   0  0  0  0  0  0  0  0  0  0  0  0
   35.4020   29.5970   41.5130 H   0  0  0  0  0  0  0  0  0  0  0  0
   33.7530   28.9300   37.3240 C   0  0  0  0  0  0  0  0  0  0  0  0
   32.4690   29.2860   37.5330 C   0  0  0  0  0  0  0  0  0  0  0  0
   31.5970   29.6390   36.5270 C   0  0  0  0  0  0  0  0  0  0  0  0
   32.0990   29.6140   35.2660 N   0  0  0  0  0  0  0  0  0  0  0  0
   33.3690   29.2600   35.0560 C   0  0  0  0  0  0  0  0  0  0  0  0
   34.2410   28.9100   36.0460 N   0  0  0  0  0  0  0  0  0  0  0  0
   32.0150   29.3210   38.5330 H   0  0  0  0  0  0  0  0  0  0  0  0
   30.5630   29.9280   36.6750 H   0  0  0  0  0  0  0  0  0  0  0  0
   33.6720   29.2720   34.0130 H   0  0  0  0  0  0  0  0  0  0  0  0
   37.1600   27.5120   41.5570 C   0  0  0  0  0  0  0  0  0  0  0  0
   37.2230   28.3950   42.6180 C   0  0  0  0  0  0  0  0  0  0  0  0
   36.6660   29.3190   42.6820 H   0  0  0  0  0  0  0  0  0  0  0  0
   38.0740   28.0400   43.6670 C   0  0  0  0  0  3  0  0  0  0  0  0
   38.8280   26.8800   43.6800 C   0  0  0  0  0  0  0  0  0  0  0  0
   39.4780   26.6360   44.5080 H   0  0  0  0  0  0  0  0  0  0  0  0
   38.7040   26.0440   42.5670 C   0  0  0  0  0  0  0  0  0  0  0  0
   39.2980   25.1280   42.5760 H   0  0  0  0  0  0  0  0  0  0  0  0
   37.8780   26.3360   41.4930 C   0  0  0  0  0  3  0  0  0  0  0  0
  1  2  1  0  0  0  0
  2  3  2  0  0  0  0
  2 18  1  0  0  0  0
  3  8  1  0  0  0  0
  4  3  1  0  0  0  0
  5  4  2  0  0  0  0
  6  5  1  0  0  0  0
  6  1  2  0  0  0  0
  7  1  1  0  0  0  0
  9 10  1  0  0  0  0
  9  5  1  0  0  0  0
 10 15  1  0  0  0  0
 11 16  1  0  0  0  0
 11 10  2  0  0  0  0
 12 11  1  0  0  0  0
 13 12  2  0  0  0  0
 13 14  1  0  0  0  0
 14  9  2  0  0  0  0
 17 13  1  0  0  0  0
 18 19  1  0  0  0  0
 19 20  1  0  0  0  0
 19 21  2  0  0  0  0
 21 22  1  0  0  0  0
 22 23  1  0  0  0  0
 24 25  1  0  0  0  0
 24 22  2  0  0  0  0
 26 18  2  0  0  0  0
 26 24  1  0  0  0  0
M  END
>  <minimizedAffinity>
-4.63455105

$$$$

 OpenBabel03252500473D

 26 28  0  0  0  0  0  0  0  0999 V2000
   38.3340   28.1300   39.3430 C   0  0  0  0  0  0  0  0  0  0  0  0
   37.6990   27.7280   40.5310 C   0  0  0  0  0  0  0  0  0  0  0  0
   37.5260   28.6010   41.5970 C   0  0  0  0  0  0  0  0  0  0  0  0
   38.0170   29.8560   41.3950 N   0  0  0  0  0  0  0  0  0  0  0  0
   38.6220   30.2430   40.2640 C   0  0  0  0  0  0  0  0  0  0  0  0
   38.7860   29.3890   39.2350 N   0  0  0  0  0  0  0  0  0  0  0  0
   38.4720   27.4570   38.5100 H   0  0  0  0  0  0  0  0  0  0  0  0
   37.0520   28.3320   42.5060 H   0  0  0  0  0  0  0  0  0  0  0  0
   39.1250   31.6090   40.1250 C   0  0  0  0  0  0  0  0  0  0  0  0
   38.4680   32.6610   40.6550 C   0  0  0  0  0  0  0  0  0  0  0  0
   38.8980   33.9660   40.5550 C   0  0  0  0  0  0  0  0  0  0  0  0
   40.0550   34.1610   39.8740 N   0  0  0  0  0  0  0  0  0  0  0  0
   40.7080   33.1230   39.3460 C   0  0  0  0  0  0  0  0  0  0  0  0
   40.2900   31.8260   39.4410 N   0  0  0  0  0  0  0  0  0  0  0  0
   37.5280   32.5560   41.2150 H   0  0  0  0  0  0  0  0  0  0  0  0
   38.3840   34.8220   40.9740 H   0  0  0  0  0  0  0  0  0  0  0  0
   41.6220   33.3860   38.8210 H   0  0  0  0  0  0  0  0  0  0  0  0
   37.2120   26.3540   40.6350 C   0  0  0  0  0  0  0  0  0  0  0  0
   36.6940   25.8240   39.4690 C   0  0  0  0  0  0  0  0  0  0  0  0
   36.6340   26.3520   38.5280 H   0  0  0  0  0  0  0  0  0  0  0  0
   36.2230   24.5120   39.5450 C   0  0  0  0  0  3  0  0  0  0  0  0
   36.2550   23.7530   40.7010 C   0  0  0  0  0  0  0  0  0  0  0  0
   35.8810   22.7390   40.7250 H   0  0  0  0  0  0  0  0  0  0  0  0
   36.7960   24.3680   41.8340 C   0  0  0  0  0  0  0  0  0  0  0  0
   36.8230   23.7700   42.7470 H   0  0  0  0  0  0  0  0  0  0  0  0
   37.2810   25.6660   41.8280 C   0  0  0  0  0  3  0  0  0  0  0  0
  1  2  1  0  0  0  0
  2 18  1  0  0  0  0
  2  3  2  0  0  0  0
  3  8  1  0  0  0  0
  4  3  1  0  0  0  0
  5  4  2  0  0  0  0
  6  1  2  0  0  0  0
  6  5  1  0  0  0  0
  7  1  1  0  0  0  0
  9  5  1  0  0  0  0
  9 10  1  0  0  0  0
 10 15  1  0  0  0  0
 11 10  2  0  0  0  0
 11 16  1  0  0  0  0
 12 11  1  0  0  0  0
 13 14  1  0  0  0  0
 13 12  2  0  0  0  0
 14  9  2  0  0  0  0
 17 13  1  0  0  0  0
 18 26  1  0  0  0  0
 19 21  1  0  0  0  0
 19 18  2  0  0  0  0
 20 19  1  0  0  0  0
 21 22  2  0  0  0  0
 22 23  1  0  0  0  0
 22 24  1  0  0  0  0
 24 25  1  0  0  0  0
 26 24  2  0  0  0  0
M  END
>  <minimizedAffinity>
-4.61376143

$$$$

 OpenBabel03252500473D

 26 28  0  0  0  0  0  0  0  0999 V2000
   35.6950   27.5640   38.1810 C   0  0  0  0  0  0  0  0  0  0  0  0
   34.7380   28.5640   38.4250 C   0  0  0  0  0  0  0  0  0  0  0  0
   34.6210   29.1760   39.6660 C   0  0  0  0  0  0  0  0  0  0  0  0
   35.4980   28.7300   40.6090 N   0  0  0  0  0  0  0  0  0  0  0  0
   36.4120   27.7770   40.3800 C   0  0  0  0  0  0  0  0  0  0  0  0
   36.5180   27.1890   39.1730 N   0  0  0  0  0  0  0  0  0  0  0  0
   35.7920   27.0840   37.2190 H   0  0  0  0  0  0  0  0  0  0  0  0
   33.9110   29.9320   39.8850 H   0  0  0  0  0  0  0  0  0  0  0  0
   37.3180   27.3510   41.4470 C   0  0  0  0  0  0  0  0  0  0  0  0
   37.7280   28.2030   42.4080 C   0  0  0  0  0  0  0  0  0  0  0  0
   38.5780   27.8540   43.4340 C   0  0  0  0  0  0  0  0  0  0  0  0
   39.0040   26.5650   43.4420 N   0  0  0  0  0  0  0  0  0  0  0  0
   38.6010   25.7190   42.4920 C   0  0  0  0  0  0  0  0  0  0  0  0
   37.7580   26.0560   41.4710 N   0  0  0  0  0  0  0  0  0  0  0  0
   37.4130   29.2560   42.4460 H   0  0  0  0  0  0  0  0  0  0  0  0
   38.9180   28.5250   44.2140 H   0  0  0  0  0  0  0  0  0  0  0  0
   38.9990   24.7120   42.5880 H   0  0  0  0  0  0  0  0  0  0  0  0
   33.8490   28.9620   37.3360 C   0  0  0  0  0  0  0  0  0  0  0  0
   34.4110   28.9310   36.0750 C   0  0  0  0  0  0  0  0  0  0  0  0
   35.4300   28.6400   35.8650 H   0  0  0  0  0  0  0  0  0  0  0  0
   33.5790   29.3070   35.0190 C   0  0  0  0  0  3  0  0  0  0  0  0
   32.2620   29.6960   35.1840 C   0  0  0  0  0  0  0  0  0  0  0  0
   31.6450   29.9820   34.3430 H   0  0  0  0  0  0  0  0  0  0  0  0
   31.7740   29.6990   36.4930 C   0  0  0  0  0  0  0  0  0  0  0  0
   30.7340   30.0040   36.6250 H   0  0  0  0  0  0  0  0  0  0  0  0
   32.5450   29.3370   37.5860 C   0  0  0  0  0  3  0  0  0  0  0  0
  1  2  2  0  0  0  0
  1  6  1  0  0  0  0
  2  3  1  0  0  0  0
  3  8  1  0  0  0  0
  3  4  2  0  0  0  0
  5  4  1  0  0  0  0
  5  9  1  0  0  0  0
  6  5  2  0  0  0  0
  7  1  1  0  0  0  0
  9 14  2  0  0  0  0
  9 10  1  0  0  0  0
 10 15  1  0  0  0  0
 10 11  2  0  0  0  0
 11 12  1  0  0  0  0
 11 16  1  0  0  0  0
 13 17  1  0  0  0  0
 13 12  2  0  0  0  0
 14 13  1  0  0  0  0
 18 26  1  0  0  0  0
 18  2  1  0  0  0  0
 19 18  2  0  0  0  0
 20 19  1  0  0  0  0
 21 22  2  0  0  0  0
 21 19  1  0  0  0  0
 22 24  1  0  0  0  0
 23 22  1  0  0  0  0
 24 25  1  0  0  0  0
 24 26  2  0  0  0  0
M  END
>  <minimizedAffinity>
-4.52387905

$$$$

 OpenBabel03252500473D

 26 28  0  0  0  0  0  0  0  0999 V2000
   38.1360   31.4730   40.6460 C   0  0  0  0  0  0  0  0  0  0  0  0
   37.8850   30.8930   39.3910 C   0  0  0  0  0  0  0  0  0  0  0  0
   38.8120   30.9550   38.3590 C   0  0  0  0  0  0  0  0  0  0  0  0
   39.9640   31.6170   38.6640 N   0  0  0  0  0  0  0  0  0  0  0  0
   40.2070   32.1710   39.8600 C   0  0  0  0  0  0  0  0  0  0  0  0
   39.3010   32.1050   40.8550 N   0  0  0  0  0  0  0  0  0  0  0  0
   37.4200   31.4280   41.4530 H   0  0  0  0  0  0  0  0  0  0  0  0
   38.6560   30.5290   37.4010 H   0  0  0  0  0  0  0  0  0  0  0  0
   41.4690   32.8670   40.1080 C   0  0  0  0  0  0  0  0  0  0  0  0
   42.0210   32.9130   41.3380 C   0  0  0  0  0  0  0  0  0  0  0  0
   43.2060   33.5540   41.6250 C   0  0  0  0  0  0  0  0  0  0  0  0
   43.8240   34.1610   40.5810 N   0  0  0  0  0  0  0  0  0  0  0  0
   43.2810   34.1190   39.3620 C   0  0  0  0  0  0  0  0  0  0  0  0
   42.1070   33.4860   39.0670 N   0  0  0  0  0  0  0  0  0  0  0  0
   41.5600   32.4390   42.2160 H   0  0  0  0  0  0  0  0  0  0  0  0
   43.6640   33.6010   42.6070 H   0  0  0  0  0  0  0  0  0  0  0  0
   43.8530   34.6350   38.5970 H   0  0  0  0  0  0  0  0  0  0  0  0
   36.6120   30.2070   39.1790 C   0  0  0  0  0  0  0  0  0  0  0  0
   36.3280   29.8880   37.8660 C   0  0  0  0  0  0  0  0  0  0  0  0
   36.9710   30.1100   37.0270 H   0  0  0  0  0  0  0  0  0  0  0  0
   35.1160   29.2310   37.6390 C   0  0  0  0  0  3  0  0  0  0  0  0
   34.2250   28.9030   38.6440 C   0  0  0  0  0  0  0  0  0  0  0  0
   33.2940   28.3950   38.4330 H   0  0  0  0  0  0  0  0  0  0  0  0
   34.5910   29.2640   39.9430 C   0  0  0  0  0  0  0  0  0  0  0  0
   33.8890   29.0040   40.7380 H   0  0  0  0  0  0  0  0  0  0  0  0
   35.7780   29.9160   40.2380 C   0  0  0  0  0  3  0  0  0  0  0  0
  1  6  1  0  0  0  0
  1  7  1  0  0  0  0
  2  1  2  0  0  0  0
  3  4  2  0  0  0  0
  3  2  1  0  0  0  0
  4  5  1  0  0  0  0
  5  9  1  0  0  0  0
  5  6  2  0  0  0  0
  8  3  1  0  0  0  0
  9 10  1  0  0  0  0
 10 11  2  0  0  0  0
 10 15  1  0  0  0  0
 11 16  1  0  0  0  0
 12 11  1  0  0  0  0
 13 12  2  0  0  0  0
 14 13  1  0  0  0  0
 14  9  2  0  0  0  0
 17 13  1  0  0  0  0
 18  2  1  0  0  0  0
 18 26  1  0  0  0  0
 19 18  2  0  0  0  0
 20 19  1  0  0  0  0
 21 19  1  0  0  0  0
 21 22  2  0  0  0  0
 22 24  1  0  0  0  0
 23 22  1  0  0  0  0
 24 26  2  0  0  0  0
 24 25  1  0  0  0  0
M  END
>  <minimizedAffinity>
-4.41947317

$$$$

 OpenBabel03252500473D

 26 28  0  0  0  0  0  0  0  0999 V2000
   37.5560   29.1890   39.3780 C   0  0  0  0  0  0  0  0  0  0  0  0
   38.0550   29.9520   40.4480 C   0  0  0  0  0  0  0  0  0  0  0  0
   38.4790   29.3610   41.6310 C   0  0  0  0  0  0  0  0  0  0  0  0
   38.3680   28.0030   41.6630 N   0  0  0  0  0  0  0  0  0  0  0  0
   37.8930   27.2720   40.6460 C   0  0  0  0  0  0  0  0  0  0  0  0
   37.4850   27.8550   39.5020 N   0  0  0  0  0  0  0  0  0  0  0  0
   37.2250   29.6420   38.4550 H   0  0  0  0  0  0  0  0  0  0  0  0
   38.8600   29.9050   42.4570 H   0  0  0  0  0  0  0  0  0  0  0  0
   37.8040   25.8170   40.7600 C   0  0  0  0  0  0  0  0  0  0  0  0
   37.4210   25.0490   39.7190 C   0  0  0  0  0  0  0  0  0  0  0  0
   37.3220   23.6760   39.7730 C   0  0  0  0  0  0  0  0  0  0  0  0
   37.6360   23.1010   40.9610 N   0  0  0  0  0  0  0  0  0  0  0  0
   38.0140   23.8580   41.9940 C   0  0  0  0  0  0  0  0  0  0  0  0
   38.1170   25.2190   41.9500 N   0  0  0  0  0  0  0  0  0  0  0  0
   37.1550   25.4650   38.7370 H   0  0  0  0  0  0  0  0  0  0  0  0
   37.0170   23.0430   38.9470 H   0  0  0  0  0  0  0  0  0  0  0  0
   38.2430   23.3020   42.8990 H   0  0  0  0  0  0  0  0  0  0  0  0
   38.1280   31.4030   40.2990 C   0  0  0  0  0  0  0  0  0  0  0  0
   39.2020   32.0070   40.9230 C   0  0  0  0  0  0  0  0  0  0  0  0
   39.9570   31.4810   41.4900 H   0  0  0  0  0  0  0  0  0  0  0  0
   39.2920   33.3940   40.7940 C   0  0  0  0  0  3  0  0  0  0  0  0
   38.3770   34.1570   40.0900 C   0  0  0  0  0  0  0  0  0  0  0  0
   38.4770   35.2310   40.0100 H   0  0  0  0  0  0  0  0  0  0  0  0
   37.3210   33.4660   39.4900 C   0  0  0  0  0  0  0  0  0  0  0  0
   36.6000   34.0670   38.9330 H   0  0  0  0  0  0  0  0  0  0  0  0
   37.1730   32.0910   39.5790 C   0  0  0  0  0  3  0  0  0  0  0  0
  1  6  2  0  0  0  0
  1  2  1  0  0  0  0
  2  3  2  0  0  0  0
  3  4  1  0  0  0  0
  3  8  1  0  0  0  0
  5  9  1  0  0  0  0
  5  4  2  0  0  0  0
  6  5  1  0  0  0  0
  7  1  1  0  0  0  0
  9 14  1  0  0  0  0
 10 11  1  0  0  0  0
 10  9  2  0  0  0  0
 11 12  2  0  0  0  0
 12 13  1  0  0  0  0
 13 17  1  0  0  0  0
 14 13  2  0  0  0  0
 15 10  1  0  0  0  0
 16 11  1  0  0  0  0
 18  2  1  0  0  0  0
 18 19  1  0  0  0  0
 19 20  1  0  0  0  0
 21 19  2  0  0  0  0
 22 21  1  0  0  0  0
 23 22  1  0  0  0  0
 24 26  1  0  0  0  0
 24 22  2  0  0  0  0
 25 24  1  0  0  0  0
 26 18  2  0  0  0  0
M  END
>  <minimizedAffinity>
-4.36227322

$$$$
