
 OpenBabel03252508553D

 43 46  0  0  1  0  0  0  0  0999 V2000
   43.2360   34.3130   40.6540 C   0  0  0  0  0  0  0  0  0  0  0  0
   43.1850   35.5050   40.1890 O   0  0  0  0  0  0  0  0  0  0  0  0
   41.8610   33.9060   40.4450 N   0  0  0  0  0  0  0  0  0  0  0  0
   41.4290   33.9190   39.0620 C   0  0  0  0  0  0  0  0  0  0  0  0
   40.6380   35.2340   38.9110 C   0  0  0  0  0  0  0  0  0  0  0  0
   39.9080   35.4540   40.2470 C   0  0  0  0  0  0  0  0  0  0  0  0
   39.5700   34.1310   40.9010 C   0  0  0  0  0  0  0  0  0  0  0  0
   40.8590   33.4900   41.4070 C   0  0  1  0  0  0  0  0  0  0  0  0
   42.2600   33.8680   38.3380 H   0  0  0  0  0  0  0  0  0  0  0  0
   40.6960   33.1030   38.8420 H   0  0  0  0  0  0  0  0  0  0  0  0
   41.3230   36.0970   38.7730 H   0  0  0  0  0  0  0  0  0  0  0  0
   39.9440   35.1750   38.0630 H   0  0  0  0  0  0  0  0  0  0  0  0
   40.5380   36.0200   40.9490 H   0  0  0  0  0  0  0  0  0  0  0  0
   38.9250   35.9450   40.0420 H   0  0  0  0  0  0  0  0  0  0  0  0
   39.0820   33.5320   40.1120 H   0  0  0  0  0  0  0  0  0  0  0  0
   38.9070   34.3710   41.7530 H   0  0  0  0  0  0  0  0  0  0  0  0
   41.1020   34.0100   42.3600 H   0  0  0  0  0  0  0  0  0  0  0  0
   40.7400   32.0420   41.5840 C   0  0  0  0  0  0  0  0  0  0  0  0
   41.8180   31.4150   42.1840 C   0  0  0  0  0  0  0  0  0  0  0  0
   42.7050   31.9300   42.5120 H   0  0  0  0  0  0  0  0  0  0  0  0
   41.8580   30.0610   42.4200 C   0  0  0  0  0  3  0  0  0  0  0  0
   40.7900   29.2710   42.0520 C   0  0  0  0  0  0  0  0  0  0  0  0
   40.8060   28.2010   42.2320 H   0  0  0  0  0  0  0  0  0  0  0  0
   39.6850   29.8660   41.4430 C   0  0  0  0  0  0  0  0  0  0  0  0
   38.8250   29.2810   41.1400 H   0  0  0  0  0  0  0  0  0  0  0  0
   39.6890   31.2290   41.2270 C   0  0  0  0  0  3  0  0  0  0  0  0
   44.3250   33.6940   41.1760 O   0  0  0  0  0  0  0  0  0  0  0  0
   45.6470   33.9990   40.9710 C   0  0  0  0  0  0  0  0  0  0  0  0
   46.3240   34.6380   42.0220 C   0  0  0  0  0  0  0  0  0  0  0  0
   47.6780   34.9400   41.7880 C   0  0  0  0  0  0  0  0  0  0  0  0
   48.2350   34.6000   40.5870 N   0  0  0  0  0  0  0  0  0  0  0  0
   47.5360   33.9950   39.6360 C   0  0  0  0  0  0  0  0  0  0  0  0
   46.2420   33.6910   39.8200 N   0  0  0  0  0  0  0  0  0  0  0  0
   48.1830   35.4280   42.5970 H   0  0  0  0  0  0  0  0  0  0  0  0
   48.0490   33.7630   38.7230 H   0  0  0  0  0  0  0  0  0  0  0  0
   45.6380   34.9520   43.2520 C   0  0  0  0  0  0  0  0  0  0  0  0
   45.0180   36.1750   43.4850 C   0  0  0  0  0  0  0  0  0  0  0  0
   44.5040   36.0460   44.7480 C   0  0  0  0  0  0  0  0  0  0  0  0
   44.7890   34.8290   45.2540 N   0  0  0  0  0  0  0  0  0  0  0  0
   45.4680   34.2000   44.3330 N   0  0  0  0  0  0  0  0  0  0  0  0
   44.9770   37.0130   42.7930 H   0  0  0  0  0  0  0  0  0  0  0  0
   43.9420   36.8140   45.2790 H   0  0  0  0  0  0  0  0  0  0  0  0
   44.5570   34.3950   46.1760 H   0  0  0  0  0  0  0  0  0  0  0  0
  1 27  1  0  0  0  0
  2  1  2  0  0  0  0
  3  1  1  0  0  0  0
  3  8  1  0  0  0  0
  4  3  1  0  0  0  0
  5  4  1  0  0  0  0
  5  6  1  0  0  0  0
  6  7  1  0  0  0  0
  6 13  1  0  0  0  0
  7  8  1  0  0  0  0
  7 16  1  0  0  0  0
  8 18  1  0  0  0  0
  8 17  1  1  0  0  0
  9  4  1  0  0  0  0
 10  4  1  0  0  0  0
 11  5  1  0  0  0  0
 12  5  1  0  0  0  0
 14  6  1  0  0  0  0
 15  7  1  0  0  0  0
 18 19  1  0  0  0  0
 19 21  2  0  0  0  0
 19 20  1  0  0  0  0
 22 23  1  0  0  0  0
 22 21  1  0  0  0  0
 24 22  2  0  0  0  0
 25 24  1  0  0  0  0
 26 24  1  0  0  0  0
 26 18  2  0  0  0  0
 28 27  1  0  0  0  0
 28 29  1  0  0  0  0
 29 36  1  0  0  0  0
 30 29  2  0  0  0  0
 30 34  1  0  0  0  0
 31 30  1  0  0  0  0
 32 33  1  0  0  0  0
 32 31  2  0  0  0  0
 33 28  2  0  0  0  0
 35 32  1  0  0  0  0
 36 37  1  0  0  0  0
 36 40  2  0  0  0  0
 37 38  2  0  0  0  0
 38 39  1  0  0  0  0
 38 42  1  0  0  0  0
 39 43  1  0  0  0  0
 40 39  1  0  0  0  0
 41 37  1  0  0  0  0
M  END
>  <minimizedAffinity>
-6.63480425

>  <minimizedRMSD>
0.589370966

$$$$
