
 OpenBabel03242511093D

 43 47  0  0  1  0  0  0  0  0999 V2000
   47.0480   32.7000   44.3200 C   0  0  0  0  0  0  0  0  0  0  0  0
   47.1030   31.9120   45.4600 C   0  0  0  0  0  0  0  0  0  0  0  0
   46.3760   32.1830   46.6190 C   0  0  0  0  0  0  0  0  0  0  0  0
   45.5490   33.2900   46.6590 C   0  0  0  0  0  0  0  0  0  0  0  0
   45.4700   34.0820   45.5650 C   0  0  0  0  0  0  0  0  0  0  0  0
   44.6580   35.1980   45.5710 C   0  0  0  0  0  0  0  0  0  0  0  0
   44.5310   36.0460   44.5080 C   0  0  0  0  0  0  0  0  0  0  0  0
   45.2750   35.7340   43.3780 C   0  0  0  0  0  0  0  0  0  0  0  0
   46.0940   34.6120   43.3640 C   0  0  0  0  0  0  0  0  0  0  0  0
   46.2090   33.7770   44.4340 C   0  0  0  0  0  0  0  0  0  0  0  0
   47.6960   31.0200   45.5650 H   0  0  0  0  0  0  0  0  0  0  0  0
   46.4130   31.5740   47.5110 H   0  0  0  0  0  0  0  0  0  0  0  0
   44.9790   33.5120   47.5510 H   0  0  0  0  0  0  0  0  0  0  0  0
   44.1040   35.3890   46.4750 H   0  0  0  0  0  0  0  0  0  0  0  0
   43.8640   36.8950   44.6210 H   0  0  0  0  0  0  0  0  0  0  0  0
   45.1150   36.4640   42.5760 H   0  0  0  0  0  0  0  0  0  0  0  0
   46.7120   34.5200   42.0540 C   0  0  0  0  0  0  0  0  0  0  0  0
   46.4760   33.8820   40.8580 C   0  0  0  0  0  0  0  0  0  0  0  0
   45.5620   33.3100   40.9720 H   0  0  0  0  0  0  0  0  0  0  0  0
   47.2950   34.0060   39.7650 C   0  0  0  0  0  0  0  0  0  0  0  0
   48.4260   34.7860   39.7750 C   0  0  0  0  0  0  0  0  0  0  0  0
   48.9480   34.7720   38.8420 H   0  0  0  0  0  0  0  0  0  0  0  0
   48.7200   35.4530   40.9450 C   0  0  0  0  0  0  0  0  0  0  0  0
   49.6110   36.0500   40.9130 H   0  0  0  0  0  0  0  0  0  0  0  0
   47.8770   35.3150   42.0490 C   0  0  0  0  0  0  0  0  0  0  0  0
   47.8210   32.3340   43.2150 N   0  0  0  0  0  0  0  0  0  0  0  0
   47.5200   33.1640   42.6770 H   0  0  0  0  0  0  0  0  0  0  0  0
   49.9260   31.0730   42.5960 C   0  0  1  0  0  0  0  0  0  0  0  0
   48.7790   30.4390   41.8360 C   0  0  0  0  0  0  0  0  0  0  0  0
   48.5960   31.1220   43.1850 C   0  0  2  0  0  0  0  0  0  0  0  0
   50.3760   31.9100   41.9980 H   0  0  0  0  0  0  0  0  0  0  0  0
   48.7490   29.3320   41.8670 H   0  0  0  0  0  0  0  0  0  0  0  0
   48.3390   30.9370   40.9650 H   0  0  0  0  0  0  0  0  0  0  0  0
   48.4340   30.4910   44.0860 H   0  0  0  0  0  0  0  0  0  0  0  0
   51.6900   28.7200   44.8430 C   0  0  0  0  0  0  0  0  0  0  0  0
   52.9590   28.6010   44.1960 C   0  0  0  0  0  0  0  0  0  0  0  0
   53.1670   29.3300   42.9980 C   0  0  0  0  0  0  0  0  0  0  0  0
   52.1840   30.0960   42.5140 N   0  0  0  0  0  0  0  0  0  0  0  0
   50.9890   30.1870   43.1530 C   0  0  0  0  0  0  0  0  0  0  0  0
   50.7410   29.5000   44.3170 N   0  0  0  0  0  0  0  0  0  0  0  0
   51.6050   28.1380   45.7490 H   0  0  0  0  0  0  0  0  0  0  0  0
   53.7800   28.0110   44.5280 H   0  0  0  0  0  0  0  0  0  0  0  0
   54.1220   29.2500   42.4970 H   0  0  0  0  0  0  0  0  0  0  0  0
  1 10  2  0  0  0  0
  1  2  1  0  0  0  0
  2 11  1  0  0  0  0
  2  3  2  0  0  0  0
  3  4  1  0  0  0  0
  3 12  1  0  0  0  0
  4 13  1  0  0  0  0
  5  6  1  0  0  0  0
  5  4  2  0  0  0  0
  6 14  1  0  0  0  0
  7 15  1  0  0  0  0
  7  6  2  0  0  0  0
  8  7  1  0  0  0  0
  9  8  2  0  0  0  0
  9 10  1  0  0  0  0
 10  5  1  0  0  0  0
 16  8  1  0  0  0  0
 17  9  1  0  0  0  0
 18 19  1  0  0  0  0
 18 17  2  0  0  0  0
 20 21  2  0  0  0  0
 20 18  1  0  0  0  0
 21 23  1  0  0  0  0
 22 21  1  0  0  0  0
 23 25  2  0  0  0  0
 24 23  1  0  0  0  0
 25 17  1  0  0  0  0
 26  1  1  0  0  0  0
 27 26  1  0  0  0  0
 28 31  1  6  0  0  0
 28 39  1  0  0  0  0
 28 30  1  0  0  0  0
 29 32  1  0  0  0  0
 29 28  1  0  0  0  0
 29 30  1  0  0  0  0
 30 26  1  0  0  0  0
 30 34  1  1  0  0  0
 33 29  1  0  0  0  0
 35 41  1  0  0  0  0
 36 42  1  0  0  0  0
 36 35  2  0  0  0  0
 37 36  1  0  0  0  0
 38 37  2  0  0  0  0
 38 39  1  0  0  0  0
 39 40  2  0  0  0  0
 40 35  1  0  0  0  0
 43 37  1  0  0  0  0
M  END
>  <minimizedAffinity>
-6.32299662

>  <minimizedRMSD>
2.49628282

$$$$
