
 OpenBabel03252508543D

 43 46  0  0  1  0  0  0  0  0999 V2000
   43.2760   34.4330   40.7170 C   0  0  0  0  0  0  0  0  0  0  0  0
   43.2670   35.6090   40.2120 O   0  0  0  0  0  0  0  0  0  0  0  0
   41.8940   34.0570   40.4980 N   0  0  0  0  0  0  0  0  0  0  0  0
   41.4850   34.0350   39.1080 C   0  0  0  0  0  0  0  0  0  0  0  0
   40.7340   35.3650   38.8980 C   0  0  0  0  0  0  0  0  0  0  0  0
   39.9890   35.6500   40.2140 C   0  0  0  0  0  0  0  0  0  0  0  0
   39.6040   34.3610   40.9060 C   0  0  0  0  0  0  0  0  0  0  0  0
   40.8650   33.7020   41.4560 C   0  0  1  0  0  0  0  0  0  0  0  0
   42.3270   33.9360   38.4010 H   0  0  0  0  0  0  0  0  0  0  0  0
   40.7340   33.2320   38.9030 H   0  0  0  0  0  0  0  0  0  0  0  0
   41.4450   36.2040   38.7440 H   0  0  0  0  0  0  0  0  0  0  0  0
   40.0530   35.2950   38.0410 H   0  0  0  0  0  0  0  0  0  0  0  0
   40.6230   36.2230   40.9070 H   0  0  0  0  0  0  0  0  0  0  0  0
   39.0230   36.1610   39.9750 H   0  0  0  0  0  0  0  0  0  0  0  0
   39.1110   33.7480   40.1290 H   0  0  0  0  0  0  0  0  0  0  0  0
   38.9330   34.6480   41.7380 H   0  0  0  0  0  0  0  0  0  0  0  0
   41.1070   34.2480   42.3950 H   0  0  0  0  0  0  0  0  0  0  0  0
   40.7030   32.2650   41.6790 C   0  0  0  0  0  0  0  0  0  0  0  0
   39.4410   31.7530   41.4270 C   0  0  0  0  0  0  0  0  0  0  0  0
   38.6100   32.3470   41.0880 H   0  0  0  0  0  0  0  0  0  0  0  0
   39.1280   30.4250   41.5870 C   0  0  0  0  0  3  0  0  0  0  0  0
   40.0970   29.5410   42.0170 C   0  0  0  0  0  0  0  0  0  0  0  0
   39.8670   28.4890   42.1490 H   0  0  0  0  0  0  0  0  0  0  0  0
   41.3810   30.0180   42.2820 C   0  0  0  0  0  0  0  0  0  0  0  0
   42.1690   29.3580   42.6210 H   0  0  0  0  0  0  0  0  0  0  0  0
   41.6480   31.3610   42.1070 C   0  0  0  0  0  3  0  0  0  0  0  0
   44.3390   33.8030   41.2790 O   0  0  0  0  0  0  0  0  0  0  0  0
   45.6710   34.0880   41.1160 C   0  0  0  0  0  0  0  0  0  0  0  0
   46.3260   34.7070   42.1920 C   0  0  0  0  0  0  0  0  0  0  0  0
   47.6920   34.9880   42.0020 C   0  0  0  0  0  0  0  0  0  0  0  0
   48.2790   34.6520   40.8140 N   0  0  0  0  0  0  0  0  0  0  0  0
   47.5980   34.0670   39.8370 C   0  0  0  0  0  0  0  0  0  0  0  0
   46.2940   33.7820   39.9800 N   0  0  0  0  0  0  0  0  0  0  0  0
   48.1800   35.4600   42.8300 H   0  0  0  0  0  0  0  0  0  0  0  0
   48.1340   33.8360   38.9360 H   0  0  0  0  0  0  0  0  0  0  0  0
   45.6100   35.0190   43.4060 C   0  0  0  0  0  0  0  0  0  0  0  0
   45.0000   36.2490   43.6310 C   0  0  0  0  0  0  0  0  0  0  0  0
   44.4480   36.1150   44.8780 C   0  0  0  0  0  0  0  0  0  0  0  0
   44.7020   34.8900   45.3810 N   0  0  0  0  0  0  0  0  0  0  0  0
   45.3980   34.2600   44.4740 N   0  0  0  0  0  0  0  0  0  0  0  0
   44.9900   37.0930   42.9460 H   0  0  0  0  0  0  0  0  0  0  0  0
   43.8820   36.8870   45.3990 H   0  0  0  0  0  0  0  0  0  0  0  0
   44.4370   34.4520   46.2920 H   0  0  0  0  0  0  0  0  0  0  0  0
  1 27  1  0  0  0  0
  2  1  2  0  0  0  0
  3  1  1  0  0  0  0
  3  8  1  0  0  0  0
  4  3  1  0  0  0  0
  5  4  1  0  0  0  0
  5  6  1  0  0  0  0
  6  7  1  0  0  0  0
  6 13  1  0  0  0  0
  7  8  1  0  0  0  0
  7 16  1  0  0  0  0
  8 18  1  0  0  0  0
  8 17  1  1  0  0  0
  9  4  1  0  0  0  0
 10  4  1  0  0  0  0
 11  5  1  0  0  0  0
 12  5  1  0  0  0  0
 14  6  1  0  0  0  0
 15  7  1  0  0  0  0
 18 26  1  0  0  0  0
 19 21  1  0  0  0  0
 19 18  2  0  0  0  0
 20 19  1  0  0  0  0
 21 22  2  0  0  0  0
 22 23  1  0  0  0  0
 22 24  1  0  0  0  0
 24 25  1  0  0  0  0
 26 24  2  0  0  0  0
 28 27  1  0  0  0  0
 28 29  1  0  0  0  0
 29 36  1  0  0  0  0
 30 29  2  0  0  0  0
 30 34  1  0  0  0  0
 31 30  1  0  0  0  0
 32 33  1  0  0  0  0
 32 31  2  0  0  0  0
 33 28  2  0  0  0  0
 35 32  1  0  0  0  0
 36 37  1  0  0  0  0
 36 40  2  0  0  0  0
 37 38  2  0  0  0  0
 38 39  1  0  0  0  0
 38 42  1  0  0  0  0
 39 43  1  0  0  0  0
 40 39  1  0  0  0  0
 41 37  1  0  0  0  0
M  END
>  <minimizedAffinity>
-6.75388861

>  <minimizedRMSD>
0.58809787

$$$$
