
 OpenBabel03252501183D

 21 22  0  0  0  0  0  0  0  0999 V2000
   40.1480   30.6010   41.6030 C   0  0  0  0  0  0  0  0  0  0  0  0
   38.7900   30.5810   41.1620 C   0  0  0  0  0  0  0  0  0  0  0  0
   38.3740   31.6990   40.4430 C   0  0  0  0  0  0  0  0  0  0  0  0
   39.2680   32.7030   40.2150 N   0  0  0  0  0  0  0  0  0  0  0  0
   40.5410   32.6700   40.6560 C   0  0  0  0  0  0  0  0  0  0  0  0
   40.9700   31.6150   41.3480 N   0  0  0  0  0  0  0  0  0  0  0  0
   40.6160   29.8070   42.1730 H   0  0  0  0  0  0  0  0  0  0  0  0
   41.0500   33.5720   40.3540 H   0  0  0  0  0  0  0  0  0  0  0  0
   38.1230   29.3760   41.5930 C   0  0  0  0  0  0  0  0  0  0  0  0
   37.9580   29.3340   42.9870 C   0  0  0  0  0  0  0  0  0  0  0  0
   38.3130   30.1240   43.6710 H   0  0  0  0  0  0  0  0  0  0  0  0
   37.3370   28.3140   43.6790 C   0  0  0  0  0  3  0  0  0  0  0  0
   36.8460   27.2610   42.9410 C   0  0  0  0  0  0  0  0  0  0  0  0
   36.3470   26.4190   43.3890 H   0  0  0  0  0  0  0  0  0  0  0  0
   36.9720   27.2350   41.5760 C   0  0  0  0  0  0  0  0  0  0  0  0
   36.6120   26.4510   40.9610 H   0  0  0  0  0  0  0  0  0  0  0  0
   37.6000   28.2850   40.9500 C   0  0  0  0  0  3  0  0  0  0  0  0
   36.9830   31.6480   40.0080 C   0  0  0  0  0  0  0  0  0  0  0  0
   36.6410   32.9080   39.4900 F   0  0  0  0  0  0  0  0  0  0  0  0
   36.2090   31.5330   41.1400 F   0  0  0  0  0  0  0  0  0  0  0  0
   36.7240   30.7440   39.0390 F   0  0  0  0  0  0  0  0  0  0  0  0
  1  7  1  0  0  0  0
  2  9  1  0  0  0  0
  2  1  2  0  0  0  0
  3  2  1  0  0  0  0
  4  3  2  0  0  0  0
  4  5  1  0  0  0  0
  5  6  2  0  0  0  0
  6  1  1  0  0  0  0
  8  5  1  0  0  0  0
  9 10  1  0  0  0  0
 10 11  1  0  0  0  0
 10 12  2  0  0  0  0
 13 14  1  0  0  0  0
 13 12  1  0  0  0  0
 15 13  2  0  0  0  0
 16 15  1  0  0  0  0
 17 15  1  0  0  0  0
 17  9  2  0  0  0  0
 18  3  1  0  0  0  0
 18 20  1  0  0  0  0
 19 18  1  0  0  0  0
 21 18  1  0  0  0  0
M  END
>  <minimizedAffinity>
-4.76029396

$$$$

 OpenBabel03252501183D

 21 22  0  0  0  0  0  0  0  0999 V2000
   35.7970   28.5780   40.6650 C   0  0  0  0  0  0  0  0  0  0  0  0
   36.9680   28.1340   41.3500 C   0  0  0  0  0  0  0  0  0  0  0  0
   37.7970   29.1390   41.8420 C   0  0  0  0  0  0  0  0  0  0  0  0
   37.4400   30.4410   41.6410 N   0  0  0  0  0  0  0  0  0  0  0  0
   36.3210   30.8050   40.9850 C   0  0  0  0  0  0  0  0  0  0  0  0
   35.5080   29.8670   40.5020 N   0  0  0  0  0  0  0  0  0  0  0  0
   35.0580   27.9180   40.2270 H   0  0  0  0  0  0  0  0  0  0  0  0
   36.2560   31.8820   40.9540 H   0  0  0  0  0  0  0  0  0  0  0  0
   37.0450   26.6930   41.3630 C   0  0  0  0  0  0  0  0  0  0  0  0
   37.3160   26.1680   40.0890 C   0  0  0  0  0  0  0  0  0  0  0  0
   37.4380   26.7870   39.1830 H   0  0  0  0  0  0  0  0  0  0  0  0
   37.4630   24.8260   39.8020 C   0  0  0  0  0  3  0  0  0  0  0  0
   37.3340   23.9410   40.8490 C   0  0  0  0  0  0  0  0  0  0  0  0
   37.4320   22.8760   40.7250 H   0  0  0  0  0  0  0  0  0  0  0  0
   37.0700   24.3830   42.1190 C   0  0  0  0  0  0  0  0  0  0  0  0
   36.9620   23.7450   42.9580 H   0  0  0  0  0  0  0  0  0  0  0  0
   36.9360   25.7340   42.3350 C   0  0  0  0  0  3  0  0  0  0  0  0
   38.9840   28.6520   42.5350 C   0  0  0  0  0  0  0  0  0  0  0  0
   39.7750   29.7610   42.8800 F   0  0  0  0  0  0  0  0  0  0  0  0
   39.7440   27.9770   41.6090 F   0  0  0  0  0  0  0  0  0  0  0  0
   38.7360   27.9790   43.6790 F   0  0  0  0  0  0  0  0  0  0  0  0
  1  2  1  0  0  0  0
  2  9  1  0  0  0  0
  2  3  2  0  0  0  0
  3 18  1  0  0  0  0
  4  3  1  0  0  0  0
  5  4  2  0  0  0  0
  6  1  2  0  0  0  0
  6  5  1  0  0  0  0
  7  1  1  0  0  0  0
  8  5  1  0  0  0  0
  9 17  1  0  0  0  0
 10  9  2  0  0  0  0
 11 10  1  0  0  0  0
 12 10  1  0  0  0  0
 12 13  2  0  0  0  0
 13 15  1  0  0  0  0
 14 13  1  0  0  0  0
 15 17  2  0  0  0  0
 15 16  1  0  0  0  0
 18 19  1  0  0  0  0
 18 21  1  0  0  0  0
 20 18  1  0  0  0  0
M  END
>  <minimizedAffinity>
-4.75690651

$$$$

 OpenBabel03252501183D

 21 22  0  0  0  0  0  0  0  0999 V2000
   37.4510   28.2300   38.8350 C   0  0  0  0  0  0  0  0  0  0  0  0
   37.3780   29.2570   39.8230 C   0  0  0  0  0  0  0  0  0  0  0  0
   37.0760   30.5320   39.3480 C   0  0  0  0  0  0  0  0  0  0  0  0
   36.8760   30.7020   38.0090 N   0  0  0  0  0  0  0  0  0  0  0  0
   36.9570   29.6950   37.1180 C   0  0  0  0  0  0  0  0  0  0  0  0
   37.2450   28.4650   37.5410 N   0  0  0  0  0  0  0  0  0  0  0  0
   37.6760   27.1920   39.0480 H   0  0  0  0  0  0  0  0  0  0  0  0
   36.7610   30.0740   36.1270 H   0  0  0  0  0  0  0  0  0  0  0  0
   37.6630   28.7330   41.1370 C   0  0  0  0  0  0  0  0  0  0  0  0
   36.5350   28.1410   41.7250 C   0  0  0  0  0  0  0  0  0  0  0  0
   35.5420   28.0970   41.2430 H   0  0  0  0  0  0  0  0  0  0  0  0
   36.5130   27.5410   42.9690 C   0  0  0  0  0  3  0  0  0  0  0  0
   37.6920   27.5270   43.6800 C   0  0  0  0  0  0  0  0  0  0  0  0
   37.7760   27.0830   44.6570 H   0  0  0  0  0  0  0  0  0  0  0  0
   38.8340   28.0870   43.1670 C   0  0  0  0  0  0  0  0  0  0  0  0
   39.7650   28.1030   43.6720 H   0  0  0  0  0  0  0  0  0  0  0  0
   38.7840   28.6670   41.9220 C   0  0  0  0  0  3  0  0  0  0  0  0
   37.0100   31.5570   40.3820 C   0  0  0  0  0  0  0  0  0  0  0  0
   36.7500   32.7900   39.7600 F   0  0  0  0  0  0  0  0  0  0  0  0
   38.2800   31.7030   40.8900 F   0  0  0  0  0  0  0  0  0  0  0  0
   36.0390   31.3720   41.3030 F   0  0  0  0  0  0  0  0  0  0  0  0
  1  7  1  0  0  0  0
  1  2  1  0  0  0  0
  2  9  1  0  0  0  0
  3  2  2  0  0  0  0
  3 18  1  0  0  0  0
  4  3  1  0  0  0  0
  5  6  1  0  0  0  0
  5  4  2  0  0  0  0
  6  1  2  0  0  0  0
  8  5  1  0  0  0  0
  9 10  2  0  0  0  0
  9 17  1  0  0  0  0
 10 12  1  0  0  0  0
 11 10  1  0  0  0  0
 12 13  2  0  0  0  0
 13 14  1  0  0  0  0
 15 16  1  0  0  0  0
 15 13  1  0  0  0  0
 17 15  2  0  0  0  0
 18 20  1  0  0  0  0
 18 21  1  0  0  0  0
 19 18  1  0  0  0  0
M  END
>  <minimizedAffinity>
-4.66049433

$$$$

 OpenBabel03252501183D

 21 22  0  0  0  0  0  0  0  0999 V2000
   36.1720   27.4850   39.3560 C   0  0  0  0  0  0  0  0  0  0  0  0
   36.7040   27.1600   40.6400 C   0  0  0  0  0  0  0  0  0  0  0  0
   36.6350   28.1720   41.5950 C   0  0  0  0  0  0  0  0  0  0  0  0
   36.0760   29.3670   41.2460 N   0  0  0  0  0  0  0  0  0  0  0  0
   35.5880   29.6200   40.0160 C   0  0  0  0  0  0  0  0  0  0  0  0
   35.6410   28.6740   39.0800 N   0  0  0  0  0  0  0  0  0  0  0  0
   36.1560   26.8060   38.5120 H   0  0  0  0  0  0  0  0  0  0  0  0
   35.2010   30.6270   39.9830 H   0  0  0  0  0  0  0  0  0  0  0  0
   37.2340   25.8180   40.6570 C   0  0  0  0  0  0  0  0  0  0  0  0
   38.4390   25.7180   39.9450 C   0  0  0  0  0  0  0  0  0  0  0  0
   38.9150   26.5640   39.4200 H   0  0  0  0  0  0  0  0  0  0  0  0
   39.1820   24.5620   39.8060 C   0  0  0  0  0  3  0  0  0  0  0  0
   38.6970   23.4260   40.4150 C   0  0  0  0  0  0  0  0  0  0  0  0
   39.2040   22.4780   40.3650 H   0  0  0  0  0  0  0  0  0  0  0  0
   37.5260   23.4510   41.1280 C   0  0  0  0  0  0  0  0  0  0  0  0
   37.1100   22.6070   41.6150 H   0  0  0  0  0  0  0  0  0  0  0  0
   36.8380   24.6360   41.2260 C   0  0  0  0  0  3  0  0  0  0  0  0
   37.1870   27.8090   42.8950 C   0  0  0  0  0  0  0  0  0  0  0  0
   36.2750   26.9510   43.5340 F   0  0  0  0  0  0  0  0  0  0  0  0
   37.1760   28.9440   43.6710 F   0  0  0  0  0  0  0  0  0  0  0  0
   38.3680   27.1550   42.8460 F   0  0  0  0  0  0  0  0  0  0  0  0
  1  2  1  0  0  0  0
  2  9  1  0  0  0  0
  2  3  2  0  0  0  0
  3 18  1  0  0  0  0
  4  3  1  0  0  0  0
  5  4  2  0  0  0  0
  6  1  2  0  0  0  0
  6  5  1  0  0  0  0
  7  1  1  0  0  0  0
  8  5  1  0  0  0  0
  9 17  1  0  0  0  0
 10  9  2  0  0  0  0
 11 10  1  0  0  0  0
 12 10  1  0  0  0  0
 12 13  2  0  0  0  0
 13 15  1  0  0  0  0
 14 13  1  0  0  0  0
 15 17  2  0  0  0  0
 15 16  1  0  0  0  0
 18 19  1  0  0  0  0
 18 20  1  0  0  0  0
 21 18  1  0  0  0  0
M  END
>  <minimizedAffinity>
-4.58996964

$$$$

 OpenBabel03252501183D

 21 22  0  0  0  0  0  0  0  0999 V2000
   37.6010   25.1630   41.6650 C   0  0  0  0  0  0  0  0  0  0  0  0
   37.9370   26.5430   41.8070 C   0  0  0  0  0  0  0  0  0  0  0  0
   39.0540   26.8140   42.5950 C   0  0  0  0  0  0  0  0  0  0  0  0
   39.7290   25.7700   43.1560 N   0  0  0  0  0  0  0  0  0  0  0  0
   39.3670   24.4820   42.9890 C   0  0  0  0  0  0  0  0  0  0  0  0
   38.3030   24.1910   42.2420 N   0  0  0  0  0  0  0  0  0  0  0  0
   36.7620   24.7960   41.0870 H   0  0  0  0  0  0  0  0  0  0  0  0
   40.0500   23.8440   43.5270 H   0  0  0  0  0  0  0  0  0  0  0  0
   37.0010   27.3810   41.0970 C   0  0  0  0  0  0  0  0  0  0  0  0
   36.9840   27.1040   39.7210 C   0  0  0  0  0  0  0  0  0  0  0  0
   37.6260   26.3450   39.2390 H   0  0  0  0  0  0  0  0  0  0  0  0
   36.1750   27.7350   38.7960 C   0  0  0  0  0  3  0  0  0  0  0  0
   35.3230   28.7070   39.2680 C   0  0  0  0  0  0  0  0  0  0  0  0
   34.6540   29.2540   38.6260 H   0  0  0  0  0  0  0  0  0  0  0  0
   35.2850   29.0290   40.6000 C   0  0  0  0  0  0  0  0  0  0  0  0
   34.6480   29.7680   41.0140 H   0  0  0  0  0  0  0  0  0  0  0  0
   36.1180   28.3610   41.4650 C   0  0  0  0  0  3  0  0  0  0  0  0
   39.3700   28.2320   42.7200 C   0  0  0  0  0  0  0  0  0  0  0  0
   40.6190   28.3470   43.3530 F   0  0  0  0  0  0  0  0  0  0  0  0
   38.4860   28.7640   43.6300 F   0  0  0  0  0  0  0  0  0  0  0  0
   39.4620   28.8980   41.5490 F   0  0  0  0  0  0  0  0  0  0  0  0
  1  2  2  0  0  0  0
  1  6  1  0  0  0  0
  2  3  1  0  0  0  0
  3 18  1  0  0  0  0
  3  4  2  0  0  0  0
  5  4  1  0  0  0  0
  5  8  1  0  0  0  0
  6  5  2  0  0  0  0
  7  1  1  0  0  0  0
  9 17  1  0  0  0  0
  9  2  1  0  0  0  0
 10  9  2  0  0  0  0
 11 10  1  0  0  0  0
 12 13  2  0  0  0  0
 12 10  1  0  0  0  0
 13 15  1  0  0  0  0
 14 13  1  0  0  0  0
 15 16  1  0  0  0  0
 15 17  2  0  0  0  0
 18 19  1  0  0  0  0
 18 20  1  0  0  0  0
 21 18  1  0  0  0  0
M  END
>  <minimizedAffinity>
-4.57777214

$$$$

 OpenBabel03252501183D

 21 22  0  0  0  0  0  0  0  0999 V2000
   36.3340   27.1270   39.4090 C   0  0  0  0  0  0  0  0  0  0  0  0
   36.8730   26.3950   40.5110 C   0  0  0  0  0  0  0  0  0  0  0  0
   36.8950   25.0100   40.3620 C   0  0  0  0  0  0  0  0  0  0  0  0
   36.4160   24.4670   39.2050 N   0  0  0  0  0  0  0  0  0  0  0  0
   35.9170   25.2070   38.1950 C   0  0  0  0  0  0  0  0  0  0  0  0
   35.8810   26.5340   38.3080 N   0  0  0  0  0  0  0  0  0  0  0  0
   36.2500   28.2060   39.3770 H   0  0  0  0  0  0  0  0  0  0  0  0
   35.6030   24.5560   37.3940 H   0  0  0  0  0  0  0  0  0  0  0  0
   37.2690   27.2820   41.5780 C   0  0  0  0  0  0  0  0  0  0  0  0
   38.4350   27.9980   41.2650 C   0  0  0  0  0  0  0  0  0  0  0  0
   38.9910   27.8810   40.3180 H   0  0  0  0  0  0  0  0  0  0  0  0
   39.0350   28.9310   42.0860 C   0  0  0  0  0  3  0  0  0  0  0  0
   38.4390   29.1720   43.3040 C   0  0  0  0  0  0  0  0  0  0  0  0
   38.8320   29.8810   44.0130 H   0  0  0  0  0  0  0  0  0  0  0  0
   37.2990   28.5090   43.6760 C   0  0  0  0  0  0  0  0  0  0  0  0
   36.8010   28.6580   44.6000 H   0  0  0  0  0  0  0  0  0  0  0  0
   36.7530   27.5940   42.8090 C   0  0  0  0  0  3  0  0  0  0  0  0
   37.4500   24.2930   41.5040 C   0  0  0  0  0  0  0  0  0  0  0  0
   37.4830   22.9250   41.1860 F   0  0  0  0  0  0  0  0  0  0  0  0
   36.5270   24.3760   42.5200 F   0  0  0  0  0  0  0  0  0  0  0  0
   38.7100   24.6470   41.8380 F   0  0  0  0  0  0  0  0  0  0  0  0
  1  2  1  0  0  0  0
  2  9  1  0  0  0  0
  3  2  2  0  0  0  0
  3 18  1  0  0  0  0
  4  3  1  0  0  0  0
  5  6  1  0  0  0  0
  5  4  2  0  0  0  0
  6  1  2  0  0  0  0
  7  1  1  0  0  0  0
  8  5  1  0  0  0  0
  9 17  1  0  0  0  0
 10  9  2  0  0  0  0
 10 12  1  0  0  0  0
 11 10  1  0  0  0  0
 12 13  2  0  0  0  0
 13 15  1  0  0  0  0
 13 14  1  0  0  0  0
 15 16  1  0  0  0  0
 17 15  2  0  0  0  0
 18 21  1  0  0  0  0
 18 20  1  0  0  0  0
 19 18  1  0  0  0  0
M  END
>  <minimizedAffinity>
-4.54151535

$$$$

 OpenBabel03252501183D

 21 22  0  0  0  0  0  0  0  0999 V2000
   40.0310   29.3790   39.7360 C   0  0  0  0  0  0  0  0  0  0  0  0
   38.7820   29.9610   40.1090 C   0  0  0  0  0  0  0  0  0  0  0  0
   38.3690   31.0450   39.3380 C   0  0  0  0  0  0  0  0  0  0  0  0
   39.1630   31.4600   38.3090 N   0  0  0  0  0  0  0  0  0  0  0  0
   40.3360   30.8720   38.0010 C   0  0  0  0  0  0  0  0  0  0  0  0
   40.7590   29.8340   38.7200 N   0  0  0  0  0  0  0  0  0  0  0  0
   40.4840   28.5330   40.2390 H   0  0  0  0  0  0  0  0  0  0  0  0
   40.7790   31.3740   37.1550 H   0  0  0  0  0  0  0  0  0  0  0  0
   38.2170   29.2880   41.2530 C   0  0  0  0  0  0  0  0  0  0  0  0
   37.5450   28.1100   40.8930 C   0  0  0  0  0  0  0  0  0  0  0  0
   37.4470   27.7510   39.8540 H   0  0  0  0  0  0  0  0  0  0  0  0
   36.9230   27.2520   41.7790 C   0  0  0  0  0  3  0  0  0  0  0  0
   36.9710   27.5840   43.1140 C   0  0  0  0  0  0  0  0  0  0  0  0
   36.5160   26.9790   43.8800 H   0  0  0  0  0  0  0  0  0  0  0  0
   37.6100   28.7200   43.5380 C   0  0  0  0  0  0  0  0  0  0  0  0
   37.6760   29.0210   44.5510 H   0  0  0  0  0  0  0  0  0  0  0  0
   38.2090   29.5300   42.6020 C   0  0  0  0  0  3  0  0  0  0  0  0
   37.0910   31.6180   39.7450 C   0  0  0  0  0  0  0  0  0  0  0  0
   36.7810   32.6670   38.8630 F   0  0  0  0  0  0  0  0  0  0  0  0
   37.2950   32.2460   40.9510 F   0  0  0  0  0  0  0  0  0  0  0  0
   36.0490   30.7590   39.7100 F   0  0  0  0  0  0  0  0  0  0  0  0
  1  2  1  0  0  0  0
  1  7  1  0  0  0  0
  2  9  1  0  0  0  0
  3 18  1  0  0  0  0
  3  2  2  0  0  0  0
  4  3  1  0  0  0  0
  5  4  2  0  0  0  0
  5  6  1  0  0  0  0
  6  1  2  0  0  0  0
  8  5  1  0  0  0  0
  9 17  1  0  0  0  0
 10  9  2  0  0  0  0
 10 12  1  0  0  0  0
 11 10  1  0  0  0  0
 12 13  2  0  0  0  0
 13 15  1  0  0  0  0
 13 14  1  0  0  0  0
 15 16  1  0  0  0  0
 17 15  2  0  0  0  0
 18 20  1  0  0  0  0
 19 18  1  0  0  0  0
 21 18  1  0  0  0  0
M  END
>  <minimizedAffinity>
-4.39628077

$$$$

 OpenBabel03252501183D

 21 22  0  0  0  0  0  0  0  0999 V2000
   36.9780   27.9160   41.5920 C   0  0  0  0  0  0  0  0  0  0  0  0
   37.0170   29.1380   40.8560 C   0  0  0  0  0  0  0  0  0  0  0  0
   37.7960   30.1520   41.4110 C   0  0  0  0  0  0  0  0  0  0  0  0
   38.4490   29.9090   42.5840 N   0  0  0  0  0  0  0  0  0  0  0  0
   38.3760   28.7330   43.2380 C   0  0  0  0  0  0  0  0  0  0  0  0
   37.6390   27.7450   42.7330 N   0  0  0  0  0  0  0  0  0  0  0  0
   36.4170   27.0390   41.2890 H   0  0  0  0  0  0  0  0  0  0  0  0
   38.9740   28.7830   44.1350 H   0  0  0  0  0  0  0  0  0  0  0  0
   36.1970   29.0570   39.6710 C   0  0  0  0  0  0  0  0  0  0  0  0
   34.8300   29.1730   39.9680 C   0  0  0  0  0  0  0  0  0  0  0  0
   34.4310   29.2950   40.9910 H   0  0  0  0  0  0  0  0  0  0  0  0
   33.8130   29.1500   39.0340 C   0  0  0  0  0  3  0  0  0  0  0  0
   34.1750   29.0020   37.7140 C   0  0  0  0  0  0  0  0  0  0  0  0
   33.4560   28.9730   36.9140 H   0  0  0  0  0  0  0  0  0  0  0  0
   35.4920   28.8840   37.3520 C   0  0  0  0  0  0  0  0  0  0  0  0
   35.8240   28.7690   36.3520 H   0  0  0  0  0  0  0  0  0  0  0  0
   36.4530   28.9160   38.3330 C   0  0  0  0  0  3  0  0  0  0  0  0
   37.8140   31.3870   40.6360 C   0  0  0  0  0  0  0  0  0  0  0  0
   38.6080   32.3210   41.3220 F   0  0  0  0  0  0  0  0  0  0  0  0
   36.5470   31.9190   40.6940 F   0  0  0  0  0  0  0  0  0  0  0  0
   38.3340   31.2690   39.3950 F   0  0  0  0  0  0  0  0  0  0  0  0
  1  6  1  0  0  0  0
  2  3  1  0  0  0  0
  2  1  2  0  0  0  0
  3  4  2  0  0  0  0
  4  5  1  0  0  0  0
  5  8  1  0  0  0  0
  6  5  2  0  0  0  0
  7  1  1  0  0  0  0
  9 10  1  0  0  0  0
  9  2  1  0  0  0  0
 10 11  1  0  0  0  0
 12 10  2  0  0  0  0
 13 12  1  0  0  0  0
 14 13  1  0  0  0  0
 15 13  2  0  0  0  0
 15 17  1  0  0  0  0
 16 15  1  0  0  0  0
 17  9  2  0  0  0  0
 18 20  1  0  0  0  0
 18 19  1  0  0  0  0
 18  3  1  0  0  0  0
 21 18  1  0  0  0  0
M  END
>  <minimizedAffinity>
-4.37759686

$$$$

 OpenBabel03252501183D

 21 22  0  0  0  0  0  0  0  0999 V2000
   39.5860   27.8820   40.2300 C   0  0  0  0  0  0  0  0  0  0  0  0
   38.4230   28.3090   40.9390 C   0  0  0  0  0  0  0  0  0  0  0  0
   37.9090   27.3980   41.8590 C   0  0  0  0  0  0  0  0  0  0  0  0
   38.5380   26.1970   42.0140 N   0  0  0  0  0  0  0  0  0  0  0  0
   39.6350   25.8450   41.3160 C   0  0  0  0  0  0  0  0  0  0  0  0
   40.1500   26.6940   40.4280 N   0  0  0  0  0  0  0  0  0  0  0  0
   40.0980   28.4770   39.4830 H   0  0  0  0  0  0  0  0  0  0  0  0
   39.9470   24.8550   41.6120 H   0  0  0  0  0  0  0  0  0  0  0  0
   38.0120   29.6260   40.5160 C   0  0  0  0  0  0  0  0  0  0  0  0
   37.3880   29.6040   39.2580 C   0  0  0  0  0  0  0  0  0  0  0  0
   37.2450   28.6880   38.6590 H   0  0  0  0  0  0  0  0  0  0  0  0
   36.8760   30.7110   38.6100 C   0  0  0  0  0  3  0  0  0  0  0  0
   36.9890   31.9230   39.2520 C   0  0  0  0  0  0  0  0  0  0  0  0
   36.6210   32.8420   38.8280 H   0  0  0  0  0  0  0  0  0  0  0  0
   37.5870   32.0190   40.4820 C   0  0  0  0  0  0  0  0  0  0  0  0
   37.6990   32.9260   41.0180 H   0  0  0  0  0  0  0  0  0  0  0  0
   38.0740   30.8770   41.0700 C   0  0  0  0  0  3  0  0  0  0  0  0
   36.7220   27.8640   42.5660 C   0  0  0  0  0  0  0  0  0  0  0  0
   37.1080   28.8970   43.4360 F   0  0  0  0  0  0  0  0  0  0  0  0
   36.3280   26.8500   43.4070 F   0  0  0  0  0  0  0  0  0  0  0  0
   35.7500   28.3650   41.7720 F   0  0  0  0  0  0  0  0  0  0  0  0
  1  6  2  0  0  0  0
  1  2  1  0  0  0  0
  2  3  2  0  0  0  0
  3  4  1  0  0  0  0
  3 18  1  0  0  0  0
  5  8  1  0  0  0  0
  5  4  2  0  0  0  0
  6  5  1  0  0  0  0
  7  1  1  0  0  0  0
  9  2  1  0  0  0  0
  9 17  1  0  0  0  0
 10  9  2  0  0  0  0
 11 10  1  0  0  0  0
 12 13  2  0  0  0  0
 12 10  1  0  0  0  0
 13 15  1  0  0  0  0
 14 13  1  0  0  0  0
 15 16  1  0  0  0  0
 15 17  2  0  0  0  0
 18 20  1  0  0  0  0
 18 19  1  0  0  0  0
 21 18  1  0  0  0  0
M  END
>  <minimizedAffinity>
-4.37535

$$$$
