
 OpenBabel03242523593D

 21 22  0  0  0  0  0  0  0  0999 V2000
   44.4370   36.0340   44.8350 C   0  0  0  0  0  0  0  0  0  0  0  0
   45.0820   35.9770   43.5740 C   0  0  0  0  0  0  0  0  0  0  0  0
   45.9430   34.9140   43.3470 C   0  0  0  0  0  0  0  0  0  0  0  0
   46.1260   33.9970   44.3190 N   0  0  0  0  0  0  0  0  0  0  0  0
   45.4920   34.0820   45.5160 C   0  0  0  0  0  0  0  0  0  0  0  0
   44.6560   35.1000   45.7570 N   0  0  0  0  0  0  0  0  0  0  0  0
   43.7570   36.8460   45.0540 H   0  0  0  0  0  0  0  0  0  0  0  0
   44.9200   36.7150   42.8220 H   0  0  0  0  0  0  0  0  0  0  0  0
   46.6710   34.7340   42.0960 C   0  0  0  0  0  0  0  0  0  0  0  0
   47.8950   35.3580   41.9710 C   0  0  0  0  0  0  0  0  0  0  0  0
   48.3360   35.9780   42.7650 H   0  0  0  0  0  0  0  0  0  0  0  0
   48.6730   35.2510   40.8180 C   0  0  0  0  0  0  0  0  0  0  0  0
   48.1720   34.4810   39.7730 C   0  0  0  0  0  0  0  0  0  0  0  0
   48.7990   34.4150   38.8880 H   0  0  0  0  0  0  0  0  0  0  0  0
   46.9610   33.8570   39.8850 C   0  0  0  0  0  0  0  0  0  0  0  0
   46.6230   33.2700   39.0350 H   0  0  0  0  0  0  0  0  0  0  0  0
   46.2060   33.9790   41.0420 C   0  0  0  0  0  0  0  0  0  0  0  0
   45.8270   32.9770   46.4540 C   0  0  0  0  0  0  0  0  0  0  0  0
   45.0150   32.9640   47.5470 F   0  0  0  0  0  0  0  0  0  0  0  0
   47.1610   33.1010   46.8720 F   0  0  0  0  0  0  0  0  0  0  0  0
   45.7920   31.7640   45.7810 F   0  0  0  0  0  0  0  0  0  0  0  0
  1  7  1  0  0  0  0
  1  6  1  0  0  0  0
  2  1  2  0  0  0  0
  3  2  1  0  0  0  0
  3  4  2  0  0  0  0
  4  5  1  0  0  0  0
  5  6  2  0  0  0  0
  5 18  1  0  0  0  0
  8  2  1  0  0  0  0
  9  3  1  0  0  0  0
 10  9  1  0  0  0  0
 10 11  1  0  0  0  0
 12 10  2  0  0  0  0
 13 15  2  0  0  0  0
 13 12  1  0  0  0  0
 14 13  1  0  0  0  0
 15 17  1  0  0  0  0
 16 15  1  0  0  0  0
 17  9  2  0  0  0  0
 18 20  1  0  0  0  0
 18 19  1  0  0  0  0
 21 18  1  0  0  0  0
M  END
>  <minimizedAffinity>
-5.9633646

>  <minimizedRMSD>
0.784837306

$$$$
