
 OpenBabel03252509123D

 31 34  0  0  0  0  0  0  0  0999 V2000
   39.3830   30.2660   41.8810 C   0  0  0  0  0  0  0  0  0  0  0  0
   38.3230   29.7300   41.1950 C   0  0  0  0  0  0  0  0  0  0  0  0
   37.4920   30.5080   40.4090 C   0  0  0  0  0  0  0  0  0  0  0  0
   37.7050   31.8750   40.2870 C   0  0  0  0  0  0  0  0  0  0  0  0
   37.1170   32.9110   39.6310 N   0  0  0  0  0  0  0  0  0  0  0  0
   37.8060   34.0450   39.9150 C   0  0  0  0  0  0  0  0  0  0  0  0
   38.8120   33.7020   40.7430 N   0  0  0  0  0  0  0  0  0  0  0  0
   38.7780   32.3770   40.9910 C   0  0  0  0  0  0  0  0  0  0  0  0
   39.6240   31.6400   41.7800 C   0  0  0  0  0  0  0  0  0  0  0  0
   40.0180   29.6250   42.4910 H   0  0  0  0  0  0  0  0  0  0  0  0
   36.2710   32.7010   39.0390 H   0  0  0  0  0  0  0  0  0  0  0  0
   37.5100   35.0020   39.4950 H   0  0  0  0  0  0  0  0  0  0  0  0
   40.4570   32.0650   42.3190 H   0  0  0  0  0  0  0  0  0  0  0  0
   38.1660   26.1460   40.3830 C   0  0  0  0  0  0  0  0  0  0  0  0
   37.4880   25.6110   41.4790 C   0  0  0  0  0  0  0  0  0  0  0  0
   37.0900   26.4930   42.4920 C   0  0  0  0  0  0  0  0  0  0  0  0
   37.3880   27.8220   42.3510 N   0  0  0  0  0  0  0  0  0  0  0  0
   38.0440   28.3070   41.2780 C   0  0  0  0  0  0  0  0  0  0  0  0
   38.4380   27.4750   40.2890 N   0  0  0  0  0  0  0  0  0  0  0  0
   38.5060   25.5110   39.5550 H   0  0  0  0  0  0  0  0  0  0  0  0
   37.2950   24.5510   41.5090 H   0  0  0  0  0  0  0  0  0  0  0  0
   36.5630   26.1080   43.3540 H   0  0  0  0  0  0  0  0  0  0  0  0
   36.3640   29.9280   39.6810 C   0  0  0  0  0  0  0  0  0  0  0  0
   36.4780   29.6820   38.3210 C   0  0  0  0  0  0  0  0  0  0  0  0
   37.4100   29.9280   37.8220 H   0  0  0  0  0  0  0  0  0  0  0  0
   35.4890   29.1480   37.5590 C   0  0  0  0  0  3  0  0  0  0  0  0
   34.2960   28.8360   38.2110 C   0  0  0  0  0  0  0  0  0  0  0  0
   33.4620   28.4110   37.6900 H   0  0  0  0  0  0  0  0  0  0  0  0
   34.1380   29.0680   39.5820 C   0  0  0  0  0  0  0  0  0  0  0  0
   33.2280   28.8390   40.1190 H   0  0  0  0  0  0  0  0  0  0  0  0
   35.1670   29.6120   40.3150 C   0  0  0  0  0  3  0  0  0  0  0  0
  1 10  1  0  0  0  0
  2 18  1  0  0  0  0
  2  1  2  0  0  0  0
  3  2  1  0  0  0  0
  4  3  2  0  0  0  0
  4  8  1  0  0  0  0
  5  6  1  0  0  0  0
  5  4  1  0  0  0  0
  6  7  2  0  0  0  0
  7  8  1  0  0  0  0
  8  9  2  0  0  0  0
  9  1  1  0  0  0  0
  9 13  1  0  0  0  0
 11  5  1  0  0  0  0
 12  6  1  0  0  0  0
 14 15  1  0  0  0  0
 15 21  1  0  0  0  0
 15 16  2  0  0  0  0
 16 22  1  0  0  0  0
 17 16  1  0  0  0  0
 18 17  2  0  0  0  0
 19 14  2  0  0  0  0
 19 18  1  0  0  0  0
 20 14  1  0  0  0  0
 23 31  1  0  0  0  0
 23  3  1  0  0  0  0
 24 23  2  0  0  0  0
 25 24  1  0  0  0  0
 26 27  2  0  0  0  0
 26 24  1  0  0  0  0
 27 29  1  0  0  0  0
 28 27  1  0  0  0  0
 29 30  1  0  0  0  0
 29 31  2  0  0  0  0
M  END
>  <minimizedAffinity>
-5.84694529

$$$$

 OpenBabel03252509123D

 31 34  0  0  0  0  0  0  0  0999 V2000
   35.7780   27.5250   38.0480 C   0  0  0  0  0  0  0  0  0  0  0  0
   36.4290   27.7440   39.2350 C   0  0  0  0  0  0  0  0  0  0  0  0
   36.7810   26.7050   40.0780 C   0  0  0  0  0  0  0  0  0  0  0  0
   36.4840   25.3900   39.7480 C   0  0  0  0  0  0  0  0  0  0  0  0
   36.6690   24.1650   40.3090 N   0  0  0  0  0  0  0  0  0  0  0  0
   36.1410   23.2290   39.4790 C   0  0  0  0  0  0  0  0  0  0  0  0
   35.6360   23.8820   38.4150 N   0  0  0  0  0  0  0  0  0  0  0  0
   35.8300   25.2100   38.5490 C   0  0  0  0  0  0  0  0  0  0  0  0
   35.4640   26.2110   37.6860 C   0  0  0  0  0  0  0  0  0  0  0  0
   35.5160   28.3660   37.4080 H   0  0  0  0  0  0  0  0  0  0  0  0
   37.1590   24.1200   41.2400 H   0  0  0  0  0  0  0  0  0  0  0  0
   36.1770   22.1730   39.7290 H   0  0  0  0  0  0  0  0  0  0  0  0
   34.9510   26.0360   36.7520 H   0  0  0  0  0  0  0  0  0  0  0  0
   36.2680   31.0690   40.8000 C   0  0  0  0  0  0  0  0  0  0  0  0
   37.4610   31.6620   40.3870 C   0  0  0  0  0  0  0  0  0  0  0  0
   38.3140   30.9090   39.5710 C   0  0  0  0  0  0  0  0  0  0  0  0
   37.9320   29.6400   39.2270 N   0  0  0  0  0  0  0  0  0  0  0  0
   36.7710   29.0960   39.6420 C   0  0  0  0  0  0  0  0  0  0  0  0
   35.9320   29.8040   40.4310 N   0  0  0  0  0  0  0  0  0  0  0  0
   35.5540   31.6030   41.4410 H   0  0  0  0  0  0  0  0  0  0  0  0
   37.6840   32.6670   40.7060 H   0  0  0  0  0  0  0  0  0  0  0  0
   39.2460   31.3410   39.2360 H   0  0  0  0  0  0  0  0  0  0  0  0
   37.4760   26.9480   41.3430 C   0  0  0  0  0  0  0  0  0  0  0  0
   38.8610   26.9060   41.3850 C   0  0  0  0  0  0  0  0  0  0  0  0
   39.4050   26.6910   40.4710 H   0  0  0  0  0  0  0  0  0  0  0  0
   39.5940   27.1160   42.5090 C   0  0  0  0  0  3  0  0  0  0  0  0
   38.8850   27.3910   43.6770 C   0  0  0  0  0  0  0  0  0  0  0  0
   39.3790   27.5710   44.6100 H   0  0  0  0  0  0  0  0  0  0  0  0
   37.4860   27.4440   43.6800 C   0  0  0  0  0  0  0  0  0  0  0  0
   36.9050   27.6530   44.5660 H   0  0  0  0  0  0  0  0  0  0  0  0
   36.7840   27.2230   42.5180 C   0  0  0  0  0  3  0  0  0  0  0  0
  1  2  1  0  0  0  0
  2 18  1  0  0  0  0
  2  3  2  0  0  0  0
  3 23  1  0  0  0  0
  4  3  1  0  0  0  0
  4  5  1  0  0  0  0
  5 11  1  0  0  0  0
  6 12  1  0  0  0  0
  6  5  1  0  0  0  0
  7  8  1  0  0  0  0
  7  6  2  0  0  0  0
  8  4  2  0  0  0  0
  9  1  2  0  0  0  0
  9  8  1  0  0  0  0
 10  1  1  0  0  0  0
 13  9  1  0  0  0  0
 14 20  1  0  0  0  0
 15 21  1  0  0  0  0
 15 14  2  0  0  0  0
 16 15  1  0  0  0  0
 17 16  2  0  0  0  0
 17 18  1  0  0  0  0
 18 19  2  0  0  0  0
 19 14  1  0  0  0  0
 22 16  1  0  0  0  0
 23 24  2  0  0  0  0
 23 31  1  0  0  0  0
 24 26  1  0  0  0  0
 25 24  1  0  0  0  0
 26 27  2  0  0  0  0
 27 29  1  0  0  0  0
 27 28  1  0  0  0  0
 29 30  1  0  0  0  0
 31 29  2  0  0  0  0
M  END
>  <minimizedAffinity>
-5.2231636

$$$$

 OpenBabel03252509123D

 31 34  0  0  0  0  0  0  0  0999 V2000
   35.7090   27.4170   38.1110 C   0  0  0  0  0  0  0  0  0  0  0  0
   36.4150   27.6620   39.2610 C   0  0  0  0  0  0  0  0  0  0  0  0
   36.8460   26.6390   40.0860 C   0  0  0  0  0  0  0  0  0  0  0  0
   36.5750   25.3130   39.7750 C   0  0  0  0  0  0  0  0  0  0  0  0
   36.8300   24.0970   40.3290 N   0  0  0  0  0  0  0  0  0  0  0  0
   36.2900   23.1410   39.5310 C   0  0  0  0  0  0  0  0  0  0  0  0
   35.7060   23.7720   38.4940 N   0  0  0  0  0  0  0  0  0  0  0  0
   35.8630   25.1070   38.6140 C   0  0  0  0  0  0  0  0  0  0  0  0
   35.4190   26.0920   37.7700 C   0  0  0  0  0  0  0  0  0  0  0  0
   35.3850   28.2460   37.4840 H   0  0  0  0  0  0  0  0  0  0  0  0
   37.3710   24.0720   41.2320 H   0  0  0  0  0  0  0  0  0  0  0  0
   36.3740   22.0880   39.7810 H   0  0  0  0  0  0  0  0  0  0  0  0
   34.8620   25.8960   36.8660 H   0  0  0  0  0  0  0  0  0  0  0  0
   36.2020   31.0040   40.7820 C   0  0  0  0  0  0  0  0  0  0  0  0
   37.3790   31.6150   40.3490 C   0  0  0  0  0  0  0  0  0  0  0  0
   38.2390   30.8680   39.5340 C   0  0  0  0  0  0  0  0  0  0  0  0
   37.8790   29.5870   39.2120 N   0  0  0  0  0  0  0  0  0  0  0  0
   36.7340   29.0260   39.6460 C   0  0  0  0  0  0  0  0  0  0  0  0
   35.8880   29.7280   40.4330 N   0  0  0  0  0  0  0  0  0  0  0  0
   35.4840   31.5330   41.4220 H   0  0  0  0  0  0  0  0  0  0  0  0
   37.5840   32.6290   40.6510 H   0  0  0  0  0  0  0  0  0  0  0  0
   39.1590   31.3150   39.1840 H   0  0  0  0  0  0  0  0  0  0  0  0
   37.5990   26.9090   41.3110 C   0  0  0  0  0  0  0  0  0  0  0  0
   36.9210   27.1590   42.4940 C   0  0  0  0  0  0  0  0  0  0  0  0
   35.8350   27.1510   42.4850 H   0  0  0  0  0  0  0  0  0  0  0  0
   37.5290   27.4200   43.6800 C   0  0  0  0  0  3  0  0  0  0  0  0
   38.9230   27.4290   43.6790 C   0  0  0  0  0  0  0  0  0  0  0  0
   39.4880   27.6240   44.5680 H   0  0  0  0  0  0  0  0  0  0  0  0
   39.6490   27.1800   42.5080 C   0  0  0  0  0  0  0  0  0  0  0  0
   40.7290   27.1800   42.4710 H   0  0  0  0  0  0  0  0  0  0  0  0
   38.9900   26.9220   41.3280 C   0  0  0  0  0  3  0  0  0  0  0  0
  1  2  1  0  0  0  0
  2 18  1  0  0  0  0
  2  3  2  0  0  0  0
  3 23  1  0  0  0  0
  4  3  1  0  0  0  0
  4  5  1  0  0  0  0
  5 11  1  0  0  0  0
  6 12  1  0  0  0  0
  6  5  1  0  0  0  0
  7  8  1  0  0  0  0
  7  6  2  0  0  0  0
  8  4  2  0  0  0  0
  9  1  2  0  0  0  0
  9  8  1  0  0  0  0
 10  1  1  0  0  0  0
 13  9  1  0  0  0  0
 14 20  1  0  0  0  0
 15 21  1  0  0  0  0
 15 14  2  0  0  0  0
 16 15  1  0  0  0  0
 17 16  2  0  0  0  0
 17 18  1  0  0  0  0
 18 19  2  0  0  0  0
 19 14  1  0  0  0  0
 22 16  1  0  0  0  0
 23 31  2  0  0  0  0
 23 24  1  0  0  0  0
 24 26  2  0  0  0  0
 25 24  1  0  0  0  0
 27 26  1  0  0  0  0
 27 28  1  0  0  0  0
 29 27  2  0  0  0  0
 30 29  1  0  0  0  0
 31 29  1  0  0  0  0
M  END
>  <minimizedAffinity>
-5.21238041

$$$$

 OpenBabel03252509123D

 31 34  0  0  0  0  0  0  0  0999 V2000
   37.1960   29.0220   37.4870 C   0  0  0  0  0  0  0  0  0  0  0  0
   37.3610   28.4560   38.7260 C   0  0  0  0  0  0  0  0  0  0  0  0
   37.4860   29.2240   39.8690 C   0  0  0  0  0  0  0  0  0  0  0  0
   37.4510   30.6110   39.8020 C   0  0  0  0  0  0  0  0  0  0  0  0
   37.5390   31.6440   40.6820 N   0  0  0  0  0  0  0  0  0  0  0  0
   37.4300   32.8070   39.9890 C   0  0  0  0  0  0  0  0  0  0  0  0
   37.2760   32.4830   38.6910 N   0  0  0  0  0  0  0  0  0  0  0  0
   37.2850   31.1420   38.5420 C   0  0  0  0  0  0  0  0  0  0  0  0
   37.1560   30.4160   37.3850 C   0  0  0  0  0  0  0  0  0  0  0  0
   37.1000   28.3890   36.6070 H   0  0  0  0  0  0  0  0  0  0  0  0
   37.6700   31.4130   41.7010 H   0  0  0  0  0  0  0  0  0  0  0  0
   37.4720   33.7670   40.4940 H   0  0  0  0  0  0  0  0  0  0  0  0
   37.0270   30.8650   36.4120 H   0  0  0  0  0  0  0  0  0  0  0  0
   38.6180   25.0120   39.0220 C   0  0  0  0  0  0  0  0  0  0  0  0
   37.4450   24.2650   39.1370 C   0  0  0  0  0  0  0  0  0  0  0  0
   36.2270   24.9560   39.1120 C   0  0  0  0  0  0  0  0  0  0  0  0
   36.2560   26.3190   38.9770 N   0  0  0  0  0  0  0  0  0  0  0  0
   37.4070   27.0110   38.8680 C   0  0  0  0  0  0  0  0  0  0  0  0
   38.5940   26.3650   38.8900 N   0  0  0  0  0  0  0  0  0  0  0  0
   39.6050   24.5330   39.0340 H   0  0  0  0  0  0  0  0  0  0  0  0
   37.5150   23.1940   39.2390 H   0  0  0  0  0  0  0  0  0  0  0  0
   35.3020   24.4050   39.1990 H   0  0  0  0  0  0  0  0  0  0  0  0
   37.6620   28.6120   41.1870 C   0  0  0  0  0  0  0  0  0  0  0  0
   36.5530   28.1720   41.8930 C   0  0  0  0  0  0  0  0  0  0  0  0
   35.5690   28.2950   41.4500 H   0  0  0  0  0  0  0  0  0  0  0  0
   36.6130   27.5940   43.1200 C   0  0  0  0  0  3  0  0  0  0  0  0
   37.8810   27.4430   43.6800 C   0  0  0  0  0  0  0  0  0  0  0  0
   38.0250   26.9970   44.6430 H   0  0  0  0  0  0  0  0  0  0  0  0
   39.0280   27.8720   43.0010 C   0  0  0  0  0  0  0  0  0  0  0  0
   40.0250   27.7710   43.4050 H   0  0  0  0  0  0  0  0  0  0  0  0
   38.9200   28.4540   41.7600 C   0  0  0  0  0  3  0  0  0  0  0  0
  1  2  1  0  0  0  0
  2 18  1  0  0  0  0
  2  3  2  0  0  0  0
  3 23  1  0  0  0  0
  4  3  1  0  0  0  0
  4  5  1  0  0  0  0
  5 11  1  0  0  0  0
  6 12  1  0  0  0  0
  6  5  1  0  0  0  0
  7  6  2  0  0  0  0
  8  7  1  0  0  0  0
  8  4  2  0  0  0  0
  9  1  2  0  0  0  0
  9  8  1  0  0  0  0
 10  1  1  0  0  0  0
 13  9  1  0  0  0  0
 14 20  1  0  0  0  0
 14 15  1  0  0  0  0
 15 21  1  0  0  0  0
 16 15  2  0  0  0  0
 16 22  1  0  0  0  0
 17 16  1  0  0  0  0
 18 19  1  0  0  0  0
 18 17  2  0  0  0  0
 19 14  2  0  0  0  0
 23 31  2  0  0  0  0
 23 24  1  0  0  0  0
 24 26  2  0  0  0  0
 25 24  1  0  0  0  0
 26 27  1  0  0  0  0
 27 28  1  0  0  0  0
 29 30  1  0  0  0  0
 29 27  2  0  0  0  0
 31 29  1  0  0  0  0
M  END
>  <minimizedAffinity>
-5.17005873

$$$$

 OpenBabel03252509123D

 31 34  0  0  0  0  0  0  0  0999 V2000
   37.2090   28.9880   37.4930 C   0  0  0  0  0  0  0  0  0  0  0  0
   37.3630   28.4250   38.7340 C   0  0  0  0  0  0  0  0  0  0  0  0
   37.4880   29.1960   39.8760 C   0  0  0  0  0  0  0  0  0  0  0  0
   37.4630   30.5830   39.8030 C   0  0  0  0  0  0  0  0  0  0  0  0
   37.5530   31.6190   40.6800 N   0  0  0  0  0  0  0  0  0  0  0  0
   37.4570   32.7800   39.9820 C   0  0  0  0  0  0  0  0  0  0  0  0
   37.3080   32.4520   38.6840 N   0  0  0  0  0  0  0  0  0  0  0  0
   37.3080   31.1110   38.5410 C   0  0  0  0  0  0  0  0  0  0  0  0
   37.1800   30.3820   37.3860 C   0  0  0  0  0  0  0  0  0  0  0  0
   37.1140   28.3520   36.6140 H   0  0  0  0  0  0  0  0  0  0  0  0
   37.6760   31.3900   41.7000 H   0  0  0  0  0  0  0  0  0  0  0  0
   37.5040   33.7420   40.4840 H   0  0  0  0  0  0  0  0  0  0  0  0
   37.0610   30.8280   36.4100 H   0  0  0  0  0  0  0  0  0  0  0  0
   38.5910   24.9710   39.0310 C   0  0  0  0  0  0  0  0  0  0  0  0
   37.4130   24.2350   39.1620 C   0  0  0  0  0  0  0  0  0  0  0  0
   36.2020   24.9380   39.1470 C   0  0  0  0  0  0  0  0  0  0  0  0
   36.2420   26.3000   39.0070 N   0  0  0  0  0  0  0  0  0  0  0  0
   37.3970   26.9800   38.8820 C   0  0  0  0  0  0  0  0  0  0  0  0
   38.5790   26.3240   38.8940 N   0  0  0  0  0  0  0  0  0  0  0  0
   39.5750   24.4830   39.0340 H   0  0  0  0  0  0  0  0  0  0  0  0
   37.4740   23.1640   39.2680 H   0  0  0  0  0  0  0  0  0  0  0  0
   35.2730   24.3950   39.2470 H   0  0  0  0  0  0  0  0  0  0  0  0
   37.6510   28.5880   41.1970 C   0  0  0  0  0  0  0  0  0  0  0  0
   38.9220   28.4280   41.7270 C   0  0  0  0  0  0  0  0  0  0  0  0
   39.7760   28.7580   41.1450 H   0  0  0  0  0  0  0  0  0  0  0  0
   39.1750   27.8750   42.9420 C   0  0  0  0  0  3  0  0  0  0  0  0
   38.0700   27.4530   43.6800 C   0  0  0  0  0  0  0  0  0  0  0  0
   38.1730   27.0070   44.6480 H   0  0  0  0  0  0  0  0  0  0  0  0
   36.7690   27.5970   43.1830 C   0  0  0  0  0  0  0  0  0  0  0  0
   35.8910   27.2810   43.7270 H   0  0  0  0  0  0  0  0  0  0  0  0
   36.5590   28.1620   41.9460 C   0  0  0  0  0  3  0  0  0  0  0  0
  1  2  1  0  0  0  0
  2 18  1  0  0  0  0
  2  3  2  0  0  0  0
  3 23  1  0  0  0  0
  4  3  1  0  0  0  0
  4  5  1  0  0  0  0
  5 11  1  0  0  0  0
  6 12  1  0  0  0  0
  6  5  1  0  0  0  0
  7  6  2  0  0  0  0
  8  7  1  0  0  0  0
  8  4  2  0  0  0  0
  9  1  2  0  0  0  0
  9  8  1  0  0  0  0
 10  1  1  0  0  0  0
 13  9  1  0  0  0  0
 14 20  1  0  0  0  0
 14 15  1  0  0  0  0
 15 21  1  0  0  0  0
 16 15  2  0  0  0  0
 16 22  1  0  0  0  0
 17 16  1  0  0  0  0
 18 19  1  0  0  0  0
 18 17  2  0  0  0  0
 19 14  2  0  0  0  0
 23 24  2  0  0  0  0
 23 31  1  0  0  0  0
 24 26  1  0  0  0  0
 25 24  1  0  0  0  0
 26 27  2  0  0  0  0
 27 28  1  0  0  0  0
 29 27  1  0  0  0  0
 29 30  1  0  0  0  0
 31 29  2  0  0  0  0
M  END
>  <minimizedAffinity>
-5.09575891

$$$$

 OpenBabel03252509123D

 31 34  0  0  0  0  0  0  0  0999 V2000
   39.8750   28.4480   41.7920 C   0  0  0  0  0  0  0  0  0  0  0  0
   38.7630   28.7600   41.0490 C   0  0  0  0  0  0  0  0  0  0  0  0
   37.7370   27.8530   40.8550 C   0  0  0  0  0  0  0  0  0  0  0  0
   37.7970   26.5810   41.4100 C   0  0  0  0  0  0  0  0  0  0  0  0
   37.0070   25.4740   41.4280 N   0  0  0  0  0  0  0  0  0  0  0  0
   37.6280   24.5170   42.1640 C   0  0  0  0  0  0  0  0  0  0  0  0
   38.7940   25.0390   42.5930 N   0  0  0  0  0  0  0  0  0  0  0  0
   38.9270   26.3050   42.1470 C   0  0  0  0  0  0  0  0  0  0  0  0
   39.9650   27.1750   42.3640 C   0  0  0  0  0  0  0  0  0  0  0  0
   40.6640   29.1850   41.9250 H   0  0  0  0  0  0  0  0  0  0  0  0
   36.0930   25.5130   40.9060 H   0  0  0  0  0  0  0  0  0  0  0  0
   37.1740   23.5420   42.3140 H   0  0  0  0  0  0  0  0  0  0  0  0
   40.8390   26.9270   42.9470 H   0  0  0  0  0  0  0  0  0  0  0  0
   37.9760   32.3170   40.5470 C   0  0  0  0  0  0  0  0  0  0  0  0
   38.4130   32.5470   39.2420 C   0  0  0  0  0  0  0  0  0  0  0  0
   38.9770   31.4720   38.5440 C   0  0  0  0  0  0  0  0  0  0  0  0
   39.0680   30.2620   39.1790 N   0  0  0  0  0  0  0  0  0  0  0  0
   38.6360   30.0720   40.4410 C   0  0  0  0  0  0  0  0  0  0  0  0
   38.0890   31.0950   41.1340 N   0  0  0  0  0  0  0  0  0  0  0  0
   37.5250   33.1160   41.1490 H   0  0  0  0  0  0  0  0  0  0  0  0
   38.3020   33.5330   38.8190 H   0  0  0  0  0  0  0  0  0  0  0  0
   39.3240   31.6200   37.5320 H   0  0  0  0  0  0  0  0  0  0  0  0
   36.5550   28.1930   40.0620 C   0  0  0  0  0  0  0  0  0  0  0  0
   36.5050   27.8470   38.7200 C   0  0  0  0  0  0  0  0  0  0  0  0
   37.3520   27.3280   38.2830 H   0  0  0  0  0  0  0  0  0  0  0  0
   35.4550   28.1190   37.9040 C   0  0  0  0  0  3  0  0  0  0  0  0
   34.3730   28.7870   38.4760 C   0  0  0  0  0  0  0  0  0  0  0  0
   33.5010   29.0420   37.9090 H   0  0  0  0  0  0  0  0  0  0  0  0
   34.3810   29.1540   39.8270 C   0  0  0  0  0  0  0  0  0  0  0  0
   33.5610   29.6720   40.3030 H   0  0  0  0  0  0  0  0  0  0  0  0
   35.4670   28.8590   40.6170 C   0  0  0  0  0  3  0  0  0  0  0  0
  1 10  1  0  0  0  0
  1  9  1  0  0  0  0
  2  1  2  0  0  0  0
  3  2  1  0  0  0  0
  3  4  2  0  0  0  0
  4  5  1  0  0  0  0
  4  8  1  0  0  0  0
  5  6  1  0  0  0  0
  6 12  1  0  0  0  0
  6  7  2  0  0  0  0
  8  9  2  0  0  0  0
  8  7  1  0  0  0  0
  9 13  1  0  0  0  0
 11  5  1  0  0  0  0
 14 19  1  0  0  0  0
 14 20  1  0  0  0  0
 15 14  2  0  0  0  0
 16 17  2  0  0  0  0
 16 15  1  0  0  0  0
 17 18  1  0  0  0  0
 18  2  1  0  0  0  0
 18 19  2  0  0  0  0
 21 15  1  0  0  0  0
 22 16  1  0  0  0  0
 23 31  1  0  0  0  0
 23  3  1  0  0  0  0
 24 23  2  0  0  0  0
 25 24  1  0  0  0  0
 26 27  2  0  0  0  0
 26 24  1  0  0  0  0
 27 29  1  0  0  0  0
 28 27  1  0  0  0  0
 29 30  1  0  0  0  0
 29 31  2  0  0  0  0
M  END
>  <minimizedAffinity>
-5.0760951

$$$$

 OpenBabel03252509123D

 31 34  0  0  0  0  0  0  0  0999 V2000
   35.7540   26.5120   38.3370 C   0  0  0  0  0  0  0  0  0  0  0  0
   36.4950   26.9910   39.3880 C   0  0  0  0  0  0  0  0  0  0  0  0
   37.1620   26.1450   40.2560 C   0  0  0  0  0  0  0  0  0  0  0  0
   37.1020   24.7670   40.0930 C   0  0  0  0  0  0  0  0  0  0  0  0
   37.6080   23.6750   40.7270 N   0  0  0  0  0  0  0  0  0  0  0  0
   37.1810   22.5650   40.0740 C   0  0  0  0  0  0  0  0  0  0  0  0
   36.4160   22.9780   39.0440 N   0  0  0  0  0  0  0  0  0  0  0  0
   36.3470   24.3250   39.0290 C   0  0  0  0  0  0  0  0  0  0  0  0
   35.6730   25.1290   38.1460 C   0  0  0  0  0  0  0  0  0  0  0  0
   35.2410   27.2050   37.6720 H   0  0  0  0  0  0  0  0  0  0  0  0
   38.2140   23.8350   41.5730 H   0  0  0  0  0  0  0  0  0  0  0  0
   37.4670   21.5720   40.4090 H   0  0  0  0  0  0  0  0  0  0  0  0
   35.0890   24.7500   37.3200 H   0  0  0  0  0  0  0  0  0  0  0  0
   37.6390   30.4820   39.2150 C   0  0  0  0  0  0  0  0  0  0  0  0
   36.7640   31.1360   40.0830 C   0  0  0  0  0  0  0  0  0  0  0  0
   35.7840   30.3660   40.7220 C   0  0  0  0  0  0  0  0  0  0  0  0
   35.7390   29.0220   40.4600 N   0  0  0  0  0  0  0  0  0  0  0  0
   36.6000   28.4210   39.6160 C   0  0  0  0  0  0  0  0  0  0  0  0
   37.5540   29.1440   38.9880 N   0  0  0  0  0  0  0  0  0  0  0  0
   38.4290   31.0260   38.6820 H   0  0  0  0  0  0  0  0  0  0  0  0
   36.8700   32.1980   40.2310 H   0  0  0  0  0  0  0  0  0  0  0  0
   35.0910   30.8440   41.4000 H   0  0  0  0  0  0  0  0  0  0  0  0
   37.9510   26.6630   41.3740 C   0  0  0  0  0  0  0  0  0  0  0  0
   39.3000   26.9320   41.1970 C   0  0  0  0  0  0  0  0  0  0  0  0
   39.7450   26.7480   40.2250 H   0  0  0  0  0  0  0  0  0  0  0  0
   40.1130   27.4130   42.1720 C   0  0  0  0  0  3  0  0  0  0  0  0
   39.5300   27.6440   43.4170 C   0  0  0  0  0  0  0  0  0  0  0  0
   40.0950   28.0230   44.2440 H   0  0  0  0  0  0  0  0  0  0  0  0
   38.1720   27.3880   43.6390 C   0  0  0  0  0  0  0  0  0  0  0  0
   37.6880   27.5550   44.5910 H   0  0  0  0  0  0  0  0  0  0  0  0
   37.3850   26.8990   42.6230 C   0  0  0  0  0  3  0  0  0  0  0  0
  1  2  1  0  0  0  0
  2 18  1  0  0  0  0
  2  3  2  0  0  0  0
  3 23  1  0  0  0  0
  4  3  1  0  0  0  0
  4  5  1  0  0  0  0
  5 11  1  0  0  0  0
  6 12  1  0  0  0  0
  6  5  1  0  0  0  0
  7  6  2  0  0  0  0
  8  7  1  0  0  0  0
  8  4  2  0  0  0  0
  9  1  2  0  0  0  0
  9  8  1  0  0  0  0
 10  1  1  0  0  0  0
 13  9  1  0  0  0  0
 14 15  1  0  0  0  0
 15 21  1  0  0  0  0
 15 16  2  0  0  0  0
 16 22  1  0  0  0  0
 17 16  1  0  0  0  0
 18 17  2  0  0  0  0
 19 14  2  0  0  0  0
 19 18  1  0  0  0  0
 20 14  1  0  0  0  0
 23 31  1  0  0  0  0
 24 23  2  0  0  0  0
 24 26  1  0  0  0  0
 25 24  1  0  0  0  0
 26 27  2  0  0  0  0
 27 29  1  0  0  0  0
 27 28  1  0  0  0  0
 29 30  1  0  0  0  0
 31 29  2  0  0  0  0
M  END
>  <minimizedAffinity>
-5.0354166

$$$$

 OpenBabel03252509123D

 31 34  0  0  0  0  0  0  0  0999 V2000
   35.8660   28.8750   40.4570 C   0  0  0  0  0  0  0  0  0  0  0  0
   37.0250   28.2740   40.8770 C   0  0  0  0  0  0  0  0  0  0  0  0
   38.1710   29.0020   41.1440 C   0  0  0  0  0  0  0  0  0  0  0  0
   38.1870   30.3830   40.9940 C   0  0  0  0  0  0  0  0  0  0  0  0
   39.0940   31.3830   41.1580 N   0  0  0  0  0  0  0  0  0  0  0  0
   38.4950   32.5600   40.8430 C   0  0  0  0  0  0  0  0  0  0  0  0
   37.2260   32.2780   40.4890 N   0  0  0  0  0  0  0  0  0  0  0  0
   37.0050   30.9500   40.5700 C   0  0  0  0  0  0  0  0  0  0  0  0
   35.8490   30.2650   40.2960 C   0  0  0  0  0  0  0  0  0  0  0  0
   34.9820   28.2730   40.2560 H   0  0  0  0  0  0  0  0  0  0  0  0
   40.0610   31.1210   41.4810 H   0  0  0  0  0  0  0  0  0  0  0  0
   39.0370   33.4990   40.9030 H   0  0  0  0  0  0  0  0  0  0  0  0
   34.9380   30.7400   39.9650 H   0  0  0  0  0  0  0  0  0  0  0  0
   36.9600   24.9400   42.4280 C   0  0  0  0  0  0  0  0  0  0  0  0
   37.1890   24.0920   41.3450 C   0  0  0  0  0  0  0  0  0  0  0  0
   37.3650   24.6770   40.0840 C   0  0  0  0  0  0  0  0  0  0  0  0
   37.3000   26.0420   39.9880 N   0  0  0  0  0  0  0  0  0  0  0  0
   37.0780   26.8330   41.0550 C   0  0  0  0  0  0  0  0  0  0  0  0
   36.9060   26.2910   42.2810 N   0  0  0  0  0  0  0  0  0  0  0  0
   36.8150   24.5470   43.4420 H   0  0  0  0  0  0  0  0  0  0  0  0
   37.2240   23.0270   41.5110 H   0  0  0  0  0  0  0  0  0  0  0  0
   37.5430   24.0460   39.2260 H   0  0  0  0  0  0  0  0  0  0  0  0
   39.4030   28.3530   41.5920 C   0  0  0  0  0  0  0  0  0  0  0  0
   40.3000   27.8610   40.6550 C   0  0  0  0  0  0  0  0  0  0  0  0
   40.0640   27.9670   39.6010 H   0  0  0  0  0  0  0  0  0  0  0  0
   41.4670   27.2440   40.9710 C   0  0  0  0  0  3  0  0  0  0  0  0
   41.7580   27.1120   42.3280 C   0  0  0  0  0  0  0  0  0  0  0  0
   42.6570   26.6400   42.6710 H   0  0  0  0  0  0  0  0  0  0  0  0
   40.8830   27.5960   43.3070 C   0  0  0  0  0  0  0  0  0  0  0  0
   41.0760   27.5110   44.3670 H   0  0  0  0  0  0  0  0  0  0  0  0
   39.7090   28.2140   42.9410 C   0  0  0  0  0  3  0  0  0  0  0  0
  1  2  1  0  0  0  0
  2 18  1  0  0  0  0
  2  3  2  0  0  0  0
  3 23  1  0  0  0  0
  4  3  1  0  0  0  0
  4  5  1  0  0  0  0
  5 11  1  0  0  0  0
  6 12  1  0  0  0  0
  6  5  1  0  0  0  0
  7  8  1  0  0  0  0
  7  6  2  0  0  0  0
  8  4  2  0  0  0  0
  9  1  2  0  0  0  0
  9  8  1  0  0  0  0
 10  1  1  0  0  0  0
 13  9  1  0  0  0  0
 14 20  1  0  0  0  0
 15 21  1  0  0  0  0
 15 14  2  0  0  0  0
 16 15  1  0  0  0  0
 17 16  2  0  0  0  0
 17 18  1  0  0  0  0
 18 19  2  0  0  0  0
 19 14  1  0  0  0  0
 22 16  1  0  0  0  0
 23 31  1  0  0  0  0
 24 26  1  0  0  0  0
 24 23  2  0  0  0  0
 25 24  1  0  0  0  0
 26 27  2  0  0  0  0
 27 28  1  0  0  0  0
 27 29  1  0  0  0  0
 29 30  1  0  0  0  0
 31 29  2  0  0  0  0
M  END
>  <minimizedAffinity>
-5.02183867

$$$$

 OpenBabel03252509123D

 31 34  0  0  0  0  0  0  0  0999 V2000
   36.0330   28.0740   37.7180 C   0  0  0  0  0  0  0  0  0  0  0  0
   36.6090   28.1670   38.9600 C   0  0  0  0  0  0  0  0  0  0  0  0
   36.7620   27.0630   39.7790 C   0  0  0  0  0  0  0  0  0  0  0  0
   36.3320   25.8070   39.3680 C   0  0  0  0  0  0  0  0  0  0  0  0
   36.3200   24.5500   39.8860 N   0  0  0  0  0  0  0  0  0  0  0  0
   35.7490   23.7180   38.9770 C   0  0  0  0  0  0  0  0  0  0  0  0
   35.4140   24.4670   37.9080 N   0  0  0  0  0  0  0  0  0  0  0  0
   35.7590   25.7540   38.1170 C   0  0  0  0  0  0  0  0  0  0  0  0
   35.5890   26.8240   37.2750 C   0  0  0  0  0  0  0  0  0  0  0  0
   35.9280   28.9630   37.0990 H   0  0  0  0  0  0  0  0  0  0  0  0
   36.7250   24.4110   40.8480 H   0  0  0  0  0  0  0  0  0  0  0  0
   35.6340   22.6580   39.1820 H   0  0  0  0  0  0  0  0  0  0  0  0
   35.1340   26.7480   36.2990 H   0  0  0  0  0  0  0  0  0  0  0  0
   38.7970   31.0150   39.7540 C   0  0  0  0  0  0  0  0  0  0  0  0
   37.9330   31.8950   40.4060 C   0  0  0  0  0  0  0  0  0  0  0  0
   36.5990   31.4980   40.5670 C   0  0  0  0  0  0  0  0  0  0  0  0
   36.2210   30.2760   40.0760 N   0  0  0  0  0  0  0  0  0  0  0  0
   37.0810   29.4500   39.4520 C   0  0  0  0  0  0  0  0  0  0  0  0
   38.3730   29.8110   39.2850 N   0  0  0  0  0  0  0  0  0  0  0  0
   39.8540   31.2630   39.5950 H   0  0  0  0  0  0  0  0  0  0  0  0
   38.3150   32.8380   40.7600 H   0  0  0  0  0  0  0  0  0  0  0  0
   35.9060   32.1590   41.0670 H   0  0  0  0  0  0  0  0  0  0  0  0
   37.3780   27.1700   41.1010 C   0  0  0  0  0  0  0  0  0  0  0  0
   36.6140   27.5800   42.1840 C   0  0  0  0  0  0  0  0  0  0  0  0
   35.5670   27.8160   42.0240 H   0  0  0  0  0  0  0  0  0  0  0  0
   37.0940   27.7110   43.4470 C   0  0  0  0  0  3  0  0  0  0  0  0
   38.4410   27.4060   43.6400 C   0  0  0  0  0  0  0  0  0  0  0  0
   38.9050   27.4800   44.6030 H   0  0  0  0  0  0  0  0  0  0  0  0
   39.2490   26.9880   42.5760 C   0  0  0  0  0  0  0  0  0  0  0  0
   40.2950   26.7440   42.6890 H   0  0  0  0  0  0  0  0  0  0  0  0
   38.7200   26.8700   41.3110 C   0  0  0  0  0  3  0  0  0  0  0  0
  1  2  1  0  0  0  0
  2 18  1  0  0  0  0
  2  3  2  0  0  0  0
  3 23  1  0  0  0  0
  4  3  1  0  0  0  0
  4  5  1  0  0  0  0
  5 11  1  0  0  0  0
  6 12  1  0  0  0  0
  6  5  1  0  0  0  0
  7  8  1  0  0  0  0
  7  6  2  0  0  0  0
  8  4  2  0  0  0  0
  9  1  2  0  0  0  0
  9  8  1  0  0  0  0
 10  1  1  0  0  0  0
 13  9  1  0  0  0  0
 14 15  1  0  0  0  0
 15 16  2  0  0  0  0
 15 21  1  0  0  0  0
 16 22  1  0  0  0  0
 17 16  1  0  0  0  0
 18 17  2  0  0  0  0
 19 18  1  0  0  0  0
 19 14  2  0  0  0  0
 20 14  1  0  0  0  0
 23 31  2  0  0  0  0
 23 24  1  0  0  0  0
 24 26  2  0  0  0  0
 25 24  1  0  0  0  0
 26 27  1  0  0  0  0
 27 28  1  0  0  0  0
 29 30  1  0  0  0  0
 29 27  2  0  0  0  0
 31 29  1  0  0  0  0
M  END
>  <minimizedAffinity>
-4.99524021

$$$$
