
 OpenBabel03252508393D

 41 44  0  0  0  0  0  0  0  0999 V2000
   45.1730   33.9770   40.7430 C   0  0  0  0  0  0  0  0  0  0  0  0
   44.1140   33.6640   39.9290 C   0  0  0  0  0  0  0  0  0  0  0  0
   44.3960   33.1680   38.6950 C   0  0  0  0  0  0  0  0  0  0  0  0
   45.6750   32.9650   38.2250 C   0  0  0  0  0  0  0  0  0  0  0  0
   46.7140   33.2890   39.0620 C   0  0  0  0  0  0  0  0  0  0  0  0
   46.4810   33.7960   40.3230 C   0  0  0  0  0  0  0  0  0  0  0  0
   43.5580   32.9190   38.0500 H   0  0  0  0  0  0  0  0  0  0  0  0
   45.8830   32.5690   37.2400 H   0  0  0  0  0  0  0  0  0  0  0  0
   47.7330   33.1320   38.7000 H   0  0  0  0  0  0  0  0  0  0  0  0
   40.9410   35.3880   41.0290 C   0  0  0  0  0  0  0  0  0  0  0  0
   42.2280   35.1950   40.5070 C   0  0  0  0  0  0  0  0  0  0  0  0
   42.7840   33.8940   40.4650 C   0  0  0  0  0  0  0  0  0  0  0  0
   41.9990   32.8970   40.9510 N   0  0  0  0  0  0  0  0  0  0  0  0
   40.7750   33.1110   41.4440 C   0  0  0  0  0  0  0  0  0  0  0  0
   40.2460   34.3430   41.4850 N   0  0  0  0  0  0  0  0  0  0  0  0
   40.4220   36.6910   41.0560 N   0  0  0  0  0  0  0  0  0  0  0  0
   42.8420   36.0100   40.1210 H   0  0  0  0  0  0  0  0  0  0  0  0
   40.2760   32.2130   41.7930 H   0  0  0  0  0  0  0  0  0  0  0  0
   39.5090   36.7040   40.5780 H   0  0  0  0  0  0  0  0  0  0  0  0
   41.0750   37.3600   41.5550 H   0  0  0  0  0  0  0  0  0  0  0  0
   47.6530   34.1110   41.1310 C   0  0  0  0  0  0  0  0  0  0  0  0
   48.1700   35.3700   40.9660 C   0  0  0  0  0  0  0  0  0  0  0  0
   49.2850   35.8340   41.6590 C   0  0  0  0  0  0  0  0  0  0  0  0
   49.8900   34.9850   42.5510 C   0  0  0  0  0  0  0  0  0  0  0  0
   49.3890   33.7160   42.7320 C   0  0  0  0  0  0  0  0  0  0  0  0
   48.2810   33.2880   42.0280 C   0  0  0  0  0  0  0  0  0  0  0  0
   47.7580   36.1160   40.2820 H   0  0  0  0  0  0  0  0  0  0  0  0
   49.6890   36.8300   41.5260 H   0  0  0  0  0  0  0  0  0  0  0  0
   50.7590   35.2240   43.1480 H   0  0  0  0  0  0  0  0  0  0  0  0
   49.8110   32.9980   43.4110 H   0  0  0  0  0  0  0  0  0  0  0  0
   47.7420   31.9430   42.2140 C   0  0  0  0  0  0  0  0  0  0  0  0
   48.4020   31.0480   41.3600 C   0  0  0  0  0  0  0  0  0  0  0  0
   49.2070   31.2820   40.6460 H   0  0  0  0  0  0  0  0  0  0  0  0
   48.0760   29.7020   41.3350 C   0  0  0  0  0  3  0  0  0  0  0  0
   47.0760   29.2270   42.1740 C   0  0  0  0  0  0  0  0  0  0  0  0
   46.8030   28.1820   42.1750 H   0  0  0  0  0  0  0  0  0  0  0  0
   46.4610   30.1340   42.9890 C   0  0  0  0  0  0  0  0  0  0  0  0
   45.6690   29.8130   43.6670 H   0  0  0  0  0  0  0  0  0  0  0  0
   46.7570   31.4730   43.0390 C   0  0  0  0  0  3  0  0  0  0  0  0
   44.8020   34.9520   43.1400 N   0  0  0  0  0  0  0  0  0  0  0  0
   44.9670   34.5090   42.0640 C   0  0  0  0  0  0  0  0  0  0  0  0
  1 41  1  0  0  0  0
  2 12  1  0  0  0  0
  2  1  2  0  0  0  0
  3  2  1  0  0  0  0
  4  3  2  0  0  0  0
  4  5  1  0  0  0  0
  5  6  2  0  0  0  0
  6  1  1  0  0  0  0
  6 21  1  0  0  0  0
  7  3  1  0  0  0  0
  8  4  1  0  0  0  0
  9  5  1  0  0  0  0
 10 16  1  0  0  0  0
 10 15  1  0  0  0  0
 11 10  2  0  0  0  0
 12 11  1  0  0  0  0
 12 13  2  0  0  0  0
 13 14  1  0  0  0  0
 14 15  2  0  0  0  0
 14 18  1  0  0  0  0
 16 20  1  0  0  0  0
 17 11  1  0  0  0  0
 19 16  1  0  0  0  0
 21 26  1  0  0  0  0
 22 21  2  0  0  0  0
 22 23  1  0  0  0  0
 23 24  2  0  0  0  0
 24 25  1  0  0  0  0
 24 29  1  0  0  0  0
 25 30  1  0  0  0  0
 26 31  1  0  0  0  0
 26 25  2  0  0  0  0
 27 22  1  0  0  0  0
 28 23  1  0  0  0  0
 31 39  1  0  0  0  0
 32 31  2  0  0  0  0
 33 32  1  0  0  0  0
 34 32  1  0  0  0  0
 34 35  2  0  0  0  0
 35 36  1  0  0  0  0
 35 37  1  0  0  0  0
 37 39  2  0  0  0  0
 37 38  1  0  0  0  0
 41 40  3  0  0  0  0
M  END
>  <minimizedAffinity>
-5.95801163

>  <minimizedRMSD>
0.509716511

$$$$
