
 OpenBabel03252506063D

 43 47  0  0  0  0  0  0  0  0999 V2000
   44.8260   36.0010   43.3590 Cl  0  0  0  0  0  0  0  0  0  0  0  0
   45.5640   34.7440   44.3020 C   0  0  0  0  0  0  0  0  0  0  0  0
   46.6770   34.0830   43.8150 C   0  0  0  0  0  0  0  0  0  0  0  0
   47.1970   33.0980   44.6350 C   0  0  0  0  0  0  0  0  0  0  0  0
   46.6690   32.7590   45.8730 C   0  0  0  0  0  0  0  0  0  0  0  0
   45.5710   33.4370   46.3140 C   0  0  0  0  0  0  0  0  0  0  0  0
   44.9450   32.9720   47.8840 Cl  0  0  0  0  0  0  0  0  0  0  0  0
   45.0180   34.4230   45.5400 C   0  0  0  0  0  0  0  0  0  0  0  0
   48.0680   32.5810   44.2520 H   0  0  0  0  0  0  0  0  0  0  0  0
   44.1520   34.9150   45.9520 H   0  0  0  0  0  0  0  0  0  0  0  0
   47.3630   31.6830   46.5980 C   0  0  0  0  0  0  0  0  0  0  0  0
   47.4580   30.4020   46.1190 C   0  0  0  0  0  0  0  0  0  0  0  0
   48.1050   29.3780   46.7850 C   0  0  0  0  0  0  0  0  0  0  0  0
   48.6970   29.6360   48.0030 C   0  0  0  0  0  0  0  0  0  0  0  0
   49.3220   28.6330   48.6390 N   0  0  0  0  0  0  0  0  0  0  0  0
   49.9270   28.8030   49.8340 C   0  0  0  0  0  0  0  0  0  0  0  0
   49.8690   30.0790   50.3800 C   0  0  0  0  0  0  0  0  0  0  0  0
   49.2370   31.1050   49.7410 C   0  0  0  0  0  0  0  0  0  0  0  0
   48.6240   30.9000   48.5120 C   0  0  0  0  0  0  0  0  0  0  0  0
   47.9730   31.9150   47.8350 C   0  0  0  0  0  0  0  0  0  0  0  0
   46.9860   30.2210   45.1610 H   0  0  0  0  0  0  0  0  0  0  0  0
   48.1480   28.3750   46.3530 H   0  0  0  0  0  0  0  0  0  0  0  0
   50.4340   27.9770   50.3430 H   0  0  0  0  0  0  0  0  0  0  0  0
   50.3660   30.1710   51.3380 H   0  0  0  0  0  0  0  0  0  0  0  0
   49.2120   32.0880   50.1960 H   0  0  0  0  0  0  0  0  0  0  0  0
   47.9290   32.9030   48.2580 H   0  0  0  0  0  0  0  0  0  0  0  0
   48.8790   35.5330   41.3050 C   0  0  0  0  0  0  0  0  0  0  0  0
   48.3910   35.0000   40.1040 C   0  0  0  0  0  0  0  0  0  0  0  0
   47.2850   34.1270   40.1580 C   0  0  0  0  0  0  0  0  0  0  0  0
   46.7850   33.8770   41.3810 N   0  0  0  0  0  0  0  0  0  0  0  0
   47.2660   34.3980   42.5310 C   0  0  0  0  0  0  0  0  0  0  0  0
   48.3240   35.2340   42.5000 N   0  0  0  0  0  0  0  0  0  0  0  0
   49.7270   36.1950   41.2080 H   0  0  0  0  0  0  0  0  0  0  0  0
   48.8110   35.2210   39.1540 H   0  0  0  0  0  0  0  0  0  0  0  0
   46.6800   33.5070   38.9900 C   0  0  0  0  0  0  0  0  0  0  0  0
   47.4310   33.5230   37.8340 C   0  0  0  0  0  0  0  0  0  0  0  0
   48.4290   33.9700   37.7720 H   0  0  0  0  0  0  0  0  0  0  0  0
   46.9620   32.9630   36.6580 C   0  0  0  0  0  0  0  0  0  0  0  0
   45.7000   32.3670   36.6310 C   0  0  0  0  0  0  0  0  0  0  0  0
   45.2400   31.9020   35.7680 H   0  0  0  0  0  0  0  0  0  0  0  0
   45.0050   32.3880   37.8240 C   0  0  0  0  0  0  0  0  0  0  0  0
   44.0080   31.9280   37.8410 H   0  0  0  0  0  0  0  0  0  0  0  0
   45.4300   32.9310   39.0130 C   0  0  0  0  0  0  0  0  0  0  0  0
  1  2  1  0  0  0  0
  2  8  1  0  0  0  0
  3  2  2  0  0  0  0
  3  4  1  0  0  0  0
  4  5  2  0  0  0  0
  5  6  1  0  0  0  0
  5 11  1  0  0  0  0
  6  7  1  0  0  0  0
  8 10  1  0  0  0  0
  8  6  2  0  0  0  0
  9  4  1  0  0  0  0
 11 20  1  0  0  0  0
 12 11  2  0  0  0  0
 12 13  1  0  0  0  0
 13 14  2  0  0  0  0
 14 19  1  0  0  0  0
 14 15  1  0  0  0  0
 15 16  2  0  0  0  0
 16 23  1  0  0  0  0
 16 17  1  0  0  0  0
 17 24  1  0  0  0  0
 18 25  1  0  0  0  0
 18 17  2  0  0  0  0
 19 18  1  0  0  0  0
 20 26  1  0  0  0  0
 20 19  2  0  0  0  0
 21 12  1  0  0  0  0
 22 13  1  0  0  0  0
 27 32  1  0  0  0  0
 28 29  1  0  0  0  0
 28 27  2  0  0  0  0
 29 30  2  0  0  0  0
 30 31  1  0  0  0  0
 31  3  1  0  0  0  0
 32 31  2  0  0  0  0
 33 27  1  0  0  0  0
 34 28  1  0  0  0  0
 35 43  1  0  0  0  0
 35 29  1  0  0  0  0
 36 35  2  0  0  0  0
 37 36  1  0  0  0  0
 38 36  1  0  0  0  0
 39 38  2  0  0  0  0
 39 41  1  0  0  0  0
 40 39  1  0  0  0  0
 41 42  1  0  0  0  0
 41 43  2  0  0  0  0
M  END
>  <minimizedAffinity>
-7.24607992

>  <minimizedRMSD>
0.46378237

$$$$
