
 OpenBabel03252500103D

 31 32  0  0  0  0  0  0  0  0999 V2000
   45.0030   32.3210   39.7010 Cl  0  0  0  0  0 10  0  0  0  0  0  0
   46.3180   33.1550   38.9370 C   0  0  0  0  0  0  0  0  0  0  0  0
   47.2080   33.8890   39.6870 C   0  0  0  0  0  0  0  0  0  0  0  0
   48.2760   34.5710   39.1100 C   0  0  0  0  0  0  0  0  0  0  0  0
   48.3960   34.4740   37.7430 C   0  0  0  0  0  0  0  0  0  0  0  0
   47.5030   33.7380   36.9870 C   0  0  0  0  0  0  0  0  0  0  0  0
   46.4690   33.0800   37.5760 C   0  0  0  0  0  0  0  0  0  0  0  0
   48.9420   35.1310   39.7470 H   0  0  0  0  0  0  0  0  0  0  0  0
   49.2240   35.0000   37.2690 H   0  0  0  0  0  0  0  0  0  0  0  0
   47.6970   33.7330   35.9130 H   0  0  0  0  0  0  0  0  0  0  0  0
   45.5770   32.3280   36.7010 C   0  0  0  0  0  0  0  0  0  0  0  0
   44.4750   31.6720   37.2390 C   0  0  0  0  0  0  0  0  0  0  0  0
   44.2930   31.7260   38.3030 H   0  0  0  0  0  0  0  0  0  0  0  0
   43.6310   30.9580   36.3990 C   0  0  0  0  0  0  0  0  0  0  0  0
   43.8900   30.9070   35.0460 C   0  0  0  0  0  0  0  0  0  0  0  0
   43.2410   30.3540   34.3770 H   0  0  0  0  0  0  0  0  0  0  0  0
   44.9720   31.5440   34.4650 C   0  0  0  0  0  0  0  0  0  0  0  0
   45.1920   31.5140   33.4010 H   0  0  0  0  0  0  0  0  0  0  0  0
   45.7980   32.2510   35.3440 C   0  0  0  0  0  0  0  0  0  0  0  0
   47.5890   33.2020   43.2930 C   0  0  0  0  0  0  0  0  0  0  0  0
   46.6780   34.1010   43.8660 C   0  0  0  0  0  0  0  0  0  0  0  0
   45.9440   34.9320   43.0130 C   0  0  0  0  0  0  0  0  0  0  0  0
   46.1380   34.8380   41.6770 N   0  0  0  0  0  0  0  0  0  0  0  0
   47.0300   33.9560   41.1370 C   0  0  0  0  0  0  0  0  0  0  0  0
   47.7460   33.1460   41.9580 N   0  0  0  0  0  0  0  0  0  0  0  0
   48.1720   32.5460   43.9250 H   0  0  0  0  0  0  0  0  0  0  0  0
   46.5260   34.1740   44.9210 H   0  0  0  0  0  0  0  0  0  0  0  0
   44.9460   35.9260   43.5190 C   0  0  0  0  0  0  0  0  0  0  0  0
   45.2880   37.2000   43.1270 F   0  0  0  0  0  0  0  0  0  0  0  0
   43.7010   35.6190   42.9670 F   0  0  0  0  0  0  0  0  0  0  0  0
   44.9000   35.8000   44.8800 F   0  0  0  0  0  0  0  0  0  0  0  0
  2  3  1  0  0  0  0
  3 24  1  0  0  0  0
  4  3  2  0  0  0  0
  4  8  1  0  0  0  0
  5  4  1  0  0  0  0
  6  7  1  0  0  0  0
  6  5  2  0  0  0  0
  7  2  2  0  0  0  0
  9  5  1  0  0  0  0
 10  6  1  0  0  0  0
 11 12  1  0  0  0  0
 11  7  1  0  0  0  0
 12 13  1  0  0  0  0
 14 12  2  0  0  0  0
 15 14  1  0  0  0  0
 16 15  1  0  0  0  0
 17 15  2  0  0  0  0
 17 19  1  0  0  0  0
 18 17  1  0  0  0  0
 19 11  2  0  0  0  0
 20 21  1  0  0  0  0
 20 26  1  0  0  0  0
 21 27  1  0  0  0  0
 22 28  1  0  0  0  0
 22 21  2  0  0  0  0
 23 22  1  0  0  0  0
 24 23  2  0  0  0  0
 24 25  1  0  0  0  0
 25 20  2  0  0  0  0
 28 31  1  0  0  0  0
 29 28  1  0  0  0  0
 30 28  1  0  0  0  0
M  END
>  <minimizedAffinity>
-5.75440931

>  <minimizedRMSD>
0.13539663

$$$$
