
 OpenBabel03252506323D

 32 34  0  0  1  0  0  0  0  0999 V2000
   40.0580   31.3600   39.1210 C   0  0  0  0  0  0  0  0  0  0  0  0
   39.1930   31.6130   38.0500 C   0  0  0  0  0  0  0  0  0  0  0  0
   37.8710   31.2150   38.1440 C   0  0  0  0  0  0  0  0  0  0  0  0
   37.4910   30.5920   39.2950 N   0  0  0  0  0  0  0  0  0  0  0  0
   38.3350   30.3610   40.3070 C   0  0  0  0  0  0  0  0  0  0  0  0
   39.6120   30.7370   40.2320 N   0  0  0  0  0  0  0  0  0  0  0  0
   37.8190   29.7150   41.4610 N   0  0  0  0  0  0  0  0  0  0  0  0
   38.5220   29.6610   42.7500 C   0  0  0  0  0  0  0  0  0  0  0  0
   38.1560   28.2850   43.2360 C   0  0  0  0  0  0  0  0  0  0  0  0
   37.0760   27.7610   42.3350 C   0  0  0  0  0  0  0  0  0  0  0  0
   36.5740   29.0170   41.6410 C   0  0  2  0  0  0  0  0  0  0  0  0
   41.1180   31.6280   39.1570 H   0  0  0  0  0  0  0  0  0  0  0  0
   37.2440   31.4240   37.3120 H   0  0  0  0  0  0  0  0  0  0  0  0
   39.6100   29.7120   42.5700 H   0  0  0  0  0  0  0  0  0  0  0  0
   38.1360   30.4650   43.4170 H   0  0  0  0  0  0  0  0  0  0  0  0
   39.0270   27.6120   43.3320 H   0  0  0  0  0  0  0  0  0  0  0  0
   37.6700   28.4190   44.2460 H   0  0  0  0  0  0  0  0  0  0  0  0
   36.2800   27.2080   42.8510 H   0  0  0  0  0  0  0  0  0  0  0  0
   37.5950   27.1290   41.5680 H   0  0  0  0  0  0  0  0  0  0  0  0
   35.8880   29.5200   42.3480 H   0  0  0  0  0  0  0  0  0  0  0  0
   35.8730   28.6740   40.3780 C   0  0  0  0  0  0  0  0  0  0  0  0
   34.7800   29.2860   39.8330 C   0  0  0  0  0  0  0  0  0  0  0  0
   34.3850   30.1330   40.4070 H   0  0  0  0  0  0  0  0  0  0  0  0
   34.2160   28.8790   38.6580 C   0  0  0  0  0  3  0  0  0  0  0  0
   34.7270   27.8140   37.9510 C   0  0  0  0  0  0  0  0  0  0  0  0
   34.3270   27.4370   37.0090 H   0  0  0  0  0  0  0  0  0  0  0  0
   35.8230   27.1460   38.4300 C   0  0  0  0  0  0  0  0  0  0  0  0
   36.2830   26.3030   37.9350 H   0  0  0  0  0  0  0  0  0  0  0  0
   36.3560   27.5980   39.6230 C   0  0  0  0  0  3  0  0  0  0  0  0
   39.7760   32.2860   36.9300 N   0  0  0  0  0  0  0  0  0  0  0  0
   40.6240   32.0080   36.3970 H   0  0  0  0  0  0  0  0  0  0  0  0
   39.2210   33.1410   36.6930 H   0  0  0  0  0  0  0  0  0  0  0  0
  1 12  1  0  0  0  0
  1  6  1  0  0  0  0
  2  3  1  0  0  0  0
  2  1  2  0  0  0  0
  3  4  2  0  0  0  0
  4  5  1  0  0  0  0
  5  7  1  0  0  0  0
  6  5  2  0  0  0  0
  7 11  1  0  0  0  0
  7  8  1  0  0  0  0
  8  9  1  0  0  0  0
  8 15  1  0  0  0  0
  9 16  1  0  0  0  0
  9 17  1  0  0  0  0
 10 18  1  0  0  0  0
 10  9  1  0  0  0  0
 11 10  1  0  0  0  0
 11 20  1  1  0  0  0
 13  3  1  0  0  0  0
 14  8  1  0  0  0  0
 19 10  1  0  0  0  0
 21 11  1  0  0  0  0
 22 21  1  0  0  0  0
 22 23  1  0  0  0  0
 24 22  2  0  0  0  0
 25 27  2  0  0  0  0
 25 24  1  0  0  0  0
 26 25  1  0  0  0  0
 27 29  1  0  0  0  0
 28 27  1  0  0  0  0
 29 21  2  0  0  0  0
 30  2  1  0  0  0  0
 31 30  1  0  0  0  0
 32 30  1  0  0  0  0
M  END
>  <minimizedAffinity>
-5.76792622

$$$$

 OpenBabel03252506323D

 32 34  0  0  1  0  0  0  0  0999 V2000
   37.9730   30.0390   42.1260 C   0  0  0  0  0  0  0  0  0  0  0  0
   36.6980   29.6660   41.6830 C   0  0  0  0  0  0  0  0  0  0  0  0
   36.3610   28.3240   41.6600 C   0  0  0  0  0  0  0  0  0  0  0  0
   37.3080   27.4380   42.0780 N   0  0  0  0  0  0  0  0  0  0  0  0
   38.5210   27.8180   42.4980 C   0  0  0  0  0  0  0  0  0  0  0  0
   38.8620   29.1060   42.5260 N   0  0  0  0  0  0  0  0  0  0  0  0
   39.4190   26.8030   42.9220 N   0  0  0  0  0  0  0  0  0  0  0  0
   40.6490   27.0670   43.6800 C   0  0  0  0  0  0  0  0  0  0  0  0
   41.5840   26.0380   43.1040 C   0  0  0  0  0  0  0  0  0  0  0  0
   40.7640   25.1020   42.2640 C   0  0  0  0  0  0  0  0  0  0  0  0
   39.3450   25.3790   42.7370 C   0  0  2  0  0  0  0  0  0  0  0  0
   38.3490   31.0650   42.1860 H   0  0  0  0  0  0  0  0  0  0  0  0
   35.3860   28.0780   41.3190 H   0  0  0  0  0  0  0  0  0  0  0  0
   41.0150   28.0780   43.4330 H   0  0  0  0  0  0  0  0  0  0  0  0
   40.4580   26.9070   44.7650 H   0  0  0  0  0  0  0  0  0  0  0  0
   42.4440   26.4820   42.5710 H   0  0  0  0  0  0  0  0  0  0  0  0
   41.9570   25.4190   43.9710 H   0  0  0  0  0  0  0  0  0  0  0  0
   41.0470   24.0450   42.3490 H   0  0  0  0  0  0  0  0  0  0  0  0
   40.8530   25.4760   41.2100 H   0  0  0  0  0  0  0  0  0  0  0  0
   39.2100   24.8200   43.6820 H   0  0  0  0  0  0  0  0  0  0  0  0
   38.3580   24.9410   41.7180 C   0  0  0  0  0  0  0  0  0  0  0  0
   37.1110   24.4240   41.9270 C   0  0  0  0  0  0  0  0  0  0  0  0
   36.8160   24.3290   42.9790 H   0  0  0  0  0  0  0  0  0  0  0  0
   36.2860   24.0520   40.9050 C   0  0  0  0  0  3  0  0  0  0  0  0
   36.6750   24.1800   39.5890 C   0  0  0  0  0  0  0  0  0  0  0  0
   36.0680   23.9030   38.7270 H   0  0  0  0  0  0  0  0  0  0  0  0
   37.9110   24.6910   39.2950 C   0  0  0  0  0  0  0  0  0  0  0  0
   38.2890   24.8230   38.2920 H   0  0  0  0  0  0  0  0  0  0  0  0
   38.7070   25.0520   40.3660 C   0  0  0  0  0  3  0  0  0  0  0  0
   35.8400   30.7420   41.2930 N   0  0  0  0  0  0  0  0  0  0  0  0
   36.0420   31.4930   40.6030 H   0  0  0  0  0  0  0  0  0  0  0  0
   34.9320   30.6840   41.8090 H   0  0  0  0  0  0  0  0  0  0  0  0
  1 12  1  0  0  0  0
  1  6  1  0  0  0  0
  2  1  2  0  0  0  0
  3  2  1  0  0  0  0
  3  4  2  0  0  0  0
  4  5  1  0  0  0  0
  5  6  2  0  0  0  0
  5  7  1  0  0  0  0
  7  8  1  0  0  0  0
  8 15  1  0  0  0  0
  9  8  1  0  0  0  0
  9 17  1  0  0  0  0
 10 18  1  0  0  0  0
 10 11  1  0  0  0  0
 10  9  1  0  0  0  0
 11  7  1  0  0  0  0
 11 20  1  1  0  0  0
 13  3  1  0  0  0  0
 14  8  1  0  0  0  0
 16  9  1  0  0  0  0
 19 10  1  0  0  0  0
 21 22  1  0  0  0  0
 21 11  1  0  0  0  0
 22 23  1  0  0  0  0
 24 22  2  0  0  0  0
 25 24  1  0  0  0  0
 26 25  1  0  0  0  0
 27 25  2  0  0  0  0
 27 29  1  0  0  0  0
 28 27  1  0  0  0  0
 29 21  2  0  0  0  0
 30  2  1  0  0  0  0
 30 32  1  0  0  0  0
 31 30  1  0  0  0  0
M  END
>  <minimizedAffinity>
-5.45683718

$$$$

 OpenBabel03252506323D

 32 34  0  0  1  0  0  0  0  0999 V2000
   40.2400   31.1640   42.1070 C   0  0  0  0  0  0  0  0  0  0  0  0
   39.4020   32.0170   41.3790 C   0  0  0  0  0  0  0  0  0  0  0  0
   38.1330   31.5820   41.0360 C   0  0  0  0  0  0  0  0  0  0  0  0
   37.7760   30.3300   41.4390 N   0  0  0  0  0  0  0  0  0  0  0  0
   38.5940   29.5320   42.1360 C   0  0  0  0  0  0  0  0  0  0  0  0
   39.8190   29.9350   42.4730 N   0  0  0  0  0  0  0  0  0  0  0  0
   38.1040   28.2530   42.5110 N   0  0  0  0  0  0  0  0  0  0  0  0
   38.7480   27.3950   43.5140 C   0  0  0  0  0  0  0  0  0  0  0  0
   38.5250   26.0270   42.9290 C   0  0  0  0  0  0  0  0  0  0  0  0
   37.5580   26.1760   41.7900 C   0  0  0  0  0  0  0  0  0  0  0  0
   36.9440   27.5430   42.0440 C   0  0  2  0  0  0  0  0  0  0  0  0
   41.2570   31.3990   42.4320 H   0  0  0  0  0  0  0  0  0  0  0  0
   37.5260   32.2550   40.4840 H   0  0  0  0  0  0  0  0  0  0  0  0
   39.8290   27.6150   43.5380 H   0  0  0  0  0  0  0  0  0  0  0  0
   38.2380   27.5250   44.4960 H   0  0  0  0  0  0  0  0  0  0  0  0
   39.4640   25.5130   42.6560 H   0  0  0  0  0  0  0  0  0  0  0  0
   37.9800   25.4250   43.7130 H   0  0  0  0  0  0  0  0  0  0  0  0
   36.8090   25.3750   41.7190 H   0  0  0  0  0  0  0  0  0  0  0  0
   38.1840   26.2470   40.8620 H   0  0  0  0  0  0  0  0  0  0  0  0
   36.1710   27.4060   42.8230 H   0  0  0  0  0  0  0  0  0  0  0  0
   36.3480   28.0900   40.7980 C   0  0  0  0  0  0  0  0  0  0  0  0
   35.2630   28.9110   40.6790 C   0  0  0  0  0  0  0  0  0  0  0  0
   34.7860   29.1940   41.6240 H   0  0  0  0  0  0  0  0  0  0  0  0
   34.8010   29.3520   39.4720 C   0  0  0  0  0  3  0  0  0  0  0  0
   35.4150   28.9860   38.2940 C   0  0  0  0  0  0  0  0  0  0  0  0
   35.1000   29.3000   37.2990 H   0  0  0  0  0  0  0  0  0  0  0  0
   36.5110   28.1640   38.3280 C   0  0  0  0  0  0  0  0  0  0  0  0
   37.0470   27.8330   37.4510 H   0  0  0  0  0  0  0  0  0  0  0  0
   36.9380   27.7460   39.5760 C   0  0  0  0  0  3  0  0  0  0  0  0
   39.9530   33.2970   41.0550 N   0  0  0  0  0  0  0  0  0  0  0  0
   40.8520   33.4940   40.5720 H   0  0  0  0  0  0  0  0  0  0  0  0
   39.3120   34.0580   41.3780 H   0  0  0  0  0  0  0  0  0  0  0  0
  1 12  1  0  0  0  0
  1  6  1  0  0  0  0
  2  1  2  0  0  0  0
  3  2  1  0  0  0  0
  3  4  2  0  0  0  0
  4  5  1  0  0  0  0
  5  6  2  0  0  0  0
  5  7  1  0  0  0  0
  7  8  1  0  0  0  0
  8 14  1  0  0  0  0
  8 15  1  0  0  0  0
  9  8  1  0  0  0  0
  9 17  1  0  0  0  0
 10 11  1  0  0  0  0
 10  9  1  0  0  0  0
 11  7  1  0  0  0  0
 11 20  1  1  0  0  0
 13  3  1  0  0  0  0
 16  9  1  0  0  0  0
 18 10  1  0  0  0  0
 19 10  1  0  0  0  0
 21 11  1  0  0  0  0
 22 21  1  0  0  0  0
 22 23  1  0  0  0  0
 24 22  2  0  0  0  0
 25 27  2  0  0  0  0
 25 24  1  0  0  0  0
 26 25  1  0  0  0  0
 27 29  1  0  0  0  0
 28 27  1  0  0  0  0
 29 21  2  0  0  0  0
 30 32  1  0  0  0  0
 30  2  1  0  0  0  0
 31 30  1  0  0  0  0
M  END
>  <minimizedAffinity>
-5.23101568

$$$$

 OpenBabel03252506323D

 32 34  0  0  1  0  0  0  0  0999 V2000
   37.0700   31.6310   38.4210 C   0  0  0  0  0  0  0  0  0  0  0  0
   37.3290   32.1250   39.7050 C   0  0  0  0  0  0  0  0  0  0  0  0
   37.9110   31.2890   40.6420 C   0  0  0  0  0  0  0  0  0  0  0  0
   38.1980   30.0170   40.2460 N   0  0  0  0  0  0  0  0  0  0  0  0
   37.9420   29.5660   39.0130 C   0  0  0  0  0  0  0  0  0  0  0  0
   37.3820   30.3580   38.0980 N   0  0  0  0  0  0  0  0  0  0  0  0
   38.3000   28.2250   38.7140 N   0  0  0  0  0  0  0  0  0  0  0  0
   38.3630   27.6820   37.3510 C   0  0  0  0  0  0  0  0  0  0  0  0
   37.8610   26.2790   37.5610 C   0  0  0  0  0  0  0  0  0  0  0  0
   37.7990   26.0400   39.0420 C   0  0  0  0  0  0  0  0  0  0  0  0
   38.6670   27.1550   39.6020 C   0  0  2  0  0  0  0  0  0  0  0  0
   36.6160   32.1970   37.6030 H   0  0  0  0  0  0  0  0  0  0  0  0
   38.0930   31.6980   41.6050 H   0  0  0  0  0  0  0  0  0  0  0  0
   37.6570   28.2340   36.7080 H   0  0  0  0  0  0  0  0  0  0  0  0
   39.4170   27.7070   36.9900 H   0  0  0  0  0  0  0  0  0  0  0  0
   36.9130   26.0730   37.0330 H   0  0  0  0  0  0  0  0  0  0  0  0
   38.6660   25.5880   37.1760 H   0  0  0  0  0  0  0  0  0  0  0  0
   38.1280   25.0400   39.3570 H   0  0  0  0  0  0  0  0  0  0  0  0
   36.7380   26.2460   39.3430 H   0  0  0  0  0  0  0  0  0  0  0  0
   39.7180   26.8310   39.4860 H   0  0  0  0  0  0  0  0  0  0  0  0
   38.3450   27.4040   41.0300 C   0  0  0  0  0  0  0  0  0  0  0  0
   39.1980   27.7840   42.0270 C   0  0  0  0  0  0  0  0  0  0  0  0
   40.2410   27.9230   41.7220 H   0  0  0  0  0  0  0  0  0  0  0  0
   38.7860   27.9820   43.3140 C   0  0  0  0  0  3  0  0  0  0  0  0
   37.4690   27.8050   43.6790 C   0  0  0  0  0  0  0  0  0  0  0  0
   37.0740   27.9450   44.6850 H   0  0  0  0  0  0  0  0  0  0  0  0
   36.5510   27.4230   42.7370 C   0  0  0  0  0  0  0  0  0  0  0  0
   35.5020   27.2640   42.9430 H   0  0  0  0  0  0  0  0  0  0  0  0
   37.0200   27.2360   41.4490 C   0  0  0  0  0  3  0  0  0  0  0  0
   36.9630   33.4900   39.9270 N   0  0  0  0  0  0  0  0  0  0  0  0
   36.0360   33.9300   39.7640 H   0  0  0  0  0  0  0  0  0  0  0  0
   37.7820   34.0270   40.2950 H   0  0  0  0  0  0  0  0  0  0  0  0
  1  2  1  0  0  0  0
  2 30  1  0  0  0  0
  2  3  2  0  0  0  0
  3 13  1  0  0  0  0
  4  3  1  0  0  0  0
  5  4  2  0  0  0  0
  6  1  2  0  0  0  0
  6  5  1  0  0  0  0
  7  5  1  0  0  0  0
  7 11  1  0  0  0  0
  8  9  1  0  0  0  0
  8  7  1  0  0  0  0
  9 10  1  0  0  0  0
 10 19  1  0  0  0  0
 10 18  1  0  0  0  0
 10 11  1  0  0  0  0
 11 20  1  6  0  0  0
 11 21  1  0  0  0  0
 12  1  1  0  0  0  0
 14  8  1  0  0  0  0
 15  8  1  0  0  0  0
 16  9  1  0  0  0  0
 17  9  1  0  0  0  0
 21 29  2  0  0  0  0
 21 22  1  0  0  0  0
 22 24  2  0  0  0  0
 23 22  1  0  0  0  0
 24 25  1  0  0  0  0
 25 26  1  0  0  0  0
 27 28  1  0  0  0  0
 27 25  2  0  0  0  0
 29 27  1  0  0  0  0
 30 32  1  0  0  0  0
 31 30  1  0  0  0  0
M  END
>  <minimizedAffinity>
-5.09056234

$$$$

 OpenBabel03252506323D

 32 34  0  0  1  0  0  0  0  0999 V2000
   37.8320   30.9020   37.9240 C   0  0  0  0  0  0  0  0  0  0  0  0
   39.1620   31.3290   37.8240 C   0  0  0  0  0  0  0  0  0  0  0  0
   40.0880   30.8650   38.7410 C   0  0  0  0  0  0  0  0  0  0  0  0
   39.6380   30.0070   39.6980 N   0  0  0  0  0  0  0  0  0  0  0  0
   38.3620   29.6120   39.7760 C   0  0  0  0  0  0  0  0  0  0  0  0
   37.4570   30.0490   38.9010 N   0  0  0  0  0  0  0  0  0  0  0  0
   38.0150   28.7030   40.8110 N   0  0  0  0  0  0  0  0  0  0  0  0
   36.7530   27.9530   40.8480 C   0  0  0  0  0  0  0  0  0  0  0  0
   36.4520   27.9430   42.3220 C   0  0  0  0  0  0  0  0  0  0  0  0
   37.6730   28.4470   43.0360 C   0  0  0  0  0  0  0  0  0  0  0  0
   38.7590   28.3190   41.9800 C   0  0  2  0  0  0  0  0  0  0  0  0
   37.0170   31.2010   37.2590 H   0  0  0  0  0  0  0  0  0  0  0  0
   41.0870   31.2110   38.6330 H   0  0  0  0  0  0  0  0  0  0  0  0
   35.9750   28.5260   40.3160 H   0  0  0  0  0  0  0  0  0  0  0  0
   36.9180   26.9300   40.4410 H   0  0  0  0  0  0  0  0  0  0  0  0
   35.5250   28.4860   42.5800 H   0  0  0  0  0  0  0  0  0  0  0  0
   36.3510   26.8600   42.6230 H   0  0  0  0  0  0  0  0  0  0  0  0
   37.9130   27.9130   43.9650 H   0  0  0  0  0  0  0  0  0  0  0  0
   37.4960   29.5400   43.2150 H   0  0  0  0  0  0  0  0  0  0  0  0
   39.0720   27.2580   41.9700 H   0  0  0  0  0  0  0  0  0  0  0  0
   39.9070   29.2060   42.2970 C   0  0  0  0  0  0  0  0  0  0  0  0
   39.8740   30.5190   42.6690 C   0  0  0  0  0  0  0  0  0  0  0  0
   38.8720   30.9580   42.7410 H   0  0  0  0  0  0  0  0  0  0  0  0
   41.0030   31.2400   42.9360 C   0  0  0  0  0  3  0  0  0  0  0  0
   42.2530   30.6690   42.8420 C   0  0  0  0  0  0  0  0  0  0  0  0
   43.1930   31.1850   43.0390 H   0  0  0  0  0  0  0  0  0  0  0  0
   42.3730   29.3560   42.4740 C   0  0  0  0  0  0  0  0  0  0  0  0
   43.3150   28.8370   42.3770 H   0  0  0  0  0  0  0  0  0  0  0  0
   41.1990   28.6720   42.2150 C   0  0  0  0  0  3  0  0  0  0  0  0
   39.4430   32.2260   36.7450 N   0  0  0  0  0  0  0  0  0  0  0  0
   38.9630   33.1220   36.5260 H   0  0  0  0  0  0  0  0  0  0  0  0
   40.2320   31.8570   36.1650 H   0  0  0  0  0  0  0  0  0  0  0  0
  1  6  1  0  0  0  0
  2  1  2  0  0  0  0
  2  3  1  0  0  0  0
  3  4  2  0  0  0  0
  4  5  1  0  0  0  0
  5  7  1  0  0  0  0
  6  5  2  0  0  0  0
  7  8  1  0  0  0  0
  7 11  1  0  0  0  0
  8  9  1  0  0  0  0
  9 16  1  0  0  0  0
  9 17  1  0  0  0  0
  9 10  1  0  0  0  0
 10 19  1  0  0  0  0
 10 18  1  0  0  0  0
 11 20  1  6  0  0  0
 11 21  1  0  0  0  0
 11 10  1  0  0  0  0
 12  1  1  0  0  0  0
 13  3  1  0  0  0  0
 14  8  1  0  0  0  0
 15  8  1  0  0  0  0
 21 22  1  0  0  0  0
 22 23  1  0  0  0  0
 22 24  2  0  0  0  0
 25 24  1  0  0  0  0
 25 26  1  0  0  0  0
 27 25  2  0  0  0  0
 28 27  1  0  0  0  0
 29 21  2  0  0  0  0
 29 27  1  0  0  0  0
 30  2  1  0  0  0  0
 31 30  1  0  0  0  0
 32 30  1  0  0  0  0
M  END
>  <minimizedAffinity>
-4.97910547

$$$$

 OpenBabel03252506323D

 32 34  0  0  1  0  0  0  0  0999 V2000
   37.3110   30.6060   37.9360 C   0  0  0  0  0  0  0  0  0  0  0  0
   36.2740   29.6910   38.1560 C   0  0  0  0  0  0  0  0  0  0  0  0
   36.1260   29.1320   39.4140 C   0  0  0  0  0  0  0  0  0  0  0  0
   37.0130   29.5180   40.3730 N   0  0  0  0  0  0  0  0  0  0  0  0
   37.9960   30.3950   40.1410 C   0  0  0  0  0  0  0  0  0  0  0  0
   38.1540   30.9410   38.9350 N   0  0  0  0  0  0  0  0  0  0  0  0
   38.8510   30.7290   41.2250 N   0  0  0  0  0  0  0  0  0  0  0  0
   39.7680   31.8760   41.2170 C   0  0  0  0  0  0  0  0  0  0  0  0
   40.9490   31.3230   41.9680 C   0  0  0  0  0  0  0  0  0  0  0  0
   40.5270   30.0140   42.5720 C   0  0  0  0  0  0  0  0  0  0  0  0
   39.0100   30.0810   42.4990 C   0  0  2  0  0  0  0  0  0  0  0  0
   37.5240   31.1080   36.9890 H   0  0  0  0  0  0  0  0  0  0  0  0
   35.3280   28.4420   39.5430 H   0  0  0  0  0  0  0  0  0  0  0  0
   40.0630   32.0960   40.1770 H   0  0  0  0  0  0  0  0  0  0  0  0
   39.2930   32.7340   41.7430 H   0  0  0  0  0  0  0  0  0  0  0  0
   41.8640   31.2600   41.3540 H   0  0  0  0  0  0  0  0  0  0  0  0
   41.1280   32.0160   42.8420 H   0  0  0  0  0  0  0  0  0  0  0  0
   40.9010   29.8390   43.5890 H   0  0  0  0  0  0  0  0  0  0  0  0
   40.8710   29.2220   41.8570 H   0  0  0  0  0  0  0  0  0  0  0  0
   38.6770   30.7040   43.3510 H   0  0  0  0  0  0  0  0  0  0  0  0
   38.4200   28.7210   42.5760 C   0  0  0  0  0  0  0  0  0  0  0  0
   38.8990   27.5680   42.0220 C   0  0  0  0  0  0  0  0  0  0  0  0
   39.8340   27.6730   41.4580 H   0  0  0  0  0  0  0  0  0  0  0  0
   38.2660   26.3660   42.1580 C   0  0  0  0  0  3  0  0  0  0  0  0
   37.0930   26.2520   42.8720 C   0  0  0  0  0  0  0  0  0  0  0  0
   36.5370   25.3260   43.0200 H   0  0  0  0  0  0  0  0  0  0  0  0
   36.5470   27.3630   43.4580 C   0  0  0  0  0  0  0  0  0  0  0  0
   35.6320   27.3570   44.0330 H   0  0  0  0  0  0  0  0  0  0  0  0
   37.2280   28.5550   43.2900 C   0  0  0  0  0  3  0  0  0  0  0  0
   35.4400   29.4190   37.0260 N   0  0  0  0  0  0  0  0  0  0  0  0
   35.7390   29.1080   36.0800 H   0  0  0  0  0  0  0  0  0  0  0  0
   34.4360   29.5770   37.2730 H   0  0  0  0  0  0  0  0  0  0  0  0
  1  2  2  0  0  0  0
  1  6  1  0  0  0  0
  2  3  1  0  0  0  0
  3 13  1  0  0  0  0
  3  4  2  0  0  0  0
  5  4  1  0  0  0  0
  5  7  1  0  0  0  0
  6  5  2  0  0  0  0
  7 11  1  0  0  0  0
  8  7  1  0  0  0  0
  8 15  1  0  0  0  0
  8  9  1  0  0  0  0
  9 10  1  0  0  0  0
  9 17  1  0  0  0  0
 10 18  1  0  0  0  0
 11 10  1  0  0  0  0
 11 21  1  0  0  0  0
 11 20  1  1  0  0  0
 12  1  1  0  0  0  0
 14  8  1  0  0  0  0
 16  9  1  0  0  0  0
 19 10  1  0  0  0  0
 21 29  1  0  0  0  0
 22 24  1  0  0  0  0
 22 21  2  0  0  0  0
 23 22  1  0  0  0  0
 24 25  2  0  0  0  0
 25 26  1  0  0  0  0
 25 27  1  0  0  0  0
 27 28  1  0  0  0  0
 29 27  2  0  0  0  0
 30 32  1  0  0  0  0
 30  2  1  0  0  0  0
 31 30  1  0  0  0  0
M  END
>  <minimizedAffinity>
-4.92329645

$$$$

 OpenBabel03252506323D

 32 34  0  0  1  0  0  0  0  0999 V2000
   40.0350   27.9980   37.5100 C   0  0  0  0  0  0  0  0  0  0  0  0
   39.8910   26.8220   38.2550 C   0  0  0  0  0  0  0  0  0  0  0  0
   38.9360   26.7710   39.2550 C   0  0  0  0  0  0  0  0  0  0  0  0
   38.1830   27.8890   39.4510 N   0  0  0  0  0  0  0  0  0  0  0  0
   38.3360   29.0040   38.7260 C   0  0  0  0  0  0  0  0  0  0  0  0
   39.2520   29.0700   37.7600 N   0  0  0  0  0  0  0  0  0  0  0  0
   37.4820   30.1010   39.0150 N   0  0  0  0  0  0  0  0  0  0  0  0
   37.3190   31.2620   38.1310 C   0  0  0  0  0  0  0  0  0  0  0  0
   37.1740   32.3810   39.1270 C   0  0  0  0  0  0  0  0  0  0  0  0
   37.0010   31.7580   40.4820 C   0  0  0  0  0  0  0  0  0  0  0  0
   36.6280   30.3220   40.1500 C   0  0  2  0  0  0  0  0  0  0  0  0
   40.7530   28.1530   36.7000 H   0  0  0  0  0  0  0  0  0  0  0  0
   38.8560   25.8620   39.7990 H   0  0  0  0  0  0  0  0  0  0  0  0
   38.2450   31.4050   37.5480 H   0  0  0  0  0  0  0  0  0  0  0  0
   36.4070   31.1280   37.5060 H   0  0  0  0  0  0  0  0  0  0  0  0
   37.9930   33.1200   39.0730 H   0  0  0  0  0  0  0  0  0  0  0  0
   36.1920   32.8890   38.8990 H   0  0  0  0  0  0  0  0  0  0  0  0
   36.2610   32.2570   41.1230 H   0  0  0  0  0  0  0  0  0  0  0  0
   38.0200   31.7500   40.9490 H   0  0  0  0  0  0  0  0  0  0  0  0
   35.5520   30.3230   39.8950 H   0  0  0  0  0  0  0  0  0  0  0  0
   36.8970   29.4300   41.3060 C   0  0  0  0  0  0  0  0  0  0  0  0
   36.2290   28.2920   41.6590 C   0  0  0  0  0  0  0  0  0  0  0  0
   35.3990   28.0140   40.9990 H   0  0  0  0  0  0  0  0  0  0  0  0
   36.5670   27.5480   42.7530 C   0  0  0  0  0  3  0  0  0  0  0  0
   37.6150   27.9120   43.5700 C   0  0  0  0  0  0  0  0  0  0  0  0
   37.9370   27.3660   44.4570 H   0  0  0  0  0  0  0  0  0  0  0  0
   38.3360   29.0410   43.2840 C   0  0  0  0  0  0  0  0  0  0  0  0
   39.1690   29.3940   43.8740 H   0  0  0  0  0  0  0  0  0  0  0  0
   37.9520   29.7590   42.1650 C   0  0  0  0  0  3  0  0  0  0  0  0
   40.7700   25.7510   37.8950 N   0  0  0  0  0  0  0  0  0  0  0  0
   41.8070   25.7800   37.8260 H   0  0  0  0  0  0  0  0  0  0  0  0
   40.2190   24.8840   37.6950 H   0  0  0  0  0  0  0  0  0  0  0  0
  1  6  2  0  0  0  0
  1  2  1  0  0  0  0
  2  3  2  0  0  0  0
  3  4  1  0  0  0  0
  3 13  1  0  0  0  0
  5  7  1  0  0  0  0
  5  4  2  0  0  0  0
  6  5  1  0  0  0  0
  7 11  1  0  0  0  0
  8  7  1  0  0  0  0
  8  9  1  0  0  0  0
  9 10  1  0  0  0  0
 10 19  1  0  0  0  0
 10 18  1  0  0  0  0
 11 20  1  6  0  0  0
 11 10  1  0  0  0  0
 11 21  1  0  0  0  0
 12  1  1  0  0  0  0
 14  8  1  0  0  0  0
 15  8  1  0  0  0  0
 16  9  1  0  0  0  0
 17  9  1  0  0  0  0
 21 22  2  0  0  0  0
 21 29  1  0  0  0  0
 22 24  1  0  0  0  0
 23 22  1  0  0  0  0
 24 25  2  0  0  0  0
 25 26  1  0  0  0  0
 27 25  1  0  0  0  0
 27 28  1  0  0  0  0
 29 27  2  0  0  0  0
 30  2  1  0  0  0  0
 31 30  1  0  0  0  0
 32 30  1  0  0  0  0
M  END
>  <minimizedAffinity>
-4.91618013

$$$$

 OpenBabel03252506323D

 32 34  0  0  1  0  0  0  0  0999 V2000
   36.3850   27.2510   37.3800 C   0  0  0  0  0  0  0  0  0  0  0  0
   36.6350   28.5400   37.8690 C   0  0  0  0  0  0  0  0  0  0  0  0
   37.3570   28.6870   39.0400 C   0  0  0  0  0  0  0  0  0  0  0  0
   37.7870   27.5480   39.6510 N   0  0  0  0  0  0  0  0  0  0  0  0
   37.5370   26.3260   39.1660 C   0  0  0  0  0  0  0  0  0  0  0  0
   36.8420   26.1660   38.0400 N   0  0  0  0  0  0  0  0  0  0  0  0
   38.0490   25.2140   39.8860 N   0  0  0  0  0  0  0  0  0  0  0  0
   38.1230   23.8520   39.3400 C   0  0  0  0  0  0  0  0  0  0  0  0
   37.8130   23.0220   40.5560 C   0  0  0  0  0  0  0  0  0  0  0  0
   37.8450   23.9370   41.7460 C   0  0  0  0  0  0  0  0  0  0  0  0
   38.5870   25.1540   41.2180 C   0  0  2  0  0  0  0  0  0  0  0  0
   35.8280   27.0150   36.4700 H   0  0  0  0  0  0  0  0  0  0  0  0
   37.5270   29.6790   39.3790 H   0  0  0  0  0  0  0  0  0  0  0  0
   37.3250   23.7200   38.5890 H   0  0  0  0  0  0  0  0  0  0  0  0
   39.1480   23.6650   38.9470 H   0  0  0  0  0  0  0  0  0  0  0  0
   36.8770   22.4430   40.4600 H   0  0  0  0  0  0  0  0  0  0  0  0
   38.6810   22.3150   40.6930 H   0  0  0  0  0  0  0  0  0  0  0  0
   38.3110   23.5050   42.6420 H   0  0  0  0  0  0  0  0  0  0  0  0
   36.7810   24.2380   41.9320 H   0  0  0  0  0  0  0  0  0  0  0  0
   39.6650   24.9070   41.2440 H   0  0  0  0  0  0  0  0  0  0  0  0
   38.2980   26.3480   42.0520 C   0  0  0  0  0  0  0  0  0  0  0  0
   39.1350   27.3870   42.3460 C   0  0  0  0  0  0  0  0  0  0  0  0
   40.1360   27.3200   41.9040 H   0  0  0  0  0  0  0  0  0  0  0  0
   38.7570   28.4380   43.1330 C   0  0  0  0  0  3  0  0  0  0  0  0
   37.4940   28.5050   43.6790 C   0  0  0  0  0  0  0  0  0  0  0  0
   37.1280   29.3120   44.3130 H   0  0  0  0  0  0  0  0  0  0  0  0
   36.5950   27.5010   43.4310 C   0  0  0  0  0  0  0  0  0  0  0  0
   35.5880   27.4800   43.8220 H   0  0  0  0  0  0  0  0  0  0  0  0
   37.0280   26.4610   42.6290 C   0  0  0  0  0  3  0  0  0  0  0  0
   36.1080   29.6120   37.0810 N   0  0  0  0  0  0  0  0  0  0  0  0
   35.1260   29.7410   36.7650 H   0  0  0  0  0  0  0  0  0  0  0  0
   36.8670   30.2920   36.8440 H   0  0  0  0  0  0  0  0  0  0  0  0
  1  2  2  0  0  0  0
  1  6  1  0  0  0  0
  2  3  1  0  0  0  0
  3 13  1  0  0  0  0
  3  4  2  0  0  0  0
  5  4  1  0  0  0  0
  5  7  1  0  0  0  0
  6  5  2  0  0  0  0
  7 11  1  0  0  0  0
  8  7  1  0  0  0  0
  8  9  1  0  0  0  0
  9 17  1  0  0  0  0
  9 10  1  0  0  0  0
 10 19  1  0  0  0  0
 10 18  1  0  0  0  0
 11 20  1  6  0  0  0
 11 10  1  0  0  0  0
 11 21  1  0  0  0  0
 12  1  1  0  0  0  0
 14  8  1  0  0  0  0
 15  8  1  0  0  0  0
 16  9  1  0  0  0  0
 21 22  2  0  0  0  0
 21 29  1  0  0  0  0
 22 24  1  0  0  0  0
 23 22  1  0  0  0  0
 24 25  2  0  0  0  0
 25 26  1  0  0  0  0
 27 25  1  0  0  0  0
 27 28  1  0  0  0  0
 29 27  2  0  0  0  0
 30  2  1  0  0  0  0
 31 30  1  0  0  0  0
 32 30  1  0  0  0  0
M  END
>  <minimizedAffinity>
-4.90095377

$$$$

 OpenBabel03252506323D

 32 34  0  0  1  0  0  0  0  0999 V2000
   38.1260   29.3830   38.0030 C   0  0  0  0  0  0  0  0  0  0  0  0
   37.8980   28.2260   37.2480 C   0  0  0  0  0  0  0  0  0  0  0  0
   37.4860   27.0730   37.8920 C   0  0  0  0  0  0  0  0  0  0  0  0
   37.3230   27.1400   39.2430 N   0  0  0  0  0  0  0  0  0  0  0  0
   37.5460   28.2570   39.9450 C   0  0  0  0  0  0  0  0  0  0  0  0
   37.9450   29.3760   39.3410 N   0  0  0  0  0  0  0  0  0  0  0  0
   37.3290   28.2080   41.3480 N   0  0  0  0  0  0  0  0  0  0  0  0
   37.2370   29.4000   42.2010 C   0  0  0  0  0  0  0  0  0  0  0  0
   37.9140   28.9240   43.4580 C   0  0  0  0  0  0  0  0  0  0  0  0
   38.1060   27.4400   43.3330 C   0  0  0  0  0  0  0  0  0  0  0  0
   37.1530   27.0690   42.2080 C   0  0  2  0  0  0  0  0  0  0  0  0
   38.4520   30.3470   37.6050 H   0  0  0  0  0  0  0  0  0  0  0  0
   37.3230   26.2150   37.2870 H   0  0  0  0  0  0  0  0  0  0  0  0
   37.8270   30.2150   41.7490 H   0  0  0  0  0  0  0  0  0  0  0  0
   36.1660   29.6550   42.3660 H   0  0  0  0  0  0  0  0  0  0  0  0
   38.8410   29.4790   43.6880 H   0  0  0  0  0  0  0  0  0  0  0  0
   37.1720   29.0640   44.2970 H   0  0  0  0  0  0  0  0  0  0  0  0
   37.9200   26.8760   44.2570 H   0  0  0  0  0  0  0  0  0  0  0  0
   39.1530   27.2960   42.9580 H   0  0  0  0  0  0  0  0  0  0  0  0
   36.1420   27.0090   42.6530 H   0  0  0  0  0  0  0  0  0  0  0  0
   37.5410   25.7720   41.5980 C   0  0  0  0  0  0  0  0  0  0  0  0
   36.7180   24.7770   41.1520 C   0  0  0  0  0  0  0  0  0  0  0  0
   35.6450   24.9750   41.2590 H   0  0  0  0  0  0  0  0  0  0  0  0
   37.1910   23.6180   40.6070 C   0  0  0  0  0  3  0  0  0  0  0  0
   38.5440   23.3880   40.4790 C   0  0  0  0  0  0  0  0  0  0  0  0
   38.9890   22.4870   40.0550 H   0  0  0  0  0  0  0  0  0  0  0  0
   39.4350   24.3370   40.9030 C   0  0  0  0  0  0  0  0  0  0  0  0
   40.5090   24.2330   40.8370 H   0  0  0  0  0  0  0  0  0  0  0  0
   38.9040   25.4920   41.4470 C   0  0  0  0  0  3  0  0  0  0  0  0
   38.1150   28.3550   35.8400 N   0  0  0  0  0  0  0  0  0  0  0  0
   38.9710   28.7010   35.3610 H   0  0  0  0  0  0  0  0  0  0  0  0
   37.2660   28.0440   35.3140 H   0  0  0  0  0  0  0  0  0  0  0  0
  1  6  1  0  0  0  0
  2  3  1  0  0  0  0
  2  1  2  0  0  0  0
  3  4  2  0  0  0  0
  4  5  1  0  0  0  0
  5  7  1  0  0  0  0
  6  5  2  0  0  0  0
  7  8  1  0  0  0  0
  7 11  1  0  0  0  0
  8 15  1  0  0  0  0
  8  9  1  0  0  0  0
  9 16  1  0  0  0  0
  9 17  1  0  0  0  0
 10  9  1  0  0  0  0
 10 18  1  0  0  0  0
 11 20  1  1  0  0  0
 11 10  1  0  0  0  0
 12  1  1  0  0  0  0
 13  3  1  0  0  0  0
 14  8  1  0  0  0  0
 19 10  1  0  0  0  0
 21 11  1  0  0  0  0
 22 23  1  0  0  0  0
 22 21  2  0  0  0  0
 24 22  1  0  0  0  0
 25 24  2  0  0  0  0
 25 27  1  0  0  0  0
 26 25  1  0  0  0  0
 27 29  2  0  0  0  0
 28 27  1  0  0  0  0
 29 21  1  0  0  0  0
 30  2  1  0  0  0  0
 31 30  1  0  0  0  0
 32 30  1  0  0  0  0
M  END
>  <minimizedAffinity>
-4.85692596

$$$$
