
 OpenBabel03252503243D

 47 52  0  0  1  0  0  0  0  0999 V2000
   45.0350   34.6300   43.4710 C   0  0  0  0  0  0  0  0  0  0  0  0
   45.3620   33.2910   43.8660 C   0  0  0  0  0  0  0  0  0  0  0  0
   44.8650   32.2590   43.1120 C   0  0  0  0  0  0  0  0  0  0  0  0
   44.0920   32.5690   42.0340 N   0  0  0  0  0  0  0  0  0  0  0  0
   43.7950   33.8460   41.6750 C   0  0  0  0  0  0  0  0  0  0  0  0
   44.2680   34.8720   42.3960 N   0  0  0  0  0  0  0  0  0  0  0  0
   45.4080   35.4670   44.0410 H   0  0  0  0  0  0  0  0  0  0  0  0
   45.0860   31.2370   43.3750 H   0  0  0  0  0  0  0  0  0  0  0  0
   46.2210   33.0850   45.0680 C   0  0  1  0  0  0  0  0  0  0  0  0
   45.8610   33.6840   46.3510 C   0  0  0  0  0  0  0  0  0  0  0  0
   45.6430   32.2290   46.1790 C   0  0  2  0  0  0  0  0  0  0  0  0
   47.2790   32.9000   44.8220 H   0  0  0  0  0  0  0  0  0  0  0  0
   46.6650   34.1650   46.8950 H   0  0  0  0  0  0  0  0  0  0  0  0
   44.9570   34.3750   46.2920 H   0  0  0  0  0  0  0  0  0  0  0  0
   44.6040   31.8700   46.0330 H   0  0  0  0  0  0  0  0  0  0  0  0
   46.6280   31.3160   46.8170 C   0  0  0  0  0  0  0  0  0  0  0  0
   46.7680   29.9820   46.5020 C   0  0  0  0  0  0  0  0  0  0  0  0
   47.7070   29.1850   47.1450 C   0  0  0  0  0  0  0  0  0  0  0  0
   48.5110   29.7240   48.1090 C   0  0  0  0  0  0  0  0  0  0  0  0
   49.4390   28.9640   48.7540 N   0  0  0  0  0  0  0  0  0  0  0  0
   50.2320   29.5160   49.7150 C   0  0  0  0  0  0  0  0  0  0  0  0
   50.1620   30.8750   50.1070 C   0  0  0  0  0  0  0  0  0  0  0  0
   49.2210   31.6450   49.4500 C   0  0  0  0  0  0  0  0  0  0  0  0
   48.4190   31.0700   48.4750 C   0  0  0  0  0  0  0  0  0  0  0  0
   47.4720   31.8190   47.8080 C   0  0  0  0  0  0  0  0  0  0  0  0
   46.1220   29.5710   45.7370 H   0  0  0  0  0  0  0  0  0  0  0  0
   47.7810   28.1450   46.8650 H   0  0  0  0  0  0  0  0  0  0  0  0
   50.9570   28.9010   50.2120 H   0  0  0  0  0  0  0  0  0  0  0  0
   50.8300   31.2300   50.8780 H   0  0  0  0  0  0  0  0  0  0  0  0
   49.1310   32.6870   49.7150 H   0  0  0  0  0  0  0  0  0  0  0  0
   47.4500   32.8470   48.1420 H   0  0  0  0  0  0  0  0  0  0  0  0
   42.9520   34.0530   40.4660 C   0  0  2  0  0  0  0  0  0  0  0  0
   42.6900   35.3800   39.9370 C   0  0  0  0  0  0  0  0  0  0  0  0
   41.5920   34.7550   40.7660 C   0  0  1  0  0  0  0  0  0  0  0  0
   42.8290   33.1270   39.8400 H   0  0  0  0  0  0  0  0  0  0  0  0
   43.2310   36.2510   40.3500 H   0  0  0  0  0  0  0  0  0  0  0  0
   42.5420   35.4800   38.8370 H   0  0  0  0  0  0  0  0  0  0  0  0
   41.4650   35.1560   41.7870 H   0  0  0  0  0  0  0  0  0  0  0  0
   40.4150   34.3530   39.9980 C   0  0  0  0  0  0  0  0  0  0  0  0
   39.3160   33.6730   40.4500 C   0  0  0  0  0  0  0  0  0  0  0  0
   39.3220   33.4010   41.5040 H   0  0  0  0  0  0  0  0  0  0  0  0
   38.2470   33.3340   39.6550 C   0  0  0  0  0  0  0  0  0  0  0  0
   38.2810   33.7000   38.3210 C   0  0  0  0  0  0  0  0  0  0  0  0
   37.4420   33.4390   37.6790 H   0  0  0  0  0  0  0  0  0  0  0  0
   39.3490   34.3850   37.7950 C   0  0  0  0  0  0  0  0  0  0  0  0
   39.3750   34.6690   36.7570 H   0  0  0  0  0  0  0  0  0  0  0  0
   40.3790   34.6900   38.6420 C   0  0  0  0  0  0  0  0  0  0  0  0
  1  2  1  0  0  0  0
  1  7  1  0  0  0  0
  2  9  1  0  0  0  0
  3  8  1  0  0  0  0
  3  2  2  0  0  0  0
  4  3  1  0  0  0  0
  5  4  2  0  0  0  0
  5  6  1  0  0  0  0
  6  1  2  0  0  0  0
  9 12  1  6  0  0  0
  9 11  1  0  0  0  0
  9 10  1  0  0  0  0
 10 13  1  0  0  0  0
 11 15  1  6  0  0  0
 11 10  1  0  0  0  0
 11 16  1  0  0  0  0
 14 10  1  0  0  0  0
 16 25  1  0  0  0  0
 17 16  2  0  0  0  0
 17 18  1  0  0  0  0
 18 19  2  0  0  0  0
 19 24  1  0  0  0  0
 19 20  1  0  0  0  0
 20 21  2  0  0  0  0
 21 22  1  0  0  0  0
 21 28  1  0  0  0  0
 22 29  1  0  0  0  0
 23 30  1  0  0  0  0
 23 22  2  0  0  0  0
 24 23  1  0  0  0  0
 25 31  1  0  0  0  0
 25 24  2  0  0  0  0
 26 17  1  0  0  0  0
 27 18  1  0  0  0  0
 32 35  1  6  0  0  0
 32 34  1  0  0  0  0
 32  5  1  0  0  0  0
 33 36  1  0  0  0  0
 33 32  1  0  0  0  0
 33 34  1  0  0  0  0
 34 38  1  1  0  0  0
 37 33  1  0  0  0  0
 39 40  1  0  0  0  0
 39 34  1  0  0  0  0
 40 41  1  0  0  0  0
 42 40  2  0  0  0  0
 43 42  1  0  0  0  0
 44 43  1  0  0  0  0
 45 43  2  0  0  0  0
 45 47  1  0  0  0  0
 46 45  1  0  0  0  0
 47 39  2  0  0  0  0
M  END
>  <minimizedAffinity>
-6.92373705

>  <minimizedRMSD>
9.39998341

$$$$
