
 OpenBabel03252504123D

 25 26  0  0  0  0  0  0  0  0999 V2000
   36.7540   27.0900   40.6180 C   0  0  0  0  0  0  0  0  0  0  0  0
   36.6100   28.0230   41.6310 C   0  0  0  0  0  0  0  0  0  0  0  0
   35.9380   29.2220   41.3350 C   0  0  0  0  0  0  0  0  0  0  0  0
   35.4680   29.4080   40.0900 N   0  0  0  0  0  0  0  0  0  0  0  0
   35.6280   28.4670   39.1180 C   0  0  0  0  0  0  0  0  0  0  0  0
   36.2660   27.3170   39.3810 N   0  0  0  0  0  0  0  0  0  0  0  0
   35.8190   29.9570   42.1160 H   0  0  0  0  0  0  0  0  0  0  0  0
   35.1020   28.7100   37.7800 C   0  0  0  0  0  0  0  0  0  0  0  0
   35.9860   28.9330   36.7290 C   0  0  0  0  0  0  0  0  0  0  0  0
   37.0560   28.9260   36.9010 H   0  0  0  0  0  0  0  0  0  0  0  0
   35.5740   29.1680   35.4380 C   0  0  0  0  0  3  0  0  0  0  0  0
   34.2190   29.1860   35.1730 C   0  0  0  0  0  0  0  0  0  0  0  0
   33.9540   29.3790   34.1250 H   0  0  0  0  0  0  0  0  0  0  0  0
   33.3010   28.9690   36.1880 C   0  0  0  0  0  0  0  0  0  0  0  0
   32.2640   28.9930   35.9240 H   0  0  0  0  0  0  0  0  0  0  0  0
   33.7550   28.7330   37.4830 C   0  0  0  0  0  3  0  0  0  0  0  0
   37.1630   27.7340   42.9860 C   0  0  0  0  0  0  0  0  0  0  0  0
   37.3390   28.9290   43.6800 F   0  0  0  0  0  0  0  0  0  0  0  0
   36.2250   27.0040   43.6800 F   0  0  0  0  0  0  0  0  0  0  0  0
   38.3600   27.1000   42.9950 F   0  0  0  0  0  0  0  0  0  0  0  0
   37.4050   25.9380   40.9200 O   0  0  0  0  0  0  0  0  0  0  0  0
   36.8600   24.6510   41.0120 C   0  0  0  0  0  0  0  0  0  0  0  0
   36.3870   24.5010   42.3290 F   0  0  0  0  0  0  0  0  0  0  0  0
   35.8530   24.4960   40.0910 F   0  0  0  0  0  0  0  0  0  0  0  0
   37.8490   23.6960   40.8900 F   0  0  0  0  0  0  0  0  0  0  0  0
  1 21  1  0  0  0  0
  1  2  1  0  0  0  0
  2 17  1  0  0  0  0
  3  2  2  0  0  0  0
  3  7  1  0  0  0  0
  4  3  1  0  0  0  0
  5  6  1  0  0  0  0
  5  4  2  0  0  0  0
  6  1  2  0  0  0  0
  8  5  1  0  0  0  0
  9 10  1  0  0  0  0
  9  8  2  0  0  0  0
 11  9  1  0  0  0  0
 12 11  2  0  0  0  0
 12 14  1  0  0  0  0
 13 12  1  0  0  0  0
 14 16  2  0  0  0  0
 15 14  1  0  0  0  0
 16  8  1  0  0  0  0
 17 20  1  0  0  0  0
 17 18  1  0  0  0  0
 17 19  1  0  0  0  0
 21 22  1  0  0  0  0
 22 23  1  0  0  0  0
 24 22  1  0  0  0  0
 25 22  1  0  0  0  0
M  END
>  <minimizedAffinity>
-5.31109381

$$$$

 OpenBabel03252504123D

 25 26  0  0  0  0  0  0  0  0999 V2000
   37.1820   30.2340   39.4750 C   0  0  0  0  0  0  0  0  0  0  0  0
   37.8460   30.9690   40.4420 C   0  0  0  0  0  0  0  0  0  0  0  0
   38.2690   30.3020   41.6040 C   0  0  0  0  0  0  0  0  0  0  0  0
   38.0120   28.9880   41.7240 N   0  0  0  0  0  0  0  0  0  0  0  0
   37.3560   28.2970   40.7510 C   0  0  0  0  0  0  0  0  0  0  0  0
   36.9440   28.9160   39.6350 N   0  0  0  0  0  0  0  0  0  0  0  0
   38.7880   30.8620   42.3650 H   0  0  0  0  0  0  0  0  0  0  0  0
   37.0970   26.8720   40.9210 C   0  0  0  0  0  0  0  0  0  0  0  0
   36.7340   26.1060   39.8180 C   0  0  0  0  0  0  0  0  0  0  0  0
   36.6450   26.5630   38.8390 H   0  0  0  0  0  0  0  0  0  0  0  0
   36.4740   24.7590   39.8910 C   0  0  0  0  0  3  0  0  0  0  0  0
   36.5750   24.1340   41.1190 C   0  0  0  0  0  0  0  0  0  0  0  0
   36.3560   23.0590   41.1130 H   0  0  0  0  0  0  0  0  0  0  0  0
   36.9340   24.8570   42.2470 C   0  0  0  0  0  0  0  0  0  0  0  0
   36.9980   24.3210   43.1710 H   0  0  0  0  0  0  0  0  0  0  0  0
   37.1900   26.2200   42.1340 C   0  0  0  0  0  3  0  0  0  0  0  0
   38.0900   32.4240   40.2270 C   0  0  0  0  0  0  0  0  0  0  0  0
   38.6200   32.9830   41.3870 F   0  0  0  0  0  0  0  0  0  0  0  0
   39.0500   32.5530   39.2480 F   0  0  0  0  0  0  0  0  0  0  0  0
   36.9920   33.1520   39.9130 F   0  0  0  0  0  0  0  0  0  0  0  0
   36.7800   30.8940   38.3580 O   0  0  0  0  0  0  0  0  0  0  0  0
   37.3240   30.7990   37.0700 C   0  0  0  0  0  0  0  0  0  0  0  0
   38.6050   30.2330   37.2100 F   0  0  0  0  0  0  0  0  0  0  0  0
   36.5150   30.0310   36.2690 F   0  0  0  0  0  0  0  0  0  0  0  0
   37.5580   32.0550   36.5500 F   0  0  0  0  0  0  0  0  0  0  0  0
  1  6  2  0  0  0  0
  1  2  1  0  0  0  0
  2  3  2  0  0  0  0
  3  4  1  0  0  0  0
  3  7  1  0  0  0  0
  5  8  1  0  0  0  0
  5  4  2  0  0  0  0
  6  5  1  0  0  0  0
  8 16  1  0  0  0  0
  9 11  1  0  0  0  0
  9  8  2  0  0  0  0
 10  9  1  0  0  0  0
 11 12  2  0  0  0  0
 12 14  1  0  0  0  0
 13 12  1  0  0  0  0
 14 15  1  0  0  0  0
 16 14  2  0  0  0  0
 17  2  1  0  0  0  0
 17 18  1  0  0  0  0
 19 17  1  0  0  0  0
 20 17  1  0  0  0  0
 21  1  1  0  0  0  0
 22 23  1  0  0  0  0
 22 21  1  0  0  0  0
 24 22  1  0  0  0  0
 25 22  1  0  0  0  0
M  END
>  <minimizedAffinity>
-5.22229624

$$$$

 OpenBabel03252504123D

 25 26  0  0  0  0  0  0  0  0999 V2000
   38.0150   29.3950   42.2380 C   0  0  0  0  0  0  0  0  0  0  0  0
   38.2360   28.0720   42.5830 C   0  0  0  0  0  0  0  0  0  0  0  0
   39.5490   27.6830   42.8990 C   0  0  0  0  0  0  0  0  0  0  0  0
   40.5250   28.6050   42.8530 N   0  0  0  0  0  0  0  0  0  0  0  0
   40.2700   29.8980   42.5100 C   0  0  0  0  0  0  0  0  0  0  0  0
   39.0240   30.2900   42.2040 N   0  0  0  0  0  0  0  0  0  0  0  0
   39.7350   26.6550   43.1700 H   0  0  0  0  0  0  0  0  0  0  0  0
   41.3590   30.8680   42.4720 C   0  0  0  0  0  0  0  0  0  0  0  0
   41.3490   31.8700   41.5070 C   0  0  0  0  0  0  0  0  0  0  0  0
   40.5390   31.9320   40.7890 H   0  0  0  0  0  0  0  0  0  0  0  0
   42.3340   32.8230   41.4020 C   0  0  0  0  0  3  0  0  0  0  0  0
   43.3860   32.7820   42.2960 C   0  0  0  0  0  0  0  0  0  0  0  0
   44.1400   33.5680   42.1620 H   0  0  0  0  0  0  0  0  0  0  0  0
   43.4390   31.8020   43.2750 C   0  0  0  0  0  0  0  0  0  0  0  0
   44.2770   31.8200   43.9410 H   0  0  0  0  0  0  0  0  0  0  0  0
   42.4220   30.8540   43.3510 C   0  0  0  0  0  3  0  0  0  0  0  0
   37.0940   27.1140   42.6090 C   0  0  0  0  0  0  0  0  0  0  0  0
   36.5270   27.0330   41.3390 F   0  0  0  0  0  0  0  0  0  0  0  0
   37.5950   25.8650   42.9020 F   0  0  0  0  0  0  0  0  0  0  0  0
   36.0920   27.4360   43.4610 F   0  0  0  0  0  0  0  0  0  0  0  0
   36.7410   29.7550   41.9350 O   0  0  0  0  0  0  0  0  0  0  0  0
   36.2610   30.2370   40.7110 C   0  0  0  0  0  0  0  0  0  0  0  0
   34.9810   29.6800   40.5270 F   0  0  0  0  0  0  0  0  0  0  0  0
   36.2190   31.6100   40.7250 F   0  0  0  0  0  0  0  0  0  0  0  0
   37.0080   29.7340   39.6650 F   0  0  0  0  0  0  0  0  0  0  0  0
  1  2  1  0  0  0  0
  2 17  1  0  0  0  0
  2  3  2  0  0  0  0
  3  7  1  0  0  0  0
  4  3  1  0  0  0  0
  5  4  2  0  0  0  0
  6  1  2  0  0  0  0
  6  5  1  0  0  0  0
  8  5  1  0  0  0  0
  8 16  1  0  0  0  0
  9  8  2  0  0  0  0
 10  9  1  0  0  0  0
 11  9  1  0  0  0  0
 11 12  2  0  0  0  0
 12 14  1  0  0  0  0
 13 12  1  0  0  0  0
 14 16  2  0  0  0  0
 14 15  1  0  0  0  0
 17 19  1  0  0  0  0
 17 20  1  0  0  0  0
 18 17  1  0  0  0  0
 21  1  1  0  0  0  0
 22 24  1  0  0  0  0
 22 21  1  0  0  0  0
 23 22  1  0  0  0  0
 25 22  1  0  0  0  0
M  END
>  <minimizedAffinity>
-5.19184399

$$$$

 OpenBabel03252504123D

 25 26  0  0  0  0  0  0  0  0999 V2000
   37.6890   26.9450   41.5410 C   0  0  0  0  0  0  0  0  0  0  0  0
   37.0370   25.9980   40.7680 C   0  0  0  0  0  0  0  0  0  0  0  0
   36.4410   26.4220   39.5680 C   0  0  0  0  0  0  0  0  0  0  0  0
   36.5310   27.7190   39.2250 N   0  0  0  0  0  0  0  0  0  0  0  0
   37.1810   28.6220   40.0110 C   0  0  0  0  0  0  0  0  0  0  0  0
   37.7560   28.2370   41.1590 N   0  0  0  0  0  0  0  0  0  0  0  0
   35.9300   25.6950   38.9560 H   0  0  0  0  0  0  0  0  0  0  0  0
   37.2540   30.0200   39.6020 C   0  0  0  0  0  0  0  0  0  0  0  0
   37.3320   31.0130   40.5730 C   0  0  0  0  0  0  0  0  0  0  0  0
   37.3390   30.7520   41.6250 H   0  0  0  0  0  0  0  0  0  0  0  0
   37.4050   32.3520   40.2740 C   0  0  0  0  0  3  0  0  0  0  0  0
   37.3990   32.7310   38.9460 C   0  0  0  0  0  0  0  0  0  0  0  0
   37.4590   33.8130   38.7720 H   0  0  0  0  0  0  0  0  0  0  0  0
   37.3230   31.7770   37.9430 C   0  0  0  0  0  0  0  0  0  0  0  0
   37.3230   32.1290   36.9320 H   0  0  0  0  0  0  0  0  0  0  0  0
   37.2510   30.4290   38.2840 C   0  0  0  0  0  3  0  0  0  0  0  0
   36.9860   24.5790   41.2240 C   0  0  0  0  0  0  0  0  0  0  0  0
   36.1130   23.8620   40.4110 F   0  0  0  0  0  0  0  0  0  0  0  0
   38.2370   24.0320   41.0460 F   0  0  0  0  0  0  0  0  0  0  0  0
   36.5660   24.3990   42.4980 F   0  0  0  0  0  0  0  0  0  0  0  0
   38.2600   26.5190   42.6970 O   0  0  0  0  0  0  0  0  0  0  0  0
   39.6260   26.4530   42.9980 C   0  0  0  0  0  0  0  0  0  0  0  0
   40.3080   26.3240   41.7740 F   0  0  0  0  0  0  0  0  0  0  0  0
   40.0160   27.5800   43.6800 F   0  0  0  0  0  0  0  0  0  0  0  0
   39.9170   25.2880   43.6780 F   0  0  0  0  0  0  0  0  0  0  0  0
  1 21  1  0  0  0  0
  2 17  1  0  0  0  0
  2  1  2  0  0  0  0
  3  2  1  0  0  0  0
  4  3  2  0  0  0  0
  4  5  1  0  0  0  0
  5  6  2  0  0  0  0
  6  1  1  0  0  0  0
  7  3  1  0  0  0  0
  8  5  1  0  0  0  0
  8  9  1  0  0  0  0
  9 10  1  0  0  0  0
 11  9  2  0  0  0  0
 12 11  1  0  0  0  0
 13 12  1  0  0  0  0
 14 16  1  0  0  0  0
 14 12  2  0  0  0  0
 15 14  1  0  0  0  0
 16  8  2  0  0  0  0
 17 20  1  0  0  0  0
 18 17  1  0  0  0  0
 19 17  1  0  0  0  0
 21 22  1  0  0  0  0
 22 25  1  0  0  0  0
 22 24  1  0  0  0  0
 23 22  1  0  0  0  0
M  END
>  <minimizedAffinity>
-5.13425255

$$$$

 OpenBabel03252504123D

 25 26  0  0  0  0  0  0  0  0999 V2000
   37.6540   28.4960   40.9370 C   0  0  0  0  0  0  0  0  0  0  0  0
   38.0600   29.7530   41.3550 C   0  0  0  0  0  0  0  0  0  0  0  0
   37.5750   30.8700   40.6550 C   0  0  0  0  0  0  0  0  0  0  0  0
   36.7430   30.6710   39.6180 N   0  0  0  0  0  0  0  0  0  0  0  0
   36.3650   29.4200   39.2360 C   0  0  0  0  0  0  0  0  0  0  0  0
   36.8170   28.3410   39.8910 N   0  0  0  0  0  0  0  0  0  0  0  0
   37.8830   31.8550   40.9700 H   0  0  0  0  0  0  0  0  0  0  0  0
   35.4600   29.2490   38.1050 C   0  0  0  0  0  0  0  0  0  0  0  0
   34.1130   28.9910   38.3400 C   0  0  0  0  0  0  0  0  0  0  0  0
   33.7380   28.9180   39.3540 H   0  0  0  0  0  0  0  0  0  0  0  0
   33.1940   28.8180   37.3320 C   0  0  0  0  0  3  0  0  0  0  0  0
   33.6290   28.9030   36.0240 C   0  0  0  0  0  0  0  0  0  0  0  0
   32.8490   28.7560   35.2660 H   0  0  0  0  0  0  0  0  0  0  0  0
   34.9620   29.1580   35.7410 C   0  0  0  0  0  0  0  0  0  0  0  0
   35.2410   29.2140   34.7090 H   0  0  0  0  0  0  0  0  0  0  0  0
   35.8630   29.3280   36.7880 C   0  0  0  0  0  3  0  0  0  0  0  0
   38.9870   29.8820   42.5160 C   0  0  0  0  0  0  0  0  0  0  0  0
   39.4260   31.2000   42.6150 F   0  0  0  0  0  0  0  0  0  0  0  0
   38.2700   29.6130   43.6610 F   0  0  0  0  0  0  0  0  0  0  0  0
   40.0950   29.1060   42.4580 F   0  0  0  0  0  0  0  0  0  0  0  0
   38.1320   27.4270   41.6240 O   0  0  0  0  0  0  0  0  0  0  0  0
   37.4730   26.6880   42.6150 C   0  0  0  0  0  0  0  0  0  0  0  0
   38.3820   26.5300   43.6780 F   0  0  0  0  0  0  0  0  0  0  0  0
   36.3340   27.3420   43.0150 F   0  0  0  0  0  0  0  0  0  0  0  0
   37.2280   25.4020   42.1780 F   0  0  0  0  0  0  0  0  0  0  0  0
  1  2  1  0  0  0  0
  1 21  1  0  0  0  0
  2 17  1  0  0  0  0
  3  7  1  0  0  0  0
  3  2  2  0  0  0  0
  4  3  1  0  0  0  0
  5  4  2  0  0  0  0
  5  6  1  0  0  0  0
  6  1  2  0  0  0  0
  8  9  1  0  0  0  0
  8  5  1  0  0  0  0
  9 10  1  0  0  0  0
 11  9  2  0  0  0  0
 12 11  1  0  0  0  0
 13 12  1  0  0  0  0
 14 12  2  0  0  0  0
 14 16  1  0  0  0  0
 15 14  1  0  0  0  0
 16  8  2  0  0  0  0
 17 18  1  0  0  0  0
 17 19  1  0  0  0  0
 20 17  1  0  0  0  0
 21 22  1  0  0  0  0
 22 24  1  0  0  0  0
 22 23  1  0  0  0  0
 25 22  1  0  0  0  0
M  END
>  <minimizedAffinity>
-5.12838697

$$$$

 OpenBabel03252504123D

 25 26  0  0  0  0  0  0  0  0999 V2000
   36.8810   30.1640   40.1960 C   0  0  0  0  0  0  0  0  0  0  0  0
   36.1660   29.7600   39.0800 C   0  0  0  0  0  0  0  0  0  0  0  0
   36.5770   30.2360   37.8230 C   0  0  0  0  0  0  0  0  0  0  0  0
   37.6400   31.0570   37.7610 N   0  0  0  0  0  0  0  0  0  0  0  0
   38.3190   31.4330   38.8800 C   0  0  0  0  0  0  0  0  0  0  0  0
   37.9420   30.9890   40.0880 N   0  0  0  0  0  0  0  0  0  0  0  0
   36.0300   29.9290   36.9470 H   0  0  0  0  0  0  0  0  0  0  0  0
   39.4670   32.3260   38.7660 C   0  0  0  0  0  0  0  0  0  0  0  0
   40.3420   32.1810   37.6950 C   0  0  0  0  0  0  0  0  0  0  0  0
   40.1750   31.4120   36.9510 H   0  0  0  0  0  0  0  0  0  0  0  0
   41.4460   32.9800   37.5140 C   0  0  0  0  0  3  0  0  0  0  0  0
   41.6990   33.9730   38.4390 C   0  0  0  0  0  0  0  0  0  0  0  0
   42.5930   34.5770   38.2390 H   0  0  0  0  0  0  0  0  0  0  0  0
   40.8540   34.1560   39.5230 C   0  0  0  0  0  0  0  0  0  0  0  0
   41.0990   34.9420   40.2070 H   0  0  0  0  0  0  0  0  0  0  0  0
   39.7460   33.3280   39.6740 C   0  0  0  0  0  3  0  0  0  0  0  0
   34.9990   28.8460   39.2410 C   0  0  0  0  0  0  0  0  0  0  0  0
   34.3200   28.7410   38.0300 F   0  0  0  0  0  0  0  0  0  0  0  0
   35.4810   27.5910   39.5380 F   0  0  0  0  0  0  0  0  0  0  0  0
   34.0870   29.2340   40.1640 F   0  0  0  0  0  0  0  0  0  0  0  0
   36.4700   29.6950   41.4020 O   0  0  0  0  0  0  0  0  0  0  0  0
   37.1280   28.7720   42.2250 C   0  0  0  0  0  0  0  0  0  0  0  0
   37.9740   28.0130   41.3930 F   0  0  0  0  0  0  0  0  0  0  0  0
   37.8350   29.4280   43.2030 F   0  0  0  0  0  0  0  0  0  0  0  0
   36.2340   27.8530   42.7350 F   0  0  0  0  0  0  0  0  0  0  0  0
  1 21  1  0  0  0  0
  2 17  1  0  0  0  0
  2  1  2  0  0  0  0
  3  2  1  0  0  0  0
  4  3  2  0  0  0  0
  4  5  1  0  0  0  0
  5  6  2  0  0  0  0
  6  1  1  0  0  0  0
  7  3  1  0  0  0  0
  8  5  1  0  0  0  0
  8 16  1  0  0  0  0
  9  8  2  0  0  0  0
 10  9  1  0  0  0  0
 11  9  1  0  0  0  0
 11 12  2  0  0  0  0
 12 14  1  0  0  0  0
 13 12  1  0  0  0  0
 14 16  2  0  0  0  0
 14 15  1  0  0  0  0
 17 19  1  0  0  0  0
 17 20  1  0  0  0  0
 18 17  1  0  0  0  0
 21 22  1  0  0  0  0
 22 25  1  0  0  0  0
 22 24  1  0  0  0  0
 23 22  1  0  0  0  0
M  END
>  <minimizedAffinity>
-5.04192829

$$$$

 OpenBabel03252504123D

 25 26  0  0  0  0  0  0  0  0999 V2000
   38.7800   30.2210   40.8010 C   0  0  0  0  0  0  0  0  0  0  0  0
   37.7830   31.0730   40.3560 C   0  0  0  0  0  0  0  0  0  0  0  0
   36.5170   30.5250   40.0860 C   0  0  0  0  0  0  0  0  0  0  0  0
   36.3320   29.2070   40.2710 N   0  0  0  0  0  0  0  0  0  0  0  0
   37.3370   28.3990   40.7110 C   0  0  0  0  0  0  0  0  0  0  0  0
   38.5510   28.9030   40.9750 N   0  0  0  0  0  0  0  0  0  0  0  0
   35.7320   31.1770   39.7390 H   0  0  0  0  0  0  0  0  0  0  0  0
   37.0920   26.9730   40.8990 C   0  0  0  0  0  0  0  0  0  0  0  0
   36.6950   26.2000   39.8130 C   0  0  0  0  0  0  0  0  0  0  0  0
   36.5670   26.6500   38.8360 H   0  0  0  0  0  0  0  0  0  0  0  0
   36.4440   24.8510   39.9030 C   0  0  0  0  0  3  0  0  0  0  0  0
   36.5940   24.2340   41.1300 C   0  0  0  0  0  0  0  0  0  0  0  0
   36.3800   23.1580   41.1370 H   0  0  0  0  0  0  0  0  0  0  0  0
   36.9890   24.9650   42.2400 C   0  0  0  0  0  0  0  0  0  0  0  0
   37.0890   24.4340   43.1640 H   0  0  0  0  0  0  0  0  0  0  0  0
   37.2330   26.3290   42.1110 C   0  0  0  0  0  3  0  0  0  0  0  0
   38.0760   32.5240   40.1780 C   0  0  0  0  0  0  0  0  0  0  0  0
   39.0530   32.6840   39.1980 F   0  0  0  0  0  0  0  0  0  0  0  0
   36.9350   33.1320   39.7050 F   0  0  0  0  0  0  0  0  0  0  0  0
   38.5290   33.1600   41.2840 F   0  0  0  0  0  0  0  0  0  0  0  0
   39.9970   30.7660   41.0580 O   0  0  0  0  0  0  0  0  0  0  0  0
   40.6570   30.8340   42.2920 C   0  0  0  0  0  0  0  0  0  0  0  0
   39.6940   31.2060   43.2490 F   0  0  0  0  0  0  0  0  0  0  0  0
   41.2270   29.6210   42.5910 F   0  0  0  0  0  0  0  0  0  0  0  0
   41.5670   31.8710   42.2980 F   0  0  0  0  0  0  0  0  0  0  0  0
  1  6  1  0  0  0  0
  1 21  1  0  0  0  0
  2  1  2  0  0  0  0
  3  4  2  0  0  0  0
  3  2  1  0  0  0  0
  4  5  1  0  0  0  0
  5  8  1  0  0  0  0
  5  6  2  0  0  0  0
  7  3  1  0  0  0  0
  8 16  1  0  0  0  0
  9 11  1  0  0  0  0
  9  8  2  0  0  0  0
 10  9  1  0  0  0  0
 11 12  2  0  0  0  0
 12 13  1  0  0  0  0
 12 14  1  0  0  0  0
 14 15  1  0  0  0  0
 16 14  2  0  0  0  0
 17  2  1  0  0  0  0
 17 20  1  0  0  0  0
 18 17  1  0  0  0  0
 19 17  1  0  0  0  0
 21 22  1  0  0  0  0
 22 25  1  0  0  0  0
 22 24  1  0  0  0  0
 22 23  1  0  0  0  0
M  END
>  <minimizedAffinity>
-5.02790928

$$$$

 OpenBabel03252504123D

 25 26  0  0  0  0  0  0  0  0999 V2000
   37.6940   30.3210   40.1880 C   0  0  0  0  0  0  0  0  0  0  0  0
   37.4170   30.6640   38.8750 C   0  0  0  0  0  0  0  0  0  0  0  0
   36.9650   29.6530   38.0090 C   0  0  0  0  0  0  0  0  0  0  0  0
   36.8220   28.4070   38.4910 N   0  0  0  0  0  0  0  0  0  0  0  0
   37.1030   28.1060   39.7900 C   0  0  0  0  0  0  0  0  0  0  0  0
   37.5350   29.0570   40.6310 N   0  0  0  0  0  0  0  0  0  0  0  0
   36.7460   29.9060   36.9840 H   0  0  0  0  0  0  0  0  0  0  0  0
   36.9340   26.7400   40.2720 C   0  0  0  0  0  0  0  0  0  0  0  0
   37.2020   26.4480   41.6060 C   0  0  0  0  0  0  0  0  0  0  0  0
   37.5340   27.2270   42.2820 H   0  0  0  0  0  0  0  0  0  0  0  0
   37.0680   25.1890   42.1400 C   0  0  0  0  0  3  0  0  0  0  0  0
   36.6480   24.1640   41.3150 C   0  0  0  0  0  0  0  0  0  0  0  0
   36.5600   23.1840   41.8000 H   0  0  0  0  0  0  0  0  0  0  0  0
   36.3690   24.4080   39.9790 C   0  0  0  0  0  0  0  0  0  0  0  0
   36.0460   23.5770   39.3870 H   0  0  0  0  0  0  0  0  0  0  0  0
   36.5160   25.6960   39.4720 C   0  0  0  0  0  3  0  0  0  0  0  0
   37.6040   32.0730   38.4240 C   0  0  0  0  0  0  0  0  0  0  0  0
   38.9520   32.4140   38.5140 F   0  0  0  0  0  0  0  0  0  0  0  0
   37.2650   32.1390   37.0910 F   0  0  0  0  0  0  0  0  0  0  0  0
   36.9210   33.0010   39.1350 F   0  0  0  0  0  0  0  0  0  0  0  0
   38.1290   31.3090   41.0110 O   0  0  0  0  0  0  0  0  0  0  0  0
   39.4250   31.4910   41.5120 C   0  0  0  0  0  0  0  0  0  0  0  0
   39.7440   32.8500   41.3330 F   0  0  0  0  0  0  0  0  0  0  0  0
   39.4770   31.1280   42.8360 F   0  0  0  0  0  0  0  0  0  0  0  0
   40.3440   30.8160   40.7350 F   0  0  0  0  0  0  0  0  0  0  0  0
  1  6  1  0  0  0  0
  1 21  1  0  0  0  0
  2  1  2  0  0  0  0
  3  4  2  0  0  0  0
  3  2  1  0  0  0  0
  4  5  1  0  0  0  0
  5  8  1  0  0  0  0
  5  6  2  0  0  0  0
  7  3  1  0  0  0  0
  8  9  1  0  0  0  0
  9 11  2  0  0  0  0
  9 10  1  0  0  0  0
 12 13  1  0  0  0  0
 12 11  1  0  0  0  0
 14 12  2  0  0  0  0
 15 14  1  0  0  0  0
 16 14  1  0  0  0  0
 16  8  2  0  0  0  0
 17 18  1  0  0  0  0
 17  2  1  0  0  0  0
 17 20  1  0  0  0  0
 19 17  1  0  0  0  0
 21 22  1  0  0  0  0
 22 24  1  0  0  0  0
 23 22  1  0  0  0  0
 25 22  1  0  0  0  0
M  END
>  <minimizedAffinity>
-4.98872948

$$$$

 OpenBabel03252504123D

 25 26  0  0  0  0  0  0  0  0999 V2000
   38.5140   30.0020   40.2100 C   0  0  0  0  0  0  0  0  0  0  0  0
   39.3980   30.3580   41.2150 C   0  0  0  0  0  0  0  0  0  0  0  0
   39.6920   29.4050   42.2050 C   0  0  0  0  0  0  0  0  0  0  0  0
   39.1060   28.1970   42.1330 N   0  0  0  0  0  0  0  0  0  0  0  0
   38.2410   27.8820   41.1280 C   0  0  0  0  0  0  0  0  0  0  0  0
   37.9480   28.7780   40.1740 N   0  0  0  0  0  0  0  0  0  0  0  0
   40.3780   29.6690   42.9930 H   0  0  0  0  0  0  0  0  0  0  0  0
   37.6270   26.5590   41.0880 C   0  0  0  0  0  0  0  0  0  0  0  0
   37.1950   26.0440   39.8700 C   0  0  0  0  0  0  0  0  0  0  0  0
   37.3120   26.6190   38.9590 H   0  0  0  0  0  0  0  0  0  0  0  0
   36.6070   24.8080   39.7440 C   0  0  0  0  0  3  0  0  0  0  0  0
   36.4370   24.0410   40.8800 C   0  0  0  0  0  0  0  0  0  0  0  0
   35.9630   23.0650   40.7140 H   0  0  0  0  0  0  0  0  0  0  0  0
   36.8530   24.5130   42.1150 C   0  0  0  0  0  0  0  0  0  0  0  0
   36.6960   23.8750   42.9600 H   0  0  0  0  0  0  0  0  0  0  0  0
   37.4440   25.7700   42.2040 C   0  0  0  0  0  3  0  0  0  0  0  0
   40.0030   31.7210   41.2180 C   0  0  0  0  0  0  0  0  0  0  0  0
   39.0160   32.6660   41.4880 F   0  0  0  0  0  0  0  0  0  0  0  0
   40.9060   31.7810   42.2560 F   0  0  0  0  0  0  0  0  0  0  0  0
   40.5900   32.0940   40.0560 F   0  0  0  0  0  0  0  0  0  0  0  0
   38.2410   30.9340   39.2610 O   0  0  0  0  0  0  0  0  0  0  0  0
   37.0060   31.5360   38.9900 C   0  0  0  0  0  0  0  0  0  0  0  0
   36.2890   31.5610   40.2010 F   0  0  0  0  0  0  0  0  0  0  0  0
   37.1950   32.8010   38.4880 F   0  0  0  0  0  0  0  0  0  0  0  0
   36.2490   30.7370   38.1590 F   0  0  0  0  0  0  0  0  0  0  0  0
  1  2  1  0  0  0  0
  2 17  1  0  0  0  0
  2  3  2  0  0  0  0
  3  7  1  0  0  0  0
  4  3  1  0  0  0  0
  5  4  2  0  0  0  0
  6  1  2  0  0  0  0
  6  5  1  0  0  0  0
  8  5  1  0  0  0  0
  8 16  1  0  0  0  0
  9  8  2  0  0  0  0
 10  9  1  0  0  0  0
 11  9  1  0  0  0  0
 11 12  2  0  0  0  0
 12 14  1  0  0  0  0
 13 12  1  0  0  0  0
 14 16  2  0  0  0  0
 14 15  1  0  0  0  0
 17 18  1  0  0  0  0
 17 19  1  0  0  0  0
 20 17  1  0  0  0  0
 21  1  1  0  0  0  0
 22 21  1  0  0  0  0
 22 23  1  0  0  0  0
 24 22  1  0  0  0  0
 25 22  1  0  0  0  0
M  END
>  <minimizedAffinity>
-4.94576645

$$$$
