
 OpenBabel03252508403D

 41 44  0  0  0  0  0  0  0  0999 V2000
   38.9340   30.4070   38.7920 C   0  0  0  0  0  0  0  0  0  0  0  0
   40.3050   30.4000   38.7360 C   0  0  0  0  0  0  0  0  0  0  0  0
   40.9220   29.1970   38.6010 C   0  0  0  0  0  0  0  0  0  0  0  0
   40.2500   27.9960   38.5160 C   0  0  0  0  0  0  0  0  0  0  0  0
   38.8780   28.0350   38.5750 C   0  0  0  0  0  0  0  0  0  0  0  0
   38.2060   29.2300   38.7130 C   0  0  0  0  0  0  0  0  0  0  0  0
   42.0070   29.1900   38.5560 H   0  0  0  0  0  0  0  0  0  0  0  0
   40.7560   27.0460   38.4080 H   0  0  0  0  0  0  0  0  0  0  0  0
   38.3360   27.0890   38.5100 H   0  0  0  0  0  0  0  0  0  0  0  0
   42.1410   33.5620   37.7980 C   0  0  0  0  0  0  0  0  0  0  0  0
   41.5020   32.3200   37.6800 C   0  0  0  0  0  0  0  0  0  0  0  0
   40.9710   31.6870   38.8290 C   0  0  0  0  0  0  0  0  0  0  0  0
   41.1270   32.3580   40.0000 N   0  0  0  0  0  0  0  0  0  0  0  0
   41.7410   33.5420   40.0840 C   0  0  0  0  0  0  0  0  0  0  0  0
   42.2450   34.1430   38.9960 N   0  0  0  0  0  0  0  0  0  0  0  0
   42.6570   34.1590   36.6380 N   0  0  0  0  0  0  0  0  0  0  0  0
   41.3880   31.7980   36.7290 H   0  0  0  0  0  0  0  0  0  0  0  0
   41.7840   33.9480   41.0890 H   0  0  0  0  0  0  0  0  0  0  0  0
   42.2730   35.1120   36.5460 H   0  0  0  0  0  0  0  0  0  0  0  0
   43.3150   33.5070   36.1240 H   0  0  0  0  0  0  0  0  0  0  0  0
   36.7500   29.1620   38.7710 C   0  0  0  0  0  0  0  0  0  0  0  0
   36.0980   29.3210   37.5750 C   0  0  0  0  0  0  0  0  0  0  0  0
   34.7120   29.2830   37.4510 C   0  0  0  0  0  0  0  0  0  0  0  0
   33.9680   29.0740   38.5850 C   0  0  0  0  0  0  0  0  0  0  0  0
   34.6000   28.9130   39.7950 C   0  0  0  0  0  0  0  0  0  0  0  0
   35.9780   28.9560   39.8830 C   0  0  0  0  0  0  0  0  0  0  0  0
   36.6030   29.4910   36.6200 H   0  0  0  0  0  0  0  0  0  0  0  0
   34.2020   29.4090   36.5040 H   0  0  0  0  0  0  0  0  0  0  0  0
   32.8880   29.0240   38.6210 H   0  0  0  0  0  0  0  0  0  0  0  0
   34.0840   28.7470   40.7230 H   0  0  0  0  0  0  0  0  0  0  0  0
   36.6590   28.7860   41.1650 C   0  0  0  0  0  0  0  0  0  0  0  0
   36.6370   27.4330   41.5350 C   0  0  0  0  0  0  0  0  0  0  0  0
   36.1890   26.5980   40.9730 H   0  0  0  0  0  0  0  0  0  0  0  0
   37.2130   26.9990   42.7160 C   0  0  0  0  0  3  0  0  0  0  0  0
   37.8270   27.9220   43.5550 C   0  0  0  0  0  0  0  0  0  0  0  0
   38.2850   27.6100   44.4810 H   0  0  0  0  0  0  0  0  0  0  0  0
   37.8260   29.2280   43.1540 C   0  0  0  0  0  0  0  0  0  0  0  0
   38.2940   29.9920   43.7760 H   0  0  0  0  0  0  0  0  0  0  0  0
   37.2630   29.6930   41.9910 C   0  0  0  0  0  3  0  0  0  0  0  0
   37.5920   32.6360   39.0490 N   0  0  0  0  0  0  0  0  0  0  0  0
   38.1990   31.6350   38.9370 C   0  0  0  0  0  0  0  0  0  0  0  0
  1 41  1  0  0  0  0
  2  1  1  0  0  0  0
  2 12  1  0  0  0  0
  3  2  2  0  0  0  0
  4  5  2  0  0  0  0
  4  3  1  0  0  0  0
  5  6  1  0  0  0  0
  6 21  1  0  0  0  0
  6  1  2  0  0  0  0
  7  3  1  0  0  0  0
  8  4  1  0  0  0  0
  9  5  1  0  0  0  0
 10 15  1  0  0  0  0
 11 10  2  0  0  0  0
 11 12  1  0  0  0  0
 12 13  2  0  0  0  0
 13 14  1  0  0  0  0
 14 18  1  0  0  0  0
 15 14  2  0  0  0  0
 16 10  1  0  0  0  0
 17 11  1  0  0  0  0
 19 16  1  0  0  0  0
 20 16  1  0  0  0  0
 21 26  1  0  0  0  0
 22 21  2  0  0  0  0
 23 22  1  0  0  0  0
 23 24  2  0  0  0  0
 24 29  1  0  0  0  0
 24 25  1  0  0  0  0
 25 26  2  0  0  0  0
 25 30  1  0  0  0  0
 26 31  1  0  0  0  0
 27 22  1  0  0  0  0
 28 23  1  0  0  0  0
 31 32  2  0  0  0  0
 31 39  1  0  0  0  0
 32 34  1  0  0  0  0
 33 32  1  0  0  0  0
 34 35  2  0  0  0  0
 35 36  1  0  0  0  0
 37 35  1  0  0  0  0
 37 38  1  0  0  0  0
 39 37  2  0  0  0  0
 41 40  3  0  0  0  0
M  END
>  <minimizedAffinity>
-6.66350794

$$$$

 OpenBabel03252508403D

 41 44  0  0  0  0  0  0  0  0999 V2000
   37.9830   28.0270   41.1660 C   0  0  0  0  0  0  0  0  0  0  0  0
   37.8610   29.1070   42.0030 C   0  0  0  0  0  0  0  0  0  0  0  0
   37.3250   28.8910   43.2330 C   0  0  0  0  0  0  0  0  0  0  0  0
   36.9030   27.6570   43.6800 C   0  0  0  0  0  0  0  0  0  0  0  0
   37.0370   26.5950   42.8190 C   0  0  0  0  0  0  0  0  0  0  0  0
   37.5740   26.7620   41.5610 C   0  0  0  0  0  0  0  0  0  0  0  0
   37.2270   29.7460   43.8970 H   0  0  0  0  0  0  0  0  0  0  0  0
   36.4780   27.5010   44.6620 H   0  0  0  0  0  0  0  0  0  0  0  0
   36.7060   25.6120   43.1620 H   0  0  0  0  0  0  0  0  0  0  0  0
   37.8770   32.5420   40.4380 C   0  0  0  0  0  0  0  0  0  0  0  0
   37.4090   31.3130   40.9230 C   0  0  0  0  0  0  0  0  0  0  0  0
   38.3170   30.3870   41.4920 C   0  0  0  0  0  0  0  0  0  0  0  0
   39.6180   30.7770   41.5250 N   0  0  0  0  0  0  0  0  0  0  0  0
   40.0370   31.9560   41.0540 C   0  0  0  0  0  0  0  0  0  0  0  0
   39.1780   32.8340   40.5150 N   0  0  0  0  0  0  0  0  0  0  0  0
   36.9490   33.4340   39.8800 N   0  0  0  0  0  0  0  0  0  0  0  0
   36.3590   31.0200   40.8870 H   0  0  0  0  0  0  0  0  0  0  0  0
   41.1040   32.1180   41.1540 H   0  0  0  0  0  0  0  0  0  0  0  0
   37.0270   34.3470   40.3540 H   0  0  0  0  0  0  0  0  0  0  0  0
   36.3860   32.9770   39.1070 H   0  0  0  0  0  0  0  0  0  0  0  0
   37.6690   25.5720   40.7240 C   0  0  0  0  0  0  0  0  0  0  0  0
   36.5740   25.3020   39.9430 C   0  0  0  0  0  0  0  0  0  0  0  0
   36.4990   24.2070   39.0870 C   0  0  0  0  0  0  0  0  0  0  0  0
   37.5770   23.3610   39.0240 C   0  0  0  0  0  0  0  0  0  0  0  0
   38.6870   23.6120   39.7980 C   0  0  0  0  0  0  0  0  0  0  0  0
   38.7280   24.7080   40.6380 C   0  0  0  0  0  0  0  0  0  0  0  0
   35.6700   25.9160   39.9250 H   0  0  0  0  0  0  0  0  0  0  0  0
   35.6320   24.0000   38.4730 H   0  0  0  0  0  0  0  0  0  0  0  0
   37.6420   22.4800   38.4010 H   0  0  0  0  0  0  0  0  0  0  0  0
   39.5660   22.9940   39.8020 H   0  0  0  0  0  0  0  0  0  0  0  0
   39.9020   24.9810   41.4640 C   0  0  0  0  0  0  0  0  0  0  0  0
   40.9310   25.5000   40.6650 C   0  0  0  0  0  0  0  0  0  0  0  0
   40.8980   25.6900   39.5800 H   0  0  0  0  0  0  0  0  0  0  0  0
   42.1590   25.8430   41.2030 C   0  0  0  0  0  3  0  0  0  0  0  0
   42.3800   25.6690   42.5650 C   0  0  0  0  0  0  0  0  0  0  0  0
   43.3280   25.9280   43.0110 H   0  0  0  0  0  0  0  0  0  0  0  0
   41.3500   25.1610   43.3040 C   0  0  0  0  0  0  0  0  0  0  0  0
   41.4700   25.0050   44.3770 H   0  0  0  0  0  0  0  0  0  0  0  0
   40.1200   24.8100   42.8030 C   0  0  0  0  0  3  0  0  0  0  0  0
   38.9920   28.2680   38.7670 N   0  0  0  0  0  0  0  0  0  0  0  0
   38.5370   28.1640   39.8460 C   0  0  0  0  0  0  0  0  0  0  0  0
  1  6  2  0  0  0  0
  1  2  1  0  0  0  0
  2  3  2  0  0  0  0
  3  4  1  0  0  0  0
  3  7  1  0  0  0  0
  4  8  1  0  0  0  0
  5  9  1  0  0  0  0
  5  4  2  0  0  0  0
  6  5  1  0  0  0  0
 10 15  2  0  0  0  0
 10 11  1  0  0  0  0
 11 12  2  0  0  0  0
 12 13  1  0  0  0  0
 12  2  1  0  0  0  0
 14 18  1  0  0  0  0
 14 13  2  0  0  0  0
 15 14  1  0  0  0  0
 16 19  1  0  0  0  0
 16 10  1  0  0  0  0
 17 11  1  0  0  0  0
 20 16  1  0  0  0  0
 21  6  1  0  0  0  0
 22 21  2  0  0  0  0
 23 22  1  0  0  0  0
 24 23  2  0  0  0  0
 24 25  1  0  0  0  0
 25 30  1  0  0  0  0
 25 26  2  0  0  0  0
 26 21  1  0  0  0  0
 26 31  1  0  0  0  0
 27 22  1  0  0  0  0
 28 23  1  0  0  0  0
 29 24  1  0  0  0  0
 31 39  1  0  0  0  0
 32 34  1  0  0  0  0
 32 31  2  0  0  0  0
 33 32  1  0  0  0  0
 34 35  2  0  0  0  0
 35 36  1  0  0  0  0
 35 37  1  0  0  0  0
 37 38  1  0  0  0  0
 39 37  2  0  0  0  0
 40 41  3  0  0  0  0
 41  1  1  0  0  0  0
M  END
>  <minimizedAffinity>
-6.49870253

$$$$

 OpenBabel03252508403D

 41 44  0  0  0  0  0  0  0  0999 V2000
   38.7890   30.6140   39.0050 C   0  0  0  0  0  0  0  0  0  0  0  0
   39.2530   31.8370   39.4180 C   0  0  0  0  0  0  0  0  0  0  0  0
   38.3840   32.6490   40.0760 C   0  0  0  0  0  0  0  0  0  0  0  0
   37.0750   32.3120   40.3470 C   0  0  0  0  0  0  0  0  0  0  0  0
   36.6390   31.0820   39.9190 C   0  0  0  0  0  0  0  0  0  0  0  0
   37.4820   30.2220   39.2480 C   0  0  0  0  0  0  0  0  0  0  0  0
   38.7500   33.6180   40.4040 H   0  0  0  0  0  0  0  0  0  0  0  0
   36.3950   32.9700   40.8710 H   0  0  0  0  0  0  0  0  0  0  0  0
   35.6040   30.8040   40.1280 H   0  0  0  0  0  0  0  0  0  0  0  0
   42.3170   33.3010   37.7690 C   0  0  0  0  0  0  0  0  0  0  0  0
   40.9720   33.0150   38.0420 C   0  0  0  0  0  0  0  0  0  0  0  0
   40.6380   32.1510   39.1130 C   0  0  0  0  0  0  0  0  0  0  0  0
   41.6840   31.6480   39.8180 N   0  0  0  0  0  0  0  0  0  0  0  0
   42.9580   31.9380   39.5350 C   0  0  0  0  0  0  0  0  0  0  0  0
   43.2770   32.7570   38.5210 N   0  0  0  0  0  0  0  0  0  0  0  0
   42.6110   34.1610   36.7000 N   0  0  0  0  0  0  0  0  0  0  0  0
   40.1460   33.4290   37.4630 H   0  0  0  0  0  0  0  0  0  0  0  0
   43.6770   31.4580   40.1900 H   0  0  0  0  0  0  0  0  0  0  0  0
   43.2050   34.9330   37.0380 H   0  0  0  0  0  0  0  0  0  0  0  0
   42.1640   33.8270   35.7990 H   0  0  0  0  0  0  0  0  0  0  0  0
   36.9200   28.9420   38.8330 C   0  0  0  0  0  0  0  0  0  0  0  0
   36.3360   28.9200   37.5920 C   0  0  0  0  0  0  0  0  0  0  0  0
   35.7530   27.7810   37.0430 C   0  0  0  0  0  0  0  0  0  0  0  0
   35.7670   26.6270   37.7860 C   0  0  0  0  0  0  0  0  0  0  0  0
   36.3470   26.6250   39.0340 C   0  0  0  0  0  0  0  0  0  0  0  0
   36.9160   27.7740   39.5490 C   0  0  0  0  0  0  0  0  0  0  0  0
   36.2770   29.7860   36.9290 H   0  0  0  0  0  0  0  0  0  0  0  0
   35.2940   27.7690   36.0630 H   0  0  0  0  0  0  0  0  0  0  0  0
   35.3490   25.6800   37.4730 H   0  0  0  0  0  0  0  0  0  0  0  0
   36.3940   25.7610   39.6700 H   0  0  0  0  0  0  0  0  0  0  0  0
   37.5340   27.7810   40.8730 C   0  0  0  0  0  0  0  0  0  0  0  0
   36.5390   27.8770   41.8560 C   0  0  0  0  0  0  0  0  0  0  0  0
   35.4500   27.9360   41.6970 H   0  0  0  0  0  0  0  0  0  0  0  0
   36.8570   27.9080   43.2030 C   0  0  0  0  0  3  0  0  0  0  0  0
   38.1910   27.8430   43.5910 C   0  0  0  0  0  0  0  0  0  0  0  0
   38.4670   27.8650   44.6340 H   0  0  0  0  0  0  0  0  0  0  0  0
   39.1250   27.7500   42.5990 C   0  0  0  0  0  0  0  0  0  0  0  0
   40.1860   27.6960   42.8490 H   0  0  0  0  0  0  0  0  0  0  0  0
   38.8450   27.7180   41.2550 C   0  0  0  0  0  3  0  0  0  0  0  0
   40.3280   28.9320   37.7260 N   0  0  0  0  0  0  0  0  0  0  0  0
   39.6390   29.6920   38.3010 C   0  0  0  0  0  0  0  0  0  0  0  0
  1  6  2  0  0  0  0
  1  2  1  0  0  0  0
  2  3  2  0  0  0  0
  3  4  1  0  0  0  0
  3  7  1  0  0  0  0
  4  8  1  0  0  0  0
  5  9  1  0  0  0  0
  5  4  2  0  0  0  0
  6  5  1  0  0  0  0
 10 11  2  0  0  0  0
 10 15  1  0  0  0  0
 11 12  1  0  0  0  0
 12  2  1  0  0  0  0
 12 13  2  0  0  0  0
 14 13  1  0  0  0  0
 14 18  1  0  0  0  0
 15 14  2  0  0  0  0
 16 19  1  0  0  0  0
 16 10  1  0  0  0  0
 17 11  1  0  0  0  0
 20 16  1  0  0  0  0
 21  6  1  0  0  0  0
 21 26  1  0  0  0  0
 22 21  2  0  0  0  0
 23 22  1  0  0  0  0
 23 24  2  0  0  0  0
 24 25  1  0  0  0  0
 25 26  2  0  0  0  0
 25 30  1  0  0  0  0
 26 31  1  0  0  0  0
 27 22  1  0  0  0  0
 28 23  1  0  0  0  0
 29 24  1  0  0  0  0
 31 39  2  0  0  0  0
 31 32  1  0  0  0  0
 32 34  2  0  0  0  0
 33 32  1  0  0  0  0
 34 35  1  0  0  0  0
 35 36  1  0  0  0  0
 37 38  1  0  0  0  0
 37 35  2  0  0  0  0
 39 37  1  0  0  0  0
 40 41  3  0  0  0  0
 41  1  1  0  0  0  0
M  END
>  <minimizedAffinity>
-6.45069599

$$$$

 OpenBabel03252508403D

 41 44  0  0  0  0  0  0  0  0999 V2000
   39.3070   31.3680   40.5710 C   0  0  0  0  0  0  0  0  0  0  0  0
   39.3600   32.6130   39.9990 C   0  0  0  0  0  0  0  0  0  0  0  0
   38.1800   33.2420   39.7540 C   0  0  0  0  0  0  0  0  0  0  0  0
   36.9470   32.7000   40.0480 C   0  0  0  0  0  0  0  0  0  0  0  0
   36.9260   31.4520   40.6200 C   0  0  0  0  0  0  0  0  0  0  0  0
   38.0950   30.7720   40.8880 C   0  0  0  0  0  0  0  0  0  0  0  0
   38.2200   34.2290   39.3000 H   0  0  0  0  0  0  0  0  0  0  0  0
   36.0160   33.2140   39.8470 H   0  0  0  0  0  0  0  0  0  0  0  0
   35.9550   31.0130   40.8570 H   0  0  0  0  0  0  0  0  0  0  0  0
   42.3620   33.9180   38.1200 C   0  0  0  0  0  0  0  0  0  0  0  0
   41.0830   33.4040   38.3740 C   0  0  0  0  0  0  0  0  0  0  0  0
   40.6790   33.1450   39.7060 C   0  0  0  0  0  0  0  0  0  0  0  0
   41.5950   33.4260   40.6690 N   0  0  0  0  0  0  0  0  0  0  0  0
   42.8090   33.9160   40.3970 C   0  0  0  0  0  0  0  0  0  0  0  0
   43.1930   34.1610   39.1360 N   0  0  0  0  0  0  0  0  0  0  0  0
   42.7290   34.1610   36.7870 N   0  0  0  0  0  0  0  0  0  0  0  0
   40.3610   33.1850   37.5850 H   0  0  0  0  0  0  0  0  0  0  0  0
   43.4230   34.0860   41.2740 H   0  0  0  0  0  0  0  0  0  0  0  0
   43.0430   35.1390   36.6940 H   0  0  0  0  0  0  0  0  0  0  0  0
   42.6040   33.2980   36.1860 H   0  0  0  0  0  0  0  0  0  0  0  0
   37.9640   29.4520   41.4920 C   0  0  0  0  0  0  0  0  0  0  0  0
   38.0540   29.4100   42.8600 C   0  0  0  0  0  0  0  0  0  0  0  0
   37.9500   28.2330   43.5960 C   0  0  0  0  0  0  0  0  0  0  0  0
   37.7460   27.0600   42.9120 C   0  0  0  0  0  0  0  0  0  0  0  0
   37.6540   27.0780   41.5400 C   0  0  0  0  0  0  0  0  0  0  0  0
   37.7620   28.2640   40.8400 C   0  0  0  0  0  0  0  0  0  0  0  0
   38.2140   30.2890   43.4890 H   0  0  0  0  0  0  0  0  0  0  0  0
   38.0210   28.2060   44.6750 H   0  0  0  0  0  0  0  0  0  0  0  0
   37.6490   26.0840   43.3660 H   0  0  0  0  0  0  0  0  0  0  0  0
   37.4970   26.2010   40.9390 H   0  0  0  0  0  0  0  0  0  0  0  0
   37.6650   28.2930   39.3830 C   0  0  0  0  0  0  0  0  0  0  0  0
   36.3200   28.1950   38.9970 C   0  0  0  0  0  0  0  0  0  0  0  0
   35.4430   28.1120   39.6590 H   0  0  0  0  0  0  0  0  0  0  0  0
   35.9510   28.1950   37.6630 C   0  0  0  0  0  3  0  0  0  0  0  0
   36.9330   28.2930   36.6830 C   0  0  0  0  0  0  0  0  0  0  0  0
   36.6720   28.2960   35.6360 H   0  0  0  0  0  0  0  0  0  0  0  0
   38.2280   28.3870   37.1050 C   0  0  0  0  0  0  0  0  0  0  0  0
   39.0370   28.4660   36.3770 H   0  0  0  0  0  0  0  0  0  0  0  0
   38.6300   28.3890   38.4180 C   0  0  0  0  0  3  0  0  0  0  0  0
   41.4830   30.0230   41.1110 N   0  0  0  0  0  0  0  0  0  0  0  0
   40.5060   30.6290   40.8640 C   0  0  0  0  0  0  0  0  0  0  0  0
  1 41  1  0  0  0  0
  1  6  1  0  0  0  0
  2  1  2  0  0  0  0
  3  2  1  0  0  0  0
  3  4  2  0  0  0  0
  4  5  1  0  0  0  0
  5  9  1  0  0  0  0
  5  6  2  0  0  0  0
  6 21  1  0  0  0  0
  7  3  1  0  0  0  0
  8  4  1  0  0  0  0
 10 11  2  0  0  0  0
 10 15  1  0  0  0  0
 11 12  1  0  0  0  0
 12  2  1  0  0  0  0
 12 13  2  0  0  0  0
 14 13  1  0  0  0  0
 14 18  1  0  0  0  0
 15 14  2  0  0  0  0
 16 10  1  0  0  0  0
 17 11  1  0  0  0  0
 19 16  1  0  0  0  0
 20 16  1  0  0  0  0
 21 22  1  0  0  0  0
 22 27  1  0  0  0  0
 22 23  2  0  0  0  0
 23 28  1  0  0  0  0
 24 29  1  0  0  0  0
 24 23  1  0  0  0  0
 25 24  2  0  0  0  0
 26 21  2  0  0  0  0
 26 25  1  0  0  0  0
 30 25  1  0  0  0  0
 31 26  1  0  0  0  0
 32 31  1  0  0  0  0
 32 33  1  0  0  0  0
 34 32  2  0  0  0  0
 35 37  2  0  0  0  0
 35 34  1  0  0  0  0
 36 35  1  0  0  0  0
 37 39  1  0  0  0  0
 38 37  1  0  0  0  0
 39 31  2  0  0  0  0
 41 40  3  0  0  0  0
M  END
>  <minimizedAffinity>
-6.35906029

$$$$

 OpenBabel03252508403D

 41 44  0  0  0  0  0  0  0  0999 V2000
   38.6950   27.2880   41.4070 C   0  0  0  0  0  0  0  0  0  0  0  0
   39.1940   27.4360   42.6760 C   0  0  0  0  0  0  0  0  0  0  0  0
   38.3040   27.6600   43.6790 C   0  0  0  0  0  0  0  0  0  0  0  0
   36.9410   27.7450   43.4880 C   0  0  0  0  0  0  0  0  0  0  0  0
   36.4720   27.5950   42.2060 C   0  0  0  0  0  0  0  0  0  0  0  0
   37.3340   27.3660   41.1550 C   0  0  0  0  0  0  0  0  0  0  0  0
   38.6970   27.7770   44.6850 H   0  0  0  0  0  0  0  0  0  0  0  0
   36.2450   27.9250   44.2970 H   0  0  0  0  0  0  0  0  0  0  0  0
   35.3940   27.6610   42.0440 H   0  0  0  0  0  0  0  0  0  0  0  0
   42.6510   26.0330   43.2530 C   0  0  0  0  0  0  0  0  0  0  0  0
   41.2580   26.0980   43.1090 C   0  0  0  0  0  0  0  0  0  0  0  0
   40.6350   27.3380   42.8310 C   0  0  0  0  0  0  0  0  0  0  0  0
   41.4650   28.4080   42.7200 N   0  0  0  0  0  0  0  0  0  0  0  0
   42.7910   28.3160   42.8630 C   0  0  0  0  0  0  0  0  0  0  0  0
   43.3830   27.1420   43.1270 N   0  0  0  0  0  0  0  0  0  0  0  0
   43.2340   24.7870   43.5300 N   0  0  0  0  0  0  0  0  0  0  0  0
   40.6080   25.2270   43.2020 H   0  0  0  0  0  0  0  0  0  0  0  0
   43.3140   29.2590   42.7450 H   0  0  0  0  0  0  0  0  0  0  0  0
   43.9630   24.5900   42.8290 H   0  0  0  0  0  0  0  0  0  0  0  0
   42.8010   24.3370   44.3860 H   0  0  0  0  0  0  0  0  0  0  0  0
   36.7360   27.2250   39.8340 C   0  0  0  0  0  0  0  0  0  0  0  0
   36.4110   25.9460   39.4590 C   0  0  0  0  0  0  0  0  0  0  0  0
   35.8330   25.6330   38.2320 C   0  0  0  0  0  0  0  0  0  0  0  0
   35.5750   26.6610   37.3590 C   0  0  0  0  0  0  0  0  0  0  0  0
   35.8930   27.9520   37.7130 C   0  0  0  0  0  0  0  0  0  0  0  0
   36.4670   28.2270   38.9390 C   0  0  0  0  0  0  0  0  0  0  0  0
   36.5770   25.0650   40.0840 H   0  0  0  0  0  0  0  0  0  0  0  0
   35.5780   24.6220   37.9420 H   0  0  0  0  0  0  0  0  0  0  0  0
   35.1310   26.5500   36.3800 H   0  0  0  0  0  0  0  0  0  0  0  0
   35.7220   28.8040   37.0820 H   0  0  0  0  0  0  0  0  0  0  0  0
   36.8070   29.5950   39.3230 C   0  0  0  0  0  0  0  0  0  0  0  0
   37.9810   29.9910   38.6660 C   0  0  0  0  0  0  0  0  0  0  0  0
   38.5810   29.3950   37.9600 H   0  0  0  0  0  0  0  0  0  0  0  0
   38.5250   31.2490   38.8590 C   0  0  0  0  0  3  0  0  0  0  0  0
   37.8970   32.1390   39.7220 C   0  0  0  0  0  0  0  0  0  0  0  0
   38.3000   33.1270   39.8900 H   0  0  0  0  0  0  0  0  0  0  0  0
   36.7570   31.7110   40.3400 C   0  0  0  0  0  0  0  0  0  0  0  0
   36.2250   32.3700   41.0270 H   0  0  0  0  0  0  0  0  0  0  0  0
   36.1910   30.4720   40.1730 C   0  0  0  0  0  3  0  0  0  0  0  0
   40.2840   26.8570   39.3750 N   0  0  0  0  0  0  0  0  0  0  0  0
   39.5650   27.0500   40.2860 C   0  0  0  0  0  0  0  0  0  0  0  0
  1  2  1  0  0  0  0
  2 12  1  0  0  0  0
  2  3  2  0  0  0  0
  3  7  1  0  0  0  0
  4  3  1  0  0  0  0
  4  8  1  0  0  0  0
  5  4  2  0  0  0  0
  6  1  2  0  0  0  0
  6  5  1  0  0  0  0
  9  5  1  0  0  0  0
 10 16  1  0  0  0  0
 11 17  1  0  0  0  0
 11 10  2  0  0  0  0
 12 11  1  0  0  0  0
 13 12  2  0  0  0  0
 13 14  1  0  0  0  0
 14 15  2  0  0  0  0
 15 10  1  0  0  0  0
 16 20  1  0  0  0  0
 18 14  1  0  0  0  0
 19 16  1  0  0  0  0
 21  6  1  0  0  0  0
 22 21  1  0  0  0  0
 22 27  1  0  0  0  0
 23 22  2  0  0  0  0
 24 25  2  0  0  0  0
 24 23  1  0  0  0  0
 25 26  1  0  0  0  0
 26 31  1  0  0  0  0
 26 21  2  0  0  0  0
 28 23  1  0  0  0  0
 29 24  1  0  0  0  0
 30 25  1  0  0  0  0
 31 39  1  0  0  0  0
 32 34  1  0  0  0  0
 32 31  2  0  0  0  0
 33 32  1  0  0  0  0
 34 35  2  0  0  0  0
 35 36  1  0  0  0  0
 35 37  1  0  0  0  0
 37 38  1  0  0  0  0
 39 37  2  0  0  0  0
 40 41  3  0  0  0  0
 41  1  1  0  0  0  0
M  END
>  <minimizedAffinity>
-6.30415726

$$$$

 OpenBabel03252508403D

 41 44  0  0  0  0  0  0  0  0999 V2000
   39.2220   28.7520   40.8470 C   0  0  0  0  0  0  0  0  0  0  0  0
   39.3590   27.5210   41.4360 C   0  0  0  0  0  0  0  0  0  0  0  0
   38.8310   27.3580   42.6780 C   0  0  0  0  0  0  0  0  0  0  0  0
   38.1710   28.3540   43.3680 C   0  0  0  0  0  0  0  0  0  0  0  0
   38.0510   29.5750   42.7510 C   0  0  0  0  0  0  0  0  0  0  0  0
   38.5710   29.7910   41.4930 C   0  0  0  0  0  0  0  0  0  0  0  0
   38.9380   26.3840   43.1470 H   0  0  0  0  0  0  0  0  0  0  0  0
   37.7560   28.2080   44.3560 H   0  0  0  0  0  0  0  0  0  0  0  0
   37.5310   30.3710   43.2880 H   0  0  0  0  0  0  0  0  0  0  0  0
   42.0620   25.1930   40.2050 C   0  0  0  0  0  0  0  0  0  0  0  0
   41.4100   26.1800   40.9550 C   0  0  0  0  0  0  0  0  0  0  0  0
   40.0600   26.5030   40.6750 C   0  0  0  0  0  0  0  0  0  0  0  0
   39.4810   25.8030   39.6650 N   0  0  0  0  0  0  0  0  0  0  0  0
   40.1280   24.8660   38.9650 C   0  0  0  0  0  0  0  0  0  0  0  0
   41.4070   24.5600   39.2290 N   0  0  0  0  0  0  0  0  0  0  0  0
   43.4010   24.9000   40.5100 N   0  0  0  0  0  0  0  0  0  0  0  0
   41.8940   26.7310   41.7640 H   0  0  0  0  0  0  0  0  0  0  0  0
   39.5280   24.3990   38.1920 H   0  0  0  0  0  0  0  0  0  0  0  0
   43.4960   23.8890   40.6880 H   0  0  0  0  0  0  0  0  0  0  0  0
   44.0040   25.7710   40.4880 H   0  0  0  0  0  0  0  0  0  0  0  0
   38.3930   31.1240   40.9290 C   0  0  0  0  0  0  0  0  0  0  0  0
   39.3340   32.0540   41.2880 C   0  0  0  0  0  0  0  0  0  0  0  0
   39.3150   33.3720   40.8400 C   0  0  0  0  0  0  0  0  0  0  0  0
   38.3010   33.7520   39.9960 C   0  0  0  0  0  0  0  0  0  0  0  0
   37.3450   32.8360   39.6230 C   0  0  0  0  0  0  0  0  0  0  0  0
   37.3940   31.5360   40.0860 C   0  0  0  0  0  0  0  0  0  0  0  0
   40.1770   31.8470   41.9530 H   0  0  0  0  0  0  0  0  0  0  0  0
   40.0610   34.1020   41.1260 H   0  0  0  0  0  0  0  0  0  0  0  0
   38.1750   34.7420   39.5810 H   0  0  0  0  0  0  0  0  0  0  0  0
   36.5240   33.0620   38.9670 H   0  0  0  0  0  0  0  0  0  0  0  0
   36.3840   30.5560   39.6950 C   0  0  0  0  0  0  0  0  0  0  0  0
   36.5010   30.2780   38.3260 C   0  0  0  0  0  0  0  0  0  0  0  0
   37.2300   30.7080   37.6200 H   0  0  0  0  0  0  0  0  0  0  0  0
   35.6560   29.3800   37.6970 C   0  0  0  0  0  3  0  0  0  0  0  0
   34.6680   28.7400   38.4370 C   0  0  0  0  0  0  0  0  0  0  0  0
   33.9960   28.0350   37.9730 H   0  0  0  0  0  0  0  0  0  0  0  0
   34.5910   29.0410   39.7670 C   0  0  0  0  0  0  0  0  0  0  0  0
   33.8340   28.5660   40.3940 H   0  0  0  0  0  0  0  0  0  0  0  0
   35.4120   29.9260   40.4220 C   0  0  0  0  0  3  0  0  0  0  0  0
   40.1890   29.2360   38.4660 N   0  0  0  0  0  0  0  0  0  0  0  0
   39.7520   29.0140   39.5350 C   0  0  0  0  0  0  0  0  0  0  0  0
  1  2  2  0  0  0  0
  1  6  1  0  0  0  0
  2  3  1  0  0  0  0
  3  7  1  0  0  0  0
  3  4  2  0  0  0  0
  4  8  1  0  0  0  0
  5  9  1  0  0  0  0
  5  4  1  0  0  0  0
  6  5  2  0  0  0  0
 10 16  1  0  0  0  0
 10 11  1  0  0  0  0
 11 17  1  0  0  0  0
 12 11  2  0  0  0  0
 12  2  1  0  0  0  0
 13 12  1  0  0  0  0
 14 15  1  0  0  0  0
 14 13  2  0  0  0  0
 15 10  2  0  0  0  0
 16 19  1  0  0  0  0
 18 14  1  0  0  0  0
 20 16  1  0  0  0  0
 21 22  1  0  0  0  0
 21  6  1  0  0  0  0
 22 27  1  0  0  0  0
 23 28  1  0  0  0  0
 23 22  2  0  0  0  0
 24 23  1  0  0  0  0
 25 24  2  0  0  0  0
 25 26  1  0  0  0  0
 26 21  2  0  0  0  0
 29 24  1  0  0  0  0
 30 25  1  0  0  0  0
 31 26  1  0  0  0  0
 31 39  1  0  0  0  0
 32 31  2  0  0  0  0
 33 32  1  0  0  0  0
 34 32  1  0  0  0  0
 34 35  2  0  0  0  0
 35 37  1  0  0  0  0
 36 35  1  0  0  0  0
 37 38  1  0  0  0  0
 37 39  2  0  0  0  0
 40 41  3  0  0  0  0
 41  1  1  0  0  0  0
M  END
>  <minimizedAffinity>
-6.26465321

$$$$

 OpenBabel03252508403D

 41 44  0  0  0  0  0  0  0  0999 V2000
   38.2770   28.4180   41.3560 C   0  0  0  0  0  0  0  0  0  0  0  0
   38.8900   28.5570   42.5750 C   0  0  0  0  0  0  0  0  0  0  0  0
   38.1740   28.2180   43.6800 C   0  0  0  0  0  0  0  0  0  0  0  0
   36.8790   27.7470   43.6390 C   0  0  0  0  0  0  0  0  0  0  0  0
   36.2920   27.6200   42.4040 C   0  0  0  0  0  0  0  0  0  0  0  0
   36.9760   27.9520   41.2540 C   0  0  0  0  0  0  0  0  0  0  0  0
   38.6580   28.3270   44.6460 H   0  0  0  0  0  0  0  0  0  0  0  0
   36.3220   27.4810   44.5270 H   0  0  0  0  0  0  0  0  0  0  0  0
   35.2660   27.2490   42.3600 H   0  0  0  0  0  0  0  0  0  0  0  0
   41.8500   30.8990   42.5950 C   0  0  0  0  0  0  0  0  0  0  0  0
   40.5240   30.4450   42.6000 C   0  0  0  0  0  0  0  0  0  0  0  0
   40.2540   29.0560   42.5710 C   0  0  0  0  0  0  0  0  0  0  0  0
   41.3400   28.2410   42.5420 N   0  0  0  0  0  0  0  0  0  0  0  0
   42.5950   28.7020   42.5380 C   0  0  0  0  0  0  0  0  0  0  0  0
   42.8530   30.0180   42.5650 N   0  0  0  0  0  0  0  0  0  0  0  0
   42.0800   32.2830   42.6230 N   0  0  0  0  0  0  0  0  0  0  0  0
   39.6640   31.1170   42.6230 H   0  0  0  0  0  0  0  0  0  0  0  0
   43.3510   27.9250   42.5140 H   0  0  0  0  0  0  0  0  0  0  0  0
   42.7040   32.5080   43.4120 H   0  0  0  0  0  0  0  0  0  0  0  0
   41.5680   32.7780   41.8380 H   0  0  0  0  0  0  0  0  0  0  0  0
   36.2610   27.7850   39.9940 C   0  0  0  0  0  0  0  0  0  0  0  0
   35.5710   28.8830   39.5480 C   0  0  0  0  0  0  0  0  0  0  0  0
   34.8370   28.8960   38.3660 C   0  0  0  0  0  0  0  0  0  0  0  0
   34.8080   27.7490   37.6120 C   0  0  0  0  0  0  0  0  0  0  0  0
   35.4920   26.6350   38.0390 C   0  0  0  0  0  0  0  0  0  0  0  0
   36.2110   26.6560   39.2190 C   0  0  0  0  0  0  0  0  0  0  0  0
   35.5360   29.8390   40.0780 H   0  0  0  0  0  0  0  0  0  0  0  0
   34.2950   29.7660   38.0190 H   0  0  0  0  0  0  0  0  0  0  0  0
   34.2760   27.6320   36.6780 H   0  0  0  0  0  0  0  0  0  0  0  0
   35.5130   25.7040   37.5030 H   0  0  0  0  0  0  0  0  0  0  0  0
   36.9400   25.4780   39.6800 C   0  0  0  0  0  0  0  0  0  0  0  0
   38.1710   25.3940   39.0150 C   0  0  0  0  0  0  0  0  0  0  0  0
   38.5660   26.0910   38.2570 H   0  0  0  0  0  0  0  0  0  0  0  0
   39.0590   24.3620   39.2660 C   0  0  0  0  0  3  0  0  0  0  0  0
   38.7230   23.3860   40.1980 C   0  0  0  0  0  0  0  0  0  0  0  0
   39.3970   22.5710   40.4140 H   0  0  0  0  0  0  0  0  0  0  0  0
   37.5140   23.5070   40.8220 C   0  0  0  0  0  0  0  0  0  0  0  0
   37.2020   22.7690   41.5620 H   0  0  0  0  0  0  0  0  0  0  0  0
   36.6110   24.5160   40.5960 C   0  0  0  0  0  3  0  0  0  0  0  0
   39.5140   29.0390   39.1370 N   0  0  0  0  0  0  0  0  0  0  0  0
   38.9590   28.7550   40.1350 C   0  0  0  0  0  0  0  0  0  0  0  0
  1  2  1  0  0  0  0
  2  3  2  0  0  0  0
  3  7  1  0  0  0  0
  4  3  1  0  0  0  0
  4  8  1  0  0  0  0
  5  4  2  0  0  0  0
  6  1  2  0  0  0  0
  6  5  1  0  0  0  0
  9  5  1  0  0  0  0
 10 11  1  0  0  0  0
 10 16  1  0  0  0  0
 11 17  1  0  0  0  0
 12  2  1  0  0  0  0
 12 11  2  0  0  0  0
 13 12  1  0  0  0  0
 14 13  2  0  0  0  0
 14 15  1  0  0  0  0
 15 10  2  0  0  0  0
 16 19  1  0  0  0  0
 18 14  1  0  0  0  0
 20 16  1  0  0  0  0
 21  6  1  0  0  0  0
 22 21  1  0  0  0  0
 22 27  1  0  0  0  0
 23 22  2  0  0  0  0
 24 25  2  0  0  0  0
 24 23  1  0  0  0  0
 25 26  1  0  0  0  0
 26 31  1  0  0  0  0
 26 21  2  0  0  0  0
 28 23  1  0  0  0  0
 29 24  1  0  0  0  0
 30 25  1  0  0  0  0
 31 39  1  0  0  0  0
 32 34  1  0  0  0  0
 32 31  2  0  0  0  0
 33 32  1  0  0  0  0
 34 35  2  0  0  0  0
 35 36  1  0  0  0  0
 35 37  1  0  0  0  0
 37 38  1  0  0  0  0
 39 37  2  0  0  0  0
 40 41  3  0  0  0  0
 41  1  1  0  0  0  0
M  END
>  <minimizedAffinity>
-6.15767717

$$$$

 OpenBabel03252508403D

 41 44  0  0  0  0  0  0  0  0999 V2000
   39.5060   28.9690   40.4440 C   0  0  0  0  0  0  0  0  0  0  0  0
   40.0420   27.7290   40.2080 C   0  0  0  0  0  0  0  0  0  0  0  0
   40.5600   27.4940   38.9730 C   0  0  0  0  0  0  0  0  0  0  0  0
   40.5750   28.4260   37.9580 C   0  0  0  0  0  0  0  0  0  0  0  0
   40.0310   29.6580   38.2250 C   0  0  0  0  0  0  0  0  0  0  0  0
   39.4930   29.9460   39.4610 C   0  0  0  0  0  0  0  0  0  0  0  0
   40.9840   26.5110   38.7840 H   0  0  0  0  0  0  0  0  0  0  0  0
   40.9910   28.2240   36.9800 H   0  0  0  0  0  0  0  0  0  0  0  0
   40.0380   30.4050   37.4280 H   0  0  0  0  0  0  0  0  0  0  0  0
   39.0360   24.8290   42.4050 C   0  0  0  0  0  0  0  0  0  0  0  0
   39.0490   25.7340   41.3340 C   0  0  0  0  0  0  0  0  0  0  0  0
   40.0040   26.7780   41.3050 C   0  0  0  0  0  0  0  0  0  0  0  0
   40.8660   26.8230   42.3540 N   0  0  0  0  0  0  0  0  0  0  0  0
   40.8300   25.9470   43.3630 C   0  0  0  0  0  0  0  0  0  0  0  0
   39.9250   24.9570   43.3930 N   0  0  0  0  0  0  0  0  0  0  0  0
   38.0740   23.8070   42.4020 N   0  0  0  0  0  0  0  0  0  0  0  0
   38.3480   25.6790   40.5000 H   0  0  0  0  0  0  0  0  0  0  0  0
   41.5830   26.1180   44.1240 H   0  0  0  0  0  0  0  0  0  0  0  0
   38.5460   22.8960   42.5040 H   0  0  0  0  0  0  0  0  0  0  0  0
   37.0940   24.1960   42.2970 H   0  0  0  0  0  0  0  0  0  0  0  0
   38.9370   31.2820   39.6400 C   0  0  0  0  0  0  0  0  0  0  0  0
   39.8210   32.2470   40.0500 C   0  0  0  0  0  0  0  0  0  0  0  0
   39.4570   33.5730   40.2680 C   0  0  0  0  0  0  0  0  0  0  0  0
   38.1470   33.9250   40.0600 C   0  0  0  0  0  0  0  0  0  0  0  0
   37.2420   32.9740   39.6500 C   0  0  0  0  0  0  0  0  0  0  0  0
   37.6370   31.6670   39.4420 C   0  0  0  0  0  0  0  0  0  0  0  0
   40.8820   32.0630   40.2410 H   0  0  0  0  0  0  0  0  0  0  0  0
   40.1600   34.3300   40.5910 H   0  0  0  0  0  0  0  0  0  0  0  0
   37.7410   34.9180   40.1950 H   0  0  0  0  0  0  0  0  0  0  0  0
   36.2020   33.1770   39.4680 H   0  0  0  0  0  0  0  0  0  0  0  0
   36.6830   30.6500   39.0070 C   0  0  0  0  0  0  0  0  0  0  0  0
   35.9170   30.2210   40.1000 C   0  0  0  0  0  0  0  0  0  0  0  0
   35.9910   30.5730   41.1420 H   0  0  0  0  0  0  0  0  0  0  0  0
   34.9370   29.2540   39.9600 C   0  0  0  0  0  3  0  0  0  0  0  0
   34.7050   28.6950   38.7080 C   0  0  0  0  0  0  0  0  0  0  0  0
   33.9460   27.9390   38.5710 H   0  0  0  0  0  0  0  0  0  0  0  0
   35.4730   29.1430   37.6720 C   0  0  0  0  0  0  0  0  0  0  0  0
   35.3320   28.7370   36.6690 H   0  0  0  0  0  0  0  0  0  0  0  0
   36.4530   30.0990   37.7760 C   0  0  0  0  0  3  0  0  0  0  0  0
   38.4640   29.5860   42.7620 N   0  0  0  0  0  0  0  0  0  0  0  0
   38.9350   29.3040   41.7210 C   0  0  0  0  0  0  0  0  0  0  0  0
  1 41  1  0  0  0  0
  2  1  1  0  0  0  0
  2 12  1  0  0  0  0
  3  2  2  0  0  0  0
  4  5  2  0  0  0  0
  4  3  1  0  0  0  0
  5  6  1  0  0  0  0
  6 21  1  0  0  0  0
  6  1  2  0  0  0  0
  7  3  1  0  0  0  0
  8  4  1  0  0  0  0
  9  5  1  0  0  0  0
 10 15  1  0  0  0  0
 11 10  2  0  0  0  0
 12 11  1  0  0  0  0
 12 13  2  0  0  0  0
 13 14  1  0  0  0  0
 14 15  2  0  0  0  0
 14 18  1  0  0  0  0
 16 10  1  0  0  0  0
 16 19  1  0  0  0  0
 17 11  1  0  0  0  0
 20 16  1  0  0  0  0
 21 22  1  0  0  0  0
 22 27  1  0  0  0  0
 22 23  2  0  0  0  0
 23 28  1  0  0  0  0
 24 29  1  0  0  0  0
 24 23  1  0  0  0  0
 25 24  2  0  0  0  0
 26 21  2  0  0  0  0
 26 25  1  0  0  0  0
 30 25  1  0  0  0  0
 31 26  1  0  0  0  0
 31 32  1  0  0  0  0
 32 33  1  0  0  0  0
 34 32  2  0  0  0  0
 35 34  1  0  0  0  0
 36 35  1  0  0  0  0
 37 39  1  0  0  0  0
 37 35  2  0  0  0  0
 38 37  1  0  0  0  0
 39 31  2  0  0  0  0
 41 40  3  0  0  0  0
M  END
>  <minimizedAffinity>
-6.14945269

$$$$

 OpenBabel03252508403D

 41 44  0  0  0  0  0  0  0  0999 V2000
   38.6460   28.1500   41.3740 C   0  0  0  0  0  0  0  0  0  0  0  0
   39.1320   28.3970   42.6330 C   0  0  0  0  0  0  0  0  0  0  0  0
   38.2830   28.2200   43.6790 C   0  0  0  0  0  0  0  0  0  0  0  0
   36.9740   27.8090   43.5440 C   0  0  0  0  0  0  0  0  0  0  0  0
   36.5160   27.5700   42.2710 C   0  0  0  0  0  0  0  0  0  0  0  0
   37.3380   27.7360   41.1760 C   0  0  0  0  0  0  0  0  0  0  0  0
   38.6660   28.4150   44.6770 H   0  0  0  0  0  0  0  0  0  0  0  0
   36.3100   27.6720   44.3870 H   0  0  0  0  0  0  0  0  0  0  0  0
   35.4810   27.2450   42.1510 H   0  0  0  0  0  0  0  0  0  0  0  0
   42.1920   30.5880   42.9120 C   0  0  0  0  0  0  0  0  0  0  0  0
   40.8490   30.2000   42.8190 C   0  0  0  0  0  0  0  0  0  0  0  0
   40.5150   28.8270   42.7290 C   0  0  0  0  0  0  0  0  0  0  0  0
   41.5610   27.9610   42.7410 N   0  0  0  0  0  0  0  0  0  0  0  0
   42.8350   28.3590   42.8300 C   0  0  0  0  0  0  0  0  0  0  0  0
   43.1520   29.6600   42.9150 N   0  0  0  0  0  0  0  0  0  0  0  0
   42.4860   31.9570   42.9990 N   0  0  0  0  0  0  0  0  0  0  0  0
   40.0230   30.9130   42.8120 H   0  0  0  0  0  0  0  0  0  0  0  0
   43.5530   27.5470   42.8270 H   0  0  0  0  0  0  0  0  0  0  0  0
   43.0690   32.1280   43.8310 H   0  0  0  0  0  0  0  0  0  0  0  0
   42.0490   32.5000   42.2000 H   0  0  0  0  0  0  0  0  0  0  0  0
   36.7540   27.4610   39.8690 C   0  0  0  0  0  0  0  0  0  0  0  0
   36.5780   26.1360   39.5610 C   0  0  0  0  0  0  0  0  0  0  0  0
   36.0340   25.6980   38.3570 C   0  0  0  0  0  0  0  0  0  0  0  0
   35.6550   26.6440   37.4370 C   0  0  0  0  0  0  0  0  0  0  0  0
   35.8230   27.9790   37.7240 C   0  0  0  0  0  0  0  0  0  0  0  0
   36.3670   28.3790   38.9300 C   0  0  0  0  0  0  0  0  0  0  0  0
   36.8470   25.3120   40.2270 H   0  0  0  0  0  0  0  0  0  0  0  0
   35.8970   24.6510   38.1190 H   0  0  0  0  0  0  0  0  0  0  0  0
   35.2220   26.4340   36.4690 H   0  0  0  0  0  0  0  0  0  0  0  0
   35.5510   28.7740   37.0540 H   0  0  0  0  0  0  0  0  0  0  0  0
   36.5480   29.7950   39.2430 C   0  0  0  0  0  0  0  0  0  0  0  0
   37.2540   30.4210   38.2060 C   0  0  0  0  0  0  0  0  0  0  0  0
   37.6290   29.9540   37.2800 H   0  0  0  0  0  0  0  0  0  0  0  0
   37.5640   31.7690   38.2560 C   0  0  0  0  0  3  0  0  0  0  0  0
   37.1670   32.5200   39.3570 C   0  0  0  0  0  0  0  0  0  0  0  0
   37.3950   33.5730   39.4210 H   0  0  0  0  0  0  0  0  0  0  0  0
   36.4820   31.8690   40.3420 C   0  0  0  0  0  0  0  0  0  0  0  0
   36.1480   32.4110   41.2280 H   0  0  0  0  0  0  0  0  0  0  0  0
   36.1590   30.5350   40.3260 C   0  0  0  0  0  3  0  0  0  0  0  0
   40.1430   28.4460   39.2510 N   0  0  0  0  0  0  0  0  0  0  0  0
   39.4740   28.3130   40.2090 C   0  0  0  0  0  0  0  0  0  0  0  0
  1  2  1  0  0  0  0
  2 12  1  0  0  0  0
  2  3  2  0  0  0  0
  3  7  1  0  0  0  0
  4  3  1  0  0  0  0
  4  8  1  0  0  0  0
  5  4  2  0  0  0  0
  6  1  2  0  0  0  0
  6  5  1  0  0  0  0
  9  5  1  0  0  0  0
 10 15  1  0  0  0  0
 10 16  1  0  0  0  0
 11 10  2  0  0  0  0
 12 13  2  0  0  0  0
 12 11  1  0  0  0  0
 13 14  1  0  0  0  0
 14 15  2  0  0  0  0
 16 19  1  0  0  0  0
 17 11  1  0  0  0  0
 18 14  1  0  0  0  0
 20 16  1  0  0  0  0
 21  6  1  0  0  0  0
 22 21  1  0  0  0  0
 22 27  1  0  0  0  0
 23 22  2  0  0  0  0
 24 25  2  0  0  0  0
 24 23  1  0  0  0  0
 25 26  1  0  0  0  0
 26 31  1  0  0  0  0
 26 21  2  0  0  0  0
 28 23  1  0  0  0  0
 29 24  1  0  0  0  0
 30 25  1  0  0  0  0
 31 39  1  0  0  0  0
 32 34  1  0  0  0  0
 32 31  2  0  0  0  0
 33 32  1  0  0  0  0
 34 35  2  0  0  0  0
 35 36  1  0  0  0  0
 35 37  1  0  0  0  0
 37 38  1  0  0  0  0
 39 37  2  0  0  0  0
 40 41  3  0  0  0  0
 41  1  1  0  0  0  0
M  END
>  <minimizedAffinity>
-6.12535

$$$$
