
 OpenBabel03252501463D

 23 24  0  0  0  0  0  0  0  0999 V2000
   44.1030   35.5680   42.8490 C   0  0  0  0  0  0  0  0  0  0  0  0
   43.4060   35.1400   41.7010 C   0  0  0  0  0  0  0  0  0  0  0  0
   44.1260   34.4960   40.7100 C   0  0  0  0  0  0  0  0  0  0  0  0
   45.4710   34.2990   40.8760 N   0  0  0  0  0  0  0  0  0  0  0  0
   46.0950   34.7260   41.9950 C   0  0  0  0  0  0  0  0  0  0  0  0
   45.4170   35.3450   42.9540 N   0  0  0  0  0  0  0  0  0  0  0  0
   43.4650   36.0610   43.5700 H   0  0  0  0  0  0  0  0  0  0  0  0
   43.6620   34.1340   39.7900 H   0  0  0  0  0  0  0  0  0  0  0  0
   47.5380   34.5030   42.1530 C   0  0  0  0  0  0  0  0  0  0  0  0
   48.0230   33.2670   42.4510 C   0  0  0  0  0  0  0  0  0  0  0  0
   47.3730   32.4160   42.5790 H   0  0  0  0  0  0  0  0  0  0  0  0
   49.3770   33.0390   42.6020 C   0  0  0  0  0  0  0  0  0  0  0  0
   50.2750   34.0810   42.4530 C   0  0  0  0  0  0  0  0  0  0  0  0
   51.3440   33.9640   42.5610 H   0  0  0  0  0  0  0  0  0  0  0  0
   49.7430   35.3130   42.1530 C   0  0  0  0  0  0  0  0  0  0  0  0
   50.4130   36.1430   42.0310 H   0  0  0  0  0  0  0  0  0  0  0  0
   48.3870   35.6010   41.9880 C   0  0  0  0  0  0  0  0  0  0  0  0
   41.9810   35.3570   41.5390 C   0  0  0  0  0  0  0  0  0  0  0  0
   41.3290   35.4690   40.4010 C   0  0  0  0  0  0  0  0  0  0  0  0
   39.8540   35.6930   40.3540 C   0  0  0  0  0  0  0  0  0  0  0  0
   39.4040   34.8890   39.7410 H   0  0  0  0  0  0  0  0  0  0  0  0
   39.5960   36.7090   40.0360 H   0  0  0  0  0  0  0  0  0  0  0  0
   39.4740   35.5560   41.3870 H   0  0  0  0  0  0  0  0  0  0  0  0
  1  6  1  0  0  0  0
  1  7  1  0  0  0  0
  2  1  2  0  0  0  0
  3  4  2  0  0  0  0
  3  2  1  0  0  0  0
  4  5  1  0  0  0  0
  5  9  1  0  0  0  0
  5  6  2  0  0  0  0
  8  3  1  0  0  0  0
  9 10  1  0  0  0  0
 10 11  1  0  0  0  0
 10 12  2  0  0  0  0
 13 14  1  0  0  0  0
 13 12  1  0  0  0  0
 15 13  2  0  0  0  0
 16 15  1  0  0  0  0
 17 15  1  0  0  0  0
 17  9  2  0  0  0  0
 18  2  1  0  0  0  0
 19 18  2  0  0  0  0
 20 19  1  0  0  0  0
 20 23  1  0  0  0  0
 21 20  1  0  0  0  0
 22 20  1  0  0  0  0
M  END
>  <minimizedAffinity>
-5.12128592

>  <minimizedRMSD>
4.76388073

$$$$
