
 OpenBabel03252509163D

 25 27  0  0  0  0  0  0  0  0999 V2000
   47.5280   33.4690   42.9280 C   0  0  0  0  0  0  0  0  0  0  0  0
   47.9290   32.1820   43.3720 C   0  0  0  0  0  0  0  0  0  0  0  0
   48.8990   31.5480   42.6870 C   0  0  0  0  0  0  0  0  0  0  0  0
   49.4840   32.1720   41.5620 C   0  0  0  0  0  0  0  0  0  0  0  0
   48.5890   33.7630   41.4780 S   0  0  0  0  0  0  0  0  0  0  0  0
   47.4570   31.7390   44.2380 H   0  0  0  0  0  0  0  0  0  0  0  0
   49.2920   30.5830   42.9120 H   0  0  0  0  0  0  0  0  0  0  0  0
   44.9490   34.8510   45.1920 C   0  0  0  0  0  0  0  0  0  0  0  0
   44.5940   36.0200   44.4660 C   0  0  0  0  0  0  0  0  0  0  0  0
   45.2420   36.2820   43.2540 C   0  0  0  0  0  0  0  0  0  0  0  0
   46.1840   35.3830   42.8430 N   0  0  0  0  0  0  0  0  0  0  0  0
   46.4890   34.2820   43.5660 C   0  0  0  0  0  0  0  0  0  0  0  0
   45.8730   34.0100   44.7450 N   0  0  0  0  0  0  0  0  0  0  0  0
   44.4380   34.6590   46.1330 H   0  0  0  0  0  0  0  0  0  0  0  0
   43.8410   36.7220   44.8140 H   0  0  0  0  0  0  0  0  0  0  0  0
   45.0350   37.1420   42.6420 H   0  0  0  0  0  0  0  0  0  0  0  0
   50.5250   31.7650   40.6340 C   0  0  0  0  0  0  0  0  0  0  0  0
   50.1120   31.4010   39.3750 C   0  0  0  0  0  0  0  0  0  0  0  0
   49.0770   31.4100   39.0700 H   0  0  0  0  0  0  0  0  0  0  0  0
   51.1440   31.0160   38.5140 C   0  0  0  0  0  3  0  0  0  0  0  0
   52.4750   31.0180   38.9510 C   0  0  0  0  0  0  0  0  0  0  0  0
   53.1960   30.7030   38.2070 H   0  0  0  0  0  0  0  0  0  0  0  0
   52.8060   31.4010   40.2420 C   0  0  0  0  0  0  0  0  0  0  0  0
   53.8430   31.3890   40.5420 H   0  0  0  0  0  0  0  0  0  0  0  0
   51.8020   31.7930   41.1340 C   0  0  0  0  0  3  0  0  0  0  0  0
  1  2  2  0  0  0  0
  1 12  1  0  0  0  0
  2  6  1  0  0  0  0
  3  7  1  0  0  0  0
  3  2  1  0  0  0  0
  4  3  2  0  0  0  0
  5  4  1  0  0  0  0
  5  1  1  0  0  0  0
  8 14  1  0  0  0  0
  9 15  1  0  0  0  0
  9  8  2  0  0  0  0
 10  9  1  0  0  0  0
 11 10  2  0  0  0  0
 11 12  1  0  0  0  0
 12 13  2  0  0  0  0
 13  8  1  0  0  0  0
 16 10  1  0  0  0  0
 17 25  1  0  0  0  0
 17  4  1  0  0  0  0
 18 17  2  0  0  0  0
 19 18  1  0  0  0  0
 20 21  2  0  0  0  0
 20 18  1  0  0  0  0
 21 23  1  0  0  0  0
 22 21  1  0  0  0  0
 23 24  1  0  0  0  0
 23 25  2  0  0  0  0
M  END
>  <minimizedAffinity>
-4.2916913

>  <minimizedRMSD>
7.44328308

$$$$
