
 OpenBabel03252505203D

 34 37  0  0  0  0  0  0  0  0999 V2000
   37.5780   30.6010   40.8480 C   0  0  0  0  0  0  0  0  0  0  0  0
   36.2540   30.5350   40.4820 C   0  0  0  0  0  0  0  0  0  0  0  0
   35.5320   29.3790   40.6780 C   0  0  0  0  0  0  0  0  0  0  0  0
   36.1830   28.3090   41.2470 C   0  0  0  0  0  0  0  0  0  0  0  0
   37.5180   28.4200   41.6010 C   0  0  0  0  0  0  0  0  0  0  0  0
   38.2320   29.5550   41.4100 N   0  0  0  0  0  0  0  0  0  0  0  0
   35.7820   31.4200   40.0310 H   0  0  0  0  0  0  0  0  0  0  0  0
   34.4910   29.3220   40.3920 H   0  0  0  0  0  0  0  0  0  0  0  0
   35.6270   27.4030   41.4030 H   0  0  0  0  0  0  0  0  0  0  0  0
   38.2450   27.3110   42.2070 C   0  0  0  0  0  0  0  0  0  0  0  0
   37.9230   26.0200   41.8640 C   0  0  0  0  0  0  0  0  0  0  0  0
   37.1360   25.7620   41.1480 H   0  0  0  0  0  0  0  0  0  0  0  0
   38.5650   24.8950   42.3920 C   0  0  0  0  0  3  0  0  0  0  0  0
   39.5860   25.0940   43.3150 C   0  0  0  0  0  0  0  0  0  0  0  0
   40.0910   24.2340   43.7310 H   0  0  0  0  0  0  0  0  0  0  0  0
   39.9330   26.3780   43.6790 C   0  0  0  0  0  0  0  0  0  0  0  0
   40.7290   26.5010   44.3980 H   0  0  0  0  0  0  0  0  0  0  0  0
   39.2630   27.4330   43.1240 C   0  0  0  0  0  3  0  0  0  0  0  0
   38.3940   34.1090   40.0680 C   0  0  0  0  0  0  0  0  0  0  0  0
   39.8010   34.1610   40.2110 C   0  0  0  0  0  0  0  0  0  0  0  0
   40.4110   32.9810   40.5740 C   0  0  0  0  0  0  0  0  0  0  0  0
   39.6770   31.8380   40.7800 N   0  0  0  0  0  0  0  0  0  0  0  0
   38.3150   31.8380   40.6280 C   0  0  0  0  0  0  0  0  0  0  0  0
   37.6870   32.9780   40.2730 N   0  0  0  0  0  0  0  0  0  0  0  0
   37.8420   35.0070   39.7830 H   0  0  0  0  0  0  0  0  0  0  0  0
   40.3450   35.0800   40.0410 H   0  0  0  0  0  0  0  0  0  0  0  0
   41.8980   32.9220   40.7200 C   0  0  0  0  0  0  0  0  0  0  0  0
   42.6290   33.7830   39.6900 C   0  0  0  0  0  0  0  0  0  0  0  0
   42.5990   34.0770   41.2250 C   0  0  0  0  0  0  0  0  0  0  0  0
   42.3010   31.8690   40.7030 H   0  0  0  0  0  0  0  0  0  0  0  0
   42.0490   34.4700   39.0540 H   0  0  0  0  0  0  0  0  0  0  0  0
   43.5880   33.4600   39.2820 H   0  0  0  0  0  0  0  0  0  0  0  0
   43.5810   33.9840   41.7570 H   0  0  0  0  0  0  0  0  0  0  0  0
   41.9800   34.9440   41.5340 H   0  0  0  0  0  0  0  0  0  0  0  0
  1  6  1  0  0  0  0
  2  3  1  0  0  0  0
  2  1  2  0  0  0  0
  3  4  2  0  0  0  0
  4  9  1  0  0  0  0
  4  5  1  0  0  0  0
  5 10  1  0  0  0  0
  6  5  2  0  0  0  0
  7  2  1  0  0  0  0
  8  3  1  0  0  0  0
 10 18  1  0  0  0  0
 11 10  2  0  0  0  0
 11 13  1  0  0  0  0
 12 11  1  0  0  0  0
 13 14  2  0  0  0  0
 14 16  1  0  0  0  0
 14 15  1  0  0  0  0
 16 17  1  0  0  0  0
 18 16  2  0  0  0  0
 19 20  2  0  0  0  0
 19 24  1  0  0  0  0
 20 21  1  0  0  0  0
 21 27  1  0  0  0  0
 21 22  2  0  0  0  0
 23 22  1  0  0  0  0
 23  1  1  0  0  0  0
 24 23  2  0  0  0  0
 25 19  1  0  0  0  0
 26 20  1  0  0  0  0
 27 29  1  0  0  0  0
 28 27  1  0  0  0  0
 28 29  1  0  0  0  0
 29 34  1  0  0  0  0
 29 33  1  0  0  0  0
 30 27  1  0  0  0  0
 31 28  1  0  0  0  0
 32 28  1  0  0  0  0
M  END
>  <minimizedAffinity>
-5.82215691

$$$$

 OpenBabel03252505203D

 34 37  0  0  0  0  0  0  0  0999 V2000
   37.6620   29.4180   41.6580 C   0  0  0  0  0  0  0  0  0  0  0  0
   37.8590   29.3190   43.0160 C   0  0  0  0  0  0  0  0  0  0  0  0
   37.7240   28.1060   43.6550 C   0  0  0  0  0  0  0  0  0  0  0  0
   37.3880   27.0150   42.8880 C   0  0  0  0  0  0  0  0  0  0  0  0
   37.1990   27.1610   41.5220 C   0  0  0  0  0  0  0  0  0  0  0  0
   37.3310   28.3510   40.8900 N   0  0  0  0  0  0  0  0  0  0  0  0
   38.1260   30.2230   43.5830 H   0  0  0  0  0  0  0  0  0  0  0  0
   37.8780   28.0230   44.7210 H   0  0  0  0  0  0  0  0  0  0  0  0
   37.2800   26.0650   43.3780 H   0  0  0  0  0  0  0  0  0  0  0  0
   36.8430   26.0310   40.6730 C   0  0  0  0  0  0  0  0  0  0  0  0
   36.8600   24.7590   41.1920 C   0  0  0  0  0  0  0  0  0  0  0  0
   37.1310   24.5320   42.2280 H   0  0  0  0  0  0  0  0  0  0  0  0
   36.5340   23.6170   40.4540 C   0  0  0  0  0  3  0  0  0  0  0  0
   36.1720   23.7770   39.1210 C   0  0  0  0  0  0  0  0  0  0  0  0
   35.9170   22.9030   38.5390 H   0  0  0  0  0  0  0  0  0  0  0  0
   36.1450   25.0410   38.5710 C   0  0  0  0  0  0  0  0  0  0  0  0
   35.8600   25.1330   37.5340 H   0  0  0  0  0  0  0  0  0  0  0  0
   36.4760   26.1150   39.3500 C   0  0  0  0  0  3  0  0  0  0  0  0
   36.9740   32.4720   39.7140 C   0  0  0  0  0  0  0  0  0  0  0  0
   38.1880   33.1950   39.7930 C   0  0  0  0  0  0  0  0  0  0  0  0
   39.1950   32.5970   40.5170 C   0  0  0  0  0  0  0  0  0  0  0  0
   39.0080   31.3760   41.1180 N   0  0  0  0  0  0  0  0  0  0  0  0
   37.8120   30.7150   41.0120 C   0  0  0  0  0  0  0  0  0  0  0  0
   36.8050   31.2730   40.3100 N   0  0  0  0  0  0  0  0  0  0  0  0
   36.1290   32.8840   39.1570 H   0  0  0  0  0  0  0  0  0  0  0  0
   38.2980   34.1540   39.3070 H   0  0  0  0  0  0  0  0  0  0  0  0
   40.5280   33.2640   40.6330 C   0  0  0  0  0  0  0  0  0  0  0  0
   41.6080   32.5830   39.7920 C   0  0  0  0  0  0  0  0  0  0  0  0
   41.0380   34.0120   39.5100 C   0  0  0  0  0  0  0  0  0  0  0  0
   40.8780   33.3700   41.7010 H   0  0  0  0  0  0  0  0  0  0  0  0
   41.3160   31.7970   39.0780 H   0  0  0  0  0  0  0  0  0  0  0  0
   42.6380   32.5390   40.1470 H   0  0  0  0  0  0  0  0  0  0  0  0
   41.7600   34.8590   39.6450 H   0  0  0  0  0  0  0  0  0  0  0  0
   40.3780   34.0980   38.6230 H   0  0  0  0  0  0  0  0  0  0  0  0
  1  2  1  0  0  0  0
  2  7  1  0  0  0  0
  2  3  2  0  0  0  0
  3  8  1  0  0  0  0
  4  9  1  0  0  0  0
  4  3  1  0  0  0  0
  5  4  2  0  0  0  0
  6  5  1  0  0  0  0
  6  1  2  0  0  0  0
 10 11  1  0  0  0  0
 10  5  1  0  0  0  0
 11 12  1  0  0  0  0
 13 11  2  0  0  0  0
 14 13  1  0  0  0  0
 15 14  1  0  0  0  0
 16 14  2  0  0  0  0
 16 18  1  0  0  0  0
 17 16  1  0  0  0  0
 18 10  2  0  0  0  0
 19 20  2  0  0  0  0
 19 24  1  0  0  0  0
 20 21  1  0  0  0  0
 21 27  1  0  0  0  0
 21 22  2  0  0  0  0
 23 22  1  0  0  0  0
 23  1  1  0  0  0  0
 24 23  2  0  0  0  0
 25 19  1  0  0  0  0
 26 20  1  0  0  0  0
 27 30  1  0  0  0  0
 28 32  1  0  0  0  0
 28 27  1  0  0  0  0
 29 33  1  0  0  0  0
 29 28  1  0  0  0  0
 29 27  1  0  0  0  0
 31 28  1  0  0  0  0
 34 29  1  0  0  0  0
M  END
>  <minimizedAffinity>
-5.60138655

$$$$

 OpenBabel03252505203D

 34 37  0  0  0  0  0  0  0  0999 V2000
   37.6440   29.8460   40.1060 C   0  0  0  0  0  0  0  0  0  0  0  0
   36.6180   29.7150   39.2000 C   0  0  0  0  0  0  0  0  0  0  0  0
   36.6230   30.4410   38.0290 C   0  0  0  0  0  0  0  0  0  0  0  0
   37.6840   31.2890   37.8090 C   0  0  0  0  0  0  0  0  0  0  0  0
   38.6970   31.3880   38.7500 C   0  0  0  0  0  0  0  0  0  0  0  0
   38.6950   30.6770   39.9020 N   0  0  0  0  0  0  0  0  0  0  0  0
   35.7930   29.0230   39.4250 H   0  0  0  0  0  0  0  0  0  0  0  0
   35.8190   30.3430   37.3140 H   0  0  0  0  0  0  0  0  0  0  0  0
   37.6960   31.8600   36.8990 H   0  0  0  0  0  0  0  0  0  0  0  0
   39.8380   32.2740   38.5570 C   0  0  0  0  0  0  0  0  0  0  0  0
   40.6900   32.0640   37.4990 C   0  0  0  0  0  0  0  0  0  0  0  0
   40.5640   31.2550   36.7720 H   0  0  0  0  0  0  0  0  0  0  0  0
   41.8080   32.8610   37.2340 C   0  0  0  0  0  3  0  0  0  0  0  0
   42.0750   33.9250   38.0900 C   0  0  0  0  0  0  0  0  0  0  0  0
   42.9350   34.5480   37.8970 H   0  0  0  0  0  0  0  0  0  0  0  0
   41.2390   34.1610   39.1610 C   0  0  0  0  0  0  0  0  0  0  0  0
   41.4710   34.9940   39.8070 H   0  0  0  0  0  0  0  0  0  0  0  0
   40.1620   33.3420   39.3610 C   0  0  0  0  0  3  0  0  0  0  0  0
   37.8280   28.8770   43.6570 C   0  0  0  0  0  0  0  0  0  0  0  0
   37.5360   27.4930   43.6380 C   0  0  0  0  0  0  0  0  0  0  0  0
   37.2850   26.9500   42.3980 C   0  0  0  0  0  0  0  0  0  0  0  0
   37.3210   27.7260   41.2640 N   0  0  0  0  0  0  0  0  0  0  0  0
   37.6090   29.0640   41.3350 C   0  0  0  0  0  0  0  0  0  0  0  0
   37.8590   29.6270   42.5350 N   0  0  0  0  0  0  0  0  0  0  0  0
   38.0360   29.3780   44.6050 H   0  0  0  0  0  0  0  0  0  0  0  0
   37.5170   26.9140   44.5510 H   0  0  0  0  0  0  0  0  0  0  0  0
   36.9990   25.4890   42.2660 C   0  0  0  0  0  0  0  0  0  0  0  0
   36.9920   25.0140   40.8130 C   0  0  0  0  0  0  0  0  0  0  0  0
   38.0640   24.5990   41.8720 C   0  0  0  0  0  0  0  0  0  0  0  0
   36.0440   25.1780   42.7800 H   0  0  0  0  0  0  0  0  0  0  0  0
   37.3340   25.7000   40.0210 H   0  0  0  0  0  0  0  0  0  0  0  0
   36.3060   24.2290   40.4920 H   0  0  0  0  0  0  0  0  0  0  0  0
   38.0660   23.5170   42.1640 H   0  0  0  0  0  0  0  0  0  0  0  0
   39.0700   25.0470   41.7390 H   0  0  0  0  0  0  0  0  0  0  0  0
  1 23  1  0  0  0  0
  2  7  1  0  0  0  0
  2  1  2  0  0  0  0
  3  2  1  0  0  0  0
  4  3  2  0  0  0  0
  4  5  1  0  0  0  0
  5  6  2  0  0  0  0
  6  1  1  0  0  0  0
  8  3  1  0  0  0  0
  9  4  1  0  0  0  0
 10  5  1  0  0  0  0
 10 18  1  0  0  0  0
 11 10  2  0  0  0  0
 12 11  1  0  0  0  0
 13 11  1  0  0  0  0
 13 14  2  0  0  0  0
 14 16  1  0  0  0  0
 15 14  1  0  0  0  0
 16 18  2  0  0  0  0
 16 17  1  0  0  0  0
 19 25  1  0  0  0  0
 20 19  1  0  0  0  0
 20 26  1  0  0  0  0
 21 20  2  0  0  0  0
 22 23  2  0  0  0  0
 22 21  1  0  0  0  0
 23 24  1  0  0  0  0
 24 19  2  0  0  0  0
 27 21  1  0  0  0  0
 27 30  1  0  0  0  0
 28 29  1  0  0  0  0
 28 27  1  0  0  0  0
 29 33  1  0  0  0  0
 29 27  1  0  0  0  0
 31 28  1  0  0  0  0
 32 28  1  0  0  0  0
 34 29  1  0  0  0  0
M  END
>  <minimizedAffinity>
-5.56296253

$$$$

 OpenBabel03252505203D

 34 37  0  0  0  0  0  0  0  0999 V2000
   37.4410   28.9010   41.4080 C   0  0  0  0  0  0  0  0  0  0  0  0
   37.4870   29.1690   42.7560 C   0  0  0  0  0  0  0  0  0  0  0  0
   37.5460   28.1410   43.6700 C   0  0  0  0  0  0  0  0  0  0  0  0
   37.5560   26.8540   43.1840 C   0  0  0  0  0  0  0  0  0  0  0  0
   37.5080   26.6310   41.8170 C   0  0  0  0  0  0  0  0  0  0  0  0
   37.4500   27.6390   40.9140 N   0  0  0  0  0  0  0  0  0  0  0  0
   37.4770   30.2170   43.0920 H   0  0  0  0  0  0  0  0  0  0  0  0
   37.5820   28.3460   44.7310 H   0  0  0  0  0  0  0  0  0  0  0  0
   37.6010   26.0460   43.8910 H   0  0  0  0  0  0  0  0  0  0  0  0
   37.5170   25.2840   41.2600 C   0  0  0  0  0  0  0  0  0  0  0  0
   36.4680   24.8660   40.4780 C   0  0  0  0  0  0  0  0  0  0  0  0
   35.6030   25.4940   40.2380 H   0  0  0  0  0  0  0  0  0  0  0  0
   36.3890   23.5940   39.9010 C   0  0  0  0  0  3  0  0  0  0  0  0
   37.4310   22.7020   40.1330 C   0  0  0  0  0  0  0  0  0  0  0  0
   37.3840   21.7170   39.6930 H   0  0  0  0  0  0  0  0  0  0  0  0
   38.4980   23.0920   40.9140 C   0  0  0  0  0  0  0  0  0  0  0  0
   39.2910   22.3780   41.0760 H   0  0  0  0  0  0  0  0  0  0  0  0
   38.5110   24.3520   41.4470 C   0  0  0  0  0  3  0  0  0  0  0  0
   37.3120   32.3010   39.9920 C   0  0  0  0  0  0  0  0  0  0  0  0
   37.2430   32.0760   38.5960 C   0  0  0  0  0  0  0  0  0  0  0  0
   37.2470   30.7570   38.2010 C   0  0  0  0  0  0  0  0  0  0  0  0
   37.3140   29.7400   39.1230 N   0  0  0  0  0  0  0  0  0  0  0  0
   37.3790   30.0110   40.4660 C   0  0  0  0  0  0  0  0  0  0  0  0
   37.3780   31.2920   40.8860 N   0  0  0  0  0  0  0  0  0  0  0  0
   37.3150   33.3220   40.3800 H   0  0  0  0  0  0  0  0  0  0  0  0
   37.1910   32.9020   37.9000 H   0  0  0  0  0  0  0  0  0  0  0  0
   37.1440   30.4120   36.7500 C   0  0  0  0  0  0  0  0  0  0  0  0
   37.5500   28.9680   36.4530 C   0  0  0  0  0  0  0  0  0  0  0  0
   36.0960   29.5230   36.3140 C   0  0  0  0  0  0  0  0  0  0  0  0
   37.7180   31.1210   36.0860 H   0  0  0  0  0  0  0  0  0  0  0  0
   37.7260   28.2760   37.2920 H   0  0  0  0  0  0  0  0  0  0  0  0
   38.0600   28.7190   35.5220 H   0  0  0  0  0  0  0  0  0  0  0  0
   35.6870   29.5600   35.2710 H   0  0  0  0  0  0  0  0  0  0  0  0
   35.3750   29.1790   37.0840 H   0  0  0  0  0  0  0  0  0  0  0  0
  1  2  1  0  0  0  0
  2  7  1  0  0  0  0
  2  3  2  0  0  0  0
  3  8  1  0  0  0  0
  4  3  1  0  0  0  0
  4  9  1  0  0  0  0
  5  4  2  0  0  0  0
  6  1  2  0  0  0  0
  6  5  1  0  0  0  0
 10 18  1  0  0  0  0
 10  5  1  0  0  0  0
 11 10  2  0  0  0  0
 12 11  1  0  0  0  0
 13 14  2  0  0  0  0
 13 11  1  0  0  0  0
 14 16  1  0  0  0  0
 15 14  1  0  0  0  0
 16 17  1  0  0  0  0
 16 18  2  0  0  0  0
 19 25  1  0  0  0  0
 19 24  1  0  0  0  0
 20 19  2  0  0  0  0
 21 20  1  0  0  0  0
 21 22  2  0  0  0  0
 22 23  1  0  0  0  0
 23 24  2  0  0  0  0
 23  1  1  0  0  0  0
 26 20  1  0  0  0  0
 27 21  1  0  0  0  0
 28 27  1  0  0  0  0
 28 31  1  0  0  0  0
 29 28  1  0  0  0  0
 29 27  1  0  0  0  0
 29 34  1  0  0  0  0
 30 27  1  0  0  0  0
 32 28  1  0  0  0  0
 33 29  1  0  0  0  0
M  END
>  <minimizedAffinity>
-5.51599169

$$$$

 OpenBabel03252505203D

 34 37  0  0  0  0  0  0  0  0999 V2000
   37.4350   30.4980   39.0910 C   0  0  0  0  0  0  0  0  0  0  0  0
   36.6270   30.5360   37.9780 C   0  0  0  0  0  0  0  0  0  0  0  0
   35.8430   29.4530   37.6460 C   0  0  0  0  0  0  0  0  0  0  0  0
   35.9020   28.3480   38.4640 C   0  0  0  0  0  0  0  0  0  0  0  0
   36.7300   28.3540   39.5750 C   0  0  0  0  0  0  0  0  0  0  0  0
   37.5020   29.4160   39.9060 N   0  0  0  0  0  0  0  0  0  0  0  0
   36.6180   31.4450   37.3580 H   0  0  0  0  0  0  0  0  0  0  0  0
   35.2070   29.4780   36.7730 H   0  0  0  0  0  0  0  0  0  0  0  0
   35.2940   27.4990   38.2120 H   0  0  0  0  0  0  0  0  0  0  0  0
   36.8220   27.2050   40.4680 C   0  0  0  0  0  0  0  0  0  0  0  0
   36.7320   25.9350   39.9510 C   0  0  0  0  0  0  0  0  0  0  0  0
   36.5920   25.7230   38.8860 H   0  0  0  0  0  0  0  0  0  0  0  0
   36.8100   24.7740   40.7280 C   0  0  0  0  0  3  0  0  0  0  0  0
   36.9880   24.9130   42.1010 C   0  0  0  0  0  0  0  0  0  0  0  0
   37.0500   24.0260   42.7130 H   0  0  0  0  0  0  0  0  0  0  0  0
   37.0820   26.1750   42.6490 C   0  0  0  0  0  0  0  0  0  0  0  0
   37.2200   26.2510   43.7170 H   0  0  0  0  0  0  0  0  0  0  0  0
   36.9980   27.2670   41.8300 C   0  0  0  0  0  3  0  0  0  0  0  0
   38.5460   33.7410   40.4430 C   0  0  0  0  0  0  0  0  0  0  0  0
   39.8780   33.8540   39.9780 C   0  0  0  0  0  0  0  0  0  0  0  0
   40.3390   32.8020   39.2180 C   0  0  0  0  0  0  0  0  0  0  0  0
   39.5360   31.7220   38.9420 N   0  0  0  0  0  0  0  0  0  0  0  0
   38.2520   31.6590   39.4160 C   0  0  0  0  0  0  0  0  0  0  0  0
   37.7690   32.6730   40.1630 N   0  0  0  0  0  0  0  0  0  0  0  0
   38.1110   34.5360   41.0520 H   0  0  0  0  0  0  0  0  0  0  0  0
   40.4790   34.7200   40.2160 H   0  0  0  0  0  0  0  0  0  0  0  0
   41.7220   32.8400   38.6520 C   0  0  0  0  0  0  0  0  0  0  0  0
   41.7800   32.3820   37.1950 C   0  0  0  0  0  0  0  0  0  0  0  0
   42.0510   33.8460   37.6720 C   0  0  0  0  0  0  0  0  0  0  0  0
   42.4680   32.2620   39.2700 H   0  0  0  0  0  0  0  0  0  0  0  0
   40.8390   32.2190   36.6450 H   0  0  0  0  0  0  0  0  0  0  0  0
   42.6440   31.8300   36.8230 H   0  0  0  0  0  0  0  0  0  0  0  0
   43.1000   34.2150   37.5360 H   0  0  0  0  0  0  0  0  0  0  0  0
   41.2610   34.5850   37.4260 H   0  0  0  0  0  0  0  0  0  0  0  0
  1 23  1  0  0  0  0
  1  6  1  0  0  0  0
  2  1  2  0  0  0  0
  3  2  1  0  0  0  0
  3  4  2  0  0  0  0
  4  5  1  0  0  0  0
  5  6  2  0  0  0  0
  5 10  1  0  0  0  0
  7  2  1  0  0  0  0
  8  3  1  0  0  0  0
  9  4  1  0  0  0  0
 10 18  1  0  0  0  0
 11 10  2  0  0  0  0
 11 13  1  0  0  0  0
 12 11  1  0  0  0  0
 13 14  2  0  0  0  0
 14 16  1  0  0  0  0
 14 15  1  0  0  0  0
 16 17  1  0  0  0  0
 18 16  2  0  0  0  0
 19 25  1  0  0  0  0
 20 26  1  0  0  0  0
 20 19  2  0  0  0  0
 21 20  1  0  0  0  0
 22 21  2  0  0  0  0
 22 23  1  0  0  0  0
 23 24  2  0  0  0  0
 24 19  1  0  0  0  0
 27 21  1  0  0  0  0
 27 30  1  0  0  0  0
 28 29  1  0  0  0  0
 28 27  1  0  0  0  0
 29 27  1  0  0  0  0
 31 28  1  0  0  0  0
 32 28  1  0  0  0  0
 33 29  1  0  0  0  0
 34 29  1  0  0  0  0
M  END
>  <minimizedAffinity>
-5.51060009

$$$$

 OpenBabel03252505203D

 34 37  0  0  0  0  0  0  0  0999 V2000
   37.9240   29.1440   41.1650 C   0  0  0  0  0  0  0  0  0  0  0  0
   38.2210   30.4530   41.4630 C   0  0  0  0  0  0  0  0  0  0  0  0
   37.6620   31.4800   40.7340 C   0  0  0  0  0  0  0  0  0  0  0  0
   36.8070   31.1430   39.7100 C   0  0  0  0  0  0  0  0  0  0  0  0
   36.5360   29.8100   39.4460 C   0  0  0  0  0  0  0  0  0  0  0  0
   37.0830   28.7980   40.1600 N   0  0  0  0  0  0  0  0  0  0  0  0
   38.9120   30.6680   42.2920 H   0  0  0  0  0  0  0  0  0  0  0  0
   37.8920   32.5110   40.9640 H   0  0  0  0  0  0  0  0  0  0  0  0
   36.3670   31.9380   39.1360 H   0  0  0  0  0  0  0  0  0  0  0  0
   35.6360   29.4100   38.3710 C   0  0  0  0  0  0  0  0  0  0  0  0
   36.0630   29.4780   37.0670 C   0  0  0  0  0  0  0  0  0  0  0  0
   37.0600   29.8220   36.7740 H   0  0  0  0  0  0  0  0  0  0  0  0
   35.2710   29.1160   35.9720 C   0  0  0  0  0  3  0  0  0  0  0  0
   33.9800   28.6610   36.2170 C   0  0  0  0  0  0  0  0  0  0  0  0
   33.3580   28.3780   35.3810 H   0  0  0  0  0  0  0  0  0  0  0  0
   33.5220   28.5820   37.5150 C   0  0  0  0  0  0  0  0  0  0  0  0
   32.5160   28.2250   37.6730 H   0  0  0  0  0  0  0  0  0  0  0  0
   34.3500   28.9520   38.5390 C   0  0  0  0  0  3  0  0  0  0  0  0
   40.0900   27.3270   43.5290 C   0  0  0  0  0  0  0  0  0  0  0  0
   39.6490   25.9860   43.4180 C   0  0  0  0  0  0  0  0  0  0  0  0
   38.6180   25.7660   42.5320 C   0  0  0  0  0  0  0  0  0  0  0  0
   38.0690   26.7990   41.8120 N   0  0  0  0  0  0  0  0  0  0  0  0
   38.5310   28.0810   41.9550 C   0  0  0  0  0  0  0  0  0  0  0  0
   39.5400   28.3310   42.8150 N   0  0  0  0  0  0  0  0  0  0  0  0
   40.9030   27.5780   44.2130 H   0  0  0  0  0  0  0  0  0  0  0  0
   40.1060   25.1990   44.0010 H   0  0  0  0  0  0  0  0  0  0  0  0
   38.1020   24.3790   42.3170 C   0  0  0  0  0  0  0  0  0  0  0  0
   36.7980   24.3480   41.5200 C   0  0  0  0  0  0  0  0  0  0  0  0
   38.1660   23.8050   40.9960 C   0  0  0  0  0  0  0  0  0  0  0  0
   37.9840   23.7990   43.2770 H   0  0  0  0  0  0  0  0  0  0  0  0
   36.4330   25.2750   41.0500 H   0  0  0  0  0  0  0  0  0  0  0  0
   36.0350   23.5990   41.7380 H   0  0  0  0  0  0  0  0  0  0  0  0
   38.2200   22.6960   40.8370 H   0  0  0  0  0  0  0  0  0  0  0  0
   38.6530   24.4130   40.2060 H   0  0  0  0  0  0  0  0  0  0  0  0
  1  2  1  0  0  0  0
  1 23  1  0  0  0  0
  2  7  1  0  0  0  0
  3  8  1  0  0  0  0
  3  2  2  0  0  0  0
  4  3  1  0  0  0  0
  5  4  2  0  0  0  0
  5  6  1  0  0  0  0
  6  1  2  0  0  0  0
  9  4  1  0  0  0  0
 10 18  1  0  0  0  0
 10  5  1  0  0  0  0
 11 10  2  0  0  0  0
 12 11  1  0  0  0  0
 13 14  2  0  0  0  0
 13 11  1  0  0  0  0
 14 16  1  0  0  0  0
 15 14  1  0  0  0  0
 16 17  1  0  0  0  0
 16 18  2  0  0  0  0
 19 25  1  0  0  0  0
 20 19  1  0  0  0  0
 20 26  1  0  0  0  0
 21 20  2  0  0  0  0
 22 23  2  0  0  0  0
 22 21  1  0  0  0  0
 23 24  1  0  0  0  0
 24 19  2  0  0  0  0
 27 21  1  0  0  0  0
 27 30  1  0  0  0  0
 28 32  1  0  0  0  0
 28 27  1  0  0  0  0
 29 28  1  0  0  0  0
 29 27  1  0  0  0  0
 31 28  1  0  0  0  0
 33 29  1  0  0  0  0
 34 29  1  0  0  0  0
M  END
>  <minimizedAffinity>
-5.5065999

$$$$

 OpenBabel03252505203D

 34 37  0  0  0  0  0  0  0  0999 V2000
   36.7700   27.5800   39.8410 C   0  0  0  0  0  0  0  0  0  0  0  0
   35.8320   27.4350   38.8470 C   0  0  0  0  0  0  0  0  0  0  0  0
   35.4140   28.5250   38.1160 C   0  0  0  0  0  0  0  0  0  0  0  0
   35.9680   29.7470   38.4200 C   0  0  0  0  0  0  0  0  0  0  0  0
   36.9110   29.8470   39.4310 C   0  0  0  0  0  0  0  0  0  0  0  0
   37.3250   28.7780   40.1520 N   0  0  0  0  0  0  0  0  0  0  0  0
   35.4210   26.4350   38.6440 H   0  0  0  0  0  0  0  0  0  0  0  0
   34.6760   28.4160   37.3330 H   0  0  0  0  0  0  0  0  0  0  0  0
   35.6470   30.6030   37.8560 H   0  0  0  0  0  0  0  0  0  0  0  0
   37.5220   31.1220   39.7850 C   0  0  0  0  0  0  0  0  0  0  0  0
   38.6600   31.1390   40.5550 C   0  0  0  0  0  0  0  0  0  0  0  0
   39.1510   30.2350   40.9290 H   0  0  0  0  0  0  0  0  0  0  0  0
   39.3160   32.3120   40.9440 C   0  0  0  0  0  3  0  0  0  0  0  0
   38.7860   33.5290   40.5290 C   0  0  0  0  0  0  0  0  0  0  0  0
   39.2820   34.4430   40.8220 H   0  0  0  0  0  0  0  0  0  0  0  0
   37.6440   33.5450   39.7560 C   0  0  0  0  0  0  0  0  0  0  0  0
   37.2570   34.5040   39.4490 H   0  0  0  0  0  0  0  0  0  0  0  0
   37.0540   32.3600   39.4110 C   0  0  0  0  0  3  0  0  0  0  0  0
   37.0600   24.1230   41.0830 C   0  0  0  0  0  0  0  0  0  0  0  0
   38.0440   24.2160   42.0960 C   0  0  0  0  0  0  0  0  0  0  0  0
   38.5700   25.4720   42.3070 C   0  0  0  0  0  0  0  0  0  0  0  0
   38.1490   26.5500   41.5670 N   0  0  0  0  0  0  0  0  0  0  0  0
   37.1920   26.4080   40.5960 C   0  0  0  0  0  0  0  0  0  0  0  0
   36.6570   25.1910   40.3640 N   0  0  0  0  0  0  0  0  0  0  0  0
   36.5990   23.1590   40.8590 H   0  0  0  0  0  0  0  0  0  0  0  0
   38.3500   23.3450   42.6590 H   0  0  0  0  0  0  0  0  0  0  0  0
   39.5920   25.6830   43.3770 C   0  0  0  0  0  0  0  0  0  0  0  0
   40.9540   26.1030   42.8230 C   0  0  0  0  0  0  0  0  0  0  0  0
   40.0250   27.0260   43.6770 C   0  0  0  0  0  0  0  0  0  0  0  0
   39.7080   24.7920   44.0590 H   0  0  0  0  0  0  0  0  0  0  0  0
   41.0430   26.3610   41.7560 H   0  0  0  0  0  0  0  0  0  0  0  0
   41.8730   25.7680   43.3060 H   0  0  0  0  0  0  0  0  0  0  0  0
   40.4160   27.3070   44.6890 H   0  0  0  0  0  0  0  0  0  0  0  0
   39.5280   27.8490   43.1240 H   0  0  0  0  0  0  0  0  0  0  0  0
  1  6  1  0  0  0  0
  1 23  1  0  0  0  0
  2  1  2  0  0  0  0
  3  4  2  0  0  0  0
  3  2  1  0  0  0  0
  4  5  1  0  0  0  0
  5 10  1  0  0  0  0
  5  6  2  0  0  0  0
  7  2  1  0  0  0  0
  8  3  1  0  0  0  0
  9  4  1  0  0  0  0
 10 11  1  0  0  0  0
 11 12  1  0  0  0  0
 11 13  2  0  0  0  0
 14 15  1  0  0  0  0
 14 13  1  0  0  0  0
 16 14  2  0  0  0  0
 17 16  1  0  0  0  0
 18 16  1  0  0  0  0
 18 10  2  0  0  0  0
 19 20  1  0  0  0  0
 20 21  2  0  0  0  0
 20 26  1  0  0  0  0
 21 27  1  0  0  0  0
 22 21  1  0  0  0  0
 23 22  2  0  0  0  0
 24 23  1  0  0  0  0
 24 19  2  0  0  0  0
 25 19  1  0  0  0  0
 27 29  1  0  0  0  0
 27 30  1  0  0  0  0
 28 32  1  0  0  0  0
 28 27  1  0  0  0  0
 28 29  1  0  0  0  0
 29 33  1  0  0  0  0
 31 28  1  0  0  0  0
 34 29  1  0  0  0  0
M  END
>  <minimizedAffinity>
-5.41403246

$$$$

 OpenBabel03252505203D

 34 37  0  0  0  0  0  0  0  0999 V2000
   38.6550   28.8670   41.8100 C   0  0  0  0  0  0  0  0  0  0  0  0
   38.1070   29.1950   43.0280 C   0  0  0  0  0  0  0  0  0  0  0  0
   37.2640   28.3170   43.6730 C   0  0  0  0  0  0  0  0  0  0  0  0
   36.9970   27.1170   43.0560 C   0  0  0  0  0  0  0  0  0  0  0  0
   37.5720   26.8290   41.8280 C   0  0  0  0  0  0  0  0  0  0  0  0
   38.4020   27.6880   41.1900 N   0  0  0  0  0  0  0  0  0  0  0  0
   38.3530   30.1680   43.4780 H   0  0  0  0  0  0  0  0  0  0  0  0
   36.8310   28.5700   44.6310 H   0  0  0  0  0  0  0  0  0  0  0  0
   36.3410   26.4270   43.5520 H   0  0  0  0  0  0  0  0  0  0  0  0
   37.3170   25.5690   41.1400 C   0  0  0  0  0  0  0  0  0  0  0  0
   36.5740   25.5660   39.9840 C   0  0  0  0  0  0  0  0  0  0  0  0
   36.1510   26.4700   39.5340 H   0  0  0  0  0  0  0  0  0  0  0  0
   36.2790   24.4090   39.2560 C   0  0  0  0  0  3  0  0  0  0  0  0
   36.7630   23.1940   39.7280 C   0  0  0  0  0  0  0  0  0  0  0  0
   36.5430   22.2920   39.1760 H   0  0  0  0  0  0  0  0  0  0  0  0
   37.5110   23.1640   40.8860 C   0  0  0  0  0  0  0  0  0  0  0  0
   37.8730   22.2070   41.2270 H   0  0  0  0  0  0  0  0  0  0  0  0
   37.7630   24.3340   41.5480 C   0  0  0  0  0  3  0  0  0  0  0  0
   41.6530   30.4470   40.3640 C   0  0  0  0  0  0  0  0  0  0  0  0
   41.1780   31.6960   39.8990 C   0  0  0  0  0  0  0  0  0  0  0  0
   39.8380   31.9400   40.1020 C   0  0  0  0  0  0  0  0  0  0  0  0
   39.0340   31.0130   40.7200 N   0  0  0  0  0  0  0  0  0  0  0  0
   39.5430   29.8160   41.1530 C   0  0  0  0  0  0  0  0  0  0  0  0
   40.8510   29.5460   40.9690 N   0  0  0  0  0  0  0  0  0  0  0  0
   42.7050   30.1820   40.2360 H   0  0  0  0  0  0  0  0  0  0  0  0
   41.8410   32.4010   39.4170 H   0  0  0  0  0  0  0  0  0  0  0  0
   39.2440   33.2450   39.6770 C   0  0  0  0  0  0  0  0  0  0  0  0
   37.7210   33.2740   39.8060 C   0  0  0  0  0  0  0  0  0  0  0  0
   38.6980   34.1260   40.6800 C   0  0  0  0  0  0  0  0  0  0  0  0
   39.5510   33.5510   38.6350 H   0  0  0  0  0  0  0  0  0  0  0  0
   37.2090   32.4450   40.3210 H   0  0  0  0  0  0  0  0  0  0  0  0
   37.1160   33.8250   39.0850 H   0  0  0  0  0  0  0  0  0  0  0  0
   38.6470   35.2350   40.5250 H   0  0  0  0  0  0  0  0  0  0  0  0
   38.7980   33.8070   41.7370 H   0  0  0  0  0  0  0  0  0  0  0  0
  1  2  1  0  0  0  0
  2  7  1  0  0  0  0
  2  3  2  0  0  0  0
  3  8  1  0  0  0  0
  4  9  1  0  0  0  0
  4  3  1  0  0  0  0
  5  4  2  0  0  0  0
  6  1  2  0  0  0  0
  6  5  1  0  0  0  0
 10 18  1  0  0  0  0
 10  5  1  0  0  0  0
 11 10  2  0  0  0  0
 12 11  1  0  0  0  0
 13 14  2  0  0  0  0
 13 11  1  0  0  0  0
 14 16  1  0  0  0  0
 15 14  1  0  0  0  0
 16 17  1  0  0  0  0
 16 18  2  0  0  0  0
 19 24  1  0  0  0  0
 20 21  1  0  0  0  0
 20 19  2  0  0  0  0
 21 22  2  0  0  0  0
 22 23  1  0  0  0  0
 23  1  1  0  0  0  0
 24 23  2  0  0  0  0
 25 19  1  0  0  0  0
 26 20  1  0  0  0  0
 27 28  1  0  0  0  0
 27 21  1  0  0  0  0
 27 29  1  0  0  0  0
 28 31  1  0  0  0  0
 28 29  1  0  0  0  0
 29 34  1  0  0  0  0
 30 27  1  0  0  0  0
 32 28  1  0  0  0  0
 33 29  1  0  0  0  0
M  END
>  <minimizedAffinity>
-5.39089727

$$$$

 OpenBabel03252505203D

 34 37  0  0  0  0  0  0  0  0999 V2000
   39.2950   27.2460   42.4370 C   0  0  0  0  0  0  0  0  0  0  0  0
   40.1450   26.8010   43.4220 C   0  0  0  0  0  0  0  0  0  0  0  0
   40.2710   25.4540   43.6800 C   0  0  0  0  0  0  0  0  0  0  0  0
   39.5200   24.5860   42.9210 C   0  0  0  0  0  0  0  0  0  0  0  0
   38.6760   25.0790   41.9380 C   0  0  0  0  0  0  0  0  0  0  0  0
   38.5490   26.4030   41.6810 N   0  0  0  0  0  0  0  0  0  0  0  0
   40.7230   27.5380   43.9990 H   0  0  0  0  0  0  0  0  0  0  0  0
   40.9380   25.0990   44.4530 H   0  0  0  0  0  0  0  0  0  0  0  0
   39.6120   23.5330   43.1160 H   0  0  0  0  0  0  0  0  0  0  0  0
   37.8640   24.1950   41.1120 C   0  0  0  0  0  0  0  0  0  0  0  0
   38.3850   23.0000   40.6790 C   0  0  0  0  0  0  0  0  0  0  0  0
   39.3970   22.6580   40.9200 H   0  0  0  0  0  0  0  0  0  0  0  0
   37.6810   22.0890   39.8850 C   0  0  0  0  0  3  0  0  0  0  0  0
   36.3800   22.4110   39.5120 C   0  0  0  0  0  0  0  0  0  0  0  0
   35.8250   21.7170   38.8990 H   0  0  0  0  0  0  0  0  0  0  0  0
   35.8290   23.6030   39.9300 C   0  0  0  0  0  0  0  0  0  0  0  0
   34.8180   23.8250   39.6250 H   0  0  0  0  0  0  0  0  0  0  0  0
   36.5740   24.4480   40.7060 C   0  0  0  0  0  3  0  0  0  0  0  0
   40.0280   30.8550   42.3190 C   0  0  0  0  0  0  0  0  0  0  0  0
   38.8860   31.4050   41.6890 C   0  0  0  0  0  0  0  0  0  0  0  0
   37.9090   30.5040   41.3280 C   0  0  0  0  0  0  0  0  0  0  0  0
   38.0580   29.1600   41.5750 N   0  0  0  0  0  0  0  0  0  0  0  0
   39.1840   28.6770   42.1880 C   0  0  0  0  0  0  0  0  0  0  0  0
   40.1600   29.5330   42.5540 N   0  0  0  0  0  0  0  0  0  0  0  0
   40.8450   31.5090   42.6320 H   0  0  0  0  0  0  0  0  0  0  0  0
   38.8040   32.4680   41.5110 H   0  0  0  0  0  0  0  0  0  0  0  0
   36.6480   30.9870   40.6860 C   0  0  0  0  0  0  0  0  0  0  0  0
   36.5730   30.6500   39.1970 C   0  0  0  0  0  0  0  0  0  0  0  0
   35.6500   30.0240   40.2910 C   0  0  0  0  0  0  0  0  0  0  0  0
   36.4670   32.0890   40.8440 H   0  0  0  0  0  0  0  0  0  0  0  0
   37.3290   29.9780   38.7590 H   0  0  0  0  0  0  0  0  0  0  0  0
   36.0930   31.3370   38.4990 H   0  0  0  0  0  0  0  0  0  0  0  0
   34.5640   30.2950   40.2240 H   0  0  0  0  0  0  0  0  0  0  0  0
   35.8510   28.9610   40.5390 H   0  0  0  0  0  0  0  0  0  0  0  0
  1  2  1  0  0  0  0
  2  3  2  0  0  0  0
  2  7  1  0  0  0  0
  3  8  1  0  0  0  0
  4  9  1  0  0  0  0
  4  3  1  0  0  0  0
  5  4  2  0  0  0  0
  6  5  1  0  0  0  0
  6  1  2  0  0  0  0
 10  5  1  0  0  0  0
 11 12  1  0  0  0  0
 11 10  2  0  0  0  0
 13 11  1  0  0  0  0
 14 13  2  0  0  0  0
 14 16  1  0  0  0  0
 15 14  1  0  0  0  0
 16 18  2  0  0  0  0
 17 16  1  0  0  0  0
 18 10  1  0  0  0  0
 19 24  1  0  0  0  0
 19 25  1  0  0  0  0
 20 19  2  0  0  0  0
 21 22  2  0  0  0  0
 21 20  1  0  0  0  0
 22 23  1  0  0  0  0
 23  1  1  0  0  0  0
 23 24  2  0  0  0  0
 26 20  1  0  0  0  0
 27 30  1  0  0  0  0
 27 21  1  0  0  0  0
 28 29  1  0  0  0  0
 28 27  1  0  0  0  0
 29 34  1  0  0  0  0
 29 27  1  0  0  0  0
 31 28  1  0  0  0  0
 32 28  1  0  0  0  0
 33 29  1  0  0  0  0
M  END
>  <minimizedAffinity>
-5.3761096

$$$$
