
 OpenBabel03252508423D

 28 30  0  0  0  0  0  0  0  0999 V2000
   38.6080   31.5900   40.8090 C   0  0  0  0  0  0  0  0  0  0  0  0
   37.4730   31.7630   40.0400 C   0  0  0  0  0  0  0  0  0  0  0  0
   37.1560   33.0240   39.5660 C   0  0  0  0  0  0  0  0  0  0  0  0
   37.9870   34.0790   39.8770 C   0  0  0  0  0  0  0  0  0  0  0  0
   39.1300   33.9530   40.6420 C   0  0  0  0  0  0  0  0  0  0  0  0
   39.4010   32.6510   41.0930 C   0  0  0  0  0  0  0  0  0  0  0  0
   36.2850   33.2440   38.9580 H   0  0  0  0  0  0  0  0  0  0  0  0
   37.7750   35.0910   39.5250 H   0  0  0  0  0  0  0  0  0  0  0  0
   39.7920   34.7720   40.8940 H   0  0  0  0  0  0  0  0  0  0  0  0
   40.2870   32.4460   41.7080 H   0  0  0  0  0  0  0  0  0  0  0  0
   38.8900   28.4760   42.9400 C   0  0  0  0  0  0  0  0  0  0  0  0
   38.5940   29.7970   42.5680 C   0  0  0  0  0  0  0  0  0  0  0  0
   38.8810   30.2450   41.2700 C   0  0  0  0  0  0  0  0  0  0  0  0
   39.4410   29.3420   40.4450 N   0  0  0  0  0  0  0  0  0  0  0  0
   39.7250   28.0740   40.8020 C   0  0  0  0  0  0  0  0  0  0  0  0
   39.4520   27.6350   42.0480 N   0  0  0  0  0  0  0  0  0  0  0  0
   38.6250   28.2320   43.9760 H   0  0  0  0  0  0  0  0  0  0  0  0
   38.1450   30.5200   43.2360 H   0  0  0  0  0  0  0  0  0  0  0  0
   40.1750   27.3630   40.1230 H   0  0  0  0  0  0  0  0  0  0  0  0
   36.5240   30.7270   39.6490 C   0  0  0  0  0  0  0  0  0  0  0  0
   35.6020   30.0910   40.4530 C   0  0  0  0  0  0  0  0  0  0  0  0
   35.5950   30.4090   41.4850 H   0  0  0  0  0  0  0  0  0  0  0  0
   34.7600   29.1220   39.9540 C   0  0  0  0  0  3  0  0  0  0  0  0
   34.8680   28.8020   38.6090 C   0  0  0  0  0  0  0  0  0  0  0  0
   34.1970   28.0360   38.2280 H   0  0  0  0  0  0  0  0  0  0  0  0
   35.7750   29.4120   37.7680 C   0  0  0  0  0  0  0  0  0  0  0  0
   35.8060   29.1100   36.7190 H   0  0  0  0  0  0  0  0  0  0  0  0
   36.6170   30.3900   38.2940 C   0  0  0  0  0  3  0  0  0  0  0  0
  1  6  1  0  0  0  0
  1 13  1  0  0  0  0
  2  1  2  0  0  0  0
  3  4  2  0  0  0  0
  3  2  1  0  0  0  0
  4  5  1  0  0  0  0
  5  9  1  0  0  0  0
  5  6  2  0  0  0  0
  6 10  1  0  0  0  0
  7  3  1  0  0  0  0
  8  4  1  0  0  0  0
 11 17  1  0  0  0  0
 12 11  1  0  0  0  0
 12 18  1  0  0  0  0
 13 12  2  0  0  0  0
 14 15  2  0  0  0  0
 14 13  1  0  0  0  0
 15 16  1  0  0  0  0
 16 11  2  0  0  0  0
 19 15  1  0  0  0  0
 20  2  1  0  0  0  0
 20 21  1  0  0  0  0
 21 22  1  0  0  0  0
 23 21  2  0  0  0  0
 24 23  1  0  0  0  0
 25 24  1  0  0  0  0
 26 28  1  0  0  0  0
 26 24  2  0  0  0  0
 27 26  1  0  0  0  0
 28 20  2  0  0  0  0
M  END
>  <minimizedAffinity>
-5.41898489

$$$$

 OpenBabel03252508423D

 28 30  0  0  0  0  0  0  0  0999 V2000
   36.5130   28.4320   41.3550 C   0  0  0  0  0  0  0  0  0  0  0  0
   37.4340   29.4600   41.4170 C   0  0  0  0  0  0  0  0  0  0  0  0
   38.1760   29.6430   42.5700 C   0  0  0  0  0  0  0  0  0  0  0  0
   37.9750   28.7860   43.6320 C   0  0  0  0  0  0  0  0  0  0  0  0
   37.0650   27.7470   43.6150 C   0  0  0  0  0  0  0  0  0  0  0  0
   36.3420   27.6110   42.4190 C   0  0  0  0  0  0  0  0  0  0  0  0
   38.9170   30.4240   42.6990 H   0  0  0  0  0  0  0  0  0  0  0  0
   38.5370   28.8940   44.5620 H   0  0  0  0  0  0  0  0  0  0  0  0
   36.8960   27.0680   44.4410 H   0  0  0  0  0  0  0  0  0  0  0  0
   35.5950   26.8140   42.3050 H   0  0  0  0  0  0  0  0  0  0  0  0
   33.9820   28.8840   38.5780 C   0  0  0  0  0  0  0  0  0  0  0  0
   34.6480   29.0760   39.7990 C   0  0  0  0  0  0  0  0  0  0  0  0
   35.7710   28.2980   40.1180 C   0  0  0  0  0  0  0  0  0  0  0  0
   36.1420   27.3900   39.1970 N   0  0  0  0  0  0  0  0  0  0  0  0
   35.5020   27.2070   38.0250 C   0  0  0  0  0  0  0  0  0  0  0  0
   34.4220   27.9500   37.7100 N   0  0  0  0  0  0  0  0  0  0  0  0
   33.1190   29.5440   38.4300 H   0  0  0  0  0  0  0  0  0  0  0  0
   34.3460   29.8060   40.5370 H   0  0  0  0  0  0  0  0  0  0  0  0
   35.8170   26.4710   37.2970 H   0  0  0  0  0  0  0  0  0  0  0  0
   37.7320   30.4220   40.3620 C   0  0  0  0  0  0  0  0  0  0  0  0
   38.5390   30.2320   39.2610 C   0  0  0  0  0  0  0  0  0  0  0  0
   38.9930   29.2550   39.1850 H   0  0  0  0  0  0  0  0  0  0  0  0
   38.7400   31.2330   38.3350 C   0  0  0  0  0  3  0  0  0  0  0  0
   38.1010   32.4450   38.5450 C   0  0  0  0  0  0  0  0  0  0  0  0
   38.2670   33.2260   37.8060 H   0  0  0  0  0  0  0  0  0  0  0  0
   37.2850   32.6800   39.6310 C   0  0  0  0  0  0  0  0  0  0  0  0
   36.8140   33.6600   39.7340 H   0  0  0  0  0  0  0  0  0  0  0  0
   37.0960   31.6540   40.5560 C   0  0  0  0  0  3  0  0  0  0  0  0
  1  2  2  0  0  0  0
  1  6  1  0  0  0  0
  2  3  1  0  0  0  0
  3  7  1  0  0  0  0
  3  4  2  0  0  0  0
  4  8  1  0  0  0  0
  5  4  1  0  0  0  0
  5  9  1  0  0  0  0
  6  5  2  0  0  0  0
 10  6  1  0  0  0  0
 11 12  1  0  0  0  0
 12 13  2  0  0  0  0
 12 18  1  0  0  0  0
 13  1  1  0  0  0  0
 14 13  1  0  0  0  0
 15 14  2  0  0  0  0
 16 15  1  0  0  0  0
 16 11  2  0  0  0  0
 17 11  1  0  0  0  0
 19 15  1  0  0  0  0
 20 28  1  0  0  0  0
 20  2  1  0  0  0  0
 21 20  2  0  0  0  0
 22 21  1  0  0  0  0
 23 24  2  0  0  0  0
 23 21  1  0  0  0  0
 24 26  1  0  0  0  0
 25 24  1  0  0  0  0
 26 27  1  0  0  0  0
 26 28  2  0  0  0  0
M  END
>  <minimizedAffinity>
-5.22761059

$$$$

 OpenBabel03252508423D

 28 30  0  0  0  0  0  0  0  0999 V2000
   36.2540   26.7530   39.2610 C   0  0  0  0  0  0  0  0  0  0  0  0
   36.1030   27.8920   40.0280 C   0  0  0  0  0  0  0  0  0  0  0  0
   35.2590   28.8990   39.5960 C   0  0  0  0  0  0  0  0  0  0  0  0
   34.5860   28.7360   38.4030 C   0  0  0  0  0  0  0  0  0  0  0  0
   34.7070   27.6160   37.6040 C   0  0  0  0  0  0  0  0  0  0  0  0
   35.5770   26.6280   38.0940 C   0  0  0  0  0  0  0  0  0  0  0  0
   35.0860   29.8220   40.1380 H   0  0  0  0  0  0  0  0  0  0  0  0
   33.9100   29.5050   38.0230 H   0  0  0  0  0  0  0  0  0  0  0  0
   34.1860   27.4750   36.6650 H   0  0  0  0  0  0  0  0  0  0  0  0
   35.7410   25.7000   37.5320 H   0  0  0  0  0  0  0  0  0  0  0  0
   37.6580   23.6790   40.9640 C   0  0  0  0  0  0  0  0  0  0  0  0
   36.7230   24.6200   40.5010 C   0  0  0  0  0  0  0  0  0  0  0  0
   37.1520   25.7390   39.7720 C   0  0  0  0  0  0  0  0  0  0  0  0
   38.4780   25.8340   39.5610 N   0  0  0  0  0  0  0  0  0  0  0  0
   39.3740   24.9310   40.0060 C   0  0  0  0  0  0  0  0  0  0  0  0
   38.9710   23.8520   40.7080 N   0  0  0  0  0  0  0  0  0  0  0  0
   37.2150   22.8450   41.5220 H   0  0  0  0  0  0  0  0  0  0  0  0
   35.6590   24.5400   40.6750 H   0  0  0  0  0  0  0  0  0  0  0  0
   40.4360   25.0250   39.8250 H   0  0  0  0  0  0  0  0  0  0  0  0
   36.7580   28.1730   41.3000 C   0  0  0  0  0  0  0  0  0  0  0  0
   36.4430   27.6520   42.5370 C   0  0  0  0  0  0  0  0  0  0  0  0
   35.6160   26.9570   42.5460 H   0  0  0  0  0  0  0  0  0  0  0  0
   37.1460   28.0060   43.6680 C   0  0  0  0  0  3  0  0  0  0  0  0
   38.1880   28.9090   43.5240 C   0  0  0  0  0  0  0  0  0  0  0  0
   38.7350   29.1800   44.4240 H   0  0  0  0  0  0  0  0  0  0  0  0
   38.5390   29.4560   42.3080 C   0  0  0  0  0  0  0  0  0  0  0  0
   39.3710   30.1630   42.2680 H   0  0  0  0  0  0  0  0  0  0  0  0
   37.8140   29.0840   41.1770 C   0  0  0  0  0  3  0  0  0  0  0  0
  1 13  1  0  0  0  0
  1  2  1  0  0  0  0
  2 20  1  0  0  0  0
  3  2  2  0  0  0  0
  3  7  1  0  0  0  0
  4  3  1  0  0  0  0
  5  6  1  0  0  0  0
  5  4  2  0  0  0  0
  6  1  2  0  0  0  0
  8  4  1  0  0  0  0
  9  5  1  0  0  0  0
 10  6  1  0  0  0  0
 11 17  1  0  0  0  0
 12 18  1  0  0  0  0
 12 11  2  0  0  0  0
 13 12  1  0  0  0  0
 14 13  2  0  0  0  0
 14 15  1  0  0  0  0
 15 16  2  0  0  0  0
 16 11  1  0  0  0  0
 19 15  1  0  0  0  0
 20 21  1  0  0  0  0
 21 22  1  0  0  0  0
 21 23  2  0  0  0  0
 24 23  1  0  0  0  0
 24 25  1  0  0  0  0
 26 24  2  0  0  0  0
 27 26  1  0  0  0  0
 28 20  2  0  0  0  0
 28 26  1  0  0  0  0
M  END
>  <minimizedAffinity>
-5.05560398

$$$$

 OpenBabel03252508423D

 28 30  0  0  0  0  0  0  0  0999 V2000
   38.7570   26.8590   41.9240 C   0  0  0  0  0  0  0  0  0  0  0  0
   37.5370   26.5260   41.3690 C   0  0  0  0  0  0  0  0  0  0  0  0
   37.0660   25.2300   41.4850 C   0  0  0  0  0  0  0  0  0  0  0  0
   37.8330   24.3010   42.1570 C   0  0  0  0  0  0  0  0  0  0  0  0
   39.0580   24.5900   42.7260 C   0  0  0  0  0  0  0  0  0  0  0  0
   39.4830   25.9200   42.5770 C   0  0  0  0  0  0  0  0  0  0  0  0
   36.1200   24.8870   41.0790 H   0  0  0  0  0  0  0  0  0  0  0  0
   37.5020   23.2670   42.2720 H   0  0  0  0  0  0  0  0  0  0  0  0
   39.6720   23.8720   43.2560 H   0  0  0  0  0  0  0  0  0  0  0  0
   40.4440   26.2500   42.9950 H   0  0  0  0  0  0  0  0  0  0  0  0
   39.5150   30.5150   42.5420 C   0  0  0  0  0  0  0  0  0  0  0  0
   39.0720   29.2020   42.7730 C   0  0  0  0  0  0  0  0  0  0  0  0
   39.1890   28.2320   41.7670 C   0  0  0  0  0  0  0  0  0  0  0  0
   39.7360   28.6460   40.6090 N   0  0  0  0  0  0  0  0  0  0  0  0
   40.1610   29.9050   40.3880 C   0  0  0  0  0  0  0  0  0  0  0  0
   40.0530   30.8440   41.3500 N   0  0  0  0  0  0  0  0  0  0  0  0
   39.3770   31.1910   43.3950 H   0  0  0  0  0  0  0  0  0  0  0  0
   38.6320   28.8750   43.7050 H   0  0  0  0  0  0  0  0  0  0  0  0
   40.5990   30.2180   39.4500 H   0  0  0  0  0  0  0  0  0  0  0  0
   36.6420   27.4170   40.6410 C   0  0  0  0  0  0  0  0  0  0  0  0
   35.8780   28.4420   41.1600 C   0  0  0  0  0  0  0  0  0  0  0  0
   35.9650   28.5860   42.2260 H   0  0  0  0  0  0  0  0  0  0  0  0
   35.0670   29.2120   40.3550 C   0  0  0  0  0  3  0  0  0  0  0  0
   35.0420   28.9260   38.9990 C   0  0  0  0  0  0  0  0  0  0  0  0
   34.3990   29.5430   38.3750 H   0  0  0  0  0  0  0  0  0  0  0  0
   35.7890   27.9120   38.4370 C   0  0  0  0  0  0  0  0  0  0  0  0
   35.7200   27.7420   37.3600 H   0  0  0  0  0  0  0  0  0  0  0  0
   36.6020   27.1440   39.2690 C   0  0  0  0  0  3  0  0  0  0  0  0
  1  6  1  0  0  0  0
  2  3  1  0  0  0  0
  2  1  2  0  0  0  0
  3  4  2  0  0  0  0
  4  8  1  0  0  0  0
  4  5  1  0  0  0  0
  5  9  1  0  0  0  0
  6  5  2  0  0  0  0
  6 10  1  0  0  0  0
  7  3  1  0  0  0  0
 11 12  1  0  0  0  0
 11 17  1  0  0  0  0
 12 18  1  0  0  0  0
 13  1  1  0  0  0  0
 13 12  2  0  0  0  0
 14 13  1  0  0  0  0
 15 14  2  0  0  0  0
 15 16  1  0  0  0  0
 16 11  2  0  0  0  0
 19 15  1  0  0  0  0
 20 21  1  0  0  0  0
 20  2  1  0  0  0  0
 21 22  1  0  0  0  0
 23 21  2  0  0  0  0
 24 23  1  0  0  0  0
 25 24  1  0  0  0  0
 26 24  2  0  0  0  0
 26 28  1  0  0  0  0
 27 26  1  0  0  0  0
 28 20  2  0  0  0  0
M  END
>  <minimizedAffinity>
-5.00804758

$$$$

 OpenBabel03252508423D

 28 30  0  0  0  0  0  0  0  0999 V2000
   38.1390   29.1250   41.2820 C   0  0  0  0  0  0  0  0  0  0  0  0
   37.0190   28.3380   41.0960 C   0  0  0  0  0  0  0  0  0  0  0  0
   35.8110   28.9340   40.7780 C   0  0  0  0  0  0  0  0  0  0  0  0
   35.7590   30.3060   40.6560 C   0  0  0  0  0  0  0  0  0  0  0  0
   36.8520   31.1320   40.8350 C   0  0  0  0  0  0  0  0  0  0  0  0
   38.0500   30.4710   41.1540 C   0  0  0  0  0  0  0  0  0  0  0  0
   34.8880   28.3880   40.6160 H   0  0  0  0  0  0  0  0  0  0  0  0
   34.8280   30.8190   40.4080 H   0  0  0  0  0  0  0  0  0  0  0  0
   36.8270   32.2110   40.7430 H   0  0  0  0  0  0  0  0  0  0  0  0
   38.9750   31.0380   41.3150 H   0  0  0  0  0  0  0  0  0  0  0  0
   41.3890   27.2010   41.0530 C   0  0  0  0  0  0  0  0  0  0  0  0
   40.2110   27.8520   40.6530 C   0  0  0  0  0  0  0  0  0  0  0  0
   39.3700   28.4370   41.6110 C   0  0  0  0  0  0  0  0  0  0  0  0
   39.7670   28.3270   42.8920 N   0  0  0  0  0  0  0  0  0  0  0  0
   40.8980   27.7010   43.2750 C   0  0  0  0  0  0  0  0  0  0  0  0
   41.7130   27.1360   42.3600 N   0  0  0  0  0  0  0  0  0  0  0  0
   41.9720   26.7800   40.2240 H   0  0  0  0  0  0  0  0  0  0  0  0
   39.8950   27.9370   39.6220 H   0  0  0  0  0  0  0  0  0  0  0  0
   41.2010   27.6240   44.3100 H   0  0  0  0  0  0  0  0  0  0  0  0
   36.9540   26.8850   41.1970 C   0  0  0  0  0  0  0  0  0  0  0  0
   37.0130   26.1230   42.3460 C   0  0  0  0  0  0  0  0  0  0  0  0
   37.1190   26.6820   43.2630 H   0  0  0  0  0  0  0  0  0  0  0  0
   36.9420   24.7480   42.3010 C   0  0  0  0  0  3  0  0  0  0  0  0
   36.8060   24.1470   41.0580 C   0  0  0  0  0  0  0  0  0  0  0  0
   36.7490   23.0620   41.0380 H   0  0  0  0  0  0  0  0  0  0  0  0
   36.7420   24.8690   39.8850 C   0  0  0  0  0  0  0  0  0  0  0  0
   36.6370   24.3300   38.9410 H   0  0  0  0  0  0  0  0  0  0  0  0
   36.8170   26.2590   39.9530 C   0  0  0  0  0  3  0  0  0  0  0  0
  1 13  1  0  0  0  0
  2 20  1  0  0  0  0
  2  1  2  0  0  0  0
  3  2  1  0  0  0  0
  4  3  2  0  0  0  0
  4  5  1  0  0  0  0
  5  6  2  0  0  0  0
  6  1  1  0  0  0  0
  6 10  1  0  0  0  0
  7  3  1  0  0  0  0
  8  4  1  0  0  0  0
  9  5  1  0  0  0  0
 11 16  1  0  0  0  0
 12 11  2  0  0  0  0
 12 13  1  0  0  0  0
 13 14  2  0  0  0  0
 14 15  1  0  0  0  0
 15 19  1  0  0  0  0
 16 15  2  0  0  0  0
 17 11  1  0  0  0  0
 18 12  1  0  0  0  0
 20 21  1  0  0  0  0
 21 22  1  0  0  0  0
 23 21  2  0  0  0  0
 24 23  1  0  0  0  0
 25 24  1  0  0  0  0
 26 28  1  0  0  0  0
 26 24  2  0  0  0  0
 27 26  1  0  0  0  0
 28 20  2  0  0  0  0
M  END
>  <minimizedAffinity>
-4.95517063

$$$$

 OpenBabel03252508423D

 28 30  0  0  0  0  0  0  0  0999 V2000
   36.1180   28.0460   40.0120 C   0  0  0  0  0  0  0  0  0  0  0  0
   36.3820   26.8140   39.4460 C   0  0  0  0  0  0  0  0  0  0  0  0
   35.7350   26.4460   38.2790 C   0  0  0  0  0  0  0  0  0  0  0  0
   34.8380   27.3260   37.7110 C   0  0  0  0  0  0  0  0  0  0  0  0
   34.5420   28.5660   38.2420 C   0  0  0  0  0  0  0  0  0  0  0  0
   35.2300   28.8840   39.4250 C   0  0  0  0  0  0  0  0  0  0  0  0
   35.8860   25.4990   37.7730 H   0  0  0  0  0  0  0  0  0  0  0  0
   34.3030   27.0770   36.7920 H   0  0  0  0  0  0  0  0  0  0  0  0
   33.8400   29.2670   37.8080 H   0  0  0  0  0  0  0  0  0  0  0  0
   35.0650   29.8480   39.9250 H   0  0  0  0  0  0  0  0  0  0  0  0
   37.2200   28.2250   43.6270 C   0  0  0  0  0  0  0  0  0  0  0  0
   36.4780   27.8640   42.4910 C   0  0  0  0  0  0  0  0  0  0  0  0
   36.8310   28.3670   41.2310 C   0  0  0  0  0  0  0  0  0  0  0  0
   37.8950   29.1900   41.2000 N   0  0  0  0  0  0  0  0  0  0  0  0
   38.6080   29.5350   42.2910 C   0  0  0  0  0  0  0  0  0  0  0  0
   38.2750   29.0560   43.5070 N   0  0  0  0  0  0  0  0  0  0  0  0
   36.8580   27.7750   44.5600 H   0  0  0  0  0  0  0  0  0  0  0  0
   35.6220   27.2040   42.5210 H   0  0  0  0  0  0  0  0  0  0  0  0
   39.4610   30.1980   42.2450 H   0  0  0  0  0  0  0  0  0  0  0  0
   37.3060   25.8060   39.9530 C   0  0  0  0  0  0  0  0  0  0  0  0
   38.6830   25.8160   39.8710 C   0  0  0  0  0  0  0  0  0  0  0  0
   39.1080   26.6750   39.3730 H   0  0  0  0  0  0  0  0  0  0  0  0
   39.4420   24.7920   40.3940 C   0  0  0  0  0  3  0  0  0  0  0  0
   38.7760   23.7430   41.0100 C   0  0  0  0  0  0  0  0  0  0  0  0
   39.3870   22.9430   41.4190 H   0  0  0  0  0  0  0  0  0  0  0  0
   37.4030   23.6910   41.1140 C   0  0  0  0  0  0  0  0  0  0  0  0
   36.9440   22.8330   41.6120 H   0  0  0  0  0  0  0  0  0  0  0  0
   36.6540   24.7380   40.5780 C   0  0  0  0  0  3  0  0  0  0  0  0
  1 13  1  0  0  0  0
  2 20  1  0  0  0  0
  2  1  1  0  0  0  0
  3  2  2  0  0  0  0
  4  5  2  0  0  0  0
  4  3  1  0  0  0  0
  5  6  1  0  0  0  0
  6 10  1  0  0  0  0
  6  1  2  0  0  0  0
  7  3  1  0  0  0  0
  8  4  1  0  0  0  0
  9  5  1  0  0  0  0
 11 17  1  0  0  0  0
 12 18  1  0  0  0  0
 12 11  2  0  0  0  0
 13 12  1  0  0  0  0
 14 13  2  0  0  0  0
 14 15  1  0  0  0  0
 15 16  2  0  0  0  0
 16 11  1  0  0  0  0
 19 15  1  0  0  0  0
 20 28  1  0  0  0  0
 21 20  2  0  0  0  0
 21 23  1  0  0  0  0
 22 21  1  0  0  0  0
 23 24  2  0  0  0  0
 24 26  1  0  0  0  0
 24 25  1  0  0  0  0
 26 27  1  0  0  0  0
 28 26  2  0  0  0  0
M  END
>  <minimizedAffinity>
-4.94324684

$$$$

 OpenBabel03252508423D

 28 30  0  0  0  0  0  0  0  0999 V2000
   37.1990   28.2730   40.8260 C   0  0  0  0  0  0  0  0  0  0  0  0
   37.5490   29.3640   41.5980 C   0  0  0  0  0  0  0  0  0  0  0  0
   37.6080   29.2360   42.9740 C   0  0  0  0  0  0  0  0  0  0  0  0
   37.3140   28.0130   43.5410 C   0  0  0  0  0  0  0  0  0  0  0  0
   36.9590   26.8970   42.8090 C   0  0  0  0  0  0  0  0  0  0  0  0
   36.9170   27.0870   41.4180 C   0  0  0  0  0  0  0  0  0  0  0  0
   37.8730   30.0410   43.6500 H   0  0  0  0  0  0  0  0  0  0  0  0
   37.3470   27.8660   44.6220 H   0  0  0  0  0  0  0  0  0  0  0  0
   36.7250   25.9310   43.2390 H   0  0  0  0  0  0  0  0  0  0  0  0
   36.6460   26.2610   40.7480 H   0  0  0  0  0  0  0  0  0  0  0  0
   38.1710   28.6470   37.1880 C   0  0  0  0  0  0  0  0  0  0  0  0
   38.2940   28.4380   38.5710 C   0  0  0  0  0  0  0  0  0  0  0  0
   37.1580   28.4770   39.3930 C   0  0  0  0  0  0  0  0  0  0  0  0
   35.9890   28.7210   38.7730 N   0  0  0  0  0  0  0  0  0  0  0  0
   35.8710   28.9220   37.4460 C   0  0  0  0  0  0  0  0  0  0  0  0
   36.9580   28.8860   36.6480 N   0  0  0  0  0  0  0  0  0  0  0  0
   39.1200   28.5950   36.6410 H   0  0  0  0  0  0  0  0  0  0  0  0
   39.2360   28.2440   39.0650 H   0  0  0  0  0  0  0  0  0  0  0  0
   34.9210   29.1160   36.9660 H   0  0  0  0  0  0  0  0  0  0  0  0
   37.8800   30.6990   41.1140 C   0  0  0  0  0  0  0  0  0  0  0  0
   37.0230   31.6190   40.5470 C   0  0  0  0  0  0  0  0  0  0  0  0
   35.9950   31.2990   40.4610 H   0  0  0  0  0  0  0  0  0  0  0  0
   37.4690   32.8530   40.1270 C   0  0  0  0  0  3  0  0  0  0  0  0
   38.8140   33.1460   40.2920 C   0  0  0  0  0  0  0  0  0  0  0  0
   39.1520   34.1230   39.9570 H   0  0  0  0  0  0  0  0  0  0  0  0
   39.7060   32.2570   40.8520 C   0  0  0  0  0  0  0  0  0  0  0  0
   40.7530   32.5530   40.9510 H   0  0  0  0  0  0  0  0  0  0  0  0
   39.2340   31.0130   41.2710 C   0  0  0  0  0  3  0  0  0  0  0  0
  1  6  2  0  0  0  0
  1  2  1  0  0  0  0
  2  3  2  0  0  0  0
  3  4  1  0  0  0  0
  3  7  1  0  0  0  0
  4  8  1  0  0  0  0
  5  9  1  0  0  0  0
  5  4  2  0  0  0  0
  6  5  1  0  0  0  0
 10  6  1  0  0  0  0
 11 12  1  0  0  0  0
 12 18  1  0  0  0  0
 12 13  2  0  0  0  0
 13  1  1  0  0  0  0
 14 13  1  0  0  0  0
 15 14  2  0  0  0  0
 16 11  2  0  0  0  0
 16 15  1  0  0  0  0
 17 11  1  0  0  0  0
 19 15  1  0  0  0  0
 20 28  1  0  0  0  0
 20  2  1  0  0  0  0
 21 20  2  0  0  0  0
 22 21  1  0  0  0  0
 23 24  2  0  0  0  0
 23 21  1  0  0  0  0
 24 26  1  0  0  0  0
 25 24  1  0  0  0  0
 26 27  1  0  0  0  0
 26 28  2  0  0  0  0
M  END
>  <minimizedAffinity>
-4.88484383

$$$$

 OpenBabel03252508423D

 28 30  0  0  0  0  0  0  0  0999 V2000
   37.0720   25.9460   40.8890 C   0  0  0  0  0  0  0  0  0  0  0  0
   36.6700   26.2610   39.6060 C   0  0  0  0  0  0  0  0  0  0  0  0
   36.1160   25.2790   38.8040 C   0  0  0  0  0  0  0  0  0  0  0  0
   35.9800   24.0040   39.3120 C   0  0  0  0  0  0  0  0  0  0  0  0
   36.3700   23.6440   40.5870 C   0  0  0  0  0  0  0  0  0  0  0  0
   36.9240   24.6820   41.3540 C   0  0  0  0  0  0  0  0  0  0  0  0
   35.7760   25.4440   37.7870 H   0  0  0  0  0  0  0  0  0  0  0  0
   35.5500   23.1980   38.7140 H   0  0  0  0  0  0  0  0  0  0  0  0
   36.2700   22.6480   41.0000 H   0  0  0  0  0  0  0  0  0  0  0  0
   37.2630   24.4980   42.3820 H   0  0  0  0  0  0  0  0  0  0  0  0
   37.5100   28.9000   43.2130 C   0  0  0  0  0  0  0  0  0  0  0  0
   36.8820   27.8790   42.4820 C   0  0  0  0  0  0  0  0  0  0  0  0
   37.6420   27.0210   41.6740 C   0  0  0  0  0  0  0  0  0  0  0  0
   38.9690   27.2470   41.6570 N   0  0  0  0  0  0  0  0  0  0  0  0
   39.5710   28.2280   42.3600 C   0  0  0  0  0  0  0  0  0  0  0  0
   38.8470   29.0570   43.1390 N   0  0  0  0  0  0  0  0  0  0  0  0
   36.8220   29.5110   43.8110 H   0  0  0  0  0  0  0  0  0  0  0  0
   35.8150   27.7020   42.4970 H   0  0  0  0  0  0  0  0  0  0  0  0
   40.6400   28.3920   42.3330 H   0  0  0  0  0  0  0  0  0  0  0  0
   36.7620   27.5670   38.9640 C   0  0  0  0  0  0  0  0  0  0  0  0
   37.8690   28.1260   38.3590 C   0  0  0  0  0  0  0  0  0  0  0  0
   38.7580   27.5130   38.3710 H   0  0  0  0  0  0  0  0  0  0  0  0
   37.8210   29.3790   37.7880 C   0  0  0  0  0  3  0  0  0  0  0  0
   36.6180   30.0670   37.8390 C   0  0  0  0  0  0  0  0  0  0  0  0
   36.5940   31.0540   37.3840 H   0  0  0  0  0  0  0  0  0  0  0  0
   35.4870   29.5480   38.4330 C   0  0  0  0  0  0  0  0  0  0  0  0
   34.5730   30.1460   38.4370 H   0  0  0  0  0  0  0  0  0  0  0  0
   35.5580   28.2790   39.0050 C   0  0  0  0  0  3  0  0  0  0  0  0
  1  6  1  0  0  0  0
  1 13  1  0  0  0  0
  2  1  2  0  0  0  0
  3  4  2  0  0  0  0
  3  2  1  0  0  0  0
  4  5  1  0  0  0  0
  5  9  1  0  0  0  0
  5  6  2  0  0  0  0
  6 10  1  0  0  0  0
  7  3  1  0  0  0  0
  8  4  1  0  0  0  0
 11 17  1  0  0  0  0
 12 18  1  0  0  0  0
 12 11  2  0  0  0  0
 13 12  1  0  0  0  0
 14 13  2  0  0  0  0
 14 15  1  0  0  0  0
 15 16  2  0  0  0  0
 16 11  1  0  0  0  0
 19 15  1  0  0  0  0
 20 28  1  0  0  0  0
 20  2  1  0  0  0  0
 21 22  1  0  0  0  0
 21 20  2  0  0  0  0
 23 24  2  0  0  0  0
 23 21  1  0  0  0  0
 24 26  1  0  0  0  0
 25 24  1  0  0  0  0
 26 27  1  0  0  0  0
 26 28  2  0  0  0  0
M  END
>  <minimizedAffinity>
-4.86324215

$$$$

 OpenBabel03252508423D

 28 30  0  0  0  0  0  0  0  0999 V2000
   37.1670   29.8190   39.2450 C   0  0  0  0  0  0  0  0  0  0  0  0
   36.9010   28.6550   39.9400 C   0  0  0  0  0  0  0  0  0  0  0  0
   35.9000   27.8080   39.4960 C   0  0  0  0  0  0  0  0  0  0  0  0
   35.1920   28.1530   38.3640 C   0  0  0  0  0  0  0  0  0  0  0  0
   35.4230   29.3060   37.6390 C   0  0  0  0  0  0  0  0  0  0  0  0
   36.4500   30.1240   38.1370 C   0  0  0  0  0  0  0  0  0  0  0  0
   35.6290   26.8780   39.9830 H   0  0  0  0  0  0  0  0  0  0  0  0
   34.3930   27.5160   37.9780 H   0  0  0  0  0  0  0  0  0  0  0  0
   34.8750   29.5900   36.7490 H   0  0  0  0  0  0  0  0  0  0  0  0
   36.7110   31.0630   37.6310 H   0  0  0  0  0  0  0  0  0  0  0  0
   39.1020   32.4450   41.1630 C   0  0  0  0  0  0  0  0  0  0  0  0
   38.0200   31.6740   40.7090 C   0  0  0  0  0  0  0  0  0  0  0  0
   38.2270   30.6570   39.7640 C   0  0  0  0  0  0  0  0  0  0  0  0
   39.4950   30.4890   39.3460 N   0  0  0  0  0  0  0  0  0  0  0  0
   40.5330   31.2300   39.7820 C   0  0  0  0  0  0  0  0  0  0  0  0
   40.3430   32.2090   40.6900 N   0  0  0  0  0  0  0  0  0  0  0  0
   38.8280   33.2110   41.8990 H   0  0  0  0  0  0  0  0  0  0  0  0
   37.0020   31.8130   41.0470 H   0  0  0  0  0  0  0  0  0  0  0  0
   41.5450   31.0780   39.4340 H   0  0  0  0  0  0  0  0  0  0  0  0
   37.5800   28.1880   41.1430 C   0  0  0  0  0  0  0  0  0  0  0  0
   38.7920   27.5350   41.2190 C   0  0  0  0  0  0  0  0  0  0  0  0
   39.2800   27.3590   40.2720 H   0  0  0  0  0  0  0  0  0  0  0  0
   39.3240   27.1440   42.4280 C   0  0  0  0  0  3  0  0  0  0  0  0
   38.5990   27.4280   43.5760 C   0  0  0  0  0  0  0  0  0  0  0  0
   39.0300   27.1140   44.5230 H   0  0  0  0  0  0  0  0  0  0  0  0
   37.3830   28.0770   43.5470 C   0  0  0  0  0  0  0  0  0  0  0  0
   36.8660   28.2680   44.4900 H   0  0  0  0  0  0  0  0  0  0  0  0
   36.8640   28.4640   42.3130 C   0  0  0  0  0  3  0  0  0  0  0  0
  1 13  1  0  0  0  0
  1  2  1  0  0  0  0
  2 20  1  0  0  0  0
  3  2  2  0  0  0  0
  3  7  1  0  0  0  0
  4  3  1  0  0  0  0
  5  6  1  0  0  0  0
  5  4  2  0  0  0  0
  6  1  2  0  0  0  0
  8  4  1  0  0  0  0
  9  5  1  0  0  0  0
 10  6  1  0  0  0  0
 11 17  1  0  0  0  0
 12 18  1  0  0  0  0
 12 11  1  0  0  0  0
 13 12  2  0  0  0  0
 14 13  1  0  0  0  0
 14 15  2  0  0  0  0
 15 16  1  0  0  0  0
 16 11  2  0  0  0  0
 19 15  1  0  0  0  0
 20 21  2  0  0  0  0
 20 28  1  0  0  0  0
 21 23  1  0  0  0  0
 22 21  1  0  0  0  0
 23 24  2  0  0  0  0
 24 25  1  0  0  0  0
 26 24  1  0  0  0  0
 26 27  1  0  0  0  0
 28 26  2  0  0  0  0
M  END
>  <minimizedAffinity>
-4.84105873

$$$$
