
 OpenBabel03252500323D

 43 46  0  0  1  0  0  0  0  0999 V2000
   46.0270   31.4870   47.5560 N   0  0  0  0  0  0  0  0  0  0  0  0
   46.8080   32.3590   48.3630 C   0  0  0  0  0  0  0  0  0  0  0  0
   48.2590   31.8780   48.4320 C   0  0  0  0  0  0  0  0  0  0  0  0
   48.2160   30.5760   49.2040 C   0  0  0  0  0  0  0  0  0  0  0  0
   47.4370   29.6300   48.3250 C   0  0  0  0  0  0  0  0  0  0  0  0
   46.0490   30.1750   48.0240 C   0  0  2  0  0  0  0  0  0  0  0  0
   46.4330   32.1790   49.4210 H   0  0  0  0  0  0  0  0  0  0  0  0
   46.6810   33.4220   48.2540 H   0  0  0  0  0  0  0  0  0  0  0  0
   48.6170   31.6040   47.4130 H   0  0  0  0  0  0  0  0  0  0  0  0
   48.9120   32.6360   48.8820 H   0  0  0  0  0  0  0  0  0  0  0  0
   49.2120   30.1380   49.3710 H   0  0  0  0  0  0  0  0  0  0  0  0
   47.6570   30.6890   50.1650 H   0  0  0  0  0  0  0  0  0  0  0  0
   47.2610   28.6440   48.8120 H   0  0  0  0  0  0  0  0  0  0  0  0
   47.9750   29.5570   47.3600 H   0  0  0  0  0  0  0  0  0  0  0  0
   45.6620   30.2920   49.0800 H   0  0  0  0  0  0  0  0  0  0  0  0
   45.2160   29.1580   47.4040 C   0  0  0  0  0  0  0  0  0  0  0  0
   44.4140   29.2740   46.2890 C   0  0  0  0  0  0  0  0  0  0  0  0
   44.3920   30.2170   45.7650 H   0  0  0  0  0  0  0  0  0  0  0  0
   43.6250   28.2880   45.7380 C   0  0  0  0  0  0  0  0  0  0  0  0
   43.6240   27.0510   46.3490 C   0  0  0  0  0  0  0  0  0  0  0  0
   43.0090   26.2740   45.9250 H   0  0  0  0  0  0  0  0  0  0  0  0
   44.3790   26.8290   47.4560 C   0  0  0  0  0  0  0  0  0  0  0  0
   44.3860   25.8640   47.9430 H   0  0  0  0  0  0  0  0  0  0  0  0
   45.1250   27.8550   47.9310 C   0  0  0  0  0  0  0  0  0  0  0  0
   45.8900   31.8290   46.2020 C   0  0  0  0  0  0  0  0  0  0  0  0
   46.6330   31.2740   45.5970 H   0  0  0  0  0  0  0  0  0  0  0  0
   44.8870   31.6060   45.7910 H   0  0  0  0  0  0  0  0  0  0  0  0
   46.2780   33.8790   44.6360 C   0  0  1  0  0  0  0  0  0  0  0  0
   45.2640   34.2310   45.5640 C   0  0  0  0  0  0  0  0  0  0  0  0
   46.2770   33.2670   46.0520 C   0  0  1  0  0  0  0  0  0  0  0  0
   47.1090   34.5960   44.4110 H   0  0  0  0  0  0  0  0  0  0  0  0
   45.1950   35.2470   46.0140 H   0  0  0  0  0  0  0  0  0  0  0  0
   44.2330   33.8010   45.4310 H   0  0  0  0  0  0  0  0  0  0  0  0
   47.1890   33.5450   46.5800 H   0  0  0  0  0  0  0  0  0  0  0  0
   44.7840   32.7660   42.9790 C   0  0  0  0  0  0  0  0  0  0  0  0
   46.1020   32.9450   43.4930 C   0  0  0  0  0  0  0  0  0  0  0  0
   47.1280   32.2460   42.9100 C   0  0  0  0  0  0  0  0  0  0  0  0
   46.8360   31.4120   41.8620 N   0  0  0  0  0  0  0  0  0  0  0  0
   45.5710   31.2580   41.3890 C   0  0  0  0  0  0  0  0  0  0  0  0
   44.5200   31.9360   41.9430 N   0  0  0  0  0  0  0  0  0  0  0  0
   43.9290   33.2930   43.4020 H   0  0  0  0  0  0  0  0  0  0  0  0
   48.1280   32.3680   43.2840 H   0  0  0  0  0  0  0  0  0  0  0  0
   45.3860   30.5860   40.5570 H   0  0  0  0  0  0  0  0  0  0  0  0
  1  6  1  0  0  0  0
  1  2  1  0  0  0  0
  2  3  1  0  0  0  0
  2  7  1  0  0  0  0
  3 10  1  0  0  0  0
  3  4  1  0  0  0  0
  4 11  1  0  0  0  0
  4 12  1  0  0  0  0
  5 13  1  0  0  0  0
  5  4  1  0  0  0  0
  6  5  1  0  0  0  0
  6 15  1  1  0  0  0
  8  2  1  0  0  0  0
  9  3  1  0  0  0  0
 14  5  1  0  0  0  0
 16 24  1  0  0  0  0
 16  6  1  0  0  0  0
 17 16  2  0  0  0  0
 18 17  1  0  0  0  0
 19 17  1  0  0  0  0
 19 20  2  0  0  0  0
 20 22  1  0  0  0  0
 21 20  1  0  0  0  0
 22 24  2  0  0  0  0
 22 23  1  0  0  0  0
 25  1  1  0  0  0  0
 26 25  1  0  0  0  0
 27 25  1  0  0  0  0
 28 31  1  6  0  0  0
 28 29  1  0  0  0  0
 28 30  1  0  0  0  0
 29 32  1  0  0  0  0
 29 30  1  0  0  0  0
 30 25  1  0  0  0  0
 30 34  1  1  0  0  0
 33 29  1  0  0  0  0
 35 41  1  0  0  0  0
 35 36  1  0  0  0  0
 36 28  1  0  0  0  0
 37 42  1  0  0  0  0
 37 36  2  0  0  0  0
 38 37  1  0  0  0  0
 39 38  2  0  0  0  0
 39 40  1  0  0  0  0
 40 35  2  0  0  0  0
 43 39  1  0  0  0  0
M  END
>  <minimizedAffinity>
-4.46283531

>  <minimizedRMSD>
1.11096346

$$$$
