
 OpenBabel03252509163D

 25 27  0  0  0  0  0  0  0  0999 V2000
   45.0810   33.5620   43.6940 C   0  0  0  0  0  0  0  0  0  0  0  0
   44.9940   34.9780   43.7080 C   0  0  0  0  0  0  0  0  0  0  0  0
   44.1960   35.5740   42.8020 C   0  0  0  0  0  0  0  0  0  0  0  0
   43.4780   34.7850   41.8760 C   0  0  0  0  0  0  0  0  0  0  0  0
   43.9750   33.0870   42.3280 S   0  0  0  0  0  0  0  0  0  0  0  0
   45.5600   35.5460   44.4340 H   0  0  0  0  0  0  0  0  0  0  0  0
   44.0410   36.6240   42.7040 H   0  0  0  0  0  0  0  0  0  0  0  0
   47.2620   31.0170   45.2590 C   0  0  0  0  0  0  0  0  0  0  0  0
   47.3510   31.5520   46.5730 C   0  0  0  0  0  0  0  0  0  0  0  0
   46.6730   32.7410   46.8610 C   0  0  0  0  0  0  0  0  0  0  0  0
   45.9600   33.3160   45.8480 N   0  0  0  0  0  0  0  0  0  0  0  0
   45.9030   32.7700   44.6130 C   0  0  0  0  0  0  0  0  0  0  0  0
   46.5540   31.6180   44.3110 N   0  0  0  0  0  0  0  0  0  0  0  0
   47.7950   30.0920   45.0470 H   0  0  0  0  0  0  0  0  0  0  0  0
   47.9250   31.0770   47.3640 H   0  0  0  0  0  0  0  0  0  0  0  0
   46.6860   33.2140   47.8280 H   0  0  0  0  0  0  0  0  0  0  0  0
   42.5570   35.1130   40.8010 C   0  0  0  0  0  0  0  0  0  0  0  0
   42.9910   34.8470   39.5240 C   0  0  0  0  0  0  0  0  0  0  0  0
   43.9580   34.4190   39.3090 H   0  0  0  0  0  0  0  0  0  0  0  0
   42.0750   35.1790   38.5190 C   0  0  0  0  0  0  0  0  0  0  0  0
   40.8320   35.7340   38.8430 C   0  0  0  0  0  0  0  0  0  0  0  0
   40.1990   35.9530   37.9920 H   0  0  0  0  0  0  0  0  0  0  0  0
   40.4720   35.9710   40.1610 C   0  0  0  0  0  0  0  0  0  0  0  0
   39.5040   36.3990   40.3710 H   0  0  0  0  0  0  0  0  0  0  0  0
   41.3600   35.6530   41.1950 C   0  0  0  0  0  0  0  0  0  0  0  0
  1  2  2  0  0  0  0
  1 12  1  0  0  0  0
  2  6  1  0  0  0  0
  3  2  1  0  0  0  0
  4  5  1  0  0  0  0
  4  3  2  0  0  0  0
  5  1  1  0  0  0  0
  7  3  1  0  0  0  0
  8  9  1  0  0  0  0
  9 10  2  0  0  0  0
  9 15  1  0  0  0  0
 10 16  1  0  0  0  0
 11 10  1  0  0  0  0
 12 11  2  0  0  0  0
 13 12  1  0  0  0  0
 13  8  2  0  0  0  0
 14  8  1  0  0  0  0
 17 25  1  0  0  0  0
 17  4  1  0  0  0  0
 18 17  2  0  0  0  0
 19 18  1  0  0  0  0
 20 21  2  0  0  0  0
 20 18  1  0  0  0  0
 21 23  1  0  0  0  0
 22 21  1  0  0  0  0
 23 24  1  0  0  0  0
 23 25  2  0  0  0  0
M  END
>  <minimizedAffinity>
-4.89569092

>  <minimizedRMSD>
9.03306198

$$$$
