
 OpenBabel03252501433D

 45 48  0  0  0  0  0  0  0  0999 V2000
   38.5800   31.2690   38.8810 C   0  0  0  0  0  0  0  0  0  0  0  0
   38.8990   32.1660   38.0170 O   0  0  0  0  0  0  0  0  0  0  0  0
   38.6690   31.7510   40.2240 N   0  0  0  0  0  0  0  0  0  0  0  0
   38.4320   31.2010   41.0440 H   0  0  0  0  0  0  0  0  0  0  0  0
   39.1420   33.1220   40.1980 C   0  0  0  0  0  0  0  0  0  0  0  0
   38.3830   34.2300   39.9810 C   0  0  0  0  0  0  0  0  0  0  0  0
   39.0030   35.4500   39.9940 C   0  0  0  0  0  0  0  0  0  0  0  0
   40.3300   35.4740   40.2220 N   0  0  0  0  0  0  0  0  0  0  0  0
   41.0690   34.3560   40.4350 C   0  0  0  0  0  0  0  0  0  0  0  0
   40.4650   33.1510   40.4240 N   0  0  0  0  0  0  0  0  0  0  0  0
   38.4070   36.3280   39.8240 H   0  0  0  0  0  0  0  0  0  0  0  0
   42.5260   34.4600   40.6790 C   0  0  0  0  0  0  0  0  0  0  0  0
   42.9530   35.1290   41.8040 C   0  0  0  0  0  0  0  0  0  0  0  0
   42.2940   35.5880   42.5290 H   0  0  0  0  0  0  0  0  0  0  0  0
   44.3050   35.2260   42.0320 C   0  0  0  0  0  3  0  0  0  0  0  0
   45.2090   34.6590   41.1410 C   0  0  0  0  0  0  0  0  0  0  0  0
   46.3040   34.6830   41.2340 H   0  0  0  0  0  0  0  0  0  0  0  0
   44.7590   33.9920   40.0180 C   0  0  0  0  0  0  0  0  0  0  0  0
   45.3940   33.5240   39.2750 H   0  0  0  0  0  0  0  0  0  0  0  0
   43.4060   33.8830   39.7710 C   0  0  0  0  0  3  0  0  0  0  0  0
   36.9960   34.0270   39.7580 N   0  0  0  0  0  0  0  0  0  0  0  0
   36.5470   33.5660   38.9250 H   0  0  0  0  0  0  0  0  0  0  0  0
   36.3170   34.3710   40.4990 H   0  0  0  0  0  0  0  0  0  0  0  0
   38.1810   29.9530   38.6330 O   0  0  0  0  0  0  0  0  0  0  0  0
   40.2770   28.2540   39.8840 Cl  0  0  0  0  0  0  0  0  0  0  0  0
   38.6010   28.3810   40.3670 C   0  0  0  0  0  0  0  0  0  0  0  0
   37.6880   29.2070   39.7180 C   0  0  0  0  0  0  0  0  0  0  0  0
   36.3910   29.2680   40.1370 C   0  0  0  0  0  0  0  0  0  0  0  0
   35.9120   28.5330   41.2020 C   0  0  0  0  0  0  0  0  0  0  0  0
   36.8140   27.6900   41.8770 C   0  0  0  0  0  0  0  0  0  0  0  0
   36.2880   26.7190   43.2420 Cl  0  0  0  0  0  0  0  0  0  0  0  0
   38.1190   27.6540   41.4240 C   0  0  0  0  0  0  0  0  0  0  0  0
   35.7650   29.9430   39.5610 H   0  0  0  0  0  0  0  0  0  0  0  0
   34.8950   28.6000   41.5080 H   0  0  0  0  0  0  0  0  0  0  0  0
   39.6220   28.6290   43.4700 F   0  0  0  0  0  0  0  0  0  0  0  0
   39.8090   27.3030   43.1490 C   0  0  0  0  0  0  0  0  0  0  0  0
   39.0620   26.7810   42.1180 C   0  0  0  0  0  0  0  0  0  0  0  0
   39.2780   25.4280   41.8180 C   0  0  0  0  0  0  0  0  0  0  0  0
   40.2050   24.7110   42.5540 C   0  0  0  0  0  0  0  0  0  0  0  0
   40.9320   25.3060   43.5910 C   0  0  0  0  0  0  0  0  0  0  0  0
   40.7410   26.6480   43.9140 C   0  0  0  0  0  0  0  0  0  0  0  0
   38.6940   25.0190   41.0110 H   0  0  0  0  0  0  0  0  0  0  0  0
   40.3670   23.6670   42.3190 H   0  0  0  0  0  0  0  0  0  0  0  0
   41.6570   24.7440   44.1670 H   0  0  0  0  0  0  0  0  0  0  0  0
   41.2820   27.1420   44.7070 H   0  0  0  0  0  0  0  0  0  0  0  0
  1  3  1  0  0  0  0
  2  1  2  0  0  0  0
  3  4  1  0  0  0  0
  5  3  1  0  0  0  0
  5 10  1  0  0  0  0
  6  7  1  0  0  0  0
  6  5  2  0  0  0  0
  7  8  2  0  0  0  0
  8  9  1  0  0  0  0
  9 12  1  0  0  0  0
 10  9  2  0  0  0  0
 11  7  1  0  0  0  0
 12 13  1  0  0  0  0
 13 15  2  0  0  0  0
 13 14  1  0  0  0  0
 16 17  1  0  0  0  0
 16 15  1  0  0  0  0
 18 16  2  0  0  0  0
 19 18  1  0  0  0  0
 20 18  1  0  0  0  0
 20 12  2  0  0  0  0
 21  6  1  0  0  0  0
 21 23  1  0  0  0  0
 22 21  1  0  0  0  0
 24  1  1  0  0  0  0
 24 27  1  0  0  0  0
 25 26  1  0  0  0  0
 26 32  1  0  0  0  0
 27 28  1  0  0  0  0
 27 26  2  0  0  0  0
 28 29  2  0  0  0  0
 29 34  1  0  0  0  0
 29 30  1  0  0  0  0
 30 31  1  0  0  0  0
 32 30  2  0  0  0  0
 32 37  1  0  0  0  0
 33 28  1  0  0  0  0
 36 35  1  0  0  0  0
 36 41  1  0  0  0  0
 37 36  2  0  0  0  0
 38 37  1  0  0  0  0
 38 39  2  0  0  0  0
 39 40  1  0  0  0  0
 40 41  2  0  0  0  0
 40 44  1  0  0  0  0
 41 45  1  0  0  0  0
 42 38  1  0  0  0  0
 43 39  1  0  0  0  0
M  END
>  <minimizedAffinity>
-7.40370464

$$$$

 OpenBabel03252501433D

 45 48  0  0  0  0  0  0  0  0999 V2000
   37.6120   31.9010   40.5070 C   0  0  0  0  0  0  0  0  0  0  0  0
   37.5380   32.6580   39.4700 O   0  0  0  0  0  0  0  0  0  0  0  0
   38.8860   31.9840   41.1510 N   0  0  0  0  0  0  0  0  0  0  0  0
   39.1280   31.4820   42.0000 H   0  0  0  0  0  0  0  0  0  0  0  0
   39.7350   32.8840   40.3950 C   0  0  0  0  0  0  0  0  0  0  0  0
   39.7440   34.2410   40.4810 C   0  0  0  0  0  0  0  0  0  0  0  0
   40.6190   34.9330   39.6870 C   0  0  0  0  0  0  0  0  0  0  0  0
   41.4170   34.2200   38.8700 N   0  0  0  0  0  0  0  0  0  0  0  0
   41.3920   32.8650   38.7990 C   0  0  0  0  0  0  0  0  0  0  0  0
   40.5330   32.1780   39.5780 N   0  0  0  0  0  0  0  0  0  0  0  0
   40.6300   36.0060   39.7520 H   0  0  0  0  0  0  0  0  0  0  0  0
   42.3010   32.1490   37.8750 C   0  0  0  0  0  0  0  0  0  0  0  0
   41.7980   31.0840   37.1610 C   0  0  0  0  0  0  0  0  0  0  0  0
   40.7770   30.7310   37.2280 H   0  0  0  0  0  0  0  0  0  0  0  0
   42.6390   30.4180   36.3020 C   0  0  0  0  0  3  0  0  0  0  0  0
   43.9630   30.8180   36.1670 C   0  0  0  0  0  0  0  0  0  0  0  0
   44.7110   30.3520   35.5100 H   0  0  0  0  0  0  0  0  0  0  0  0
   44.4470   31.8890   36.8930 C   0  0  0  0  0  0  0  0  0  0  0  0
   45.4630   32.2650   36.8480 H   0  0  0  0  0  0  0  0  0  0  0  0
   43.6190   32.5710   37.7600 C   0  0  0  0  0  3  0  0  0  0  0  0
   38.8360   34.8360   41.3960 N   0  0  0  0  0  0  0  0  0  0  0  0
   37.7860   34.8550   41.3280 H   0  0  0  0  0  0  0  0  0  0  0  0
   39.2370   35.3210   42.2520 H   0  0  0  0  0  0  0  0  0  0  0  0
   36.6180   31.0640   41.0210 O   0  0  0  0  0  0  0  0  0  0  0  0
   38.0670   28.8400   42.3620 Cl  0  0  0  0  0  0  0  0  0  0  0  0
   37.0550   28.7280   40.9410 C   0  0  0  0  0  0  0  0  0  0  0  0
   36.4130   29.8290   40.3810 C   0  0  0  0  0  0  0  0  0  0  0  0
   35.6340   29.6850   39.2710 C   0  0  0  0  0  0  0  0  0  0  0  0
   35.4360   28.4710   38.6460 C   0  0  0  0  0  0  0  0  0  0  0  0
   36.0730   27.3400   39.1910 C   0  0  0  0  0  0  0  0  0  0  0  0
   35.8760   25.7570   38.4590 Cl  0  0  0  0  0  0  0  0  0  0  0  0
   36.8540   27.5250   40.3150 C   0  0  0  0  0  0  0  0  0  0  0  0
   35.1810   30.6070   38.9180 H   0  0  0  0  0  0  0  0  0  0  0  0
   34.8220   28.3870   37.7800 H   0  0  0  0  0  0  0  0  0  0  0  0
   39.3700   26.8660   39.5210 F   0  0  0  0  0  0  0  0  0  0  0  0
   38.7910   26.0490   40.4670 C   0  0  0  0  0  0  0  0  0  0  0  0
   37.5180   26.3580   40.8880 C   0  0  0  0  0  0  0  0  0  0  0  0
   36.9610   25.5050   41.8510 C   0  0  0  0  0  0  0  0  0  0  0  0
   37.6990   24.4290   42.3140 C   0  0  0  0  0  0  0  0  0  0  0  0
   38.9900   24.1730   41.8400 C   0  0  0  0  0  0  0  0  0  0  0  0
   39.5740   25.0010   40.8830 C   0  0  0  0  0  0  0  0  0  0  0  0
   35.9640   25.7450   42.1820 H   0  0  0  0  0  0  0  0  0  0  0  0
   37.2630   23.7740   43.0570 H   0  0  0  0  0  0  0  0  0  0  0  0
   39.5680   23.3310   42.2020 H   0  0  0  0  0  0  0  0  0  0  0  0
   40.5670   24.8370   40.4930 H   0  0  0  0  0  0  0  0  0  0  0  0
  1 24  1  0  0  0  0
  1  3  1  0  0  0  0
  2  1  2  0  0  0  0
  3  4  1  0  0  0  0
  5  6  1  0  0  0  0
  5  3  1  0  0  0  0
  6 21  1  0  0  0  0
  7 11  1  0  0  0  0
  7  6  2  0  0  0  0
  8  7  1  0  0  0  0
  9  8  2  0  0  0  0
  9 10  1  0  0  0  0
 10  5  2  0  0  0  0
 12  9  1  0  0  0  0
 13 14  1  0  0  0  0
 13 12  2  0  0  0  0
 15 13  1  0  0  0  0
 16 15  2  0  0  0  0
 16 18  1  0  0  0  0
 17 16  1  0  0  0  0
 18 20  2  0  0  0  0
 19 18  1  0  0  0  0
 20 12  1  0  0  0  0
 21 23  1  0  0  0  0
 22 21  1  0  0  0  0
 26 25  1  0  0  0  0
 27 26  1  0  0  0  0
 27 24  1  0  0  0  0
 28 27  2  0  0  0  0
 29 30  2  0  0  0  0
 29 28  1  0  0  0  0
 30 32  1  0  0  0  0
 31 30  1  0  0  0  0
 32 37  1  0  0  0  0
 32 26  2  0  0  0  0
 33 28  1  0  0  0  0
 34 29  1  0  0  0  0
 35 36  1  0  0  0  0
 36 41  2  0  0  0  0
 36 37  1  0  0  0  0
 37 38  2  0  0  0  0
 38 42  1  0  0  0  0
 38 39  1  0  0  0  0
 39 43  1  0  0  0  0
 40 44  1  0  0  0  0
 40 39  2  0  0  0  0
 41 40  1  0  0  0  0
 45 41  1  0  0  0  0
M  END
>  <minimizedAffinity>
-7.12241364

$$$$

 OpenBabel03252501433D

 45 48  0  0  0  0  0  0  0  0999 V2000
   40.0750   33.1770   40.7200 C   0  0  0  0  0  0  0  0  0  0  0  0
   40.4380   33.9170   39.7330 O   0  0  0  0  0  0  0  0  0  0  0  0
   41.1880   32.5770   41.3880 N   0  0  0  0  0  0  0  0  0  0  0  0
   41.1070   31.9810   42.2070 H   0  0  0  0  0  0  0  0  0  0  0  0
   42.4080   32.9640   40.7050 C   0  0  0  0  0  0  0  0  0  0  0  0
   43.2860   33.9190   41.1110 C   0  0  0  0  0  0  0  0  0  0  0  0
   44.3920   34.1500   40.3370 C   0  0  0  0  0  0  0  0  0  0  0  0
   44.5360   33.4130   39.2190 N   0  0  0  0  0  0  0  0  0  0  0  0
   43.6460   32.4650   38.8320 C   0  0  0  0  0  0  0  0  0  0  0  0
   42.5560   32.2310   39.5900 N   0  0  0  0  0  0  0  0  0  0  0  0
   45.0890   34.9040   40.6530 H   0  0  0  0  0  0  0  0  0  0  0  0
   43.8710   31.6920   37.5880 C   0  0  0  0  0  0  0  0  0  0  0  0
   45.1190   31.7400   37.0080 C   0  0  0  0  0  0  0  0  0  0  0  0
   45.9540   32.3060   37.4000 H   0  0  0  0  0  0  0  0  0  0  0  0
   45.3310   31.0230   35.8550 C   0  0  0  0  0  3  0  0  0  0  0  0
   44.3020   30.2740   35.2960 C   0  0  0  0  0  0  0  0  0  0  0  0
   44.3700   29.6700   34.3800 H   0  0  0  0  0  0  0  0  0  0  0  0
   43.0570   30.2400   35.8950 C   0  0  0  0  0  0  0  0  0  0  0  0
   42.2030   29.6840   35.5260 H   0  0  0  0  0  0  0  0  0  0  0  0
   42.8240   30.9520   37.0530 C   0  0  0  0  0  3  0  0  0  0  0  0
   42.9830   34.6040   42.3160 N   0  0  0  0  0  0  0  0  0  0  0  0
   42.1890   35.2750   42.4840 H   0  0  0  0  0  0  0  0  0  0  0  0
   43.6130   34.4390   43.1550 H   0  0  0  0  0  0  0  0  0  0  0  0
   38.7730   32.9290   41.1640 O   0  0  0  0  0  0  0  0  0  0  0  0
   39.0060   30.3700   42.6610 Cl  0  0  0  0  0  0  0  0  0  0  0  0
   38.1170   30.6430   41.1810 C   0  0  0  0  0  0  0  0  0  0  0  0
   38.0650   31.8820   40.5480 C   0  0  0  0  0  0  0  0  0  0  0  0
   37.3550   32.0390   39.3940 C   0  0  0  0  0  0  0  0  0  0  0  0
   36.6630   31.0090   38.7920 C   0  0  0  0  0  0  0  0  0  0  0  0
   36.6980   29.7450   39.4120 C   0  0  0  0  0  0  0  0  0  0  0  0
   35.8450   28.3780   38.7140 Cl  0  0  0  0  0  0  0  0  0  0  0  0
   37.4270   29.6230   40.5790 C   0  0  0  0  0  0  0  0  0  0  0  0
   37.3820   33.0460   38.9850 H   0  0  0  0  0  0  0  0  0  0  0  0
   36.1170   31.1600   37.8910 H   0  0  0  0  0  0  0  0  0  0  0  0
   39.3090   27.8020   39.8460 F   0  0  0  0  0  0  0  0  0  0  0  0
   38.4330   27.4160   40.8360 C   0  0  0  0  0  0  0  0  0  0  0  0
   37.4700   28.3160   41.2280 C   0  0  0  0  0  0  0  0  0  0  0  0
   36.5950   27.8890   42.2380 C   0  0  0  0  0  0  0  0  0  0  0  0
   36.7440   26.6210   42.7710 C   0  0  0  0  0  0  0  0  0  0  0  0
   37.7480   25.7540   42.3240 C   0  0  0  0  0  0  0  0  0  0  0  0
   38.6320   26.1480   41.3220 C   0  0  0  0  0  0  0  0  0  0  0  0
   35.8410   28.5930   42.5450 H   0  0  0  0  0  0  0  0  0  0  0  0
   36.0670   26.2970   43.5510 H   0  0  0  0  0  0  0  0  0  0  0  0
   37.8630   24.7620   42.7420 H   0  0  0  0  0  0  0  0  0  0  0  0
   39.4190   25.5080   40.9510 H   0  0  0  0  0  0  0  0  0  0  0  0
  1 24  1  0  0  0  0
  1  3  1  0  0  0  0
  2  1  2  0  0  0  0
  3  4  1  0  0  0  0
  5  6  1  0  0  0  0
  5  3  1  0  0  0  0
  6 21  1  0  0  0  0
  7 11  1  0  0  0  0
  7  6  2  0  0  0  0
  8  7  1  0  0  0  0
  9  8  2  0  0  0  0
  9 10  1  0  0  0  0
 10  5  2  0  0  0  0
 12  9  1  0  0  0  0
 13 14  1  0  0  0  0
 13 12  2  0  0  0  0
 15 13  1  0  0  0  0
 16 15  2  0  0  0  0
 16 18  1  0  0  0  0
 17 16  1  0  0  0  0
 18 20  2  0  0  0  0
 19 18  1  0  0  0  0
 20 12  1  0  0  0  0
 21 22  1  0  0  0  0
 21 23  1  0  0  0  0
 26 25  1  0  0  0  0
 27 24  1  0  0  0  0
 27 26  2  0  0  0  0
 28 27  1  0  0  0  0
 29 28  2  0  0  0  0
 29 30  1  0  0  0  0
 30 32  2  0  0  0  0
 31 30  1  0  0  0  0
 32 26  1  0  0  0  0
 32 37  1  0  0  0  0
 33 28  1  0  0  0  0
 34 29  1  0  0  0  0
 35 36  1  0  0  0  0
 36 37  2  0  0  0  0
 36 41  1  0  0  0  0
 37 38  1  0  0  0  0
 38 42  1  0  0  0  0
 38 39  2  0  0  0  0
 39 43  1  0  0  0  0
 40 44  1  0  0  0  0
 40 39  1  0  0  0  0
 41 40  2  0  0  0  0
 45 41  1  0  0  0  0
M  END
>  <minimizedAffinity>
-7.103405

$$$$

 OpenBabel03252501433D

 45 48  0  0  0  0  0  0  0  0999 V2000
   37.9400   30.5150   41.0670 C   0  0  0  0  0  0  0  0  0  0  0  0
   37.6780   30.8830   39.8630 O   0  0  0  0  0  0  0  0  0  0  0  0
   39.1350   31.1150   41.5720 N   0  0  0  0  0  0  0  0  0  0  0  0
   39.4930   30.9700   42.5110 H   0  0  0  0  0  0  0  0  0  0  0  0
   39.7200   31.9400   40.5320 C   0  0  0  0  0  0  0  0  0  0  0  0
   39.6170   33.2920   40.4270 C   0  0  0  0  0  0  0  0  0  0  0  0
   40.2390   33.9070   39.3740 C   0  0  0  0  0  0  0  0  0  0  0  0
   40.9140   33.1290   38.5060 N   0  0  0  0  0  0  0  0  0  0  0  0
   41.0030   31.7800   38.6290 C   0  0  0  0  0  0  0  0  0  0  0  0
   40.3940   31.1680   39.6640 N   0  0  0  0  0  0  0  0  0  0  0  0
   40.1610   34.9760   39.2870 H   0  0  0  0  0  0  0  0  0  0  0  0
   41.7640   30.9890   37.6350 C   0  0  0  0  0  0  0  0  0  0  0  0
   41.3340   29.7120   37.3520 C   0  0  0  0  0  0  0  0  0  0  0  0
   40.4730   29.2410   37.8090 H   0  0  0  0  0  0  0  0  0  0  0  0
   42.0380   28.9750   36.4290 C   0  0  0  0  0  3  0  0  0  0  0  0
   43.1550   29.5170   35.8050 C   0  0  0  0  0  0  0  0  0  0  0  0
   43.7820   29.0120   35.0570 H   0  0  0  0  0  0  0  0  0  0  0  0
   43.5690   30.8020   36.1040 C   0  0  0  0  0  0  0  0  0  0  0  0
   44.4260   31.2980   35.6640 H   0  0  0  0  0  0  0  0  0  0  0  0
   42.8760   31.5570   37.0260 C   0  0  0  0  0  3  0  0  0  0  0  0
   38.8680   33.9620   41.4290 N   0  0  0  0  0  0  0  0  0  0  0  0
   37.8290   33.9040   41.5910 H   0  0  0  0  0  0  0  0  0  0  0  0
   39.3890   34.5970   42.1010 H   0  0  0  0  0  0  0  0  0  0  0  0
   37.2020   29.6390   41.8680 O   0  0  0  0  0  0  0  0  0  0  0  0
   36.7820   27.5150   39.8290 Cl  0  0  0  0  0  0  0  0  0  0  0  0
   37.6630   27.3680   41.3320 C   0  0  0  0  0  0  0  0  0  0  0  0
   37.8080   28.4220   42.2290 C   0  0  0  0  0  0  0  0  0  0  0  0
   38.5060   28.2520   43.3890 C   0  0  0  0  0  0  0  0  0  0  0  0
   39.0980   27.0560   43.7400 C   0  0  0  0  0  0  0  0  0  0  0  0
   38.9670   25.9730   42.8500 C   0  0  0  0  0  0  0  0  0  0  0  0
   39.6880   24.4150   43.2180 Cl  0  0  0  0  0  0  0  0  0  0  0  0
   38.2530   26.1820   41.6860 C   0  0  0  0  0  0  0  0  0  0  0  0
   38.5570   29.1380   44.0150 H   0  0  0  0  0  0  0  0  0  0  0  0
   39.6380   26.9510   44.6510 H   0  0  0  0  0  0  0  0  0  0  0  0
   36.2120   24.4100   41.9900 F   0  0  0  0  0  0  0  0  0  0  0  0
   37.0690   24.1850   40.9360 C   0  0  0  0  0  0  0  0  0  0  0  0
   38.1120   25.0650   40.7570 C   0  0  0  0  0  0  0  0  0  0  0  0
   38.9640   24.8040   39.6750 C   0  0  0  0  0  0  0  0  0  0  0  0
   38.7190   23.7070   38.8670 C   0  0  0  0  0  0  0  0  0  0  0  0
   37.6380   22.8510   39.1090 C   0  0  0  0  0  0  0  0  0  0  0  0
   36.7730   23.0820   40.1750 C   0  0  0  0  0  0  0  0  0  0  0  0
   39.7800   25.4920   39.5340 H   0  0  0  0  0  0  0  0  0  0  0  0
   39.3800   23.5110   38.0340 H   0  0  0  0  0  0  0  0  0  0  0  0
   37.4470   21.9930   38.4760 H   0  0  0  0  0  0  0  0  0  0  0  0
   35.9290   22.4450   40.3940 H   0  0  0  0  0  0  0  0  0  0  0  0
  1  3  1  0  0  0  0
  1 24  1  0  0  0  0
  2  1  2  0  0  0  0
  3  4  1  0  0  0  0
  5  3  1  0  0  0  0
  6  5  1  0  0  0  0
  6 21  1  0  0  0  0
  7  6  2  0  0  0  0
  8  9  2  0  0  0  0
  8  7  1  0  0  0  0
  9 10  1  0  0  0  0
 10  5  2  0  0  0  0
 11  7  1  0  0  0  0
 12  9  1  0  0  0  0
 13 12  1  0  0  0  0
 13 14  1  0  0  0  0
 15 13  2  0  0  0  0
 16 18  2  0  0  0  0
 16 15  1  0  0  0  0
 17 16  1  0  0  0  0
 18 20  1  0  0  0  0
 19 18  1  0  0  0  0
 20 12  2  0  0  0  0
 21 22  1  0  0  0  0
 21 23  1  0  0  0  0
 24 27  1  0  0  0  0
 25 26  1  0  0  0  0
 26 32  2  0  0  0  0
 26 27  1  0  0  0  0
 27 28  2  0  0  0  0
 28 29  1  0  0  0  0
 28 33  1  0  0  0  0
 29 34  1  0  0  0  0
 30 31  1  0  0  0  0
 30 29  2  0  0  0  0
 32 30  1  0  0  0  0
 36 35  1  0  0  0  0
 37 36  1  0  0  0  0
 37 32  1  0  0  0  0
 38 37  2  0  0  0  0
 39 40  2  0  0  0  0
 39 38  1  0  0  0  0
 40 41  1  0  0  0  0
 41 45  1  0  0  0  0
 41 36  2  0  0  0  0
 42 38  1  0  0  0  0
 43 39  1  0  0  0  0
 44 40  1  0  0  0  0
M  END
>  <minimizedAffinity>
-7.1017065

$$$$

 OpenBabel03252501433D

 45 48  0  0  0  0  0  0  0  0999 V2000
   40.4600   32.8940   38.9470 C   0  0  0  0  0  0  0  0  0  0  0  0
   41.5050   32.7160   39.6750 O   0  0  0  0  0  0  0  0  0  0  0  0
   40.7690   32.9370   37.5520 N   0  0  0  0  0  0  0  0  0  0  0  0
   40.0750   33.0430   36.8180 H   0  0  0  0  0  0  0  0  0  0  0  0
   42.2040   32.8050   37.3870 C   0  0  0  0  0  0  0  0  0  0  0  0
   43.1180   33.8090   37.4630 C   0  0  0  0  0  0  0  0  0  0  0  0
   44.4380   33.4970   37.2810 C   0  0  0  0  0  0  0  0  0  0  0  0
   44.7460   32.2090   37.0350 N   0  0  0  0  0  0  0  0  0  0  0  0
   43.8190   31.2220   36.9620 C   0  0  0  0  0  0  0  0  0  0  0  0
   42.5170   31.5220   37.1410 N   0  0  0  0  0  0  0  0  0  0  0  0
   45.1640   34.2870   37.3410 H   0  0  0  0  0  0  0  0  0  0  0  0
   44.2330   29.8260   36.6870 C   0  0  0  0  0  0  0  0  0  0  0  0
   43.2530   28.8920   36.4380 C   0  0  0  0  0  0  0  0  0  0  0  0
   42.1920   29.1070   36.4280 H   0  0  0  0  0  0  0  0  0  0  0  0
   43.6350   27.5970   36.1830 C   0  0  0  0  0  3  0  0  0  0  0  0
   44.9810   27.2510   36.1800 C   0  0  0  0  0  0  0  0  0  0  0  0
   45.3870   26.2470   35.9890 H   0  0  0  0  0  0  0  0  0  0  0  0
   45.9490   28.2050   36.4330 C   0  0  0  0  0  0  0  0  0  0  0  0
   47.0170   28.0200   36.4500 H   0  0  0  0  0  0  0  0  0  0  0  0
   45.5860   29.5100   36.6910 C   0  0  0  0  0  3  0  0  0  0  0  0
   42.6220   35.1120   37.7310 N   0  0  0  0  0  0  0  0  0  0  0  0
   42.0310   35.7100   37.0980 H   0  0  0  0  0  0  0  0  0  0  0  0
   42.8620   35.5540   38.6660 H   0  0  0  0  0  0  0  0  0  0  0  0
   39.1380   33.0390   39.3780 O   0  0  0  0  0  0  0  0  0  0  0  0
   39.6160   31.3630   41.7880 Cl  0  0  0  0  0  0  0  0  0  0  0  0
   38.4870   31.0410   40.4920 C   0  0  0  0  0  0  0  0  0  0  0  0
   38.3310   31.8870   39.3980 C   0  0  0  0  0  0  0  0  0  0  0  0
   37.4350   31.5880   38.4140 C   0  0  0  0  0  0  0  0  0  0  0  0
   36.6460   30.4570   38.4370 C   0  0  0  0  0  0  0  0  0  0  0  0
   36.7830   29.5830   39.5320 C   0  0  0  0  0  0  0  0  0  0  0  0
   35.8180   28.1200   39.6410 Cl  0  0  0  0  0  0  0  0  0  0  0  0
   37.7000   29.9190   40.5090 C   0  0  0  0  0  0  0  0  0  0  0  0
   37.3950   32.3160   37.6080 H   0  0  0  0  0  0  0  0  0  0  0  0
   35.9540   30.2470   37.6560 H   0  0  0  0  0  0  0  0  0  0  0  0
   39.5050   27.8860   40.4110 F   0  0  0  0  0  0  0  0  0  0  0  0
   38.7700   28.0000   41.5700 C   0  0  0  0  0  0  0  0  0  0  0  0
   37.8490   29.0190   41.6490 C   0  0  0  0  0  0  0  0  0  0  0  0
   37.1200   29.1040   42.8440 C   0  0  0  0  0  0  0  0  0  0  0  0
   37.3580   28.1840   43.8510 C   0  0  0  0  0  0  0  0  0  0  0  0
   38.3110   27.1710   43.7020 C   0  0  0  0  0  0  0  0  0  0  0  0
   39.0530   27.0580   42.5280 C   0  0  0  0  0  0  0  0  0  0  0  0
   36.3990   29.9010   42.9060 H   0  0  0  0  0  0  0  0  0  0  0  0
   36.7920   28.2550   44.7700 H   0  0  0  0  0  0  0  0  0  0  0  0
   38.4970   26.4520   44.4910 H   0  0  0  0  0  0  0  0  0  0  0  0
   39.7970   26.2910   42.3760 H   0  0  0  0  0  0  0  0  0  0  0  0
  1 24  1  0  0  0  0
  1  2  2  0  0  0  0
  3  1  1  0  0  0  0
  4  3  1  0  0  0  0
  5  6  1  0  0  0  0
  5  3  1  0  0  0  0
  6 21  1  0  0  0  0
  7 11  1  0  0  0  0
  7  6  2  0  0  0  0
  8  7  1  0  0  0  0
  9  8  2  0  0  0  0
  9 10  1  0  0  0  0
 10  5  2  0  0  0  0
 12 20  1  0  0  0  0
 12  9  1  0  0  0  0
 13 12  2  0  0  0  0
 14 13  1  0  0  0  0
 15 13  1  0  0  0  0
 16 15  2  0  0  0  0
 16 18  1  0  0  0  0
 17 16  1  0  0  0  0
 18 19  1  0  0  0  0
 18 20  2  0  0  0  0
 21 23  1  0  0  0  0
 22 21  1  0  0  0  0
 24 27  1  0  0  0  0
 26 32  1  0  0  0  0
 26 25  1  0  0  0  0
 27 26  2  0  0  0  0
 28 29  2  0  0  0  0
 28 27  1  0  0  0  0
 29 30  1  0  0  0  0
 30 31  1  0  0  0  0
 30 32  2  0  0  0  0
 32 37  1  0  0  0  0
 33 28  1  0  0  0  0
 34 29  1  0  0  0  0
 35 36  1  0  0  0  0
 36 37  2  0  0  0  0
 36 41  1  0  0  0  0
 37 38  1  0  0  0  0
 38 42  1  0  0  0  0
 38 39  2  0  0  0  0
 39 43  1  0  0  0  0
 40 39  1  0  0  0  0
 40 44  1  0  0  0  0
 41 40  2  0  0  0  0
 45 41  1  0  0  0  0
M  END
>  <minimizedAffinity>
-6.93872213

$$$$

 OpenBabel03252501433D

 45 48  0  0  0  0  0  0  0  0999 V2000
   37.7460   29.0410   39.4030 C   0  0  0  0  0  0  0  0  0  0  0  0
   38.7190   28.4640   40.0130 O   0  0  0  0  0  0  0  0  0  0  0  0
   36.4720   28.5460   39.8190 N   0  0  0  0  0  0  0  0  0  0  0  0
   35.5830   28.8950   39.4720 H   0  0  0  0  0  0  0  0  0  0  0  0
   36.6750   27.4910   40.7940 C   0  0  0  0  0  0  0  0  0  0  0  0
   36.8370   27.6560   42.1340 C   0  0  0  0  0  0  0  0  0  0  0  0
   37.0170   26.5400   42.9050 C   0  0  0  0  0  0  0  0  0  0  0  0
   37.0240   25.3460   42.2830 N   0  0  0  0  0  0  0  0  0  0  0  0
   36.8630   25.2030   40.9430 C   0  0  0  0  0  0  0  0  0  0  0  0
   36.6840   26.2980   40.1780 N   0  0  0  0  0  0  0  0  0  0  0  0
   37.1450   26.6660   43.9650 H   0  0  0  0  0  0  0  0  0  0  0  0
   36.8820   23.8560   40.3280 C   0  0  0  0  0  0  0  0  0  0  0  0
   37.9550   23.0350   40.5910 C   0  0  0  0  0  0  0  0  0  0  0  0
   38.7930   23.3060   41.2200 H   0  0  0  0  0  0  0  0  0  0  0  0
   37.9750   21.7830   40.0220 C   0  0  0  0  0  3  0  0  0  0  0  0
   36.9310   21.3700   39.2020 C   0  0  0  0  0  0  0  0  0  0  0  0
   36.8550   20.3940   38.7020 H   0  0  0  0  0  0  0  0  0  0  0  0
   35.8630   22.2110   38.9520 C   0  0  0  0  0  0  0  0  0  0  0  0
   35.0120   21.9670   38.3260 H   0  0  0  0  0  0  0  0  0  0  0  0
   35.8250   23.4690   39.5140 C   0  0  0  0  0  3  0  0  0  0  0  0
   36.8020   28.9870   42.6280 N   0  0  0  0  0  0  0  0  0  0  0  0
   37.5100   29.7470   42.4580 H   0  0  0  0  0  0  0  0  0  0  0  0
   35.9820   29.2700   43.2400 H   0  0  0  0  0  0  0  0  0  0  0  0
   37.8260   30.0450   38.4330 O   0  0  0  0  0  0  0  0  0  0  0  0
   40.7300   30.6110   38.1280 Cl  0  0  0  0  0  0  0  0  0  0  0  0
   39.5100   31.6930   38.7580 C   0  0  0  0  0  0  0  0  0  0  0  0
   38.1680   31.3400   38.8640 C   0  0  0  0  0  0  0  0  0  0  0  0
   37.2570   32.2240   39.3630 C   0  0  0  0  0  0  0  0  0  0  0  0
   37.5960   33.4920   39.7860 C   0  0  0  0  0  0  0  0  0  0  0  0
   38.9470   33.8760   39.6890 C   0  0  0  0  0  0  0  0  0  0  0  0
   39.4670   35.4730   40.2040 Cl  0  0  0  0  0  0  0  0  0  0  0  0
   39.8410   32.9550   39.1790 C   0  0  0  0  0  0  0  0  0  0  0  0
   36.2390   31.8450   39.4020 H   0  0  0  0  0  0  0  0  0  0  0  0
   36.8650   34.1630   40.1710 H   0  0  0  0  0  0  0  0  0  0  0  0
   41.5180   32.5750   41.2860 F   0  0  0  0  0  0  0  0  0  0  0  0
   42.0680   33.1400   40.1570 C   0  0  0  0  0  0  0  0  0  0  0  0
   41.2440   33.3440   39.0750 C   0  0  0  0  0  0  0  0  0  0  0  0
   41.8390   33.9220   37.9440 C   0  0  0  0  0  0  0  0  0  0  0  0
   43.1840   34.2460   37.9750 C   0  0  0  0  0  0  0  0  0  0  0  0
   43.9640   34.0100   39.1130 C   0  0  0  0  0  0  0  0  0  0  0  0
   43.4050   33.4380   40.2530 C   0  0  0  0  0  0  0  0  0  0  0  0
   41.1940   34.0830   37.0960 H   0  0  0  0  0  0  0  0  0  0  0  0
   43.6370   34.6900   37.0990 H   0  0  0  0  0  0  0  0  0  0  0  0
   45.0170   34.2640   39.1370 H   0  0  0  0  0  0  0  0  0  0  0  0
   43.9740   33.2410   41.1490 H   0  0  0  0  0  0  0  0  0  0  0  0
  1  3  1  0  0  0  0
  1  2  2  0  0  0  0
  3  5  1  0  0  0  0
  4  3  1  0  0  0  0
  5  6  1  0  0  0  0
  6 21  1  0  0  0  0
  6  7  2  0  0  0  0
  7 11  1  0  0  0  0
  8  7  1  0  0  0  0
  9  8  2  0  0  0  0
 10  5  2  0  0  0  0
 10  9  1  0  0  0  0
 12 13  1  0  0  0  0
 12  9  1  0  0  0  0
 13 14  1  0  0  0  0
 15 13  2  0  0  0  0
 16 15  1  0  0  0  0
 17 16  1  0  0  0  0
 18 16  2  0  0  0  0
 18 20  1  0  0  0  0
 19 18  1  0  0  0  0
 20 12  2  0  0  0  0
 21 23  1  0  0  0  0
 22 21  1  0  0  0  0
 24 27  1  0  0  0  0
 24  1  1  0  0  0  0
 25 26  1  0  0  0  0
 26 27  2  0  0  0  0
 26 32  1  0  0  0  0
 27 28  1  0  0  0  0
 28 33  1  0  0  0  0
 28 29  2  0  0  0  0
 29 34  1  0  0  0  0
 30 29  1  0  0  0  0
 30 31  1  0  0  0  0
 32 30  2  0  0  0  0
 36 41  1  0  0  0  0
 36 35  1  0  0  0  0
 37 32  1  0  0  0  0
 37 36  2  0  0  0  0
 38 39  2  0  0  0  0
 38 37  1  0  0  0  0
 39 40  1  0  0  0  0
 40 44  1  0  0  0  0
 40 41  2  0  0  0  0
 41 45  1  0  0  0  0
 42 38  1  0  0  0  0
 43 39  1  0  0  0  0
M  END
>  <minimizedAffinity>
-6.85792732

$$$$

 OpenBabel03252501433D

 45 48  0  0  0  0  0  0  0  0999 V2000
   36.4890   30.7850   39.7370 C   0  0  0  0  0  0  0  0  0  0  0  0
   37.5140   30.7520   38.9630 O   0  0  0  0  0  0  0  0  0  0  0  0
   36.5950   31.7990   40.7390 N   0  0  0  0  0  0  0  0  0  0  0  0
   35.8750   31.9980   41.4270 H   0  0  0  0  0  0  0  0  0  0  0  0
   37.8750   32.4660   40.5950 C   0  0  0  0  0  0  0  0  0  0  0  0
   38.1060   33.6240   39.9210 C   0  0  0  0  0  0  0  0  0  0  0  0
   39.3850   34.1110   39.8910 C   0  0  0  0  0  0  0  0  0  0  0  0
   40.3350   33.4070   40.5360 N   0  0  0  0  0  0  0  0  0  0  0  0
   40.0840   32.2520   41.2030 C   0  0  0  0  0  0  0  0  0  0  0  0
   38.8260   31.7680   41.2360 N   0  0  0  0  0  0  0  0  0  0  0  0
   39.5720   35.0260   39.3590 H   0  0  0  0  0  0  0  0  0  0  0  0
   41.1810   31.5320   41.8890 C   0  0  0  0  0  0  0  0  0  0  0  0
   40.9410   30.2530   42.3370 C   0  0  0  0  0  0  0  0  0  0  0  0
   39.9990   29.7320   42.2230 H   0  0  0  0  0  0  0  0  0  0  0  0
   41.9580   29.5820   42.9740 C   0  0  0  0  0  3  0  0  0  0  0  0
   43.1930   30.1910   43.1550 C   0  0  0  0  0  0  0  0  0  0  0  0
   44.0650   29.7410   43.6500 H   0  0  0  0  0  0  0  0  0  0  0  0
   43.4130   31.4770   42.6970 C   0  0  0  0  0  0  0  0  0  0  0  0
   44.3430   32.0240   42.7980 H   0  0  0  0  0  0  0  0  0  0  0  0
   42.4060   32.1660   42.0560 C   0  0  0  0  0  3  0  0  0  0  0  0
   36.9900   34.2400   39.2960 N   0  0  0  0  0  0  0  0  0  0  0  0
   36.4420   33.8790   38.4730 H   0  0  0  0  0  0  0  0  0  0  0  0
   36.6510   35.1690   39.6850 H   0  0  0  0  0  0  0  0  0  0  0  0
   35.3560   29.9680   39.6830 O   0  0  0  0  0  0  0  0  0  0  0  0
   37.0560   28.3690   41.5270 Cl  0  0  0  0  0  0  0  0  0  0  0  0
   36.3130   27.8210   40.0430 C   0  0  0  0  0  0  0  0  0  0  0  0
   35.5290   28.6450   39.2400 C   0  0  0  0  0  0  0  0  0  0  0  0
   34.9730   28.1640   38.0910 C   0  0  0  0  0  0  0  0  0  0  0  0
   35.1460   26.8660   37.6590 C   0  0  0  0  0  0  0  0  0  0  0  0
   35.9340   26.0100   38.4520 C   0  0  0  0  0  0  0  0  0  0  0  0
   36.2070   24.3420   37.9770 Cl  0  0  0  0  0  0  0  0  0  0  0  0
   36.4810   26.5310   39.6080 C   0  0  0  0  0  0  0  0  0  0  0  0
   34.3810   28.8920   37.5420 H   0  0  0  0  0  0  0  0  0  0  0  0
   34.7000   26.5170   36.7580 H   0  0  0  0  0  0  0  0  0  0  0  0
   39.1600   26.3550   39.1720 F   0  0  0  0  0  0  0  0  0  0  0  0
   38.6520   25.5830   40.1930 C   0  0  0  0  0  0  0  0  0  0  0  0
   37.3000   25.6520   40.4370 C   0  0  0  0  0  0  0  0  0  0  0  0
   36.8180   24.8520   41.4840 C   0  0  0  0  0  0  0  0  0  0  0  0
   37.7030   24.0600   42.1950 C   0  0  0  0  0  0  0  0  0  0  0  0
   39.0690   24.0380   41.8910 C   0  0  0  0  0  0  0  0  0  0  0  0
   39.5800   24.8200   40.8570 C   0  0  0  0  0  0  0  0  0  0  0  0
   35.7600   24.9040   41.6760 H   0  0  0  0  0  0  0  0  0  0  0  0
   37.3260   23.4450   43.0010 H   0  0  0  0  0  0  0  0  0  0  0  0
   39.7610   23.4180   42.4480 H   0  0  0  0  0  0  0  0  0  0  0  0
   40.6270   24.8310   40.5930 H   0  0  0  0  0  0  0  0  0  0  0  0
  1  3  1  0  0  0  0
  2  1  2  0  0  0  0
  3  4  1  0  0  0  0
  5  3  1  0  0  0  0
  5 10  1  0  0  0  0
  6  5  2  0  0  0  0
  7  6  1  0  0  0  0
  7  8  2  0  0  0  0
  8  9  1  0  0  0  0
  9 10  2  0  0  0  0
  9 12  1  0  0  0  0
 11  7  1  0  0  0  0
 12 20  2  0  0  0  0
 12 13  1  0  0  0  0
 13 15  2  0  0  0  0
 14 13  1  0  0  0  0
 15 16  1  0  0  0  0
 16 17  1  0  0  0  0
 18 19  1  0  0  0  0
 18 16  2  0  0  0  0
 20 18  1  0  0  0  0
 21 23  1  0  0  0  0
 21  6  1  0  0  0  0
 22 21  1  0  0  0  0
 24  1  1  0  0  0  0
 26 25  1  0  0  0  0
 27 24  1  0  0  0  0
 27 26  2  0  0  0  0
 28 27  1  0  0  0  0
 29 28  2  0  0  0  0
 29 30  1  0  0  0  0
 30 32  2  0  0  0  0
 31 30  1  0  0  0  0
 32 26  1  0  0  0  0
 32 37  1  0  0  0  0
 33 28  1  0  0  0  0
 34 29  1  0  0  0  0
 35 36  1  0  0  0  0
 36 37  2  0  0  0  0
 36 41  1  0  0  0  0
 37 38  1  0  0  0  0
 38 42  1  0  0  0  0
 38 39  2  0  0  0  0
 39 43  1  0  0  0  0
 40 39  1  0  0  0  0
 40 44  1  0  0  0  0
 41 40  2  0  0  0  0
 45 41  1  0  0  0  0
M  END
>  <minimizedAffinity>
-6.84411621

$$$$

 OpenBabel03252501433D

 45 48  0  0  0  0  0  0  0  0999 V2000
   39.9780   32.8220   40.7690 C   0  0  0  0  0  0  0  0  0  0  0  0
   40.2490   33.5840   39.7690 O   0  0  0  0  0  0  0  0  0  0  0  0
   41.1550   32.3250   41.4100 N   0  0  0  0  0  0  0  0  0  0  0  0
   41.1480   31.7310   42.2330 H   0  0  0  0  0  0  0  0  0  0  0  0
   42.3190   32.8110   40.6930 C   0  0  0  0  0  0  0  0  0  0  0  0
   43.1180   33.8460   41.0670 C   0  0  0  0  0  0  0  0  0  0  0  0
   44.1790   34.1660   40.2630 C   0  0  0  0  0  0  0  0  0  0  0  0
   44.3610   33.4310   39.1490 N   0  0  0  0  0  0  0  0  0  0  0  0
   43.5510   32.4030   38.7940 C   0  0  0  0  0  0  0  0  0  0  0  0
   42.5050   32.0820   39.5810 N   0  0  0  0  0  0  0  0  0  0  0  0
   44.8140   34.9830   40.5550 H   0  0  0  0  0  0  0  0  0  0  0  0
   43.8140   31.6390   37.5520 C   0  0  0  0  0  0  0  0  0  0  0  0
   45.0660   31.7280   36.9860 C   0  0  0  0  0  0  0  0  0  0  0  0
   45.8780   32.3210   37.3860 H   0  0  0  0  0  0  0  0  0  0  0  0
   45.3130   31.0190   35.8340 C   0  0  0  0  0  3  0  0  0  0  0  0
   44.3150   30.2370   35.2640 C   0  0  0  0  0  0  0  0  0  0  0  0
   44.4130   29.6370   34.3490 H   0  0  0  0  0  0  0  0  0  0  0  0
   43.0650   30.1620   35.8500 C   0  0  0  0  0  0  0  0  0  0  0  0
   42.2340   29.5780   35.4730 H   0  0  0  0  0  0  0  0  0  0  0  0
   42.7980   30.8650   37.0060 C   0  0  0  0  0  3  0  0  0  0  0  0
   42.7840   34.5160   42.2730 N   0  0  0  0  0  0  0  0  0  0  0  0
   41.9370   35.1150   42.4540 H   0  0  0  0  0  0  0  0  0  0  0  0
   43.4460   34.4170   43.0980 H   0  0  0  0  0  0  0  0  0  0  0  0
   38.7140   32.4650   41.2490 O   0  0  0  0  0  0  0  0  0  0  0  0
   36.9430   32.0590   38.8940 Cl  0  0  0  0  0  0  0  0  0  0  0  0
   37.4850   30.8390   40.0240 C   0  0  0  0  0  0  0  0  0  0  0  0
   38.3180   31.1240   41.1020 C   0  0  0  0  0  0  0  0  0  0  0  0
   38.7100   30.1340   41.9540 C   0  0  0  0  0  0  0  0  0  0  0  0
   38.3180   28.8200   41.8070 C   0  0  0  0  0  0  0  0  0  0  0  0
   37.4760   28.5030   40.7240 C   0  0  0  0  0  0  0  0  0  0  0  0
   36.9290   26.8550   40.4630 Cl  0  0  0  0  0  0  0  0  0  0  0  0
   37.0990   29.5320   39.8830 C   0  0  0  0  0  0  0  0  0  0  0  0
   39.3590   30.4660   42.7600 H   0  0  0  0  0  0  0  0  0  0  0  0
   38.6400   28.0660   42.4860 H   0  0  0  0  0  0  0  0  0  0  0  0
   34.4150   29.3110   40.2640 F   0  0  0  0  0  0  0  0  0  0  0  0
   34.8720   29.1080   38.9810 C   0  0  0  0  0  0  0  0  0  0  0  0
   36.2250   29.2130   38.7580 C   0  0  0  0  0  0  0  0  0  0  0  0
   36.6550   29.0000   37.4400 C   0  0  0  0  0  0  0  0  0  0  0  0
   35.7210   28.7030   36.4620 C   0  0  0  0  0  0  0  0  0  0  0  0
   34.3570   28.6110   36.7600 C   0  0  0  0  0  0  0  0  0  0  0  0
   33.8980   28.8170   38.0590 C   0  0  0  0  0  0  0  0  0  0  0  0
   37.7140   29.0820   37.2640 H   0  0  0  0  0  0  0  0  0  0  0  0
   36.0580   28.5400   35.4470 H   0  0  0  0  0  0  0  0  0  0  0  0
   33.6270   28.3790   35.9940 H   0  0  0  0  0  0  0  0  0  0  0  0
   32.8540   28.7540   38.3280 H   0  0  0  0  0  0  0  0  0  0  0  0
  1 24  1  0  0  0  0
  1  3  1  0  0  0  0
  2  1  2  0  0  0  0
  3  4  1  0  0  0  0
  5  6  1  0  0  0  0
  5  3  1  0  0  0  0
  6 21  1  0  0  0  0
  7 11  1  0  0  0  0
  7  6  2  0  0  0  0
  8  7  1  0  0  0  0
  9  8  2  0  0  0  0
  9 10  1  0  0  0  0
 10  5  2  0  0  0  0
 12  9  1  0  0  0  0
 13 14  1  0  0  0  0
 13 12  2  0  0  0  0
 15 13  1  0  0  0  0
 16 15  2  0  0  0  0
 16 18  1  0  0  0  0
 17 16  1  0  0  0  0
 18 20  2  0  0  0  0
 19 18  1  0  0  0  0
 20 12  1  0  0  0  0
 21 22  1  0  0  0  0
 21 23  1  0  0  0  0
 25 26  1  0  0  0  0
 26 27  1  0  0  0  0
 27 24  1  0  0  0  0
 27 28  2  0  0  0  0
 28 33  1  0  0  0  0
 29 28  1  0  0  0  0
 29 34  1  0  0  0  0
 30 29  2  0  0  0  0
 31 30  1  0  0  0  0
 32 26  2  0  0  0  0
 32 30  1  0  0  0  0
 36 35  1  0  0  0  0
 37 36  1  0  0  0  0
 37 32  1  0  0  0  0
 38 37  2  0  0  0  0
 39 40  2  0  0  0  0
 39 38  1  0  0  0  0
 40 41  1  0  0  0  0
 41 45  1  0  0  0  0
 41 36  2  0  0  0  0
 42 38  1  0  0  0  0
 43 39  1  0  0  0  0
 44 40  1  0  0  0  0
M  END
>  <minimizedAffinity>
-6.79767132

$$$$

 OpenBabel03252501433D

 45 48  0  0  0  0  0  0  0  0999 V2000
   38.7930   31.2010   40.9270 C   0  0  0  0  0  0  0  0  0  0  0  0
   38.6350   32.4630   41.1150 O   0  0  0  0  0  0  0  0  0  0  0  0
   40.0440   30.8970   40.3050 N   0  0  0  0  0  0  0  0  0  0  0  0
   40.3630   29.9540   40.0990 H   0  0  0  0  0  0  0  0  0  0  0  0
   40.7460   32.1360   40.0340 C   0  0  0  0  0  0  0  0  0  0  0  0
   40.5650   32.9420   38.9540 C   0  0  0  0  0  0  0  0  0  0  0  0
   41.3200   34.0810   38.8640 C   0  0  0  0  0  0  0  0  0  0  0  0
   42.1960   34.3290   39.8560 N   0  0  0  0  0  0  0  0  0  0  0  0
   42.3620   33.5100   40.9260 C   0  0  0  0  0  0  0  0  0  0  0  0
   41.6220   32.3880   41.0210 N   0  0  0  0  0  0  0  0  0  0  0  0
   41.1800   34.7210   38.0120 H   0  0  0  0  0  0  0  0  0  0  0  0
   43.3460   33.8480   41.9790 C   0  0  0  0  0  0  0  0  0  0  0  0
   43.9180   32.8180   42.6920 C   0  0  0  0  0  0  0  0  0  0  0  0
   43.6980   31.7700   42.5350 H   0  0  0  0  0  0  0  0  0  0  0  0
   44.8330   33.1290   43.6690 C   0  0  0  0  0  3  0  0  0  0  0  0
   45.1630   34.4550   43.9250 C   0  0  0  0  0  0  0  0  0  0  0  0
   45.8780   34.8050   44.6820 H   0  0  0  0  0  0  0  0  0  0  0  0
   44.5760   35.4740   43.1970 C   0  0  0  0  0  0  0  0  0  0  0  0
   44.7760   36.5300   43.3320 H   0  0  0  0  0  0  0  0  0  0  0  0
   43.6570   35.1820   42.2120 C   0  0  0  0  0  3  0  0  0  0  0  0
   39.5980   32.5330   37.9990 N   0  0  0  0  0  0  0  0  0  0  0  0
   39.6510   31.7000   37.3580 H   0  0  0  0  0  0  0  0  0  0  0  0
   38.7160   33.1170   37.9010 H   0  0  0  0  0  0  0  0  0  0  0  0
   37.9050   30.1740   41.2580 O   0  0  0  0  0  0  0  0  0  0  0  0
   37.1840   27.7970   39.6230 Cl  0  0  0  0  0  0  0  0  0  0  0  0
   38.1640   27.8170   41.0710 C   0  0  0  0  0  0  0  0  0  0  0  0
   38.4500   28.9840   41.7740 C   0  0  0  0  0  0  0  0  0  0  0  0
   39.2210   28.9430   42.8990 C   0  0  0  0  0  0  0  0  0  0  0  0
   39.7520   27.7740   43.4010 C   0  0  0  0  0  0  0  0  0  0  0  0
   39.4790   26.5780   42.7100 C   0  0  0  0  0  0  0  0  0  0  0  0
   40.1160   25.0440   43.2800 Cl  0  0  0  0  0  0  0  0  0  0  0  0
   38.6950   26.6590   41.5750 C   0  0  0  0  0  0  0  0  0  0  0  0
   39.3810   29.9100   43.3680 H   0  0  0  0  0  0  0  0  0  0  0  0
   40.3510   27.7700   44.2810 H   0  0  0  0  0  0  0  0  0  0  0  0
   36.5620   25.1300   42.2900 F   0  0  0  0  0  0  0  0  0  0  0  0
   37.3210   24.6720   41.2360 C   0  0  0  0  0  0  0  0  0  0  0  0
   38.4070   25.4240   40.8520 C   0  0  0  0  0  0  0  0  0  0  0  0
   39.1560   24.9270   39.7750 C   0  0  0  0  0  0  0  0  0  0  0  0
   38.7740   23.7390   39.1740 C   0  0  0  0  0  0  0  0  0  0  0  0
   37.6560   23.0240   39.6180 C   0  0  0  0  0  0  0  0  0  0  0  0
   36.8910   23.4900   40.6840 C   0  0  0  0  0  0  0  0  0  0  0  0
   40.0060   25.5140   39.4740 H   0  0  0  0  0  0  0  0  0  0  0  0
   39.3560   23.3610   38.3440 H   0  0  0  0  0  0  0  0  0  0  0  0
   37.3580   22.0950   39.1470 H   0  0  0  0  0  0  0  0  0  0  0  0
   36.0220   22.9670   41.0550 H   0  0  0  0  0  0  0  0  0  0  0  0
  1  2  2  0  0  0  0
  1 24  1  0  0  0  0
  3  1  1  0  0  0  0
  4  3  1  0  0  0  0
  5  3  1  0  0  0  0
  5 10  1  0  0  0  0
  6  5  2  0  0  0  0
  7  6  1  0  0  0  0
  7  8  2  0  0  0  0
  8  9  1  0  0  0  0
  9 10  2  0  0  0  0
  9 12  1  0  0  0  0
 11  7  1  0  0  0  0
 12 20  2  0  0  0  0
 12 13  1  0  0  0  0
 13 15  2  0  0  0  0
 14 13  1  0  0  0  0
 15 16  1  0  0  0  0
 16 17  1  0  0  0  0
 18 19  1  0  0  0  0
 18 16  2  0  0  0  0
 20 18  1  0  0  0  0
 21  6  1  0  0  0  0
 22 21  1  0  0  0  0
 23 21  1  0  0  0  0
 24 27  1  0  0  0  0
 25 26  1  0  0  0  0
 26 32  2  0  0  0  0
 26 27  1  0  0  0  0
 27 28  2  0  0  0  0
 28 33  1  0  0  0  0
 28 29  1  0  0  0  0
 29 34  1  0  0  0  0
 30 31  1  0  0  0  0
 30 29  2  0  0  0  0
 32 30  1  0  0  0  0
 36 35  1  0  0  0  0
 37 36  1  0  0  0  0
 37 32  1  0  0  0  0
 38 37  2  0  0  0  0
 39 40  2  0  0  0  0
 39 38  1  0  0  0  0
 40 41  1  0  0  0  0
 41 45  1  0  0  0  0
 41 36  2  0  0  0  0
 42 38  1  0  0  0  0
 43 39  1  0  0  0  0
 44 40  1  0  0  0  0
M  END
>  <minimizedAffinity>
-6.79536533

$$$$
