
 OpenBabel03252505093D

 43 46  0  0  1  0  0  0  0  0999 V2000
   37.4050   32.5620   39.9130 C   0  0  0  0  0  0  0  0  0  0  0  0
   37.0650   31.4060   40.6540 C   0  0  0  0  0  0  0  0  0  0  0  0
   38.0990   30.4450   40.8770 C   0  0  0  0  0  0  0  0  0  0  0  0
   39.3350   30.6770   40.3800 N   0  0  0  0  0  0  0  0  0  0  0  0
   39.6040   31.7970   39.6810 C   0  0  0  0  0  0  0  0  0  0  0  0
   38.6480   32.7450   39.4410 N   0  0  0  0  0  0  0  0  0  0  0  0
   36.6840   33.3340   39.7020 H   0  0  0  0  0  0  0  0  0  0  0  0
   36.0730   31.2800   41.0190 H   0  0  0  0  0  0  0  0  0  0  0  0
   40.9860   31.9930   39.1550 C   0  0  2  0  0  0  0  0  0  0  0  0
   41.7640   32.6140   40.2810 C   0  0  0  0  0  0  0  0  0  0  0  0
   42.0660   34.0440   40.1640 C   0  0  0  0  0  0  0  0  0  0  0  0
   42.7680   34.2070   38.8150 C   0  0  0  0  0  0  0  0  0  0  0  0
   41.8960   33.8910   37.6960 C   0  0  0  0  0  0  0  0  0  0  0  0
   40.9860   32.7360   37.9140 C   0  0  0  0  0  0  0  0  0  0  0  0
   41.3640   30.9630   38.9660 H   0  0  0  0  0  0  0  0  0  0  0  0
   42.7280   32.0590   40.3710 H   0  0  0  0  0  0  0  0  0  0  0  0
   41.2750   32.4540   41.2810 H   0  0  0  0  0  0  0  0  0  0  0  0
   42.8170   34.3010   40.9410 H   0  0  0  0  0  0  0  0  0  0  0  0
   41.1540   34.6610   40.2210 H   0  0  0  0  0  0  0  0  0  0  0  0
   42.9350   35.3190   38.7510 H   0  0  0  0  0  0  0  0  0  0  0  0
   43.7030   33.6360   38.8520 H   0  0  0  0  0  0  0  0  0  0  0  0
   41.7800   34.3270   36.7480 H   0  0  0  0  0  0  0  0  0  0  0  0
   40.0770   32.3250   36.8910 N   0  0  0  0  0  0  0  0  0  0  0  0
   39.2790   32.9960   36.7940 H   0  0  0  0  0  0  0  0  0  0  0  0
   40.2170   31.4580   36.3270 H   0  0  0  0  0  0  0  0  0  0  0  0
   37.7770   29.2490   41.6380 C   0  0  0  0  0  0  0  0  0  0  0  0
   37.8210   29.3050   42.9940 C   0  0  0  0  0  0  0  0  0  0  0  0
   37.5020   28.1240   43.6780 C   0  0  0  0  0  0  0  0  0  0  0  0
   37.1760   27.0280   42.9150 C   0  0  0  0  0  0  0  0  0  0  0  0
   37.1330   26.9700   41.5580 C   0  0  0  0  0  0  0  0  0  0  0  0
   37.4520   28.1450   40.9390 N   0  0  0  0  0  0  0  0  0  0  0  0
   38.0880   30.2140   43.4880 H   0  0  0  0  0  0  0  0  0  0  0  0
   37.5220   28.1170   44.7600 H   0  0  0  0  0  0  0  0  0  0  0  0
   36.9330   26.1230   43.4660 H   0  0  0  0  0  0  0  0  0  0  0  0
   36.7960   25.8340   40.7550 C   0  0  0  0  0  0  0  0  0  0  0  0
   36.4540   26.0330   39.4320 C   0  0  0  0  0  0  0  0  0  0  0  0
   36.4150   27.0000   38.9300 H   0  0  0  0  0  0  0  0  0  0  0  0
   36.1190   24.9580   38.6160 C   0  0  0  0  0  3  0  0  0  0  0  0
   36.1160   23.6630   39.0930 C   0  0  0  0  0  0  0  0  0  0  0  0
   35.8670   22.7870   38.5130 H   0  0  0  0  0  0  0  0  0  0  0  0
   36.4670   23.5400   40.4170 C   0  0  0  0  0  0  0  0  0  0  0  0
   36.4770   22.5250   40.8350 H   0  0  0  0  0  0  0  0  0  0  0  0
   36.8080   24.5590   41.2820 C   0  0  0  0  0  3  0  0  0  0  0  0
  1  2  1  0  0  0  0
  2  3  2  0  0  0  0
  2  8  1  0  0  0  0
  3 26  1  0  0  0  0
  4  3  1  0  0  0  0
  5  4  2  0  0  0  0
  6  5  1  0  0  0  0
  6  1  2  0  0  0  0
  7  1  1  0  0  0  0
  9 15  1  6  0  0  0
  9  5  1  0  0  0  0
  9 10  1  0  0  0  0
 10 16  1  0  0  0  0
 10 17  1  0  0  0  0
 11 19  1  0  0  0  0
 11 10  1  0  0  0  0
 11 18  1  0  0  0  0
 12 21  1  0  0  0  0
 12 11  1  0  0  0  0
 13 14  2  0  0  0  0
 13 12  1  0  0  0  0
 14  9  1  0  0  0  0
 20 12  1  0  0  0  0
 22 13  1  0  0  0  0
 23 14  1  0  0  0  0
 24 23  1  0  0  0  0
 25 23  1  0  0  0  0
 26 27  1  0  0  0  0
 27 32  1  0  0  0  0
 27 28  2  0  0  0  0
 28 33  1  0  0  0  0
 29 34  1  0  0  0  0
 29 28  1  0  0  0  0
 30 29  2  0  0  0  0
 31 30  1  0  0  0  0
 31 26  2  0  0  0  0
 35 43  1  0  0  0  0
 35 30  1  0  0  0  0
 36 35  2  0  0  0  0
 37 36  1  0  0  0  0
 38 39  2  0  0  0  0
 38 36  1  0  0  0  0
 39 41  1  0  0  0  0
 40 39  1  0  0  0  0
 41 42  1  0  0  0  0
 41 43  2  0  0  0  0
M  END
>  <minimizedAffinity>
-7.06639242

$$$$

 OpenBabel03252505093D

 43 46  0  0  1  0  0  0  0  0999 V2000
   38.5750   34.0190   39.9970 C   0  0  0  0  0  0  0  0  0  0  0  0
   37.7590   32.9100   40.3230 C   0  0  0  0  0  0  0  0  0  0  0  0
   38.3730   31.6200   40.3030 C   0  0  0  0  0  0  0  0  0  0  0  0
   39.6810   31.5150   39.9790 N   0  0  0  0  0  0  0  0  0  0  0  0
   40.4120   32.6060   39.6760 C   0  0  0  0  0  0  0  0  0  0  0  0
   39.8690   33.8610   39.6810 N   0  0  0  0  0  0  0  0  0  0  0  0
   38.1890   35.0250   39.9890 H   0  0  0  0  0  0  0  0  0  0  0  0
   36.7340   33.0580   40.5700 H   0  0  0  0  0  0  0  0  0  0  0  0
   41.8490   32.4230   39.3230 C   0  0  2  0  0  0  0  0  0  0  0  0
   42.6130   32.6550   40.5960 C   0  0  0  0  0  0  0  0  0  0  0  0
   43.3300   33.9280   40.7130 C   0  0  0  0  0  0  0  0  0  0  0  0
   44.2270   34.0090   39.4760 C   0  0  0  0  0  0  0  0  0  0  0  0
   43.4620   34.0950   38.2430 C   0  0  0  0  0  0  0  0  0  0  0  0
   42.2350   33.2570   38.2050 C   0  0  0  0  0  0  0  0  0  0  0  0
   41.9330   31.3530   39.0280 H   0  0  0  0  0  0  0  0  0  0  0  0
   43.3510   31.8260   40.7020 H   0  0  0  0  0  0  0  0  0  0  0  0
   41.9660   32.5480   41.5100 H   0  0  0  0  0  0  0  0  0  0  0  0
   44.0100   33.8600   41.5880 H   0  0  0  0  0  0  0  0  0  0  0  0
   42.6380   34.7850   40.7660 H   0  0  0  0  0  0  0  0  0  0  0  0
   44.7180   35.0170   39.5860 H   0  0  0  0  0  0  0  0  0  0  0  0
   44.9410   33.1790   39.5240 H   0  0  0  0  0  0  0  0  0  0  0  0
   43.6090   34.6420   37.3590 H   0  0  0  0  0  0  0  0  0  0  0  0
   41.3940   33.2540   37.0490 N   0  0  0  0  0  0  0  0  0  0  0  0
   40.8470   34.1420   36.9690 H   0  0  0  0  0  0  0  0  0  0  0  0
   41.3510   32.4490   36.3850 H   0  0  0  0  0  0  0  0  0  0  0  0
   37.5570   30.4630   40.6380 C   0  0  0  0  0  0  0  0  0  0  0  0
   36.2240   30.5060   40.3810 C   0  0  0  0  0  0  0  0  0  0  0  0
   35.4860   29.3650   40.7240 C   0  0  0  0  0  0  0  0  0  0  0  0
   36.1770   28.3180   41.2850 C   0  0  0  0  0  0  0  0  0  0  0  0
   37.5110   28.2740   41.5430 C   0  0  0  0  0  0  0  0  0  0  0  0
   38.1850   29.4090   41.1910 N   0  0  0  0  0  0  0  0  0  0  0  0
   35.7870   31.3760   39.9400 H   0  0  0  0  0  0  0  0  0  0  0  0
   34.4200   29.3500   40.5390 H   0  0  0  0  0  0  0  0  0  0  0  0
   35.5850   27.4430   41.5440 H   0  0  0  0  0  0  0  0  0  0  0  0
   38.2400   27.1890   42.1260 C   0  0  0  0  0  0  0  0  0  0  0  0
   39.1920   27.4680   43.0860 C   0  0  0  0  0  0  0  0  0  0  0  0
   39.4470   28.4640   43.4500 H   0  0  0  0  0  0  0  0  0  0  0  0
   39.9240   26.4440   43.6790 C   0  0  0  0  0  3  0  0  0  0  0  0
   39.7270   25.1230   43.3340 C   0  0  0  0  0  0  0  0  0  0  0  0
   40.2590   24.2840   43.7550 H   0  0  0  0  0  0  0  0  0  0  0  0
   38.7640   24.9200   42.3740 C   0  0  0  0  0  0  0  0  0  0  0  0
   38.5770   23.8810   42.0710 H   0  0  0  0  0  0  0  0  0  0  0  0
   38.0040   25.8840   41.7450 C   0  0  0  0  0  3  0  0  0  0  0  0
  1  2  1  0  0  0  0
  2  8  1  0  0  0  0
  3  2  2  0  0  0  0
  3 26  1  0  0  0  0
  4  3  1  0  0  0  0
  5  6  1  0  0  0  0
  5  4  2  0  0  0  0
  6  1  2  0  0  0  0
  7  1  1  0  0  0  0
  9 15  1  6  0  0  0
  9  5  1  0  0  0  0
  9 10  1  0  0  0  0
 10 16  1  0  0  0  0
 10 11  1  0  0  0  0
 10 17  1  0  0  0  0
 11 19  1  0  0  0  0
 11 18  1  0  0  0  0
 12 21  1  0  0  0  0
 12 20  1  0  0  0  0
 12 11  1  0  0  0  0
 13 12  1  0  0  0  0
 14 13  2  0  0  0  0
 14  9  1  0  0  0  0
 22 13  1  0  0  0  0
 23 14  1  0  0  0  0
 24 23  1  0  0  0  0
 25 23  1  0  0  0  0
 26 31  1  0  0  0  0
 27 26  2  0  0  0  0
 27 28  1  0  0  0  0
 28 29  2  0  0  0  0
 29 30  1  0  0  0  0
 29 34  1  0  0  0  0
 30 35  1  0  0  0  0
 31 30  2  0  0  0  0
 32 27  1  0  0  0  0
 33 28  1  0  0  0  0
 35 36  1  0  0  0  0
 36 37  1  0  0  0  0
 36 38  2  0  0  0  0
 39 38  1  0  0  0  0
 39 40  1  0  0  0  0
 41 39  2  0  0  0  0
 42 41  1  0  0  0  0
 43 35  2  0  0  0  0
 43 41  1  0  0  0  0
M  END
>  <minimizedAffinity>
-6.65444946

$$$$

 OpenBabel03252505093D

 43 46  0  0  1  0  0  0  0  0999 V2000
   32.9090   26.7250   36.1770 C   0  0  0  0  0  0  0  0  0  0  0  0
   34.1250   27.2350   36.6900 C   0  0  0  0  0  0  0  0  0  0  0  0
   34.1120   28.5740   37.1900 C   0  0  0  0  0  0  0  0  0  0  0  0
   32.9610   29.2830   37.1530 N   0  0  0  0  0  0  0  0  0  0  0  0
   31.8310   28.7460   36.6520 C   0  0  0  0  0  0  0  0  0  0  0  0
   31.7940   27.4700   36.1620 N   0  0  0  0  0  0  0  0  0  0  0  0
   32.8350   25.7260   35.7810 H   0  0  0  0  0  0  0  0  0  0  0  0
   34.9990   26.6270   36.6920 H   0  0  0  0  0  0  0  0  0  0  0  0
   30.5950   29.5800   36.6350 C   0  0  2  0  0  0  0  0  0  0  0  0
   30.6060   30.2950   35.3130 C   0  0  0  0  0  0  0  0  0  0  0  0
   30.9530   31.7190   35.3340 C   0  0  0  0  0  0  0  0  0  0  0  0
   29.9890   32.3620   36.3330 C   0  0  0  0  0  0  0  0  0  0  0  0
   30.1940   31.8810   37.6880 C   0  0  0  0  0  0  0  0  0  0  0  0
   30.5080   30.4320   37.8010 C   0  0  0  0  0  0  0  0  0  0  0  0
   29.7580   28.8460   36.6540 H   0  0  0  0  0  0  0  0  0  0  0  0
   29.5900   30.1890   34.8640 H   0  0  0  0  0  0  0  0  0  0  0  0
   31.2770   29.7960   34.5610 H   0  0  0  0  0  0  0  0  0  0  0  0
   30.7070   32.1480   34.3400 H   0  0  0  0  0  0  0  0  0  0  0  0
   32.0040   31.8790   35.6280 H   0  0  0  0  0  0  0  0  0  0  0  0
   30.3240   33.4370   36.3500 H   0  0  0  0  0  0  0  0  0  0  0  0
   28.9710   32.2380   35.9440 H   0  0  0  0  0  0  0  0  0  0  0  0
   30.1650   32.3640   38.6200 H   0  0  0  0  0  0  0  0  0  0  0  0
   30.7340   29.8360   39.0810 N   0  0  0  0  0  0  0  0  0  0  0  0
   31.6610   30.1150   39.4760 H   0  0  0  0  0  0  0  0  0  0  0  0
   30.0410   29.2030   39.5380 H   0  0  0  0  0  0  0  0  0  0  0  0
   35.3480   29.1220   37.7270 C   0  0  0  0  0  0  0  0  0  0  0  0
   36.1390   29.8680   36.9140 C   0  0  0  0  0  0  0  0  0  0  0  0
   37.3180   30.3710   37.4820 C   0  0  0  0  0  0  0  0  0  0  0  0
   37.5590   30.0620   38.8000 C   0  0  0  0  0  0  0  0  0  0  0  0
   36.7680   29.3150   39.6140 C   0  0  0  0  0  0  0  0  0  0  0  0
   35.6320   28.8490   39.0140 N   0  0  0  0  0  0  0  0  0  0  0  0
   35.8550   30.0480   35.9000 H   0  0  0  0  0  0  0  0  0  0  0  0
   37.9830   30.9720   36.8760 H   0  0  0  0  0  0  0  0  0  0  0  0
   38.4780   30.4610   39.2200 H   0  0  0  0  0  0  0  0  0  0  0  0
   37.0100   28.9880   40.9860 C   0  0  0  0  0  0  0  0  0  0  0  0
   36.3390   27.9160   41.5420 C   0  0  0  0  0  0  0  0  0  0  0  0
   35.6250   27.2800   41.0190 H   0  0  0  0  0  0  0  0  0  0  0  0
   36.5440   27.5620   42.8710 C   0  0  0  0  0  3  0  0  0  0  0  0
   37.4170   28.2630   43.6780 C   0  0  0  0  0  0  0  0  0  0  0  0
   37.6210   28.0420   44.7150 H   0  0  0  0  0  0  0  0  0  0  0  0
   38.0490   29.3160   43.0590 C   0  0  0  0  0  0  0  0  0  0  0  0
   38.7530   29.8990   43.6670 H   0  0  0  0  0  0  0  0  0  0  0  0
   37.8940   29.7220   41.7500 C   0  0  0  0  0  3  0  0  0  0  0  0
  1  2  1  0  0  0  0
  2  8  1  0  0  0  0
  2  3  2  0  0  0  0
  3 26  1  0  0  0  0
  4  3  1  0  0  0  0
  5  4  2  0  0  0  0
  6  1  2  0  0  0  0
  6  5  1  0  0  0  0
  7  1  1  0  0  0  0
  9  5  1  0  0  0  0
  9 15  1  1  0  0  0
  9 14  1  0  0  0  0
 10 11  1  0  0  0  0
 10  9  1  0  0  0  0
 11 19  1  0  0  0  0
 11 12  1  0  0  0  0
 12 20  1  0  0  0  0
 12 13  1  0  0  0  0
 13 14  2  0  0  0  0
 13 22  1  0  0  0  0
 14 23  1  0  0  0  0
 16 10  1  0  0  0  0
 17 10  1  0  0  0  0
 18 11  1  0  0  0  0
 21 12  1  0  0  0  0
 23 24  1  0  0  0  0
 23 25  1  0  0  0  0
 26 31  1  0  0  0  0
 27 28  1  0  0  0  0
 27 26  2  0  0  0  0
 28 29  2  0  0  0  0
 29 34  1  0  0  0  0
 29 30  1  0  0  0  0
 30 35  1  0  0  0  0
 31 30  2  0  0  0  0
 32 27  1  0  0  0  0
 33 28  1  0  0  0  0
 35 36  2  0  0  0  0
 35 43  1  0  0  0  0
 36 38  1  0  0  0  0
 37 36  1  0  0  0  0
 38 39  2  0  0  0  0
 39 40  1  0  0  0  0
 41 42  1  0  0  0  0
 41 39  1  0  0  0  0
 43 41  2  0  0  0  0
M  END
>  <minimizedAffinity>
-6.59691858

$$$$

 OpenBabel03252505093D

 43 46  0  0  1  0  0  0  0  0999 V2000
   35.8750   24.6300   38.8340 C   0  0  0  0  0  0  0  0  0  0  0  0
   36.0300   25.8460   38.1270 C   0  0  0  0  0  0  0  0  0  0  0  0
   36.6420   26.9340   38.8220 C   0  0  0  0  0  0  0  0  0  0  0  0
   37.0400   26.7590   40.1020 N   0  0  0  0  0  0  0  0  0  0  0  0
   36.8690   25.5790   40.7290 C   0  0  0  0  0  0  0  0  0  0  0  0
   36.2870   24.5090   40.1050 N   0  0  0  0  0  0  0  0  0  0  0  0
   35.4230   23.7630   38.3820 H   0  0  0  0  0  0  0  0  0  0  0  0
   35.6950   25.9210   37.1180 H   0  0  0  0  0  0  0  0  0  0  0  0
   37.3250   25.4510   42.1430 C   0  0  2  0  0  0  0  0  0  0  0  0
   37.4590   26.8570   42.6550 C   0  0  0  0  0  0  0  0  0  0  0  0
   38.8210   27.3810   42.7980 C   0  0  0  0  0  0  0  0  0  0  0  0
   39.5590   26.3710   43.6790 C   0  0  0  0  0  0  0  0  0  0  0  0
   39.6960   25.0740   43.0370 C   0  0  0  0  0  0  0  0  0  0  0  0
   38.5150   24.6340   42.2490 C   0  0  0  0  0  0  0  0  0  0  0  0
   36.4840   24.9430   42.6660 H   0  0  0  0  0  0  0  0  0  0  0  0
   36.9600   26.9020   43.6520 H   0  0  0  0  0  0  0  0  0  0  0  0
   36.8780   27.5960   42.0380 H   0  0  0  0  0  0  0  0  0  0  0  0
   38.7670   28.3240   43.3820 H   0  0  0  0  0  0  0  0  0  0  0  0
   39.3180   27.5030   41.8210 H   0  0  0  0  0  0  0  0  0  0  0  0
   40.6040   26.7890   43.7200 H   0  0  0  0  0  0  0  0  0  0  0  0
   39.0660   26.3560   44.6580 H   0  0  0  0  0  0  0  0  0  0  0  0
   40.4800   24.3760   43.0200 H   0  0  0  0  0  0  0  0  0  0  0  0
   38.5250   23.3780   41.5660 N   0  0  0  0  0  0  0  0  0  0  0  0
   39.1390   23.4060   40.7200 H   0  0  0  0  0  0  0  0  0  0  0  0
   37.9760   22.5540   41.8960 H   0  0  0  0  0  0  0  0  0  0  0  0
   36.8160   28.1930   38.1160 C   0  0  0  0  0  0  0  0  0  0  0  0
   36.5090   28.2500   36.7950 C   0  0  0  0  0  0  0  0  0  0  0  0
   36.6950   29.4870   36.1640 C   0  0  0  0  0  0  0  0  0  0  0  0
   37.1680   30.5200   36.9380 C   0  0  0  0  0  0  0  0  0  0  0  0
   37.4760   30.4640   38.2610 C   0  0  0  0  0  0  0  0  0  0  0  0
   37.2770   29.2380   38.8290 N   0  0  0  0  0  0  0  0  0  0  0  0
   36.1460   27.3820   36.2870 H   0  0  0  0  0  0  0  0  0  0  0  0
   36.4650   29.5840   35.1110 H   0  0  0  0  0  0  0  0  0  0  0  0
   37.3060   31.4700   36.4290 H   0  0  0  0  0  0  0  0  0  0  0  0
   37.9690   31.5320   39.0760 C   0  0  0  0  0  0  0  0  0  0  0  0
   37.2800   32.7290   39.0910 C   0  0  0  0  0  0  0  0  0  0  0  0
   36.3730   32.9400   38.5250 H   0  0  0  0  0  0  0  0  0  0  0  0
   37.7240   33.7940   39.8680 C   0  0  0  0  0  3  0  0  0  0  0  0
   38.8590   33.6960   40.6470 C   0  0  0  0  0  0  0  0  0  0  0  0
   39.2550   34.4820   41.2700 H   0  0  0  0  0  0  0  0  0  0  0  0
   39.4930   32.4770   40.5830 C   0  0  0  0  0  0  0  0  0  0  0  0
   40.4010   32.3580   41.1890 H   0  0  0  0  0  0  0  0  0  0  0  0
   39.1110   31.3820   39.8360 C   0  0  0  0  0  3  0  0  0  0  0  0
  1  6  1  0  0  0  0
  2  3  1  0  0  0  0
  2  1  2  0  0  0  0
  3  4  2  0  0  0  0
  4  5  1  0  0  0  0
  5  9  1  0  0  0  0
  6  5  2  0  0  0  0
  7  1  1  0  0  0  0
  8  2  1  0  0  0  0
  9 14  1  0  0  0  0
  9 10  1  0  0  0  0
  9 15  1  1  0  0  0
 10 11  1  0  0  0  0
 10 16  1  0  0  0  0
 11 18  1  0  0  0  0
 11 12  1  0  0  0  0
 12 20  1  0  0  0  0
 12 21  1  0  0  0  0
 13 12  1  0  0  0  0
 14 13  2  0  0  0  0
 17 10  1  0  0  0  0
 19 11  1  0  0  0  0
 22 13  1  0  0  0  0
 23 25  1  0  0  0  0
 23 14  1  0  0  0  0
 24 23  1  0  0  0  0
 26  3  1  0  0  0  0
 26 31  1  0  0  0  0
 27 26  2  0  0  0  0
 28 27  1  0  0  0  0
 28 29  2  0  0  0  0
 29 30  1  0  0  0  0
 30 31  2  0  0  0  0
 30 35  1  0  0  0  0
 32 27  1  0  0  0  0
 33 28  1  0  0  0  0
 34 29  1  0  0  0  0
 35 36  2  0  0  0  0
 35 43  1  0  0  0  0
 36 38  1  0  0  0  0
 37 36  1  0  0  0  0
 38 39  2  0  0  0  0
 39 40  1  0  0  0  0
 41 39  1  0  0  0  0
 41 42  1  0  0  0  0
 43 41  2  0  0  0  0
M  END
>  <minimizedAffinity>
-6.47347164

$$$$

 OpenBabel03252505093D

 43 46  0  0  1  0  0  0  0  0999 V2000
   35.0660   29.0880   35.1420 C   0  0  0  0  0  0  0  0  0  0  0  0
   35.6620   28.8660   36.4060 C   0  0  0  0  0  0  0  0  0  0  0  0
   34.8080   28.9230   37.5500 C   0  0  0  0  0  0  0  0  0  0  0  0
   33.4920   29.1810   37.3800 N   0  0  0  0  0  0  0  0  0  0  0  0
   32.9760   29.3850   36.1520 C   0  0  0  0  0  0  0  0  0  0  0  0
   33.7530   29.3410   35.0270 N   0  0  0  0  0  0  0  0  0  0  0  0
   35.6390   29.0630   34.2310 H   0  0  0  0  0  0  0  0  0  0  0  0
   36.7060   28.6680   36.4740 H   0  0  0  0  0  0  0  0  0  0  0  0
   31.5170   29.6690   36.0320 C   0  0  2  0  0  0  0  0  0  0  0  0
   31.3660   30.4990   34.7880 C   0  0  0  0  0  0  0  0  0  0  0  0
   31.1100   31.9300   34.9750 C   0  0  0  0  0  0  0  0  0  0  0  0
   29.8790   32.0120   35.8790 C   0  0  0  0  0  0  0  0  0  0  0  0
   30.1300   31.4750   37.2060 C   0  0  0  0  0  0  0  0  0  0  0  0
   30.9850   30.2590   37.2410 C   0  0  0  0  0  0  0  0  0  0  0  0
   31.0470   28.6720   35.8730 H   0  0  0  0  0  0  0  0  0  0  0  0
   30.5260   30.0670   34.1940 H   0  0  0  0  0  0  0  0  0  0  0  0
   32.2500   30.4020   34.0980 H   0  0  0  0  0  0  0  0  0  0  0  0
   30.8090   32.3560   33.9950 H   0  0  0  0  0  0  0  0  0  0  0  0
   31.9750   32.4450   35.4250 H   0  0  0  0  0  0  0  0  0  0  0  0
   29.7520   33.1210   36.0310 H   0  0  0  0  0  0  0  0  0  0  0  0
   29.0380   31.5550   35.3430 H   0  0  0  0  0  0  0  0  0  0  0  0
   29.8210   31.7820   38.1610 H   0  0  0  0  0  0  0  0  0  0  0  0
   31.3090   29.6350   38.4860 N   0  0  0  0  0  0  0  0  0  0  0  0
   32.0040   30.1980   39.0280 H   0  0  0  0  0  0  0  0  0  0  0  0
   30.8880   28.7290   38.7880 H   0  0  0  0  0  0  0  0  0  0  0  0
   35.3950   28.6950   38.8610 C   0  0  0  0  0  0  0  0  0  0  0  0
   35.4370   29.7240   39.7470 C   0  0  0  0  0  0  0  0  0  0  0  0
   36.0130   29.4490   40.9940 C   0  0  0  0  0  0  0  0  0  0  0  0
   36.4790   28.1720   41.2010 C   0  0  0  0  0  0  0  0  0  0  0  0
   36.4390   27.1430   40.3150 C   0  0  0  0  0  0  0  0  0  0  0  0
   35.8680   27.4610   39.1150 N   0  0  0  0  0  0  0  0  0  0  0  0
   35.0430   30.6810   39.4810 H   0  0  0  0  0  0  0  0  0  0  0  0
   36.0700   30.2350   41.7350 H   0  0  0  0  0  0  0  0  0  0  0  0
   36.9230   27.9810   42.1740 H   0  0  0  0  0  0  0  0  0  0  0  0
   36.9210   25.8110   40.5200 C   0  0  0  0  0  0  0  0  0  0  0  0
   36.9530   24.9430   39.4460 C   0  0  0  0  0  0  0  0  0  0  0  0
   36.6370   25.1840   38.4320 H   0  0  0  0  0  0  0  0  0  0  0  0
   37.4140   23.6400   39.6010 C   0  0  0  0  0  3  0  0  0  0  0  0
   37.8530   23.1690   40.8220 C   0  0  0  0  0  0  0  0  0  0  0  0
   38.2220   22.1720   41.0080 H   0  0  0  0  0  0  0  0  0  0  0  0
   37.7930   24.0870   41.8440 C   0  0  0  0  0  0  0  0  0  0  0  0
   38.1340   23.7510   42.8320 H   0  0  0  0  0  0  0  0  0  0  0  0
   37.3490   25.3900   41.7630 C   0  0  0  0  0  3  0  0  0  0  0  0
  1  2  1  0  0  0  0
  2  8  1  0  0  0  0
  2  3  2  0  0  0  0
  3 26  1  0  0  0  0
  4  3  1  0  0  0  0
  5  4  2  0  0  0  0
  6  1  2  0  0  0  0
  6  5  1  0  0  0  0
  7  1  1  0  0  0  0
  9 15  1  6  0  0  0
  9  5  1  0  0  0  0
  9 14  1  0  0  0  0
 10 11  1  0  0  0  0
 10  9  1  0  0  0  0
 11 19  1  0  0  0  0
 11 12  1  0  0  0  0
 12 20  1  0  0  0  0
 12 13  1  0  0  0  0
 13 14  2  0  0  0  0
 13 22  1  0  0  0  0
 14 23  1  0  0  0  0
 16 10  1  0  0  0  0
 17 10  1  0  0  0  0
 18 11  1  0  0  0  0
 21 12  1  0  0  0  0
 23 25  1  0  0  0  0
 23 24  1  0  0  0  0
 26 31  2  0  0  0  0
 26 27  1  0  0  0  0
 27 28  2  0  0  0  0
 28 29  1  0  0  0  0
 28 33  1  0  0  0  0
 29 34  1  0  0  0  0
 30 35  1  0  0  0  0
 30 29  2  0  0  0  0
 31 30  1  0  0  0  0
 32 27  1  0  0  0  0
 35 43  1  0  0  0  0
 36 38  1  0  0  0  0
 36 35  2  0  0  0  0
 37 36  1  0  0  0  0
 38 39  2  0  0  0  0
 39 40  1  0  0  0  0
 39 41  1  0  0  0  0
 41 42  1  0  0  0  0
 43 41  2  0  0  0  0
M  END
>  <minimizedAffinity>
-6.41415405

$$$$

 OpenBabel03252505093D

 43 46  0  0  1  0  0  0  0  0999 V2000
   36.1340   29.4020   38.0070 C   0  0  0  0  0  0  0  0  0  0  0  0
   36.3250   28.6700   39.2030 C   0  0  0  0  0  0  0  0  0  0  0  0
   37.2560   29.1970   40.1500 C   0  0  0  0  0  0  0  0  0  0  0  0
   37.9020   30.3510   39.8700 N   0  0  0  0  0  0  0  0  0  0  0  0
   37.6820   31.0080   38.7150 C   0  0  0  0  0  0  0  0  0  0  0  0
   36.8010   30.5430   37.7770 N   0  0  0  0  0  0  0  0  0  0  0  0
   35.4500   29.0740   37.2430 H   0  0  0  0  0  0  0  0  0  0  0  0
   35.7850   27.7670   39.3660 H   0  0  0  0  0  0  0  0  0  0  0  0
   38.4300   32.2730   38.4630 C   0  0  2  0  0  0  0  0  0  0  0  0
   39.8430   31.8580   38.1680 C   0  0  0  0  0  0  0  0  0  0  0  0
   40.8330   32.0830   39.2260 C   0  0  0  0  0  0  0  0  0  0  0  0
   40.7260   33.5690   39.5780 C   0  0  0  0  0  0  0  0  0  0  0  0
   39.4380   33.9090   40.1570 C   0  0  0  0  0  0  0  0  0  0  0  0
   38.2720   33.2140   39.5500 C   0  0  0  0  0  0  0  0  0  0  0  0
   37.9670   32.6960   37.5420 H   0  0  0  0  0  0  0  0  0  0  0  0
   40.1740   32.4100   37.2560 H   0  0  0  0  0  0  0  0  0  0  0  0
   39.9190   30.7780   37.8610 H   0  0  0  0  0  0  0  0  0  0  0  0
   41.8430   31.9370   38.7900 H   0  0  0  0  0  0  0  0  0  0  0  0
   40.6430   31.4460   40.1060 H   0  0  0  0  0  0  0  0  0  0  0  0
   41.4650   33.6810   40.4210 H   0  0  0  0  0  0  0  0  0  0  0  0
   41.0030   34.1450   38.6870 H   0  0  0  0  0  0  0  0  0  0  0  0
   39.1640   34.5600   40.9340 H   0  0  0  0  0  0  0  0  0  0  0  0
   36.9490   33.4600   40.0320 N   0  0  0  0  0  0  0  0  0  0  0  0
   36.7900   33.0120   40.9650 H   0  0  0  0  0  0  0  0  0  0  0  0
   36.2490   34.0200   39.4970 H   0  0  0  0  0  0  0  0  0  0  0  0
   37.4680   28.4650   41.3890 C   0  0  0  0  0  0  0  0  0  0  0  0
   36.3900   28.1340   42.1460 C   0  0  0  0  0  0  0  0  0  0  0  0
   36.6510   27.4300   43.3290 C   0  0  0  0  0  0  0  0  0  0  0  0
   37.9670   27.1430   43.6090 C   0  0  0  0  0  0  0  0  0  0  0  0
   39.0460   27.4750   42.8530 C   0  0  0  0  0  0  0  0  0  0  0  0
   38.7380   28.1590   41.7110 N   0  0  0  0  0  0  0  0  0  0  0  0
   35.4060   28.4070   41.8320 H   0  0  0  0  0  0  0  0  0  0  0  0
   35.8260   27.1420   43.9670 H   0  0  0  0  0  0  0  0  0  0  0  0
   38.1470   26.5970   44.5310 H   0  0  0  0  0  0  0  0  0  0  0  0
   40.4180   27.1820   43.1360 C   0  0  0  0  0  0  0  0  0  0  0  0
   41.3350   28.2140   43.1200 C   0  0  0  0  0  0  0  0  0  0  0  0
   41.1050   29.2580   42.9060 H   0  0  0  0  0  0  0  0  0  0  0  0
   42.6790   27.9750   43.3890 C   0  0  0  0  0  3  0  0  0  0  0  0
   43.1420   26.7080   43.6800 C   0  0  0  0  0  0  0  0  0  0  0  0
   44.1680   26.4550   43.8970 H   0  0  0  0  0  0  0  0  0  0  0  0
   42.1740   25.7300   43.6780 C   0  0  0  0  0  0  0  0  0  0  0  0
   42.5020   24.7070   43.9060 H   0  0  0  0  0  0  0  0  0  0  0  0
   40.8290   25.8960   43.4210 C   0  0  0  0  0  3  0  0  0  0  0  0
  1  2  1  0  0  0  0
  2  8  1  0  0  0  0
  2  3  2  0  0  0  0
  3 26  1  0  0  0  0
  4  3  1  0  0  0  0
  5  4  2  0  0  0  0
  6  1  2  0  0  0  0
  6  5  1  0  0  0  0
  7  1  1  0  0  0  0
  9 15  1  6  0  0  0
  9  5  1  0  0  0  0
  9 14  1  0  0  0  0
 10  9  1  0  0  0  0
 10 11  1  0  0  0  0
 11 12  1  0  0  0  0
 11 19  1  0  0  0  0
 12 13  1  0  0  0  0
 12 20  1  0  0  0  0
 13 22  1  0  0  0  0
 14 23  1  0  0  0  0
 14 13  2  0  0  0  0
 16 10  1  0  0  0  0
 17 10  1  0  0  0  0
 18 11  1  0  0  0  0
 21 12  1  0  0  0  0
 23 24  1  0  0  0  0
 25 23  1  0  0  0  0
 26 31  2  0  0  0  0
 26 27  1  0  0  0  0
 27 28  2  0  0  0  0
 28 29  1  0  0  0  0
 28 33  1  0  0  0  0
 29 34  1  0  0  0  0
 30 35  1  0  0  0  0
 30 29  2  0  0  0  0
 31 30  1  0  0  0  0
 32 27  1  0  0  0  0
 35 43  1  0  0  0  0
 36 35  2  0  0  0  0
 36 38  1  0  0  0  0
 37 36  1  0  0  0  0
 38 39  2  0  0  0  0
 39 40  1  0  0  0  0
 41 39  1  0  0  0  0
 41 42  1  0  0  0  0
 43 41  2  0  0  0  0
M  END
>  <minimizedAffinity>
-6.41326523

$$$$

 OpenBabel03252505093D

 43 46  0  0  1  0  0  0  0  0999 V2000
   36.2000   31.0290   40.9740 C   0  0  0  0  0  0  0  0  0  0  0  0
   36.6040   29.7900   41.5250 C   0  0  0  0  0  0  0  0  0  0  0  0
   37.9870   29.4470   41.4170 C   0  0  0  0  0  0  0  0  0  0  0  0
   38.8350   30.3040   40.8060 N   0  0  0  0  0  0  0  0  0  0  0  0
   38.3960   31.4720   40.2980 C   0  0  0  0  0  0  0  0  0  0  0  0
   37.0820   31.8440   40.3760 N   0  0  0  0  0  0  0  0  0  0  0  0
   35.1760   31.3620   41.0130 H   0  0  0  0  0  0  0  0  0  0  0  0
   35.8870   29.1580   41.9940 H   0  0  0  0  0  0  0  0  0  0  0  0
   39.3810   32.3720   39.6320 C   0  0  2  0  0  0  0  0  0  0  0  0
   40.4360   31.4680   39.0600 C   0  0  0  0  0  0  0  0  0  0  0  0
   41.7210   31.4250   39.7640 C   0  0  0  0  0  0  0  0  0  0  0  0
   42.1900   32.8790   39.8530 C   0  0  0  0  0  0  0  0  0  0  0  0
   41.3120   33.6940   40.6750 C   0  0  0  0  0  0  0  0  0  0  0  0
   39.8620   33.3980   40.5320 C   0  0  0  0  0  0  0  0  0  0  0  0
   38.8110   32.8500   38.8030 H   0  0  0  0  0  0  0  0  0  0  0  0
   40.6230   31.7910   38.0090 H   0  0  0  0  0  0  0  0  0  0  0  0
   40.0780   30.4080   38.9490 H   0  0  0  0  0  0  0  0  0  0  0  0
   42.4510   30.9000   39.1140 H   0  0  0  0  0  0  0  0  0  0  0  0
   41.6250   30.9710   40.7640 H   0  0  0  0  0  0  0  0  0  0  0  0
   43.1490   32.7990   40.4380 H   0  0  0  0  0  0  0  0  0  0  0  0
   42.3420   33.2450   38.8300 H   0  0  0  0  0  0  0  0  0  0  0  0
   41.5040   34.4630   41.3640 H   0  0  0  0  0  0  0  0  0  0  0  0
   38.8940   34.1290   41.2890 N   0  0  0  0  0  0  0  0  0  0  0  0
   38.9000   33.8460   42.2960 H   0  0  0  0  0  0  0  0  0  0  0  0
   38.2710   34.8490   40.8610 H   0  0  0  0  0  0  0  0  0  0  0  0
   38.4280   28.1800   41.9790 C   0  0  0  0  0  0  0  0  0  0  0  0
   39.2260   28.1940   43.0780 C   0  0  0  0  0  0  0  0  0  0  0  0
   39.6230   26.9460   43.5770 C   0  0  0  0  0  0  0  0  0  0  0  0
   39.1680   25.8330   42.9100 C   0  0  0  0  0  0  0  0  0  0  0  0
   38.3700   25.8180   41.8100 C   0  0  0  0  0  0  0  0  0  0  0  0
   38.0120   27.0580   41.3640 N   0  0  0  0  0  0  0  0  0  0  0  0
   39.5210   29.1220   43.5180 H   0  0  0  0  0  0  0  0  0  0  0  0
   40.2590   26.9040   44.4510 H   0  0  0  0  0  0  0  0  0  0  0  0
   39.4880   24.8750   43.3140 H   0  0  0  0  0  0  0  0  0  0  0  0
   37.8920   24.6650   41.1100 C   0  0  0  0  0  0  0  0  0  0  0  0
   38.7160   23.5610   41.0060 C   0  0  0  0  0  0  0  0  0  0  0  0
   39.7220   23.4850   41.4200 H   0  0  0  0  0  0  0  0  0  0  0  0
   38.2920   22.4190   40.3340 C   0  0  0  0  0  3  0  0  0  0  0  0
   37.0440   22.3470   39.7500 C   0  0  0  0  0  0  0  0  0  0  0  0
   36.6550   21.4930   39.2160 H   0  0  0  0  0  0  0  0  0  0  0  0
   36.2790   23.4810   39.8930 C   0  0  0  0  0  0  0  0  0  0  0  0
   35.2780   23.4630   39.4420 H   0  0  0  0  0  0  0  0  0  0  0  0
   36.6340   24.6440   40.5430 C   0  0  0  0  0  3  0  0  0  0  0  0
  1  7  1  0  0  0  0
  1  2  1  0  0  0  0
  2  8  1  0  0  0  0
  3  2  2  0  0  0  0
  3 26  1  0  0  0  0
  4  3  1  0  0  0  0
  5  6  1  0  0  0  0
  5  4  2  0  0  0  0
  6  1  2  0  0  0  0
  9 15  1  6  0  0  0
  9  5  1  0  0  0  0
  9 14  1  0  0  0  0
 10  9  1  0  0  0  0
 10 11  1  0  0  0  0
 11 12  1  0  0  0  0
 11 19  1  0  0  0  0
 12 20  1  0  0  0  0
 12 13  1  0  0  0  0
 13 22  1  0  0  0  0
 14 13  2  0  0  0  0
 14 23  1  0  0  0  0
 16 10  1  0  0  0  0
 17 10  1  0  0  0  0
 18 11  1  0  0  0  0
 21 12  1  0  0  0  0
 23 24  1  0  0  0  0
 25 23  1  0  0  0  0
 26 27  1  0  0  0  0
 27 32  1  0  0  0  0
 27 28  2  0  0  0  0
 28 33  1  0  0  0  0
 29 34  1  0  0  0  0
 29 28  1  0  0  0  0
 30 29  2  0  0  0  0
 31 30  1  0  0  0  0
 31 26  2  0  0  0  0
 35 30  1  0  0  0  0
 36 35  1  0  0  0  0
 36 37  1  0  0  0  0
 38 36  2  0  0  0  0
 39 41  2  0  0  0  0
 39 38  1  0  0  0  0
 40 39  1  0  0  0  0
 41 43  1  0  0  0  0
 42 41  1  0  0  0  0
 43 35  2  0  0  0  0
M  END
>  <minimizedAffinity>
-6.40133762

$$$$

 OpenBabel03252505093D

 43 46  0  0  1  0  0  0  0  0999 V2000
   37.5640   29.6960   38.6020 C   0  0  0  0  0  0  0  0  0  0  0  0
   36.4510   29.4180   37.7740 C   0  0  0  0  0  0  0  0  0  0  0  0
   35.4220   28.5900   38.3180 C   0  0  0  0  0  0  0  0  0  0  0  0
   35.5520   28.1170   39.5780 N   0  0  0  0  0  0  0  0  0  0  0  0
   36.6340   28.4130   40.3240 C   0  0  0  0  0  0  0  0  0  0  0  0
   37.6450   29.2010   39.8460 N   0  0  0  0  0  0  0  0  0  0  0  0
   38.3820   30.3110   38.2670 H   0  0  0  0  0  0  0  0  0  0  0  0
   36.4070   29.8210   36.7890 H   0  0  0  0  0  0  0  0  0  0  0  0
   36.7210   27.8570   41.7040 C   0  0  2  0  0  0  0  0  0  0  0  0
   37.3680   28.9290   42.5350 C   0  0  0  0  0  0  0  0  0  0  0  0
   38.7700   28.7170   42.9110 C   0  0  0  0  0  0  0  0  0  0  0  0
   38.8090   27.3500   43.5960 C   0  0  0  0  0  0  0  0  0  0  0  0
   38.4710   26.2660   42.6890 C   0  0  0  0  0  0  0  0  0  0  0  0
   37.3830   26.5710   41.7220 C   0  0  0  0  0  0  0  0  0  0  0  0
   35.6620   27.7280   42.0240 H   0  0  0  0  0  0  0  0  0  0  0  0
   36.7680   29.0410   43.4690 H   0  0  0  0  0  0  0  0  0  0  0  0
   37.2980   29.9440   42.0550 H   0  0  0  0  0  0  0  0  0  0  0  0
   39.0340   29.4650   43.6880 H   0  0  0  0  0  0  0  0  0  0  0  0
   39.4370   28.7480   42.0340 H   0  0  0  0  0  0  0  0  0  0  0  0
   39.9040   27.2130   43.8220 H   0  0  0  0  0  0  0  0  0  0  0  0
   38.1910   27.4100   44.5000 H   0  0  0  0  0  0  0  0  0  0  0  0
   38.8520   25.2940   42.5790 H   0  0  0  0  0  0  0  0  0  0  0  0
   36.9590   25.5890   40.7740 N   0  0  0  0  0  0  0  0  0  0  0  0
   37.6650   25.4610   40.0120 H   0  0  0  0  0  0  0  0  0  0  0  0
   36.0520   25.0800   40.8580 H   0  0  0  0  0  0  0  0  0  0  0  0
   34.2650   28.2920   37.4890 C   0  0  0  0  0  0  0  0  0  0  0  0
   34.0810   27.0170   37.0580 C   0  0  0  0  0  0  0  0  0  0  0  0
   32.9510   26.7850   36.2620 C   0  0  0  0  0  0  0  0  0  0  0  0
   32.1420   27.8650   35.9940 C   0  0  0  0  0  0  0  0  0  0  0  0
   32.3270   29.1410   36.4230 C   0  0  0  0  0  0  0  0  0  0  0  0
   33.4400   29.3140   37.1950 N   0  0  0  0  0  0  0  0  0  0  0  0
   34.7750   26.2510   37.3280 H   0  0  0  0  0  0  0  0  0  0  0  0
   32.7590   25.7860   35.8940 H   0  0  0  0  0  0  0  0  0  0  0  0
   31.2720   27.6630   35.3740 H   0  0  0  0  0  0  0  0  0  0  0  0
   31.4920   30.2700   36.1490 C   0  0  0  0  0  0  0  0  0  0  0  0
   31.5310   30.8360   34.8900 C   0  0  0  0  0  0  0  0  0  0  0  0
   32.1550   30.4940   34.0650 H   0  0  0  0  0  0  0  0  0  0  0  0
   30.7360   31.9350   34.5810 C   0  0  0  0  0  3  0  0  0  0  0  0
   29.8860   32.4960   35.5110 C   0  0  0  0  0  0  0  0  0  0  0  0
   29.2450   33.3460   35.3360 H   0  0  0  0  0  0  0  0  0  0  0  0
   29.8980   31.8820   36.7420 C   0  0  0  0  0  0  0  0  0  0  0  0
   29.2350   32.2980   37.5110 H   0  0  0  0  0  0  0  0  0  0  0  0
   30.6580   30.7930   37.1170 C   0  0  0  0  0  3  0  0  0  0  0  0
  1  6  1  0  0  0  0
  2  3  1  0  0  0  0
  2  1  2  0  0  0  0
  3  4  2  0  0  0  0
  4  5  1  0  0  0  0
  5  9  1  0  0  0  0
  6  5  2  0  0  0  0
  7  1  1  0  0  0  0
  8  2  1  0  0  0  0
  9 14  1  0  0  0  0
  9 15  1  1  0  0  0
  9 10  1  0  0  0  0
 10 11  1  0  0  0  0
 10 16  1  0  0  0  0
 11 12  1  0  0  0  0
 11 18  1  0  0  0  0
 12 20  1  0  0  0  0
 12 21  1  0  0  0  0
 13 12  1  0  0  0  0
 14 13  2  0  0  0  0
 17 10  1  0  0  0  0
 19 11  1  0  0  0  0
 22 13  1  0  0  0  0
 23 25  1  0  0  0  0
 23 14  1  0  0  0  0
 24 23  1  0  0  0  0
 26  3  1  0  0  0  0
 27 32  1  0  0  0  0
 27 26  2  0  0  0  0
 28 27  1  0  0  0  0
 29 28  2  0  0  0  0
 29 30  1  0  0  0  0
 30 31  2  0  0  0  0
 31 26  1  0  0  0  0
 33 28  1  0  0  0  0
 34 29  1  0  0  0  0
 35 30  1  0  0  0  0
 35 43  1  0  0  0  0
 36 35  2  0  0  0  0
 37 36  1  0  0  0  0
 38 36  1  0  0  0  0
 38 39  2  0  0  0  0
 39 41  1  0  0  0  0
 40 39  1  0  0  0  0
 41 43  2  0  0  0  0
 41 42  1  0  0  0  0
M  END
>  <minimizedAffinity>
-6.30561972

$$$$

 OpenBabel03252505093D

 43 46  0  0  1  0  0  0  0  0999 V2000
   36.3090   26.3590   39.3740 C   0  0  0  0  0  0  0  0  0  0  0  0
   37.3220   26.1910   40.3470 C   0  0  0  0  0  0  0  0  0  0  0  0
   37.9190   27.3740   40.8810 C   0  0  0  0  0  0  0  0  0  0  0  0
   37.4980   28.5820   40.4420 N   0  0  0  0  0  0  0  0  0  0  0  0
   36.5280   28.6840   39.5120 C   0  0  0  0  0  0  0  0  0  0  0  0
   35.9270   27.5810   38.9720 N   0  0  0  0  0  0  0  0  0  0  0  0
   35.8100   25.5180   38.9220 H   0  0  0  0  0  0  0  0  0  0  0  0
   37.6100   25.2110   40.6510 H   0  0  0  0  0  0  0  0  0  0  0  0
   36.1110   30.0450   39.0670 C   0  0  2  0  0  0  0  0  0  0  0  0
   36.8580   30.3000   37.7880 C   0  0  0  0  0  0  0  0  0  0  0  0
   37.9910   31.2280   37.8590 C   0  0  0  0  0  0  0  0  0  0  0  0
   37.4310   32.5140   38.4700 C   0  0  0  0  0  0  0  0  0  0  0  0
   36.9830   32.3260   39.8390 C   0  0  0  0  0  0  0  0  0  0  0  0
   36.3040   31.0310   40.1080 C   0  0  0  0  0  0  0  0  0  0  0  0
   35.0230   29.9500   38.8490 H   0  0  0  0  0  0  0  0  0  0  0  0
   36.1270   30.6960   37.0440 H   0  0  0  0  0  0  0  0  0  0  0  0
   37.2290   29.3520   37.3110 H   0  0  0  0  0  0  0  0  0  0  0  0
   38.2940   31.4800   36.8210 H   0  0  0  0  0  0  0  0  0  0  0  0
   38.8170   30.8200   38.4650 H   0  0  0  0  0  0  0  0  0  0  0  0
   38.3420   33.1730   38.5470 H   0  0  0  0  0  0  0  0  0  0  0  0
   36.6740   32.9100   37.7830 H   0  0  0  0  0  0  0  0  0  0  0  0
   37.0480   32.9360   40.6920 H   0  0  0  0  0  0  0  0  0  0  0  0
   35.8190   30.7240   41.4160 N   0  0  0  0  0  0  0  0  0  0  0  0
   36.6020   30.5030   42.0740 H   0  0  0  0  0  0  0  0  0  0  0  0
   34.8020   30.7260   41.6560 H   0  0  0  0  0  0  0  0  0  0  0  0
   38.9600   27.2290   41.8850 C   0  0  0  0  0  0  0  0  0  0  0  0
   38.9800   26.1060   42.6480 C   0  0  0  0  0  0  0  0  0  0  0  0
   40.0050   26.0170   43.6010 C   0  0  0  0  0  0  0  0  0  0  0  0
   40.8870   27.0700   43.6700 C   0  0  0  0  0  0  0  0  0  0  0  0
   40.8670   28.1940   42.9070 C   0  0  0  0  0  0  0  0  0  0  0  0
   39.8500   28.2320   41.9960 N   0  0  0  0  0  0  0  0  0  0  0  0
   38.2420   25.3450   42.5090 H   0  0  0  0  0  0  0  0  0  0  0  0
   40.0650   25.1420   44.2340 H   0  0  0  0  0  0  0  0  0  0  0  0
   41.6730   26.9810   44.4160 H   0  0  0  0  0  0  0  0  0  0  0  0
   41.7800   29.2950   42.9730 C   0  0  0  0  0  0  0  0  0  0  0  0
   43.0950   29.0480   43.3120 C   0  0  0  0  0  0  0  0  0  0  0  0
   43.5130   28.0680   43.5410 H   0  0  0  0  0  0  0  0  0  0  0  0
   44.0160   30.0880   43.3870 C   0  0  0  0  0  3  0  0  0  0  0  0
   43.6530   31.3940   43.1280 C   0  0  0  0  0  0  0  0  0  0  0  0
   44.3170   32.2440   43.1690 H   0  0  0  0  0  0  0  0  0  0  0  0
   42.3290   31.5650   42.7970 C   0  0  0  0  0  0  0  0  0  0  0  0
   42.0010   32.5900   42.5830 H   0  0  0  0  0  0  0  0  0  0  0  0
   41.3650   30.5830   42.7040 C   0  0  0  0  0  3  0  0  0  0  0  0
  1  2  1  0  0  0  0
  2  8  1  0  0  0  0
  2  3  2  0  0  0  0
  3 26  1  0  0  0  0
  4  3  1  0  0  0  0
  5  4  2  0  0  0  0
  6  1  2  0  0  0  0
  6  5  1  0  0  0  0
  7  1  1  0  0  0  0
  9 15  1  6  0  0  0
  9  5  1  0  0  0  0
  9 14  1  0  0  0  0
 10 11  1  0  0  0  0
 10  9  1  0  0  0  0
 11 19  1  0  0  0  0
 11 12  1  0  0  0  0
 12 20  1  0  0  0  0
 12 13  1  0  0  0  0
 13 14  2  0  0  0  0
 13 22  1  0  0  0  0
 14 23  1  0  0  0  0
 16 10  1  0  0  0  0
 17 10  1  0  0  0  0
 18 11  1  0  0  0  0
 21 12  1  0  0  0  0
 23 25  1  0  0  0  0
 23 24  1  0  0  0  0
 26 31  2  0  0  0  0
 26 27  1  0  0  0  0
 27 28  2  0  0  0  0
 28 29  1  0  0  0  0
 28 33  1  0  0  0  0
 29 34  1  0  0  0  0
 30 35  1  0  0  0  0
 30 29  2  0  0  0  0
 31 30  1  0  0  0  0
 32 27  1  0  0  0  0
 35 36  1  0  0  0  0
 36 38  2  0  0  0  0
 36 37  1  0  0  0  0
 39 40  1  0  0  0  0
 39 38  1  0  0  0  0
 41 39  2  0  0  0  0
 42 41  1  0  0  0  0
 43 41  1  0  0  0  0
 43 35  2  0  0  0  0
M  END
>  <minimizedAffinity>
-6.28103447

$$$$
