
 OpenBabel03252506273D

 45 49  0  0  0  0  0  0  0  0999 V2000
   36.8980   27.7130   39.6840 C   0  0  0  0  0  0  0  0  0  0  0  0
   36.5930   29.0510   39.7530 C   0  0  0  0  0  0  0  0  0  0  0  0
   36.5720   29.6130   41.0290 C   0  0  0  0  0  0  0  0  0  0  0  0
   36.8410   28.8760   42.1590 C   0  0  0  0  0  0  0  0  0  0  0  0
   36.8970   29.1270   43.4850 N   0  0  0  0  0  0  0  0  0  0  0  0
   37.2130   28.0270   44.1800 C   0  0  0  0  0  0  0  0  0  0  0  0
   37.3800   26.9860   43.3000 C   0  0  0  0  0  0  0  0  0  0  0  0
   37.1470   27.5320   42.0730 C   0  0  0  0  0  0  0  0  0  0  0  0
   37.1680   26.9780   40.8170 C   0  0  0  0  0  0  0  0  0  0  0  0
   36.9000   27.3270   38.6610 H   0  0  0  0  0  0  0  0  0  0  0  0
   36.3500   30.6490   41.2490 H   0  0  0  0  0  0  0  0  0  0  0  0
   36.7210   30.0490   43.9390 H   0  0  0  0  0  0  0  0  0  0  0  0
   37.3290   27.9320   45.2600 H   0  0  0  0  0  0  0  0  0  0  0  0
   37.6360   25.9650   43.5180 H   0  0  0  0  0  0  0  0  0  0  0  0
   37.4720   25.5780   40.5390 C   0  0  0  0  0  0  0  0  0  0  0  0
   38.7980   25.2320   40.2550 C   0  0  0  0  0  0  0  0  0  0  0  0
   39.5890   25.9850   40.2390 H   0  0  0  0  0  0  0  0  0  0  0  0
   39.1760   23.9190   39.9810 C   0  0  0  0  0  3  0  0  0  0  0  0
   38.2120   22.9320   39.9890 C   0  0  0  0  0  0  0  0  0  0  0  0
   38.4340   21.8900   39.7850 H   0  0  0  0  0  0  0  0  0  0  0  0
   36.8980   23.2460   40.2660 C   0  0  0  0  0  0  0  0  0  0  0  0
   36.1340   22.4680   40.2740 H   0  0  0  0  0  0  0  0  0  0  0  0
   36.5470   24.5540   40.5360 C   0  0  0  0  0  3  0  0  0  0  0  0
   36.2790   30.0030   38.6960 C   0  0  0  0  0  0  0  0  0  0  0  0
   35.6750   30.8280   39.1770 H   0  0  0  0  0  0  0  0  0  0  0  0
   35.5870   29.5730   37.9420 H   0  0  0  0  0  0  0  0  0  0  0  0
   37.4150   30.6370   37.9970 C   0  0  0  0  0  0  0  0  0  0  0  0
   38.2370   29.8720   37.9380 H   0  0  0  0  0  0  0  0  0  0  0  0
   37.1080   30.9240   36.9930 H   0  0  0  0  0  0  0  0  0  0  0  0
   39.2530   33.1540   39.7510 C   0  0  0  0  0  0  0  0  0  0  0  0
   37.9430   33.6580   39.8160 C   0  0  0  0  0  0  0  0  0  0  0  0
   37.1040   32.7940   39.1790 C   0  0  0  0  0  0  0  0  0  0  0  0
   37.8770   31.7990   38.7410 N   0  0  0  0  0  0  0  0  0  0  0  0
   39.1570   32.0100   39.0790 N   0  0  0  0  0  0  0  0  0  0  0  0
   37.6550   34.5850   40.2970 H   0  0  0  0  0  0  0  0  0  0  0  0
   36.0480   32.8830   39.0500 H   0  0  0  0  0  0  0  0  0  0  0  0
   42.5630   33.6720   41.1980 C   0  0  0  0  0  0  0  0  0  0  0  0
   42.6090   35.0420   41.4260 C   0  0  0  0  0  0  0  0  0  0  0  0
   41.4840   35.7880   41.0730 C   0  0  0  0  0  0  0  0  0  0  0  0
   40.4220   35.1440   40.5360 N   0  0  0  0  0  0  0  0  0  0  0  0
   40.4050   33.8210   40.3270 C   0  0  0  0  0  0  0  0  0  0  0  0
   41.4830   33.0910   40.6630 N   0  0  0  0  0  0  0  0  0  0  0  0
   43.4490   33.1340   41.4830 H   0  0  0  0  0  0  0  0  0  0  0  0
   43.4460   35.5560   41.8490 H   0  0  0  0  0  0  0  0  0  0  0  0
   41.4020   36.8760   41.2040 H   0  0  0  0  0  0  0  0  0  0  0  0
  1  2  2  0  0  0  0
  1  9  1  0  0  0  0
  2  3  1  0  0  0  0
  3 11  1  0  0  0  0
  3  4  2  0  0  0  0
  4  5  1  0  0  0  0
  5 12  1  0  0  0  0
  5  6  1  0  0  0  0
  6 13  1  0  0  0  0
  7 14  1  0  0  0  0
  7  6  2  0  0  0  0
  8  4  1  0  0  0  0
  8  7  1  0  0  0  0
  9  8  2  0  0  0  0
 10  1  1  0  0  0  0
 15  9  1  0  0  0  0
 16 15  2  0  0  0  0
 17 16  1  0  0  0  0
 18 19  2  0  0  0  0
 18 16  1  0  0  0  0
 19 21  1  0  0  0  0
 20 19  1  0  0  0  0
 21 22  1  0  0  0  0
 21 23  2  0  0  0  0
 23 15  1  0  0  0  0
 24 25  1  0  0  0  0
 24  2  1  0  0  0  0
 26 24  1  0  0  0  0
 27 24  1  0  0  0  0
 27 33  1  0  0  0  0
 28 27  1  0  0  0  0
 29 27  1  0  0  0  0
 30 31  1  0  0  0  0
 30 41  1  0  0  0  0
 31 35  1  0  0  0  0
 32 31  2  0  0  0  0
 33 34  1  0  0  0  0
 33 32  1  0  0  0  0
 34 30  2  0  0  0  0
 36 32  1  0  0  0  0
 37 38  1  0  0  0  0
 37 43  1  0  0  0  0
 38 44  1  0  0  0  0
 39 45  1  0  0  0  0
 39 38  2  0  0  0  0
 40 39  1  0  0  0  0
 41 40  2  0  0  0  0
 41 42  1  0  0  0  0
 42 37  2  0  0  0  0
M  END
>  <minimizedAffinity>
-6.96666718

$$$$

 OpenBabel03252506273D

 45 49  0  0  0  0  0  0  0  0999 V2000
   38.4610   28.6480   42.5940 C   0  0  0  0  0  0  0  0  0  0  0  0
   37.1920   28.7000   42.0700 C   0  0  0  0  0  0  0  0  0  0  0  0
   36.6110   27.4770   41.7400 C   0  0  0  0  0  0  0  0  0  0  0  0
   37.2660   26.2810   41.9270 C   0  0  0  0  0  0  0  0  0  0  0  0
   36.9780   24.9790   41.7130 N   0  0  0  0  0  0  0  0  0  0  0  0
   37.9930   24.1850   42.0780 C   0  0  0  0  0  0  0  0  0  0  0  0
   39.0110   24.9700   42.5590 C   0  0  0  0  0  0  0  0  0  0  0  0
   38.5410   26.2460   42.4550 C   0  0  0  0  0  0  0  0  0  0  0  0
   39.1140   27.4500   42.7800 C   0  0  0  0  0  0  0  0  0  0  0  0
   38.8660   29.6360   42.8330 H   0  0  0  0  0  0  0  0  0  0  0  0
   35.6220   27.3500   41.3200 H   0  0  0  0  0  0  0  0  0  0  0  0
   36.0880   24.6080   41.3160 H   0  0  0  0  0  0  0  0  0  0  0  0
   38.0410   23.0970   42.0200 H   0  0  0  0  0  0  0  0  0  0  0  0
   39.9700   24.6600   42.9350 H   0  0  0  0  0  0  0  0  0  0  0  0
   40.4490   27.6010   43.3490 C   0  0  0  0  0  0  0  0  0  0  0  0
   41.2670   28.6220   42.8560 C   0  0  0  0  0  0  0  0  0  0  0  0
   40.9240   29.2910   42.0650 H   0  0  0  0  0  0  0  0  0  0  0  0
   42.5550   28.8390   43.3450 C   0  0  0  0  0  3  0  0  0  0  0  0
   43.0340   28.0180   44.3450 C   0  0  0  0  0  0  0  0  0  0  0  0
   44.0250   28.1280   44.7720 H   0  0  0  0  0  0  0  0  0  0  0  0
   42.2480   27.0040   44.8490 C   0  0  0  0  0  0  0  0  0  0  0  0
   42.6240   26.3550   45.6400 H   0  0  0  0  0  0  0  0  0  0  0  0
   40.9750   26.8090   44.3500 C   0  0  0  0  0  3  0  0  0  0  0  0
   36.3310   29.8430   41.7930 C   0  0  0  0  0  0  0  0  0  0  0  0
   36.9120   30.7630   42.1000 H   0  0  0  0  0  0  0  0  0  0  0  0
   35.4390   29.8600   42.4530 H   0  0  0  0  0  0  0  0  0  0  0  0
   35.8980   30.0410   40.3950 C   0  0  0  0  0  0  0  0  0  0  0  0
   35.9450   29.0390   39.8880 H   0  0  0  0  0  0  0  0  0  0  0  0
   34.8740   30.4110   40.3830 H   0  0  0  0  0  0  0  0  0  0  0  0
   38.2200   32.5960   39.4650 C   0  0  0  0  0  0  0  0  0  0  0  0
   37.8900   32.0400   38.2170 C   0  0  0  0  0  0  0  0  0  0  0  0
   36.9950   31.0310   38.4050 C   0  0  0  0  0  0  0  0  0  0  0  0
   36.7870   30.9750   39.7210 N   0  0  0  0  0  0  0  0  0  0  0  0
   37.5150   31.9040   40.3550 N   0  0  0  0  0  0  0  0  0  0  0  0
   38.2890   32.3680   37.2640 H   0  0  0  0  0  0  0  0  0  0  0  0
   36.5460   30.4090   37.6620 H   0  0  0  0  0  0  0  0  0  0  0  0
   39.5660   35.8470   40.4360 C   0  0  0  0  0  0  0  0  0  0  0  0
   40.8810   35.8020   39.9900 C   0  0  0  0  0  0  0  0  0  0  0  0
   41.3010   34.6360   39.3500 C   0  0  0  0  0  0  0  0  0  0  0  0
   40.4150   33.6240   39.2000 N   0  0  0  0  0  0  0  0  0  0  0  0
   39.1510   33.6940   39.6400 C   0  0  0  0  0  0  0  0  0  0  0  0
   38.7340   34.8130   40.2580 N   0  0  0  0  0  0  0  0  0  0  0  0
   39.2810   36.7610   40.9240 H   0  0  0  0  0  0  0  0  0  0  0  0
   41.5850   36.5990   40.1070 H   0  0  0  0  0  0  0  0  0  0  0  0
   42.3150   34.4820   38.9560 H   0  0  0  0  0  0  0  0  0  0  0  0
  1  9  1  0  0  0  0
  1 10  1  0  0  0  0
  2  1  2  0  0  0  0
  3  4  2  0  0  0  0
  3  2  1  0  0  0  0
  4  8  1  0  0  0  0
  5  4  1  0  0  0  0
  5  6  1  0  0  0  0
  6  7  2  0  0  0  0
  7 14  1  0  0  0  0
  8  7  1  0  0  0  0
  8  9  2  0  0  0  0
  9 15  1  0  0  0  0
 11  3  1  0  0  0  0
 12  5  1  0  0  0  0
 13  6  1  0  0  0  0
 15 23  1  0  0  0  0
 16 18  1  0  0  0  0
 16 15  2  0  0  0  0
 17 16  1  0  0  0  0
 18 19  2  0  0  0  0
 19 20  1  0  0  0  0
 19 21  1  0  0  0  0
 21 22  1  0  0  0  0
 23 21  2  0  0  0  0
 24  2  1  0  0  0  0
 24 25  1  0  0  0  0
 24 26  1  0  0  0  0
 27 24  1  0  0  0  0
 28 27  1  0  0  0  0
 29 27  1  0  0  0  0
 30 41  1  0  0  0  0
 30 34  2  0  0  0  0
 31 32  2  0  0  0  0
 31 30  1  0  0  0  0
 32 33  1  0  0  0  0
 33 34  1  0  0  0  0
 33 27  1  0  0  0  0
 35 31  1  0  0  0  0
 36 32  1  0  0  0  0
 37 43  1  0  0  0  0
 38 44  1  0  0  0  0
 38 37  2  0  0  0  0
 39 38  1  0  0  0  0
 40 39  2  0  0  0  0
 40 41  1  0  0  0  0
 41 42  2  0  0  0  0
 42 37  1  0  0  0  0
 45 39  1  0  0  0  0
M  END
>  <minimizedAffinity>
-6.96025896

$$$$

 OpenBabel03252506273D

 45 49  0  0  0  0  0  0  0  0999 V2000
   36.4880   27.3580   39.6990 C   0  0  0  0  0  0  0  0  0  0  0  0
   36.0090   28.6450   39.7190 C   0  0  0  0  0  0  0  0  0  0  0  0
   36.1030   29.3180   40.9370 C   0  0  0  0  0  0  0  0  0  0  0  0
   36.6450   28.7320   42.0580 C   0  0  0  0  0  0  0  0  0  0  0  0
   36.8670   29.1130   43.3340 N   0  0  0  0  0  0  0  0  0  0  0  0
   37.4390   28.1340   44.0460 C   0  0  0  0  0  0  0  0  0  0  0  0
   37.6170   27.0450   43.2290 C   0  0  0  0  0  0  0  0  0  0  0  0
   37.1230   27.4370   42.0200 C   0  0  0  0  0  0  0  0  0  0  0  0
   37.0300   26.7740   40.8220 C   0  0  0  0  0  0  0  0  0  0  0  0
   36.3880   26.8800   38.7200 H   0  0  0  0  0  0  0  0  0  0  0  0
   35.7720   30.3330   41.1140 H   0  0  0  0  0  0  0  0  0  0  0  0
   36.6320   30.0430   43.7430 H   0  0  0  0  0  0  0  0  0  0  0  0
   37.7310   28.1580   45.0960 H   0  0  0  0  0  0  0  0  0  0  0  0
   38.0470   26.0910   43.4750 H   0  0  0  0  0  0  0  0  0  0  0  0
   37.4860   25.4060   40.6000 C   0  0  0  0  0  0  0  0  0  0  0  0
   38.7990   25.2080   40.1600 C   0  0  0  0  0  0  0  0  0  0  0  0
   39.4700   26.0500   39.9850 H   0  0  0  0  0  0  0  0  0  0  0  0
   39.3150   23.9340   39.9270 C   0  0  0  0  0  3  0  0  0  0  0  0
   38.5040   22.8370   40.1340 C   0  0  0  0  0  0  0  0  0  0  0  0
   38.8390   21.8190   39.9720 H   0  0  0  0  0  0  0  0  0  0  0  0
   37.2060   23.0050   40.5670 C   0  0  0  0  0  0  0  0  0  0  0  0
   36.5630   22.1400   40.7330 H   0  0  0  0  0  0  0  0  0  0  0  0
   36.7160   24.2760   40.7940 C   0  0  0  0  0  3  0  0  0  0  0  0
   35.4040   29.4440   38.6620 C   0  0  0  0  0  0  0  0  0  0  0  0
   35.1320   30.4380   39.1270 H   0  0  0  0  0  0  0  0  0  0  0  0
   34.4290   29.0290   38.3330 H   0  0  0  0  0  0  0  0  0  0  0  0
   36.2300   29.7260   37.4700 C   0  0  0  0  0  0  0  0  0  0  0  0
   36.4870   28.7370   37.0030 H   0  0  0  0  0  0  0  0  0  0  0  0
   35.6560   30.3260   36.7660 H   0  0  0  0  0  0  0  0  0  0  0  0
   38.7290   31.9820   38.6730 C   0  0  0  0  0  0  0  0  0  0  0  0
   39.5120   30.9240   38.1830 C   0  0  0  0  0  0  0  0  0  0  0  0
   38.6890   29.9620   37.6780 C   0  0  0  0  0  0  0  0  0  0  0  0
   37.4490   30.4200   37.8570 N   0  0  0  0  0  0  0  0  0  0  0  0
   37.4690   31.6220   38.4500 N   0  0  0  0  0  0  0  0  0  0  0  0
   40.5940   30.8870   38.2050 H   0  0  0  0  0  0  0  0  0  0  0  0
   38.9660   29.0330   37.2320 H   0  0  0  0  0  0  0  0  0  0  0  0
   38.9510   35.0690   40.6100 C   0  0  0  0  0  0  0  0  0  0  0  0
   40.2770   35.4550   40.4570 C   0  0  0  0  0  0  0  0  0  0  0  0
   41.0970   34.6380   39.6780 C   0  0  0  0  0  0  0  0  0  0  0  0
   40.5620   33.5270   39.1200 N   0  0  0  0  0  0  0  0  0  0  0  0
   39.2790   33.1780   39.2840 C   0  0  0  0  0  0  0  0  0  0  0  0
   38.4780   33.9570   40.0320 N   0  0  0  0  0  0  0  0  0  0  0  0
   38.3530   35.7240   41.2170 H   0  0  0  0  0  0  0  0  0  0  0  0
   40.7040   36.3320   40.8970 H   0  0  0  0  0  0  0  0  0  0  0  0
   42.1600   34.8390   39.4860 H   0  0  0  0  0  0  0  0  0  0  0  0
  1  2  2  0  0  0  0
  1  9  1  0  0  0  0
  2  3  1  0  0  0  0
  3 11  1  0  0  0  0
  3  4  2  0  0  0  0
  4  5  1  0  0  0  0
  5 12  1  0  0  0  0
  5  6  1  0  0  0  0
  6 13  1  0  0  0  0
  7 14  1  0  0  0  0
  7  6  2  0  0  0  0
  8  4  1  0  0  0  0
  8  7  1  0  0  0  0
  9  8  2  0  0  0  0
 10  1  1  0  0  0  0
 15 23  1  0  0  0  0
 15  9  1  0  0  0  0
 16 15  2  0  0  0  0
 17 16  1  0  0  0  0
 18 19  2  0  0  0  0
 18 16  1  0  0  0  0
 19 21  1  0  0  0  0
 20 19  1  0  0  0  0
 21 22  1  0  0  0  0
 21 23  2  0  0  0  0
 24 25  1  0  0  0  0
 24  2  1  0  0  0  0
 26 24  1  0  0  0  0
 27 33  1  0  0  0  0
 27 24  1  0  0  0  0
 28 27  1  0  0  0  0
 29 27  1  0  0  0  0
 30 41  1  0  0  0  0
 31 35  1  0  0  0  0
 31 30  1  0  0  0  0
 32 33  1  0  0  0  0
 32 31  2  0  0  0  0
 33 34  1  0  0  0  0
 34 30  2  0  0  0  0
 36 32  1  0  0  0  0
 37 43  1  0  0  0  0
 38 37  1  0  0  0  0
 38 44  1  0  0  0  0
 39 38  2  0  0  0  0
 40 41  2  0  0  0  0
 40 39  1  0  0  0  0
 41 42  1  0  0  0  0
 42 37  2  0  0  0  0
 45 39  1  0  0  0  0
M  END
>  <minimizedAffinity>
-6.9545722

$$$$

 OpenBabel03252506273D

 45 49  0  0  0  0  0  0  0  0999 V2000
   37.5460   30.4000   40.1970 C   0  0  0  0  0  0  0  0  0  0  0  0
   37.3440   31.1430   39.0590 C   0  0  0  0  0  0  0  0  0  0  0  0
   36.8620   30.4510   37.9490 C   0  0  0  0  0  0  0  0  0  0  0  0
   36.6010   29.1000   37.9840 C   0  0  0  0  0  0  0  0  0  0  0  0
   36.1450   28.1810   37.1060 N   0  0  0  0  0  0  0  0  0  0  0  0
   36.0720   26.9650   37.6600 C   0  0  0  0  0  0  0  0  0  0  0  0
   36.4910   27.0530   38.9640 C   0  0  0  0  0  0  0  0  0  0  0  0
   36.8090   28.3670   39.1360 C   0  0  0  0  0  0  0  0  0  0  0  0
   37.2830   29.0480   40.2300 C   0  0  0  0  0  0  0  0  0  0  0  0
   37.9240   30.9940   41.0340 H   0  0  0  0  0  0  0  0  0  0  0  0
   36.6520   30.8910   36.9830 H   0  0  0  0  0  0  0  0  0  0  0  0
   35.8770   28.3660   36.1150 H   0  0  0  0  0  0  0  0  0  0  0  0
   35.7400   26.0390   37.1910 H   0  0  0  0  0  0  0  0  0  0  0  0
   36.5590   26.2680   39.6960 H   0  0  0  0  0  0  0  0  0  0  0  0
   37.5570   28.4370   41.5260 C   0  0  0  0  0  0  0  0  0  0  0  0
   38.8880   28.1730   41.8650 C   0  0  0  0  0  0  0  0  0  0  0  0
   39.7050   28.4130   41.1820 H   0  0  0  0  0  0  0  0  0  0  0  0
   39.2390   27.5940   43.0840 C   0  0  0  0  0  3  0  0  0  0  0  0
   38.2410   27.2710   43.9810 C   0  0  0  0  0  0  0  0  0  0  0  0
   38.4400   26.8180   44.9450 H   0  0  0  0  0  0  0  0  0  0  0  0
   36.9210   27.5210   43.6700 C   0  0  0  0  0  0  0  0  0  0  0  0
   36.1300   27.2680   44.3780 H   0  0  0  0  0  0  0  0  0  0  0  0
   36.5970   28.0970   42.4570 C   0  0  0  0  0  3  0  0  0  0  0  0
   37.5540   32.5630   38.8100 C   0  0  0  0  0  0  0  0  0  0  0  0
   36.7520   32.8810   38.0790 H   0  0  0  0  0  0  0  0  0  0  0  0
   38.5010   32.7530   38.2640 H   0  0  0  0  0  0  0  0  0  0  0  0
   37.4780   33.4720   39.9710 C   0  0  0  0  0  0  0  0  0  0  0  0
   36.6140   34.1680   39.7920 H   0  0  0  0  0  0  0  0  0  0  0  0
   37.3010   32.8910   40.8740 H   0  0  0  0  0  0  0  0  0  0  0  0
   40.8320   34.6480   40.3690 C   0  0  0  0  0  0  0  0  0  0  0  0
   40.1290   35.8480   40.1670 C   0  0  0  0  0  0  0  0  0  0  0  0
   38.8080   35.5640   39.9960 C   0  0  0  0  0  0  0  0  0  0  0  0
   38.7100   34.2370   40.0910 N   0  0  0  0  0  0  0  0  0  0  0  0
   39.9130   33.6880   40.3120 N   0  0  0  0  0  0  0  0  0  0  0  0
   40.5750   36.8350   40.1530 H   0  0  0  0  0  0  0  0  0  0  0  0
   38.0100   36.2510   39.8230 H   0  0  0  0  0  0  0  0  0  0  0  0
   44.1080   35.1010   41.9140 C   0  0  0  0  0  0  0  0  0  0  0  0
   44.9740   34.4670   41.0310 C   0  0  0  0  0  0  0  0  0  0  0  0
   44.4170   33.8800   39.8960 C   0  0  0  0  0  0  0  0  0  0  0  0
   43.0780   33.9590   39.7170 N   0  0  0  0  0  0  0  0  0  0  0  0
   42.2640   34.5760   40.5850 C   0  0  0  0  0  0  0  0  0  0  0  0
   42.7900   35.1460   41.6830 N   0  0  0  0  0  0  0  0  0  0  0  0
   44.5760   35.5400   42.7760 H   0  0  0  0  0  0  0  0  0  0  0  0
   46.0340   34.4020   41.1690 H   0  0  0  0  0  0  0  0  0  0  0  0
   44.9990   33.3510   39.1280 H   0  0  0  0  0  0  0  0  0  0  0  0
  1  9  1  0  0  0  0
  1 10  1  0  0  0  0
  2  1  2  0  0  0  0
  3  4  2  0  0  0  0
  3  2  1  0  0  0  0
  4  8  1  0  0  0  0
  5  6  1  0  0  0  0
  5  4  1  0  0  0  0
  6  7  2  0  0  0  0
  7  8  1  0  0  0  0
  7 14  1  0  0  0  0
  8  9  2  0  0  0  0
  9 15  1  0  0  0  0
 11  3  1  0  0  0  0
 12  5  1  0  0  0  0
 13  6  1  0  0  0  0
 15 16  2  0  0  0  0
 15 23  1  0  0  0  0
 16 18  1  0  0  0  0
 17 16  1  0  0  0  0
 18 19  2  0  0  0  0
 19 20  1  0  0  0  0
 21 19  1  0  0  0  0
 21 22  1  0  0  0  0
 23 21  2  0  0  0  0
 24  2  1  0  0  0  0
 24 27  1  0  0  0  0
 25 24  1  0  0  0  0
 26 24  1  0  0  0  0
 27 33  1  0  0  0  0
 27 29  1  0  0  0  0
 28 27  1  0  0  0  0
 30 41  1  0  0  0  0
 31 30  1  0  0  0  0
 32 33  1  0  0  0  0
 32 31  2  0  0  0  0
 33 34  1  0  0  0  0
 34 30  2  0  0  0  0
 35 31  1  0  0  0  0
 36 32  1  0  0  0  0
 37 43  1  0  0  0  0
 38 44  1  0  0  0  0
 38 37  2  0  0  0  0
 39 38  1  0  0  0  0
 40 39  2  0  0  0  0
 40 41  1  0  0  0  0
 41 42  2  0  0  0  0
 42 37  1  0  0  0  0
 45 39  1  0  0  0  0
M  END
>  <minimizedAffinity>
-6.76519585

$$$$

 OpenBabel03252506273D

 45 49  0  0  0  0  0  0  0  0999 V2000
   38.0120   26.7880   41.6430 C   0  0  0  0  0  0  0  0  0  0  0  0
   38.0280   27.9570   42.3630 C   0  0  0  0  0  0  0  0  0  0  0  0
   39.0590   28.0950   43.2920 C   0  0  0  0  0  0  0  0  0  0  0  0
   40.0100   27.1190   43.4810 C   0  0  0  0  0  0  0  0  0  0  0  0
   41.0910   26.9650   44.2750 N   0  0  0  0  0  0  0  0  0  0  0  0
   41.6950   25.7900   44.0600 C   0  0  0  0  0  0  0  0  0  0  0  0
   41.0050   25.1150   43.0840 C   0  0  0  0  0  0  0  0  0  0  0  0
   39.9800   25.9480   42.7480 C   0  0  0  0  0  0  0  0  0  0  0  0
   38.9660   25.8120   41.8340 C   0  0  0  0  0  0  0  0  0  0  0  0
   37.1830   26.7350   40.9310 H   0  0  0  0  0  0  0  0  0  0  0  0
   39.2080   28.9540   43.9330 H   0  0  0  0  0  0  0  0  0  0  0  0
   41.4360   27.6560   44.9760 H   0  0  0  0  0  0  0  0  0  0  0  0
   42.5860   25.4000   44.5530 H   0  0  0  0  0  0  0  0  0  0  0  0
   41.2150   24.1450   42.6700 H   0  0  0  0  0  0  0  0  0  0  0  0
   38.7810   24.6470   40.9740 C   0  0  0  0  0  0  0  0  0  0  0  0
   39.5100   24.5820   39.7820 C   0  0  0  0  0  0  0  0  0  0  0  0
   40.1990   25.3780   39.4950 H   0  0  0  0  0  0  0  0  0  0  0  0
   39.3960   23.5050   38.9050 C   0  0  0  0  0  3  0  0  0  0  0  0
   38.5370   22.4730   39.2240 C   0  0  0  0  0  0  0  0  0  0  0  0
   38.3980   21.6050   38.5900 H   0  0  0  0  0  0  0  0  0  0  0  0
   37.8070   22.5130   40.3940 C   0  0  0  0  0  0  0  0  0  0  0  0
   37.1290   21.6980   40.6490 H   0  0  0  0  0  0  0  0  0  0  0  0
   37.9370   23.5900   41.2480 C   0  0  0  0  0  3  0  0  0  0  0  0
   37.1300   29.1040   42.3210 C   0  0  0  0  0  0  0  0  0  0  0  0
   37.7780   30.0230   42.4370 H   0  0  0  0  0  0  0  0  0  0  0  0
   36.4590   29.1380   43.2040 H   0  0  0  0  0  0  0  0  0  0  0  0
   36.3220   29.2860   41.0980 C   0  0  0  0  0  0  0  0  0  0  0  0
   36.4080   28.3380   40.5000 H   0  0  0  0  0  0  0  0  0  0  0  0
   35.2820   29.4530   41.3740 H   0  0  0  0  0  0  0  0  0  0  0  0
   37.9530   32.2130   39.8520 C   0  0  0  0  0  0  0  0  0  0  0  0
   37.2190   31.7950   38.7290 C   0  0  0  0  0  0  0  0  0  0  0  0
   36.5270   30.6660   39.0490 C   0  0  0  0  0  0  0  0  0  0  0  0
   36.8300   30.4060   40.3220 N   0  0  0  0  0  0  0  0  0  0  0  0
   37.6800   31.3250   40.8030 N   0  0  0  0  0  0  0  0  0  0  0  0
   37.2100   32.2960   37.7690 H   0  0  0  0  0  0  0  0  0  0  0  0
   35.8760   30.0990   38.4220 H   0  0  0  0  0  0  0  0  0  0  0  0
   40.9390   34.3010   39.6250 C   0  0  0  0  0  0  0  0  0  0  0  0
   40.4640   35.5790   39.8910 C   0  0  0  0  0  0  0  0  0  0  0  0
   39.1000   35.7150   40.1500 C   0  0  0  0  0  0  0  0  0  0  0  0
   38.3230   34.6070   40.1280 N   0  0  0  0  0  0  0  0  0  0  0  0
   38.8080   33.3850   39.8680 C   0  0  0  0  0  0  0  0  0  0  0  0
   40.1210   33.2410   39.6170 N   0  0  0  0  0  0  0  0  0  0  0  0
   41.9950   34.2380   39.4300 H   0  0  0  0  0  0  0  0  0  0  0  0
   41.0750   36.4580   39.9090 H   0  0  0  0  0  0  0  0  0  0  0  0
   38.6090   36.6730   40.3720 H   0  0  0  0  0  0  0  0  0  0  0  0
  1  9  2  0  0  0  0
  1  2  1  0  0  0  0
  2  3  2  0  0  0  0
  3  4  1  0  0  0  0
  3 11  1  0  0  0  0
  4  5  1  0  0  0  0
  5 12  1  0  0  0  0
  6  5  1  0  0  0  0
  6 13  1  0  0  0  0
  7  6  2  0  0  0  0
  8  7  1  0  0  0  0
  8  4  2  0  0  0  0
  9  8  1  0  0  0  0
 10  1  1  0  0  0  0
 14  7  1  0  0  0  0
 15 23  1  0  0  0  0
 15  9  1  0  0  0  0
 16 15  2  0  0  0  0
 17 16  1  0  0  0  0
 18 19  2  0  0  0  0
 18 16  1  0  0  0  0
 19 21  1  0  0  0  0
 20 19  1  0  0  0  0
 21 22  1  0  0  0  0
 21 23  2  0  0  0  0
 24  2  1  0  0  0  0
 24 25  1  0  0  0  0
 24 26  1  0  0  0  0
 27 29  1  0  0  0  0
 27 24  1  0  0  0  0
 28 27  1  0  0  0  0
 30 41  1  0  0  0  0
 30 34  2  0  0  0  0
 31 32  2  0  0  0  0
 31 30  1  0  0  0  0
 32 33  1  0  0  0  0
 33 34  1  0  0  0  0
 33 27  1  0  0  0  0
 35 31  1  0  0  0  0
 36 32  1  0  0  0  0
 37 38  1  0  0  0  0
 38 44  1  0  0  0  0
 38 39  2  0  0  0  0
 39 45  1  0  0  0  0
 40 39  1  0  0  0  0
 41 40  2  0  0  0  0
 42 37  2  0  0  0  0
 42 41  1  0  0  0  0
 43 37  1  0  0  0  0
M  END
>  <minimizedAffinity>
-6.59610987

$$$$

 OpenBabel03252506273D

 45 49  0  0  0  0  0  0  0  0999 V2000
   37.9500   29.2040   41.1210 C   0  0  0  0  0  0  0  0  0  0  0  0
   38.9600   29.4180   42.0280 C   0  0  0  0  0  0  0  0  0  0  0  0
   39.4320   30.7270   42.1260 C   0  0  0  0  0  0  0  0  0  0  0  0
   38.9190   31.7500   41.3610 C   0  0  0  0  0  0  0  0  0  0  0  0
   39.1580   33.0730   41.2330 N   0  0  0  0  0  0  0  0  0  0  0  0
   38.3570   33.6300   40.3170 C   0  0  0  0  0  0  0  0  0  0  0  0
   37.5390   32.6560   39.8000 C   0  0  0  0  0  0  0  0  0  0  0  0
   37.9040   31.5170   40.4550 C   0  0  0  0  0  0  0  0  0  0  0  0
   37.4390   30.2300   40.3580 C   0  0  0  0  0  0  0  0  0  0  0  0
   37.6200   28.1610   41.0870 H   0  0  0  0  0  0  0  0  0  0  0  0
   40.2200   31.0560   42.7910 H   0  0  0  0  0  0  0  0  0  0  0  0
   39.8700   33.6180   41.7660 H   0  0  0  0  0  0  0  0  0  0  0  0
   38.3270   34.6750   40.0080 H   0  0  0  0  0  0  0  0  0  0  0  0
   36.7790   32.7560   39.0460 H   0  0  0  0  0  0  0  0  0  0  0  0
   36.3720   29.8040   39.4570 C   0  0  0  0  0  0  0  0  0  0  0  0
   35.1300   29.4770   40.0100 C   0  0  0  0  0  0  0  0  0  0  0  0
   34.9560   29.5350   41.0860 H   0  0  0  0  0  0  0  0  0  0  0  0
   34.0560   29.0640   39.2220 C   0  0  0  0  0  3  0  0  0  0  0  0
   34.2270   28.9750   37.8560 C   0  0  0  0  0  0  0  0  0  0  0  0
   33.4370   28.6610   37.1830 H   0  0  0  0  0  0  0  0  0  0  0  0
   35.4420   29.2910   37.2860 C   0  0  0  0  0  0  0  0  0  0  0  0
   35.5800   29.2230   36.2060 H   0  0  0  0  0  0  0  0  0  0  0  0
   36.4910   29.6990   38.0860 C   0  0  0  0  0  3  0  0  0  0  0  0
   39.6370   28.4900   42.9230 C   0  0  0  0  0  0  0  0  0  0  0  0
   40.1950   29.1220   43.6770 H   0  0  0  0  0  0  0  0  0  0  0  0
   40.4380   27.9240   42.4060 H   0  0  0  0  0  0  0  0  0  0  0  0
   38.7930   27.5440   43.6810 C   0  0  0  0  0  0  0  0  0  0  0  0
   39.2100   27.4880   44.7230 H   0  0  0  0  0  0  0  0  0  0  0  0
   37.7710   27.9170   43.7140 H   0  0  0  0  0  0  0  0  0  0  0  0
   38.2400   24.5480   41.8090 C   0  0  0  0  0  0  0  0  0  0  0  0
   39.4240   24.2390   42.5000 C   0  0  0  0  0  0  0  0  0  0  0  0
   39.7740   25.3040   43.2750 C   0  0  0  0  0  0  0  0  0  0  0  0
   38.8350   26.2270   43.0620 N   0  0  0  0  0  0  0  0  0  0  0  0
   37.9210   25.7810   42.1900 N   0  0  0  0  0  0  0  0  0  0  0  0
   39.9640   23.3030   42.4230 H   0  0  0  0  0  0  0  0  0  0  0  0
   40.6190   25.3920   43.9200 H   0  0  0  0  0  0  0  0  0  0  0  0
   35.7320   23.1520   39.5530 C   0  0  0  0  0  0  0  0  0  0  0  0
   36.2930   21.9470   39.1480 C   0  0  0  0  0  0  0  0  0  0  0  0
   37.5490   21.6190   39.6600 C   0  0  0  0  0  0  0  0  0  0  0  0
   38.1450   22.4830   40.5150 N   0  0  0  0  0  0  0  0  0  0  0  0
   37.5800   23.6400   40.8900 C   0  0  0  0  0  0  0  0  0  0  0  0
   36.3710   23.9660   40.4030 N   0  0  0  0  0  0  0  0  0  0  0  0
   34.7660   23.3680   39.1360 H   0  0  0  0  0  0  0  0  0  0  0  0
   35.8260   21.2620   38.4720 H   0  0  0  0  0  0  0  0  0  0  0  0
   38.0920   20.6970   39.4130 H   0  0  0  0  0  0  0  0  0  0  0  0
  1  2  1  0  0  0  0
  2  3  2  0  0  0  0
  2 24  1  0  0  0  0
  3 11  1  0  0  0  0
  4  3  1  0  0  0  0
  5  4  1  0  0  0  0
  5 12  1  0  0  0  0
  6  5  1  0  0  0  0
  7  6  2  0  0  0  0
  7  8  1  0  0  0  0
  8  4  2  0  0  0  0
  9  8  1  0  0  0  0
  9  1  2  0  0  0  0
 10  1  1  0  0  0  0
 13  6  1  0  0  0  0
 14  7  1  0  0  0  0
 15 16  1  0  0  0  0
 15  9  1  0  0  0  0
 16 17  1  0  0  0  0
 18 16  2  0  0  0  0
 19 18  1  0  0  0  0
 20 19  1  0  0  0  0
 21 19  2  0  0  0  0
 21 23  1  0  0  0  0
 22 21  1  0  0  0  0
 23 15  2  0  0  0  0
 24 25  1  0  0  0  0
 24 27  1  0  0  0  0
 26 24  1  0  0  0  0
 27 29  1  0  0  0  0
 27 28  1  0  0  0  0
 30 34  2  0  0  0  0
 30 31  1  0  0  0  0
 31 32  2  0  0  0  0
 32 36  1  0  0  0  0
 33 32  1  0  0  0  0
 33 27  1  0  0  0  0
 34 33  1  0  0  0  0
 35 31  1  0  0  0  0
 37 42  1  0  0  0  0
 38 37  2  0  0  0  0
 38 39  1  0  0  0  0
 39 40  2  0  0  0  0
 40 41  1  0  0  0  0
 41 30  1  0  0  0  0
 42 41  2  0  0  0  0
 43 37  1  0  0  0  0
 44 38  1  0  0  0  0
 45 39  1  0  0  0  0
M  END
>  <minimizedAffinity>
-6.59559345

$$$$

 OpenBabel03252506273D

 45 49  0  0  0  0  0  0  0  0999 V2000
   38.1000   27.9540   40.3250 C   0  0  0  0  0  0  0  0  0  0  0  0
   38.4220   29.2640   40.5840 C   0  0  0  0  0  0  0  0  0  0  0  0
   38.1050   29.7370   41.8560 C   0  0  0  0  0  0  0  0  0  0  0  0
   37.5020   28.9420   42.8040 C   0  0  0  0  0  0  0  0  0  0  0  0
   37.0850   29.1060   44.0780 N   0  0  0  0  0  0  0  0  0  0  0  0
   36.5460   27.9820   44.5670 C   0  0  0  0  0  0  0  0  0  0  0  0
   36.5960   27.0140   43.5950 C   0  0  0  0  0  0  0  0  0  0  0  0
   37.1840   27.6270   42.5290 C   0  0  0  0  0  0  0  0  0  0  0  0
   37.4970   27.1600   41.2760 C   0  0  0  0  0  0  0  0  0  0  0  0
   38.3710   27.6380   39.3130 H   0  0  0  0  0  0  0  0  0  0  0  0
   38.2940   30.7410   42.2120 H   0  0  0  0  0  0  0  0  0  0  0  0
   37.1590   29.9840   44.6360 H   0  0  0  0  0  0  0  0  0  0  0  0
   36.1290   27.8220   45.5610 H   0  0  0  0  0  0  0  0  0  0  0  0
   36.2510   25.9970   43.6500 H   0  0  0  0  0  0  0  0  0  0  0  0
   37.2360   25.8010   40.8140 C   0  0  0  0  0  0  0  0  0  0  0  0
   36.4420   25.6290   39.6750 C   0  0  0  0  0  0  0  0  0  0  0  0
   36.0240   26.4850   39.1420 H   0  0  0  0  0  0  0  0  0  0  0  0
   36.1460   24.3660   39.1650 C   0  0  0  0  0  3  0  0  0  0  0  0
   36.6520   23.2530   39.8040 C   0  0  0  0  0  0  0  0  0  0  0  0
   36.4620   22.2410   39.4640 H   0  0  0  0  0  0  0  0  0  0  0  0
   37.4370   23.3950   40.9290 C   0  0  0  0  0  0  0  0  0  0  0  0
   37.8390   22.5170   41.4360 H   0  0  0  0  0  0  0  0  0  0  0  0
   37.7180   24.6560   41.4160 C   0  0  0  0  0  3  0  0  0  0  0  0
   39.0540   30.2650   39.7350 C   0  0  0  0  0  0  0  0  0  0  0  0
   38.3830   30.3900   38.8340 H   0  0  0  0  0  0  0  0  0  0  0  0
   40.0110   29.9020   39.3050 H   0  0  0  0  0  0  0  0  0  0  0  0
   39.2680   31.6070   40.3150 C   0  0  0  0  0  0  0  0  0  0  0  0
   38.7760   32.3470   39.6270 H   0  0  0  0  0  0  0  0  0  0  0  0
   38.8030   31.6530   41.2980 H   0  0  0  0  0  0  0  0  0  0  0  0
   42.5230   32.9800   40.8660 C   0  0  0  0  0  0  0  0  0  0  0  0
   42.8300   31.7390   40.2840 C   0  0  0  0  0  0  0  0  0  0  0  0
   41.6700   31.0800   40.0080 C   0  0  0  0  0  0  0  0  0  0  0  0
   40.6910   31.8920   40.4090 N   0  0  0  0  0  0  0  0  0  0  0  0
   41.1950   33.0230   40.9220 N   0  0  0  0  0  0  0  0  0  0  0  0
   43.8310   31.3740   40.0880 H   0  0  0  0  0  0  0  0  0  0  0  0
   41.5570   30.1160   39.5640 H   0  0  0  0  0  0  0  0  0  0  0  0
   44.1030   35.7370   42.6630 C   0  0  0  0  0  0  0  0  0  0  0  0
   45.3800   35.7910   42.1180 C   0  0  0  0  0  0  0  0  0  0  0  0
   45.6930   34.8650   41.1230 C   0  0  0  0  0  0  0  0  0  0  0  0
   44.7460   33.9740   40.7470 N   0  0  0  0  0  0  0  0  0  0  0  0
   43.5210   33.9440   41.2890 C   0  0  0  0  0  0  0  0  0  0  0  0
   43.2080   34.8320   42.2490 N   0  0  0  0  0  0  0  0  0  0  0  0
   43.9020   36.4660   43.4260 H   0  0  0  0  0  0  0  0  0  0  0  0
   46.1320   36.4930   42.4130 H   0  0  0  0  0  0  0  0  0  0  0  0
   46.6680   34.8090   40.6200 H   0  0  0  0  0  0  0  0  0  0  0  0
  1  2  2  0  0  0  0
  1  9  1  0  0  0  0
  2  3  1  0  0  0  0
  3 11  1  0  0  0  0
  3  4  2  0  0  0  0
  4  5  1  0  0  0  0
  5  6  1  0  0  0  0
  5 12  1  0  0  0  0
  6 13  1  0  0  0  0
  7 14  1  0  0  0  0
  7  6  2  0  0  0  0
  8  4  1  0  0  0  0
  8  7  1  0  0  0  0
  9  8  2  0  0  0  0
 10  1  1  0  0  0  0
 15  9  1  0  0  0  0
 15 23  1  0  0  0  0
 16 15  2  0  0  0  0
 17 16  1  0  0  0  0
 18 16  1  0  0  0  0
 18 19  2  0  0  0  0
 19 21  1  0  0  0  0
 20 19  1  0  0  0  0
 21 23  2  0  0  0  0
 21 22  1  0  0  0  0
 24 27  1  0  0  0  0
 24  2  1  0  0  0  0
 25 24  1  0  0  0  0
 26 24  1  0  0  0  0
 27 33  1  0  0  0  0
 27 29  1  0  0  0  0
 28 27  1  0  0  0  0
 30 34  2  0  0  0  0
 30 41  1  0  0  0  0
 31 30  1  0  0  0  0
 32 31  2  0  0  0  0
 32 33  1  0  0  0  0
 33 34  1  0  0  0  0
 35 31  1  0  0  0  0
 36 32  1  0  0  0  0
 37 43  1  0  0  0  0
 38 44  1  0  0  0  0
 38 37  2  0  0  0  0
 39 38  1  0  0  0  0
 40 39  2  0  0  0  0
 40 41  1  0  0  0  0
 41 42  2  0  0  0  0
 42 37  1  0  0  0  0
 45 39  1  0  0  0  0
M  END
>  <minimizedAffinity>
-6.50070333

$$$$

 OpenBabel03252506273D

 45 49  0  0  0  0  0  0  0  0999 V2000
   36.7290   30.4400   39.4650 C   0  0  0  0  0  0  0  0  0  0  0  0
   37.6610   30.6790   40.4460 C   0  0  0  0  0  0  0  0  0  0  0  0
   38.1670   29.5570   41.1020 C   0  0  0  0  0  0  0  0  0  0  0  0
   37.7610   28.2800   40.7880 C   0  0  0  0  0  0  0  0  0  0  0  0
   38.0570   27.0380   41.2270 N   0  0  0  0  0  0  0  0  0  0  0  0
   37.3590   26.1050   40.5670 C   0  0  0  0  0  0  0  0  0  0  0  0
   36.5590   26.7280   39.6430 C   0  0  0  0  0  0  0  0  0  0  0  0
   36.8240   28.0570   39.7990 C   0  0  0  0  0  0  0  0  0  0  0  0
   36.3250   29.1610   39.1530 C   0  0  0  0  0  0  0  0  0  0  0  0
   36.3680   31.3550   38.9870 H   0  0  0  0  0  0  0  0  0  0  0  0
   38.9050   29.5780   41.8930 H   0  0  0  0  0  0  0  0  0  0  0  0
   38.7360   26.8040   41.9830 H   0  0  0  0  0  0  0  0  0  0  0  0
   37.3940   25.0240   40.7090 H   0  0  0  0  0  0  0  0  0  0  0  0
   35.8730   26.2810   38.9470 H   0  0  0  0  0  0  0  0  0  0  0  0
   35.3330   29.1120   38.0850 C   0  0  0  0  0  0  0  0  0  0  0  0
   35.7810   29.1810   36.7610 C   0  0  0  0  0  0  0  0  0  0  0  0
   36.8430   29.2700   36.5270 H   0  0  0  0  0  0  0  0  0  0  0  0
   34.9010   29.1390   35.6810 C   0  0  0  0  0  3  0  0  0  0  0  0
   33.5480   29.0270   35.9260 C   0  0  0  0  0  0  0  0  0  0  0  0
   32.8070   28.9890   35.1350 H   0  0  0  0  0  0  0  0  0  0  0  0
   33.0810   28.9580   37.2220 C   0  0  0  0  0  0  0  0  0  0  0  0
   32.0110   28.8690   37.4180 H   0  0  0  0  0  0  0  0  0  0  0  0
   33.9700   29.0000   38.2770 C   0  0  0  0  0  3  0  0  0  0  0  0
   38.2220   31.9330   40.9290 C   0  0  0  0  0  0  0  0  0  0  0  0
   39.3360   31.7690   41.0280 H   0  0  0  0  0  0  0  0  0  0  0  0
   37.8950   32.1630   41.9650 H   0  0  0  0  0  0  0  0  0  0  0  0
   38.0250   33.1310   40.0880 C   0  0  0  0  0  0  0  0  0  0  0  0
   37.9880   32.7840   39.0200 H   0  0  0  0  0  0  0  0  0  0  0  0
   37.0820   33.6070   40.3520 H   0  0  0  0  0  0  0  0  0  0  0  0
   41.1430   34.7620   40.7210 C   0  0  0  0  0  0  0  0  0  0  0  0
   40.3250   35.8430   40.3500 C   0  0  0  0  0  0  0  0  0  0  0  0
   39.0760   35.3760   40.0710 C   0  0  0  0  0  0  0  0  0  0  0  0
   39.1320   34.0580   40.2660 N   0  0  0  0  0  0  0  0  0  0  0  0
   40.3620   33.6890   40.6520 N   0  0  0  0  0  0  0  0  0  0  0  0
   40.6440   36.8770   40.2970 H   0  0  0  0  0  0  0  0  0  0  0  0
   38.2230   35.9380   39.7610 H   0  0  0  0  0  0  0  0  0  0  0  0
   44.1530   35.8050   42.5030 C   0  0  0  0  0  0  0  0  0  0  0  0
   45.1790   35.1770   41.8070 C   0  0  0  0  0  0  0  0  0  0  0  0
   44.8210   34.3870   40.7140 C   0  0  0  0  0  0  0  0  0  0  0  0
   43.5100   34.2770   40.3950 N   0  0  0  0  0  0  0  0  0  0  0  0
   42.5410   34.8950   41.0840 C   0  0  0  0  0  0  0  0  0  0  0  0
   42.8730   35.6590   42.1390 N   0  0  0  0  0  0  0  0  0  0  0  0
   44.4700   36.4030   43.3380 H   0  0  0  0  0  0  0  0  0  0  0  0
   46.2160   35.2600   42.0550 H   0  0  0  0  0  0  0  0  0  0  0  0
   45.5410   33.8410   40.0880 H   0  0  0  0  0  0  0  0  0  0  0  0
  1  2  1  0  0  0  0
  2 24  1  0  0  0  0
  2  3  2  0  0  0  0
  3 11  1  0  0  0  0
  4  3  1  0  0  0  0
  4  5  1  0  0  0  0
  5 12  1  0  0  0  0
  6 13  1  0  0  0  0
  6  5  1  0  0  0  0
  7  8  1  0  0  0  0
  7  6  2  0  0  0  0
  8  4  2  0  0  0  0
  9  1  2  0  0  0  0
  9  8  1  0  0  0  0
 10  1  1  0  0  0  0
 14  7  1  0  0  0  0
 15 23  1  0  0  0  0
 15  9  1  0  0  0  0
 16 15  2  0  0  0  0
 17 16  1  0  0  0  0
 18 19  2  0  0  0  0
 18 16  1  0  0  0  0
 19 21  1  0  0  0  0
 20 19  1  0  0  0  0
 21 22  1  0  0  0  0
 21 23  2  0  0  0  0
 24 25  1  0  0  0  0
 24 26  1  0  0  0  0
 27 33  1  0  0  0  0
 27 29  1  0  0  0  0
 27 24  1  0  0  0  0
 28 27  1  0  0  0  0
 30 41  1  0  0  0  0
 31 30  1  0  0  0  0
 32 33  1  0  0  0  0
 32 31  2  0  0  0  0
 33 34  1  0  0  0  0
 34 30  2  0  0  0  0
 35 31  1  0  0  0  0
 36 32  1  0  0  0  0
 37 43  1  0  0  0  0
 38 44  1  0  0  0  0
 38 37  2  0  0  0  0
 39 38  1  0  0  0  0
 40 39  2  0  0  0  0
 40 41  1  0  0  0  0
 41 42  2  0  0  0  0
 42 37  1  0  0  0  0
 45 39  1  0  0  0  0
M  END
>  <minimizedAffinity>
-6.45838118

$$$$

 OpenBabel03252506273D

 45 49  0  0  0  0  0  0  0  0999 V2000
   39.1300   31.5690   39.1760 C   0  0  0  0  0  0  0  0  0  0  0  0
   37.8910   31.9670   39.6160 C   0  0  0  0  0  0  0  0  0  0  0  0
   37.7760   33.2990   40.0110 C   0  0  0  0  0  0  0  0  0  0  0  0
   38.8400   34.1710   39.9640 C   0  0  0  0  0  0  0  0  0  0  0  0
   39.0350   35.4730   40.2670 N   0  0  0  0  0  0  0  0  0  0  0  0
   40.2990   35.8470   40.0320 C   0  0  0  0  0  0  0  0  0  0  0  0
   40.9930   34.7660   39.5490 C   0  0  0  0  0  0  0  0  0  0  0  0
   40.0790   33.7550   39.5180 C   0  0  0  0  0  0  0  0  0  0  0  0
   40.1930   32.4440   39.1290 C   0  0  0  0  0  0  0  0  0  0  0  0
   39.1610   30.5160   38.8800 H   0  0  0  0  0  0  0  0  0  0  0  0
   36.8710   33.7630   40.3800 H   0  0  0  0  0  0  0  0  0  0  0  0
   38.3130   36.1270   40.6400 H   0  0  0  0  0  0  0  0  0  0  0  0
   40.7390   36.8330   40.1820 H   0  0  0  0  0  0  0  0  0  0  0  0
   42.0270   34.7150   39.2590 H   0  0  0  0  0  0  0  0  0  0  0  0
   41.4220   31.8360   38.6310 C   0  0  0  0  0  0  0  0  0  0  0  0
   41.7050   31.9370   37.2650 C   0  0  0  0  0  0  0  0  0  0  0  0
   41.0270   32.4560   36.5830 H   0  0  0  0  0  0  0  0  0  0  0  0
   42.8570   31.3880   36.7060 C   0  0  0  0  0  3  0  0  0  0  0  0
   43.7440   30.7220   37.5280 C   0  0  0  0  0  0  0  0  0  0  0  0
   44.6600   30.2700   37.1620 H   0  0  0  0  0  0  0  0  0  0  0  0
   43.4890   30.6080   38.8780 C   0  0  0  0  0  0  0  0  0  0  0  0
   44.1890   30.0830   39.5290 H   0  0  0  0  0  0  0  0  0  0  0  0
   42.3410   31.1610   39.4090 C   0  0  0  0  0  3  0  0  0  0  0  0
   36.6500   31.2160   39.7450 C   0  0  0  0  0  0  0  0  0  0  0  0
   36.7970   30.2530   39.1700 H   0  0  0  0  0  0  0  0  0  0  0  0
   35.8080   31.7130   39.2190 H   0  0  0  0  0  0  0  0  0  0  0  0
   36.2160   30.8530   41.1090 C   0  0  0  0  0  0  0  0  0  0  0  0
   36.6350   31.6280   41.8070 H   0  0  0  0  0  0  0  0  0  0  0  0
   35.1280   30.8650   41.1580 H   0  0  0  0  0  0  0  0  0  0  0  0
   38.1010   28.0300   42.2320 C   0  0  0  0  0  0  0  0  0  0  0  0
   36.9250   27.4210   41.7620 C   0  0  0  0  0  0  0  0  0  0  0  0
   36.0860   28.3850   41.2900 C   0  0  0  0  0  0  0  0  0  0  0  0
   36.7290   29.5400   41.4670 N   0  0  0  0  0  0  0  0  0  0  0  0
   37.9280   29.3330   42.0290 N   0  0  0  0  0  0  0  0  0  0  0  0
   36.7270   26.3560   41.7760 H   0  0  0  0  0  0  0  0  0  0  0  0
   35.1150   28.2550   40.8650 H   0  0  0  0  0  0  0  0  0  0  0  0
   40.1810   25.2510   43.3610 C   0  0  0  0  0  0  0  0  0  0  0  0
   41.3030   25.8770   43.8890 C   0  0  0  0  0  0  0  0  0  0  0  0
   41.3370   27.2710   43.8520 C   0  0  0  0  0  0  0  0  0  0  0  0
   40.2860   27.9300   43.3100 N   0  0  0  0  0  0  0  0  0  0  0  0
   39.2150   27.3000   42.8070 C   0  0  0  0  0  0  0  0  0  0  0  0
   39.1720   25.9570   42.8370 N   0  0  0  0  0  0  0  0  0  0  0  0
   40.1940   24.1770   43.4080 H   0  0  0  0  0  0  0  0  0  0  0  0
   42.1360   25.3600   44.3180 H   0  0  0  0  0  0  0  0  0  0  0  0
   42.1690   27.8770   44.2370 H   0  0  0  0  0  0  0  0  0  0  0  0
  1  2  1  0  0  0  0
  2 24  1  0  0  0  0
  2  3  2  0  0  0  0
  3 11  1  0  0  0  0
  4  3  1  0  0  0  0
  4  5  1  0  0  0  0
  5 12  1  0  0  0  0
  6 13  1  0  0  0  0
  6  5  1  0  0  0  0
  7  6  2  0  0  0  0
  8  7  1  0  0  0  0
  8  4  2  0  0  0  0
  9  1  2  0  0  0  0
  9  8  1  0  0  0  0
 10  1  1  0  0  0  0
 14  7  1  0  0  0  0
 15  9  1  0  0  0  0
 15 23  1  0  0  0  0
 16 15  2  0  0  0  0
 17 16  1  0  0  0  0
 18 16  1  0  0  0  0
 18 19  2  0  0  0  0
 19 21  1  0  0  0  0
 20 19  1  0  0  0  0
 21 23  2  0  0  0  0
 21 22  1  0  0  0  0
 24 27  1  0  0  0  0
 25 24  1  0  0  0  0
 26 24  1  0  0  0  0
 27 29  1  0  0  0  0
 27 33  1  0  0  0  0
 27 28  1  0  0  0  0
 30 41  1  0  0  0  0
 31 35  1  0  0  0  0
 31 30  1  0  0  0  0
 32 33  1  0  0  0  0
 32 31  2  0  0  0  0
 33 34  1  0  0  0  0
 34 30  2  0  0  0  0
 36 32  1  0  0  0  0
 37 43  1  0  0  0  0
 37 38  1  0  0  0  0
 38 44  1  0  0  0  0
 39 38  2  0  0  0  0
 39 45  1  0  0  0  0
 40 39  1  0  0  0  0
 41 42  1  0  0  0  0
 41 40  2  0  0  0  0
 42 37  2  0  0  0  0
M  END
>  <minimizedAffinity>
-6.4555974

$$$$
