
 OpenBabel03252507213D

 44 47  0  0  1  0  0  0  0  0999 V2000
   38.8490   29.3010   39.6260 C   0  0  0  0  0  0  0  0  0  0  0  0
   38.2530   28.4380   38.9250 O   0  0  0  0  0  0  0  0  0  0  0  0
   38.3510   30.6230   39.8850 N   0  0  0  0  0  0  0  0  0  0  0  0
   38.2910   31.3920   41.1120 C   0  0  0  0  0  0  0  0  0  0  0  0
   38.9140   32.7790   40.8650 C   0  0  0  0  0  0  0  0  0  0  0  0
   38.0920   33.5270   39.8450 C   0  0  0  0  0  0  0  0  0  0  0  0
   37.1350   32.5880   39.1680 C   0  0  0  0  0  0  0  0  0  0  0  0
   37.8230   31.3180   38.7300 C   0  0  2  0  0  0  0  0  0  0  0  0
   37.2700   31.5320   41.4560 H   0  0  0  0  0  0  0  0  0  0  0  0
   38.9740   30.9220   41.8510 H   0  0  0  0  0  0  0  0  0  0  0  0
   38.9760   33.3070   41.8330 H   0  0  0  0  0  0  0  0  0  0  0  0
   39.9120   32.6090   40.4040 H   0  0  0  0  0  0  0  0  0  0  0  0
   38.7150   33.9960   39.0430 H   0  0  0  0  0  0  0  0  0  0  0  0
   37.5110   34.3110   40.3750 H   0  0  0  0  0  0  0  0  0  0  0  0
   36.2690   32.4170   39.8290 H   0  0  0  0  0  0  0  0  0  0  0  0
   36.7870   33.0780   38.2210 H   0  0  0  0  0  0  0  0  0  0  0  0
   38.6950   31.6300   38.1220 H   0  0  0  0  0  0  0  0  0  0  0  0
   36.9390   30.4910   37.8790 C   0  0  0  0  0  0  0  0  0  0  0  0
   35.7780   29.9220   38.4180 C   0  0  0  0  0  0  0  0  0  0  0  0
   35.5860   30.1380   39.4800 H   0  0  0  0  0  0  0  0  0  0  0  0
   34.8730   29.1360   37.7680 C   0  0  0  0  0  3  0  0  0  0  0  0
   35.1120   28.8680   36.4490 C   0  0  0  0  0  0  0  0  0  0  0  0
   34.4170   28.2490   35.9050 H   0  0  0  0  0  0  0  0  0  0  0  0
   36.2300   29.3910   35.8520 C   0  0  0  0  0  0  0  0  0  0  0  0
   36.4330   29.1830   34.7910 H   0  0  0  0  0  0  0  0  0  0  0  0
   37.1200   30.1820   36.5460 C   0  0  0  0  0  3  0  0  0  0  0  0
   41.2970   29.2950   39.5170 C   0  0  0  0  0  0  0  0  0  0  0  0
   40.1200   28.9300   40.2060 C   0  0  0  0  0  0  0  0  0  0  0  0
   40.2180   28.2380   41.3960 C   0  0  0  0  0  0  0  0  0  0  0  0
   41.4490   27.9340   41.8610 N   0  0  0  0  0  0  0  0  0  0  0  0
   42.5880   28.2800   41.2070 C   0  0  0  0  0  0  0  0  0  0  0  0
   42.4890   28.9550   40.0450 N   0  0  0  0  0  0  0  0  0  0  0  0
   41.2520   29.8370   38.5800 H   0  0  0  0  0  0  0  0  0  0  0  0
   43.5260   27.9900   41.6610 H   0  0  0  0  0  0  0  0  0  0  0  0
   38.9990   27.8690   42.0870 C   0  0  0  0  0  0  0  0  0  0  0  0
   38.3830   26.6880   41.8000 C   0  0  0  0  0  0  0  0  0  0  0  0
   37.2240   26.3530   42.4650 C   0  0  0  0  0  0  0  0  0  0  0  0
   36.6460   27.1770   43.4310 C   0  0  0  0  0  0  0  0  0  0  0  0
   37.3180   28.3610   43.6770 C   0  0  0  0  0  0  0  0  0  0  0  0
   38.4430   28.6520   43.0090 N   0  0  0  0  0  0  0  0  0  0  0  0
   38.6940   25.9540   41.0880 H   0  0  0  0  0  0  0  0  0  0  0  0
   36.6770   25.4270   42.2890 H   0  0  0  0  0  0  0  0  0  0  0  0
   35.7380   26.9380   43.9660 H   0  0  0  0  0  0  0  0  0  0  0  0
   36.9770   29.0890   44.4020 H   0  0  0  0  0  0  0  0  0  0  0  0
  1  3  1  0  0  0  0
  1 28  1  0  0  0  0
  2  1  2  0  0  0  0
  3  4  1  0  0  0  0
  4  9  1  0  0  0  0
  4 10  1  0  0  0  0
  5  4  1  0  0  0  0
  5 11  1  0  0  0  0
  6 14  1  0  0  0  0
  6  5  1  0  0  0  0
  7 15  1  0  0  0  0
  7  6  1  0  0  0  0
  8 17  1  6  0  0  0
  8  7  1  0  0  0  0
  8  3  1  0  0  0  0
 12  5  1  0  0  0  0
 13  6  1  0  0  0  0
 16  7  1  0  0  0  0
 18 19  1  0  0  0  0
 18  8  1  0  0  0  0
 19 20  1  0  0  0  0
 21 19  2  0  0  0  0
 22 21  1  0  0  0  0
 23 22  1  0  0  0  0
 24 22  2  0  0  0  0
 24 26  1  0  0  0  0
 25 24  1  0  0  0  0
 26 18  2  0  0  0  0
 27 32  2  0  0  0  0
 27 28  1  0  0  0  0
 28 29  2  0  0  0  0
 29 30  1  0  0  0  0
 29 35  1  0  0  0  0
 31 34  1  0  0  0  0
 31 30  2  0  0  0  0
 32 31  1  0  0  0  0
 33 27  1  0  0  0  0
 35 40  1  0  0  0  0
 36 35  2  0  0  0  0
 36 37  1  0  0  0  0
 37 38  2  0  0  0  0
 38 39  1  0  0  0  0
 38 43  1  0  0  0  0
 39 44  1  0  0  0  0
 40 39  2  0  0  0  0
 41 36  1  0  0  0  0
 42 37  1  0  0  0  0
M  END
>  <minimizedAffinity>
-6.06888485

$$$$

 OpenBabel03252507213D

 44 47  0  0  1  0  0  0  0  0999 V2000
   39.0030   29.0510   40.5050 C   0  0  0  0  0  0  0  0  0  0  0  0
   39.5490   28.5200   39.5000 O   0  0  0  0  0  0  0  0  0  0  0  0
   38.4730   28.3220   41.6230 N   0  0  0  0  0  0  0  0  0  0  0  0
   38.5950   28.5490   43.0490 C   0  0  0  0  0  0  0  0  0  0  0  0
   37.1890   28.5360   43.6790 C   0  0  0  0  0  0  0  0  0  0  0  0
   36.5740   27.1690   43.5110 C   0  0  0  0  0  0  0  0  0  0  0  0
   37.3700   26.3650   42.5220 C   0  0  0  0  0  0  0  0  0  0  0  0
   37.6750   27.1640   41.2790 C   0  0  2  0  0  0  0  0  0  0  0  0
   39.1950   27.7840   43.5350 H   0  0  0  0  0  0  0  0  0  0  0  0
   38.9460   29.5910   43.2070 H   0  0  0  0  0  0  0  0  0  0  0  0
   37.2830   28.8330   44.7400 H   0  0  0  0  0  0  0  0  0  0  0  0
   36.5620   29.2400   43.0900 H   0  0  0  0  0  0  0  0  0  0  0  0
   35.5220   27.2090   43.1300 H   0  0  0  0  0  0  0  0  0  0  0  0
   36.5970   26.6540   44.4940 H   0  0  0  0  0  0  0  0  0  0  0  0
   38.2670   25.9650   43.0240 H   0  0  0  0  0  0  0  0  0  0  0  0
   36.7270   25.5130   42.1770 H   0  0  0  0  0  0  0  0  0  0  0  0
   36.7030   27.5470   40.9090 H   0  0  0  0  0  0  0  0  0  0  0  0
   38.2680   26.3130   40.2240 C   0  0  0  0  0  0  0  0  0  0  0  0
   39.4310   25.5760   40.4870 C   0  0  0  0  0  0  0  0  0  0  0  0
   39.8420   25.6760   41.5020 H   0  0  0  0  0  0  0  0  0  0  0  0
   40.0950   24.7590   39.6220 C   0  0  0  0  0  3  0  0  0  0  0  0
   39.5830   24.6340   38.3610 C   0  0  0  0  0  0  0  0  0  0  0  0
   40.0850   23.9960   37.6510 H   0  0  0  0  0  0  0  0  0  0  0  0
   38.4470   25.3260   38.0290 C   0  0  0  0  0  0  0  0  0  0  0  0
   38.0240   25.2340   37.0170 H   0  0  0  0  0  0  0  0  0  0  0  0
   37.8040   26.1430   38.9350 C   0  0  0  0  0  3  0  0  0  0  0  0
   40.0030   31.2260   41.0260 C   0  0  0  0  0  0  0  0  0  0  0  0
   38.9040   30.4920   40.5280 C   0  0  0  0  0  0  0  0  0  0  0  0
   37.7840   31.1670   40.0860 C   0  0  0  0  0  0  0  0  0  0  0  0
   37.7820   32.5160   40.1470 N   0  0  0  0  0  0  0  0  0  0  0  0
   38.8330   33.2310   40.6240 C   0  0  0  0  0  0  0  0  0  0  0  0
   39.9250   32.5700   41.0550 N   0  0  0  0  0  0  0  0  0  0  0  0
   40.8960   30.7250   41.3810 H   0  0  0  0  0  0  0  0  0  0  0  0
   38.7350   34.3090   40.6320 H   0  0  0  0  0  0  0  0  0  0  0  0
   36.6650   30.3980   39.5820 C   0  0  0  0  0  0  0  0  0  0  0  0
   35.6630   30.0190   40.4240 C   0  0  0  0  0  0  0  0  0  0  0  0
   34.6050   29.2860   39.9290 C   0  0  0  0  0  0  0  0  0  0  0  0
   34.5140   28.9100   38.5890 C   0  0  0  0  0  0  0  0  0  0  0  0
   35.5620   29.3240   37.7860 C   0  0  0  0  0  0  0  0  0  0  0  0
   36.5720   30.0350   38.3050 N   0  0  0  0  0  0  0  0  0  0  0  0
   35.5870   30.2230   41.4710 H   0  0  0  0  0  0  0  0  0  0  0  0
   33.7690   28.9500   40.5420 H   0  0  0  0  0  0  0  0  0  0  0  0
   33.6970   28.3370   38.1760 H   0  0  0  0  0  0  0  0  0  0  0  0
   35.6140   29.0990   36.7280 H   0  0  0  0  0  0  0  0  0  0  0  0
  1 28  1  0  0  0  0
  1  3  1  0  0  0  0
  2  1  2  0  0  0  0
  3  4  1  0  0  0  0
  4 10  1  0  0  0  0
  4  9  1  0  0  0  0
  4  5  1  0  0  0  0
  5 11  1  0  0  0  0
  6  5  1  0  0  0  0
  6 14  1  0  0  0  0
  7 15  1  0  0  0  0
  7  6  1  0  0  0  0
  8 17  1  6  0  0  0
  8  3  1  0  0  0  0
  8  7  1  0  0  0  0
 12  5  1  0  0  0  0
 13  6  1  0  0  0  0
 16  7  1  0  0  0  0
 18 19  1  0  0  0  0
 18  8  1  0  0  0  0
 19 20  1  0  0  0  0
 21 19  2  0  0  0  0
 22 21  1  0  0  0  0
 23 22  1  0  0  0  0
 24 22  2  0  0  0  0
 24 26  1  0  0  0  0
 25 24  1  0  0  0  0
 26 18  2  0  0  0  0
 27 32  1  0  0  0  0
 27 33  1  0  0  0  0
 28 27  2  0  0  0  0
 29 30  2  0  0  0  0
 29 28  1  0  0  0  0
 30 31  1  0  0  0  0
 31 34  1  0  0  0  0
 31 32  2  0  0  0  0
 35 29  1  0  0  0  0
 35 36  1  0  0  0  0
 36 41  1  0  0  0  0
 37 36  2  0  0  0  0
 37 42  1  0  0  0  0
 38 37  1  0  0  0  0
 39 40  1  0  0  0  0
 39 38  2  0  0  0  0
 40 35  2  0  0  0  0
 43 38  1  0  0  0  0
 44 39  1  0  0  0  0
M  END
>  <minimizedAffinity>
-6.06052494

$$$$

 OpenBabel03252507213D

 44 47  0  0  1  0  0  0  0  0999 V2000
   38.7950   28.1750   39.9490 C   0  0  0  0  0  0  0  0  0  0  0  0
   38.9740   27.3360   39.0240 O   0  0  0  0  0  0  0  0  0  0  0  0
   38.3750   27.8400   41.2810 N   0  0  0  0  0  0  0  0  0  0  0  0
   38.8550   28.2930   42.5710 C   0  0  0  0  0  0  0  0  0  0  0  0
   37.6570   28.7770   43.4090 C   0  0  0  0  0  0  0  0  0  0  0  0
   36.7280   27.6190   43.6760 C   0  0  0  0  0  0  0  0  0  0  0  0
   37.0850   26.4590   42.7920 C   0  0  0  0  0  0  0  0  0  0  0  0
   37.2810   26.8950   41.3600 C   0  0  2  0  0  0  0  0  0  0  0  0
   39.3600   27.5030   43.1190 H   0  0  0  0  0  0  0  0  0  0  0  0
   39.4570   29.2140   42.4140 H   0  0  0  0  0  0  0  0  0  0  0  0
   38.0460   29.2340   44.3370 H   0  0  0  0  0  0  0  0  0  0  0  0
   37.0900   29.4990   42.7810 H   0  0  0  0  0  0  0  0  0  0  0  0
   35.6550   27.8670   43.4760 H   0  0  0  0  0  0  0  0  0  0  0  0
   36.8500   27.3130   44.7370 H   0  0  0  0  0  0  0  0  0  0  0  0
   37.9570   25.9360   43.2190 H   0  0  0  0  0  0  0  0  0  0  0  0
   36.2070   25.7610   42.7710 H   0  0  0  0  0  0  0  0  0  0  0  0
   36.3630   27.4470   41.0750 H   0  0  0  0  0  0  0  0  0  0  0  0
   37.4200   25.7320   40.4560 C   0  0  0  0  0  0  0  0  0  0  0  0
   36.5650   25.5920   39.3550 C   0  0  0  0  0  0  0  0  0  0  0  0
   35.8180   26.3900   39.2240 H   0  0  0  0  0  0  0  0  0  0  0  0
   36.5640   24.5810   38.4420 C   0  0  0  0  0  3  0  0  0  0  0  0
   37.4930   23.5910   38.6050 C   0  0  0  0  0  0  0  0  0  0  0  0
   37.5200   22.7740   37.9010 H   0  0  0  0  0  0  0  0  0  0  0  0
   38.3650   23.6590   39.6610 C   0  0  0  0  0  0  0  0  0  0  0  0
   39.1170   22.8690   39.8040 H   0  0  0  0  0  0  0  0  0  0  0  0
   38.3320   24.7010   40.5630 C   0  0  0  0  0  3  0  0  0  0  0  0
   40.3280   30.0850   39.8560 C   0  0  0  0  0  0  0  0  0  0  0  0
   39.0310   29.5670   39.6430 C   0  0  0  0  0  0  0  0  0  0  0  0
   38.0420   30.3980   39.1560 C   0  0  0  0  0  0  0  0  0  0  0  0
   38.3560   31.6860   38.8990 N   0  0  0  0  0  0  0  0  0  0  0  0
   39.5990   32.1940   39.1000 C   0  0  0  0  0  0  0  0  0  0  0  0
   40.5620   31.3810   39.5760 N   0  0  0  0  0  0  0  0  0  0  0  0
   41.1240   29.4580   40.2380 H   0  0  0  0  0  0  0  0  0  0  0  0
   39.7500   33.2390   38.8640 H   0  0  0  0  0  0  0  0  0  0  0  0
   36.7170   29.8510   38.9470 C   0  0  0  0  0  0  0  0  0  0  0  0
   35.8260   29.8090   39.9770 C   0  0  0  0  0  0  0  0  0  0  0  0
   34.5700   29.2850   39.7620 C   0  0  0  0  0  0  0  0  0  0  0  0
   34.1650   28.7880   38.5230 C   0  0  0  0  0  0  0  0  0  0  0  0
   35.1140   28.8570   37.5190 C   0  0  0  0  0  0  0  0  0  0  0  0
   36.3250   29.3750   37.7670 N   0  0  0  0  0  0  0  0  0  0  0  0
   35.9830   30.1440   40.9800 H   0  0  0  0  0  0  0  0  0  0  0  0
   33.8060   29.2200   40.5360 H   0  0  0  0  0  0  0  0  0  0  0  0
   33.1870   28.3710   38.3280 H   0  0  0  0  0  0  0  0  0  0  0  0
   34.9290   28.5070   36.5110 H   0  0  0  0  0  0  0  0  0  0  0  0
  1  3  1  0  0  0  0
  2  1  2  0  0  0  0
  3  8  1  0  0  0  0
  3  4  1  0  0  0  0
  4  9  1  0  0  0  0
  4  5  1  0  0  0  0
  5  6  1  0  0  0  0
  5 11  1  0  0  0  0
  6 14  1  0  0  0  0
  7 15  1  0  0  0  0
  7  6  1  0  0  0  0
  8 17  1  6  0  0  0
  8  7  1  0  0  0  0
 10  4  1  0  0  0  0
 12  5  1  0  0  0  0
 13  6  1  0  0  0  0
 16  7  1  0  0  0  0
 18 26  1  0  0  0  0
 18  8  1  0  0  0  0
 19 18  2  0  0  0  0
 20 19  1  0  0  0  0
 21 22  2  0  0  0  0
 21 19  1  0  0  0  0
 22 24  1  0  0  0  0
 23 22  1  0  0  0  0
 24 25  1  0  0  0  0
 24 26  2  0  0  0  0
 27 33  1  0  0  0  0
 28 27  1  0  0  0  0
 28  1  1  0  0  0  0
 29 28  2  0  0  0  0
 30 31  2  0  0  0  0
 30 29  1  0  0  0  0
 31 32  1  0  0  0  0
 32 27  2  0  0  0  0
 34 31  1  0  0  0  0
 35 29  1  0  0  0  0
 35 36  1  0  0  0  0
 36 41  1  0  0  0  0
 37 36  2  0  0  0  0
 37 42  1  0  0  0  0
 38 37  1  0  0  0  0
 39 40  1  0  0  0  0
 39 38  2  0  0  0  0
 40 35  2  0  0  0  0
 43 38  1  0  0  0  0
 44 39  1  0  0  0  0
M  END
>  <minimizedAffinity>
-5.95985699

$$$$

 OpenBabel03252507213D

 44 47  0  0  1  0  0  0  0  0999 V2000
   38.0420   30.2150   39.8040 C   0  0  0  0  0  0  0  0  0  0  0  0
   37.5250   30.0370   38.6680 O   0  0  0  0  0  0  0  0  0  0  0  0
   37.9050   29.3100   40.9110 N   0  0  0  0  0  0  0  0  0  0  0  0
   38.8840   28.8050   41.8520 C   0  0  0  0  0  0  0  0  0  0  0  0
   38.3600   29.0240   43.2850 C   0  0  0  0  0  0  0  0  0  0  0  0
   37.1040   28.2130   43.4910 C   0  0  0  0  0  0  0  0  0  0  0  0
   36.5910   27.7150   42.1700 C   0  0  0  0  0  0  0  0  0  0  0  0
   36.5630   28.8160   41.1370 C   0  0  2  0  0  0  0  0  0  0  0  0
   39.0730   27.7440   41.7150 H   0  0  0  0  0  0  0  0  0  0  0  0
   39.7850   29.4530   41.7980 H   0  0  0  0  0  0  0  0  0  0  0  0
   39.1640   28.7510   43.9920 H   0  0  0  0  0  0  0  0  0  0  0  0
   38.0640   30.0930   43.3630 H   0  0  0  0  0  0  0  0  0  0  0  0
   36.2780   28.8040   43.9630 H   0  0  0  0  0  0  0  0  0  0  0  0
   37.3550   27.3410   44.1310 H   0  0  0  0  0  0  0  0  0  0  0  0
   37.1800   26.8350   41.8640 H   0  0  0  0  0  0  0  0  0  0  0  0
   35.5190   27.4150   42.3110 H   0  0  0  0  0  0  0  0  0  0  0  0
   35.9900   29.6510   41.5870 H   0  0  0  0  0  0  0  0  0  0  0  0
   35.8620   28.3840   39.9080 C   0  0  0  0  0  0  0  0  0  0  0  0
   34.7370   29.0880   39.4580 C   0  0  0  0  0  0  0  0  0  0  0  0
   34.4370   29.9540   40.0670 H   0  0  0  0  0  0  0  0  0  0  0  0
   33.9850   28.8110   38.3550 C   0  0  0  0  0  3  0  0  0  0  0  0
   34.3590   27.7360   37.5980 C   0  0  0  0  0  0  0  0  0  0  0  0
   33.7860   27.4880   36.7180 H   0  0  0  0  0  0  0  0  0  0  0  0
   35.4510   26.9980   37.9760 C   0  0  0  0  0  0  0  0  0  0  0  0
   35.7620   26.1310   37.3750 H   0  0  0  0  0  0  0  0  0  0  0  0
   36.1850   27.3130   39.1000 C   0  0  0  0  0  3  0  0  0  0  0  0
   38.2060   32.5190   40.6220 C   0  0  0  0  0  0  0  0  0  0  0  0
   38.8260   31.4130   40.0020 C   0  0  0  0  0  0  0  0  0  0  0  0
   40.1460   31.5090   39.6080 C   0  0  0  0  0  0  0  0  0  0  0  0
   40.7990   32.6690   39.8340 N   0  0  0  0  0  0  0  0  0  0  0  0
   40.2120   33.7390   40.4290 C   0  0  0  0  0  0  0  0  0  0  0  0
   38.9240   33.6420   40.8130 N   0  0  0  0  0  0  0  0  0  0  0  0
   37.1720   32.4740   40.9410 H   0  0  0  0  0  0  0  0  0  0  0  0
   40.8200   34.6240   40.5650 H   0  0  0  0  0  0  0  0  0  0  0  0
   40.7650   30.3650   38.9700 C   0  0  0  0  0  0  0  0  0  0  0  0
   41.5170   29.4980   39.7050 C   0  0  0  0  0  0  0  0  0  0  0  0
   42.1000   28.4150   39.0820 C   0  0  0  0  0  0  0  0  0  0  0  0
   41.9530   28.1650   37.7180 C   0  0  0  0  0  0  0  0  0  0  0  0
   41.1800   29.0800   37.0270 C   0  0  0  0  0  0  0  0  0  0  0  0
   40.6290   30.1200   37.6680 N   0  0  0  0  0  0  0  0  0  0  0  0
   41.7270   29.5530   40.7520 H   0  0  0  0  0  0  0  0  0  0  0  0
   42.7130   27.6810   39.6040 H   0  0  0  0  0  0  0  0  0  0  0  0
   42.4000   27.3240   37.2060 H   0  0  0  0  0  0  0  0  0  0  0  0
   40.9860   29.0020   35.9650 H   0  0  0  0  0  0  0  0  0  0  0  0
  1 28  1  0  0  0  0
  1  3  1  0  0  0  0
  2  1  2  0  0  0  0
  3  8  1  0  0  0  0
  3  4  1  0  0  0  0
  4  5  1  0  0  0  0
  5 12  1  0  0  0  0
  5  6  1  0  0  0  0
  5 11  1  0  0  0  0
  6 13  1  0  0  0  0
  6 14  1  0  0  0  0
  7 16  1  0  0  0  0
  7  6  1  0  0  0  0
  8 17  1  1  0  0  0
  8  7  1  0  0  0  0
  9  4  1  0  0  0  0
 10  4  1  0  0  0  0
 15  7  1  0  0  0  0
 18  8  1  0  0  0  0
 19 18  1  0  0  0  0
 19 20  1  0  0  0  0
 21 19  2  0  0  0  0
 22 24  2  0  0  0  0
 22 21  1  0  0  0  0
 23 22  1  0  0  0  0
 24 26  1  0  0  0  0
 25 24  1  0  0  0  0
 26 18  2  0  0  0  0
 27 32  1  0  0  0  0
 27 33  1  0  0  0  0
 28 27  2  0  0  0  0
 29 30  2  0  0  0  0
 29 28  1  0  0  0  0
 30 31  1  0  0  0  0
 31 34  1  0  0  0  0
 31 32  2  0  0  0  0
 35 29  1  0  0  0  0
 35 36  1  0  0  0  0
 36 41  1  0  0  0  0
 37 42  1  0  0  0  0
 37 36  2  0  0  0  0
 38 37  1  0  0  0  0
 39 40  1  0  0  0  0
 39 38  2  0  0  0  0
 40 35  2  0  0  0  0
 43 38  1  0  0  0  0
 44 39  1  0  0  0  0
M  END
>  <minimizedAffinity>
-5.95364714

$$$$

 OpenBabel03252507213D

 44 47  0  0  1  0  0  0  0  0999 V2000
   39.6860   28.5230   39.9370 C   0  0  0  0  0  0  0  0  0  0  0  0
   39.8500   29.7700   40.0310 O   0  0  0  0  0  0  0  0  0  0  0  0
   38.6060   27.8960   39.2270 N   0  0  0  0  0  0  0  0  0  0  0  0
   38.5960   26.7740   38.3100 C   0  0  0  0  0  0  0  0  0  0  0  0
   37.5320   25.7600   38.7710 C   0  0  0  0  0  0  0  0  0  0  0  0
   36.1650   26.3940   38.6920 C   0  0  0  0  0  0  0  0  0  0  0  0
   36.2970   27.8790   38.5050 C   0  0  0  0  0  0  0  0  0  0  0  0
   37.2990   28.4700   39.4660 C   0  0  2  0  0  0  0  0  0  0  0  0
   38.3620   27.0790   37.2940 H   0  0  0  0  0  0  0  0  0  0  0  0
   39.5540   26.2220   38.4250 H   0  0  0  0  0  0  0  0  0  0  0  0
   37.6190   24.8560   38.1410 H   0  0  0  0  0  0  0  0  0  0  0  0
   37.7230   25.5530   39.8470 H   0  0  0  0  0  0  0  0  0  0  0  0
   35.5570   26.2320   39.6180 H   0  0  0  0  0  0  0  0  0  0  0  0
   35.6340   25.9670   37.8150 H   0  0  0  0  0  0  0  0  0  0  0  0
   36.5210   28.0890   37.4460 H   0  0  0  0  0  0  0  0  0  0  0  0
   35.3140   28.3460   38.7760 H   0  0  0  0  0  0  0  0  0  0  0  0
   36.9890   28.1430   40.4790 H   0  0  0  0  0  0  0  0  0  0  0  0
   37.2730   29.9490   39.4300 C   0  0  0  0  0  0  0  0  0  0  0  0
   37.4640   30.6250   38.2180 C   0  0  0  0  0  0  0  0  0  0  0  0
   37.6220   29.9890   37.3340 H   0  0  0  0  0  0  0  0  0  0  0  0
   37.4740   31.9740   38.0250 C   0  0  0  0  0  3  0  0  0  0  0  0
   37.2760   32.7640   39.1240 C   0  0  0  0  0  0  0  0  0  0  0  0
   37.2790   33.8360   39.0080 H   0  0  0  0  0  0  0  0  0  0  0  0
   37.0820   32.1730   40.3460 C   0  0  0  0  0  0  0  0  0  0  0  0
   36.9220   32.7970   41.2380 H   0  0  0  0  0  0  0  0  0  0  0  0
   37.0790   30.8030   40.4970 C   0  0  0  0  0  3  0  0  0  0  0  0
   41.9210   27.5200   39.9850 C   0  0  0  0  0  0  0  0  0  0  0  0
   40.6530   27.6700   40.5890 C   0  0  0  0  0  0  0  0  0  0  0  0
   40.3810   27.0060   41.7680 C   0  0  0  0  0  0  0  0  0  0  0  0
   41.3480   26.2300   42.3040 N   0  0  0  0  0  0  0  0  0  0  0  0
   42.5700   26.0780   41.7320 C   0  0  0  0  0  0  0  0  0  0  0  0
   42.8330   26.7280   40.5820 N   0  0  0  0  0  0  0  0  0  0  0  0
   42.1640   28.0280   39.0600 H   0  0  0  0  0  0  0  0  0  0  0  0
   43.2760   25.4340   42.2390 H   0  0  0  0  0  0  0  0  0  0  0  0
   39.0740   27.1690   42.3710 C   0  0  0  0  0  0  0  0  0  0  0  0
   38.7980   28.2790   43.1110 C   0  0  0  0  0  0  0  0  0  0  0  0
   37.5500   28.4190   43.6790 C   0  0  0  0  0  0  0  0  0  0  0  0
   36.5450   27.4640   43.5280 C   0  0  0  0  0  0  0  0  0  0  0  0
   36.8860   26.3600   42.7670 C   0  0  0  0  0  0  0  0  0  0  0  0
   38.1110   26.2610   42.2310 N   0  0  0  0  0  0  0  0  0  0  0  0
   39.4570   29.0950   43.3230 H   0  0  0  0  0  0  0  0  0  0  0  0
   37.2580   29.2780   44.2820 H   0  0  0  0  0  0  0  0  0  0  0  0
   35.5590   27.5490   43.9630 H   0  0  0  0  0  0  0  0  0  0  0  0
   36.1990   25.5470   42.5720 H   0  0  0  0  0  0  0  0  0  0  0  0
  1  2  2  0  0  0  0
  1 28  1  0  0  0  0
  3  8  1  0  0  0  0
  3  1  1  0  0  0  0
  4 10  1  0  0  0  0
  4  5  1  0  0  0  0
  4  3  1  0  0  0  0
  5 12  1  0  0  0  0
  6  5  1  0  0  0  0
  6 13  1  0  0  0  0
  7  6  1  0  0  0  0
  7 16  1  0  0  0  0
  7  8  1  0  0  0  0
  8 17  1  1  0  0  0
  9  4  1  0  0  0  0
 11  5  1  0  0  0  0
 14  6  1  0  0  0  0
 15  7  1  0  0  0  0
 18  8  1  0  0  0  0
 18 26  1  0  0  0  0
 19 18  2  0  0  0  0
 20 19  1  0  0  0  0
 21 19  1  0  0  0  0
 21 22  2  0  0  0  0
 22 24  1  0  0  0  0
 23 22  1  0  0  0  0
 24 26  2  0  0  0  0
 24 25  1  0  0  0  0
 27 32  2  0  0  0  0
 27 28  1  0  0  0  0
 28 29  2  0  0  0  0
 29 30  1  0  0  0  0
 29 35  1  0  0  0  0
 31 34  1  0  0  0  0
 31 30  2  0  0  0  0
 32 31  1  0  0  0  0
 33 27  1  0  0  0  0
 35 36  1  0  0  0  0
 36 41  1  0  0  0  0
 36 37  2  0  0  0  0
 37 42  1  0  0  0  0
 38 37  1  0  0  0  0
 38 43  1  0  0  0  0
 39 38  2  0  0  0  0
 40 35  2  0  0  0  0
 40 39  1  0  0  0  0
 44 39  1  0  0  0  0
M  END
>  <minimizedAffinity>
-5.66529226

$$$$

 OpenBabel03252507213D

 44 47  0  0  1  0  0  0  0  0999 V2000
   39.1390   30.0370   40.6970 C   0  0  0  0  0  0  0  0  0  0  0  0
   38.7030   29.4830   41.7430 O   0  0  0  0  0  0  0  0  0  0  0  0
   39.9520   29.3830   39.7100 N   0  0  0  0  0  0  0  0  0  0  0  0
   39.8790   29.3920   38.2620 C   0  0  0  0  0  0  0  0  0  0  0  0
   41.2670   29.7450   37.6940 C   0  0  0  0  0  0  0  0  0  0  0  0
   42.2540   28.6690   38.0700 C   0  0  0  0  0  0  0  0  0  0  0  0
   41.6660   27.7780   39.1280 C   0  0  0  0  0  0  0  0  0  0  0  0
   41.0350   28.5820   40.2380 C   0  0  2  0  0  0  0  0  0  0  0  0
   39.5810   28.4270   37.8630 H   0  0  0  0  0  0  0  0  0  0  0  0
   39.2410   30.2460   37.9510 H   0  0  0  0  0  0  0  0  0  0  0  0
   41.1710   29.8710   36.6000 H   0  0  0  0  0  0  0  0  0  0  0  0
   41.6010   30.6750   38.2050 H   0  0  0  0  0  0  0  0  0  0  0  0
   43.2110   29.0800   38.4830 H   0  0  0  0  0  0  0  0  0  0  0  0
   42.4670   28.0600   37.1660 H   0  0  0  0  0  0  0  0  0  0  0  0
   40.9760   27.0620   38.6520 H   0  0  0  0  0  0  0  0  0  0  0  0
   42.5090   27.2170   39.6100 H   0  0  0  0  0  0  0  0  0  0  0  0
   41.8110   29.2900   40.5900 H   0  0  0  0  0  0  0  0  0  0  0  0
   40.6480   27.7180   41.3760 C   0  0  0  0  0  0  0  0  0  0  0  0
   39.8070   26.6170   41.1680 C   0  0  0  0  0  0  0  0  0  0  0  0
   39.4790   26.4540   40.1300 H   0  0  0  0  0  0  0  0  0  0  0  0
   39.3600   25.7390   42.1090 C   0  0  0  0  0  3  0  0  0  0  0  0
   39.7690   25.9410   43.3980 C   0  0  0  0  0  0  0  0  0  0  0  0
   39.4330   25.2650   44.1680 H   0  0  0  0  0  0  0  0  0  0  0  0
   40.5940   27.0000   43.6790 C   0  0  0  0  0  0  0  0  0  0  0  0
   40.9300   27.1740   44.7120 H   0  0  0  0  0  0  0  0  0  0  0  0
   41.0240   27.8660   42.6960 C   0  0  0  0  0  3  0  0  0  0  0  0
   39.7390   32.4080   40.8460 C   0  0  0  0  0  0  0  0  0  0  0  0
   38.7940   31.4230   40.4810 C   0  0  0  0  0  0  0  0  0  0  0  0
   37.5860   31.8120   39.9370 C   0  0  0  0  0  0  0  0  0  0  0  0
   37.3520   33.1320   39.7730 N   0  0  0  0  0  0  0  0  0  0  0  0
   38.2530   34.0870   40.1210 C   0  0  0  0  0  0  0  0  0  0  0  0
   39.4310   33.7050   40.6510 N   0  0  0  0  0  0  0  0  0  0  0  0
   40.6940   32.1340   41.2760 H   0  0  0  0  0  0  0  0  0  0  0  0
   37.9720   35.1170   39.9500 H   0  0  0  0  0  0  0  0  0  0  0  0
   36.6280   30.7890   39.5720 C   0  0  0  0  0  0  0  0  0  0  0  0
   35.8030   30.2590   40.5180 C   0  0  0  0  0  0  0  0  0  0  0  0
   34.8980   29.2850   40.1550 C   0  0  0  0  0  0  0  0  0  0  0  0
   34.7880   28.8120   38.8470 C   0  0  0  0  0  0  0  0  0  0  0  0
   35.6530   29.3880   37.9350 C   0  0  0  0  0  0  0  0  0  0  0  0
   36.5190   30.3320   38.3270 N   0  0  0  0  0  0  0  0  0  0  0  0
   35.7660   30.5090   41.5570 H   0  0  0  0  0  0  0  0  0  0  0  0
   34.2070   28.8160   40.8550 H   0  0  0  0  0  0  0  0  0  0  0  0
   34.0870   28.0500   38.5370 H   0  0  0  0  0  0  0  0  0  0  0  0
   35.6700   29.1110   36.8880 H   0  0  0  0  0  0  0  0  0  0  0  0
  1  2  2  0  0  0  0
  3  8  1  0  0  0  0
  3  1  1  0  0  0  0
  4  3  1  0  0  0  0
  5  6  1  0  0  0  0
  5 12  1  0  0  0  0
  5  4  1  0  0  0  0
  6 13  1  0  0  0  0
  6  7  1  0  0  0  0
  7 16  1  0  0  0  0
  7  8  1  0  0  0  0
  8 17  1  1  0  0  0
  8 18  1  0  0  0  0
  9  4  1  0  0  0  0
 10  4  1  0  0  0  0
 11  5  1  0  0  0  0
 14  6  1  0  0  0  0
 15  7  1  0  0  0  0
 18 26  1  0  0  0  0
 19 18  2  0  0  0  0
 19 21  1  0  0  0  0
 20 19  1  0  0  0  0
 21 22  2  0  0  0  0
 22 24  1  0  0  0  0
 22 23  1  0  0  0  0
 24 25  1  0  0  0  0
 26 24  2  0  0  0  0
 27 33  1  0  0  0  0
 28  1  1  0  0  0  0
 28 27  2  0  0  0  0
 29 28  1  0  0  0  0
 30 29  2  0  0  0  0
 30 31  1  0  0  0  0
 31 32  2  0  0  0  0
 32 27  1  0  0  0  0
 34 31  1  0  0  0  0
 35 29  1  0  0  0  0
 35 36  1  0  0  0  0
 36 41  1  0  0  0  0
 37 36  2  0  0  0  0
 37 42  1  0  0  0  0
 38 37  1  0  0  0  0
 39 40  1  0  0  0  0
 39 38  2  0  0  0  0
 40 35  2  0  0  0  0
 43 38  1  0  0  0  0
 44 39  1  0  0  0  0
M  END
>  <minimizedAffinity>
-5.61436892

$$$$

 OpenBabel03252507213D

 44 47  0  0  1  0  0  0  0  0999 V2000
   39.3640   29.1780   39.2470 C   0  0  0  0  0  0  0  0  0  0  0  0
   39.4580   29.4460   40.4760 O   0  0  0  0  0  0  0  0  0  0  0  0
   38.3440   28.3470   38.6710 N   0  0  0  0  0  0  0  0  0  0  0  0
   37.5310   28.5250   37.4850 C   0  0  0  0  0  0  0  0  0  0  0  0
   37.6250   27.2540   36.6190 C   0  0  0  0  0  0  0  0  0  0  0  0
   37.0390   26.0860   37.3740 C   0  0  0  0  0  0  0  0  0  0  0  0
   36.8490   26.4510   38.8180 C   0  0  0  0  0  0  0  0  0  0  0  0
   38.0780   27.1170   39.3870 C   0  0  2  0  0  0  0  0  0  0  0  0
   36.4860   28.6970   37.7280 H   0  0  0  0  0  0  0  0  0  0  0  0
   38.0020   29.3090   36.8550 H   0  0  0  0  0  0  0  0  0  0  0  0
   37.1060   27.4470   35.6630 H   0  0  0  0  0  0  0  0  0  0  0  0
   38.7060   27.0320   36.4830 H   0  0  0  0  0  0  0  0  0  0  0  0
   37.6940   25.1780   37.3470 H   0  0  0  0  0  0  0  0  0  0  0  0
   36.0490   25.8480   36.9300 H   0  0  0  0  0  0  0  0  0  0  0  0
   35.9310   27.0530   38.9190 H   0  0  0  0  0  0  0  0  0  0  0  0
   36.7330   25.4980   39.3990 H   0  0  0  0  0  0  0  0  0  0  0  0
   38.9270   26.4370   39.1750 H   0  0  0  0  0  0  0  0  0  0  0  0
   37.9730   27.2810   40.8530 C   0  0  0  0  0  0  0  0  0  0  0  0
   38.9400   26.7150   41.6940 C   0  0  0  0  0  0  0  0  0  0  0  0
   39.7520   26.1670   41.1910 H   0  0  0  0  0  0  0  0  0  0  0  0
   38.9770   26.7730   43.0550 C   0  0  0  0  0  3  0  0  0  0  0  0
   37.9700   27.4540   43.6800 C   0  0  0  0  0  0  0  0  0  0  0  0
   37.9680   27.5190   44.7560 H   0  0  0  0  0  0  0  0  0  0  0  0
   36.9860   28.0360   42.9220 C   0  0  0  0  0  0  0  0  0  0  0  0
   36.1700   28.5870   43.4120 H   0  0  0  0  0  0  0  0  0  0  0  0
   36.9860   27.9530   41.5460 C   0  0  0  0  0  3  0  0  0  0  0  0
   41.3060   28.8820   37.7820 C   0  0  0  0  0  0  0  0  0  0  0  0
   40.3530   29.7490   38.3610 C   0  0  0  0  0  0  0  0  0  0  0  0
   40.3960   31.0970   38.0670 C   0  0  0  0  0  0  0  0  0  0  0  0
   41.3570   31.5400   37.2270 N   0  0  0  0  0  0  0  0  0  0  0  0
   42.2780   30.7150   36.6650 C   0  0  0  0  0  0  0  0  0  0  0  0
   42.2340   29.4000   36.9540 N   0  0  0  0  0  0  0  0  0  0  0  0
   41.2980   27.8200   37.9940 H   0  0  0  0  0  0  0  0  0  0  0  0
   43.0080   31.1670   36.0060 H   0  0  0  0  0  0  0  0  0  0  0  0
   39.4130   31.9710   38.6730 C   0  0  0  0  0  0  0  0  0  0  0  0
   38.1260   31.9650   38.2250 C   0  0  0  0  0  0  0  0  0  0  0  0
   37.2030   32.8040   38.8120 C   0  0  0  0  0  0  0  0  0  0  0  0
   37.5310   33.6690   39.8560 C   0  0  0  0  0  0  0  0  0  0  0  0
   38.8510   33.6280   40.2650 C   0  0  0  0  0  0  0  0  0  0  0  0
   39.7190   32.7990   39.6690 N   0  0  0  0  0  0  0  0  0  0  0  0
   37.7190   31.3680   37.4360 H   0  0  0  0  0  0  0  0  0  0  0  0
   36.1580   32.8530   38.5070 H   0  0  0  0  0  0  0  0  0  0  0  0
   36.8270   34.3360   40.3330 H   0  0  0  0  0  0  0  0  0  0  0  0
   39.2370   34.2480   41.0660 H   0  0  0  0  0  0  0  0  0  0  0  0
  1  2  2  0  0  0  0
  3  1  1  0  0  0  0
  3  8  1  0  0  0  0
  4  9  1  0  0  0  0
  4  3  1  0  0  0  0
  5  6  1  0  0  0  0
  5  4  1  0  0  0  0
  6  7  1  0  0  0  0
  7 15  1  0  0  0  0
  7  8  1  0  0  0  0
  7 16  1  0  0  0  0
  8 17  1  6  0  0  0
  8 18  1  0  0  0  0
 10  4  1  0  0  0  0
 11  5  1  0  0  0  0
 12  5  1  0  0  0  0
 13  6  1  0  0  0  0
 14  6  1  0  0  0  0
 18 26  2  0  0  0  0
 18 19  1  0  0  0  0
 19 21  2  0  0  0  0
 20 19  1  0  0  0  0
 21 22  1  0  0  0  0
 22 23  1  0  0  0  0
 24 25  1  0  0  0  0
 24 22  2  0  0  0  0
 26 24  1  0  0  0  0
 27 33  1  0  0  0  0
 27 28  1  0  0  0  0
 28  1  1  0  0  0  0
 29 28  2  0  0  0  0
 29 35  1  0  0  0  0
 30 29  1  0  0  0  0
 31 32  1  0  0  0  0
 31 30  2  0  0  0  0
 32 27  2  0  0  0  0
 34 31  1  0  0  0  0
 35 40  1  0  0  0  0
 36 35  2  0  0  0  0
 36 37  1  0  0  0  0
 37 38  2  0  0  0  0
 38 39  1  0  0  0  0
 38 43  1  0  0  0  0
 39 44  1  0  0  0  0
 40 39  2  0  0  0  0
 41 36  1  0  0  0  0
 42 37  1  0  0  0  0
M  END
>  <minimizedAffinity>
-5.6106205

$$$$

 OpenBabel03252507213D

 44 47  0  0  1  0  0  0  0  0999 V2000
   38.9890   29.3380   40.9510 C   0  0  0  0  0  0  0  0  0  0  0  0
   38.4600   30.3550   41.4760 O   0  0  0  0  0  0  0  0  0  0  0  0
   39.8550   29.3720   39.8050 N   0  0  0  0  0  0  0  0  0  0  0  0
   41.1110   28.6990   39.5430 C   0  0  0  0  0  0  0  0  0  0  0  0
   41.0220   27.9850   38.1810 C   0  0  0  0  0  0  0  0  0  0  0  0
   40.8430   29.0080   37.0860 C   0  0  0  0  0  0  0  0  0  0  0  0
   40.4920   30.3420   37.6820 C   0  0  0  0  0  0  0  0  0  0  0  0
   39.4020   30.2140   38.7180 C   0  0  2  0  0  0  0  0  0  0  0  0
   41.9470   29.3930   39.5120 H   0  0  0  0  0  0  0  0  0  0  0  0
   41.2190   27.8670   40.2710 H   0  0  0  0  0  0  0  0  0  0  0  0
   41.9340   27.3750   38.0500 H   0  0  0  0  0  0  0  0  0  0  0  0
   40.0940   27.3710   38.1950 H   0  0  0  0  0  0  0  0  0  0  0  0
   40.0240   28.7410   36.3710 H   0  0  0  0  0  0  0  0  0  0  0  0
   41.8040   29.1020   36.5380 H   0  0  0  0  0  0  0  0  0  0  0  0
   41.4100   30.8190   38.0610 H   0  0  0  0  0  0  0  0  0  0  0  0
   40.0530   30.9750   36.8660 H   0  0  0  0  0  0  0  0  0  0  0  0
   38.5670   29.6770   38.2270 H   0  0  0  0  0  0  0  0  0  0  0  0
   38.9080   31.5420   39.1470 C   0  0  0  0  0  0  0  0  0  0  0  0
   39.7980   32.4820   39.6840 C   0  0  0  0  0  0  0  0  0  0  0  0
   40.8490   32.1640   39.7490 H   0  0  0  0  0  0  0  0  0  0  0  0
   39.4960   33.7350   40.1270 C   0  0  0  0  0  3  0  0  0  0  0  0
   38.1890   34.1290   40.0440 C   0  0  0  0  0  0  0  0  0  0  0  0
   37.9150   35.1140   40.3870 H   0  0  0  0  0  0  0  0  0  0  0  0
   37.2600   33.2620   39.5300 C   0  0  0  0  0  0  0  0  0  0  0  0
   36.2060   33.5670   39.4570 H   0  0  0  0  0  0  0  0  0  0  0  0
   37.6080   32.0020   39.0910 C   0  0  0  0  0  3  0  0  0  0  0  0
   39.6280   27.5280   42.4730 C   0  0  0  0  0  0  0  0  0  0  0  0
   38.7020   28.0520   41.5450 C   0  0  0  0  0  0  0  0  0  0  0  0
   37.5680   27.3290   41.2370 C   0  0  0  0  0  0  0  0  0  0  0  0
   37.3840   26.1360   41.8420 N   0  0  0  0  0  0  0  0  0  0  0  0
   38.2670   25.6220   42.7360 C   0  0  0  0  0  0  0  0  0  0  0  0
   39.3740   26.3300   43.0350 N   0  0  0  0  0  0  0  0  0  0  0  0
   40.5270   28.0710   42.7350 H   0  0  0  0  0  0  0  0  0  0  0  0
   38.0300   24.6580   43.1660 H   0  0  0  0  0  0  0  0  0  0  0  0
   36.6310   27.8820   40.2790 C   0  0  0  0  0  0  0  0  0  0  0  0
   36.7770   27.6140   38.9510 C   0  0  0  0  0  0  0  0  0  0  0  0
   35.8780   28.1480   38.0520 C   0  0  0  0  0  0  0  0  0  0  0  0
   34.8150   28.9600   38.4470 C   0  0  0  0  0  0  0  0  0  0  0  0
   34.7210   29.1950   39.8070 C   0  0  0  0  0  0  0  0  0  0  0  0
   35.6150   28.6580   40.6490 N   0  0  0  0  0  0  0  0  0  0  0  0
   37.5360   27.0180   38.4910 H   0  0  0  0  0  0  0  0  0  0  0  0
   35.9310   27.9780   36.9770 H   0  0  0  0  0  0  0  0  0  0  0  0
   34.0970   29.3920   37.7630 H   0  0  0  0  0  0  0  0  0  0  0  0
   33.9430   29.8070   40.2440 H   0  0  0  0  0  0  0  0  0  0  0  0
  1  2  2  0  0  0  0
  1 28  1  0  0  0  0
  3  1  1  0  0  0  0
  4  3  1  0  0  0  0
  4 10  1  0  0  0  0
  5 12  1  0  0  0  0
  5  4  1  0  0  0  0
  6  7  1  0  0  0  0
  6  5  1  0  0  0  0
  7 15  1  0  0  0  0
  7  8  1  0  0  0  0
  8 17  1  6  0  0  0
  8 18  1  0  0  0  0
  8  3  1  0  0  0  0
  9  4  1  0  0  0  0
 11  5  1  0  0  0  0
 13  6  1  0  0  0  0
 14  6  1  0  0  0  0
 16  7  1  0  0  0  0
 18 19  1  0  0  0  0
 19 20  1  0  0  0  0
 19 21  2  0  0  0  0
 22 21  1  0  0  0  0
 22 23  1  0  0  0  0
 24 22  2  0  0  0  0
 25 24  1  0  0  0  0
 26 18  2  0  0  0  0
 26 24  1  0  0  0  0
 27 33  1  0  0  0  0
 27 32  1  0  0  0  0
 28 27  2  0  0  0  0
 29 28  1  0  0  0  0
 29 30  2  0  0  0  0
 30 31  1  0  0  0  0
 31 32  2  0  0  0  0
 31 34  1  0  0  0  0
 35 40  1  0  0  0  0
 35 29  1  0  0  0  0
 36 35  2  0  0  0  0
 37 38  2  0  0  0  0
 37 36  1  0  0  0  0
 38 39  1  0  0  0  0
 39 44  1  0  0  0  0
 39 40  2  0  0  0  0
 41 36  1  0  0  0  0
 42 37  1  0  0  0  0
 43 38  1  0  0  0  0
M  END
>  <minimizedAffinity>
-5.59114599

$$$$

 OpenBabel03252507213D

 44 47  0  0  1  0  0  0  0  0999 V2000
   39.4880   29.9950   41.0460 C   0  0  0  0  0  0  0  0  0  0  0  0
   40.3960   29.3060   41.5850 O   0  0  0  0  0  0  0  0  0  0  0  0
   38.0820   29.7290   41.1730 N   0  0  0  0  0  0  0  0  0  0  0  0
   36.9670   30.6180   41.4300 C   0  0  0  0  0  0  0  0  0  0  0  0
   35.8790   30.3760   40.3660 C   0  0  0  0  0  0  0  0  0  0  0  0
   35.3500   28.9700   40.4970 C   0  0  0  0  0  0  0  0  0  0  0  0
   36.2520   28.1620   41.3870 C   0  0  0  0  0  0  0  0  0  0  0  0
   37.7020   28.3420   41.0120 C   0  0  2  0  0  0  0  0  0  0  0  0
   36.5300   30.4520   42.4110 H   0  0  0  0  0  0  0  0  0  0  0  0
   37.3000   31.6600   41.2350 H   0  0  0  0  0  0  0  0  0  0  0  0
   35.0920   31.1420   40.4960 H   0  0  0  0  0  0  0  0  0  0  0  0
   36.3760   30.4360   39.3730 H   0  0  0  0  0  0  0  0  0  0  0  0
   35.2900   28.4340   39.5160 H   0  0  0  0  0  0  0  0  0  0  0  0
   34.3410   29.0200   40.9590 H   0  0  0  0  0  0  0  0  0  0  0  0
   36.0320   28.4070   42.4390 H   0  0  0  0  0  0  0  0  0  0  0  0
   36.0300   27.0780   41.2040 H   0  0  0  0  0  0  0  0  0  0  0  0
   37.7750   28.1160   39.9290 H   0  0  0  0  0  0  0  0  0  0  0  0
   38.5690   27.3890   41.7410 C   0  0  0  0  0  0  0  0  0  0  0  0
   39.3190   26.4400   41.0330 C   0  0  0  0  0  0  0  0  0  0  0  0
   39.2160   26.4670   39.9380 H   0  0  0  0  0  0  0  0  0  0  0  0
   40.1520   25.4980   41.5590 C   0  0  0  0  0  3  0  0  0  0  0  0
   40.2800   25.4660   42.9190 C   0  0  0  0  0  0  0  0  0  0  0  0
   40.9310   24.7320   43.3690 H   0  0  0  0  0  0  0  0  0  0  0  0
   39.5770   26.3650   43.6800 C   0  0  0  0  0  0  0  0  0  0  0  0
   39.6710   26.3490   44.7750 H   0  0  0  0  0  0  0  0  0  0  0  0
   38.7440   27.3030   43.1070 C   0  0  0  0  0  3  0  0  0  0  0  0
   40.3330   32.2920   40.9170 C   0  0  0  0  0  0  0  0  0  0  0  0
   39.8940   31.1280   40.2470 C   0  0  0  0  0  0  0  0  0  0  0  0
   39.8660   31.1110   38.8670 C   0  0  0  0  0  0  0  0  0  0  0  0
   40.2640   32.2190   38.2040 N   0  0  0  0  0  0  0  0  0  0  0  0
   40.6870   33.3420   38.8380 C   0  0  0  0  0  0  0  0  0  0  0  0
   40.7130   33.3560   40.1850 N   0  0  0  0  0  0  0  0  0  0  0  0
   40.3650   32.3360   41.9990 H   0  0  0  0  0  0  0  0  0  0  0  0
   40.9850   34.1770   38.2180 H   0  0  0  0  0  0  0  0  0  0  0  0
   39.4100   29.9110   38.1970 C   0  0  0  0  0  0  0  0  0  0  0  0
   40.2530   28.8510   38.0480 C   0  0  0  0  0  0  0  0  0  0  0  0
   39.8040   27.7160   37.4070 C   0  0  0  0  0  0  0  0  0  0  0  0
   38.5100   27.6030   36.8980 C   0  0  0  0  0  0  0  0  0  0  0  0
   37.7030   28.7120   37.0800 C   0  0  0  0  0  0  0  0  0  0  0  0
   38.1770   29.7970   37.7090 N   0  0  0  0  0  0  0  0  0  0  0  0
   41.2690   28.7820   38.3760 H   0  0  0  0  0  0  0  0  0  0  0  0
   40.4200   26.8310   37.2520 H   0  0  0  0  0  0  0  0  0  0  0  0
   38.1330   26.7260   36.3920 H   0  0  0  0  0  0  0  0  0  0  0  0
   36.6780   28.7550   36.7340 H   0  0  0  0  0  0  0  0  0  0  0  0
  1  3  1  0  0  0  0
  1  2  2  0  0  0  0
  3  4  1  0  0  0  0
  4  9  1  0  0  0  0
  5 11  1  0  0  0  0
  5  6  1  0  0  0  0
  5  4  1  0  0  0  0
  6 14  1  0  0  0  0
  6  7  1  0  0  0  0
  7 15  1  0  0  0  0
  8 17  1  6  0  0  0
  8  3  1  0  0  0  0
  8  7  1  0  0  0  0
  8 18  1  0  0  0  0
 10  4  1  0  0  0  0
 12  5  1  0  0  0  0
 13  6  1  0  0  0  0
 16  7  1  0  0  0  0
 18 26  1  0  0  0  0
 19 21  1  0  0  0  0
 19 18  2  0  0  0  0
 20 19  1  0  0  0  0
 21 22  2  0  0  0  0
 22 23  1  0  0  0  0
 22 24  1  0  0  0  0
 24 25  1  0  0  0  0
 26 24  2  0  0  0  0
 27 33  1  0  0  0  0
 28 27  1  0  0  0  0
 28  1  1  0  0  0  0
 29 28  2  0  0  0  0
 30 31  2  0  0  0  0
 30 29  1  0  0  0  0
 31 32  1  0  0  0  0
 32 27  2  0  0  0  0
 34 31  1  0  0  0  0
 35 29  1  0  0  0  0
 36 35  1  0  0  0  0
 36 41  1  0  0  0  0
 37 36  2  0  0  0  0
 38 39  2  0  0  0  0
 38 37  1  0  0  0  0
 39 40  1  0  0  0  0
 40 35  2  0  0  0  0
 42 37  1  0  0  0  0
 43 38  1  0  0  0  0
 44 39  1  0  0  0  0
M  END
>  <minimizedAffinity>
-5.58729696

$$$$
