
 OpenBabel03252507083D

 24 25  0  0  0  0  0  0  0  0999 V2000
   44.6980   35.4550   44.8180 C   0  0  0  0  0  0  0  0  0  0  0  0
   45.2650   35.6620   43.5520 C   0  0  0  0  0  0  0  0  0  0  0  0
   46.2830   34.8020   43.1390 C   0  0  0  0  0  0  0  0  0  0  0  0
   46.6780   33.8000   43.9890 N   0  0  0  0  0  0  0  0  0  0  0  0
   46.1100   33.6360   45.1890 C   0  0  0  0  0  0  0  0  0  0  0  0
   45.1320   34.4430   45.6150 N   0  0  0  0  0  0  0  0  0  0  0  0
   43.9100   36.0740   45.2080 H   0  0  0  0  0  0  0  0  0  0  0  0
   44.8680   36.4760   42.9920 H   0  0  0  0  0  0  0  0  0  0  0  0
   46.5680   32.5520   46.0550 C   0  0  0  0  0  0  0  0  0  0  0  0
   46.6710   31.2580   45.5740 C   0  0  0  0  0  0  0  0  0  0  0  0
   46.4200   31.0020   44.5500 H   0  0  0  0  0  0  0  0  0  0  0  0
   47.1110   30.2880   46.4560 C   0  0  0  0  0  3  0  0  0  0  0  0
   47.4520   30.5260   47.7740 C   0  0  0  0  0  0  0  0  0  0  0  0
   47.7920   29.7360   48.4280 H   0  0  0  0  0  0  0  0  0  0  0  0
   47.3470   31.8350   48.2560 C   0  0  0  0  0  0  0  0  0  0  0  0
   47.6060   32.0500   49.2840 H   0  0  0  0  0  0  0  0  0  0  0  0
   46.9100   32.7820   47.3720 C   0  0  0  0  0  3  0  0  0  0  0  0
   46.8290   35.0250   41.8870 O   0  0  0  0  0  0  0  0  0  0  0  0
   48.6620   33.3190   41.0450 O   0  0  0  0  0  0  0  0  0  0  0  0
   48.4890   34.7130   41.6400 P   0  0  0  0  0  0  0  0  0  0  0  0
   49.1070   35.8900   40.6180 O   0  0  0  0  0  0  0  0  0  0  0  0
   49.5010   35.4250   39.8280 H   0  0  0  0  0  0  0  0  0  0  0  0
   49.2430   34.7310   43.1540 O   0  0  0  0  0  0  0  0  0  0  0  0
   49.0130   33.8710   43.5900 H   0  0  0  0  0  0  0  0  0  0  0  0
  1  7  1  0  0  0  0
  1  6  1  0  0  0  0
  2  1  2  0  0  0  0
  3  2  1  0  0  0  0
  3  4  2  0  0  0  0
  4  5  1  0  0  0  0
  5  6  2  0  0  0  0
  5  9  1  0  0  0  0
  8  2  1  0  0  0  0
  9 17  1  0  0  0  0
 10  9  2  0  0  0  0
 10 12  1  0  0  0  0
 11 10  1  0  0  0  0
 12 13  2  0  0  0  0
 13 15  1  0  0  0  0
 13 14  1  0  0  0  0
 15 16  1  0  0  0  0
 17 15  2  0  0  0  0
 18  3  1  0  0  0  0
 19 20  2  0  0  0  0
 20 18  1  0  0  0  0
 20 23  1  0  0  0  0
 21 20  1  0  0  0  0
 22 21  1  0  0  0  0
 23 24  1  0  0  0  0
M  END
>  <minimizedAffinity>
-5.53432226

>  <minimizedRMSD>
0.686018646

$$$$
