
 OpenBabel03252507203D

 44 47  0  0  1  0  0  0  0  0999 V2000
   44.1740   33.0680   40.8840 C   0  0  0  0  0  0  0  0  0  0  0  0
   44.0980   32.0890   41.6750 O   0  0  0  0  0  0  0  0  0  0  0  0
   43.0400   33.7380   40.3090 N   0  0  0  0  0  0  0  0  0  0  0  0
   42.7520   35.1490   40.1480 C   0  0  0  0  0  0  0  0  0  0  0  0
   42.3670   35.4170   38.6810 C   0  0  0  0  0  0  0  0  0  0  0  0
   41.0950   34.6750   38.3500 C   0  0  0  0  0  0  0  0  0  0  0  0
   40.7880   33.6760   39.4280 C   0  0  0  0  0  0  0  0  0  0  0  0
   42.0060   32.8650   39.7940 C   0  0  2  0  0  0  0  0  0  0  0  0
   41.9310   35.4720   40.7820 H   0  0  0  0  0  0  0  0  0  0  0  0
   43.6990   35.7150   40.2810 H   0  0  0  0  0  0  0  0  0  0  0  0
   42.2720   36.5090   38.5420 H   0  0  0  0  0  0  0  0  0  0  0  0
   43.1660   34.9720   38.0480 H   0  0  0  0  0  0  0  0  0  0  0  0
   41.1600   34.1090   37.3860 H   0  0  0  0  0  0  0  0  0  0  0  0
   40.2670   35.4130   38.2970 H   0  0  0  0  0  0  0  0  0  0  0  0
   40.3310   34.1990   40.2840 H   0  0  0  0  0  0  0  0  0  0  0  0
   40.0540   32.9370   39.0100 H   0  0  0  0  0  0  0  0  0  0  0  0
   42.3930   32.4390   38.8470 H   0  0  0  0  0  0  0  0  0  0  0  0
   41.6580   31.7440   40.6950 C   0  0  0  0  0  0  0  0  0  0  0  0
   40.9330   31.9860   41.8690 C   0  0  0  0  0  0  0  0  0  0  0  0
   40.6530   33.0340   42.0520 H   0  0  0  0  0  0  0  0  0  0  0  0
   40.5450   31.0660   42.7970 C   0  0  0  0  0  3  0  0  0  0  0  0
   40.8930   29.7630   42.5680 C   0  0  0  0  0  0  0  0  0  0  0  0
   40.6020   29.0090   43.2820 H   0  0  0  0  0  0  0  0  0  0  0  0
   41.6040   29.4490   41.4390 C   0  0  0  0  0  0  0  0  0  0  0  0
   41.8900   28.4050   41.2440 H   0  0  0  0  0  0  0  0  0  0  0  0
   41.9760   30.4110   40.5250 C   0  0  0  0  0  3  0  0  0  0  0  0
   46.0010   33.2150   39.2580 C   0  0  0  0  0  0  0  0  0  0  0  0
   45.4920   33.5450   40.5330 C   0  0  0  0  0  0  0  0  0  0  0  0
   46.2600   34.3010   41.3950 C   0  0  0  0  0  0  0  0  0  0  0  0
   47.4820   34.7030   40.9800 N   0  0  0  0  0  0  0  0  0  0  0  0
   47.9810   34.3910   39.7560 C   0  0  0  0  0  0  0  0  0  0  0  0
   47.2290   33.6530   38.9180 N   0  0  0  0  0  0  0  0  0  0  0  0
   45.4220   32.6220   38.5600 H   0  0  0  0  0  0  0  0  0  0  0  0
   48.9700   34.7600   39.5180 H   0  0  0  0  0  0  0  0  0  0  0  0
   45.7230   34.6260   42.7000 C   0  0  0  0  0  0  0  0  0  0  0  0
   45.0370   35.7890   42.8860 C   0  0  0  0  0  0  0  0  0  0  0  0
   44.5330   36.0840   44.1340 C   0  0  0  0  0  0  0  0  0  0  0  0
   44.6970   35.2360   45.2290 C   0  0  0  0  0  0  0  0  0  0  0  0
   45.4020   34.0730   44.9780 C   0  0  0  0  0  0  0  0  0  0  0  0
   45.8760   33.8220   43.7490 N   0  0  0  0  0  0  0  0  0  0  0  0
   44.8310   36.5420   42.1540 H   0  0  0  0  0  0  0  0  0  0  0  0
   43.9750   36.9930   44.3570 H   0  0  0  0  0  0  0  0  0  0  0  0
   44.3120   35.4430   46.2180 H   0  0  0  0  0  0  0  0  0  0  0  0
   45.5980   33.3290   45.7400 H   0  0  0  0  0  0  0  0  0  0  0  0
  1  2  2  0  0  0  0
  3  1  1  0  0  0  0
  4 10  1  0  0  0  0
  4  3  1  0  0  0  0
  4  9  1  0  0  0  0
  5  4  1  0  0  0  0
  6  5  1  0  0  0  0
  6  7  1  0  0  0  0
  7  8  1  0  0  0  0
  7 15  1  0  0  0  0
  8 17  1  6  0  0  0
  8  3  1  0  0  0  0
  8 18  1  0  0  0  0
 11  5  1  0  0  0  0
 12  5  1  0  0  0  0
 13  6  1  0  0  0  0
 14  6  1  0  0  0  0
 16  7  1  0  0  0  0
 18 19  1  0  0  0  0
 19 20  1  0  0  0  0
 19 21  2  0  0  0  0
 22 21  1  0  0  0  0
 22 23  1  0  0  0  0
 24 22  2  0  0  0  0
 25 24  1  0  0  0  0
 26 18  2  0  0  0  0
 26 24  1  0  0  0  0
 27 28  1  0  0  0  0
 28  1  1  0  0  0  0
 28 29  2  0  0  0  0
 29 35  1  0  0  0  0
 30 29  1  0  0  0  0
 31 30  2  0  0  0  0
 32 27  2  0  0  0  0
 32 31  1  0  0  0  0
 33 27  1  0  0  0  0
 34 31  1  0  0  0  0
 35 36  2  0  0  0  0
 35 40  1  0  0  0  0
 36 37  1  0  0  0  0
 37 42  1  0  0  0  0
 37 38  2  0  0  0  0
 38 43  1  0  0  0  0
 39 38  1  0  0  0  0
 39 44  1  0  0  0  0
 40 39  2  0  0  0  0
 41 36  1  0  0  0  0
M  END
>  <minimizedAffinity>
-6.1000762

>  <minimizedRMSD>
6.41156006

$$$$
