
 OpenBabel03242523073D

 45 49  0  0  1  0  0  0  0  0999 V2000
   45.2030   36.0680   43.3420 C   0  0  0  0  0  0  0  0  0  0  0  0
   46.0070   34.9550   43.1450 C   0  0  0  0  0  0  0  0  0  0  0  0
   46.0800   34.0250   44.1520 C   0  0  0  0  0  0  0  0  0  0  0  0
   45.3630   34.2360   45.3010 N   0  0  0  0  0  0  0  0  0  0  0  0
   44.5910   35.3280   45.4650 C   0  0  0  0  0  0  0  0  0  0  0  0
   44.5170   36.2270   44.4950 N   0  0  0  0  0  0  0  0  0  0  0  0
   45.1170   36.8240   42.5740 H   0  0  0  0  0  0  0  0  0  0  0  0
   44.0000   35.5640   46.3370 H   0  0  0  0  0  0  0  0  0  0  0  0
   46.7110   34.8530   41.9460 N   0  0  0  0  0  0  0  0  0  0  0  0
   47.9980   35.4040   41.7650 C   0  0  0  0  0  0  0  0  0  0  0  0
   48.6670   35.0580   40.4630 C   0  0  0  0  0  0  0  0  0  0  0  0
   48.4800   33.7440   40.0090 N   0  0  0  0  0  0  0  0  0  0  0  0
   47.2090   33.2020   40.1870 C   0  0  0  0  0  0  0  0  0  0  0  0
   46.2310   34.1990   40.7760 C   0  0  0  0  0  0  0  0  0  0  0  0
   48.7260   35.2410   42.5900 H   0  0  0  0  0  0  0  0  0  0  0  0
   47.8560   36.5260   41.7440 H   0  0  0  0  0  0  0  0  0  0  0  0
   48.3300   35.7770   39.6670 H   0  0  0  0  0  0  0  0  0  0  0  0
   49.7630   35.2580   40.5850 H   0  0  0  0  0  0  0  0  0  0  0  0
   48.8630   33.6450   39.0600 H   0  0  0  0  0  0  0  0  0  0  0  0
   47.1230   32.2460   40.7420 H   0  0  0  0  0  0  0  0  0  0  0  0
   46.7810   32.9690   39.1660 H   0  0  0  0  0  0  0  0  0  0  0  0
   46.0930   34.9730   39.9700 H   0  0  0  0  0  0  0  0  0  0  0  0
   45.2790   33.6450   40.8940 H   0  0  0  0  0  0  0  0  0  0  0  0
   46.3830   32.0470   45.3920 C   0  0  0  0  0  0  0  0  0  0  0  0
   46.7840   32.8150   44.2770 C   0  0  0  0  0  0  0  0  0  0  0  0
   47.8330   32.1970   43.6200 C   0  0  0  0  0  0  0  0  0  0  0  0
   48.4250   31.0250   43.9680 C   0  0  0  0  0  0  0  0  0  0  0  0
   47.9680   30.3460   45.0810 C   0  0  0  0  0  0  0  0  0  0  0  0
   46.9390   30.8500   45.8040 C   0  0  0  0  0  0  0  0  0  0  0  0
   48.7750   29.2230   45.1630 O   0  0  0  0  0  0  0  0  0  0  0  0
   49.6990   29.1960   44.1020 C   0  0  1  0  0  0  0  0  0  0  0  0
   49.4710   30.3790   43.3270 O   0  0  0  0  0  0  0  0  0  0  0  0
   45.5680   32.2370   46.1250 H   0  0  0  0  0  0  0  0  0  0  0  0
   48.1360   32.7600   42.7960 H   0  0  0  0  0  0  0  0  0  0  0  0
   46.6640   30.2540   46.6310 H   0  0  0  0  0  0  0  0  0  0  0  0
   49.4000   28.3500   43.4500 H   0  0  0  0  0  0  0  0  0  0  0  0
   51.1080   29.1620   44.5010 C   0  0  0  0  0  0  0  0  0  0  0  0
   52.2180   29.6190   43.8240 C   0  0  0  0  0  0  0  0  0  0  0  0
   51.9990   30.0570   42.8740 H   0  0  0  0  0  0  0  0  0  0  0  0
   53.4760   29.5000   44.3630 C   0  0  0  0  0  0  0  0  0  0  0  0
   53.6890   28.9140   45.6140 C   0  0  0  0  0  0  0  0  0  0  0  0
   54.6770   28.8170   46.0420 H   0  0  0  0  0  0  0  0  0  0  0  0
   52.5750   28.4540   46.2970 C   0  0  0  0  0  0  0  0  0  0  0  0
   52.7320   27.9970   47.2690 H   0  0  0  0  0  0  0  0  0  0  0  0
   51.2960   28.5710   45.7560 C   0  0  0  0  0  0  0  0  0  0  0  0
  1  6  1  0  0  0  0
  2  1  2  0  0  0  0
  2  3  1  0  0  0  0
  3 25  1  0  0  0  0
  3  4  2  0  0  0  0
  4  5  1  0  0  0  0
  5  8  1  0  0  0  0
  6  5  2  0  0  0  0
  7  1  1  0  0  0  0
  9  2  1  0  0  0  0
 10  9  1  0  0  0  0
 10 15  1  0  0  0  0
 11 18  1  0  0  0  0
 11 10  1  0  0  0  0
 12 13  1  0  0  0  0
 12 11  1  0  0  0  0
 13 20  1  0  0  0  0
 13 14  1  0  0  0  0
 14 23  1  0  0  0  0
 14  9  1  0  0  0  0
 16 10  1  0  0  0  0
 17 11  1  0  0  0  0
 19 12  1  0  0  0  0
 21 13  1  0  0  0  0
 22 14  1  0  0  0  0
 24 29  1  0  0  0  0
 24 33  1  0  0  0  0
 25 24  2  0  0  0  0
 26 27  2  0  0  0  0
 26 25  1  0  0  0  0
 27 28  1  0  0  0  0
 28 30  1  0  0  0  0
 28 29  2  0  0  0  0
 29 35  1  0  0  0  0
 31 36  1  6  0  0  0
 31 37  1  0  0  0  0
 31 30  1  0  0  0  0
 32 27  1  0  0  0  0
 32 31  1  0  0  0  0
 34 26  1  0  0  0  0
 37 45  1  0  0  0  0
 38 40  1  0  0  0  0
 38 37  2  0  0  0  0
 39 38  1  0  0  0  0
 40 41  2  0  0  0  0
 41 42  1  0  0  0  0
 41 43  1  0  0  0  0
 43 44  1  0  0  0  0
 45 43  2  0  0  0  0
M  END
>  <minimizedAffinity>
-5.42202473

>  <minimizedRMSD>
0.295000225

$$$$
