
 OpenBabel03252505543D

 33 35  0  0  0  0  0  0  0  0999 V2000
   46.2380   30.6440   48.0030 C   0  0  0  0  0  0  0  0  0  0  0  0
   46.4300   29.4850   47.3000 C   0  0  0  0  0  0  0  0  0  0  0  0
   47.5970   28.8070   47.3970 C   0  0  0  0  0  0  0  0  0  0  0  0
   48.5850   29.2600   48.1840 N   0  0  0  0  0  0  0  0  0  0  0  0
   48.4190   30.3920   48.8820 C   0  0  0  0  0  0  0  0  0  0  0  0
   47.2510   31.0880   48.7980 N   0  0  0  0  0  0  0  0  0  0  0  0
   45.5760   29.2100   46.6990 H   0  0  0  0  0  0  0  0  0  0  0  0
   47.6580   27.9020   46.8050 H   0  0  0  0  0  0  0  0  0  0  0  0
   49.5100   30.8910   49.7510 C   0  0  0  0  0  0  0  0  0  0  0  0
   49.9980   32.1640   49.5390 C   0  0  0  0  0  0  0  0  0  0  0  0
   49.5760   32.7850   48.7360 H   0  0  0  0  0  0  0  0  0  0  0  0
   51.0250   32.6040   50.3750 C   0  0  0  0  0  0  0  0  0  0  0  0
   51.5000   31.7440   51.3710 C   0  0  0  0  0  0  0  0  0  0  0  0
   52.2860   32.1090   51.9950 H   0  0  0  0  0  0  0  0  0  0  0  0
   50.9590   30.4850   51.5200 C   0  0  0  0  0  0  0  0  0  0  0  0
   51.3350   29.8250   52.2970 H   0  0  0  0  0  0  0  0  0  0  0  0
   49.9430   30.0100   50.7150 C   0  0  0  0  0  0  0  0  0  0  0  0
   45.0800   31.5420   48.0620 C   0  0  0  0  0  0  0  0  0  0  0  0
   44.3490   31.3070   47.2440 H   0  0  0  0  0  0  0  0  0  0  0  0
   44.5150   31.4050   49.0130 H   0  0  0  0  0  0  0  0  0  0  0  0
   45.5500   32.8610   47.9290 O   0  0  0  0  0  0  0  0  0  0  0  0
   44.6010   35.2280   45.4430 C   0  0  0  0  0  0  0  0  0  0  0  0
   45.3600   34.8740   44.3390 C   0  0  0  0  0  0  0  0  0  0  0  0
   46.2250   33.7780   44.4720 C   0  0  0  0  0  0  0  0  0  0  0  0
   46.2790   33.1290   45.6440 N   0  0  0  0  0  0  0  0  0  0  0  0
   45.5220   33.5100   46.6930 C   0  0  0  0  0  0  0  0  0  0  0  0
   44.6870   34.5510   46.6020 N   0  0  0  0  0  0  0  0  0  0  0  0
   43.9110   36.0740   45.3980 H   0  0  0  0  0  0  0  0  0  0  0  0
   46.8160   33.5040   43.6070 H   0  0  0  0  0  0  0  0  0  0  0  0
   45.2160   35.6710   43.0820 C   0  0  0  0  0  0  0  0  0  0  0  0
   45.1780   36.9810   43.4940 F   0  0  0  0  0  0  0  0  0  0  0  0
   43.9790   35.3060   42.5280 F   0  0  0  0  0  0  0  0  0  0  0  0
   46.2430   35.3820   42.2420 F   0  0  0  0  0  0  0  0  0  0  0  0
  1 18  1  0  0  0  0
  1  6  1  0  0  0  0
  2  3  1  0  0  0  0
  2  1  2  0  0  0  0
  3  4  2  0  0  0  0
  4  5  1  0  0  0  0
  5  9  1  0  0  0  0
  6  5  2  0  0  0  0
  7  2  1  0  0  0  0
  8  3  1  0  0  0  0
  9 17  1  0  0  0  0
 10  9  2  0  0  0  0
 10 12  1  0  0  0  0
 11 10  1  0  0  0  0
 12 13  2  0  0  0  0
 13 15  1  0  0  0  0
 13 14  1  0  0  0  0
 15 16  1  0  0  0  0
 17 15  2  0  0  0  0
 18 20  1  0  0  0  0
 19 18  1  0  0  0  0
 21 18  1  0  0  0  0
 22 27  1  0  0  0  0
 23 24  1  0  0  0  0
 23 22  2  0  0  0  0
 24 25  2  0  0  0  0
 25 26  1  0  0  0  0
 26 21  1  0  0  0  0
 27 26  2  0  0  0  0
 28 22  1  0  0  0  0
 29 24  1  0  0  0  0
 30 31  1  0  0  0  0
 30 23  1  0  0  0  0
 32 30  1  0  0  0  0
 33 30  1  0  0  0  0
M  END
>  <minimizedAffinity>
-5.9642396

>  <minimizedRMSD>
0.919008851

$$$$
