
 OpenBabel03252507203D

 44 47  0  0  1  0  0  0  0  0999 V2000
   47.0540   33.1960   43.1010 C   0  0  0  0  0  0  0  0  0  0  0  0
   48.1900   33.0270   43.6220 O   0  0  0  0  0  0  0  0  0  0  0  0
   46.5830   32.5020   41.9350 N   0  0  0  0  0  0  0  0  0  0  0  0
   45.3090   31.8700   41.6540 C   0  0  0  0  0  0  0  0  0  0  0  0
   44.7770   32.3930   40.3070 C   0  0  0  0  0  0  0  0  0  0  0  0
   45.7160   31.9820   39.2000 C   0  0  0  0  0  0  0  0  0  0  0  0
   47.0090   31.4850   39.7810 C   0  0  0  0  0  0  0  0  0  0  0  0
   47.5320   32.4180   40.8450 C   0  0  2  0  0  0  0  0  0  0  0  0
   45.3950   30.7890   41.5920 H   0  0  0  0  0  0  0  0  0  0  0  0
   44.5670   32.2400   42.3940 H   0  0  0  0  0  0  0  0  0  0  0  0
   43.7530   32.0020   40.1640 H   0  0  0  0  0  0  0  0  0  0  0  0
   44.8090   33.5040   40.3540 H   0  0  0  0  0  0  0  0  0  0  0  0
   45.9690   32.8260   38.5090 H   0  0  0  0  0  0  0  0  0  0  0  0
   45.2390   31.1590   38.6280 H   0  0  0  0  0  0  0  0  0  0  0  0
   46.8710   30.4480   40.1300 H   0  0  0  0  0  0  0  0  0  0  0  0
   47.7790   31.5020   38.9660 H   0  0  0  0  0  0  0  0  0  0  0  0
   47.5740   33.4250   40.3830 H   0  0  0  0  0  0  0  0  0  0  0  0
   48.9020   32.0460   41.2630 C   0  0  0  0  0  0  0  0  0  0  0  0
   49.1680   30.7460   41.7130 C   0  0  0  0  0  0  0  0  0  0  0  0
   48.3110   30.0560   41.7210 H   0  0  0  0  0  0  0  0  0  0  0  0
   50.3670   30.2550   42.1360 C   0  0  0  0  0  3  0  0  0  0  0  0
   51.4320   31.1130   42.1250 C   0  0  0  0  0  0  0  0  0  0  0  0
   52.3950   30.7570   42.4540 H   0  0  0  0  0  0  0  0  0  0  0  0
   51.2490   32.4020   41.6970 C   0  0  0  0  0  0  0  0  0  0  0  0
   52.0970   33.1020   41.6830 H   0  0  0  0  0  0  0  0  0  0  0  0
   50.0170   32.8580   41.2770 C   0  0  0  0  0  3  0  0  0  0  0  0
   45.7920   35.2920   42.9790 C   0  0  0  0  0  0  0  0  0  0  0  0
   46.1680   34.1530   43.7230 C   0  0  0  0  0  0  0  0  0  0  0  0
   45.6840   33.9910   45.0060 C   0  0  0  0  0  0  0  0  0  0  0  0
   44.8610   34.9390   45.5040 N   0  0  0  0  0  0  0  0  0  0  0  0
   44.4930   36.0380   44.7980 C   0  0  0  0  0  0  0  0  0  0  0  0
   44.9670   36.1940   43.5460 N   0  0  0  0  0  0  0  0  0  0  0  0
   46.1560   35.4470   41.9710 H   0  0  0  0  0  0  0  0  0  0  0  0
   43.8300   36.7400   45.2860 H   0  0  0  0  0  0  0  0  0  0  0  0
   46.0830   32.8170   45.7550 C   0  0  0  0  0  0  0  0  0  0  0  0
   45.6140   31.5880   45.3990 C   0  0  0  0  0  0  0  0  0  0  0  0
   46.0030   30.4820   46.1230 C   0  0  0  0  0  0  0  0  0  0  0  0
   46.8640   30.5650   47.2170 C   0  0  0  0  0  0  0  0  0  0  0  0
   47.3040   31.8380   47.5290 C   0  0  0  0  0  0  0  0  0  0  0  0
   46.9040   32.8900   46.8010 N   0  0  0  0  0  0  0  0  0  0  0  0
   44.9490   31.3590   44.5940 H   0  0  0  0  0  0  0  0  0  0  0  0
   45.6700   29.4690   45.8970 H   0  0  0  0  0  0  0  0  0  0  0  0
   47.1830   29.7140   47.8020 H   0  0  0  0  0  0  0  0  0  0  0  0
   47.9750   32.0410   48.3540 H   0  0  0  0  0  0  0  0  0  0  0  0
  1  2  2  0  0  0  0
  1 28  1  0  0  0  0
  3  1  1  0  0  0  0
  4  3  1  0  0  0  0
  4 10  1  0  0  0  0
  5 12  1  0  0  0  0
  5  4  1  0  0  0  0
  6  7  1  0  0  0  0
  6  5  1  0  0  0  0
  7 15  1  0  0  0  0
  7  8  1  0  0  0  0
  8 17  1  6  0  0  0
  8 18  1  0  0  0  0
  8  3  1  0  0  0  0
  9  4  1  0  0  0  0
 11  5  1  0  0  0  0
 13  6  1  0  0  0  0
 14  6  1  0  0  0  0
 16  7  1  0  0  0  0
 18 26  2  0  0  0  0
 18 19  1  0  0  0  0
 19 20  1  0  0  0  0
 19 21  2  0  0  0  0
 22 21  1  0  0  0  0
 22 23  1  0  0  0  0
 24 22  2  0  0  0  0
 25 24  1  0  0  0  0
 26 24  1  0  0  0  0
 27 32  2  0  0  0  0
 27 28  1  0  0  0  0
 28 29  2  0  0  0  0
 29 30  1  0  0  0  0
 29 35  1  0  0  0  0
 31 34  1  0  0  0  0
 31 30  2  0  0  0  0
 32 31  1  0  0  0  0
 33 27  1  0  0  0  0
 35 40  1  0  0  0  0
 36 35  2  0  0  0  0
 36 37  1  0  0  0  0
 37 38  2  0  0  0  0
 38 39  1  0  0  0  0
 38 43  1  0  0  0  0
 39 44  1  0  0  0  0
 40 39  2  0  0  0  0
 41 36  1  0  0  0  0
 42 37  1  0  0  0  0
M  END
>  <minimizedAffinity>
-5.30284262

>  <minimizedRMSD>
1.01580918

$$$$
