
 OpenBabel03242520253D

 24 25  0  0  0  0  0  0  0  0999 V2000
   37.1490   28.4270   38.7480 C   0  0  0  0  0  0  0  0  0  0  0  0
   37.3840   29.3440   39.7840 C   0  0  0  0  0  0  0  0  0  0  0  0
   37.3480   30.6930   39.4660 C   0  0  0  0  0  0  0  0  0  0  0  0
   37.0890   31.0750   38.1750 N   0  0  0  0  0  0  0  0  0  0  0  0
   36.8690   30.1500   37.2120 C   0  0  0  0  0  0  0  0  0  0  0  0
   36.8990   28.8370   37.4920 N   0  0  0  0  0  0  0  0  0  0  0  0
   37.1740   27.3770   38.9770 H   0  0  0  0  0  0  0  0  0  0  0  0
   36.6850   30.6520   36.2690 H   0  0  0  0  0  0  0  0  0  0  0  0
   37.6490   28.8160   41.1170 C   0  0  0  0  0  0  0  0  0  0  0  0
   38.8630   28.8210   41.7750 C   0  0  0  0  0  0  0  0  0  0  0  0
   39.6630   29.2670   41.2150 H   0  0  0  0  0  0  0  0  0  0  0  0
   38.9750   28.2850   43.0410 C   0  0  0  0  0  3  0  0  0  0  0  0
   37.8890   27.7350   43.6800 C   0  0  0  0  0  0  0  0  0  0  0  0
   37.9520   27.3160   44.6560 H   0  0  0  0  0  0  0  0  0  0  0  0
   36.6660   27.7170   43.0440 C   0  0  0  0  0  0  0  0  0  0  0  0
   35.8110   27.2770   43.5630 H   0  0  0  0  0  0  0  0  0  0  0  0
   36.5620   28.2540   41.7790 C   0  0  0  0  0  3  0  0  0  0  0  0
   37.5800   31.6080   40.4910 O   0  0  0  0  0  0  0  0  0  0  0  0
   39.4420   32.9830   39.2400 O   0  0  0  0  0  0  0  0  0  0  0  0
   38.1870   33.1660   40.0890 P   0  0  0  0  0  0  0  0  0  0  0  0
   36.9950   34.0010   39.2540 O   0  0  0  0  0  0  0  0  0  0  0  0
   37.1940   34.9850   39.2790 H   0  0  0  0  0  0  0  0  0  0  0  0
   38.6230   33.9370   41.5210 O   0  0  0  0  0  0  0  0  0  0  0  0
   38.5530   34.9250   41.4900 H   0  0  0  0  0  0  0  0  0  0  0  0
  1  7  1  0  0  0  0
  1  2  1  0  0  0  0
  2  9  1  0  0  0  0
  3  2  2  0  0  0  0
  3 18  1  0  0  0  0
  4  3  1  0  0  0  0
  5  6  1  0  0  0  0
  5  4  2  0  0  0  0
  6  1  2  0  0  0  0
  8  5  1  0  0  0  0
  9 10  2  0  0  0  0
  9 17  1  0  0  0  0
 10 12  1  0  0  0  0
 11 10  1  0  0  0  0
 12 13  2  0  0  0  0
 13 14  1  0  0  0  0
 15 16  1  0  0  0  0
 15 13  1  0  0  0  0
 17 15  2  0  0  0  0
 19 20  2  0  0  0  0
 20 18  1  0  0  0  0
 20 23  1  0  0  0  0
 21 22  1  0  0  0  0
 21 20  1  0  0  0  0
 24 23  1  0  0  0  0
M  END
>  <minimizedAffinity>
-5.1585021

$$$$

 OpenBabel03242520253D

 24 25  0  0  0  0  0  0  0  0999 V2000
   40.3490   28.4420   39.8100 C   0  0  0  0  0  0  0  0  0  0  0  0
   39.4270   29.2050   40.5420 C   0  0  0  0  0  0  0  0  0  0  0  0
   39.3830   30.5680   40.2930 C   0  0  0  0  0  0  0  0  0  0  0  0
   40.2270   31.1110   39.3580 N   0  0  0  0  0  0  0  0  0  0  0  0
   41.0980   30.3300   38.6790 C   0  0  0  0  0  0  0  0  0  0  0  0
   41.1620   29.0070   38.9010 N   0  0  0  0  0  0  0  0  0  0  0  0
   40.3960   27.3830   39.9910 H   0  0  0  0  0  0  0  0  0  0  0  0
   41.6700   30.9450   37.9940 H   0  0  0  0  0  0  0  0  0  0  0  0
   38.5820   28.5140   41.5090 C   0  0  0  0  0  0  0  0  0  0  0  0
   38.7990   28.4230   42.8700 C   0  0  0  0  0  0  0  0  0  0  0  0
   39.6870   28.9240   43.2060 H   0  0  0  0  0  0  0  0  0  0  0  0
   37.9160   27.7340   43.6750 C   0  0  0  0  0  3  0  0  0  0  0  0
   36.8020   27.1240   43.1490 C   0  0  0  0  0  0  0  0  0  0  0  0
   36.1070   26.5870   43.7510 H   0  0  0  0  0  0  0  0  0  0  0  0
   36.5630   27.2000   41.7940 C   0  0  0  0  0  0  0  0  0  0  0  0
   35.6740   26.7110   41.3900 H   0  0  0  0  0  0  0  0  0  0  0  0
   37.4500   27.8890   40.9960 C   0  0  0  0  0  3  0  0  0  0  0  0
   38.4680   31.3320   41.0160 O   0  0  0  0  0  0  0  0  0  0  0  0
   36.8890   31.0220   38.9350 O   0  0  0  0  0  0  0  0  0  0  0  0
   36.9440   31.6910   40.3060 P   0  0  0  0  0  0  0  0  0  0  0  0
   35.7370   31.1190   41.3200 O   0  0  0  0  0  0  0  0  0  0  0  0
   34.8690   31.5710   41.0980 H   0  0  0  0  0  0  0  0  0  0  0  0
   36.8570   33.3580   40.0860 O   0  0  0  0  0  0  0  0  0  0  0  0
   35.9370   33.7260   40.1200 H   0  0  0  0  0  0  0  0  0  0  0  0
  1  7  1  0  0  0  0
  1  2  1  0  0  0  0
  2  9  1  0  0  0  0
  3  2  2  0  0  0  0
  3 18  1  0  0  0  0
  4  3  1  0  0  0  0
  5  6  1  0  0  0  0
  5  4  2  0  0  0  0
  6  1  2  0  0  0  0
  8  5  1  0  0  0  0
  9 10  1  0  0  0  0
 10 11  1  0  0  0  0
 10 12  2  0  0  0  0
 13 12  1  0  0  0  0
 13 14  1  0  0  0  0
 15 13  2  0  0  0  0
 16 15  1  0  0  0  0
 17  9  2  0  0  0  0
 17 15  1  0  0  0  0
 19 20  2  0  0  0  0
 20 18  1  0  0  0  0
 20 21  1  0  0  0  0
 22 21  1  0  0  0  0
 23 24  1  0  0  0  0
 23 20  1  0  0  0  0
M  END
>  <minimizedAffinity>
-5.14070892

$$$$

 OpenBabel03242520253D

 24 25  0  0  0  0  0  0  0  0999 V2000
   39.7290   27.9490   39.3090 C   0  0  0  0  0  0  0  0  0  0  0  0
   39.0640   28.8600   40.1440 C   0  0  0  0  0  0  0  0  0  0  0  0
   39.1200   30.2020   39.8010 C   0  0  0  0  0  0  0  0  0  0  0  0
   39.8100   30.5830   38.6790 N   0  0  0  0  0  0  0  0  0  0  0  0
   40.4340   29.6640   37.9070 C   0  0  0  0  0  0  0  0  0  0  0  0
   40.3960   28.3580   38.2160 N   0  0  0  0  0  0  0  0  0  0  0  0
   39.6950   26.9040   39.5600 H   0  0  0  0  0  0  0  0  0  0  0  0
   40.9180   30.1640   37.0760 H   0  0  0  0  0  0  0  0  0  0  0  0
   38.3640   28.3340   41.3090 C   0  0  0  0  0  0  0  0  0  0  0  0
   37.0450   27.9260   41.3590 C   0  0  0  0  0  0  0  0  0  0  0  0
   36.5210   28.0240   40.4270 H   0  0  0  0  0  0  0  0  0  0  0  0
   36.5040   27.4450   42.5330 C   0  0  0  0  0  3  0  0  0  0  0  0
   37.2580   27.3580   43.6800 C   0  0  0  0  0  0  0  0  0  0  0  0
   36.8620   26.9900   44.5970 H   0  0  0  0  0  0  0  0  0  0  0  0
   38.5770   27.7580   43.6560 C   0  0  0  0  0  0  0  0  0  0  0  0
   39.1640   27.6820   44.5740 H   0  0  0  0  0  0  0  0  0  0  0  0
   39.1090   28.2370   42.4800 C   0  0  0  0  0  3  0  0  0  0  0  0
   38.4620   31.1120   40.6260 O   0  0  0  0  0  0  0  0  0  0  0  0
   36.5870   31.1170   38.7800 O   0  0  0  0  0  0  0  0  0  0  0  0
   36.8940   31.6560   40.1750 P   0  0  0  0  0  0  0  0  0  0  0  0
   35.7910   31.0960   41.3080 O   0  0  0  0  0  0  0  0  0  0  0  0
   34.9470   31.6350   41.2500 H   0  0  0  0  0  0  0  0  0  0  0  0
   36.9320   33.3370   40.0970 O   0  0  0  0  0  0  0  0  0  0  0  0
   36.0650   33.7740   40.2930 H   0  0  0  0  0  0  0  0  0  0  0  0
  1  7  1  0  0  0  0
  1  2  1  0  0  0  0
  2  9  1  0  0  0  0
  3  2  2  0  0  0  0
  3 18  1  0  0  0  0
  4  3  1  0  0  0  0
  5  6  1  0  0  0  0
  5  4  2  0  0  0  0
  6  1  2  0  0  0  0
  8  5  1  0  0  0  0
  9 10  2  0  0  0  0
  9 17  1  0  0  0  0
 10 12  1  0  0  0  0
 11 10  1  0  0  0  0
 12 13  2  0  0  0  0
 13 14  1  0  0  0  0
 15 13  1  0  0  0  0
 15 16  1  0  0  0  0
 17 15  2  0  0  0  0
 19 20  2  0  0  0  0
 20 18  1  0  0  0  0
 20 21  1  0  0  0  0
 22 21  1  0  0  0  0
 23 20  1  0  0  0  0
 23 24  1  0  0  0  0
M  END
>  <minimizedAffinity>
-5.06348276

$$$$

 OpenBabel03242520253D

 24 25  0  0  0  0  0  0  0  0999 V2000
   36.5860   27.5680   40.9100 C   0  0  0  0  0  0  0  0  0  0  0  0
   36.2360   28.8280   40.4010 C   0  0  0  0  0  0  0  0  0  0  0  0
   36.6390   29.9440   41.1180 C   0  0  0  0  0  0  0  0  0  0  0  0
   37.3520   29.7790   42.2770 N   0  0  0  0  0  0  0  0  0  0  0  0
   37.6650   28.5410   42.7250 C   0  0  0  0  0  0  0  0  0  0  0  0
   37.2860   27.4430   42.0510 N   0  0  0  0  0  0  0  0  0  0  0  0
   36.2810   26.6920   40.3660 H   0  0  0  0  0  0  0  0  0  0  0  0
   38.2260   28.6260   43.6490 H   0  0  0  0  0  0  0  0  0  0  0  0
   35.4760   28.8750   39.1570 C   0  0  0  0  0  0  0  0  0  0  0  0
   34.1010   28.9360   39.0380 C   0  0  0  0  0  0  0  0  0  0  0  0
   33.5810   28.9470   39.9770 H   0  0  0  0  0  0  0  0  0  0  0  0
   33.5070   28.9760   37.7940 C   0  0  0  0  0  3  0  0  0  0  0  0
   34.2610   28.9570   36.6450 C   0  0  0  0  0  0  0  0  0  0  0  0
   33.8250   28.9870   35.6750 H   0  0  0  0  0  0  0  0  0  0  0  0
   35.6350   28.8970   36.7370 C   0  0  0  0  0  0  0  0  0  0  0  0
   36.2220   28.8840   35.8160 H   0  0  0  0  0  0  0  0  0  0  0  0
   36.2210   28.8570   37.9830 C   0  0  0  0  0  3  0  0  0  0  0  0
   36.2950   31.1980   40.6170 O   0  0  0  0  0  0  0  0  0  0  0  0
   38.0930   31.6670   38.7530 O   0  0  0  0  0  0  0  0  0  0  0  0
   37.5450   32.2390   40.0580 P   0  0  0  0  0  0  0  0  0  0  0  0
   36.9010   33.7720   39.8360 O   0  0  0  0  0  0  0  0  0  0  0  0
   37.6420   34.4470   39.8140 H   0  0  0  0  0  0  0  0  0  0  0  0
   38.7800   32.2240   41.2030 O   0  0  0  0  0  0  0  0  0  0  0  0
   39.3080   33.0620   41.2440 H   0  0  0  0  0  0  0  0  0  0  0  0
  1  6  1  0  0  0  0
  2  1  2  0  0  0  0
  2  3  1  0  0  0  0
  3  4  2  0  0  0  0
  4  5  1  0  0  0  0
  5  8  1  0  0  0  0
  6  5  2  0  0  0  0
  7  1  1  0  0  0  0
  9  2  1  0  0  0  0
 10  9  1  0  0  0  0
 10 11  1  0  0  0  0
 12 10  2  0  0  0  0
 13 15  2  0  0  0  0
 13 12  1  0  0  0  0
 14 13  1  0  0  0  0
 15 17  1  0  0  0  0
 16 15  1  0  0  0  0
 17  9  2  0  0  0  0
 18  3  1  0  0  0  0
 19 20  2  0  0  0  0
 20 18  1  0  0  0  0
 20 23  1  0  0  0  0
 21 20  1  0  0  0  0
 22 21  1  0  0  0  0
 23 24  1  0  0  0  0
M  END
>  <minimizedAffinity>
-4.92104816

$$$$

 OpenBabel03242520253D

 24 25  0  0  0  0  0  0  0  0999 V2000
   36.4510   26.4550   38.0910 C   0  0  0  0  0  0  0  0  0  0  0  0
   36.5600   26.7680   39.4550 C   0  0  0  0  0  0  0  0  0  0  0  0
   35.9450   27.9290   39.8970 C   0  0  0  0  0  0  0  0  0  0  0  0
   35.2640   28.7150   39.0030 N   0  0  0  0  0  0  0  0  0  0  0  0
   35.1880   28.3680   37.6980 C   0  0  0  0  0  0  0  0  0  0  0  0
   35.7760   27.2490   37.2420 N   0  0  0  0  0  0  0  0  0  0  0  0
   36.9220   25.5580   37.7320 H   0  0  0  0  0  0  0  0  0  0  0  0
   34.6120   29.1130   37.1620 H   0  0  0  0  0  0  0  0  0  0  0  0
   37.3110   25.8540   40.3080 C   0  0  0  0  0  0  0  0  0  0  0  0
   36.8010   24.7740   41.0000 C   0  0  0  0  0  0  0  0  0  0  0  0
   35.7450   24.6290   40.8700 H   0  0  0  0  0  0  0  0  0  0  0  0
   37.6260   23.9860   41.7760 C   0  0  0  0  0  3  0  0  0  0  0  0
   38.9710   24.2530   41.8800 C   0  0  0  0  0  0  0  0  0  0  0  0
   39.6270   23.6590   42.4720 H   0  0  0  0  0  0  0  0  0  0  0  0
   39.5040   25.3250   41.1980 C   0  0  0  0  0  0  0  0  0  0  0  0
   40.5750   25.5250   41.2900 H   0  0  0  0  0  0  0  0  0  0  0  0
   38.6730   26.1070   40.4260 C   0  0  0  0  0  3  0  0  0  0  0  0
   36.0500   28.2450   41.2510 O   0  0  0  0  0  0  0  0  0  0  0  0
   38.1000   29.8510   40.8760 O   0  0  0  0  0  0  0  0  0  0  0  0
   36.8240   29.7130   41.7010 P   0  0  0  0  0  0  0  0  0  0  0  0
   35.7650   30.9820   41.4150 O   0  0  0  0  0  0  0  0  0  0  0  0
   36.0550   31.7870   41.9390 H   0  0  0  0  0  0  0  0  0  0  0  0
   37.2530   29.5940   43.3250 O   0  0  0  0  0  0  0  0  0  0  0  0
   37.2800   30.4610   43.8050 H   0  0  0  0  0  0  0  0  0  0  0  0
  1  2  1  0  0  0  0
  2  3  2  0  0  0  0
  2  9  1  0  0  0  0
  3 18  1  0  0  0  0
  4  3  1  0  0  0  0
  5  4  2  0  0  0  0
  6  5  1  0  0  0  0
  6  1  2  0  0  0  0
  7  1  1  0  0  0  0
  8  5  1  0  0  0  0
  9 17  2  0  0  0  0
  9 10  1  0  0  0  0
 10 12  2  0  0  0  0
 11 10  1  0  0  0  0
 12 13  1  0  0  0  0
 13 14  1  0  0  0  0
 15 16  1  0  0  0  0
 15 13  2  0  0  0  0
 17 15  1  0  0  0  0
 18 20  1  0  0  0  0
 19 20  2  0  0  0  0
 20 23  1  0  0  0  0
 21 20  1  0  0  0  0
 21 22  1  0  0  0  0
 23 24  1  0  0  0  0
M  END
>  <minimizedAffinity>
-4.69225025

$$$$

 OpenBabel03242520253D

 24 25  0  0  0  0  0  0  0  0999 V2000
   40.1750   27.2630   41.4100 C   0  0  0  0  0  0  0  0  0  0  0  0
   38.7860   27.4410   41.4910 C   0  0  0  0  0  0  0  0  0  0  0  0
   38.3210   28.6830   41.8940 C   0  0  0  0  0  0  0  0  0  0  0  0
   39.2190   29.6750   42.1940 N   0  0  0  0  0  0  0  0  0  0  0  0
   40.5500   29.4520   42.1000 C   0  0  0  0  0  0  0  0  0  0  0  0
   41.0280   28.2580   41.7130 N   0  0  0  0  0  0  0  0  0  0  0  0
   40.5530   26.3060   41.0990 H   0  0  0  0  0  0  0  0  0  0  0  0
   41.0850   30.3530   42.3780 H   0  0  0  0  0  0  0  0  0  0  0  0
   37.9310   26.3110   41.1460 C   0  0  0  0  0  0  0  0  0  0  0  0
   37.3720   26.0530   39.9100 C   0  0  0  0  0  0  0  0  0  0  0  0
   37.6160   26.7800   39.1580 H   0  0  0  0  0  0  0  0  0  0  0  0
   36.5780   24.9420   39.7190 C   0  0  0  0  0  3  0  0  0  0  0  0
   36.3220   24.0650   40.7470 C   0  0  0  0  0  0  0  0  0  0  0  0
   35.7120   23.2010   40.6220 H   0  0  0  0  0  0  0  0  0  0  0  0
   36.8680   24.3000   41.9900 C   0  0  0  0  0  0  0  0  0  0  0  0
   36.6580   23.5950   42.7970 H   0  0  0  0  0  0  0  0  0  0  0  0
   37.6600   25.4120   42.1730 C   0  0  0  0  0  3  0  0  0  0  0  0
   36.9410   28.8660   41.9750 O   0  0  0  0  0  0  0  0  0  0  0  0
   35.0180   28.8930   40.1810 O   0  0  0  0  0  0  0  0  0  0  0  0
   36.1490   29.7550   40.7340 P   0  0  0  0  0  0  0  0  0  0  0  0
   35.5690   31.1850   41.3920 O   0  0  0  0  0  0  0  0  0  0  0  0
   35.3850   31.8420   40.6570 H   0  0  0  0  0  0  0  0  0  0  0  0
   37.2620   30.0250   39.5010 O   0  0  0  0  0  0  0  0  0  0  0  0
   37.1010   30.8530   38.9800 H   0  0  0  0  0  0  0  0  0  0  0  0
  1  2  2  0  0  0  0
  1  6  1  0  0  0  0
  2  3  1  0  0  0  0
  3 18  1  0  0  0  0
  3  4  2  0  0  0  0
  5  4  1  0  0  0  0
  5  8  1  0  0  0  0
  6  5  2  0  0  0  0
  7  1  1  0  0  0  0
  9  2  1  0  0  0  0
  9 17  1  0  0  0  0
 10  9  2  0  0  0  0
 11 10  1  0  0  0  0
 12 10  1  0  0  0  0
 12 13  2  0  0  0  0
 13 15  1  0  0  0  0
 14 13  1  0  0  0  0
 15 17  2  0  0  0  0
 15 16  1  0  0  0  0
 19 20  2  0  0  0  0
 20 21  1  0  0  0  0
 20 18  1  0  0  0  0
 22 21  1  0  0  0  0
 23 20  1  0  0  0  0
 24 23  1  0  0  0  0
M  END
>  <minimizedAffinity>
-4.69136906

$$$$

 OpenBabel03242520253D

 24 25  0  0  0  0  0  0  0  0999 V2000
   38.4950   26.9630   38.0650 C   0  0  0  0  0  0  0  0  0  0  0  0
   37.7260   27.2300   39.2070 C   0  0  0  0  0  0  0  0  0  0  0  0
   37.0010   28.4120   39.2300 C   0  0  0  0  0  0  0  0  0  0  0  0
   37.0610   29.2600   38.1550 N   0  0  0  0  0  0  0  0  0  0  0  0
   37.8190   28.9560   37.0760 C   0  0  0  0  0  0  0  0  0  0  0  0
   38.5310   27.8180   37.0280 N   0  0  0  0  0  0  0  0  0  0  0  0
   39.0640   26.0510   38.0310 H   0  0  0  0  0  0  0  0  0  0  0  0
   37.7310   29.7480   36.3420 H   0  0  0  0  0  0  0  0  0  0  0  0
   37.7430   26.2500   40.2870 C   0  0  0  0  0  0  0  0  0  0  0  0
   38.5690   26.2630   41.3940 C   0  0  0  0  0  0  0  0  0  0  0  0
   39.2500   27.0920   41.4220 H   0  0  0  0  0  0  0  0  0  0  0  0
   38.4800   25.2680   42.3450 C   0  0  0  0  0  3  0  0  0  0  0  0
   37.5720   24.2430   42.2200 C   0  0  0  0  0  0  0  0  0  0  0  0
   37.4860   23.4650   42.9420 H   0  0  0  0  0  0  0  0  0  0  0  0
   36.7360   24.2080   41.1250 C   0  0  0  0  0  0  0  0  0  0  0  0
   36.0190   23.3880   41.0390 H   0  0  0  0  0  0  0  0  0  0  0  0
   36.8310   25.2050   40.1790 C   0  0  0  0  0  3  0  0  0  0  0  0
   36.2350   28.6820   40.3620 O   0  0  0  0  0  0  0  0  0  0  0  0
   38.1580   30.3500   41.0270 O   0  0  0  0  0  0  0  0  0  0  0  0
   36.7500   29.9240   41.4350 P   0  0  0  0  0  0  0  0  0  0  0  0
   35.6660   31.2000   41.3310 O   0  0  0  0  0  0  0  0  0  0  0  0
   35.7580   31.7850   42.1400 H   0  0  0  0  0  0  0  0  0  0  0  0
   36.8220   29.2710   42.9850 O   0  0  0  0  0  0  0  0  0  0  0  0
   36.6610   29.9260   43.7110 H   0  0  0  0  0  0  0  0  0  0  0  0
  1  2  1  0  0  0  0
  2  3  2  0  0  0  0
  2  9  1  0  0  0  0
  3 18  1  0  0  0  0
  4  3  1  0  0  0  0
  5  4  2  0  0  0  0
  6  5  1  0  0  0  0
  6  1  2  0  0  0  0
  7  1  1  0  0  0  0
  8  5  1  0  0  0  0
  9 10  1  0  0  0  0
 10 11  1  0  0  0  0
 10 12  2  0  0  0  0
 13 12  1  0  0  0  0
 13 14  1  0  0  0  0
 15 13  2  0  0  0  0
 16 15  1  0  0  0  0
 17  9  2  0  0  0  0
 17 15  1  0  0  0  0
 18 20  1  0  0  0  0
 19 20  2  0  0  0  0
 20 23  1  0  0  0  0
 21 20  1  0  0  0  0
 21 22  1  0  0  0  0
 23 24  1  0  0  0  0
M  END
>  <minimizedAffinity>
-4.66760588

$$$$

 OpenBabel03242520253D

 24 25  0  0  0  0  0  0  0  0999 V2000
   40.3120   27.9610   39.8520 C   0  0  0  0  0  0  0  0  0  0  0  0
   39.2500   28.8100   40.1980 C   0  0  0  0  0  0  0  0  0  0  0  0
   39.0010   29.8940   39.3700 C   0  0  0  0  0  0  0  0  0  0  0  0
   39.7870   30.0930   38.2640 N   0  0  0  0  0  0  0  0  0  0  0  0
   40.8000   29.2430   37.9750 C   0  0  0  0  0  0  0  0  0  0  0  0
   41.0630   28.1860   38.7600 N   0  0  0  0  0  0  0  0  0  0  0  0
   40.5190   27.1150   40.4840 H   0  0  0  0  0  0  0  0  0  0  0  0
   41.2950   29.5720   37.0690 H   0  0  0  0  0  0  0  0  0  0  0  0
   38.4860   28.4950   41.3980 C   0  0  0  0  0  0  0  0  0  0  0  0
   38.5740   29.1340   42.6190 C   0  0  0  0  0  0  0  0  0  0  0  0
   39.2880   29.9360   42.6420 H   0  0  0  0  0  0  0  0  0  0  0  0
   37.7890   28.7330   43.6790 C   0  0  0  0  0  3  0  0  0  0  0  0
   36.9000   27.6920   43.5510 C   0  0  0  0  0  0  0  0  0  0  0  0
   36.2840   27.3650   44.3550 H   0  0  0  0  0  0  0  0  0  0  0  0
   36.7920   27.0370   42.3430 C   0  0  0  0  0  0  0  0  0  0  0  0
   36.0820   26.2110   42.2560 H   0  0  0  0  0  0  0  0  0  0  0  0
   37.5810   27.4430   41.2890 C   0  0  0  0  0  3  0  0  0  0  0  0
   37.9470   30.7410   39.7070 O   0  0  0  0  0  0  0  0  0  0  0  0
   39.0780   32.4990   41.3050 O   0  0  0  0  0  0  0  0  0  0  0  0
   38.2810   32.4010   40.0070 P   0  0  0  0  0  0  0  0  0  0  0  0
   39.1460   33.0120   38.7060 O   0  0  0  0  0  0  0  0  0  0  0  0
   39.0880   34.0140   38.7040 H   0  0  0  0  0  0  0  0  0  0  0  0
   36.8120   33.1930   40.2260 O   0  0  0  0  0  0  0  0  0  0  0  0
   36.8200   34.1480   39.9620 H   0  0  0  0  0  0  0  0  0  0  0  0
  1  2  1  0  0  0  0
  1  7  1  0  0  0  0
  2  9  1  0  0  0  0
  3 18  1  0  0  0  0
  3  2  2  0  0  0  0
  4  3  1  0  0  0  0
  5  4  2  0  0  0  0
  5  6  1  0  0  0  0
  6  1  2  0  0  0  0
  8  5  1  0  0  0  0
  9 10  1  0  0  0  0
 10 11  1  0  0  0  0
 10 12  2  0  0  0  0
 13 12  1  0  0  0  0
 13 14  1  0  0  0  0
 15 13  2  0  0  0  0
 16 15  1  0  0  0  0
 17  9  2  0  0  0  0
 17 15  1  0  0  0  0
 18 20  1  0  0  0  0
 20 23  1  0  0  0  0
 20 19  2  0  0  0  0
 21 20  1  0  0  0  0
 22 21  1  0  0  0  0
 24 23  1  0  0  0  0
M  END
>  <minimizedAffinity>
-4.64179945

$$$$

 OpenBabel03242520253D

 24 25  0  0  0  0  0  0  0  0999 V2000
   38.5500   27.0800   41.5580 C   0  0  0  0  0  0  0  0  0  0  0  0
   38.6430   28.3180   40.9040 C   0  0  0  0  0  0  0  0  0  0  0  0
   38.1670   29.4340   41.5750 C   0  0  0  0  0  0  0  0  0  0  0  0
   37.6330   29.2900   42.8300 N   0  0  0  0  0  0  0  0  0  0  0  0
   37.5670   28.0720   43.4160 C   0  0  0  0  0  0  0  0  0  0  0  0
   38.0200   26.9750   42.7880 N   0  0  0  0  0  0  0  0  0  0  0  0
   38.9150   26.2040   41.0510 H   0  0  0  0  0  0  0  0  0  0  0  0
   37.1160   28.1710   44.3970 H   0  0  0  0  0  0  0  0  0  0  0  0
   39.2310   28.3450   39.5700 C   0  0  0  0  0  0  0  0  0  0  0  0
   40.5500   28.6130   39.2600 C   0  0  0  0  0  0  0  0  0  0  0  0
   41.1680   28.8170   40.1150 H   0  0  0  0  0  0  0  0  0  0  0  0
   40.9770   28.6060   37.9490 C   0  0  0  0  0  3  0  0  0  0  0  0
   40.1070   28.3330   36.9200 C   0  0  0  0  0  0  0  0  0  0  0  0
   40.4140   28.3220   35.9000 H   0  0  0  0  0  0  0  0  0  0  0  0
   38.7860   28.0620   37.2020 C   0  0  0  0  0  0  0  0  0  0  0  0
   38.1060   27.8460   36.3750 H   0  0  0  0  0  0  0  0  0  0  0  0
   38.3670   28.0710   38.5150 C   0  0  0  0  0  3  0  0  0  0  0  0
   38.2570   30.6670   40.9320 O   0  0  0  0  0  0  0  0  0  0  0  0
   36.5600   31.0170   38.9510 O   0  0  0  0  0  0  0  0  0  0  0  0
   36.8110   31.4310   40.3990 P   0  0  0  0  0  0  0  0  0  0  0  0
   35.5560   30.9520   41.4030 O   0  0  0  0  0  0  0  0  0  0  0  0
   34.7920   31.5960   41.3170 H   0  0  0  0  0  0  0  0  0  0  0  0
   37.0610   33.0950   40.4380 O   0  0  0  0  0  0  0  0  0  0  0  0
   36.2400   33.6270   40.5960 H   0  0  0  0  0  0  0  0  0  0  0  0
  1  6  1  0  0  0  0
  2  1  2  0  0  0  0
  2  3  1  0  0  0  0
  3  4  2  0  0  0  0
  4  5  1  0  0  0  0
  5  8  1  0  0  0  0
  6  5  2  0  0  0  0
  7  1  1  0  0  0  0
  9  2  1  0  0  0  0
 10  9  1  0  0  0  0
 10 11  1  0  0  0  0
 12 10  2  0  0  0  0
 13 15  2  0  0  0  0
 13 12  1  0  0  0  0
 14 13  1  0  0  0  0
 15 17  1  0  0  0  0
 16 15  1  0  0  0  0
 17  9  2  0  0  0  0
 18  3  1  0  0  0  0
 19 20  2  0  0  0  0
 20 23  1  0  0  0  0
 20 18  1  0  0  0  0
 20 21  1  0  0  0  0
 22 21  1  0  0  0  0
 23 24  1  0  0  0  0
M  END
>  <minimizedAffinity>
-4.6412015

$$$$
