
 OpenBabel03252507093D

 24 25  0  0  0  0  0  0  0  0999 V2000
   38.5720   27.9740   43.5080 C   0  0  0  0  0  0  0  0  0  0  0  0
   38.6560   29.2580   42.9520 C   0  0  0  0  0  0  0  0  0  0  0  0
   38.1780   29.4460   41.6550 C   0  0  0  0  0  0  0  0  0  0  0  0
   37.6510   28.3670   40.9900 N   0  0  0  0  0  0  0  0  0  0  0  0
   37.5890   27.1580   41.5560 C   0  0  0  0  0  0  0  0  0  0  0  0
   38.0390   26.9450   42.7990 N   0  0  0  0  0  0  0  0  0  0  0  0
   38.9180   27.7480   44.5020 H   0  0  0  0  0  0  0  0  0  0  0  0
   39.0860   30.0080   43.5750 H   0  0  0  0  0  0  0  0  0  0  0  0
   37.0190   26.0430   40.8030 C   0  0  0  0  0  0  0  0  0  0  0  0
   36.8980   24.7900   41.3790 C   0  0  0  0  0  0  0  0  0  0  0  0
   37.2160   24.5900   42.3960 H   0  0  0  0  0  0  0  0  0  0  0  0
   36.3470   23.7870   40.6010 C   0  0  0  0  0  3  0  0  0  0  0  0
   35.9170   23.9550   39.2990 C   0  0  0  0  0  0  0  0  0  0  0  0
   35.4930   23.1410   38.7290 H   0  0  0  0  0  0  0  0  0  0  0  0
   36.0410   25.2220   38.7210 C   0  0  0  0  0  0  0  0  0  0  0  0
   35.7120   25.3820   37.7040 H   0  0  0  0  0  0  0  0  0  0  0  0
   36.5860   26.2020   39.5030 C   0  0  0  0  0  3  0  0  0  0  0  0
   38.2710   30.7210   41.1260 O   0  0  0  0  0  0  0  0  0  0  0  0
   36.7770   31.0230   38.9680 O   0  0  0  0  0  0  0  0  0  0  0  0
   36.8830   31.4340   40.4330 P   0  0  0  0  0  0  0  0  0  0  0  0
   35.5380   30.9400   41.3030 O   0  0  0  0  0  0  0  0  0  0  0  0
   34.9130   30.4970   40.6630 H   0  0  0  0  0  0  0  0  0  0  0  0
   37.0900   33.1130   40.4890 O   0  0  0  0  0  0  0  0  0  0  0  0
   37.7280   33.3380   39.7650 H   0  0  0  0  0  0  0  0  0  0  0  0
  1  7  1  0  0  0  0
  2  1  1  0  0  0  0
  2  8  1  0  0  0  0
  3  2  2  0  0  0  0
  4  5  2  0  0  0  0
  4  3  1  0  0  0  0
  5  6  1  0  0  0  0
  6  1  2  0  0  0  0
  9 10  1  0  0  0  0
  9  5  1  0  0  0  0
 10 11  1  0  0  0  0
 12 10  2  0  0  0  0
 13 12  1  0  0  0  0
 14 13  1  0  0  0  0
 15 13  2  0  0  0  0
 15 17  1  0  0  0  0
 16 15  1  0  0  0  0
 17  9  2  0  0  0  0
 18  3  1  0  0  0  0
 19 20  2  0  0  0  0
 20 23  1  0  0  0  0
 20 18  1  0  0  0  0
 20 21  1  0  0  0  0
 22 21  1  0  0  0  0
 24 23  1  0  0  0  0
M  END
>  <minimizedAffinity>
-5.64075232

$$$$

 OpenBabel03252507093D

 24 25  0  0  0  0  0  0  0  0999 V2000
   35.4580   28.0650   37.1040 C   0  0  0  0  0  0  0  0  0  0  0  0
   35.7960   29.4090   37.3180 C   0  0  0  0  0  0  0  0  0  0  0  0
   36.4230   29.7460   38.5180 C   0  0  0  0  0  0  0  0  0  0  0  0
   36.6770   28.7490   39.4260 N   0  0  0  0  0  0  0  0  0  0  0  0
   36.3380   27.4790   39.1830 C   0  0  0  0  0  0  0  0  0  0  0  0
   35.7350   27.1220   38.0420 N   0  0  0  0  0  0  0  0  0  0  0  0
   34.9730   27.7250   36.2060 H   0  0  0  0  0  0  0  0  0  0  0  0
   35.5440   30.0830   36.5330 H   0  0  0  0  0  0  0  0  0  0  0  0
   36.6300   26.4560   40.1850 C   0  0  0  0  0  0  0  0  0  0  0  0
   37.0470   26.8100   41.4560 C   0  0  0  0  0  0  0  0  0  0  0  0
   37.1710   27.8460   41.7540 H   0  0  0  0  0  0  0  0  0  0  0  0
   37.3040   25.7830   42.3460 C   0  0  0  0  0  3  0  0  0  0  0  0
   37.1730   24.4400   42.0500 C   0  0  0  0  0  0  0  0  0  0  0  0
   37.3860   23.6710   42.7790 H   0  0  0  0  0  0  0  0  0  0  0  0
   36.7510   24.0860   40.7650 C   0  0  0  0  0  0  0  0  0  0  0  0
   36.6400   23.0430   40.5050 H   0  0  0  0  0  0  0  0  0  0  0  0
   36.5020   25.1130   39.8970 C   0  0  0  0  0  3  0  0  0  0  0  0
   36.7480   31.0770   38.7080 O   0  0  0  0  0  0  0  0  0  0  0  0
   38.2960   31.1240   40.8490 O   0  0  0  0  0  0  0  0  0  0  0  0
   36.9760   31.6560   40.2980 P   0  0  0  0  0  0  0  0  0  0  0  0
   36.9630   33.3320   40.2640 O   0  0  0  0  0  0  0  0  0  0  0  0
   37.8280   33.6470   40.6510 H   0  0  0  0  0  0  0  0  0  0  0  0
   35.7250   31.0330   41.2520 O   0  0  0  0  0  0  0  0  0  0  0  0
   35.9530   30.0840   41.4240 H   0  0  0  0  0  0  0  0  0  0  0  0
  1  2  2  0  0  0  0
  1  6  1  0  0  0  0
  2  3  1  0  0  0  0
  3 18  1  0  0  0  0
  3  4  2  0  0  0  0
  5  4  1  0  0  0  0
  5  9  1  0  0  0  0
  6  5  2  0  0  0  0
  7  1  1  0  0  0  0
  8  2  1  0  0  0  0
  9 10  1  0  0  0  0
 10 11  1  0  0  0  0
 10 12  2  0  0  0  0
 13 12  1  0  0  0  0
 13 14  1  0  0  0  0
 15 13  2  0  0  0  0
 16 15  1  0  0  0  0
 17  9  2  0  0  0  0
 17 15  1  0  0  0  0
 18 20  1  0  0  0  0
 20 19  2  0  0  0  0
 20 23  1  0  0  0  0
 21 20  1  0  0  0  0
 21 22  1  0  0  0  0
 23 24  1  0  0  0  0
M  END
>  <minimizedAffinity>
-5.46793747

$$$$

 OpenBabel03252507093D

 24 25  0  0  0  0  0  0  0  0999 V2000
   36.1970   28.0840   36.8010 C   0  0  0  0  0  0  0  0  0  0  0  0
   36.3090   29.4490   37.1030 C   0  0  0  0  0  0  0  0  0  0  0  0
   36.5530   29.8100   38.4280 C   0  0  0  0  0  0  0  0  0  0  0  0
   36.6710   28.8160   39.3670 N   0  0  0  0  0  0  0  0  0  0  0  0
   36.5580   27.5260   39.0370 C   0  0  0  0  0  0  0  0  0  0  0  0
   36.3240   27.1450   37.7750 N   0  0  0  0  0  0  0  0  0  0  0  0
   36.0110   27.7240   35.8040 H   0  0  0  0  0  0  0  0  0  0  0  0
   36.1970   30.1180   36.2820 H   0  0  0  0  0  0  0  0  0  0  0  0
   36.6920   26.5060   40.0760 C   0  0  0  0  0  0  0  0  0  0  0  0
   36.5150   25.1670   39.7770 C   0  0  0  0  0  0  0  0  0  0  0  0
   36.2750   24.8250   38.7760 H   0  0  0  0  0  0  0  0  0  0  0  0
   36.6590   24.2640   40.8160 C   0  0  0  0  0  3  0  0  0  0  0  0
   36.9630   24.6110   42.1170 C   0  0  0  0  0  0  0  0  0  0  0  0
   37.0650   23.8700   42.8970 H   0  0  0  0  0  0  0  0  0  0  0  0
   37.1410   25.9660   42.4150 C   0  0  0  0  0  0  0  0  0  0  0  0
   37.3790   26.2670   43.4250 H   0  0  0  0  0  0  0  0  0  0  0  0
   36.9950   26.8450   41.3780 C   0  0  0  0  0  3  0  0  0  0  0  0
   36.6590   31.1620   38.7050 O   0  0  0  0  0  0  0  0  0  0  0  0
   38.2840   31.0500   40.7860 O   0  0  0  0  0  0  0  0  0  0  0  0
   36.9680   31.6590   40.3080 P   0  0  0  0  0  0  0  0  0  0  0  0
   37.0230   33.3340   40.3480 O   0  0  0  0  0  0  0  0  0  0  0  0
   37.9140   33.5960   40.7150 H   0  0  0  0  0  0  0  0  0  0  0  0
   35.7270   31.0440   41.2810 O   0  0  0  0  0  0  0  0  0  0  0  0
   35.9220   30.0790   41.4030 H   0  0  0  0  0  0  0  0  0  0  0  0
  1  2  2  0  0  0  0
  1  6  1  0  0  0  0
  2  3  1  0  0  0  0
  3 18  1  0  0  0  0
  3  4  2  0  0  0  0
  5  4  1  0  0  0  0
  5  9  1  0  0  0  0
  6  5  2  0  0  0  0
  7  1  1  0  0  0  0
  8  2  1  0  0  0  0
  9 17  1  0  0  0  0
 10  9  2  0  0  0  0
 10 12  1  0  0  0  0
 11 10  1  0  0  0  0
 12 13  2  0  0  0  0
 13 15  1  0  0  0  0
 13 14  1  0  0  0  0
 15 16  1  0  0  0  0
 17 15  2  0  0  0  0
 18 20  1  0  0  0  0
 20 21  1  0  0  0  0
 20 19  2  0  0  0  0
 20 23  1  0  0  0  0
 21 22  1  0  0  0  0
 23 24  1  0  0  0  0
M  END
>  <minimizedAffinity>
-5.46130371

$$$$

 OpenBabel03252507093D

 24 25  0  0  0  0  0  0  0  0999 V2000
   36.8590   29.7280   37.7440 C   0  0  0  0  0  0  0  0  0  0  0  0
   37.3760   31.0320   37.7530 C   0  0  0  0  0  0  0  0  0  0  0  0
   37.8440   31.5440   38.9640 C   0  0  0  0  0  0  0  0  0  0  0  0
   37.7760   30.7510   40.0810 N   0  0  0  0  0  0  0  0  0  0  0  0
   37.2750   29.5120   40.0290 C   0  0  0  0  0  0  0  0  0  0  0  0
   36.8180   28.9900   38.8840 N   0  0  0  0  0  0  0  0  0  0  0  0
   36.4800   29.2610   36.8520 H   0  0  0  0  0  0  0  0  0  0  0  0
   37.3720   31.5410   36.8180 H   0  0  0  0  0  0  0  0  0  0  0  0
   37.2250   28.7090   41.2490 C   0  0  0  0  0  0  0  0  0  0  0  0
   36.9140   27.3610   41.1950 C   0  0  0  0  0  0  0  0  0  0  0  0
   36.6980   26.8560   40.2590 H   0  0  0  0  0  0  0  0  0  0  0  0
   36.8870   26.6700   42.3930 C   0  0  0  0  0  3  0  0  0  0  0  0
   37.1470   27.2340   43.6270 C   0  0  0  0  0  0  0  0  0  0  0  0
   37.1140   26.6540   44.5380 H   0  0  0  0  0  0  0  0  0  0  0  0
   37.4620   28.5950   43.6770 C   0  0  0  0  0  0  0  0  0  0  0  0
   37.6700   29.0630   44.6290 H   0  0  0  0  0  0  0  0  0  0  0  0
   37.4840   29.2640   42.4850 C   0  0  0  0  0  3  0  0  0  0  0  0
   38.3500   32.8330   38.9500 O   0  0  0  0  0  0  0  0  0  0  0  0
   40.5840   34.1570   39.4350 O   0  0  0  0  0  0  0  0  0  0  0  0
   39.5340   33.2700   40.0990 P   0  0  0  0  0  0  0  0  0  0  0  0
   38.7800   34.0660   41.3670 O   0  0  0  0  0  0  0  0  0  0  0  0
   39.2050   34.9650   41.4530 H   0  0  0  0  0  0  0  0  0  0  0  0
   40.3000   31.8500   40.6090 O   0  0  0  0  0  0  0  0  0  0  0  0
   40.9170   31.5890   39.8780 H   0  0  0  0  0  0  0  0  0  0  0  0
  1  2  2  0  0  0  0
  1  6  1  0  0  0  0
  2  3  1  0  0  0  0
  3  4  2  0  0  0  0
  5  4  1  0  0  0  0
  5  9  1  0  0  0  0
  6  5  2  0  0  0  0
  7  1  1  0  0  0  0
  8  2  1  0  0  0  0
  9 17  1  0  0  0  0
 10  9  2  0  0  0  0
 10 12  1  0  0  0  0
 11 10  1  0  0  0  0
 12 13  2  0  0  0  0
 13 15  1  0  0  0  0
 13 14  1  0  0  0  0
 15 16  1  0  0  0  0
 17 15  2  0  0  0  0
 18  3  1  0  0  0  0
 18 20  1  0  0  0  0
 19 20  2  0  0  0  0
 20 23  1  0  0  0  0
 20 21  1  0  0  0  0
 21 22  1  0  0  0  0
 24 23  1  0  0  0  0
M  END
>  <minimizedAffinity>
-4.8946929

$$$$

 OpenBabel03252507093D

 24 25  0  0  0  0  0  0  0  0999 V2000
   36.5380   29.7090   37.7480 C   0  0  0  0  0  0  0  0  0  0  0  0
   37.3690   30.7890   37.4190 C   0  0  0  0  0  0  0  0  0  0  0  0
   38.2760   31.2370   38.3800 C   0  0  0  0  0  0  0  0  0  0  0  0
   38.3080   30.6010   39.5960 N   0  0  0  0  0  0  0  0  0  0  0  0
   37.4980   29.5740   39.8700 C   0  0  0  0  0  0  0  0  0  0  0  0
   36.6180   29.1190   38.9700 N   0  0  0  0  0  0  0  0  0  0  0  0
   35.8140   29.3050   37.0620 H   0  0  0  0  0  0  0  0  0  0  0  0
   37.2430   31.1930   36.4410 H   0  0  0  0  0  0  0  0  0  0  0  0
   37.5740   28.9320   41.1800 C   0  0  0  0  0  0  0  0  0  0  0  0
   38.6820   29.1080   41.9900 C   0  0  0  0  0  0  0  0  0  0  0  0
   39.5250   29.7210   41.6880 H   0  0  0  0  0  0  0  0  0  0  0  0
   38.6770   28.4670   43.2160 C   0  0  0  0  0  3  0  0  0  0  0  0
   37.6480   27.6700   43.6780 C   0  0  0  0  0  0  0  0  0  0  0  0
   37.6890   27.1880   44.6440 H   0  0  0  0  0  0  0  0  0  0  0  0
   36.5300   27.4960   42.8570 C   0  0  0  0  0  0  0  0  0  0  0  0
   35.7090   26.8770   43.1920 H   0  0  0  0  0  0  0  0  0  0  0  0
   36.5500   28.1350   41.6480 C   0  0  0  0  0  3  0  0  0  0  0  0
   39.0860   32.3050   38.0340 O   0  0  0  0  0  0  0  0  0  0  0  0
   41.4420   31.9120   39.1640 O   0  0  0  0  0  0  0  0  0  0  0  0
   40.7560   32.0370   37.8060 P   0  0  0  0  0  0  0  0  0  0  0  0
   40.9540   30.6450   36.8940 O   0  0  0  0  0  0  0  0  0  0  0  0
   41.5220   30.0170   37.4240 H   0  0  0  0  0  0  0  0  0  0  0  0
   41.3890   33.3990   37.0270 O   0  0  0  0  0  0  0  0  0  0  0  0
   41.4640   34.1060   37.7180 H   0  0  0  0  0  0  0  0  0  0  0  0
  1  6  1  0  0  0  0
  2  1  2  0  0  0  0
  2  3  1  0  0  0  0
  3  4  2  0  0  0  0
  4  5  1  0  0  0  0
  5  9  1  0  0  0  0
  6  5  2  0  0  0  0
  7  1  1  0  0  0  0
  8  2  1  0  0  0  0
  9 17  2  0  0  0  0
  9 10  1  0  0  0  0
 10 12  2  0  0  0  0
 11 10  1  0  0  0  0
 12 13  1  0  0  0  0
 13 14  1  0  0  0  0
 15 16  1  0  0  0  0
 15 13  2  0  0  0  0
 17 15  1  0  0  0  0
 18  3  1  0  0  0  0
 20 18  1  0  0  0  0
 20 19  2  0  0  0  0
 21 22  1  0  0  0  0
 21 20  1  0  0  0  0
 23 24  1  0  0  0  0
 23 20  1  0  0  0  0
M  END
>  <minimizedAffinity>
-4.80645514

$$$$

 OpenBabel03252507093D

 24 25  0  0  0  0  0  0  0  0999 V2000
   38.8940   30.0270   42.5650 C   0  0  0  0  0  0  0  0  0  0  0  0
   39.3700   30.7580   41.4680 C   0  0  0  0  0  0  0  0  0  0  0  0
   39.2590   30.1880   40.2000 C   0  0  0  0  0  0  0  0  0  0  0  0
   38.6910   28.9430   40.0890 N   0  0  0  0  0  0  0  0  0  0  0  0
   38.2490   28.2780   41.1610 C   0  0  0  0  0  0  0  0  0  0  0  0
   38.3410   28.7970   42.3920 N   0  0  0  0  0  0  0  0  0  0  0  0
   38.9430   30.3960   43.5740 H   0  0  0  0  0  0  0  0  0  0  0  0
   39.7880   31.7120   41.6910 H   0  0  0  0  0  0  0  0  0  0  0  0
   37.6530   26.9560   40.9880 C   0  0  0  0  0  0  0  0  0  0  0  0
   37.1900   26.5470   39.7490 C   0  0  0  0  0  0  0  0  0  0  0  0
   37.2510   27.1820   38.8720 H   0  0  0  0  0  0  0  0  0  0  0  0
   36.6390   25.2800   39.6680 C   0  0  0  0  0  3  0  0  0  0  0  0
   36.5220   24.4080   40.7320 C   0  0  0  0  0  0  0  0  0  0  0  0
   36.0830   23.4260   40.6210 H   0  0  0  0  0  0  0  0  0  0  0  0
   36.9910   24.8250   41.9820 C   0  0  0  0  0  0  0  0  0  0  0  0
   36.9130   24.1630   42.8330 H   0  0  0  0  0  0  0  0  0  0  0  0
   37.5330   26.0790   42.0460 C   0  0  0  0  0  3  0  0  0  0  0  0
   39.7360   30.9270   39.1310 O   0  0  0  0  0  0  0  0  0  0  0  0
   37.3780   31.7850   38.3020 O   0  0  0  0  0  0  0  0  0  0  0  0
   38.7060   31.2220   37.8020 P   0  0  0  0  0  0  0  0  0  0  0  0
   39.4680   32.2950   36.7640 O   0  0  0  0  0  0  0  0  0  0  0  0
   38.8690   33.0860   36.6560 H   0  0  0  0  0  0  0  0  0  0  0  0
   38.3940   29.7350   37.0580 O   0  0  0  0  0  0  0  0  0  0  0  0
   37.7340   29.2690   37.6330 H   0  0  0  0  0  0  0  0  0  0  0  0
  1  7  1  0  0  0  0
  2  8  1  0  0  0  0
  2  1  2  0  0  0  0
  3  2  1  0  0  0  0
  4  3  2  0  0  0  0
  4  5  1  0  0  0  0
  5  6  2  0  0  0  0
  6  1  1  0  0  0  0
  9  5  1  0  0  0  0
  9 17  1  0  0  0  0
 10  9  2  0  0  0  0
 11 10  1  0  0  0  0
 12 10  1  0  0  0  0
 12 13  2  0  0  0  0
 13 15  1  0  0  0  0
 14 13  1  0  0  0  0
 15 17  2  0  0  0  0
 15 16  1  0  0  0  0
 18  3  1  0  0  0  0
 20 19  2  0  0  0  0
 20 18  1  0  0  0  0
 21 20  1  0  0  0  0
 22 21  1  0  0  0  0
 23 24  1  0  0  0  0
 23 20  1  0  0  0  0
M  END
>  <minimizedAffinity>
-4.71506643

$$$$

 OpenBabel03252507093D

 24 25  0  0  0  0  0  0  0  0999 V2000
   35.5920   28.7770   37.2290 C   0  0  0  0  0  0  0  0  0  0  0  0
   36.3380   29.9530   37.0710 C   0  0  0  0  0  0  0  0  0  0  0  0
   37.2200   30.3150   38.0910 C   0  0  0  0  0  0  0  0  0  0  0  0
   37.3120   29.5030   39.1930 N   0  0  0  0  0  0  0  0  0  0  0  0
   36.5830   28.3880   39.3050 C   0  0  0  0  0  0  0  0  0  0  0  0
   35.7290   28.0140   38.3450 N   0  0  0  0  0  0  0  0  0  0  0  0
   34.8930   28.4300   36.4890 H   0  0  0  0  0  0  0  0  0  0  0  0
   36.1720   30.4920   36.1680 H   0  0  0  0  0  0  0  0  0  0  0  0
   36.7200   27.5590   40.5010 C   0  0  0  0  0  0  0  0  0  0  0  0
   36.5440   28.1030   41.7610 C   0  0  0  0  0  0  0  0  0  0  0  0
   36.3000   29.1500   41.9090 H   0  0  0  0  0  0  0  0  0  0  0  0
   36.6910   27.2530   42.8430 C   0  0  0  0  0  3  0  0  0  0  0  0
   36.9990   25.9100   42.7450 C   0  0  0  0  0  0  0  0  0  0  0  0
   37.1050   25.2840   43.6200 H   0  0  0  0  0  0  0  0  0  0  0  0
   37.1760   25.3650   41.4700 C   0  0  0  0  0  0  0  0  0  0  0  0
   37.4190   24.3170   41.3640 H   0  0  0  0  0  0  0  0  0  0  0  0
   37.0280   26.2180   40.4120 C   0  0  0  0  0  3  0  0  0  0  0  0
   37.9450   31.4800   37.9150 O   0  0  0  0  0  0  0  0  0  0  0  0
   40.2420   31.7580   39.1910 O   0  0  0  0  0  0  0  0  0  0  0  0
   39.6480   31.3910   37.8340 P   0  0  0  0  0  0  0  0  0  0  0  0
   40.0810   29.8370   37.3810 O   0  0  0  0  0  0  0  0  0  0  0  0
   40.6800   29.4720   38.0910 H   0  0  0  0  0  0  0  0  0  0  0  0
   40.1660   32.5460   36.7110 O   0  0  0  0  0  0  0  0  0  0  0  0
   40.1030   33.4240   37.1660 H   0  0  0  0  0  0  0  0  0  0  0  0
  1  6  1  0  0  0  0
  2  1  2  0  0  0  0
  2  3  1  0  0  0  0
  3  4  2  0  0  0  0
  4  5  1  0  0  0  0
  5  9  1  0  0  0  0
  6  5  2  0  0  0  0
  7  1  1  0  0  0  0
  8  2  1  0  0  0  0
  9 10  1  0  0  0  0
 10 11  1  0  0  0  0
 10 12  2  0  0  0  0
 13 12  1  0  0  0  0
 13 14  1  0  0  0  0
 15 13  2  0  0  0  0
 16 15  1  0  0  0  0
 17  9  2  0  0  0  0
 17 15  1  0  0  0  0
 18  3  1  0  0  0  0
 20 18  1  0  0  0  0
 20 19  2  0  0  0  0
 21 20  1  0  0  0  0
 21 22  1  0  0  0  0
 23 24  1  0  0  0  0
 23 20  1  0  0  0  0
M  END
>  <minimizedAffinity>
-4.71284485

$$$$

 OpenBabel03252507093D

 24 25  0  0  0  0  0  0  0  0999 V2000
   37.6590   28.7510   43.6170 C   0  0  0  0  0  0  0  0  0  0  0  0
   37.4360   27.3680   43.5680 C   0  0  0  0  0  0  0  0  0  0  0  0
   37.1930   26.7850   42.3240 C   0  0  0  0  0  0  0  0  0  0  0  0
   37.1830   27.5910   41.2140 N   0  0  0  0  0  0  0  0  0  0  0  0
   37.4000   28.9070   41.3030 C   0  0  0  0  0  0  0  0  0  0  0  0
   37.6370   29.4980   42.4810 N   0  0  0  0  0  0  0  0  0  0  0  0
   37.8540   29.2760   44.5360 H   0  0  0  0  0  0  0  0  0  0  0  0
   37.4710   26.8580   44.5020 H   0  0  0  0  0  0  0  0  0  0  0  0
   37.3780   29.7210   40.0900 C   0  0  0  0  0  0  0  0  0  0  0  0
   37.0490   31.0640   40.1450 C   0  0  0  0  0  0  0  0  0  0  0  0
   36.7980   31.5580   41.0780 H   0  0  0  0  0  0  0  0  0  0  0  0
   37.0510   31.7650   38.9530 C   0  0  0  0  0  3  0  0  0  0  0  0
   37.3570   31.2160   37.7230 C   0  0  0  0  0  0  0  0  0  0  0  0
   37.3450   31.8030   36.8160 H   0  0  0  0  0  0  0  0  0  0  0  0
   37.6900   29.8580   37.6710 C   0  0  0  0  0  0  0  0  0  0  0  0
   37.9340   29.4020   36.7220 H   0  0  0  0  0  0  0  0  0  0  0  0
   37.6830   29.1790   38.8580 C   0  0  0  0  0  3  0  0  0  0  0  0
   36.9750   25.4180   42.2990 O   0  0  0  0  0  0  0  0  0  0  0  0
   37.5780   23.1720   41.0440 O   0  0  0  0  0  0  0  0  0  0  0  0
   38.2060   24.3940   41.7090 P   0  0  0  0  0  0  0  0  0  0  0  0
   39.1460   25.2590   40.6240 O   0  0  0  0  0  0  0  0  0  0  0  0
   39.1300   24.7690   39.7540 H   0  0  0  0  0  0  0  0  0  0  0  0
   39.1060   23.8580   43.0380 O   0  0  0  0  0  0  0  0  0  0  0  0
   38.5580   23.1610   43.4820 H   0  0  0  0  0  0  0  0  0  0  0  0
  1  7  1  0  0  0  0
  2  1  1  0  0  0  0
  2  8  1  0  0  0  0
  3  2  2  0  0  0  0
  4  5  2  0  0  0  0
  4  3  1  0  0  0  0
  5  6  1  0  0  0  0
  6  1  2  0  0  0  0
  9 10  1  0  0  0  0
  9  5  1  0  0  0  0
 10 11  1  0  0  0  0
 12 10  2  0  0  0  0
 13 12  1  0  0  0  0
 14 13  1  0  0  0  0
 15 13  2  0  0  0  0
 15 17  1  0  0  0  0
 16 15  1  0  0  0  0
 17  9  2  0  0  0  0
 18  3  1  0  0  0  0
 19 20  2  0  0  0  0
 20 18  1  0  0  0  0
 20 23  1  0  0  0  0
 21 20  1  0  0  0  0
 22 21  1  0  0  0  0
 23 24  1  0  0  0  0
M  END
>  <minimizedAffinity>
-4.71238613

$$$$

 OpenBabel03252507093D

 24 25  0  0  0  0  0  0  0  0999 V2000
   37.4670   30.6560   41.4000 C   0  0  0  0  0  0  0  0  0  0  0  0
   36.2520   30.5330   40.7120 C   0  0  0  0  0  0  0  0  0  0  0  0
   35.7220   29.2540   40.5360 C   0  0  0  0  0  0  0  0  0  0  0  0
   36.4150   28.1830   41.0430 N   0  0  0  0  0  0  0  0  0  0  0  0
   37.5720   28.3430   41.6930 C   0  0  0  0  0  0  0  0  0  0  0  0
   38.1070   29.5560   41.8800 N   0  0  0  0  0  0  0  0  0  0  0  0
   37.9400   31.6050   41.5770 H   0  0  0  0  0  0  0  0  0  0  0  0
   35.8170   31.4430   40.3700 H   0  0  0  0  0  0  0  0  0  0  0  0
   38.2700   27.1690   42.2130 C   0  0  0  0  0  0  0  0  0  0  0  0
   39.1970   27.2930   43.2330 C   0  0  0  0  0  0  0  0  0  0  0  0
   39.4380   28.2510   43.6800 H   0  0  0  0  0  0  0  0  0  0  0  0
   39.8140   26.1340   43.6700 C   0  0  0  0  0  3  0  0  0  0  0  0
   39.5680   24.8750   43.1570 C   0  0  0  0  0  0  0  0  0  0  0  0
   40.0750   23.9970   43.5300 H   0  0  0  0  0  0  0  0  0  0  0  0
   38.6300   24.7550   42.1270 C   0  0  0  0  0  0  0  0  0  0  0  0
   38.4170   23.7820   41.7060 H   0  0  0  0  0  0  0  0  0  0  0  0
   38.0290   25.9090   41.7060 C   0  0  0  0  0  3  0  0  0  0  0  0
   34.5220   29.1560   39.8540 O   0  0  0  0  0  0  0  0  0  0  0  0
   35.2210   29.5120   37.3310 O   0  0  0  0  0  0  0  0  0  0  0  0
   34.5200   28.5310   38.2660 P   0  0  0  0  0  0  0  0  0  0  0  0
   35.2940   27.0440   38.2770 O   0  0  0  0  0  0  0  0  0  0  0  0
   36.0530   27.0950   37.6290 H   0  0  0  0  0  0  0  0  0  0  0  0
   32.9080   28.4010   37.7700 O   0  0  0  0  0  0  0  0  0  0  0  0
   32.6100   29.3200   37.5490 H   0  0  0  0  0  0  0  0  0  0  0  0
  1  7  1  0  0  0  0
  1  6  1  0  0  0  0
  2  1  2  0  0  0  0
  3  2  1  0  0  0  0
  3  4  2  0  0  0  0
  4  5  1  0  0  0  0
  5  6  2  0  0  0  0
  5  9  1  0  0  0  0
  8  2  1  0  0  0  0
  9 10  1  0  0  0  0
 10 12  2  0  0  0  0
 10 11  1  0  0  0  0
 13 14  1  0  0  0  0
 13 12  1  0  0  0  0
 15 13  2  0  0  0  0
 16 15  1  0  0  0  0
 17 15  1  0  0  0  0
 17  9  2  0  0  0  0
 18  3  1  0  0  0  0
 19 20  2  0  0  0  0
 20 21  1  0  0  0  0
 20 18  1  0  0  0  0
 22 21  1  0  0  0  0
 23 20  1  0  0  0  0
 24 23  1  0  0  0  0
M  END
>  <minimizedAffinity>
-4.64284945

$$$$
