
 OpenBabel03252501563D

 21 22  0  0  0  0  0  0  0  0999 V2000
   39.4410   32.2670   41.0880 C   0  0  0  0  0  0  0  0  0  0  0  0
   39.1640   31.0150   41.6470 C   0  0  0  0  0  0  0  0  0  0  0  0
   37.9020   30.4830   41.4320 C   0  0  0  0  0  0  0  0  0  0  0  0
   36.9960   31.1900   40.6940 N   0  0  0  0  0  0  0  0  0  0  0  0
   37.3180   32.4030   40.1740 C   0  0  0  0  0  0  0  0  0  0  0  0
   38.5380   32.9540   40.3630 N   0  0  0  0  0  0  0  0  0  0  0  0
   40.4170   32.6910   41.2480 H   0  0  0  0  0  0  0  0  0  0  0  0
   36.6190   32.9830   39.5860 H   0  0  0  0  0  0  0  0  0  0  0  0
   37.5860   29.1770   42.0050 C   0  0  0  0  0  0  0  0  0  0  0  0
   37.3690   28.8550   43.3280 C   0  0  0  0  0  0  0  0  0  0  0  0
   37.4480   29.6790   44.0000 H   0  0  0  0  0  0  0  0  0  0  0  0
   37.0800   27.5520   43.6800 C   0  0  0  0  0  3  0  0  0  0  0  0
   37.0070   26.5740   42.7090 C   0  0  0  0  0  0  0  0  0  0  0  0
   36.7700   25.5850   43.1200 H   0  0  0  0  0  0  0  0  0  0  0  0
   37.2210   26.8830   41.3770 C   0  0  0  0  0  0  0  0  0  0  0  0
   37.1450   26.0560   40.6780 H   0  0  0  0  0  0  0  0  0  0  0  0
   37.5130   28.1940   41.0230 C   0  0  0  0  0  3  0  0  0  0  0  0
   40.2190   30.3480   42.4240 C   0  0  0  0  0  0  0  0  0  0  0  0
   40.3320   30.7000   43.4620 H   0  0  0  0  0  0  0  0  0  0  0  0
   40.1790   29.2220   42.3610 H   0  0  0  0  0  0  0  0  0  0  0  0
   41.2040   30.5920   41.9300 H   0  0  0  0  0  0  0  0  0  0  0  0
  1  7  1  0  0  0  0
  1  2  1  0  0  0  0
  2 18  1  0  0  0  0
  3  2  2  0  0  0  0
  3  9  1  0  0  0  0
  4  3  1  0  0  0  0
  5  6  1  0  0  0  0
  5  4  2  0  0  0  0
  6  1  2  0  0  0  0
  8  5  1  0  0  0  0
  9 10  1  0  0  0  0
 10 12  2  0  0  0  0
 10 11  1  0  0  0  0
 13 14  1  0  0  0  0
 13 12  1  0  0  0  0
 15 13  2  0  0  0  0
 16 15  1  0  0  0  0
 17 15  1  0  0  0  0
 17  9  2  0  0  0  0
 18 19  1  0  0  0  0
 20 18  1  0  0  0  0
 21 18  1  0  0  0  0
M  END
>  <minimizedAffinity>
-4.27880621

$$$$

 OpenBabel03252501563D

 21 22  0  0  0  0  0  0  0  0999 V2000
   37.5360   32.3570   40.3910 C   0  0  0  0  0  0  0  0  0  0  0  0
   37.1740   31.0490   40.7270 C   0  0  0  0  0  0  0  0  0  0  0  0
   38.0990   30.2870   41.4240 C   0  0  0  0  0  0  0  0  0  0  0  0
   39.3060   30.8360   41.7490 N   0  0  0  0  0  0  0  0  0  0  0  0
   39.6070   32.1140   41.3980 C   0  0  0  0  0  0  0  0  0  0  0  0
   38.7300   32.8870   40.7190 N   0  0  0  0  0  0  0  0  0  0  0  0
   36.8260   32.9590   39.8500 H   0  0  0  0  0  0  0  0  0  0  0  0
   40.5550   32.5730   41.6450 H   0  0  0  0  0  0  0  0  0  0  0  0
   37.7470   28.9160   41.7860 C   0  0  0  0  0  0  0  0  0  0  0  0
   37.7340   27.7960   40.9810 C   0  0  0  0  0  0  0  0  0  0  0  0
   38.0210   27.9780   39.9710 H   0  0  0  0  0  0  0  0  0  0  0  0
   37.3690   26.5750   41.5090 C   0  0  0  0  0  3  0  0  0  0  0  0
   37.0180   26.4750   42.8400 C   0  0  0  0  0  0  0  0  0  0  0  0
   36.7500   25.4510   43.1330 H   0  0  0  0  0  0  0  0  0  0  0  0
   37.0270   27.5900   43.6590 C   0  0  0  0  0  0  0  0  0  0  0  0
   36.7370   27.4240   44.6920 H   0  0  0  0  0  0  0  0  0  0  0  0
   37.3940   28.8190   43.1280 C   0  0  0  0  0  3  0  0  0  0  0  0
   35.8460   30.5650   40.3220 C   0  0  0  0  0  0  0  0  0  0  0  0
   35.7660   30.2360   39.2720 H   0  0  0  0  0  0  0  0  0  0  0  0
   35.4050   29.8110   41.0360 H   0  0  0  0  0  0  0  0  0  0  0  0
   35.1330   31.4360   40.4030 H   0  0  0  0  0  0  0  0  0  0  0  0
  1  6  2  0  0  0  0
  1  2  1  0  0  0  0
  2  3  2  0  0  0  0
  3  4  1  0  0  0  0
  3  9  1  0  0  0  0
  5  8  1  0  0  0  0
  5  4  2  0  0  0  0
  6  5  1  0  0  0  0
  7  1  1  0  0  0  0
  9 17  1  0  0  0  0
 10 12  1  0  0  0  0
 10  9  2  0  0  0  0
 11 10  1  0  0  0  0
 12 13  2  0  0  0  0
 13 14  1  0  0  0  0
 13 15  1  0  0  0  0
 15 16  1  0  0  0  0
 17 15  2  0  0  0  0
 18 21  1  0  0  0  0
 18  2  1  0  0  0  0
 18 20  1  0  0  0  0
 19 18  1  0  0  0  0
M  END
>  <minimizedAffinity>
-4.24079132

$$$$

 OpenBabel03252501563D

 21 22  0  0  0  0  0  0  0  0999 V2000
   35.9430   29.6190   37.8500 C   0  0  0  0  0  0  0  0  0  0  0  0
   35.9830   29.2580   39.2000 C   0  0  0  0  0  0  0  0  0  0  0  0
   37.2170   28.9340   39.7410 C   0  0  0  0  0  0  0  0  0  0  0  0
   38.3270   28.9800   38.9460 N   0  0  0  0  0  0  0  0  0  0  0  0
   38.2320   29.3380   37.6390 C   0  0  0  0  0  0  0  0  0  0  0  0
   37.0450   29.6610   37.0770 N   0  0  0  0  0  0  0  0  0  0  0  0
   34.9900   29.8730   37.4180 H   0  0  0  0  0  0  0  0  0  0  0  0
   39.0950   29.3840   36.9890 H   0  0  0  0  0  0  0  0  0  0  0  0
   37.2870   28.5510   41.1490 C   0  0  0  0  0  0  0  0  0  0  0  0
   37.5510   29.3530   42.2400 C   0  0  0  0  0  0  0  0  0  0  0  0
   37.7220   30.3780   42.0010 H   0  0  0  0  0  0  0  0  0  0  0  0
   37.5750   28.8050   43.5060 C   0  0  0  0  0  3  0  0  0  0  0  0
   37.3350   27.4570   43.6800 C   0  0  0  0  0  0  0  0  0  0  0  0
   37.3820   27.1490   44.7320 H   0  0  0  0  0  0  0  0  0  0  0  0
   37.0680   26.6410   42.5940 C   0  0  0  0  0  0  0  0  0  0  0  0
   36.8900   25.5930   42.8190 H   0  0  0  0  0  0  0  0  0  0  0  0
   37.0440   27.1920   41.3200 C   0  0  0  0  0  3  0  0  0  0  0  0
   34.7220   29.2420   39.9570 C   0  0  0  0  0  0  0  0  0  0  0  0
   34.1000   28.3430   39.8140 H   0  0  0  0  0  0  0  0  0  0  0  0
   34.8490   29.5000   41.0480 H   0  0  0  0  0  0  0  0  0  0  0  0
   34.0880   30.0920   39.5700 H   0  0  0  0  0  0  0  0  0  0  0  0
  1  2  1  0  0  0  0
  2  3  2  0  0  0  0
  2 18  1  0  0  0  0
  3  9  1  0  0  0  0
  4  3  1  0  0  0  0
  5  4  2  0  0  0  0
  6  5  1  0  0  0  0
  6  1  2  0  0  0  0
  7  1  1  0  0  0  0
  8  5  1  0  0  0  0
  9 17  2  0  0  0  0
  9 10  1  0  0  0  0
 10 12  2  0  0  0  0
 11 10  1  0  0  0  0
 12 13  1  0  0  0  0
 13 14  1  0  0  0  0
 15 16  1  0  0  0  0
 15 13  2  0  0  0  0
 17 15  1  0  0  0  0
 18 20  1  0  0  0  0
 19 18  1  0  0  0  0
 21 18  1  0  0  0  0
M  END
>  <minimizedAffinity>
-4.12956333

$$$$

 OpenBabel03252501563D

 21 22  0  0  0  0  0  0  0  0999 V2000
   35.8040   29.1770   37.8430 C   0  0  0  0  0  0  0  0  0  0  0  0
   36.6040   30.2750   38.1740 C   0  0  0  0  0  0  0  0  0  0  0  0
   36.5500   30.7360   39.4800 C   0  0  0  0  0  0  0  0  0  0  0  0
   35.7320   30.1090   40.3760 N   0  0  0  0  0  0  0  0  0  0  0  0
   34.9760   29.0450   40.0010 C   0  0  0  0  0  0  0  0  0  0  0  0
   35.0020   28.5670   38.7360 N   0  0  0  0  0  0  0  0  0  0  0  0
   35.8370   28.8090   36.8320 H   0  0  0  0  0  0  0  0  0  0  0  0
   34.3210   28.5300   40.6910 H   0  0  0  0  0  0  0  0  0  0  0  0
   37.3750   31.8830   39.8530 C   0  0  0  0  0  0  0  0  0  0  0  0
   37.1830   33.2110   39.5370 C   0  0  0  0  0  0  0  0  0  0  0  0
   36.3170   33.4020   38.9460 H   0  0  0  0  0  0  0  0  0  0  0  0
   38.0790   34.1600   39.9850 C   0  0  0  0  0  3  0  0  0  0  0  0
   39.1650   33.7800   40.7460 C   0  0  0  0  0  0  0  0  0  0  0  0
   39.7980   34.6280   41.0370 H   0  0  0  0  0  0  0  0  0  0  0  0
   39.3700   32.4510   41.0710 C   0  0  0  0  0  0  0  0  0  0  0  0
   40.2480   32.2380   41.6730 H   0  0  0  0  0  0  0  0  0  0  0  0
   38.4680   31.4960   40.6210 C   0  0  0  0  0  3  0  0  0  0  0  0
   37.4440   30.8690   37.1240 C   0  0  0  0  0  0  0  0  0  0  0  0
   36.9220   31.5550   36.4370 H   0  0  0  0  0  0  0  0  0  0  0  0
   38.4050   31.3130   37.5150 H   0  0  0  0  0  0  0  0  0  0  0  0
   37.8060   30.0260   36.4670 H   0  0  0  0  0  0  0  0  0  0  0  0
  1  2  2  0  0  0  0
  1  6  1  0  0  0  0
  2  3  1  0  0  0  0
  3  9  1  0  0  0  0
  3  4  2  0  0  0  0
  5  4  1  0  0  0  0
  5  8  1  0  0  0  0
  6  5  2  0  0  0  0
  7  1  1  0  0  0  0
  9 17  1  0  0  0  0
 10  9  2  0  0  0  0
 10 12  1  0  0  0  0
 11 10  1  0  0  0  0
 12 13  2  0  0  0  0
 13 14  1  0  0  0  0
 13 15  1  0  0  0  0
 15 16  1  0  0  0  0
 17 15  2  0  0  0  0
 18 20  1  0  0  0  0
 18  2  1  0  0  0  0
 19 18  1  0  0  0  0
 21 18  1  0  0  0  0
M  END
>  <minimizedAffinity>
-4.12875414

$$$$

 OpenBabel03252501563D

 21 22  0  0  0  0  0  0  0  0999 V2000
   37.6000   30.7460   38.1220 C   0  0  0  0  0  0  0  0  0  0  0  0
   37.6170   29.7880   39.1400 C   0  0  0  0  0  0  0  0  0  0  0  0
   37.3560   30.2210   40.4310 C   0  0  0  0  0  0  0  0  0  0  0  0
   37.0970   31.5430   40.6520 N   0  0  0  0  0  0  0  0  0  0  0  0
   37.0930   32.4330   39.6250 C   0  0  0  0  0  0  0  0  0  0  0  0
   37.3430   32.0470   38.3530 N   0  0  0  0  0  0  0  0  0  0  0  0
   37.8000   30.4220   37.1150 H   0  0  0  0  0  0  0  0  0  0  0  0
   36.8900   33.4850   39.7730 H   0  0  0  0  0  0  0  0  0  0  0  0
   37.3690   29.2410   41.5140 C   0  0  0  0  0  0  0  0  0  0  0  0
   36.3720   28.3630   41.8840 C   0  0  0  0  0  0  0  0  0  0  0  0
   35.4890   28.4250   41.2890 H   0  0  0  0  0  0  0  0  0  0  0  0
   36.5710   27.5040   42.9460 C   0  0  0  0  0  3  0  0  0  0  0  0
   37.7650   27.5250   43.6360 C   0  0  0  0  0  0  0  0  0  0  0  0
   37.7950   26.7950   44.4550 H   0  0  0  0  0  0  0  0  0  0  0  0
   38.7750   28.4000   43.2760 C   0  0  0  0  0  0  0  0  0  0  0  0
   39.6810   28.3510   43.8710 H   0  0  0  0  0  0  0  0  0  0  0  0
   38.5750   29.2640   42.2080 C   0  0  0  0  0  3  0  0  0  0  0  0
   37.9090   28.3920   38.7820 C   0  0  0  0  0  0  0  0  0  0  0  0
   38.9780   28.1560   38.6480 H   0  0  0  0  0  0  0  0  0  0  0  0
   37.3900   27.6400   39.4430 H   0  0  0  0  0  0  0  0  0  0  0  0
   37.4450   28.2010   37.7710 H   0  0  0  0  0  0  0  0  0  0  0  0
  1  6  2  0  0  0  0
  1  2  1  0  0  0  0
  2  3  2  0  0  0  0
  3  4  1  0  0  0  0
  3  9  1  0  0  0  0
  5  8  1  0  0  0  0
  5  4  2  0  0  0  0
  6  5  1  0  0  0  0
  7  1  1  0  0  0  0
  9 10  2  0  0  0  0
  9 17  1  0  0  0  0
 10 12  1  0  0  0  0
 11 10  1  0  0  0  0
 12 13  2  0  0  0  0
 13 14  1  0  0  0  0
 15 13  1  0  0  0  0
 15 16  1  0  0  0  0
 17 15  2  0  0  0  0
 18  2  1  0  0  0  0
 18 20  1  0  0  0  0
 19 18  1  0  0  0  0
 21 18  1  0  0  0  0
M  END
>  <minimizedAffinity>
-4.1097436

$$$$

 OpenBabel03252501563D

 21 22  0  0  0  0  0  0  0  0999 V2000
   38.0670   23.0280   40.8830 C   0  0  0  0  0  0  0  0  0  0  0  0
   38.3200   24.2360   41.5390 C   0  0  0  0  0  0  0  0  0  0  0  0
   37.5580   25.3350   41.1750 C   0  0  0  0  0  0  0  0  0  0  0  0
   36.6050   25.1940   40.2060 N   0  0  0  0  0  0  0  0  0  0  0  0
   36.4000   23.9960   39.6000 C   0  0  0  0  0  0  0  0  0  0  0  0
   37.1240   22.9030   39.9290 N   0  0  0  0  0  0  0  0  0  0  0  0
   38.6530   22.1670   41.1570 H   0  0  0  0  0  0  0  0  0  0  0  0
   35.6510   23.8580   38.8320 H   0  0  0  0  0  0  0  0  0  0  0  0
   37.8020   26.6100   41.8430 C   0  0  0  0  0  0  0  0  0  0  0  0
   38.7390   27.5730   41.5310 C   0  0  0  0  0  0  0  0  0  0  0  0
   39.3510   27.3350   40.6910 H   0  0  0  0  0  0  0  0  0  0  0  0
   38.8200   28.7240   42.2870 C   0  0  0  0  0  3  0  0  0  0  0  0
   37.9650   28.9110   43.3540 C   0  0  0  0  0  0  0  0  0  0  0  0
   38.1330   29.8650   43.8710 H   0  0  0  0  0  0  0  0  0  0  0  0
   37.0200   27.9540   43.6790 C   0  0  0  0  0  0  0  0  0  0  0  0
   36.3880   28.1800   44.5320 H   0  0  0  0  0  0  0  0  0  0  0  0
   36.9390   26.7950   42.9180 C   0  0  0  0  0  3  0  0  0  0  0  0
   39.3730   24.2670   42.5650 C   0  0  0  0  0  0  0  0  0  0  0  0
   40.4030   24.3490   42.1790 H   0  0  0  0  0  0  0  0  0  0  0  0
   39.1710   25.0050   43.3930 H   0  0  0  0  0  0  0  0  0  0  0  0
   39.3480   23.2740   43.1010 H   0  0  0  0  0  0  0  0  0  0  0  0
  1  7  1  0  0  0  0
  1  2  1  0  0  0  0
  2 18  1  0  0  0  0
  3  2  2  0  0  0  0
  3  9  1  0  0  0  0
  4  3  1  0  0  0  0
  5  6  1  0  0  0  0
  5  4  2  0  0  0  0
  6  1  2  0  0  0  0
  8  5  1  0  0  0  0
  9 17  1  0  0  0  0
 10  9  2  0  0  0  0
 10 12  1  0  0  0  0
 11 10  1  0  0  0  0
 12 13  2  0  0  0  0
 13 15  1  0  0  0  0
 13 14  1  0  0  0  0
 15 16  1  0  0  0  0
 17 15  2  0  0  0  0
 18 21  1  0  0  0  0
 18 20  1  0  0  0  0
 19 18  1  0  0  0  0
M  END
>  <minimizedAffinity>
-4.09716511

$$$$

 OpenBabel03252501563D

 21 22  0  0  0  0  0  0  0  0999 V2000
   36.9780   30.9250   38.2830 C   0  0  0  0  0  0  0  0  0  0  0  0
   37.0010   30.4270   39.5890 C   0  0  0  0  0  0  0  0  0  0  0  0
   37.4210   29.1180   39.7670 C   0  0  0  0  0  0  0  0  0  0  0  0
   37.7910   28.3810   38.6780 N   0  0  0  0  0  0  0  0  0  0  0  0
   37.7490   28.9150   37.4300 C   0  0  0  0  0  0  0  0  0  0  0  0
   37.3440   30.1880   37.2170 N   0  0  0  0  0  0  0  0  0  0  0  0
   36.6530   31.9410   38.1310 H   0  0  0  0  0  0  0  0  0  0  0  0
   38.0370   28.3540   36.5510 H   0  0  0  0  0  0  0  0  0  0  0  0
   37.4540   28.5710   41.1210 C   0  0  0  0  0  0  0  0  0  0  0  0
   36.4240   27.9950   41.8350 C   0  0  0  0  0  0  0  0  0  0  0  0
   35.4960   27.9540   41.3130 H   0  0  0  0  0  0  0  0  0  0  0  0
   36.6500   27.5330   43.1150 C   0  0  0  0  0  3  0  0  0  0  0  0
   37.9040   27.6460   43.6800 C   0  0  0  0  0  0  0  0  0  0  0  0
   37.9500   27.2400   44.6980 H   0  0  0  0  0  0  0  0  0  0  0  0
   38.9470   28.2210   42.9750 C   0  0  0  0  0  0  0  0  0  0  0  0
   39.9010   28.2710   43.4920 H   0  0  0  0  0  0  0  0  0  0  0  0
   38.7200   28.6870   41.6870 C   0  0  0  0  0  3  0  0  0  0  0  0
   36.5790   31.3140   40.6830 C   0  0  0  0  0  0  0  0  0  0  0  0
   35.4890   31.4050   40.8190 H   0  0  0  0  0  0  0  0  0  0  0  0
   37.1120   31.1110   41.6560 H   0  0  0  0  0  0  0  0  0  0  0  0
   36.9230   32.3560   40.4210 H   0  0  0  0  0  0  0  0  0  0  0  0
  1  2  1  0  0  0  0
  2  3  2  0  0  0  0
  2 18  1  0  0  0  0
  3  9  1  0  0  0  0
  4  3  1  0  0  0  0
  5  4  2  0  0  0  0
  6  5  1  0  0  0  0
  6  1  2  0  0  0  0
  7  1  1  0  0  0  0
  8  5  1  0  0  0  0
  9 17  2  0  0  0  0
  9 10  1  0  0  0  0
 10 12  2  0  0  0  0
 11 10  1  0  0  0  0
 12 13  1  0  0  0  0
 13 14  1  0  0  0  0
 15 16  1  0  0  0  0
 15 13  2  0  0  0  0
 17 15  1  0  0  0  0
 18 19  1  0  0  0  0
 18 20  1  0  0  0  0
 21 18  1  0  0  0  0
M  END
>  <minimizedAffinity>
-4.08181143

$$$$

 OpenBabel03252501563D

 21 22  0  0  0  0  0  0  0  0999 V2000
   39.9350   32.2270   40.1950 C   0  0  0  0  0  0  0  0  0  0  0  0
   38.9490   31.2590   39.9830 C   0  0  0  0  0  0  0  0  0  0  0  0
   37.6450   31.6970   39.8210 C   0  0  0  0  0  0  0  0  0  0  0  0
   37.3800   33.0360   39.8730 N   0  0  0  0  0  0  0  0  0  0  0  0
   38.3760   33.9350   40.0810 C   0  0  0  0  0  0  0  0  0  0  0  0
   39.6600   33.5450   40.2440 N   0  0  0  0  0  0  0  0  0  0  0  0
   40.9530   31.8990   40.3220 H   0  0  0  0  0  0  0  0  0  0  0  0
   38.1930   35.0000   40.1260 H   0  0  0  0  0  0  0  0  0  0  0  0
   36.5950   30.7070   39.5990 C   0  0  0  0  0  0  0  0  0  0  0  0
   35.7670   30.1160   40.5310 C   0  0  0  0  0  0  0  0  0  0  0  0
   35.9320   30.4390   41.5330 H   0  0  0  0  0  0  0  0  0  0  0  0
   34.8260   29.1920   40.1260 C   0  0  0  0  0  3  0  0  0  0  0  0
   34.7130   28.8590   38.7920 C   0  0  0  0  0  0  0  0  0  0  0  0
   33.9290   28.1150   38.6040 H   0  0  0  0  0  0  0  0  0  0  0  0
   35.5370   29.4440   37.8460 C   0  0  0  0  0  0  0  0  0  0  0  0
   35.3830   29.1260   36.8190 H   0  0  0  0  0  0  0  0  0  0  0  0
   36.4840   30.3740   38.2530 C   0  0  0  0  0  3  0  0  0  0  0  0
   39.3540   29.8450   39.9470 C   0  0  0  0  0  0  0  0  0  0  0  0
   39.4970   29.3730   40.9340 H   0  0  0  0  0  0  0  0  0  0  0  0
   38.7180   29.2130   39.2640 H   0  0  0  0  0  0  0  0  0  0  0  0
   40.3700   29.8000   39.4590 H   0  0  0  0  0  0  0  0  0  0  0  0
  1  6  1  0  0  0  0
  1  7  1  0  0  0  0
  2  1  2  0  0  0  0
  3  4  2  0  0  0  0
  3  2  1  0  0  0  0
  4  5  1  0  0  0  0
  5  8  1  0  0  0  0
  5  6  2  0  0  0  0
  9  3  1  0  0  0  0
  9 10  1  0  0  0  0
 10 11  1  0  0  0  0
 12 10  2  0  0  0  0
 13 12  1  0  0  0  0
 14 13  1  0  0  0  0
 15 17  1  0  0  0  0
 15 13  2  0  0  0  0
 16 15  1  0  0  0  0
 17  9  2  0  0  0  0
 18  2  1  0  0  0  0
 18 19  1  0  0  0  0
 20 18  1  0  0  0  0
 21 18  1  0  0  0  0
M  END
>  <minimizedAffinity>
-4.07220268

$$$$

 OpenBabel03252501563D

 21 22  0  0  0  0  0  0  0  0999 V2000
   38.4840   30.3360   40.9060 C   0  0  0  0  0  0  0  0  0  0  0  0
   38.3640   28.9450   40.8340 C   0  0  0  0  0  0  0  0  0  0  0  0
   37.0900   28.4060   40.9160 C   0  0  0  0  0  0  0  0  0  0  0  0
   36.0200   29.2430   41.0610 N   0  0  0  0  0  0  0  0  0  0  0  0
   36.1920   30.5880   41.1250 C   0  0  0  0  0  0  0  0  0  0  0  0
   37.4200   31.1500   41.0490 N   0  0  0  0  0  0  0  0  0  0  0  0
   39.4680   30.7670   40.8430 H   0  0  0  0  0  0  0  0  0  0  0  0
   35.3620   31.2720   41.2390 H   0  0  0  0  0  0  0  0  0  0  0  0
   36.9370   26.9560   40.8450 C   0  0  0  0  0  0  0  0  0  0  0  0
   36.6910   26.1760   39.7350 C   0  0  0  0  0  0  0  0  0  0  0  0
   36.6070   26.7220   38.8230 H   0  0  0  0  0  0  0  0  0  0  0  0
   36.5770   24.8070   39.8680 C   0  0  0  0  0  3  0  0  0  0  0  0
   36.7080   24.2200   41.1100 C   0  0  0  0  0  0  0  0  0  0  0  0
   36.5960   23.1290   41.0780 H   0  0  0  0  0  0  0  0  0  0  0  0
   36.9540   24.9900   42.2330 C   0  0  0  0  0  0  0  0  0  0  0  0
   37.0440   24.4500   43.1700 H   0  0  0  0  0  0  0  0  0  0  0  0
   37.0690   26.3670   42.0990 C   0  0  0  0  0  3  0  0  0  0  0  0
   39.5890   28.1460   40.6790 C   0  0  0  0  0  0  0  0  0  0  0  0
   40.1570   27.9720   41.6080 H   0  0  0  0  0  0  0  0  0  0  0  0
   39.4330   27.1940   40.0940 H   0  0  0  0  0  0  0  0  0  0  0  0
   40.2920   28.7330   40.0200 H   0  0  0  0  0  0  0  0  0  0  0  0
  1  6  1  0  0  0  0
  2  1  2  0  0  0  0
  2  3  1  0  0  0  0
  3  4  2  0  0  0  0
  4  5  1  0  0  0  0
  5  8  1  0  0  0  0
  6  5  2  0  0  0  0
  7  1  1  0  0  0  0
  9  3  1  0  0  0  0
  9 17  1  0  0  0  0
 10 12  1  0  0  0  0
 10  9  2  0  0  0  0
 11 10  1  0  0  0  0
 12 13  2  0  0  0  0
 13 15  1  0  0  0  0
 14 13  1  0  0  0  0
 15 16  1  0  0  0  0
 17 15  2  0  0  0  0
 18  2  1  0  0  0  0
 18 19  1  0  0  0  0
 20 18  1  0  0  0  0
 21 18  1  0  0  0  0
M  END
>  <minimizedAffinity>
-3.96608305

$$$$
