
 OpenBabel03252507523D

 31 33  0  0  1  0  0  0  0  0999 V2000
   46.7170   34.9160   42.1480 C   0  0  2  0  0  0  0  0  0  0  0  0
   46.1880   33.9060   41.1790 C   0  0  0  0  0  0  0  0  0  0  0  0
   47.2940   33.9540   40.1280 C   0  0  0  0  0  0  0  0  0  0  0  0
   48.5640   34.1870   40.9280 C   0  0  1  0  0  0  0  0  0  0  0  0
   48.1320   34.3770   42.3670 C   0  0  0  0  0  0  0  0  0  0  0  0
   46.8230   35.8910   41.6790 H   0  0  0  0  0  0  0  0  0  0  0  0
   46.1400   32.8940   41.5970 H   0  0  0  0  0  0  0  0  0  0  0  0
   45.2240   34.2170   40.7110 H   0  0  0  0  0  0  0  0  0  0  0  0
   47.0560   34.8490   39.5020 H   0  0  0  0  0  0  0  0  0  0  0  0
   47.2870   33.0100   39.5690 H   0  0  0  0  0  0  0  0  0  0  0  0
   49.0910   35.1020   40.5500 H   0  0  0  0  0  0  0  0  0  0  0  0
   48.1490   33.4410   42.9440 H   0  0  0  0  0  0  0  0  0  0  0  0
   48.7270   35.2020   42.7870 H   0  0  0  0  0  0  0  0  0  0  0  0
   44.4010   36.0460   44.9000 C   0  0  0  0  0  0  0  0  0  0  0  0
   45.0620   36.0710   43.6650 C   0  0  0  0  0  0  0  0  0  0  0  0
   45.9570   35.0140   43.4130 C   0  0  0  0  0  0  0  0  0  0  0  0
   46.1440   34.0280   44.3590 N   0  0  0  0  0  0  0  0  0  0  0  0
   45.4710   34.0710   45.5280 C   0  0  0  0  0  0  0  0  0  0  0  0
   44.6060   35.0710   45.7990 N   0  0  0  0  0  0  0  0  0  0  0  0
   43.7420   36.8990   44.9890 H   0  0  0  0  0  0  0  0  0  0  0  0
   44.9650   36.7950   42.8960 H   0  0  0  0  0  0  0  0  0  0  0  0
   45.5830   33.3220   46.3010 H   0  0  0  0  0  0  0  0  0  0  0  0
   49.4420   33.0350   40.7060 C   0  0  0  0  0  0  0  0  0  0  0  0
   49.3250   32.2240   39.6000 C   0  0  0  0  0  0  0  0  0  0  0  0
   48.5800   32.4020   38.8490 H   0  0  0  0  0  0  0  0  0  0  0  0
   50.1700   31.1300   39.4020 C   0  0  0  0  0  0  0  0  0  0  0  0
   51.1660   30.8200   40.3220 C   0  0  0  0  0  0  0  0  0  0  0  0
   51.8540   30.0010   40.2440 H   0  0  0  0  0  0  0  0  0  0  0  0
   51.2990   31.6220   41.4360 C   0  0  0  0  0  0  0  0  0  0  0  0
   52.0640   31.4230   42.1880 H   0  0  0  0  0  0  0  0  0  0  0  0
   50.4540   32.6950   41.6090 C   0  0  0  0  0  0  0  0  0  0  0  0
  1  6  1  6  0  0  0
  1  5  1  0  0  0  0
  1 16  1  0  0  0  0
  2  7  1  0  0  0  0
  2  1  1  0  0  0  0
  3  4  1  0  0  0  0
  3  2  1  0  0  0  0
  4 11  1  6  0  0  0
  4  5  1  0  0  0  0
  5 13  1  0  0  0  0
  5 12  1  0  0  0  0
  8  2  1  0  0  0  0
  9  3  1  0  0  0  0
 10  3  1  0  0  0  0
 14 20  1  0  0  0  0
 14 19  1  0  0  0  0
 15 14  2  0  0  0  0
 16 15  1  0  0  0  0
 16 17  2  0  0  0  0
 17 18  1  0  0  0  0
 18 19  2  0  0  0  0
 18 22  1  0  0  0  0
 21 15  1  0  0  0  0
 23  4  1  0  0  0  0
 23 31  1  0  0  0  0
 24 23  2  0  0  0  0
 25 24  1  0  0  0  0
 26 24  1  0  0  0  0
 26 27  2  0  0  0  0
 27 29  1  0  0  0  0
 28 27  1  0  0  0  0
 29 31  2  0  0  0  0
 29 30  1  0  0  0  0
M  END
>  <minimizedAffinity>
-4.8744812

>  <minimizedRMSD>
1.59949696

$$$$
