
 OpenBabel03252506263D

 45 49  0  0  0  0  0  0  0  0999 V2000
   45.3810   28.0580   48.2850 C   0  0  0  0  0  0  0  0  0  0  0  0
   45.1210   29.3940   48.1030 C   0  0  0  0  0  0  0  0  0  0  0  0
   44.2990   29.7210   47.0250 C   0  0  0  0  0  0  0  0  0  0  0  0
   43.7750   28.7630   46.1870 C   0  0  0  0  0  0  0  0  0  0  0  0
   42.9760   28.7660   45.0980 N   0  0  0  0  0  0  0  0  0  0  0  0
   42.7610   27.5250   44.6440 C   0  0  0  0  0  0  0  0  0  0  0  0
   43.4340   26.6410   45.4500 C   0  0  0  0  0  0  0  0  0  0  0  0
   44.0460   27.4230   46.3840 C   0  0  0  0  0  0  0  0  0  0  0  0
   44.8540   27.1010   47.4450 C   0  0  0  0  0  0  0  0  0  0  0  0
   46.0290   27.8610   49.1440 H   0  0  0  0  0  0  0  0  0  0  0  0
   44.0020   30.7250   46.7490 H   0  0  0  0  0  0  0  0  0  0  0  0
   42.5650   29.6110   44.6450 H   0  0  0  0  0  0  0  0  0  0  0  0
   42.1590   27.2260   43.7850 H   0  0  0  0  0  0  0  0  0  0  0  0
   43.4790   25.5700   45.3720 H   0  0  0  0  0  0  0  0  0  0  0  0
   45.2420   25.7410   47.8030 C   0  0  0  0  0  0  0  0  0  0  0  0
   45.4000   25.4320   49.1580 C   0  0  0  0  0  0  0  0  0  0  0  0
   45.2410   26.1850   49.9330 H   0  0  0  0  0  0  0  0  0  0  0  0
   45.7660   24.1570   49.5880 C   0  0  0  0  0  0  0  0  0  0  0  0
   45.9790   23.1720   48.6450 C   0  0  0  0  0  0  0  0  0  0  0  0
   46.2650   22.1590   48.9070 H   0  0  0  0  0  0  0  0  0  0  0  0
   45.8290   23.4510   47.3030 C   0  0  0  0  0  0  0  0  0  0  0  0
   45.9960   22.6730   46.5560 H   0  0  0  0  0  0  0  0  0  0  0  0
   45.4650   24.7210   46.9010 C   0  0  0  0  0  0  0  0  0  0  0  0
   45.5690   30.5550   48.8610 C   0  0  0  0  0  0  0  0  0  0  0  0
   45.6020   30.2350   49.9460 H   0  0  0  0  0  0  0  0  0  0  0  0
   44.8190   31.3730   48.8490 H   0  0  0  0  0  0  0  0  0  0  0  0
   46.8940   31.1130   48.5250 C   0  0  0  0  0  0  0  0  0  0  0  0
   47.1070   31.9300   49.2660 H   0  0  0  0  0  0  0  0  0  0  0  0
   47.6480   30.3320   48.6130 H   0  0  0  0  0  0  0  0  0  0  0  0
   46.4280   33.0220   45.5380 C   0  0  0  0  0  0  0  0  0  0  0  0
   47.2170   31.9550   45.0760 C   0  0  0  0  0  0  0  0  0  0  0  0
   47.4850   31.1200   46.1180 C   0  0  0  0  0  0  0  0  0  0  0  0
   46.8820   31.6610   47.1770 N   0  0  0  0  0  0  0  0  0  0  0  0
   46.2520   32.7940   46.8360 N   0  0  0  0  0  0  0  0  0  0  0  0
   47.5510   31.8250   44.0540 H   0  0  0  0  0  0  0  0  0  0  0  0
   48.0580   30.2190   46.1020 H   0  0  0  0  0  0  0  0  0  0  0  0
   44.5020   35.9010   44.3850 C   0  0  0  0  0  0  0  0  0  0  0  0
   45.0300   36.1630   43.1270 C   0  0  0  0  0  0  0  0  0  0  0  0
   46.0590   35.3360   42.6780 C   0  0  0  0  0  0  0  0  0  0  0  0
   46.4830   34.3340   43.4840 N   0  0  0  0  0  0  0  0  0  0  0  0
   45.9570   34.1040   44.6940 C   0  0  0  0  0  0  0  0  0  0  0  0
   44.9640   34.8940   45.1380 N   0  0  0  0  0  0  0  0  0  0  0  0
   43.7120   36.5610   44.6940 H   0  0  0  0  0  0  0  0  0  0  0  0
   44.6980   36.9540   42.4870 H   0  0  0  0  0  0  0  0  0  0  0  0
   46.5550   35.4450   41.7030 H   0  0  0  0  0  0  0  0  0  0  0  0
  1 10  1  0  0  0  0
  2  1  1  0  0  0  0
  2 24  1  0  0  0  0
  3  2  2  0  0  0  0
  4  8  2  0  0  0  0
  4  3  1  0  0  0  0
  5  4  1  0  0  0  0
  6  5  1  0  0  0  0
  6  7  2  0  0  0  0
  7  8  1  0  0  0  0
  8  9  1  0  0  0  0
  9 15  1  0  0  0  0
  9  1  2  0  0  0  0
 11  3  1  0  0  0  0
 12  5  1  0  0  0  0
 13  6  1  0  0  0  0
 14  7  1  0  0  0  0
 15 16  1  0  0  0  0
 16 18  2  0  0  0  0
 16 17  1  0  0  0  0
 19 20  1  0  0  0  0
 19 18  1  0  0  0  0
 21 19  2  0  0  0  0
 22 21  1  0  0  0  0
 23 21  1  0  0  0  0
 23 15  2  0  0  0  0
 24 25  1  0  0  0  0
 26 24  1  0  0  0  0
 27 29  1  0  0  0  0
 27 24  1  0  0  0  0
 27 28  1  0  0  0  0
 30 34  2  0  0  0  0
 31 30  1  0  0  0  0
 31 32  2  0  0  0  0
 32 33  1  0  0  0  0
 33 27  1  0  0  0  0
 34 33  1  0  0  0  0
 35 31  1  0  0  0  0
 36 32  1  0  0  0  0
 37 43  1  0  0  0  0
 37 42  1  0  0  0  0
 38 37  2  0  0  0  0
 39 38  1  0  0  0  0
 39 40  2  0  0  0  0
 40 41  1  0  0  0  0
 41 42  2  0  0  0  0
 41 30  1  0  0  0  0
 44 38  1  0  0  0  0
 45 39  1  0  0  0  0
M  END
>  <minimizedAffinity>
-5.53566217

>  <minimizedRMSD>
0.927720487

$$$$
