
 OpenBabel03242523093D

 45 49  0  0  1  0  0  0  0  0999 V2000
   38.2830   29.7250   42.5600 C   0  0  0  0  0  0  0  0  0  0  0  0
   37.6460   29.9310   41.3450 C   0  0  0  0  0  0  0  0  0  0  0  0
   36.6410   29.0680   40.9890 C   0  0  0  0  0  0  0  0  0  0  0  0
   36.3120   28.0460   41.8400 N   0  0  0  0  0  0  0  0  0  0  0  0
   36.9490   27.8690   43.0140 C   0  0  0  0  0  0  0  0  0  0  0  0
   37.9200   28.7010   43.3630 N   0  0  0  0  0  0  0  0  0  0  0  0
   39.0790   30.3820   42.8800 H   0  0  0  0  0  0  0  0  0  0  0  0
   36.7490   27.0900   43.7350 H   0  0  0  0  0  0  0  0  0  0  0  0
   38.0770   30.9900   40.5460 N   0  0  0  0  0  0  0  0  0  0  0  0
   39.3040   30.9710   39.8470 C   0  0  0  0  0  0  0  0  0  0  0  0
   39.5270   32.1280   38.9110 C   0  0  0  0  0  0  0  0  0  0  0  0
   38.4020   32.5570   38.1890 N   0  0  0  0  0  0  0  0  0  0  0  0
   37.1930   32.5760   38.8810 C   0  0  0  0  0  0  0  0  0  0  0  0
   37.3540   32.1990   40.3400 C   0  0  0  0  0  0  0  0  0  0  0  0
   39.5520   30.0290   39.3100 H   0  0  0  0  0  0  0  0  0  0  0  0
   40.1110   31.0570   40.6340 H   0  0  0  0  0  0  0  0  0  0  0  0
   39.9530   32.9950   39.4850 H   0  0  0  0  0  0  0  0  0  0  0  0
   40.3370   31.8290   38.1960 H   0  0  0  0  0  0  0  0  0  0  0  0
   38.6240   33.4230   37.6830 H   0  0  0  0  0  0  0  0  0  0  0  0
   36.3410   32.0080   38.4560 H   0  0  0  0  0  0  0  0  0  0  0  0
   36.8250   33.6450   38.9140 H   0  0  0  0  0  0  0  0  0  0  0  0
   37.9450   33.0450   40.7910 H   0  0  0  0  0  0  0  0  0  0  0  0
   36.3310   32.2220   40.7660 H   0  0  0  0  0  0  0  0  0  0  0  0
   36.5310   28.8740   38.6450 C   0  0  0  0  0  0  0  0  0  0  0  0
   35.8130   28.9930   39.8550 C   0  0  0  0  0  0  0  0  0  0  0  0
   34.4550   29.0730   39.6020 C   0  0  0  0  0  0  0  0  0  0  0  0
   33.8590   29.0500   38.3810 C   0  0  0  0  0  0  0  0  0  0  0  0
   34.6460   28.9380   37.2510 C   0  0  0  0  0  0  0  0  0  0  0  0
   35.9910   28.8460   37.3720 C   0  0  0  0  0  0  0  0  0  0  0  0
   33.7480   28.9580   36.1960 O   0  0  0  0  0  0  0  0  0  0  0  0
   32.4260   29.0550   36.6680 C   0  0  1  0  0  0  0  0  0  0  0  0
   32.5030   29.1210   38.0970 O   0  0  0  0  0  0  0  0  0  0  0  0
   37.6260   28.7730   38.4800 H   0  0  0  0  0  0  0  0  0  0  0  0
   33.9180   29.1630   40.4910 H   0  0  0  0  0  0  0  0  0  0  0  0
   36.5000   28.7610   36.4500 H   0  0  0  0  0  0  0  0  0  0  0  0
   31.9420   28.0830   36.4410 H   0  0  0  0  0  0  0  0  0  0  0  0
   31.6740   30.2150   36.1850 C   0  0  0  0  0  0  0  0  0  0  0  0
   31.6620   30.7870   34.9320 C   0  0  0  0  0  0  0  0  0  0  0  0
   32.2990   30.3010   34.2250 H   0  0  0  0  0  0  0  0  0  0  0  0
   30.8830   31.8860   34.6620 C   0  0  0  0  0  3  0  0  0  0  0  0
   30.0710   32.4720   35.6370 C   0  0  0  0  0  0  0  0  0  0  0  0
   29.4570   33.3360   35.4290 H   0  0  0  0  0  0  0  0  0  0  0  0
   30.0810   31.8980   36.8980 C   0  0  0  0  0  0  0  0  0  0  0  0
   29.4530   32.3470   37.6610 H   0  0  0  0  0  0  0  0  0  0  0  0
   30.8690   30.7840   37.1790 C   0  0  0  0  0  3  0  0  0  0  0  0
  1  7  1  0  0  0  0
  1  6  1  0  0  0  0
  2  1  2  0  0  0  0
  3  2  1  0  0  0  0
  3  4  2  0  0  0  0
  4  5  1  0  0  0  0
  5  6  2  0  0  0  0
  5  8  1  0  0  0  0
  9  2  1  0  0  0  0
 10  9  1  0  0  0  0
 10 16  1  0  0  0  0
 11 17  1  0  0  0  0
 11 10  1  0  0  0  0
 12 13  1  0  0  0  0
 12 11  1  0  0  0  0
 13 21  1  0  0  0  0
 13 14  1  0  0  0  0
 14  9  1  0  0  0  0
 14 23  1  0  0  0  0
 14 22  1  0  0  0  0
 15 10  1  0  0  0  0
 18 11  1  0  0  0  0
 19 12  1  0  0  0  0
 20 13  1  0  0  0  0
 24 25  1  0  0  0  0
 25  3  1  0  0  0  0
 26 25  2  0  0  0  0
 26 34  1  0  0  0  0
 27 26  1  0  0  0  0
 28 29  1  0  0  0  0
 28 27  2  0  0  0  0
 29 24  2  0  0  0  0
 30 31  1  0  0  0  0
 30 28  1  0  0  0  0
 31 36  1  6  0  0  0
 31 32  1  0  0  0  0
 32 27  1  0  0  0  0
 33 24  1  0  0  0  0
 35 29  1  0  0  0  0
 37 31  1  0  0  0  0
 37 45  1  0  0  0  0
 38 37  2  0  0  0  0
 39 38  1  0  0  0  0
 40 38  1  0  0  0  0
 40 41  2  0  0  0  0
 41 43  1  0  0  0  0
 42 41  1  0  0  0  0
 43 45  2  0  0  0  0
 43 44  1  0  0  0  0
M  END
>  <minimizedAffinity>
-7.0304656

$$$$

 OpenBabel03242523093D

 45 49  0  0  1  0  0  0  0  0999 V2000
   41.7370   34.0470   40.3130 C   0  0  0  0  0  0  0  0  0  0  0  0
   40.9050   32.9560   40.5200 C   0  0  0  0  0  0  0  0  0  0  0  0
   41.2670   32.0400   41.4750 C   0  0  0  0  0  0  0  0  0  0  0  0
   42.4270   32.2390   42.1770 N   0  0  0  0  0  0  0  0  0  0  0  0
   43.2160   33.3080   41.9540 C   0  0  0  0  0  0  0  0  0  0  0  0
   42.8690   34.1960   41.0340 N   0  0  0  0  0  0  0  0  0  0  0  0
   41.4880   34.7930   39.5710 H   0  0  0  0  0  0  0  0  0  0  0  0
   44.1420   33.5330   42.4640 H   0  0  0  0  0  0  0  0  0  0  0  0
   39.7600   32.8410   39.7320 N   0  0  0  0  0  0  0  0  0  0  0  0
   39.6960   32.0080   38.5920 C   0  0  0  0  0  0  0  0  0  0  0  0
   38.3350   31.8870   37.9620 C   0  0  0  0  0  0  0  0  0  0  0  0
   37.2530   31.8150   38.8520 N   0  0  0  0  0  0  0  0  0  0  0  0
   37.3170   32.6370   39.9740 C   0  0  0  0  0  0  0  0  0  0  0  0
   38.5390   33.5340   39.9660 C   0  0  0  0  0  0  0  0  0  0  0  0
   40.1270   30.9890   38.7010 H   0  0  0  0  0  0  0  0  0  0  0  0
   40.3500   32.4990   37.8110 H   0  0  0  0  0  0  0  0  0  0  0  0
   38.1750   32.7440   37.2520 H   0  0  0  0  0  0  0  0  0  0  0  0
   38.3460   30.9740   37.3130 H   0  0  0  0  0  0  0  0  0  0  0  0
   36.3690   31.8650   38.3300 H   0  0  0  0  0  0  0  0  0  0  0  0
   37.2270   32.1650   40.9730 H   0  0  0  0  0  0  0  0  0  0  0  0
   36.4480   33.3600   39.9300 H   0  0  0  0  0  0  0  0  0  0  0  0
   38.3670   34.2450   39.1100 H   0  0  0  0  0  0  0  0  0  0  0  0
   38.4910   34.1090   40.9120 H   0  0  0  0  0  0  0  0  0  0  0  0
   41.5940   29.9210   42.4480 C   0  0  0  0  0  0  0  0  0  0  0  0
   40.6690   30.8500   41.9230 C   0  0  0  0  0  0  0  0  0  0  0  0
   39.3940   30.3110   41.9240 C   0  0  0  0  0  0  0  0  0  0  0  0
   39.0430   29.0710   42.3540 C   0  0  0  0  0  0  0  0  0  0  0  0
   40.0210   28.2280   42.8450 C   0  0  0  0  0  0  0  0  0  0  0  0
   41.3070   28.6460   42.9000 C   0  0  0  0  0  0  0  0  0  0  0  0
   39.3460   27.0640   43.1770 O   0  0  0  0  0  0  0  0  0  0  0  0
   37.9690   27.1960   42.9180 C   0  0  1  0  0  0  0  0  0  0  0  0
   37.7760   28.5070   42.3740 O   0  0  0  0  0  0  0  0  0  0  0  0
   42.6900   30.0280   42.6050 H   0  0  0  0  0  0  0  0  0  0  0  0
   38.7050   30.9900   41.5360 H   0  0  0  0  0  0  0  0  0  0  0  0
   41.9750   27.9290   43.2940 H   0  0  0  0  0  0  0  0  0  0  0  0
   37.4650   27.2060   43.9060 H   0  0  0  0  0  0  0  0  0  0  0  0
   37.4130   26.2140   41.9840 C   0  0  0  0  0  0  0  0  0  0  0  0
   37.1650   24.8720   42.1740 C   0  0  0  0  0  0  0  0  0  0  0  0
   37.4220   24.5150   43.1480 H   0  0  0  0  0  0  0  0  0  0  0  0
   36.6330   24.1010   41.1700 C   0  0  0  0  0  3  0  0  0  0  0  0
   36.3190   24.6360   39.9170 C   0  0  0  0  0  0  0  0  0  0  0  0
   35.9010   24.0320   39.1240 H   0  0  0  0  0  0  0  0  0  0  0  0
   36.5680   25.9840   39.7240 C   0  0  0  0  0  0  0  0  0  0  0  0
   36.3270   26.4080   38.7530 H   0  0  0  0  0  0  0  0  0  0  0  0
   37.1070   26.7730   40.7380 C   0  0  0  0  0  3  0  0  0  0  0  0
  1  2  2  0  0  0  0
  1  6  1  0  0  0  0
  2  3  1  0  0  0  0
  3 25  1  0  0  0  0
  3  4  2  0  0  0  0
  5  4  1  0  0  0  0
  5  8  1  0  0  0  0
  6  5  2  0  0  0  0
  7  1  1  0  0  0  0
  9 14  1  0  0  0  0
  9  2  1  0  0  0  0
 10 15  1  0  0  0  0
 10  9  1  0  0  0  0
 11 10  1  0  0  0  0
 11 12  1  0  0  0  0
 12 13  1  0  0  0  0
 13 20  1  0  0  0  0
 14 13  1  0  0  0  0
 14 23  1  0  0  0  0
 16 10  1  0  0  0  0
 17 11  1  0  0  0  0
 18 11  1  0  0  0  0
 19 12  1  0  0  0  0
 21 13  1  0  0  0  0
 22 14  1  0  0  0  0
 24 33  1  0  0  0  0
 24 29  1  0  0  0  0
 25 26  1  0  0  0  0
 25 24  2  0  0  0  0
 26 27  2  0  0  0  0
 27 32  1  0  0  0  0
 27 28  1  0  0  0  0
 28 29  2  0  0  0  0
 28 30  1  0  0  0  0
 29 35  1  0  0  0  0
 31 30  1  0  0  0  0
 31 36  1  1  0  0  0
 32 31  1  0  0  0  0
 34 26  1  0  0  0  0
 37 38  1  0  0  0  0
 37 31  1  0  0  0  0
 38 39  1  0  0  0  0
 40 38  2  0  0  0  0
 41 40  1  0  0  0  0
 42 41  1  0  0  0  0
 43 41  2  0  0  0  0
 43 45  1  0  0  0  0
 44 43  1  0  0  0  0
 45 37  2  0  0  0  0
M  END
>  <minimizedAffinity>
-6.60008764

$$$$

 OpenBabel03242523093D

 45 49  0  0  1  0  0  0  0  0999 V2000
   40.0290   28.7380   38.9220 C   0  0  0  0  0  0  0  0  0  0  0  0
   38.6840   28.9930   38.6910 C   0  0  0  0  0  0  0  0  0  0  0  0
   38.1530   28.6120   37.4840 C   0  0  0  0  0  0  0  0  0  0  0  0
   38.9670   28.0030   36.5650 N   0  0  0  0  0  0  0  0  0  0  0  0
   40.2690   27.7700   36.8160 C   0  0  0  0  0  0  0  0  0  0  0  0
   40.7870   28.1350   37.9800 N   0  0  0  0  0  0  0  0  0  0  0  0
   40.4870   29.0220   39.8590 H   0  0  0  0  0  0  0  0  0  0  0  0
   40.9720   27.2980   36.1450 H   0  0  0  0  0  0  0  0  0  0  0  0
   37.9550   29.6400   39.6880 N   0  0  0  0  0  0  0  0  0  0  0  0
   37.7260   31.0330   39.6880 C   0  0  0  0  0  0  0  0  0  0  0  0
   36.7850   31.5300   40.7520 C   0  0  0  0  0  0  0  0  0  0  0  0
   35.6750   30.7130   41.0170 N   0  0  0  0  0  0  0  0  0  0  0  0
   35.9030   29.3390   41.0190 C   0  0  0  0  0  0  0  0  0  0  0  0
   37.3650   28.9940   40.8110 C   0  0  0  0  0  0  0  0  0  0  0  0
   37.4290   31.4840   38.7150 H   0  0  0  0  0  0  0  0  0  0  0  0
   38.7240   31.5130   39.9170 H   0  0  0  0  0  0  0  0  0  0  0  0
   37.3570   31.7000   41.7050 H   0  0  0  0  0  0  0  0  0  0  0  0
   36.4340   32.5480   40.4410 H   0  0  0  0  0  0  0  0  0  0  0  0
   35.1710   31.0690   41.8390 H   0  0  0  0  0  0  0  0  0  0  0  0
   35.2880   28.7080   40.3470 H   0  0  0  0  0  0  0  0  0  0  0  0
   35.6740   28.9470   42.0540 H   0  0  0  0  0  0  0  0  0  0  0  0
   37.8800   29.3620   41.7420 H   0  0  0  0  0  0  0  0  0  0  0  0
   37.4090   27.8860   40.8030 H   0  0  0  0  0  0  0  0  0  0  0  0
   36.8570   29.1210   35.5860 C   0  0  0  0  0  0  0  0  0  0  0  0
   36.8610   28.7210   36.9400 C   0  0  0  0  0  0  0  0  0  0  0  0
   35.5660   28.6010   37.4100 C   0  0  0  0  0  0  0  0  0  0  0  0
   34.4270   28.8320   36.7050 C   0  0  0  0  0  0  0  0  0  0  0  0
   34.5220   29.2270   35.3850 C   0  0  0  0  0  0  0  0  0  0  0  0
   35.7400   29.3740   34.8110 C   0  0  0  0  0  0  0  0  0  0  0  0
   33.2100   29.3870   34.9710 O   0  0  0  0  0  0  0  0  0  0  0  0
   32.3180   29.0700   36.0120 C   0  0  1  0  0  0  0  0  0  0  0  0
   33.1180   28.7130   37.1470 O   0  0  0  0  0  0  0  0  0  0  0  0
   37.7130   29.2960   34.8980 H   0  0  0  0  0  0  0  0  0  0  0  0
   35.5610   28.3080   38.4110 H   0  0  0  0  0  0  0  0  0  0  0  0
   35.7030   29.6750   33.8000 H   0  0  0  0  0  0  0  0  0  0  0  0
   31.8010   28.1370   35.7070 H   0  0  0  0  0  0  0  0  0  0  0  0
   31.4050   30.1470   36.4030 C   0  0  0  0  0  0  0  0  0  0  0  0
   31.0250   31.2670   35.6960 C   0  0  0  0  0  0  0  0  0  0  0  0
   31.4690   31.3430   34.7280 H   0  0  0  0  0  0  0  0  0  0  0  0
   30.1480   32.1780   36.2320 C   0  0  0  0  0  3  0  0  0  0  0  0
   29.6030   32.0150   37.5100 C   0  0  0  0  0  0  0  0  0  0  0  0
   28.9130   32.7300   37.9350 H   0  0  0  0  0  0  0  0  0  0  0  0
   29.9850   30.8900   38.2210 C   0  0  0  0  0  0  0  0  0  0  0  0
   29.5660   30.7550   39.2140 H   0  0  0  0  0  0  0  0  0  0  0  0
   30.8740   29.9610   37.6850 C   0  0  0  0  0  3  0  0  0  0  0  0
  1  7  1  0  0  0  0
  2  1  1  0  0  0  0
  2  9  1  0  0  0  0
  3  2  2  0  0  0  0
  4  5  2  0  0  0  0
  4  3  1  0  0  0  0
  5  6  1  0  0  0  0
  6  1  2  0  0  0  0
  8  5  1  0  0  0  0
  9 10  1  0  0  0  0
  9 14  1  0  0  0  0
 10 16  1  0  0  0  0
 10 11  1  0  0  0  0
 11 12  1  0  0  0  0
 11 17  1  0  0  0  0
 12 13  1  0  0  0  0
 12 19  1  0  0  0  0
 13 21  1  0  0  0  0
 14 13  1  0  0  0  0
 14 22  1  0  0  0  0
 15 10  1  0  0  0  0
 18 11  1  0  0  0  0
 20 13  1  0  0  0  0
 23 14  1  0  0  0  0
 24 25  1  0  0  0  0
 25 26  2  0  0  0  0
 25  3  1  0  0  0  0
 26 34  1  0  0  0  0
 27 32  1  0  0  0  0
 27 26  1  0  0  0  0
 28 27  2  0  0  0  0
 29 28  1  0  0  0  0
 29 24  2  0  0  0  0
 30 28  1  0  0  0  0
 30 31  1  0  0  0  0
 31 36  1  6  0  0  0
 31 37  1  0  0  0  0
 31 32  1  0  0  0  0
 33 24  1  0  0  0  0
 35 29  1  0  0  0  0
 37 45  1  0  0  0  0
 38 40  1  0  0  0  0
 38 37  2  0  0  0  0
 39 38  1  0  0  0  0
 40 41  2  0  0  0  0
 41 42  1  0  0  0  0
 41 43  1  0  0  0  0
 43 44  1  0  0  0  0
 45 43  2  0  0  0  0
M  END
>  <minimizedAffinity>
-6.33828402

$$$$

 OpenBabel03242523093D

 45 49  0  0  1  0  0  0  0  0999 V2000
   39.9800   31.0010   41.9310 C   0  0  0  0  0  0  0  0  0  0  0  0
   38.9580   30.2470   41.3730 C   0  0  0  0  0  0  0  0  0  0  0  0
   38.3900   30.6930   40.2060 C   0  0  0  0  0  0  0  0  0  0  0  0
   38.8520   31.8550   39.6460 N   0  0  0  0  0  0  0  0  0  0  0  0
   39.8460   32.5680   40.2120 C   0  0  0  0  0  0  0  0  0  0  0  0
   40.3980   32.1410   41.3380 N   0  0  0  0  0  0  0  0  0  0  0  0
   40.4540   30.6860   42.8490 H   0  0  0  0  0  0  0  0  0  0  0  0
   40.2620   33.4900   39.8330 H   0  0  0  0  0  0  0  0  0  0  0  0
   38.5500   29.0920   42.0390 N   0  0  0  0  0  0  0  0  0  0  0  0
   37.7310   29.1200   43.1900 C   0  0  0  0  0  0  0  0  0  0  0  0
   37.2620   27.7760   43.6770 C   0  0  0  0  0  0  0  0  0  0  0  0
   36.9110   26.8530   42.6810 N   0  0  0  0  0  0  0  0  0  0  0  0
   37.7210   26.8250   41.5480 C   0  0  0  0  0  0  0  0  0  0  0  0
   38.9040   27.7670   41.6580 C   0  0  0  0  0  0  0  0  0  0  0  0
   36.8580   29.8090   43.1570 H   0  0  0  0  0  0  0  0  0  0  0  0
   38.3760   29.5370   44.0200 H   0  0  0  0  0  0  0  0  0  0  0  0
   38.0500   27.3250   44.3400 H   0  0  0  0  0  0  0  0  0  0  0  0
   36.3840   27.9510   44.3500 H   0  0  0  0  0  0  0  0  0  0  0  0
   36.7310   25.9340   43.1060 H   0  0  0  0  0  0  0  0  0  0  0  0
   37.2390   26.9690   40.5600 H   0  0  0  0  0  0  0  0  0  0  0  0
   38.1930   25.8000   41.4790 H   0  0  0  0  0  0  0  0  0  0  0  0
   39.5460   27.3250   42.4690 H   0  0  0  0  0  0  0  0  0  0  0  0
   39.4450   27.6750   40.6950 H   0  0  0  0  0  0  0  0  0  0  0  0
   37.7140   30.0830   38.0350 C   0  0  0  0  0  0  0  0  0  0  0  0
   37.3580   30.1840   39.3970 C   0  0  0  0  0  0  0  0  0  0  0  0
   36.0380   29.8110   39.5790 C   0  0  0  0  0  0  0  0  0  0  0  0
   35.1740   29.4070   38.6120 C   0  0  0  0  0  0  0  0  0  0  0  0
   35.6110   29.3460   37.3020 C   0  0  0  0  0  0  0  0  0  0  0  0
   36.8870   29.6820   37.0010 C   0  0  0  0  0  0  0  0  0  0  0  0
   34.5060   28.9190   36.5840 O   0  0  0  0  0  0  0  0  0  0  0  0
   33.4120   28.6950   37.4400 C   0  0  1  0  0  0  0  0  0  0  0  0
   33.8510   29.0210   38.7640 O   0  0  0  0  0  0  0  0  0  0  0  0
   38.6890   30.2880   37.5410 H   0  0  0  0  0  0  0  0  0  0  0  0
   35.7680   29.8850   40.5830 H   0  0  0  0  0  0  0  0  0  0  0  0
   37.1210   29.5990   35.9750 H   0  0  0  0  0  0  0  0  0  0  0  0
   33.2380   27.5990   37.4440 H   0  0  0  0  0  0  0  0  0  0  0  0
   32.2110   29.4790   37.1380 C   0  0  0  0  0  0  0  0  0  0  0  0
   31.1860   29.8620   37.9760 C   0  0  0  0  0  0  0  0  0  0  0  0
   31.3010   29.5300   38.9850 H   0  0  0  0  0  0  0  0  0  0  0  0
   30.1300   30.6050   37.5090 C   0  0  0  0  0  3  0  0  0  0  0  0
   30.0440   31.0050   36.1720 C   0  0  0  0  0  0  0  0  0  0  0  0
   29.2140   31.5890   35.8000 H   0  0  0  0  0  0  0  0  0  0  0  0
   31.0730   30.6210   35.3290 C   0  0  0  0  0  0  0  0  0  0  0  0
   31.0140   30.9270   34.2880 H   0  0  0  0  0  0  0  0  0  0  0  0
   32.1480   29.8670   35.7950 C   0  0  0  0  0  3  0  0  0  0  0  0
  1  7  1  0  0  0  0
  2  1  1  0  0  0  0
  2  9  1  0  0  0  0
  3  2  2  0  0  0  0
  4  3  1  0  0  0  0
  4  5  2  0  0  0  0
  5  6  1  0  0  0  0
  6  1  2  0  0  0  0
  8  5  1  0  0  0  0
  9 10  1  0  0  0  0
 10 11  1  0  0  0  0
 10 16  1  0  0  0  0
 11 17  1  0  0  0  0
 11 18  1  0  0  0  0
 12 19  1  0  0  0  0
 12 11  1  0  0  0  0
 13 14  1  0  0  0  0
 13 12  1  0  0  0  0
 14  9  1  0  0  0  0
 14 22  1  0  0  0  0
 15 10  1  0  0  0  0
 20 13  1  0  0  0  0
 21 13  1  0  0  0  0
 23 14  1  0  0  0  0
 24 25  1  0  0  0  0
 25 26  2  0  0  0  0
 25  3  1  0  0  0  0
 26 34  1  0  0  0  0
 27 32  1  0  0  0  0
 27 26  1  0  0  0  0
 28 27  2  0  0  0  0
 29 28  1  0  0  0  0
 29 24  2  0  0  0  0
 30 28  1  0  0  0  0
 30 31  1  0  0  0  0
 31 36  1  6  0  0  0
 31 32  1  0  0  0  0
 33 24  1  0  0  0  0
 35 29  1  0  0  0  0
 37 31  1  0  0  0  0
 37 38  1  0  0  0  0
 38 39  1  0  0  0  0
 40 38  2  0  0  0  0
 41 40  1  0  0  0  0
 42 41  1  0  0  0  0
 43 45  1  0  0  0  0
 43 41  2  0  0  0  0
 44 43  1  0  0  0  0
 45 37  2  0  0  0  0
M  END
>  <minimizedAffinity>
-6.11703396

$$$$

 OpenBabel03242523093D

 45 49  0  0  1  0  0  0  0  0999 V2000
   31.0750   28.0540   34.7670 C   0  0  0  0  0  0  0  0  0  0  0  0
   31.7340   28.7390   35.7780 C   0  0  0  0  0  0  0  0  0  0  0  0
   32.9790   28.2990   36.1510 C   0  0  0  0  0  0  0  0  0  0  0  0
   33.5130   27.2090   35.5160 N   0  0  0  0  0  0  0  0  0  0  0  0
   32.8500   26.5620   34.5380 C   0  0  0  0  0  0  0  0  0  0  0  0
   31.6480   26.9850   34.1730 N   0  0  0  0  0  0  0  0  0  0  0  0
   30.0930   28.3690   34.4420 H   0  0  0  0  0  0  0  0  0  0  0  0
   33.2030   25.6990   33.9930 H   0  0  0  0  0  0  0  0  0  0  0  0
   31.0860   29.8220   36.3720 N   0  0  0  0  0  0  0  0  0  0  0  0
   31.0550   31.1090   35.7900 C   0  0  0  0  0  0  0  0  0  0  0  0
   30.1770   32.1090   36.4900 C   0  0  0  0  0  0  0  0  0  0  0  0
   28.9590   31.6160   36.9820 N   0  0  0  0  0  0  0  0  0  0  0  0
   28.9910   30.3470   37.5570 C   0  0  0  0  0  0  0  0  0  0  0  0
   30.3930   29.7730   37.6140 C   0  0  0  0  0  0  0  0  0  0  0  0
   30.8400   31.1520   34.6990 H   0  0  0  0  0  0  0  0  0  0  0  0
   32.1070   31.5150   35.8770 H   0  0  0  0  0  0  0  0  0  0  0  0
   30.7510   32.5860   37.3310 H   0  0  0  0  0  0  0  0  0  0  0  0
   29.9770   32.9430   35.7690 H   0  0  0  0  0  0  0  0  0  0  0  0
   28.4950   32.3360   37.5500 H   0  0  0  0  0  0  0  0  0  0  0  0
   28.3050   29.5750   37.1560 H   0  0  0  0  0  0  0  0  0  0  0  0
   28.6930   30.4470   38.6440 H   0  0  0  0  0  0  0  0  0  0  0  0
   30.9400   30.4260   38.3500 H   0  0  0  0  0  0  0  0  0  0  0  0
   30.2810   28.7630   38.0590 H   0  0  0  0  0  0  0  0  0  0  0  0
   35.1310   29.1570   36.5690 C   0  0  0  0  0  0  0  0  0  0  0  0
   33.8950   28.7510   37.1170 C   0  0  0  0  0  0  0  0  0  0  0  0
   33.9280   28.8410   38.4980 C   0  0  0  0  0  0  0  0  0  0  0  0
   34.9800   29.2500   39.2540 C   0  0  0  0  0  0  0  0  0  0  0  0
   36.1540   29.6230   38.6280 C   0  0  0  0  0  0  0  0  0  0  0  0
   36.2400   29.5820   37.2770 C   0  0  0  0  0  0  0  0  0  0  0  0
   37.0090   29.9660   39.6620 O   0  0  0  0  0  0  0  0  0  0  0  0
   36.3650   29.8320   40.9060 C   0  0  1  0  0  0  0  0  0  0  0  0
   35.0400   29.3570   40.6350 O   0  0  0  0  0  0  0  0  0  0  0  0
   35.4440   29.2240   35.5040 H   0  0  0  0  0  0  0  0  0  0  0  0
   33.0190   28.5400   38.9100 H   0  0  0  0  0  0  0  0  0  0  0  0
   37.1760   29.8890   36.8980 H   0  0  0  0  0  0  0  0  0  0  0  0
   36.2380   30.8590   41.3040 H   0  0  0  0  0  0  0  0  0  0  0  0
   37.0090   28.9120   41.8470 C   0  0  0  0  0  0  0  0  0  0  0  0
   36.5110   27.7620   42.4220 C   0  0  0  0  0  0  0  0  0  0  0  0
   35.5110   27.5250   42.1270 H   0  0  0  0  0  0  0  0  0  0  0  0
   37.2710   27.0190   43.2920 C   0  0  0  0  0  3  0  0  0  0  0  0
   38.5740   27.3900   43.6340 C   0  0  0  0  0  0  0  0  0  0  0  0
   39.1750   26.8090   44.3190 H   0  0  0  0  0  0  0  0  0  0  0  0
   39.0760   28.5450   43.0570 C   0  0  0  0  0  0  0  0  0  0  0  0
   40.0880   28.8400   43.3180 H   0  0  0  0  0  0  0  0  0  0  0  0
   38.3120   29.3040   42.1740 C   0  0  0  0  0  3  0  0  0  0  0  0
  1  2  1  0  0  0  0
  2  3  2  0  0  0  0
  2  9  1  0  0  0  0
  3 25  1  0  0  0  0
  4  3  1  0  0  0  0
  5  4  2  0  0  0  0
  6  5  1  0  0  0  0
  6  1  2  0  0  0  0
  7  1  1  0  0  0  0
  8  5  1  0  0  0  0
  9 14  1  0  0  0  0
 10 16  1  0  0  0  0
 10  9  1  0  0  0  0
 10 11  1  0  0  0  0
 11 12  1  0  0  0  0
 11 17  1  0  0  0  0
 12 19  1  0  0  0  0
 12 13  1  0  0  0  0
 13 14  1  0  0  0  0
 13 21  1  0  0  0  0
 14 23  1  0  0  0  0
 14 22  1  0  0  0  0
 15 10  1  0  0  0  0
 18 11  1  0  0  0  0
 20 13  1  0  0  0  0
 24 25  2  0  0  0  0
 24 29  1  0  0  0  0
 25 26  1  0  0  0  0
 26 34  1  0  0  0  0
 26 27  2  0  0  0  0
 27 32  1  0  0  0  0
 28 27  1  0  0  0  0
 28 30  1  0  0  0  0
 29 28  2  0  0  0  0
 30 31  1  0  0  0  0
 31 36  1  1  0  0  0
 31 37  1  0  0  0  0
 32 31  1  0  0  0  0
 33 24  1  0  0  0  0
 35 29  1  0  0  0  0
 37 45  2  0  0  0  0
 37 38  1  0  0  0  0
 38 40  2  0  0  0  0
 39 38  1  0  0  0  0
 40 41  1  0  0  0  0
 41 42  1  0  0  0  0
 43 44  1  0  0  0  0
 43 41  2  0  0  0  0
 45 43  1  0  0  0  0
M  END
>  <minimizedAffinity>
-6.09917927

$$$$

 OpenBabel03242523093D

 45 49  0  0  1  0  0  0  0  0999 V2000
   40.5400   33.3780   39.0480 C   0  0  0  0  0  0  0  0  0  0  0  0
   40.3340   32.0390   39.3520 C   0  0  0  0  0  0  0  0  0  0  0  0
   39.5010   31.7360   40.4000 C   0  0  0  0  0  0  0  0  0  0  0  0
   38.9150   32.7590   41.0970 N   0  0  0  0  0  0  0  0  0  0  0  0
   39.1350   34.0500   40.7800 C   0  0  0  0  0  0  0  0  0  0  0  0
   39.9370   34.3480   39.7690 N   0  0  0  0  0  0  0  0  0  0  0  0
   41.1880   33.6600   38.2300 H   0  0  0  0  0  0  0  0  0  0  0  0
   38.7110   34.9090   41.2810 H   0  0  0  0  0  0  0  0  0  0  0  0
   41.0000   31.0800   38.5900 N   0  0  0  0  0  0  0  0  0  0  0  0
   40.3250   30.0680   37.8730 C   0  0  0  0  0  0  0  0  0  0  0  0
   41.1940   29.2240   36.9810 C   0  0  0  0  0  0  0  0  0  0  0  0
   42.2110   29.9050   36.2950 N   0  0  0  0  0  0  0  0  0  0  0  0
   42.8770   30.9010   37.0040 C   0  0  0  0  0  0  0  0  0  0  0  0
   42.4130   30.9960   38.4450 C   0  0  0  0  0  0  0  0  0  0  0  0
   39.4290   30.3860   37.2940 H   0  0  0  0  0  0  0  0  0  0  0  0
   39.9090   29.3600   38.6510 H   0  0  0  0  0  0  0  0  0  0  0  0
   41.6470   28.3900   37.5840 H   0  0  0  0  0  0  0  0  0  0  0  0
   40.5220   28.7140   36.2430 H   0  0  0  0  0  0  0  0  0  0  0  0
   42.8230   29.2300   35.8200 H   0  0  0  0  0  0  0  0  0  0  0  0
   42.9040   31.9210   36.5700 H   0  0  0  0  0  0  0  0  0  0  0  0
   43.9660   30.6060   37.0860 H   0  0  0  0  0  0  0  0  0  0  0  0
   42.7610   30.0370   38.9200 H   0  0  0  0  0  0  0  0  0  0  0  0
   42.9900   31.8330   38.8870 H   0  0  0  0  0  0  0  0  0  0  0  0
   39.9580   30.0400   41.9670 C   0  0  0  0  0  0  0  0  0  0  0  0
   39.0890   30.5150   40.9610 C   0  0  0  0  0  0  0  0  0  0  0  0
   38.0720   29.6050   40.7360 C   0  0  0  0  0  0  0  0  0  0  0  0
   37.9010   28.4130   41.3660 C   0  0  0  0  0  0  0  0  0  0  0  0
   38.8080   28.0290   42.3340 C   0  0  0  0  0  0  0  0  0  0  0  0
   39.8460   28.8410   42.6470 C   0  0  0  0  0  0  0  0  0  0  0  0
   38.3630   26.7880   42.7590 O   0  0  0  0  0  0  0  0  0  0  0  0
   37.1850   26.4230   42.0810 C   0  0  1  0  0  0  0  0  0  0  0  0
   36.8900   27.4850   41.1660 O   0  0  0  0  0  0  0  0  0  0  0  0
   40.8620   30.5190   42.4040 H   0  0  0  0  0  0  0  0  0  0  0  0
   37.4270   29.9470   39.9910 H   0  0  0  0  0  0  0  0  0  0  0  0
   40.4780   28.4580   43.4010 H   0  0  0  0  0  0  0  0  0  0  0  0
   36.3720   26.4440   42.8350 H   0  0  0  0  0  0  0  0  0  0  0  0
   37.2590   25.1670   41.3310 C   0  0  0  0  0  0  0  0  0  0  0  0
   37.9080   23.9940   41.6550 C   0  0  0  0  0  0  0  0  0  0  0  0
   38.4250   24.0260   42.5900 H   0  0  0  0  0  0  0  0  0  0  0  0
   37.8650   22.9070   40.8170 C   0  0  0  0  0  3  0  0  0  0  0  0
   37.1670   22.9360   39.6060 C   0  0  0  0  0  0  0  0  0  0  0  0
   37.1320   22.0820   38.9440 H   0  0  0  0  0  0  0  0  0  0  0  0
   36.5150   24.1130   39.2790 C   0  0  0  0  0  0  0  0  0  0  0  0
   35.9710   24.1440   38.3400 H   0  0  0  0  0  0  0  0  0  0  0  0
   36.5540   25.2200   40.1230 C   0  0  0  0  0  3  0  0  0  0  0  0
  1  2  2  0  0  0  0
  1  6  1  0  0  0  0
  2  3  1  0  0  0  0
  3 25  1  0  0  0  0
  3  4  2  0  0  0  0
  5  4  1  0  0  0  0
  5  8  1  0  0  0  0
  6  5  2  0  0  0  0
  7  1  1  0  0  0  0
  9  2  1  0  0  0  0
 10  9  1  0  0  0  0
 10 16  1  0  0  0  0
 11 17  1  0  0  0  0
 11 10  1  0  0  0  0
 12 11  1  0  0  0  0
 12 13  1  0  0  0  0
 13 21  1  0  0  0  0
 13 14  1  0  0  0  0
 14  9  1  0  0  0  0
 14 23  1  0  0  0  0
 14 22  1  0  0  0  0
 15 10  1  0  0  0  0
 18 11  1  0  0  0  0
 19 12  1  0  0  0  0
 20 13  1  0  0  0  0
 24 33  1  0  0  0  0
 24 29  1  0  0  0  0
 25 24  2  0  0  0  0
 26 25  1  0  0  0  0
 26 27  2  0  0  0  0
 27 28  1  0  0  0  0
 28 29  2  0  0  0  0
 28 30  1  0  0  0  0
 29 35  1  0  0  0  0
 31 30  1  0  0  0  0
 31 36  1  1  0  0  0
 32 27  1  0  0  0  0
 32 31  1  0  0  0  0
 34 26  1  0  0  0  0
 37 38  1  0  0  0  0
 37 31  1  0  0  0  0
 38 39  1  0  0  0  0
 40 38  2  0  0  0  0
 41 40  1  0  0  0  0
 42 41  1  0  0  0  0
 43 41  2  0  0  0  0
 43 45  1  0  0  0  0
 44 43  1  0  0  0  0
 45 37  2  0  0  0  0
M  END
>  <minimizedAffinity>
-6.07090569

$$$$

 OpenBabel03242523093D

 45 49  0  0  1  0  0  0  0  0999 V2000
   38.9850   28.8410   42.1730 C   0  0  0  0  0  0  0  0  0  0  0  0
   38.0920   28.3570   41.2290 C   0  0  0  0  0  0  0  0  0  0  0  0
   37.4430   29.2640   40.4290 C   0  0  0  0  0  0  0  0  0  0  0  0
   37.7010   30.5990   40.5970 N   0  0  0  0  0  0  0  0  0  0  0  0
   38.5730   31.0400   41.5250 C   0  0  0  0  0  0  0  0  0  0  0  0
   39.2030   30.1680   42.2980 N   0  0  0  0  0  0  0  0  0  0  0  0
   39.5170   28.1610   42.8230 H   0  0  0  0  0  0  0  0  0  0  0  0
   38.8290   32.0720   41.7170 H   0  0  0  0  0  0  0  0  0  0  0  0
   37.8880   26.9790   41.1590 N   0  0  0  0  0  0  0  0  0  0  0  0
   37.2140   26.2530   42.1660 C   0  0  0  0  0  0  0  0  0  0  0  0
   36.9470   24.8070   41.8460 C   0  0  0  0  0  0  0  0  0  0  0  0
   36.5740   24.5330   40.5210 N   0  0  0  0  0  0  0  0  0  0  0  0
   37.2410   25.2490   39.5290 C   0  0  0  0  0  0  0  0  0  0  0  0
   38.3260   26.1460   40.0910 C   0  0  0  0  0  0  0  0  0  0  0  0
   36.2780   26.7070   42.5590 H   0  0  0  0  0  0  0  0  0  0  0  0
   37.9080   26.2430   43.0590 H   0  0  0  0  0  0  0  0  0  0  0  0
   37.8500   24.1930   42.1120 H   0  0  0  0  0  0  0  0  0  0  0  0
   36.1420   24.4530   42.5410 H   0  0  0  0  0  0  0  0  0  0  0  0
   36.5410   23.5170   40.3730 H   0  0  0  0  0  0  0  0  0  0  0  0
   36.6320   25.8320   38.8100 H   0  0  0  0  0  0  0  0  0  0  0  0
   37.8040   24.5110   38.8820 H   0  0  0  0  0  0  0  0  0  0  0  0
   39.1030   25.4370   40.4920 H   0  0  0  0  0  0  0  0  0  0  0  0
   38.7540   26.6750   39.2170 H   0  0  0  0  0  0  0  0  0  0  0  0
   37.0770   29.0240   38.1160 C   0  0  0  0  0  0  0  0  0  0  0  0
   36.4970   29.1150   39.3990 C   0  0  0  0  0  0  0  0  0  0  0  0
   35.1170   29.1010   39.3050 C   0  0  0  0  0  0  0  0  0  0  0  0
   34.3870   29.0190   38.1620 C   0  0  0  0  0  0  0  0  0  0  0  0
   35.0440   28.9410   36.9490 C   0  0  0  0  0  0  0  0  0  0  0  0
   36.3970   28.9400   36.9140 C   0  0  0  0  0  0  0  0  0  0  0  0
   34.0320   28.8840   36.0050 O   0  0  0  0  0  0  0  0  0  0  0  0
   32.7700   28.9010   36.6270 C   0  0  1  0  0  0  0  0  0  0  0  0
   33.0060   28.9960   38.0370 O   0  0  0  0  0  0  0  0  0  0  0  0
   38.1510   28.9930   37.8260 H   0  0  0  0  0  0  0  0  0  0  0  0
   34.6810   29.1700   40.2500 H   0  0  0  0  0  0  0  0  0  0  0  0
   36.8010   28.8740   35.9410 H   0  0  0  0  0  0  0  0  0  0  0  0
   32.3290   27.8960   36.4660 H   0  0  0  0  0  0  0  0  0  0  0  0
   31.8900   30.0010   36.2250 C   0  0  0  0  0  0  0  0  0  0  0  0
   30.9400   30.6740   36.9640 C   0  0  0  0  0  0  0  0  0  0  0  0
   30.8480   30.3300   37.9710 H   0  0  0  0  0  0  0  0  0  0  0  0
   30.2020   31.6910   36.4100 C   0  0  0  0  0  3  0  0  0  0  0  0
   30.3760   32.0900   35.0820 C   0  0  0  0  0  0  0  0  0  0  0  0
   29.7970   32.8890   34.6420 H   0  0  0  0  0  0  0  0  0  0  0  0
   31.3290   31.4150   34.3380 C   0  0  0  0  0  0  0  0  0  0  0  0
   31.4710   31.7190   33.3050 H   0  0  0  0  0  0  0  0  0  0  0  0
   32.0820   30.3820   34.8920 C   0  0  0  0  0  3  0  0  0  0  0  0
  1  6  1  0  0  0  0
  1  7  1  0  0  0  0
  2  1  2  0  0  0  0
  3  4  2  0  0  0  0
  3  2  1  0  0  0  0
  4  5  1  0  0  0  0
  5  8  1  0  0  0  0
  5  6  2  0  0  0  0
  9  2  1  0  0  0  0
  9 10  1  0  0  0  0
 10 15  1  0  0  0  0
 10 16  1  0  0  0  0
 11 17  1  0  0  0  0
 11 10  1  0  0  0  0
 11 18  1  0  0  0  0
 12 11  1  0  0  0  0
 13 14  1  0  0  0  0
 13 12  1  0  0  0  0
 14 22  1  0  0  0  0
 14  9  1  0  0  0  0
 19 12  1  0  0  0  0
 20 13  1  0  0  0  0
 21 13  1  0  0  0  0
 23 14  1  0  0  0  0
 24 25  1  0  0  0  0
 25  3  1  0  0  0  0
 26 25  2  0  0  0  0
 26 34  1  0  0  0  0
 27 26  1  0  0  0  0
 28 27  2  0  0  0  0
 29 28  1  0  0  0  0
 29 24  2  0  0  0  0
 30 31  1  0  0  0  0
 30 28  1  0  0  0  0
 31 36  1  6  0  0  0
 31 32  1  0  0  0  0
 32 27  1  0  0  0  0
 33 24  1  0  0  0  0
 35 29  1  0  0  0  0
 37 31  1  0  0  0  0
 37 38  1  0  0  0  0
 38 39  1  0  0  0  0
 40 38  2  0  0  0  0
 41 40  1  0  0  0  0
 42 41  1  0  0  0  0
 43 45  1  0  0  0  0
 43 41  2  0  0  0  0
 44 43  1  0  0  0  0
 45 37  2  0  0  0  0
M  END
>  <minimizedAffinity>
-6.05468225

$$$$

 OpenBabel03242523093D

 45 49  0  0  1  0  0  0  0  0999 V2000
   41.2370   32.1780   41.2580 C   0  0  0  0  0  0  0  0  0  0  0  0
   40.3310   31.1290   41.1980 C   0  0  0  0  0  0  0  0  0  0  0  0
   40.5390   30.0480   42.0170 C   0  0  0  0  0  0  0  0  0  0  0  0
   41.6250   30.0500   42.8530 N   0  0  0  0  0  0  0  0  0  0  0  0
   42.4890   31.0830   42.8890 C   0  0  0  0  0  0  0  0  0  0  0  0
   42.2920   32.1290   42.1000 N   0  0  0  0  0  0  0  0  0  0  0  0
   41.1100   33.0480   40.6300 H   0  0  0  0  0  0  0  0  0  0  0  0
   43.3650   31.1570   43.5170 H   0  0  0  0  0  0  0  0  0  0  0  0
   39.2730   31.2220   40.2930 N   0  0  0  0  0  0  0  0  0  0  0  0
   38.0420   31.8340   40.6160 C   0  0  0  0  0  0  0  0  0  0  0  0
   37.0800   31.9850   39.4690 C   0  0  0  0  0  0  0  0  0  0  0  0
   37.6490   32.3370   38.2360 N   0  0  0  0  0  0  0  0  0  0  0  0
   38.8630   31.7310   37.9180 C   0  0  0  0  0  0  0  0  0  0  0  0
   39.2970   30.7200   38.9620 C   0  0  0  0  0  0  0  0  0  0  0  0
   38.1000   32.8030   41.1590 H   0  0  0  0  0  0  0  0  0  0  0  0
   37.5330   31.1400   41.3500 H   0  0  0  0  0  0  0  0  0  0  0  0
   36.4910   31.0350   39.3490 H   0  0  0  0  0  0  0  0  0  0  0  0
   36.3240   32.7580   39.7650 H   0  0  0  0  0  0  0  0  0  0  0  0
   36.9360   32.2880   37.4970 H   0  0  0  0  0  0  0  0  0  0  0  0
   39.7240   32.3850   37.6750 H   0  0  0  0  0  0  0  0  0  0  0  0
   38.7120   31.1110   36.9840 H   0  0  0  0  0  0  0  0  0  0  0  0
   38.5420   29.8880   38.8840 H   0  0  0  0  0  0  0  0  0  0  0  0
   40.2760   30.3370   38.6130 H   0  0  0  0  0  0  0  0  0  0  0  0
   40.4610   27.9600   43.1010 C   0  0  0  0  0  0  0  0  0  0  0  0
   39.8320   28.8470   42.2010 C   0  0  0  0  0  0  0  0  0  0  0  0
   38.6940   28.2660   41.6690 C   0  0  0  0  0  0  0  0  0  0  0  0
   38.2210   27.0220   41.9440 C   0  0  0  0  0  0  0  0  0  0  0  0
   38.9090   26.2220   42.8340 C   0  0  0  0  0  0  0  0  0  0  0  0
   40.0370   26.6840   43.4240 C   0  0  0  0  0  0  0  0  0  0  0  0
   38.1840   25.0420   42.8790 O   0  0  0  0  0  0  0  0  0  0  0  0
   37.0510   25.1230   42.0480 C   0  0  1  0  0  0  0  0  0  0  0  0
   37.0820   26.4170   41.4330 O   0  0  0  0  0  0  0  0  0  0  0  0
   41.3790   28.1060   43.7120 H   0  0  0  0  0  0  0  0  0  0  0  0
   38.2250   28.9140   41.0010 H   0  0  0  0  0  0  0  0  0  0  0  0
   40.4850   25.9980   44.0900 H   0  0  0  0  0  0  0  0  0  0  0  0
   36.1700   25.1340   42.7220 H   0  0  0  0  0  0  0  0  0  0  0  0
   36.9740   24.1060   40.9960 C   0  0  0  0  0  0  0  0  0  0  0  0
   35.9670   23.8680   40.0860 C   0  0  0  0  0  0  0  0  0  0  0  0
   35.1320   24.5280   40.1760 H   0  0  0  0  0  0  0  0  0  0  0  0
   36.0730   22.8570   39.1620 C   0  0  0  0  0  3  0  0  0  0  0  0
   37.1970   22.0280   39.1010 C   0  0  0  0  0  0  0  0  0  0  0  0
   37.2840   21.2310   38.3760 H   0  0  0  0  0  0  0  0  0  0  0  0
   38.2100   22.2670   40.0150 C   0  0  0  0  0  0  0  0  0  0  0  0
   39.0870   21.6270   39.9740 H   0  0  0  0  0  0  0  0  0  0  0  0
   38.1100   23.2900   40.9550 C   0  0  0  0  0  3  0  0  0  0  0  0
  1  6  1  0  0  0  0
  2  1  2  0  0  0  0
  2  3  1  0  0  0  0
  3 25  1  0  0  0  0
  3  4  2  0  0  0  0
  4  5  1  0  0  0  0
  5  8  1  0  0  0  0
  6  5  2  0  0  0  0
  7  1  1  0  0  0  0
  9 10  1  0  0  0  0
  9  2  1  0  0  0  0
 10 15  1  0  0  0  0
 10 16  1  0  0  0  0
 11 18  1  0  0  0  0
 11 10  1  0  0  0  0
 12 11  1  0  0  0  0
 13 12  1  0  0  0  0
 13 14  1  0  0  0  0
 14  9  1  0  0  0  0
 17 11  1  0  0  0  0
 19 12  1  0  0  0  0
 20 13  1  0  0  0  0
 21 13  1  0  0  0  0
 22 14  1  0  0  0  0
 23 14  1  0  0  0  0
 24 29  1  0  0  0  0
 24 33  1  0  0  0  0
 25 24  2  0  0  0  0
 26 27  2  0  0  0  0
 26 25  1  0  0  0  0
 27 28  1  0  0  0  0
 28 30  1  0  0  0  0
 28 29  2  0  0  0  0
 29 35  1  0  0  0  0
 31 36  1  1  0  0  0
 31 30  1  0  0  0  0
 32 27  1  0  0  0  0
 32 31  1  0  0  0  0
 34 26  1  0  0  0  0
 37 31  1  0  0  0  0
 38 39  1  0  0  0  0
 38 37  2  0  0  0  0
 40 38  1  0  0  0  0
 41 40  2  0  0  0  0
 41 43  1  0  0  0  0
 42 41  1  0  0  0  0
 43 45  2  0  0  0  0
 44 43  1  0  0  0  0
 45 37  1  0  0  0  0
M  END
>  <minimizedAffinity>
-6.01086378

$$$$

 OpenBabel03242523093D

 45 49  0  0  1  0  0  0  0  0999 V2000
   39.6130   29.0040   40.6360 C   0  0  0  0  0  0  0  0  0  0  0  0
   38.4170   28.6400   40.0350 C   0  0  0  0  0  0  0  0  0  0  0  0
   38.0300   29.3170   38.9060 C   0  0  0  0  0  0  0  0  0  0  0  0
   38.8340   30.3160   38.4240 N   0  0  0  0  0  0  0  0  0  0  0  0
   39.9910   30.6480   39.0300 C   0  0  0  0  0  0  0  0  0  0  0  0
   40.3700   29.9970   40.1190 N   0  0  0  0  0  0  0  0  0  0  0  0
   39.9550   28.4960   41.5270 H   0  0  0  0  0  0  0  0  0  0  0  0
   40.6760   31.4210   38.7120 H   0  0  0  0  0  0  0  0  0  0  0  0
   37.6650   27.6240   40.6240 N   0  0  0  0  0  0  0  0  0  0  0  0
   37.7730   26.2700   40.2370 C   0  0  0  0  0  0  0  0  0  0  0  0
   37.0060   25.2950   41.0890 C   0  0  0  0  0  0  0  0  0  0  0  0
   37.0080   25.5550   42.4690 N   0  0  0  0  0  0  0  0  0  0  0  0
   36.9000   26.8910   42.8480 C   0  0  0  0  0  0  0  0  0  0  0  0
   36.7110   27.8170   41.6620 C   0  0  0  0  0  0  0  0  0  0  0  0
   38.8040   25.8780   40.0940 H   0  0  0  0  0  0  0  0  0  0  0  0
   37.3110   26.2020   39.2070 H   0  0  0  0  0  0  0  0  0  0  0  0
   35.9440   25.2370   40.7250 H   0  0  0  0  0  0  0  0  0  0  0  0
   37.4320   24.2760   40.9010 H   0  0  0  0  0  0  0  0  0  0  0  0
   36.3580   24.9170   42.9440 H   0  0  0  0  0  0  0  0  0  0  0  0
   37.6860   27.3110   43.5070 H   0  0  0  0  0  0  0  0  0  0  0  0
   35.9460   27.0100   43.4430 H   0  0  0  0  0  0  0  0  0  0  0  0
   35.6920   27.5590   41.2590 H   0  0  0  0  0  0  0  0  0  0  0  0
   36.6690   28.8390   42.0890 H   0  0  0  0  0  0  0  0  0  0  0  0
   37.2240   29.1720   36.6990 C   0  0  0  0  0  0  0  0  0  0  0  0
   36.9030   29.2060   38.0730 C   0  0  0  0  0  0  0  0  0  0  0  0
   35.5300   29.1890   38.2460 C   0  0  0  0  0  0  0  0  0  0  0  0
   34.5930   29.1510   37.2620 C   0  0  0  0  0  0  0  0  0  0  0  0
   35.0040   29.1260   35.9430 C   0  0  0  0  0  0  0  0  0  0  0  0
   36.3250   29.1340   35.6480 C   0  0  0  0  0  0  0  0  0  0  0  0
   33.8290   29.1040   35.2110 O   0  0  0  0  0  0  0  0  0  0  0  0
   32.7100   29.0880   36.0640 C   0  0  1  0  0  0  0  0  0  0  0  0
   33.2140   29.1250   37.4050 O   0  0  0  0  0  0  0  0  0  0  0  0
   38.2220   29.1590   36.2060 H   0  0  0  0  0  0  0  0  0  0  0  0
   35.2850   29.2160   39.2590 H   0  0  0  0  0  0  0  0  0  0  0  0
   36.5340   29.1100   34.6130 H   0  0  0  0  0  0  0  0  0  0  0  0
   32.2430   28.0880   35.9490 H   0  0  0  0  0  0  0  0  0  0  0  0
   31.7720   30.1990   35.8860 C   0  0  0  0  0  0  0  0  0  0  0  0
   30.8670   30.7280   36.7800 C   0  0  0  0  0  0  0  0  0  0  0  0
   30.8630   30.2470   37.7340 H   0  0  0  0  0  0  0  0  0  0  0  0
   30.0600   31.7840   36.4290 C   0  0  0  0  0  3  0  0  0  0  0  0
   30.1180   32.3660   35.1600 C   0  0  0  0  0  0  0  0  0  0  0  0
   29.4850   33.1960   34.8800 H   0  0  0  0  0  0  0  0  0  0  0  0
   31.0270   31.8350   34.2600 C   0  0  0  0  0  0  0  0  0  0  0  0
   31.0780   32.2820   33.2720 H   0  0  0  0  0  0  0  0  0  0  0  0
   31.8490   30.7650   34.6080 C   0  0  0  0  0  3  0  0  0  0  0  0
  1  7  1  0  0  0  0
  2  9  1  0  0  0  0
  2  1  2  0  0  0  0
  3  2  1  0  0  0  0
  4  3  2  0  0  0  0
  4  5  1  0  0  0  0
  5  6  2  0  0  0  0
  6  1  1  0  0  0  0
  8  5  1  0  0  0  0
  9 14  1  0  0  0  0
 10  9  1  0  0  0  0
 10 11  1  0  0  0  0
 11 12  1  0  0  0  0
 12 13  1  0  0  0  0
 12 19  1  0  0  0  0
 13 21  1  0  0  0  0
 13 20  1  0  0  0  0
 14 23  1  0  0  0  0
 14 13  1  0  0  0  0
 15 10  1  0  0  0  0
 16 10  1  0  0  0  0
 17 11  1  0  0  0  0
 18 11  1  0  0  0  0
 22 14  1  0  0  0  0
 24 25  1  0  0  0  0
 25 26  2  0  0  0  0
 25  3  1  0  0  0  0
 26 34  1  0  0  0  0
 27 32  1  0  0  0  0
 27 26  1  0  0  0  0
 28 27  2  0  0  0  0
 29 28  1  0  0  0  0
 29 24  2  0  0  0  0
 30 28  1  0  0  0  0
 30 31  1  0  0  0  0
 31 36  1  6  0  0  0
 31 32  1  0  0  0  0
 33 24  1  0  0  0  0
 35 29  1  0  0  0  0
 37 31  1  0  0  0  0
 37 38  1  0  0  0  0
 38 39  1  0  0  0  0
 40 38  2  0  0  0  0
 41 40  1  0  0  0  0
 42 41  1  0  0  0  0
 43 45  1  0  0  0  0
 43 41  2  0  0  0  0
 44 43  1  0  0  0  0
 45 37  2  0  0  0  0
M  END
>  <minimizedAffinity>
-5.9475894

$$$$
