
 OpenBabel03252503583D

 20 21  0  0  0  0  0  0  0  0999 V2000
   37.6820   32.3690   39.7790 C   0  0  0  0  0  0  0  0  0  0  0  0
   37.3410   32.1020   38.4550 C   0  0  0  0  0  0  0  0  0  0  0  0
   36.9840   30.7900   38.1150 C   0  0  0  0  0  0  0  0  0  0  0  0
   37.0000   29.8740   39.1250 N   0  0  0  0  0  0  0  0  0  0  0  0
   37.3340   30.1720   40.3850 C   0  0  0  0  0  0  0  0  0  0  0  0
   37.6760   31.4240   40.7160 N   0  0  0  0  0  0  0  0  0  0  0  0
   37.3230   32.8200   37.6390 H   0  0  0  0  0  0  0  0  0  0  0  0
   36.7150   30.5500   37.0960 H   0  0  0  0  0  0  0  0  0  0  0  0
   37.3160   29.1100   41.3860 C   0  0  0  0  0  0  0  0  0  0  0  0
   36.9470   27.8290   41.0210 C   0  0  0  0  0  0  0  0  0  0  0  0
   36.6840   27.6730   39.9820 H   0  0  0  0  0  0  0  0  0  0  0  0
   36.9190   26.8110   41.9340 C   0  0  0  0  0  3  0  0  0  0  0  0
   37.2740   27.1120   43.2370 C   0  0  0  0  0  0  0  0  0  0  0  0
   37.2390   26.2740   43.9320 H   0  0  0  0  0  0  0  0  0  0  0  0
   37.6430   28.3880   43.6070 C   0  0  0  0  0  0  0  0  0  0  0  0
   37.9030   28.5200   44.6580 H   0  0  0  0  0  0  0  0  0  0  0  0
   37.6750   29.4280   42.6920 C   0  0  0  0  0  3  0  0  0  0  0  0
   38.0330   33.7470   40.0260 C   0  0  0  0  0  0  0  0  0  0  0  0
   38.8520   34.1560   40.9090 O   0  0  0  0  0  0  0  0  0  0  0  0
   37.4290   34.2640   39.2830 H   0  0  0  0  0  0  0  0  0  0  0  0
  1 18  1  0  0  0  0
  1  6  1  0  0  0  0
  2  1  2  0  0  0  0
  3  2  1  0  0  0  0
  3  4  2  0  0  0  0
  4  5  1  0  0  0  0
  5  6  2  0  0  0  0
  5  9  1  0  0  0  0
  7  2  1  0  0  0  0
  8  3  1  0  0  0  0
  9 17  1  0  0  0  0
 10  9  2  0  0  0  0
 10 12  1  0  0  0  0
 11 10  1  0  0  0  0
 12 13  2  0  0  0  0
 13 15  1  0  0  0  0
 13 14  1  0  0  0  0
 15 16  1  0  0  0  0
 17 15  2  0  0  0  0
 18 19  2  0  0  0  0
 20 18  1  0  0  0  0
M  END
>  <minimizedAffinity>
-4.38384056

$$$$

 OpenBabel03252503583D

 20 21  0  0  0  0  0  0  0  0999 V2000
   39.5660   32.5110   40.6620 C   0  0  0  0  0  0  0  0  0  0  0  0
   38.6400   33.2390   39.9180 C   0  0  0  0  0  0  0  0  0  0  0  0
   37.3260   32.7530   39.8390 C   0  0  0  0  0  0  0  0  0  0  0  0
   37.0650   31.5940   40.5080 N   0  0  0  0  0  0  0  0  0  0  0  0
   37.9860   30.9260   41.2120 C   0  0  0  0  0  0  0  0  0  0  0  0
   39.2410   31.3840   41.2910 N   0  0  0  0  0  0  0  0  0  0  0  0
   38.8310   34.1630   39.3800 H   0  0  0  0  0  0  0  0  0  0  0  0
   36.5840   33.2950   39.2700 H   0  0  0  0  0  0  0  0  0  0  0  0
   37.5930   29.6940   41.8880 C   0  0  0  0  0  0  0  0  0  0  0  0
   38.2710   29.2870   43.0220 C   0  0  0  0  0  0  0  0  0  0  0  0
   39.0810   29.9210   43.3610 H   0  0  0  0  0  0  0  0  0  0  0  0
   37.9290   28.1370   43.6800 C   0  0  0  0  0  3  0  0  0  0  0  0
   36.8780   27.3970   43.1670 C   0  0  0  0  0  0  0  0  0  0  0  0
   36.6370   26.4900   43.7190 H   0  0  0  0  0  0  0  0  0  0  0  0
   36.1980   27.7980   42.0360 C   0  0  0  0  0  0  0  0  0  0  0  0
   35.3870   27.1440   41.7150 H   0  0  0  0  0  0  0  0  0  0  0  0
   36.5350   28.9600   41.3610 C   0  0  0  0  0  3  0  0  0  0  0  0
   40.8870   33.0940   40.6810 C   0  0  0  0  0  0  0  0  0  0  0  0
   41.3170   33.9800   39.8760 O   0  0  0  0  0  0  0  0  0  0  0  0
   41.3420   32.5770   41.5230 H   0  0  0  0  0  0  0  0  0  0  0  0
  1 18  1  0  0  0  0
  1  6  1  0  0  0  0
  2  1  2  0  0  0  0
  3  2  1  0  0  0  0
  3  4  2  0  0  0  0
  4  5  1  0  0  0  0
  5  6  2  0  0  0  0
  5  9  1  0  0  0  0
  7  2  1  0  0  0  0
  8  3  1  0  0  0  0
  9 10  1  0  0  0  0
 10 11  1  0  0  0  0
 10 12  2  0  0  0  0
 13 12  1  0  0  0  0
 13 14  1  0  0  0  0
 15 13  2  0  0  0  0
 16 15  1  0  0  0  0
 17  9  2  0  0  0  0
 17 15  1  0  0  0  0
 18 20  1  0  0  0  0
 19 18  2  0  0  0  0
M  END
>  <minimizedAffinity>
-4.37700272

$$$$

 OpenBabel03252503583D

 20 21  0  0  0  0  0  0  0  0999 V2000
   37.2870   30.8350   38.1920 C   0  0  0  0  0  0  0  0  0  0  0  0
   37.3190   32.2060   38.4320 C   0  0  0  0  0  0  0  0  0  0  0  0
   37.3130   32.6440   39.7650 C   0  0  0  0  0  0  0  0  0  0  0  0
   37.2770   31.6760   40.7240 N   0  0  0  0  0  0  0  0  0  0  0  0
   37.2470   30.3670   40.4480 C   0  0  0  0  0  0  0  0  0  0  0  0
   37.2530   29.9420   39.1780 N   0  0  0  0  0  0  0  0  0  0  0  0
   37.3480   32.9910   37.6810 H   0  0  0  0  0  0  0  0  0  0  0  0
   37.3370   33.7020   39.9850 H   0  0  0  0  0  0  0  0  0  0  0  0
   37.2100   29.4180   41.5560 C   0  0  0  0  0  0  0  0  0  0  0  0
   38.0720   29.5770   42.6250 C   0  0  0  0  0  0  0  0  0  0  0  0
   38.7490   30.4220   42.5870 H   0  0  0  0  0  0  0  0  0  0  0  0
   38.0630   28.7050   43.6800 C   0  0  0  0  0  3  0  0  0  0  0  0
   37.1600   27.6580   43.6350 C   0  0  0  0  0  0  0  0  0  0  0  0
   37.1850   26.9870   44.4920 H   0  0  0  0  0  0  0  0  0  0  0  0
   36.2980   27.4940   42.5710 C   0  0  0  0  0  0  0  0  0  0  0  0
   35.6260   26.6370   42.6330 H   0  0  0  0  0  0  0  0  0  0  0  0
   36.2970   28.3700   41.4970 C   0  0  0  0  0  3  0  0  0  0  0  0
   37.2960   30.4870   36.7900 C   0  0  0  0  0  0  0  0  0  0  0  0
   36.3950   29.8250   36.1850 O   0  0  0  0  0  0  0  0  0  0  0  0
   38.2310   30.9340   36.4600 H   0  0  0  0  0  0  0  0  0  0  0  0
  1  2  2  0  0  0  0
  1  6  1  0  0  0  0
  2  3  1  0  0  0  0
  3  8  1  0  0  0  0
  3  4  2  0  0  0  0
  5  4  1  0  0  0  0
  5  9  1  0  0  0  0
  6  5  2  0  0  0  0
  7  2  1  0  0  0  0
  9 10  1  0  0  0  0
 10 12  2  0  0  0  0
 11 10  1  0  0  0  0
 13 12  1  0  0  0  0
 13 14  1  0  0  0  0
 15 16  1  0  0  0  0
 15 13  2  0  0  0  0
 17  9  2  0  0  0  0
 17 15  1  0  0  0  0
 18  1  1  0  0  0  0
 19 18  2  0  0  0  0
 20 18  1  0  0  0  0
M  END
>  <minimizedAffinity>
-4.32150412

$$$$

 OpenBabel03252503583D

 20 21  0  0  0  0  0  0  0  0999 V2000
   37.3600   26.9500   41.8390 C   0  0  0  0  0  0  0  0  0  0  0  0
   37.4480   27.2410   43.1980 C   0  0  0  0  0  0  0  0  0  0  0  0
   37.5060   28.5870   43.5850 C   0  0  0  0  0  0  0  0  0  0  0  0
   37.4680   29.5100   42.5820 N   0  0  0  0  0  0  0  0  0  0  0  0
   37.3820   29.1880   41.2870 C   0  0  0  0  0  0  0  0  0  0  0  0
   37.3270   27.9040   40.9110 N   0  0  0  0  0  0  0  0  0  0  0  0
   37.4790   26.5180   44.0090 H   0  0  0  0  0  0  0  0  0  0  0  0
   37.5750   28.8460   44.6320 H   0  0  0  0  0  0  0  0  0  0  0  0
   37.3490   30.2610   40.2980 C   0  0  0  0  0  0  0  0  0  0  0  0
   37.3880   31.5780   40.7130 C   0  0  0  0  0  0  0  0  0  0  0  0
   37.4440   31.7540   41.7800 H   0  0  0  0  0  0  0  0  0  0  0  0
   37.3580   32.6080   39.8120 C   0  0  0  0  0  3  0  0  0  0  0  0
   37.2870   32.2800   38.4700 C   0  0  0  0  0  0  0  0  0  0  0  0
   37.2650   33.1270   37.7860 H   0  0  0  0  0  0  0  0  0  0  0  0
   37.2470   30.9670   38.0500 C   0  0  0  0  0  0  0  0  0  0  0  0
   37.1910   30.8160   36.9710 H   0  0  0  0  0  0  0  0  0  0  0  0
   37.2770   29.9160   38.9520 C   0  0  0  0  0  3  0  0  0  0  0  0
   37.3060   25.5380   41.5450 C   0  0  0  0  0  0  0  0  0  0  0  0
   36.7450   24.6520   42.2660 O   0  0  0  0  0  0  0  0  0  0  0  0
   37.8470   25.4890   40.6030 H   0  0  0  0  0  0  0  0  0  0  0  0
  1  2  1  0  0  0  0
  2  3  2  0  0  0  0
  2  7  1  0  0  0  0
  3  8  1  0  0  0  0
  4  3  1  0  0  0  0
  5  4  2  0  0  0  0
  6  5  1  0  0  0  0
  6  1  2  0  0  0  0
  9 10  1  0  0  0  0
  9  5  1  0  0  0  0
 10 11  1  0  0  0  0
 12 10  2  0  0  0  0
 13 12  1  0  0  0  0
 14 13  1  0  0  0  0
 15 13  2  0  0  0  0
 15 17  1  0  0  0  0
 16 15  1  0  0  0  0
 17  9  2  0  0  0  0
 18  1  1  0  0  0  0
 18 19  2  0  0  0  0
 20 18  1  0  0  0  0
M  END
>  <minimizedAffinity>
-4.30110312

$$$$

 OpenBabel03252503583D

 20 21  0  0  0  0  0  0  0  0999 V2000
   39.5440   32.4250   40.6720 C   0  0  0  0  0  0  0  0  0  0  0  0
   38.5840   33.1720   39.9930 C   0  0  0  0  0  0  0  0  0  0  0  0
   37.2770   32.6680   39.9300 C   0  0  0  0  0  0  0  0  0  0  0  0
   37.0550   31.4740   40.5490 N   0  0  0  0  0  0  0  0  0  0  0  0
   38.0070   30.7890   41.1910 C   0  0  0  0  0  0  0  0  0  0  0  0
   39.2570   31.2640   41.2550 N   0  0  0  0  0  0  0  0  0  0  0  0
   38.7440   34.1250   39.4950 H   0  0  0  0  0  0  0  0  0  0  0  0
   36.5090   33.2240   39.4100 H   0  0  0  0  0  0  0  0  0  0  0  0
   37.6550   29.5190   41.8180 C   0  0  0  0  0  0  0  0  0  0  0  0
   36.9200   28.5850   41.1130 C   0  0  0  0  0  0  0  0  0  0  0  0
   36.6360   28.8490   40.1010 H   0  0  0  0  0  0  0  0  0  0  0  0
   36.5730   27.3850   41.6720 C   0  0  0  0  0  3  0  0  0  0  0  0
   36.9840   27.1430   42.9700 C   0  0  0  0  0  0  0  0  0  0  0  0
   36.6880   26.1770   43.3780 H   0  0  0  0  0  0  0  0  0  0  0  0
   37.7170   28.0710   43.6800 C   0  0  0  0  0  0  0  0  0  0  0  0
   37.9910   27.7830   44.6950 H   0  0  0  0  0  0  0  0  0  0  0  0
   38.0750   29.2890   43.1250 C   0  0  0  0  0  3  0  0  0  0  0  0
   40.8560   33.0290   40.6790 C   0  0  0  0  0  0  0  0  0  0  0  0
   41.1930   34.0760   40.0410 O   0  0  0  0  0  0  0  0  0  0  0  0
   41.4000   32.3610   41.3430 H   0  0  0  0  0  0  0  0  0  0  0  0
  1 18  1  0  0  0  0
  1  6  1  0  0  0  0
  2  1  2  0  0  0  0
  3  2  1  0  0  0  0
  3  4  2  0  0  0  0
  4  5  1  0  0  0  0
  5  6  2  0  0  0  0
  5  9  1  0  0  0  0
  7  2  1  0  0  0  0
  8  3  1  0  0  0  0
  9 17  1  0  0  0  0
 10 12  1  0  0  0  0
 10  9  2  0  0  0  0
 11 10  1  0  0  0  0
 12 13  2  0  0  0  0
 13 14  1  0  0  0  0
 13 15  1  0  0  0  0
 15 16  1  0  0  0  0
 17 15  2  0  0  0  0
 18 20  1  0  0  0  0
 19 18  2  0  0  0  0
M  END
>  <minimizedAffinity>
-4.29572725

$$$$

 OpenBabel03252503583D

 20 21  0  0  0  0  0  0  0  0999 V2000
   37.8860   30.9220   41.0350 C   0  0  0  0  0  0  0  0  0  0  0  0
   36.5430   30.9080   40.6670 C   0  0  0  0  0  0  0  0  0  0  0  0
   35.8190   29.7210   40.8480 C   0  0  0  0  0  0  0  0  0  0  0  0
   36.5030   28.6670   41.3780 N   0  0  0  0  0  0  0  0  0  0  0  0
   37.7950   28.7230   41.7190 C   0  0  0  0  0  0  0  0  0  0  0  0
   38.4910   29.8540   41.5490 N   0  0  0  0  0  0  0  0  0  0  0  0
   35.9840   31.7380   40.2440 H   0  0  0  0  0  0  0  0  0  0  0  0
   34.7750   29.6780   40.5720 H   0  0  0  0  0  0  0  0  0  0  0  0
   38.4240   27.5310   42.2790 C   0  0  0  0  0  0  0  0  0  0  0  0
   37.9680   26.2780   41.9150 C   0  0  0  0  0  0  0  0  0  0  0  0
   37.1450   26.2430   41.2120 H   0  0  0  0  0  0  0  0  0  0  0  0
   38.5360   25.1410   42.4220 C   0  0  0  0  0  3  0  0  0  0  0  0
   39.5840   25.2930   43.3120 C   0  0  0  0  0  0  0  0  0  0  0  0
   40.0080   24.3640   43.6920 H   0  0  0  0  0  0  0  0  0  0  0  0
   40.0430   26.5400   43.6790 C   0  0  0  0  0  0  0  0  0  0  0  0
   40.8730   26.5500   44.3870 H   0  0  0  0  0  0  0  0  0  0  0  0
   39.4770   27.6990   43.1740 C   0  0  0  0  0  3  0  0  0  0  0  0
   38.5410   32.1890   40.8100 C   0  0  0  0  0  0  0  0  0  0  0  0
   38.0000   33.2230   40.3040 O   0  0  0  0  0  0  0  0  0  0  0  0
   39.5440   31.9860   41.1790 H   0  0  0  0  0  0  0  0  0  0  0  0
  1  6  1  0  0  0  0
  2  3  1  0  0  0  0
  2  1  2  0  0  0  0
  3  4  2  0  0  0  0
  4  5  1  0  0  0  0
  5  9  1  0  0  0  0
  6  5  2  0  0  0  0
  7  2  1  0  0  0  0
  8  3  1  0  0  0  0
  9 17  1  0  0  0  0
 10  9  2  0  0  0  0
 10 12  1  0  0  0  0
 11 10  1  0  0  0  0
 12 13  2  0  0  0  0
 13 15  1  0  0  0  0
 13 14  1  0  0  0  0
 15 16  1  0  0  0  0
 17 15  2  0  0  0  0
 18  1  1  0  0  0  0
 18 20  1  0  0  0  0
 19 18  2  0  0  0  0
M  END
>  <minimizedAffinity>
-4.1681757

$$$$

 OpenBabel03252503583D

 20 21  0  0  0  0  0  0  0  0999 V2000
   38.3360   29.5470   42.4480 C   0  0  0  0  0  0  0  0  0  0  0  0
   38.0640   28.7860   43.5820 C   0  0  0  0  0  0  0  0  0  0  0  0
   37.0210   27.8510   43.5180 C   0  0  0  0  0  0  0  0  0  0  0  0
   36.3540   27.7640   42.3320 N   0  0  0  0  0  0  0  0  0  0  0  0
   36.6480   28.5140   41.2650 C   0  0  0  0  0  0  0  0  0  0  0  0
   37.6430   29.4090   41.3200 N   0  0  0  0  0  0  0  0  0  0  0  0
   38.5850   28.8420   44.5340 H   0  0  0  0  0  0  0  0  0  0  0  0
   36.7860   27.2450   44.3820 H   0  0  0  0  0  0  0  0  0  0  0  0
   35.8660   28.3360   40.0460 C   0  0  0  0  0  0  0  0  0  0  0  0
   36.2210   27.3540   39.1400 C   0  0  0  0  0  0  0  0  0  0  0  0
   37.0840   26.7480   39.3890 H   0  0  0  0  0  0  0  0  0  0  0  0
   35.5090   27.1610   37.9870 C   0  0  0  0  0  3  0  0  0  0  0  0
   34.4220   27.9860   37.7620 C   0  0  0  0  0  0  0  0  0  0  0  0
   33.8830   27.8000   36.8340 H   0  0  0  0  0  0  0  0  0  0  0  0
   34.0640   28.9680   38.6610 C   0  0  0  0  0  0  0  0  0  0  0  0
   33.1920   29.5650   38.3900 H   0  0  0  0  0  0  0  0  0  0  0  0
   34.7760   29.1740   39.8320 C   0  0  0  0  0  3  0  0  0  0  0  0
   39.4260   30.4790   42.6160 C   0  0  0  0  0  0  0  0  0  0  0  0
   39.6410   31.5050   41.8960 O   0  0  0  0  0  0  0  0  0  0  0  0
   39.9450   30.0560   43.4730 H   0  0  0  0  0  0  0  0  0  0  0  0
  1 18  1  0  0  0  0
  1  2  1  0  0  0  0
  2  7  1  0  0  0  0
  3  2  2  0  0  0  0
  3  8  1  0  0  0  0
  4  3  1  0  0  0  0
  5  6  1  0  0  0  0
  5  4  2  0  0  0  0
  6  1  2  0  0  0  0
  9  5  1  0  0  0  0
 10 11  1  0  0  0  0
 10  9  2  0  0  0  0
 12 10  1  0  0  0  0
 13 12  2  0  0  0  0
 13 15  1  0  0  0  0
 14 13  1  0  0  0  0
 15 17  2  0  0  0  0
 16 15  1  0  0  0  0
 17  9  1  0  0  0  0
 18 20  1  0  0  0  0
 19 18  2  0  0  0  0
M  END
>  <minimizedAffinity>
-4.15958261

$$$$

 OpenBabel03252503583D

 20 21  0  0  0  0  0  0  0  0999 V2000
   38.4630   26.4980   42.5940 C   0  0  0  0  0  0  0  0  0  0  0  0
   38.5780   27.4490   43.6040 C   0  0  0  0  0  0  0  0  0  0  0  0
   37.8300   28.6300   43.4900 C   0  0  0  0  0  0  0  0  0  0  0  0
   37.0410   28.7460   42.3840 N   0  0  0  0  0  0  0  0  0  0  0  0
   36.9600   27.8070   41.4350 C   0  0  0  0  0  0  0  0  0  0  0  0
   37.6720   26.6770   41.5390 N   0  0  0  0  0  0  0  0  0  0  0  0
   39.2000   27.3730   44.4920 H   0  0  0  0  0  0  0  0  0  0  0  0
   37.8970   29.3880   44.2580 H   0  0  0  0  0  0  0  0  0  0  0  0
   36.0830   28.0380   40.2930 C   0  0  0  0  0  0  0  0  0  0  0  0
   36.2200   27.2670   39.1540 C   0  0  0  0  0  0  0  0  0  0  0  0
   36.9930   26.5070   39.1680 H   0  0  0  0  0  0  0  0  0  0  0  0
   35.4140   27.4580   38.0650 C   0  0  0  0  0  3  0  0  0  0  0  0
   34.4560   28.4530   38.1470 C   0  0  0  0  0  0  0  0  0  0  0  0
   33.8360   28.5730   37.2600 H   0  0  0  0  0  0  0  0  0  0  0  0
   34.3150   29.2260   39.2800 C   0  0  0  0  0  0  0  0  0  0  0  0
   33.5310   29.9830   39.2420 H   0  0  0  0  0  0  0  0  0  0  0  0
   35.1240   29.0420   40.3890 C   0  0  0  0  0  3  0  0  0  0  0  0
   39.2720   25.3210   42.8050 C   0  0  0  0  0  0  0  0  0  0  0  0
   38.9030   24.1220   42.5960 O   0  0  0  0  0  0  0  0  0  0  0  0
   40.2020   25.7560   43.1640 H   0  0  0  0  0  0  0  0  0  0  0  0
  1 18  1  0  0  0  0
  1  2  1  0  0  0  0
  2  7  1  0  0  0  0
  3  2  2  0  0  0  0
  3  8  1  0  0  0  0
  4  3  1  0  0  0  0
  5  6  1  0  0  0  0
  5  4  2  0  0  0  0
  6  1  2  0  0  0  0
  9 17  1  0  0  0  0
  9  5  1  0  0  0  0
 10 11  1  0  0  0  0
 10  9  2  0  0  0  0
 12 13  2  0  0  0  0
 12 10  1  0  0  0  0
 13 15  1  0  0  0  0
 14 13  1  0  0  0  0
 15 17  2  0  0  0  0
 16 15  1  0  0  0  0
 18 20  1  0  0  0  0
 19 18  2  0  0  0  0
M  END
>  <minimizedAffinity>
-4.15431309

$$$$

 OpenBabel03252503583D

 20 21  0  0  0  0  0  0  0  0999 V2000
   37.9560   28.2810   42.1510 C   0  0  0  0  0  0  0  0  0  0  0  0
   36.6960   27.7810   41.8330 C   0  0  0  0  0  0  0  0  0  0  0  0
   35.8150   28.6100   41.1240 C   0  0  0  0  0  0  0  0  0  0  0  0
   36.2760   29.8520   40.8000 N   0  0  0  0  0  0  0  0  0  0  0  0
   37.4960   30.2920   41.1250 C   0  0  0  0  0  0  0  0  0  0  0  0
   38.3420   29.5060   41.8030 N   0  0  0  0  0  0  0  0  0  0  0  0
   36.3130   26.7950   42.0830 H   0  0  0  0  0  0  0  0  0  0  0  0
   34.8300   28.2520   40.8620 H   0  0  0  0  0  0  0  0  0  0  0  0
   37.8840   31.6410   40.7260 C   0  0  0  0  0  0  0  0  0  0  0  0
   39.0950   32.1600   41.1440 C   0  0  0  0  0  0  0  0  0  0  0  0
   39.7140   31.5210   41.7620 H   0  0  0  0  0  0  0  0  0  0  0  0
   39.4880   33.4210   40.7880 C   0  0  0  0  0  3  0  0  0  0  0  0
   38.6270   34.1590   39.9950 C   0  0  0  0  0  0  0  0  0  0  0  0
   38.9770   35.1560   39.7340 H   0  0  0  0  0  0  0  0  0  0  0  0
   37.4170   33.6470   39.5760 C   0  0  0  0  0  0  0  0  0  0  0  0
   36.8130   34.3090   38.9550 H   0  0  0  0  0  0  0  0  0  0  0  0
   37.0080   32.3720   39.9290 C   0  0  0  0  0  3  0  0  0  0  0  0
   38.7860   27.3510   42.8810 C   0  0  0  0  0  0  0  0  0  0  0  0
   38.6640   26.0850   42.8730 O   0  0  0  0  0  0  0  0  0  0  0  0
   39.4770   28.0230   43.3850 H   0  0  0  0  0  0  0  0  0  0  0  0
  1 18  1  0  0  0  0
  2  7  1  0  0  0  0
  2  1  1  0  0  0  0
  3  2  2  0  0  0  0
  4  3  1  0  0  0  0
  4  5  2  0  0  0  0
  5  6  1  0  0  0  0
  6  1  2  0  0  0  0
  8  3  1  0  0  0  0
  9  5  1  0  0  0  0
  9 10  1  0  0  0  0
 10 11  1  0  0  0  0
 12 10  2  0  0  0  0
 13 12  1  0  0  0  0
 14 13  1  0  0  0  0
 15 17  1  0  0  0  0
 15 13  2  0  0  0  0
 16 15  1  0  0  0  0
 17  9  2  0  0  0  0
 18 20  1  0  0  0  0
 19 18  2  0  0  0  0
M  END
>  <minimizedAffinity>
-4.14007044

$$$$
