
 OpenBabel03252507203D

 44 47  0  0  1  0  0  0  0  0999 V2000
   46.9440   33.3240   43.0250 C   0  0  0  0  0  0  0  0  0  0  0  0
   47.9950   32.9460   43.6110 O   0  0  0  0  0  0  0  0  0  0  0  0
   46.5400   32.8880   41.7180 N   0  0  0  0  0  0  0  0  0  0  0  0
   45.2500   32.4580   41.2160 C   0  0  0  0  0  0  0  0  0  0  0  0
   44.9200   33.2510   39.9370 C   0  0  0  0  0  0  0  0  0  0  0  0
   45.9310   32.9220   38.8670 C   0  0  0  0  0  0  0  0  0  0  0  0
   47.0990   32.1930   39.4690 C   0  0  0  0  0  0  0  0  0  0  0  0
   47.5900   32.8760   40.7220 C   0  0  2  0  0  0  0  0  0  0  0  0
   45.2370   31.3990   40.9760 H   0  0  0  0  0  0  0  0  0  0  0  0
   44.4700   32.7840   41.9380 H   0  0  0  0  0  0  0  0  0  0  0  0
   43.8860   33.0070   39.6360 H   0  0  0  0  0  0  0  0  0  0  0  0
   45.0540   34.3280   40.1790 H   0  0  0  0  0  0  0  0  0  0  0  0
   46.3390   33.8330   38.3590 H   0  0  0  0  0  0  0  0  0  0  0  0
   45.4430   32.2620   38.1190 H   0  0  0  0  0  0  0  0  0  0  0  0
   46.8250   31.1360   39.6180 H   0  0  0  0  0  0  0  0  0  0  0  0
   47.9520   32.2570   38.7430 H   0  0  0  0  0  0  0  0  0  0  0  0
   47.7780   33.9330   40.4470 H   0  0  0  0  0  0  0  0  0  0  0  0
   48.8630   32.2880   41.1930 C   0  0  0  0  0  0  0  0  0  0  0  0
   49.9540   33.1180   41.4840 C   0  0  0  0  0  0  0  0  0  0  0  0
   49.7860   34.1970   41.3430 H   0  0  0  0  0  0  0  0  0  0  0  0
   51.1860   32.7300   41.9180 C   0  0  0  0  0  3  0  0  0  0  0  0
   51.3940   31.3900   42.0920 C   0  0  0  0  0  0  0  0  0  0  0  0
   52.3570   31.0480   42.4350 H   0  0  0  0  0  0  0  0  0  0  0  0
   50.3720   30.5140   41.8280 C   0  0  0  0  0  0  0  0  0  0  0  0
   50.5260   29.4340   41.9640 H   0  0  0  0  0  0  0  0  0  0  0  0
   49.1380   30.9500   41.3890 C   0  0  0  0  0  3  0  0  0  0  0  0
   45.7230   35.4490   43.0500 C   0  0  0  0  0  0  0  0  0  0  0  0
   46.0910   34.2610   43.7200 C   0  0  0  0  0  0  0  0  0  0  0  0
   45.6310   34.0360   45.0020 C   0  0  0  0  0  0  0  0  0  0  0  0
   44.8380   34.9690   45.5720 N   0  0  0  0  0  0  0  0  0  0  0  0
   44.4790   36.1150   44.9370 C   0  0  0  0  0  0  0  0  0  0  0  0
   44.9290   36.3320   43.6860 N   0  0  0  0  0  0  0  0  0  0  0  0
   46.0690   35.6540   42.0450 H   0  0  0  0  0  0  0  0  0  0  0  0
   43.8400   36.8000   45.4780 H   0  0  0  0  0  0  0  0  0  0  0  0
   46.0220   32.8140   45.6750 C   0  0  0  0  0  0  0  0  0  0  0  0
   45.5280   31.6160   45.2540 C   0  0  0  0  0  0  0  0  0  0  0  0
   45.9080   30.4620   45.9060 C   0  0  0  0  0  0  0  0  0  0  0  0
   46.7860   30.4670   46.9890 C   0  0  0  0  0  0  0  0  0  0  0  0
   47.2520   31.7130   47.3690 C   0  0  0  0  0  0  0  0  0  0  0  0
   46.8590   32.8110   46.7100 N   0  0  0  0  0  0  0  0  0  0  0  0
   44.8470   31.4450   44.4470 H   0  0  0  0  0  0  0  0  0  0  0  0
   45.5550   29.4700   45.6250 H   0  0  0  0  0  0  0  0  0  0  0  0
   47.1000   29.5780   47.5170 H   0  0  0  0  0  0  0  0  0  0  0  0
   47.9390   31.8560   48.1930 H   0  0  0  0  0  0  0  0  0  0  0  0
  1  2  2  0  0  0  0
  1 28  1  0  0  0  0
  3  1  1  0  0  0  0
  4  3  1  0  0  0  0
  4 10  1  0  0  0  0
  5 12  1  0  0  0  0
  5  4  1  0  0  0  0
  6  7  1  0  0  0  0
  6  5  1  0  0  0  0
  7 15  1  0  0  0  0
  7  8  1  0  0  0  0
  8 17  1  6  0  0  0
  8 18  1  0  0  0  0
  8  3  1  0  0  0  0
  9  4  1  0  0  0  0
 11  5  1  0  0  0  0
 13  6  1  0  0  0  0
 14  6  1  0  0  0  0
 16  7  1  0  0  0  0
 18 26  2  0  0  0  0
 18 19  1  0  0  0  0
 19 21  2  0  0  0  0
 20 19  1  0  0  0  0
 21 22  1  0  0  0  0
 22 23  1  0  0  0  0
 24 25  1  0  0  0  0
 24 22  2  0  0  0  0
 26 24  1  0  0  0  0
 27 32  2  0  0  0  0
 27 28  1  0  0  0  0
 28 29  2  0  0  0  0
 29 30  1  0  0  0  0
 29 35  1  0  0  0  0
 31 34  1  0  0  0  0
 31 30  2  0  0  0  0
 32 31  1  0  0  0  0
 33 27  1  0  0  0  0
 35 40  1  0  0  0  0
 36 35  2  0  0  0  0
 36 37  1  0  0  0  0
 37 38  2  0  0  0  0
 38 39  1  0  0  0  0
 38 43  1  0  0  0  0
 39 44  1  0  0  0  0
 40 39  2  0  0  0  0
 41 36  1  0  0  0  0
 42 37  1  0  0  0  0
M  END
>  <minimizedAffinity>
-5.41467953

>  <minimizedRMSD>
0.906859159

$$$$
