
 OpenBabel03252504433D

 45 48  0  0  0  0  0  0  0  0999 V2000
   37.5790   31.8650   40.3750 C   0  0  0  0  0  0  0  0  0  0  0  0
   37.3070   32.9450   39.5880 C   0  0  0  0  0  0  0  0  0  0  0  0
   38.4890   33.4130   39.1750 N   0  0  0  0  0  0  0  0  0  0  0  0
   39.5050   32.6850   39.6590 C   0  0  0  0  0  0  0  0  0  0  0  0
   38.9210   31.7110   40.4160 N   0  0  0  0  0  0  0  0  0  0  0  0
   40.9090   32.7940   39.5020 N   0  0  0  0  0  0  0  0  0  0  0  0
   41.5210   32.0820   38.3580 C   0  0  0  0  0  0  0  0  0  0  0  0
   41.8310   33.1820   37.3420 C   0  0  0  0  0  0  0  0  0  0  0  0
   42.5270   34.3460   38.0350 C   0  0  0  0  0  0  0  0  0  0  0  0
   43.0600   33.8950   39.3790 C   0  0  0  0  0  0  0  0  0  0  0  0
   41.9050   33.4830   40.2590 C   0  0  0  0  0  0  0  0  0  0  0  0
   36.3230   33.3640   39.3310 H   0  0  0  0  0  0  0  0  0  0  0  0
   38.6300   34.2410   38.5530 H   0  0  0  0  0  0  0  0  0  0  0  0
   42.4340   31.5520   38.6610 H   0  0  0  0  0  0  0  0  0  0  0  0
   40.7810   31.4150   37.8690 H   0  0  0  0  0  0  0  0  0  0  0  0
   42.5050   32.7860   36.5670 H   0  0  0  0  0  0  0  0  0  0  0  0
   40.8510   33.5040   36.9550 H   0  0  0  0  0  0  0  0  0  0  0  0
   41.8100   35.1660   38.2020 H   0  0  0  0  0  0  0  0  0  0  0  0
   43.4120   34.6870   37.4510 H   0  0  0  0  0  0  0  0  0  0  0  0
   43.7950   33.1090   39.1860 H   0  0  0  0  0  0  0  0  0  0  0  0
   43.5460   34.7630   39.8590 H   0  0  0  0  0  0  0  0  0  0  0  0
   42.3120   32.8930   41.1150 H   0  0  0  0  0  0  0  0  0  0  0  0
   41.4410   34.4300   40.6470 H   0  0  0  0  0  0  0  0  0  0  0  0
   36.5930   30.9920   41.0770 C   0  0  0  0  0  0  0  0  0  0  0  0
   36.2370   31.4690   42.0120 H   0  0  0  0  0  0  0  0  0  0  0  0
   35.7470   30.8350   40.3610 H   0  0  0  0  0  0  0  0  0  0  0  0
   37.5490   29.2670   42.5490 C   0  0  0  0  0  3  0  0  0  0  0  0
   37.1520   29.6600   41.3490 C   0  0  0  0  0  3  0  0  0  0  0  0
   38.0880   27.9100   42.6780 C   0  0  0  0  0  0  0  0  0  0  0  0
   39.0860   27.5870   43.6250 C   0  0  0  0  0  0  0  0  0  0  0  0
   39.5340   26.2870   43.6770 C   0  0  0  0  0  0  0  0  0  0  0  0
   39.0190   25.3640   42.8360 N   0  0  0  0  0  0  0  0  0  0  0  0
   38.0620   25.7000   41.9370 C   0  0  0  0  0  0  0  0  0  0  0  0
   37.6060   26.9320   41.8550 N   0  0  0  0  0  0  0  0  0  0  0  0
   39.4610   28.3790   44.2760 H   0  0  0  0  0  0  0  0  0  0  0  0
   40.2980   26.0270   44.3970 H   0  0  0  0  0  0  0  0  0  0  0  0
   37.5790   24.6230   41.0800 C   0  0  0  0  0  0  0  0  0  0  0  0
   38.1480   23.3710   41.0320 C   0  0  0  0  0  0  0  0  0  0  0  0
   39.0180   23.1660   41.6760 H   0  0  0  0  0  0  0  0  0  0  0  0
   37.7170   22.3380   40.2390 C   0  0  0  0  0  3  0  0  0  0  0  0
   36.6240   22.6350   39.4470 C   0  0  0  0  0  0  0  0  0  0  0  0
   36.2480   21.8400   38.7980 H   0  0  0  0  0  0  0  0  0  0  0  0
   35.9650   23.8500   39.4030 C   0  0  0  0  0  0  0  0  0  0  0  0
   35.1210   24.0230   38.7670 H   0  0  0  0  0  0  0  0  0  0  0  0
   36.4970   24.8100   40.2500 C   0  0  0  0  0  3  0  0  0  0  0  0
  1  5  1  0  0  0  0
  1 24  1  0  0  0  0
  2  1  2  0  0  0  0
  3  2  1  0  0  0  0
  3  4  1  0  0  0  0
  4  5  2  0  0  0  0
  6  4  1  0  0  0  0
  6 11  1  0  0  0  0
  7 14  1  0  0  0  0
  7  6  1  0  0  0  0
  8  9  1  0  0  0  0
  8  7  1  0  0  0  0
  9 18  1  0  0  0  0
  9 10  1  0  0  0  0
 10 21  1  0  0  0  0
 10 11  1  0  0  0  0
 11 23  1  0  0  0  0
 11 22  1  0  0  0  0
 12  2  1  0  0  0  0
 13  3  1  0  0  0  0
 15  7  1  0  0  0  0
 16  8  1  0  0  0  0
 17  8  1  0  0  0  0
 19  9  1  0  0  0  0
 20 10  1  0  0  0  0
 24 28  1  0  0  0  0
 24 25  1  0  0  0  0
 26 24  1  0  0  0  0
 27 29  1  0  0  0  0
 28 27  2  0  0  0  0
 29 30  1  0  0  0  0
 30 31  2  0  0  0  0
 30 35  1  0  0  0  0
 31 36  1  0  0  0  0
 32 31  1  0  0  0  0
 33 32  2  0  0  0  0
 34 33  1  0  0  0  0
 34 29  2  0  0  0  0
 37 33  1  0  0  0  0
 38 37  1  0  0  0  0
 38 39  1  0  0  0  0
 40 38  2  0  0  0  0
 41 40  1  0  0  0  0
 42 41  1  0  0  0  0
 43 41  2  0  0  0  0
 43 45  1  0  0  0  0
 44 43  1  0  0  0  0
 45 37  2  0  0  0  0
M  END
>  <minimizedAffinity>
-6.37101603

$$$$

 OpenBabel03252504433D

 45 48  0  0  0  0  0  0  0  0999 V2000
   38.4870   28.0850   42.9160 C   0  0  0  0  0  0  0  0  0  0  0  0
   37.3380   28.7070   43.3090 C   0  0  0  0  0  0  0  0  0  0  0  0
   37.2710   29.8450   42.6110 N   0  0  0  0  0  0  0  0  0  0  0  0
   38.3210   29.9830   41.7890 C   0  0  0  0  0  0  0  0  0  0  0  0
   39.0830   28.8680   41.9890 N   0  0  0  0  0  0  0  0  0  0  0  0
   38.6820   31.0020   40.8730 N   0  0  0  0  0  0  0  0  0  0  0  0
   38.1720   30.8810   39.4890 C   0  0  0  0  0  0  0  0  0  0  0  0
   37.0410   31.9060   39.4040 C   0  0  0  0  0  0  0  0  0  0  0  0
   37.5030   33.2370   39.9820 C   0  0  0  0  0  0  0  0  0  0  0  0
   39.0150   33.2590   40.0670 C   0  0  0  0  0  0  0  0  0  0  0  0
   39.4750   32.1810   41.0180 C   0  0  0  0  0  0  0  0  0  0  0  0
   36.6010   28.3600   44.0480 H   0  0  0  0  0  0  0  0  0  0  0  0
   36.5070   30.5540   42.6790 H   0  0  0  0  0  0  0  0  0  0  0  0
   38.9600   31.0980   38.7550 H   0  0  0  0  0  0  0  0  0  0  0  0
   37.6990   29.8900   39.3300 H   0  0  0  0  0  0  0  0  0  0  0  0
   36.7650   32.0610   38.3500 H   0  0  0  0  0  0  0  0  0  0  0  0
   36.2260   31.4900   40.0190 H   0  0  0  0  0  0  0  0  0  0  0  0
   37.0950   33.3680   40.9960 H   0  0  0  0  0  0  0  0  0  0  0  0
   37.2200   34.0820   39.3130 H   0  0  0  0  0  0  0  0  0  0  0  0
   39.3960   33.1650   39.0460 H   0  0  0  0  0  0  0  0  0  0  0  0
   39.3160   34.2300   40.4990 H   0  0  0  0  0  0  0  0  0  0  0  0
   40.5670   32.0150   40.8550 H   0  0  0  0  0  0  0  0  0  0  0  0
   39.3090   32.5750   42.0580 H   0  0  0  0  0  0  0  0  0  0  0  0
   39.0150   26.7780   43.4030 C   0  0  0  0  0  0  0  0  0  0  0  0
   40.1090   26.8320   43.5740 H   0  0  0  0  0  0  0  0  0  0  0  0
   38.4730   26.5560   44.3570 H   0  0  0  0  0  0  0  0  0  0  0  0
   37.4420   25.3470   42.1650 C   0  0  0  0  0  3  0  0  0  0  0  0
   38.6830   25.6850   42.4790 C   0  0  0  0  0  3  0  0  0  0  0  0
   37.2550   24.2350   41.2280 C   0  0  0  0  0  0  0  0  0  0  0  0
   38.2790   23.2990   40.9610 C   0  0  0  0  0  0  0  0  0  0  0  0
   38.0150   22.2870   40.0670 C   0  0  0  0  0  0  0  0  0  0  0  0
   36.8050   22.2130   39.4730 N   0  0  0  0  0  0  0  0  0  0  0  0
   35.8390   23.1250   39.7460 C   0  0  0  0  0  0  0  0  0  0  0  0
   36.0500   24.1070   40.5950 N   0  0  0  0  0  0  0  0  0  0  0  0
   39.2350   23.4140   41.4750 H   0  0  0  0  0  0  0  0  0  0  0  0
   38.7910   21.5640   39.8540 H   0  0  0  0  0  0  0  0  0  0  0  0
   34.5710   22.9470   39.0470 C   0  0  0  0  0  0  0  0  0  0  0  0
   34.4360   23.0180   37.6800 C   0  0  0  0  0  0  0  0  0  0  0  0
   35.3340   23.2200   37.0740 H   0  0  0  0  0  0  0  0  0  0  0  0
   33.2600   22.8540   36.9930 C   0  0  0  0  0  3  0  0  0  0  0  0
   32.1570   22.6030   37.7890 C   0  0  0  0  0  0  0  0  0  0  0  0
   31.1980   22.4670   37.2820 H   0  0  0  0  0  0  0  0  0  0  0  0
   32.1610   22.5080   39.1670 C   0  0  0  0  0  0  0  0  0  0  0  0
   31.2730   22.3100   39.7320 H   0  0  0  0  0  0  0  0  0  0  0  0
   33.4100   22.6920   39.7410 C   0  0  0  0  0  3  0  0  0  0  0  0
  1  2  2  0  0  0  0
  1 24  1  0  0  0  0
  2 12  1  0  0  0  0
  3 13  1  0  0  0  0
  3  2  1  0  0  0  0
  4  5  2  0  0  0  0
  4  3  1  0  0  0  0
  5  1  1  0  0  0  0
  6 11  1  0  0  0  0
  6  4  1  0  0  0  0
  7  6  1  0  0  0  0
  8  7  1  0  0  0  0
  8  9  1  0  0  0  0
  8 17  1  0  0  0  0
  9 10  1  0  0  0  0
  9 18  1  0  0  0  0
 10 21  1  0  0  0  0
 10 11  1  0  0  0  0
 11 23  1  0  0  0  0
 14  7  1  0  0  0  0
 15  7  1  0  0  0  0
 16  8  1  0  0  0  0
 19  9  1  0  0  0  0
 20 10  1  0  0  0  0
 22 11  1  0  0  0  0
 24 25  1  0  0  0  0
 24 26  1  0  0  0  0
 27 28  2  0  0  0  0
 28 24  1  0  0  0  0
 29 27  1  0  0  0  0
 30 29  1  0  0  0  0
 30 35  1  0  0  0  0
 31 30  2  0  0  0  0
 32 33  2  0  0  0  0
 32 31  1  0  0  0  0
 33 34  1  0  0  0  0
 34 29  2  0  0  0  0
 36 31  1  0  0  0  0
 37 45  1  0  0  0  0
 37 33  1  0  0  0  0
 38 37  2  0  0  0  0
 39 38  1  0  0  0  0
 40 38  1  0  0  0  0
 40 41  2  0  0  0  0
 41 43  1  0  0  0  0
 42 41  1  0  0  0  0
 43 44  1  0  0  0  0
 43 45  2  0  0  0  0
M  END
>  <minimizedAffinity>
-6.11079979

$$$$

 OpenBabel03252504433D

 45 48  0  0  0  0  0  0  0  0999 V2000
   37.4040   31.6140   40.3380 C   0  0  0  0  0  0  0  0  0  0  0  0
   36.2180   31.0100   40.0430 C   0  0  0  0  0  0  0  0  0  0  0  0
   36.2650   29.7980   40.6050 N   0  0  0  0  0  0  0  0  0  0  0  0
   37.4250   29.5960   41.2460 C   0  0  0  0  0  0  0  0  0  0  0  0
   38.1370   30.7480   41.0720 N   0  0  0  0  0  0  0  0  0  0  0  0
   37.9250   28.4900   41.9760 N   0  0  0  0  0  0  0  0  0  0  0  0
   37.6200   28.4370   43.4230 C   0  0  0  0  0  0  0  0  0  0  0  0
   36.5250   27.3780   43.5480 C   0  0  0  0  0  0  0  0  0  0  0  0
   36.9130   26.1350   42.7580 C   0  0  0  0  0  0  0  0  0  0  0  0
   38.3970   26.1660   42.4560 C   0  0  0  0  0  0  0  0  0  0  0  0
   38.7030   27.3580   41.5820 C   0  0  0  0  0  0  0  0  0  0  0  0
   35.3780   31.4180   39.4620 H   0  0  0  0  0  0  0  0  0  0  0  0
   35.5080   29.0800   40.5630 H   0  0  0  0  0  0  0  0  0  0  0  0
   38.5090   28.1600   44.0070 H   0  0  0  0  0  0  0  0  0  0  0  0
   37.1640   29.3900   43.7630 H   0  0  0  0  0  0  0  0  0  0  0  0
   36.4060   27.0960   44.6040 H   0  0  0  0  0  0  0  0  0  0  0  0
   35.6250   27.8390   43.1080 H   0  0  0  0  0  0  0  0  0  0  0  0
   36.3640   26.1100   41.8040 H   0  0  0  0  0  0  0  0  0  0  0  0
   36.7400   25.2120   43.3570 H   0  0  0  0  0  0  0  0  0  0  0  0
   38.9210   26.1520   43.4160 H   0  0  0  0  0  0  0  0  0  0  0  0
   38.6430   25.2590   41.8750 H   0  0  0  0  0  0  0  0  0  0  0  0
   39.8050   27.5350   41.6070 H   0  0  0  0  0  0  0  0  0  0  0  0
   38.3920   27.0800   40.5380 H   0  0  0  0  0  0  0  0  0  0  0  0
   37.8420   32.9830   39.9370 C   0  0  0  0  0  0  0  0  0  0  0  0
   37.2590   33.3460   39.0680 H   0  0  0  0  0  0  0  0  0  0  0  0
   37.6780   33.6390   40.8300 H   0  0  0  0  0  0  0  0  0  0  0  0
   40.1710   33.5650   40.4770 C   0  0  0  0  0  3  0  0  0  0  0  0
   39.2830   33.0260   39.6560 C   0  0  0  0  0  3  0  0  0  0  0  0
   41.5800   33.5390   40.0710 C   0  0  0  0  0  0  0  0  0  0  0  0
   42.5670   34.2960   40.7410 C   0  0  0  0  0  0  0  0  0  0  0  0
   43.8640   34.2110   40.2910 C   0  0  0  0  0  0  0  0  0  0  0  0
   44.1610   33.4210   39.2380 N   0  0  0  0  0  0  0  0  0  0  0  0
   43.1950   32.7040   38.6130 C   0  0  0  0  0  0  0  0  0  0  0  0
   41.9420   32.7560   39.0110 N   0  0  0  0  0  0  0  0  0  0  0  0
   42.2610   34.9160   41.5860 H   0  0  0  0  0  0  0  0  0  0  0  0
   44.6290   34.7860   40.7960 H   0  0  0  0  0  0  0  0  0  0  0  0
   43.6300   31.8840   37.4870 C   0  0  0  0  0  0  0  0  0  0  0  0
   44.9140   31.8840   36.9930 C   0  0  0  0  0  0  0  0  0  0  0  0
   45.6600   32.5390   37.4720 H   0  0  0  0  0  0  0  0  0  0  0  0
   45.3550   31.1250   35.9390 C   0  0  0  0  0  3  0  0  0  0  0  0
   44.3890   30.3180   35.3660 C   0  0  0  0  0  0  0  0  0  0  0  0
   44.6970   29.6960   34.5210 H   0  0  0  0  0  0  0  0  0  0  0  0
   43.0700   30.2280   35.7670 C   0  0  0  0  0  0  0  0  0  0  0  0
   42.3640   29.5820   35.2840 H   0  0  0  0  0  0  0  0  0  0  0  0
   42.7510   31.0440   36.8430 C   0  0  0  0  0  3  0  0  0  0  0  0
  1  5  1  0  0  0  0
  2  1  2  0  0  0  0
  2  3  1  0  0  0  0
  3  4  1  0  0  0  0
  4  6  1  0  0  0  0
  5  4  2  0  0  0  0
  6  7  1  0  0  0  0
  7  8  1  0  0  0  0
  7 15  1  0  0  0  0
  7 14  1  0  0  0  0
  8 16  1  0  0  0  0
  9 19  1  0  0  0  0
  9  8  1  0  0  0  0
 10  9  1  0  0  0  0
 10 20  1  0  0  0  0
 11 22  1  0  0  0  0
 11  6  1  0  0  0  0
 11 10  1  0  0  0  0
 12  2  1  0  0  0  0
 13  3  1  0  0  0  0
 17  8  1  0  0  0  0
 18  9  1  0  0  0  0
 21 10  1  0  0  0  0
 23 11  1  0  0  0  0
 24  1  1  0  0  0  0
 24 26  1  0  0  0  0
 25 24  1  0  0  0  0
 28 24  1  0  0  0  0
 28 27  2  0  0  0  0
 29 27  1  0  0  0  0
 29 30  1  0  0  0  0
 30 35  1  0  0  0  0
 31 30  2  0  0  0  0
 31 36  1  0  0  0  0
 32 31  1  0  0  0  0
 33 34  1  0  0  0  0
 33 32  2  0  0  0  0
 34 29  2  0  0  0  0
 37 33  1  0  0  0  0
 38 39  1  0  0  0  0
 38 37  1  0  0  0  0
 40 38  2  0  0  0  0
 41 43  2  0  0  0  0
 41 40  1  0  0  0  0
 42 41  1  0  0  0  0
 43 45  1  0  0  0  0
 44 43  1  0  0  0  0
 45 37  2  0  0  0  0
M  END
>  <minimizedAffinity>
-6.03364515

$$$$

 OpenBabel03252504433D

 45 48  0  0  0  0  0  0  0  0999 V2000
   38.7100   33.2220   40.1460 C   0  0  0  0  0  0  0  0  0  0  0  0
   39.4280   34.3460   40.4320 C   0  0  0  0  0  0  0  0  0  0  0  0
   40.5540   33.9310   41.0190 N   0  0  0  0  0  0  0  0  0  0  0  0
   40.5940   32.5950   41.1240 C   0  0  0  0  0  0  0  0  0  0  0  0
   39.4250   32.1570   40.5700 N   0  0  0  0  0  0  0  0  0  0  0  0
   41.5630   31.7140   41.6640 N   0  0  0  0  0  0  0  0  0  0  0  0
   42.6280   31.2360   40.7530 C   0  0  0  0  0  0  0  0  0  0  0  0
   43.8670   32.0350   41.1570 C   0  0  0  0  0  0  0  0  0  0  0  0
   44.0280   32.0130   42.6710 C   0  0  0  0  0  0  0  0  0  0  0  0
   43.1900   30.8950   43.2560 C   0  0  0  0  0  0  0  0  0  0  0  0
   41.7320   31.1640   42.9710 C   0  0  0  0  0  0  0  0  0  0  0  0
   39.1550   35.3920   40.2290 H   0  0  0  0  0  0  0  0  0  0  0  0
   41.3230   34.5490   41.3640 H   0  0  0  0  0  0  0  0  0  0  0  0
   42.7960   30.1570   40.8700 H   0  0  0  0  0  0  0  0  0  0  0  0
   42.4060   31.5240   39.7040 H   0  0  0  0  0  0  0  0  0  0  0  0
   44.7600   31.5790   40.7050 H   0  0  0  0  0  0  0  0  0  0  0  0
   43.6720   33.0650   40.8130 H   0  0  0  0  0  0  0  0  0  0  0  0
   43.6840   32.9670   43.1000 H   0  0  0  0  0  0  0  0  0  0  0  0
   45.0810   31.7900   42.9570 H   0  0  0  0  0  0  0  0  0  0  0  0
   43.5740   29.9560   42.8460 H   0  0  0  0  0  0  0  0  0  0  0  0
   43.3200   30.9140   44.3530 H   0  0  0  0  0  0  0  0  0  0  0  0
   41.1630   30.2190   43.1420 H   0  0  0  0  0  0  0  0  0  0  0  0
   41.3970   31.9410   43.7110 H   0  0  0  0  0  0  0  0  0  0  0  0
   37.3750   33.1500   39.4840 C   0  0  0  0  0  0  0  0  0  0  0  0
   36.6120   33.6990   40.0720 H   0  0  0  0  0  0  0  0  0  0  0  0
   37.5030   33.6070   38.4700 H   0  0  0  0  0  0  0  0  0  0  0  0
   37.0590   31.1500   38.0880 C   0  0  0  0  0  3  0  0  0  0  0  0
   36.9600   31.7590   39.2580 C   0  0  0  0  0  3  0  0  0  0  0  0
   36.6070   29.7570   38.0040 C   0  0  0  0  0  0  0  0  0  0  0  0
   35.9440   29.2520   36.8630 C   0  0  0  0  0  0  0  0  0  0  0  0
   35.5560   27.9320   36.8700 C   0  0  0  0  0  0  0  0  0  0  0  0
   35.8110   27.1620   37.9490 N   0  0  0  0  0  0  0  0  0  0  0  0
   36.4490   27.6710   39.0320 C   0  0  0  0  0  0  0  0  0  0  0  0
   36.8380   28.9280   39.0650 N   0  0  0  0  0  0  0  0  0  0  0  0
   35.7680   29.9260   36.0230 H   0  0  0  0  0  0  0  0  0  0  0  0
   35.0470   27.5330   36.0030 H   0  0  0  0  0  0  0  0  0  0  0  0
   36.6720   26.7480   40.1390 C   0  0  0  0  0  0  0  0  0  0  0  0
   36.9530   27.1500   41.4240 C   0  0  0  0  0  0  0  0  0  0  0  0
   37.0140   28.2310   41.6330 H   0  0  0  0  0  0  0  0  0  0  0  0
   37.1670   26.3090   42.4870 C   0  0  0  0  0  3  0  0  0  0  0  0
   37.0820   24.9630   42.1820 C   0  0  0  0  0  0  0  0  0  0  0  0
   37.2470   24.2560   43.0010 H   0  0  0  0  0  0  0  0  0  0  0  0
   36.8080   24.4330   40.9360 C   0  0  0  0  0  0  0  0  0  0  0  0
   36.7550   23.3770   40.7600 H   0  0  0  0  0  0  0  0  0  0  0  0
   36.6110   25.3860   39.9490 C   0  0  0  0  0  3  0  0  0  0  0  0
  1  2  2  0  0  0  0
  1  5  1  0  0  0  0
  2  3  1  0  0  0  0
  3  4  1  0  0  0  0
  3 13  1  0  0  0  0
  4  6  1  0  0  0  0
  5  4  2  0  0  0  0
  6 11  1  0  0  0  0
  7 14  1  0  0  0  0
  7  8  1  0  0  0  0
  7  6  1  0  0  0  0
  8  9  1  0  0  0  0
  9 19  1  0  0  0  0
  9 18  1  0  0  0  0
  9 10  1  0  0  0  0
 10 21  1  0  0  0  0
 11 22  1  0  0  0  0
 11 10  1  0  0  0  0
 11 23  1  0  0  0  0
 12  2  1  0  0  0  0
 15  7  1  0  0  0  0
 16  8  1  0  0  0  0
 17  8  1  0  0  0  0
 20 10  1  0  0  0  0
 24 25  1  0  0  0  0
 24  1  1  0  0  0  0
 26 24  1  0  0  0  0
 27 28  2  0  0  0  0
 28 24  1  0  0  0  0
 29 27  1  0  0  0  0
 29 34  1  0  0  0  0
 30 31  1  0  0  0  0
 30 29  2  0  0  0  0
 31 32  2  0  0  0  0
 32 33  1  0  0  0  0
 33 34  2  0  0  0  0
 33 37  1  0  0  0  0
 35 30  1  0  0  0  0
 36 31  1  0  0  0  0
 37 38  1  0  0  0  0
 38 39  1  0  0  0  0
 38 40  2  0  0  0  0
 41 40  1  0  0  0  0
 41 42  1  0  0  0  0
 43 41  2  0  0  0  0
 44 43  1  0  0  0  0
 45 37  2  0  0  0  0
 45 43  1  0  0  0  0
M  END
>  <minimizedAffinity>
-6.01596785

$$$$

 OpenBabel03252504433D

 45 48  0  0  0  0  0  0  0  0999 V2000
   33.6430   26.9960   36.7330 C   0  0  0  0  0  0  0  0  0  0  0  0
   34.1750   28.0020   37.4850 C   0  0  0  0  0  0  0  0  0  0  0  0
   33.4200   29.0800   37.2550 N   0  0  0  0  0  0  0  0  0  0  0  0
   32.4290   28.8150   36.3920 C   0  0  0  0  0  0  0  0  0  0  0  0
   32.5790   27.4970   36.0680 N   0  0  0  0  0  0  0  0  0  0  0  0
   31.3980   29.6230   35.8540 N   0  0  0  0  0  0  0  0  0  0  0  0
   30.1280   29.6960   36.6110 C   0  0  0  0  0  0  0  0  0  0  0  0
   30.1590   31.0670   37.2850 C   0  0  0  0  0  0  0  0  0  0  0  0
   30.5580   32.1330   36.2740 C   0  0  0  0  0  0  0  0  0  0  0  0
   30.3920   31.5910   34.8690 C   0  0  0  0  0  0  0  0  0  0  0  0
   31.3270   30.4230   34.6730 C   0  0  0  0  0  0  0  0  0  0  0  0
   35.0480   27.9570   38.1530 H   0  0  0  0  0  0  0  0  0  0  0  0
   33.5630   30.0230   37.6810 H   0  0  0  0  0  0  0  0  0  0  0  0
   29.2600   29.6000   35.9430 H   0  0  0  0  0  0  0  0  0  0  0  0
   30.1180   28.9500   37.4340 H   0  0  0  0  0  0  0  0  0  0  0  0
   29.1560   31.3100   37.6690 H   0  0  0  0  0  0  0  0  0  0  0  0
   30.9270   30.9860   38.0710 H   0  0  0  0  0  0  0  0  0  0  0  0
   31.6140   32.4100   36.4170 H   0  0  0  0  0  0  0  0  0  0  0  0
   29.8870   33.0200   36.3430 H   0  0  0  0  0  0  0  0  0  0  0  0
   29.3310   31.3590   34.7370 H   0  0  0  0  0  0  0  0  0  0  0  0
   30.7000   32.3820   34.1620 H   0  0  0  0  0  0  0  0  0  0  0  0
   30.9990   29.8620   33.7650 H   0  0  0  0  0  0  0  0  0  0  0  0
   32.3500   30.8550   34.4940 H   0  0  0  0  0  0  0  0  0  0  0  0
   34.1270   25.5870   36.6410 C   0  0  0  0  0  0  0  0  0  0  0  0
   33.2760   24.8770   36.6300 H   0  0  0  0  0  0  0  0  0  0  0  0
   34.7160   25.5200   35.6920 H   0  0  0  0  0  0  0  0  0  0  0  0
   35.4050   24.0330   38.0570 C   0  0  0  0  0  3  0  0  0  0  0  0
   35.0620   25.2680   37.7280 C   0  0  0  0  0  3  0  0  0  0  0  0
   36.3500   23.8590   39.1640 C   0  0  0  0  0  0  0  0  0  0  0  0
   37.0270   22.6380   39.3870 C   0  0  0  0  0  0  0  0  0  0  0  0
   37.8970   22.5640   40.4500 C   0  0  0  0  0  0  0  0  0  0  0  0
   38.0810   23.6400   41.2450 N   0  0  0  0  0  0  0  0  0  0  0  0
   37.4190   24.8000   41.0090 C   0  0  0  0  0  0  0  0  0  0  0  0
   36.5790   24.9130   40.0030 N   0  0  0  0  0  0  0  0  0  0  0  0
   36.8340   21.8060   38.7070 H   0  0  0  0  0  0  0  0  0  0  0  0
   38.4210   21.6350   40.6310 H   0  0  0  0  0  0  0  0  0  0  0  0
   37.6960   25.8960   41.9310 C   0  0  0  0  0  0  0  0  0  0  0  0
   38.7990   25.9450   42.7510 C   0  0  0  0  0  0  0  0  0  0  0  0
   39.5180   25.1100   42.7130 H   0  0  0  0  0  0  0  0  0  0  0  0
   39.0890   26.9600   43.6270 C   0  0  0  0  0  3  0  0  0  0  0  0
   38.1630   27.9870   43.6450 C   0  0  0  0  0  0  0  0  0  0  0  0
   38.3540   28.8180   44.3300 H   0  0  0  0  0  0  0  0  0  0  0  0
   37.0180   28.0560   42.8740 C   0  0  0  0  0  0  0  0  0  0  0  0
   36.3350   28.8800   42.9310 H   0  0  0  0  0  0  0  0  0  0  0  0
   36.8410   26.9700   42.0300 C   0  0  0  0  0  3  0  0  0  0  0  0
  1  2  2  0  0  0  0
  2 12  1  0  0  0  0
  3  2  1  0  0  0  0
  3 13  1  0  0  0  0
  4  3  1  0  0  0  0
  5  4  2  0  0  0  0
  5  1  1  0  0  0  0
  6  4  1  0  0  0  0
  6  7  1  0  0  0  0
  7  8  1  0  0  0  0
  7 15  1  0  0  0  0
  8 16  1  0  0  0  0
  8 17  1  0  0  0  0
  9 19  1  0  0  0  0
  9 18  1  0  0  0  0
  9  8  1  0  0  0  0
 10  9  1  0  0  0  0
 11 10  1  0  0  0  0
 11  6  1  0  0  0  0
 14  7  1  0  0  0  0
 20 10  1  0  0  0  0
 21 10  1  0  0  0  0
 22 11  1  0  0  0  0
 23 11  1  0  0  0  0
 24  1  1  0  0  0  0
 24 28  1  0  0  0  0
 25 24  1  0  0  0  0
 26 24  1  0  0  0  0
 27 29  1  0  0  0  0
 28 27  2  0  0  0  0
 29 30  2  0  0  0  0
 29 34  1  0  0  0  0
 30 31  1  0  0  0  0
 31 36  1  0  0  0  0
 31 32  2  0  0  0  0
 33 32  1  0  0  0  0
 33 37  1  0  0  0  0
 34 33  2  0  0  0  0
 35 30  1  0  0  0  0
 37 45  2  0  0  0  0
 37 38  1  0  0  0  0
 38 40  2  0  0  0  0
 39 38  1  0  0  0  0
 40 41  1  0  0  0  0
 41 42  1  0  0  0  0
 43 44  1  0  0  0  0
 43 41  2  0  0  0  0
 45 43  1  0  0  0  0
M  END
>  <minimizedAffinity>
-5.73175669

$$$$

 OpenBabel03252504433D

 45 48  0  0  0  0  0  0  0  0999 V2000
   37.9560   28.7100   37.7510 C   0  0  0  0  0  0  0  0  0  0  0  0
   38.9320   29.4240   38.3810 C   0  0  0  0  0  0  0  0  0  0  0  0
   38.8430   29.1150   39.6780 N   0  0  0  0  0  0  0  0  0  0  0  0
   37.8560   28.2380   39.9100 C   0  0  0  0  0  0  0  0  0  0  0  0
   37.3010   27.9890   38.6880 N   0  0  0  0  0  0  0  0  0  0  0  0
   37.3880   27.6300   41.1010 N   0  0  0  0  0  0  0  0  0  0  0  0
   38.0220   26.3560   41.5070 C   0  0  0  0  0  0  0  0  0  0  0  0
   38.9450   26.7370   42.6640 C   0  0  0  0  0  0  0  0  0  0  0  0
   38.1970   27.6190   43.6550 C   0  0  0  0  0  0  0  0  0  0  0  0
   36.7060   27.5000   43.4190 C   0  0  0  0  0  0  0  0  0  0  0  0
   36.3790   28.0120   42.0370 C   0  0  0  0  0  0  0  0  0  0  0  0
   39.6580   30.1180   37.9330 H   0  0  0  0  0  0  0  0  0  0  0  0
   39.4520   29.4960   40.4360 H   0  0  0  0  0  0  0  0  0  0  0  0
   37.2700   25.6200   41.8240 H   0  0  0  0  0  0  0  0  0  0  0  0
   38.6830   25.9720   40.7020 H   0  0  0  0  0  0  0  0  0  0  0  0
   39.2720   25.8260   43.1880 H   0  0  0  0  0  0  0  0  0  0  0  0
   39.7700   27.3040   42.2030 H   0  0  0  0  0  0  0  0  0  0  0  0
   38.4900   28.6710   43.5160 H   0  0  0  0  0  0  0  0  0  0  0  0
   38.3710   27.2790   44.7020 H   0  0  0  0  0  0  0  0  0  0  0  0
   36.4340   26.4560   43.6000 H   0  0  0  0  0  0  0  0  0  0  0  0
   36.1950   28.1580   44.1440 H   0  0  0  0  0  0  0  0  0  0  0  0
   35.3540   27.6600   41.7680 H   0  0  0  0  0  0  0  0  0  0  0  0
   36.3830   29.1350   42.1000 H   0  0  0  0  0  0  0  0  0  0  0  0
   37.6430   28.7060   36.2920 C   0  0  0  0  0  0  0  0  0  0  0  0
   38.0870   29.5890   35.7900 H   0  0  0  0  0  0  0  0  0  0  0  0
   38.0700   27.7560   35.8820 H   0  0  0  0  0  0  0  0  0  0  0  0
   35.6570   28.0890   34.9770 C   0  0  0  0  0  3  0  0  0  0  0  0
   36.1940   28.6410   36.0530 C   0  0  0  0  0  3  0  0  0  0  0  0
   34.1950   28.0920   34.8660 C   0  0  0  0  0  0  0  0  0  0  0  0
   33.5000   27.1360   34.0910 C   0  0  0  0  0  0  0  0  0  0  0  0
   32.1270   27.2140   34.0440 C   0  0  0  0  0  0  0  0  0  0  0  0
   31.4850   28.1860   34.7270 N   0  0  0  0  0  0  0  0  0  0  0  0
   32.1750   29.0910   35.4630 C   0  0  0  0  0  0  0  0  0  0  0  0
   33.4890   29.0510   35.5350 N   0  0  0  0  0  0  0  0  0  0  0  0
   34.0780   26.3760   33.5630 H   0  0  0  0  0  0  0  0  0  0  0  0
   31.5830   26.4890   33.4540 H   0  0  0  0  0  0  0  0  0  0  0  0
   31.3790   30.0960   36.1590 C   0  0  0  0  0  0  0  0  0  0  0  0
   31.0080   31.2970   35.6020 C   0  0  0  0  0  0  0  0  0  0  0  0
   31.3290   31.5180   34.5710 H   0  0  0  0  0  0  0  0  0  0  0  0
   30.2600   32.2610   36.2290 C   0  0  0  0  0  3  0  0  0  0  0  0
   29.8780   31.9460   37.5200 C   0  0  0  0  0  0  0  0  0  0  0  0
   29.2800   32.6880   38.0570 H   0  0  0  0  0  0  0  0  0  0  0  0
   30.1850   30.7780   38.1900 C   0  0  0  0  0  0  0  0  0  0  0  0
   29.8600   30.5880   39.1940 H   0  0  0  0  0  0  0  0  0  0  0  0
   30.9450   29.8860   37.4490 C   0  0  0  0  0  3  0  0  0  0  0  0
  1  2  2  0  0  0  0
  1  5  1  0  0  0  0
  2  3  1  0  0  0  0
  3  4  1  0  0  0  0
  3 13  1  0  0  0  0
  4  6  1  0  0  0  0
  5  4  2  0  0  0  0
  6  7  1  0  0  0  0
  6 11  1  0  0  0  0
  7 14  1  0  0  0  0
  7  8  1  0  0  0  0
  8 16  1  0  0  0  0
  8  9  1  0  0  0  0
  9 19  1  0  0  0  0
 10 20  1  0  0  0  0
 10  9  1  0  0  0  0
 10 21  1  0  0  0  0
 11 23  1  0  0  0  0
 11 10  1  0  0  0  0
 12  2  1  0  0  0  0
 15  7  1  0  0  0  0
 17  8  1  0  0  0  0
 18  9  1  0  0  0  0
 22 11  1  0  0  0  0
 24  1  1  0  0  0  0
 25 24  1  0  0  0  0
 26 24  1  0  0  0  0
 27 28  2  0  0  0  0
 28 24  1  0  0  0  0
 29 27  1  0  0  0  0
 29 34  1  0  0  0  0
 30 29  2  0  0  0  0
 31 30  1  0  0  0  0
 31 32  2  0  0  0  0
 32 33  1  0  0  0  0
 33 34  2  0  0  0  0
 33 37  1  0  0  0  0
 35 30  1  0  0  0  0
 36 31  1  0  0  0  0
 37 45  1  0  0  0  0
 38 37  2  0  0  0  0
 38 40  1  0  0  0  0
 39 38  1  0  0  0  0
 40 41  2  0  0  0  0
 41 42  1  0  0  0  0
 41 43  1  0  0  0  0
 43 44  1  0  0  0  0
 45 43  2  0  0  0  0
M  END
>  <minimizedAffinity>
-5.66501284

$$$$

 OpenBabel03252504433D

 45 48  0  0  0  0  0  0  0  0999 V2000
   33.9650   27.2870   36.7430 C   0  0  0  0  0  0  0  0  0  0  0  0
   32.8630   26.5630   36.3930 C   0  0  0  0  0  0  0  0  0  0  0  0
   31.9290   27.4510   36.0390 N   0  0  0  0  0  0  0  0  0  0  0  0
   32.3790   28.7090   36.1450 C   0  0  0  0  0  0  0  0  0  0  0  0
   33.6640   28.5950   36.5910 N   0  0  0  0  0  0  0  0  0  0  0  0
   31.7660   29.9610   35.8890 N   0  0  0  0  0  0  0  0  0  0  0  0
   31.8770   30.5020   34.5160 C   0  0  0  0  0  0  0  0  0  0  0  0
   30.4990   30.2710   33.8980 C   0  0  0  0  0  0  0  0  0  0  0  0
   29.4140   30.7310   34.8630 C   0  0  0  0  0  0  0  0  0  0  0  0
   30.0190   31.6340   35.9170 C   0  0  0  0  0  0  0  0  0  0  0  0
   31.0260   30.8520   36.7240 C   0  0  0  0  0  0  0  0  0  0  0  0
   32.7440   25.4690   36.3940 H   0  0  0  0  0  0  0  0  0  0  0  0
   30.9630   27.2200   35.7170 H   0  0  0  0  0  0  0  0  0  0  0  0
   32.1330   31.5710   34.5290 H   0  0  0  0  0  0  0  0  0  0  0  0
   32.5880   29.8990   33.9130 H   0  0  0  0  0  0  0  0  0  0  0  0
   30.4100   30.8550   32.9700 H   0  0  0  0  0  0  0  0  0  0  0  0
   30.4290   29.1810   33.7440 H   0  0  0  0  0  0  0  0  0  0  0  0
   28.9640   29.8610   35.3660 H   0  0  0  0  0  0  0  0  0  0  0  0
   28.6460   31.3440   34.3370 H   0  0  0  0  0  0  0  0  0  0  0  0
   30.4250   32.5080   35.3980 H   0  0  0  0  0  0  0  0  0  0  0  0
   29.2110   31.9410   36.6050 H   0  0  0  0  0  0  0  0  0  0  0  0
   31.6600   31.5770   37.2880 H   0  0  0  0  0  0  0  0  0  0  0  0
   30.4390   30.2260   37.4510 H   0  0  0  0  0  0  0  0  0  0  0  0
   35.2780   26.7570   37.2130 C   0  0  0  0  0  0  0  0  0  0  0  0
   35.1950   25.6890   37.4980 H   0  0  0  0  0  0  0  0  0  0  0  0
   35.9920   26.8890   36.3610 H   0  0  0  0  0  0  0  0  0  0  0  0
   36.1770   27.0370   39.4860 C   0  0  0  0  0  3  0  0  0  0  0  0
   35.8140   27.5550   38.3240 C   0  0  0  0  0  3  0  0  0  0  0  0
   36.6960   27.9510   40.5090 C   0  0  0  0  0  0  0  0  0  0  0  0
   36.8780   27.5490   41.8510 C   0  0  0  0  0  0  0  0  0  0  0  0
   37.3700   28.4720   42.7440 C   0  0  0  0  0  0  0  0  0  0  0  0
   37.6640   29.7220   42.3250 N   0  0  0  0  0  0  0  0  0  0  0  0
   37.4810   30.0830   41.0310 C   0  0  0  0  0  0  0  0  0  0  0  0
   37.0120   29.2290   40.1450 N   0  0  0  0  0  0  0  0  0  0  0  0
   36.6210   26.5230   42.1260 H   0  0  0  0  0  0  0  0  0  0  0  0
   37.5130   28.1770   43.7740 H   0  0  0  0  0  0  0  0  0  0  0  0
   37.8320   31.4570   40.6910 C   0  0  0  0  0  0  0  0  0  0  0  0
   38.9770   32.0830   41.1270 C   0  0  0  0  0  0  0  0  0  0  0  0
   39.6710   31.5180   41.7690 H   0  0  0  0  0  0  0  0  0  0  0  0
   39.3360   33.3720   40.8240 C   0  0  0  0  0  3  0  0  0  0  0  0
   38.4380   34.0470   40.0170 C   0  0  0  0  0  0  0  0  0  0  0  0
   38.6850   35.0790   39.7520 H   0  0  0  0  0  0  0  0  0  0  0  0
   37.2570   33.5320   39.5170 C   0  0  0  0  0  0  0  0  0  0  0  0
   36.6000   34.1040   38.8940 H   0  0  0  0  0  0  0  0  0  0  0  0
   37.0100   32.2210   39.8940 C   0  0  0  0  0  3  0  0  0  0  0  0
  1 24  1  0  0  0  0
  2 12  1  0  0  0  0
  2  1  2  0  0  0  0
  3  4  1  0  0  0  0
  3  2  1  0  0  0  0
  4  5  2  0  0  0  0
  5  1  1  0  0  0  0
  6  4  1  0  0  0  0
  6 11  1  0  0  0  0
  7 14  1  0  0  0  0
  7  6  1  0  0  0  0
  8  7  1  0  0  0  0
  8  9  1  0  0  0  0
  9 18  1  0  0  0  0
  9 10  1  0  0  0  0
 10 21  1  0  0  0  0
 10 11  1  0  0  0  0
 11 22  1  0  0  0  0
 11 23  1  0  0  0  0
 13  3  1  0  0  0  0
 15  7  1  0  0  0  0
 16  8  1  0  0  0  0
 17  8  1  0  0  0  0
 19  9  1  0  0  0  0
 20 10  1  0  0  0  0
 24 25  1  0  0  0  0
 24 28  1  0  0  0  0
 26 24  1  0  0  0  0
 27 29  1  0  0  0  0
 28 27  2  0  0  0  0
 29 30  1  0  0  0  0
 30 35  1  0  0  0  0
 30 31  2  0  0  0  0
 31 36  1  0  0  0  0
 32 31  1  0  0  0  0
 33 32  2  0  0  0  0
 34 29  2  0  0  0  0
 34 33  1  0  0  0  0
 37 33  1  0  0  0  0
 37 38  1  0  0  0  0
 38 39  1  0  0  0  0
 40 38  2  0  0  0  0
 41 40  1  0  0  0  0
 42 41  1  0  0  0  0
 43 45  1  0  0  0  0
 43 41  2  0  0  0  0
 44 43  1  0  0  0  0
 45 37  2  0  0  0  0
M  END
>  <minimizedAffinity>
-5.64576197

$$$$

 OpenBabel03252504433D

 45 48  0  0  0  0  0  0  0  0999 V2000
   36.3160   28.3030   37.9300 C   0  0  0  0  0  0  0  0  0  0  0  0
   35.4960   27.2170   37.8360 C   0  0  0  0  0  0  0  0  0  0  0  0
   35.9800   26.3090   38.6890 N   0  0  0  0  0  0  0  0  0  0  0  0
   37.0700   26.7590   39.3250 C   0  0  0  0  0  0  0  0  0  0  0  0
   37.2750   28.0190   38.8390 N   0  0  0  0  0  0  0  0  0  0  0  0
   37.9130   26.1680   40.2980 N   0  0  0  0  0  0  0  0  0  0  0  0
   37.5430   26.3550   41.7190 C   0  0  0  0  0  0  0  0  0  0  0  0
   36.9560   25.0100   42.1450 C   0  0  0  0  0  0  0  0  0  0  0  0
   37.8670   23.8780   41.6890 C   0  0  0  0  0  0  0  0  0  0  0  0
   39.2340   24.4320   41.3440 C   0  0  0  0  0  0  0  0  0  0  0  0
   39.1050   25.3900   40.1850 C   0  0  0  0  0  0  0  0  0  0  0  0
   34.6110   27.0920   37.1950 H   0  0  0  0  0  0  0  0  0  0  0  0
   35.5770   25.3590   38.8560 H   0  0  0  0  0  0  0  0  0  0  0  0
   38.4210   26.6160   42.3270 H   0  0  0  0  0  0  0  0  0  0  0  0
   36.7200   27.0930   41.8170 H   0  0  0  0  0  0  0  0  0  0  0  0
   36.8780   24.9740   43.2420 H   0  0  0  0  0  0  0  0  0  0  0  0
   35.9840   24.9420   41.6290 H   0  0  0  0  0  0  0  0  0  0  0  0
   37.4490   23.3980   40.7900 H   0  0  0  0  0  0  0  0  0  0  0  0
   38.0310   23.1430   42.5100 H   0  0  0  0  0  0  0  0  0  0  0  0
   39.6440   24.8700   42.2590 H   0  0  0  0  0  0  0  0  0  0  0  0
   39.8660   23.5910   41.0080 H   0  0  0  0  0  0  0  0  0  0  0  0
   40.0390   25.9980   40.1290 H   0  0  0  0  0  0  0  0  0  0  0  0
   39.0130   24.7620   39.2570 H   0  0  0  0  0  0  0  0  0  0  0  0
   36.2010   29.5870   37.1780 C   0  0  0  0  0  0  0  0  0  0  0  0
   36.3350   29.4220   36.0900 H   0  0  0  0  0  0  0  0  0  0  0  0
   35.1780   29.9870   37.3970 H   0  0  0  0  0  0  0  0  0  0  0  0
   36.8810   31.4160   38.6750 C   0  0  0  0  0  3  0  0  0  0  0  0
   37.1500   30.5900   37.6770 C   0  0  0  0  0  3  0  0  0  0  0  0
   37.9230   32.3690   39.0720 C   0  0  0  0  0  0  0  0  0  0  0  0
   37.6370   33.5060   39.8610 C   0  0  0  0  0  0  0  0  0  0  0  0
   38.6760   34.3470   40.1860 C   0  0  0  0  0  0  0  0  0  0  0  0
   39.9250   34.0720   39.7520 N   0  0  0  0  0  0  0  0  0  0  0  0
   40.1730   32.9740   38.9970 C   0  0  0  0  0  0  0  0  0  0  0  0
   39.2070   32.1440   38.6640 N   0  0  0  0  0  0  0  0  0  0  0  0
   36.6060   33.6720   40.1800 H   0  0  0  0  0  0  0  0  0  0  0  0
   38.4700   35.2210   40.7890 H   0  0  0  0  0  0  0  0  0  0  0  0
   41.5580   32.7770   38.5850 C   0  0  0  0  0  0  0  0  0  0  0  0
   42.6390   33.2680   39.2790 C   0  0  0  0  0  0  0  0  0  0  0  0
   42.4530   33.8430   40.2000 H   0  0  0  0  0  0  0  0  0  0  0  0
   43.9520   33.0990   38.9190 C   0  0  0  0  0  3  0  0  0  0  0  0
   44.1430   32.3710   37.7590 C   0  0  0  0  0  0  0  0  0  0  0  0
   45.1750   32.2130   37.4340 H   0  0  0  0  0  0  0  0  0  0  0  0
   43.1440   31.8270   36.9730 C   0  0  0  0  0  0  0  0  0  0  0  0
   43.3530   31.2710   36.0820 H   0  0  0  0  0  0  0  0  0  0  0  0
   41.8630   32.0680   37.4450 C   0  0  0  0  0  3  0  0  0  0  0  0
  1  5  1  0  0  0  0
  2  1  2  0  0  0  0
  2  3  1  0  0  0  0
  3 13  1  0  0  0  0
  3  4  1  0  0  0  0
  4  6  1  0  0  0  0
  5  4  2  0  0  0  0
  6  7  1  0  0  0  0
  7 15  1  0  0  0  0
  7  8  1  0  0  0  0
  7 14  1  0  0  0  0
  8 16  1  0  0  0  0
  9  8  1  0  0  0  0
  9 19  1  0  0  0  0
 10  9  1  0  0  0  0
 10 20  1  0  0  0  0
 11  6  1  0  0  0  0
 11 10  1  0  0  0  0
 12  2  1  0  0  0  0
 17  8  1  0  0  0  0
 18  9  1  0  0  0  0
 21 10  1  0  0  0  0
 22 11  1  0  0  0  0
 23 11  1  0  0  0  0
 24 26  1  0  0  0  0
 24 28  1  0  0  0  0
 24  1  1  0  0  0  0
 25 24  1  0  0  0  0
 27 29  1  0  0  0  0
 28 27  2  0  0  0  0
 29 30  1  0  0  0  0
 30 35  1  0  0  0  0
 30 31  2  0  0  0  0
 31 36  1  0  0  0  0
 32 31  1  0  0  0  0
 33 32  2  0  0  0  0
 34 33  1  0  0  0  0
 34 29  2  0  0  0  0
 37 33  1  0  0  0  0
 37 38  1  0  0  0  0
 38 39  1  0  0  0  0
 40 38  2  0  0  0  0
 41 40  1  0  0  0  0
 42 41  1  0  0  0  0
 43 45  1  0  0  0  0
 43 41  2  0  0  0  0
 44 43  1  0  0  0  0
 45 37  2  0  0  0  0
M  END
>  <minimizedAffinity>
-5.625669

$$$$

 OpenBabel03252504433D

 45 48  0  0  0  0  0  0  0  0999 V2000
   36.8930   28.7830   40.0610 C   0  0  0  0  0  0  0  0  0  0  0  0
   36.9270   29.2600   41.3380 C   0  0  0  0  0  0  0  0  0  0  0  0
   37.5790   30.4250   41.2850 N   0  0  0  0  0  0  0  0  0  0  0  0
   37.9660   30.7190   40.0360 C   0  0  0  0  0  0  0  0  0  0  0  0
   37.5280   29.6760   39.2700 N   0  0  0  0  0  0  0  0  0  0  0  0
   38.6730   31.8210   39.4950 N   0  0  0  0  0  0  0  0  0  0  0  0
   37.8760   32.9880   39.0540 C   0  0  0  0  0  0  0  0  0  0  0  0
   38.0890   34.0350   40.1470 C   0  0  0  0  0  0  0  0  0  0  0  0
   39.5720   34.1470   40.4760 C   0  0  0  0  0  0  0  0  0  0  0  0
   40.3890   33.5210   39.3650 C   0  0  0  0  0  0  0  0  0  0  0  0
   40.0660   32.0500   39.2770 C   0  0  0  0  0  0  0  0  0  0  0  0
   36.5080   28.7970   42.2440 H   0  0  0  0  0  0  0  0  0  0  0  0
   37.7780   31.0480   42.1000 H   0  0  0  0  0  0  0  0  0  0  0  0
   38.2180   33.3570   38.0780 H   0  0  0  0  0  0  0  0  0  0  0  0
   36.7920   32.7500   39.0660 H   0  0  0  0  0  0  0  0  0  0  0  0
   37.7370   35.0150   39.7910 H   0  0  0  0  0  0  0  0  0  0  0  0
   37.5360   33.6570   41.0230 H   0  0  0  0  0  0  0  0  0  0  0  0
   39.7900   33.6110   41.4130 H   0  0  0  0  0  0  0  0  0  0  0  0
   39.8900   35.2130   40.5290 H   0  0  0  0  0  0  0  0  0  0  0  0
   40.1850   34.0930   38.4550 H   0  0  0  0  0  0  0  0  0  0  0  0
   41.4560   33.6080   39.6390 H   0  0  0  0  0  0  0  0  0  0  0  0
   40.4390   31.6680   38.2970 H   0  0  0  0  0  0  0  0  0  0  0  0
   40.6260   31.5460   40.1110 H   0  0  0  0  0  0  0  0  0  0  0  0
   36.2730   27.5100   39.5910 C   0  0  0  0  0  0  0  0  0  0  0  0
   37.0470   26.8010   39.2340 H   0  0  0  0  0  0  0  0  0  0  0  0
   35.7210   27.0880   40.4690 H   0  0  0  0  0  0  0  0  0  0  0  0
   35.2960   27.1810   37.3580 C   0  0  0  0  0  3  0  0  0  0  0  0
   35.2660   27.7540   38.5500 C   0  0  0  0  0  3  0  0  0  0  0  0
   34.2240   27.5150   36.4140 C   0  0  0  0  0  0  0  0  0  0  0  0
   33.9810   26.7460   35.2530 C   0  0  0  0  0  0  0  0  0  0  0  0
   32.9550   27.1320   34.4230 C   0  0  0  0  0  0  0  0  0  0  0  0
   32.2150   28.2190   34.7290 N   0  0  0  0  0  0  0  0  0  0  0  0
   32.4690   28.9400   35.8480 C   0  0  0  0  0  0  0  0  0  0  0  0
   33.4410   28.6040   36.6700 N   0  0  0  0  0  0  0  0  0  0  0  0
   34.6160   25.8770   35.0630 H   0  0  0  0  0  0  0  0  0  0  0  0
   32.7590   26.5510   33.5310 H   0  0  0  0  0  0  0  0  0  0  0  0
   31.6070   30.0940   36.0790 C   0  0  0  0  0  0  0  0  0  0  0  0
   31.3850   31.0810   35.1470 C   0  0  0  0  0  0  0  0  0  0  0  0
   31.8850   30.9990   34.1680 H   0  0  0  0  0  0  0  0  0  0  0  0
   30.5800   32.1760   35.3320 C   0  0  0  0  0  3  0  0  0  0  0  0
   29.9720   32.2420   36.5720 C   0  0  0  0  0  0  0  0  0  0  0  0
   29.3220   33.1010   36.7620 H   0  0  0  0  0  0  0  0  0  0  0  0
   30.1130   31.3190   37.5910 C   0  0  0  0  0  0  0  0  0  0  0  0
   29.6150   31.4230   38.5330 H   0  0  0  0  0  0  0  0  0  0  0  0
   30.9510   30.2590   37.2780 C   0  0  0  0  0  3  0  0  0  0  0  0
  1  2  2  0  0  0  0
  2 12  1  0  0  0  0
  3  2  1  0  0  0  0
  3 13  1  0  0  0  0
  4  3  1  0  0  0  0
  5  4  2  0  0  0  0
  5  1  1  0  0  0  0
  6  4  1  0  0  0  0
  7 15  1  0  0  0  0
  7  6  1  0  0  0  0
  7  8  1  0  0  0  0
  8  9  1  0  0  0  0
  8 17  1  0  0  0  0
  9 19  1  0  0  0  0
  9 18  1  0  0  0  0
 10 21  1  0  0  0  0
 10  9  1  0  0  0  0
 11 10  1  0  0  0  0
 11  6  1  0  0  0  0
 11 23  1  0  0  0  0
 14  7  1  0  0  0  0
 16  8  1  0  0  0  0
 20 10  1  0  0  0  0
 22 11  1  0  0  0  0
 24  1  1  0  0  0  0
 24 26  1  0  0  0  0
 25 24  1  0  0  0  0
 27 28  2  0  0  0  0
 28 24  1  0  0  0  0
 29 34  1  0  0  0  0
 29 27  1  0  0  0  0
 30 29  2  0  0  0  0
 31 32  2  0  0  0  0
 31 30  1  0  0  0  0
 32 33  1  0  0  0  0
 33 37  1  0  0  0  0
 33 34  2  0  0  0  0
 35 30  1  0  0  0  0
 36 31  1  0  0  0  0
 37 45  1  0  0  0  0
 38 40  1  0  0  0  0
 38 37  2  0  0  0  0
 39 38  1  0  0  0  0
 40 41  2  0  0  0  0
 41 42  1  0  0  0  0
 41 43  1  0  0  0  0
 43 44  1  0  0  0  0
 45 43  2  0  0  0  0
M  END
>  <minimizedAffinity>
-5.46266937

$$$$
