
 OpenBabel03252502113D

 28 30  0  0  0  0  0  0  0  0999 V2000
   39.5310   30.7440   42.8650 Cl  0  0  0  0  0  0  0  0  0  0  0  0
   38.2720   29.5580   42.6030 C   0  0  0  0  0  0  0  0  0  0  0  0
   37.5430   29.5190   41.4430 C   0  0  0  0  0  0  0  0  0  0  0  0
   36.5850   28.5500   41.3480 C   0  0  0  0  0  0  0  0  0  0  0  0
   36.3400   27.6470   42.3460 C   0  0  0  0  0  0  0  0  0  0  0  0
   37.0770   27.6920   43.5120 C   0  0  0  0  0  0  0  0  0  0  0  0
   38.0430   28.6570   43.6250 C   0  0  0  0  0  0  0  0  0  0  0  0
   35.5800   26.8760   42.2760 H   0  0  0  0  0  0  0  0  0  0  0  0
   36.9050   27.0010   44.3010 H   0  0  0  0  0  0  0  0  0  0  0  0
   38.6230   28.6920   44.5410 H   0  0  0  0  0  0  0  0  0  0  0  0
   37.4990   32.6530   39.3210 C   0  0  0  0  0  0  0  0  0  0  0  0
   37.1950   31.7270   40.3260 C   0  0  0  0  0  0  0  0  0  0  0  0
   37.8340   30.4920   40.4150 C   0  0  0  0  0  0  0  0  0  0  0  0
   38.7620   30.2670   39.4570 N   0  0  0  0  0  0  0  0  0  0  0  0
   39.0540   31.1520   38.4940 C   0  0  0  0  0  0  0  0  0  0  0  0
   38.4250   32.3510   38.4180 N   0  0  0  0  0  0  0  0  0  0  0  0
   36.9990   33.6120   39.2580 H   0  0  0  0  0  0  0  0  0  0  0  0
   36.4370   31.9800   41.0610 H   0  0  0  0  0  0  0  0  0  0  0  0
   39.8350   30.7990   37.8020 H   0  0  0  0  0  0  0  0  0  0  0  0
   35.7710   28.4280   40.1640 C   0  0  0  0  0  0  0  0  0  0  0  0
   36.1770   27.4920   39.2050 C   0  0  0  0  0  0  0  0  0  0  0  0
   37.0630   26.8420   39.2830 H   0  0  0  0  0  0  0  0  0  0  0  0
   35.4630   27.3110   38.0390 C   0  0  0  0  0  3  0  0  0  0  0  0
   34.3200   28.0480   37.7760 C   0  0  0  0  0  0  0  0  0  0  0  0
   33.6920   27.9830   36.8970 H   0  0  0  0  0  0  0  0  0  0  0  0
   33.9010   28.9750   38.7070 C   0  0  0  0  0  0  0  0  0  0  0  0
   33.0020   29.5830   38.5450 H   0  0  0  0  0  0  0  0  0  0  0  0
   34.6280   29.1430   39.8670 C   0  0  0  0  0  3  0  0  0  0  0  0
  2  1  1  0  0  0  0
  2  7  1  0  0  0  0
  3  2  2  0  0  0  0
  4  3  1  0  0  0  0
  4  5  2  0  0  0  0
  5  6  1  0  0  0  0
  6  7  2  0  0  0  0
  6  9  1  0  0  0  0
  7 10  1  0  0  0  0
  8  5  1  0  0  0  0
 11 12  1  0  0  0  0
 12 13  2  0  0  0  0
 12 18  1  0  0  0  0
 13  3  1  0  0  0  0
 14 13  1  0  0  0  0
 15 14  2  0  0  0  0
 16 15  1  0  0  0  0
 16 11  2  0  0  0  0
 17 11  1  0  0  0  0
 19 15  1  0  0  0  0
 20  4  1  0  0  0  0
 21 22  1  0  0  0  0
 21 20  2  0  0  0  0
 23 21  1  0  0  0  0
 24 23  2  0  0  0  0
 24 26  1  0  0  0  0
 25 24  1  0  0  0  0
 26 28  2  0  0  0  0
 27 26  1  0  0  0  0
 28 20  1  0  0  0  0
M  END
>  <minimizedAffinity>
-5.71225691

$$$$

 OpenBabel03252502113D

 28 30  0  0  0  0  0  0  0  0999 V2000
   40.3560   31.1770   42.6150 Cl  0  0  0  0  0  0  0  0  0  0  0  0
   39.1440   31.6420   41.4430 C   0  0  0  0  0  0  0  0  0  0  0  0
   38.2120   30.7540   40.9740 C   0  0  0  0  0  0  0  0  0  0  0  0
   37.3130   31.2270   40.0610 C   0  0  0  0  0  0  0  0  0  0  0  0
   37.3170   32.5200   39.6150 C   0  0  0  0  0  0  0  0  0  0  0  0
   38.2590   33.4090   40.0910 C   0  0  0  0  0  0  0  0  0  0  0  0
   39.1690   32.9530   41.0080 C   0  0  0  0  0  0  0  0  0  0  0  0
   36.6060   32.9000   38.8890 H   0  0  0  0  0  0  0  0  0  0  0  0
   38.2820   34.4190   39.7600 H   0  0  0  0  0  0  0  0  0  0  0  0
   39.9090   33.6520   41.3820 H   0  0  0  0  0  0  0  0  0  0  0  0
   38.8890   27.0450   41.3050 C   0  0  0  0  0  0  0  0  0  0  0  0
   38.8720   28.3500   40.7990 C   0  0  0  0  0  0  0  0  0  0  0  0
   38.2430   29.3970   41.4700 C   0  0  0  0  0  0  0  0  0  0  0  0
   37.6580   29.0480   42.6400 N   0  0  0  0  0  0  0  0  0  0  0  0
   37.6750   27.7980   43.1250 C   0  0  0  0  0  0  0  0  0  0  0  0
   38.2900   26.7880   42.4620 N   0  0  0  0  0  0  0  0  0  0  0  0
   39.3800   26.2350   40.7790 H   0  0  0  0  0  0  0  0  0  0  0  0
   39.3630   28.5530   39.8530 H   0  0  0  0  0  0  0  0  0  0  0  0
   37.1500   27.7000   44.0880 H   0  0  0  0  0  0  0  0  0  0  0  0
   36.2920   30.3670   39.5130 C   0  0  0  0  0  0  0  0  0  0  0  0
   36.3870   30.0520   38.1520 C   0  0  0  0  0  0  0  0  0  0  0  0
   37.1770   30.4030   37.4690 H   0  0  0  0  0  0  0  0  0  0  0  0
   35.4520   29.2420   37.5420 C   0  0  0  0  0  3  0  0  0  0  0  0
   34.3880   28.7130   38.2540 C   0  0  0  0  0  0  0  0  0  0  0  0
   33.6050   28.0710   37.8710 H   0  0  0  0  0  0  0  0  0  0  0  0
   34.2750   29.0100   39.5950 C   0  0  0  0  0  0  0  0  0  0  0  0
   33.4500   28.6150   40.2020 H   0  0  0  0  0  0  0  0  0  0  0  0
   35.2190   29.8220   40.1890 C   0  0  0  0  0  3  0  0  0  0  0  0
  2  1  1  0  0  0  0
  3  2  2  0  0  0  0
  3 13  1  0  0  0  0
  4  3  1  0  0  0  0
  5  4  2  0  0  0  0
  5  6  1  0  0  0  0
  6  7  2  0  0  0  0
  7 10  1  0  0  0  0
  7  2  1  0  0  0  0
  8  5  1  0  0  0  0
  9  6  1  0  0  0  0
 11 16  1  0  0  0  0
 12 11  2  0  0  0  0
 12 13  1  0  0  0  0
 13 14  2  0  0  0  0
 14 15  1  0  0  0  0
 15 19  1  0  0  0  0
 16 15  2  0  0  0  0
 17 11  1  0  0  0  0
 18 12  1  0  0  0  0
 20  4  1  0  0  0  0
 20 28  1  0  0  0  0
 21 20  2  0  0  0  0
 22 21  1  0  0  0  0
 23 21  1  0  0  0  0
 23 24  2  0  0  0  0
 24 26  1  0  0  0  0
 25 24  1  0  0  0  0
 26 28  2  0  0  0  0
 26 27  1  0  0  0  0
M  END
>  <minimizedAffinity>
-5.46628857

$$$$

 OpenBabel03252502113D

 28 30  0  0  0  0  0  0  0  0999 V2000
   39.4080   31.2470   41.8670 Cl  0  0  0  0  0  0  0  0  0  0  0  0
   38.0430   30.2400   41.4400 C   0  0  0  0  0  0  0  0  0  0  0  0
   38.1200   28.8720   41.4580 C   0  0  0  0  0  0  0  0  0  0  0  0
   36.9920   28.1860   41.1070 C   0  0  0  0  0  0  0  0  0  0  0  0
   35.8270   28.8060   40.7480 C   0  0  0  0  0  0  0  0  0  0  0  0
   35.7570   30.1840   40.7310 C   0  0  0  0  0  0  0  0  0  0  0  0
   36.8780   30.8890   41.0820 C   0  0  0  0  0  0  0  0  0  0  0  0
   34.9290   28.2650   40.4670 H   0  0  0  0  0  0  0  0  0  0  0  0
   34.8620   30.6880   40.4560 H   0  0  0  0  0  0  0  0  0  0  0  0
   36.8230   31.9720   41.0690 H   0  0  0  0  0  0  0  0  0  0  0  0
   40.9430   27.4080   43.5110 C   0  0  0  0  0  0  0  0  0  0  0  0
   39.7270   28.0090   43.1670 C   0  0  0  0  0  0  0  0  0  0  0  0
   39.3700   28.2570   41.8430 C   0  0  0  0  0  0  0  0  0  0  0  0
   40.2890   27.8700   40.9280 N   0  0  0  0  0  0  0  0  0  0  0  0
   41.4550   27.2940   41.2570 C   0  0  0  0  0  0  0  0  0  0  0  0
   41.7910   27.0590   42.5490 N   0  0  0  0  0  0  0  0  0  0  0  0
   41.2150   27.2180   44.5420 H   0  0  0  0  0  0  0  0  0  0  0  0
   39.0390   28.2920   43.9570 H   0  0  0  0  0  0  0  0  0  0  0  0
   42.0770   27.0460   40.3830 H   0  0  0  0  0  0  0  0  0  0  0  0
   36.9750   26.7430   41.1000 C   0  0  0  0  0  0  0  0  0  0  0  0
   36.9740   26.1120   39.8500 C   0  0  0  0  0  0  0  0  0  0  0  0
   36.9880   26.6250   38.8750 H   0  0  0  0  0  0  0  0  0  0  0  0
   36.9520   24.7360   39.7470 C   0  0  0  0  0  3  0  0  0  0  0  0
   36.9310   23.9330   40.8750 C   0  0  0  0  0  0  0  0  0  0  0  0
   36.9130   22.8510   40.9020 H   0  0  0  0  0  0  0  0  0  0  0  0
   36.9320   24.5330   42.1160 C   0  0  0  0  0  0  0  0  0  0  0  0
   36.9160   23.9400   43.0390 H   0  0  0  0  0  0  0  0  0  0  0  0
   36.9530   25.9100   42.2000 C   0  0  0  0  0  3  0  0  0  0  0  0
  2  3  1  0  0  0  0
  2  1  1  0  0  0  0
  3 13  1  0  0  0  0
  4  3  2  0  0  0  0
  5  4  1  0  0  0  0
  6  5  2  0  0  0  0
  6  7  1  0  0  0  0
  7  2  2  0  0  0  0
  8  5  1  0  0  0  0
  9  6  1  0  0  0  0
 10  7  1  0  0  0  0
 11 17  1  0  0  0  0
 12 11  1  0  0  0  0
 12 18  1  0  0  0  0
 13 12  2  0  0  0  0
 14 15  2  0  0  0  0
 14 13  1  0  0  0  0
 15 16  1  0  0  0  0
 16 11  2  0  0  0  0
 19 15  1  0  0  0  0
 20  4  1  0  0  0  0
 20 28  1  0  0  0  0
 21 20  2  0  0  0  0
 22 21  1  0  0  0  0
 23 21  1  0  0  0  0
 23 24  2  0  0  0  0
 24 25  1  0  0  0  0
 24 26  1  0  0  0  0
 26 28  2  0  0  0  0
 26 27  1  0  0  0  0
M  END
>  <minimizedAffinity>
-5.19769812

$$$$

 OpenBabel03252502113D

 28 30  0  0  0  0  0  0  0  0999 V2000
   36.7760   25.6610   40.3730 Cl  0  0  0  0  0  0  0  0  0  0  0  0
   37.0830   27.0740   41.3570 C   0  0  0  0  0  0  0  0  0  0  0  0
   37.3820   28.2910   40.8020 C   0  0  0  0  0  0  0  0  0  0  0  0
   37.6030   29.3250   41.6670 C   0  0  0  0  0  0  0  0  0  0  0  0
   37.5360   29.1860   43.0260 C   0  0  0  0  0  0  0  0  0  0  0  0
   37.2340   27.9570   43.5770 C   0  0  0  0  0  0  0  0  0  0  0  0
   37.0090   26.9080   42.7260 C   0  0  0  0  0  0  0  0  0  0  0  0
   37.7110   30.0040   43.7160 H   0  0  0  0  0  0  0  0  0  0  0  0
   37.1760   27.8240   44.6310 H   0  0  0  0  0  0  0  0  0  0  0  0
   36.7710   25.9420   43.1600 H   0  0  0  0  0  0  0  0  0  0  0  0
   36.4170   28.7370   37.1700 C   0  0  0  0  0  0  0  0  0  0  0  0
   36.3280   28.6370   38.5630 C   0  0  0  0  0  0  0  0  0  0  0  0
   37.4440   28.3950   39.3620 C   0  0  0  0  0  0  0  0  0  0  0  0
   38.6070   28.2680   38.6830 N   0  0  0  0  0  0  0  0  0  0  0  0
   38.6930   28.3640   37.3490 C   0  0  0  0  0  0  0  0  0  0  0  0
   37.6000   28.5990   36.5820 N   0  0  0  0  0  0  0  0  0  0  0  0
   35.5450   28.9250   36.5550 H   0  0  0  0  0  0  0  0  0  0  0  0
   35.3580   28.7500   39.0380 H   0  0  0  0  0  0  0  0  0  0  0  0
   39.7190   28.2350   36.9700 H   0  0  0  0  0  0  0  0  0  0  0  0
   37.9210   30.6450   41.1760 C   0  0  0  0  0  0  0  0  0  0  0  0
   39.2460   31.0730   41.3140 C   0  0  0  0  0  0  0  0  0  0  0  0
   40.0640   30.4860   41.7620 H   0  0  0  0  0  0  0  0  0  0  0  0
   39.6410   32.3210   40.8790 C   0  0  0  0  0  3  0  0  0  0  0  0
   38.7390   33.1940   40.2920 C   0  0  0  0  0  0  0  0  0  0  0  0
   38.9460   34.1890   39.9200 H   0  0  0  0  0  0  0  0  0  0  0  0
   37.4280   32.7920   40.1460 C   0  0  0  0  0  0  0  0  0  0  0  0
   36.6760   33.4470   39.6870 H   0  0  0  0  0  0  0  0  0  0  0  0
   37.0520   31.5410   40.5870 C   0  0  0  0  0  3  0  0  0  0  0  0
  1  2  1  0  0  0  0
  2  7  1  0  0  0  0
  3  2  2  0  0  0  0
  3  4  1  0  0  0  0
  4  5  2  0  0  0  0
  5  6  1  0  0  0  0
  5  8  1  0  0  0  0
  6  9  1  0  0  0  0
  7 10  1  0  0  0  0
  7  6  2  0  0  0  0
 11 12  1  0  0  0  0
 12 18  1  0  0  0  0
 12 13  2  0  0  0  0
 13  3  1  0  0  0  0
 14 13  1  0  0  0  0
 15 14  2  0  0  0  0
 16 11  2  0  0  0  0
 16 15  1  0  0  0  0
 17 11  1  0  0  0  0
 19 15  1  0  0  0  0
 20 21  1  0  0  0  0
 20  4  1  0  0  0  0
 21 22  1  0  0  0  0
 23 21  2  0  0  0  0
 24 23  1  0  0  0  0
 25 24  1  0  0  0  0
 26 24  2  0  0  0  0
 26 28  1  0  0  0  0
 27 26  1  0  0  0  0
 28 20  2  0  0  0  0
M  END
>  <minimizedAffinity>
-5.06715107

$$$$

 OpenBabel03252502113D

 28 30  0  0  0  0  0  0  0  0999 V2000
   40.9320   26.2660   43.3700 Cl  0  0  0  0  0  0  0  0  0  0  0  0
   39.3980   25.9170   42.6050 C   0  0  0  0  0  0  0  0  0  0  0  0
   38.6980   26.8740   41.9180 C   0  0  0  0  0  0  0  0  0  0  0  0
   37.5120   26.4900   41.3600 C   0  0  0  0  0  0  0  0  0  0  0  0
   37.0190   25.2180   41.4640 C   0  0  0  0  0  0  0  0  0  0  0  0
   37.7300   24.2590   42.1570 C   0  0  0  0  0  0  0  0  0  0  0  0
   38.9220   24.6260   42.7230 C   0  0  0  0  0  0  0  0  0  0  0  0
   36.0780   24.9080   41.0230 H   0  0  0  0  0  0  0  0  0  0  0  0
   37.3670   23.2640   42.2520 H   0  0  0  0  0  0  0  0  0  0  0  0
   39.4800   23.8720   43.2680 H   0  0  0  0  0  0  0  0  0  0  0  0
   39.5760   30.4760   42.6800 C   0  0  0  0  0  0  0  0  0  0  0  0
   39.0220   29.1950   42.7860 C   0  0  0  0  0  0  0  0  0  0  0  0
   39.2540   28.2060   41.8320 C   0  0  0  0  0  0  0  0  0  0  0  0
   40.0520   28.5850   40.8080 N   0  0  0  0  0  0  0  0  0  0  0  0
   40.5830   29.8110   40.7050 C   0  0  0  0  0  0  0  0  0  0  0  0
   40.3500   30.7660   41.6400 N   0  0  0  0  0  0  0  0  0  0  0  0
   39.3920   31.2410   43.4250 H   0  0  0  0  0  0  0  0  0  0  0  0
   38.3910   28.9650   43.6380 H   0  0  0  0  0  0  0  0  0  0  0  0
   41.2060   29.9400   39.8070 H   0  0  0  0  0  0  0  0  0  0  0  0
   36.7060   27.4260   40.6150 C   0  0  0  0  0  0  0  0  0  0  0  0
   36.7900   27.3680   39.2180 C   0  0  0  0  0  0  0  0  0  0  0  0
   37.4160   26.6660   38.6450 H   0  0  0  0  0  0  0  0  0  0  0  0
   36.0600   28.2280   38.4250 C   0  0  0  0  0  3  0  0  0  0  0  0
   35.2200   29.1790   38.9820 C   0  0  0  0  0  0  0  0  0  0  0  0
   34.6080   29.8960   38.4500 H   0  0  0  0  0  0  0  0  0  0  0  0
   35.1210   29.2530   40.3550 C   0  0  0  0  0  0  0  0  0  0  0  0
   34.4700   29.9890   40.8440 H   0  0  0  0  0  0  0  0  0  0  0  0
   35.8590   28.3860   41.1330 C   0  0  0  0  0  3  0  0  0  0  0  0
  2  7  1  0  0  0  0
  2  1  1  0  0  0  0
  3  2  2  0  0  0  0
  4  5  2  0  0  0  0
  4  3  1  0  0  0  0
  5  6  1  0  0  0  0
  6  9  1  0  0  0  0
  6  7  2  0  0  0  0
  7 10  1  0  0  0  0
  8  5  1  0  0  0  0
 11 12  1  0  0  0  0
 11 17  1  0  0  0  0
 12 18  1  0  0  0  0
 13  3  1  0  0  0  0
 13 12  2  0  0  0  0
 14 13  1  0  0  0  0
 15 14  2  0  0  0  0
 15 16  1  0  0  0  0
 16 11  2  0  0  0  0
 19 15  1  0  0  0  0
 20 28  1  0  0  0  0
 20  4  1  0  0  0  0
 21 20  2  0  0  0  0
 22 21  1  0  0  0  0
 23 24  2  0  0  0  0
 23 21  1  0  0  0  0
 24 26  1  0  0  0  0
 25 24  1  0  0  0  0
 26 27  1  0  0  0  0
 26 28  2  0  0  0  0
M  END
>  <minimizedAffinity>
-5.02119541

$$$$

 OpenBabel03252502113D

 28 30  0  0  0  0  0  0  0  0999 V2000
   37.4950   31.6520   37.2400 Cl  0  0  0  0  0  0  0  0  0  0  0  0
   36.8950   30.2770   38.1410 C   0  0  0  0  0  0  0  0  0  0  0  0
   37.4360   29.9090   39.3450 C   0  0  0  0  0  0  0  0  0  0  0  0
   36.8880   28.8200   39.9600 C   0  0  0  0  0  0  0  0  0  0  0  0
   35.8480   28.1090   39.4260 C   0  0  0  0  0  0  0  0  0  0  0  0
   35.3080   28.4860   38.2130 C   0  0  0  0  0  0  0  0  0  0  0  0
   35.8450   29.5770   37.5810 C   0  0  0  0  0  0  0  0  0  0  0  0
   35.4100   27.2430   39.9110 H   0  0  0  0  0  0  0  0  0  0  0  0
   34.5000   27.9500   37.7780 H   0  0  0  0  0  0  0  0  0  0  0  0
   35.4200   29.8720   36.6280 H   0  0  0  0  0  0  0  0  0  0  0  0
   40.9170   31.1460   40.1680 C   0  0  0  0  0  0  0  0  0  0  0  0
   39.8730   30.3730   39.6470 C   0  0  0  0  0  0  0  0  0  0  0  0
   38.5340   30.6860   39.8730 C   0  0  0  0  0  0  0  0  0  0  0  0
   38.3320   31.7890   40.6310 N   0  0  0  0  0  0  0  0  0  0  0  0
   39.3320   32.5290   41.1310 C   0  0  0  0  0  0  0  0  0  0  0  0
   40.6310   32.2140   40.9040 N   0  0  0  0  0  0  0  0  0  0  0  0
   41.9560   30.8980   39.9880 H   0  0  0  0  0  0  0  0  0  0  0  0
   40.1140   29.5010   39.0460 H   0  0  0  0  0  0  0  0  0  0  0  0
   38.9800   33.3890   41.7230 H   0  0  0  0  0  0  0  0  0  0  0  0
   37.3880   28.3590   41.2330 C   0  0  0  0  0  0  0  0  0  0  0  0
   38.2650   27.2670   41.2150 C   0  0  0  0  0  0  0  0  0  0  0  0
   38.6050   26.7370   40.3110 H   0  0  0  0  0  0  0  0  0  0  0  0
   38.7890   26.7550   42.3840 C   0  0  0  0  0  3  0  0  0  0  0  0
   38.4640   27.3020   43.6150 C   0  0  0  0  0  0  0  0  0  0  0  0
   38.8180   26.9760   44.5840 H   0  0  0  0  0  0  0  0  0  0  0  0
   37.6030   28.3780   43.6560 C   0  0  0  0  0  0  0  0  0  0  0  0
   37.3160   28.8450   44.6060 H   0  0  0  0  0  0  0  0  0  0  0  0
   37.0890   28.8760   42.4770 C   0  0  0  0  0  3  0  0  0  0  0  0
  1  2  1  0  0  0  0
  2  3  1  0  0  0  0
  3 13  1  0  0  0  0
  3  4  2  0  0  0  0
  4 20  1  0  0  0  0
  5  8  1  0  0  0  0
  5  4  1  0  0  0  0
  6  5  2  0  0  0  0
  7  2  2  0  0  0  0
  7  6  1  0  0  0  0
  9  6  1  0  0  0  0
 10  7  1  0  0  0  0
 11 16  1  0  0  0  0
 12 13  1  0  0  0  0
 12 11  2  0  0  0  0
 13 14  2  0  0  0  0
 14 15  1  0  0  0  0
 15 19  1  0  0  0  0
 16 15  2  0  0  0  0
 17 11  1  0  0  0  0
 18 12  1  0  0  0  0
 20 28  1  0  0  0  0
 21 20  2  0  0  0  0
 21 23  1  0  0  0  0
 22 21  1  0  0  0  0
 23 24  2  0  0  0  0
 24 26  1  0  0  0  0
 24 25  1  0  0  0  0
 26 27  1  0  0  0  0
 28 26  2  0  0  0  0
M  END
>  <minimizedAffinity>
-5.01431894

$$$$

 OpenBabel03252502113D

 28 30  0  0  0  0  0  0  0  0999 V2000
   36.3320   29.6550   36.5350 Cl  0  0  0  0  0  0  0  0  0  0  0  0
   36.3510   28.3230   37.6700 C   0  0  0  0  0  0  0  0  0  0  0  0
   36.8380   28.4640   38.9430 C   0  0  0  0  0  0  0  0  0  0  0  0
   36.8030   27.3570   39.7420 C   0  0  0  0  0  0  0  0  0  0  0  0
   36.3120   26.1520   39.3220 C   0  0  0  0  0  0  0  0  0  0  0  0
   35.8220   26.0170   38.0390 C   0  0  0  0  0  0  0  0  0  0  0  0
   35.8490   27.1170   37.2220 C   0  0  0  0  0  0  0  0  0  0  0  0
   36.2820   25.2700   39.9540 H   0  0  0  0  0  0  0  0  0  0  0  0
   35.4350   25.0910   37.6900 H   0  0  0  0  0  0  0  0  0  0  0  0
   35.4640   27.0110   36.2130 H   0  0  0  0  0  0  0  0  0  0  0  0
   37.0790   31.9860   40.3070 C   0  0  0  0  0  0  0  0  0  0  0  0
   36.5570   30.7460   39.9210 C   0  0  0  0  0  0  0  0  0  0  0  0
   37.3490   29.7540   39.3460 C   0  0  0  0  0  0  0  0  0  0  0  0
   38.6510   30.0890   39.1950 N   0  0  0  0  0  0  0  0  0  0  0  0
   39.1520   31.2760   39.5640 C   0  0  0  0  0  0  0  0  0  0  0  0
   38.3700   32.2340   40.1220 N   0  0  0  0  0  0  0  0  0  0  0  0
   36.4570   32.7530   40.7530 H   0  0  0  0  0  0  0  0  0  0  0  0
   35.5000   30.5500   40.0750 H   0  0  0  0  0  0  0  0  0  0  0  0
   40.2310   31.3720   39.3660 H   0  0  0  0  0  0  0  0  0  0  0  0
   37.2900   27.4090   41.1000 C   0  0  0  0  0  0  0  0  0  0  0  0
   38.6290   27.0570   41.3090 C   0  0  0  0  0  0  0  0  0  0  0  0
   39.3390   26.7480   40.5260 H   0  0  0  0  0  0  0  0  0  0  0  0
   39.1790   27.0720   42.5740 C   0  0  0  0  0  3  0  0  0  0  0  0
   38.4270   27.4350   43.6800 C   0  0  0  0  0  0  0  0  0  0  0  0
   38.7620   27.4780   44.7080 H   0  0  0  0  0  0  0  0  0  0  0  0
   37.1060   27.7860   43.4960 C   0  0  0  0  0  0  0  0  0  0  0  0
   36.4690   28.0810   44.3390 H   0  0  0  0  0  0  0  0  0  0  0  0
   36.5730   27.7650   42.2240 C   0  0  0  0  0  3  0  0  0  0  0  0
  1  2  1  0  0  0  0
  2  3  1  0  0  0  0
  3 13  1  0  0  0  0
  3  4  2  0  0  0  0
  4 20  1  0  0  0  0
  5  4  1  0  0  0  0
  5  8  1  0  0  0  0
  6  5  2  0  0  0  0
  7  2  2  0  0  0  0
  7  6  1  0  0  0  0
  9  6  1  0  0  0  0
 10  7  1  0  0  0  0
 11 17  1  0  0  0  0
 12 18  1  0  0  0  0
 12 11  2  0  0  0  0
 13 12  1  0  0  0  0
 14 13  2  0  0  0  0
 14 15  1  0  0  0  0
 15 16  2  0  0  0  0
 16 11  1  0  0  0  0
 19 15  1  0  0  0  0
 20 21  2  0  0  0  0
 20 28  1  0  0  0  0
 21 23  1  0  0  0  0
 22 21  1  0  0  0  0
 23 24  2  0  0  0  0
 24 25  1  0  0  0  0
 26 24  1  0  0  0  0
 26 27  1  0  0  0  0
 28 26  2  0  0  0  0
M  END
>  <minimizedAffinity>
-4.97155523

$$$$

 OpenBabel03252502113D

 28 30  0  0  0  0  0  0  0  0999 V2000
   37.2890   27.4570   43.6780 Cl  0  0  0  0  0  0  0  0  0  0  0  0
   37.0680   26.5350   42.2080 C   0  0  0  0  0  0  0  0  0  0  0  0
   37.0120   27.1370   40.9780 C   0  0  0  0  0  0  0  0  0  0  0  0
   36.8370   26.3180   39.8980 C   0  0  0  0  0  0  0  0  0  0  0  0
   36.7200   24.9600   40.0060 C   0  0  0  0  0  0  0  0  0  0  0  0
   36.7770   24.3600   41.2490 C   0  0  0  0  0  0  0  0  0  0  0  0
   36.9530   25.1650   42.3430 C   0  0  0  0  0  0  0  0  0  0  0  0
   36.5800   24.3060   39.1520 H   0  0  0  0  0  0  0  0  0  0  0  0
   36.6880   23.3070   41.3580 H   0  0  0  0  0  0  0  0  0  0  0  0
   36.9980   24.6940   43.3190 H   0  0  0  0  0  0  0  0  0  0  0  0
   36.2030   30.8330   40.8740 C   0  0  0  0  0  0  0  0  0  0  0  0
   36.0500   29.4430   40.9400 C   0  0  0  0  0  0  0  0  0  0  0  0
   37.1400   28.5740   40.9080 C   0  0  0  0  0  0  0  0  0  0  0  0
   38.3440   29.1830   40.8100 N   0  0  0  0  0  0  0  0  0  0  0  0
   38.4920   30.5140   40.7470 C   0  0  0  0  0  0  0  0  0  0  0  0
   37.4230   31.3490   40.7780 N   0  0  0  0  0  0  0  0  0  0  0  0
   35.3520   31.5020   40.9000 H   0  0  0  0  0  0  0  0  0  0  0  0
   35.0500   29.0270   41.0180 H   0  0  0  0  0  0  0  0  0  0  0  0
   39.5430   30.8310   40.6710 H   0  0  0  0  0  0  0  0  0  0  0  0
   36.7700   26.8590   38.5620 C   0  0  0  0  0  0  0  0  0  0  0  0
   35.4960   27.1200   38.0440 C   0  0  0  0  0  0  0  0  0  0  0  0
   34.5440   26.9490   38.5720 H   0  0  0  0  0  0  0  0  0  0  0  0
   35.3340   27.6330   36.7740 C   0  0  0  0  0  3  0  0  0  0  0  0
   36.4270   27.9070   35.9670 C   0  0  0  0  0  0  0  0  0  0  0  0
   36.4080   28.3070   34.9620 H   0  0  0  0  0  0  0  0  0  0  0  0
   37.6920   27.6580   36.4580 C   0  0  0  0  0  0  0  0  0  0  0  0
   38.5880   27.8590   35.8580 H   0  0  0  0  0  0  0  0  0  0  0  0
   37.8340   27.1450   37.7300 C   0  0  0  0  0  3  0  0  0  0  0  0
  2  7  1  0  0  0  0
  2  1  1  0  0  0  0
  3  2  2  0  0  0  0
  4  5  2  0  0  0  0
  4  3  1  0  0  0  0
  5  6  1  0  0  0  0
  6  9  1  0  0  0  0
  6  7  2  0  0  0  0
  7 10  1  0  0  0  0
  8  5  1  0  0  0  0
 11 17  1  0  0  0  0
 11 12  1  0  0  0  0
 12 18  1  0  0  0  0
 13 12  2  0  0  0  0
 13  3  1  0  0  0  0
 14 13  1  0  0  0  0
 15 16  1  0  0  0  0
 15 14  2  0  0  0  0
 16 11  2  0  0  0  0
 19 15  1  0  0  0  0
 20  4  1  0  0  0  0
 21 20  1  0  0  0  0
 21 22  1  0  0  0  0
 23 21  2  0  0  0  0
 24 26  2  0  0  0  0
 24 23  1  0  0  0  0
 25 24  1  0  0  0  0
 26 28  1  0  0  0  0
 27 26  1  0  0  0  0
 28 20  2  0  0  0  0
M  END
>  <minimizedAffinity>
-4.94989681

$$$$

 OpenBabel03252502113D

 28 30  0  0  0  0  0  0  0  0999 V2000
   35.4840   25.2620   37.0400 Cl  0  0  0  0  0  0  0  0  0  0  0  0
   35.5310   26.6530   38.1000 C   0  0  0  0  0  0  0  0  0  0  0  0
   36.2940   26.6710   39.2370 C   0  0  0  0  0  0  0  0  0  0  0  0
   36.2540   27.8110   39.9890 C   0  0  0  0  0  0  0  0  0  0  0  0
   35.4980   28.8990   39.6500 C   0  0  0  0  0  0  0  0  0  0  0  0
   34.7310   28.8740   38.5020 C   0  0  0  0  0  0  0  0  0  0  0  0
   34.7590   27.7390   37.7350 C   0  0  0  0  0  0  0  0  0  0  0  0
   35.4620   29.8060   40.2440 H   0  0  0  0  0  0  0  0  0  0  0  0
   34.1360   29.7070   38.2180 H   0  0  0  0  0  0  0  0  0  0  0  0
   34.1560   27.7200   36.8340 H   0  0  0  0  0  0  0  0  0  0  0  0
   37.3900   23.3390   40.6590 C   0  0  0  0  0  0  0  0  0  0  0  0
   36.6110   24.4640   40.3660 C   0  0  0  0  0  0  0  0  0  0  0  0
   37.0780   25.5000   39.5600 C   0  0  0  0  0  0  0  0  0  0  0  0
   38.3350   25.3270   39.0900 N   0  0  0  0  0  0  0  0  0  0  0  0
   39.0820   24.2500   39.3700 C   0  0  0  0  0  0  0  0  0  0  0  0
   38.6160   23.2480   40.1560 N   0  0  0  0  0  0  0  0  0  0  0  0
   37.0210   22.5370   41.2860 H   0  0  0  0  0  0  0  0  0  0  0  0
   35.6100   24.5320   40.7800 H   0  0  0  0  0  0  0  0  0  0  0  0
   40.0780   24.2800   38.9010 H   0  0  0  0  0  0  0  0  0  0  0  0
   37.0270   27.9250   41.2020 C   0  0  0  0  0  0  0  0  0  0  0  0
   36.3710   27.6370   42.4050 C   0  0  0  0  0  0  0  0  0  0  0  0
   35.3180   27.3290   42.5000 H   0  0  0  0  0  0  0  0  0  0  0  0
   37.0300   27.7250   43.6140 C   0  0  0  0  0  3  0  0  0  0  0  0
   38.3610   28.1020   43.6800 C   0  0  0  0  0  0  0  0  0  0  0  0
   38.9650   28.2010   44.5720 H   0  0  0  0  0  0  0  0  0  0  0  0
   39.0270   28.3890   42.5070 C   0  0  0  0  0  0  0  0  0  0  0  0
   40.0820   28.6910   42.5070 H   0  0  0  0  0  0  0  0  0  0  0  0
   38.3530   28.2960   41.3070 C   0  0  0  0  0  3  0  0  0  0  0  0
  1  2  1  0  0  0  0
  2  3  1  0  0  0  0
  3 13  1  0  0  0  0
  3  4  2  0  0  0  0
  4 20  1  0  0  0  0
  5  4  1  0  0  0  0
  5  8  1  0  0  0  0
  6  5  2  0  0  0  0
  7  2  2  0  0  0  0
  7  6  1  0  0  0  0
  9  6  1  0  0  0  0
 10  7  1  0  0  0  0
 11 17  1  0  0  0  0
 12 11  1  0  0  0  0
 12 18  1  0  0  0  0
 13 12  2  0  0  0  0
 14 15  2  0  0  0  0
 14 13  1  0  0  0  0
 15 16  1  0  0  0  0
 16 11  2  0  0  0  0
 19 15  1  0  0  0  0
 20 28  2  0  0  0  0
 20 21  1  0  0  0  0
 21 22  1  0  0  0  0
 21 23  2  0  0  0  0
 23 24  1  0  0  0  0
 24 25  1  0  0  0  0
 26 27  1  0  0  0  0
 26 24  2  0  0  0  0
 28 26  1  0  0  0  0
M  END
>  <minimizedAffinity>
-4.9316783

$$$$
