
 OpenBabel03252509213D

 25 27  0  0  0  0  0  0  0  0999 V2000
   44.7860   35.5820   45.3820 C   0  0  0  0  0  0  0  0  0  0  0  0
   45.3540   36.0430   44.1510 C   0  0  0  0  0  0  0  0  0  0  0  0
   45.8360   35.0530   43.3200 C   0  0  0  0  0  0  0  0  0  0  0  0
   45.7660   33.7210   43.6670 N   0  0  0  0  0  0  0  0  0  0  0  0
   45.2180   33.3360   44.8430 C   0  0  0  0  0  0  0  0  0  0  0  0
   44.7300   34.2680   45.6980 N   0  0  0  0  0  0  0  0  0  0  0  0
   44.3620   36.1920   46.1600 H   0  0  0  0  0  0  0  0  0  0  0  0
   45.2380   32.2640   44.9640 H   0  0  0  0  0  0  0  0  0  0  0  0
   45.2870   37.4570   43.9790 C   0  0  0  0  0  0  0  0  0  0  0  0
   45.3030   38.2750   42.8770 C   0  0  0  0  0  0  0  0  0  0  0  0
   45.3400   37.7470   41.9390 H   0  0  0  0  0  0  0  0  0  0  0  0
   45.2540   39.6480   42.9800 C   0  0  0  0  0  3  0  0  0  0  0  0
   45.1860   40.2790   44.1830 C   0  0  0  0  0  0  0  0  0  0  0  0
   45.1500   41.3550   44.1870 H   0  0  0  0  0  0  0  0  0  0  0  0
   45.1660   39.5020   45.3220 C   0  0  0  0  0  0  0  0  0  0  0  0
   45.1110   40.0260   46.2620 H   0  0  0  0  0  0  0  0  0  0  0  0
   45.2160   38.1090   45.2160 C   0  0  0  0  0  3  0  0  0  0  0  0
   46.3690   35.4910   41.9790 C   0  0  0  0  0  0  0  0  0  0  0  0
   47.8920   35.2780   41.9040 C   0  0  0  0  0  0  0  0  0  0  0  0
   46.8450   34.4570   41.0890 C   0  0  0  0  0  0  0  0  0  0  0  0
   46.1810   36.5580   41.7300 H   0  0  0  0  0  0  0  0  0  0  0  0
   48.3930   34.7740   42.7240 H   0  0  0  0  0  0  0  0  0  0  0  0
   48.4710   35.9640   41.2660 H   0  0  0  0  0  0  0  0  0  0  0  0
   46.7720   33.4020   41.4360 H   0  0  0  0  0  0  0  0  0  0  0  0
   46.8530   34.6070   39.9840 H   0  0  0  0  0  0  0  0  0  0  0  0
  1  6  1  0  0  0  0
  1  7  1  0  0  0  0
  2  1  2  0  0  0  0
  3  4  2  0  0  0  0
  3  2  1  0  0  0  0
  4  5  1  0  0  0  0
  5  8  1  0  0  0  0
  5  6  2  0  0  0  0
  9  2  1  0  0  0  0
  9 17  1  0  0  0  0
 10 12  1  0  0  0  0
 10  9  2  0  0  0  0
 11 10  1  0  0  0  0
 12 13  2  0  0  0  0
 13 14  1  0  0  0  0
 13 15  1  0  0  0  0
 15 16  1  0  0  0  0
 17 15  2  0  0  0  0
 18  3  1  0  0  0  0
 19 18  1  0  0  0  0
 19 22  1  0  0  0  0
 20 24  1  0  0  0  0
 20 19  1  0  0  0  0
 20 18  1  0  0  0  0
 21 18  1  0  0  0  0
 23 19  1  0  0  0  0
 25 20  1  0  0  0  0
M  END
>  <minimizedAffinity>
-0.0481260084

>  <minimizedRMSD>
2.03612709

$$$$
