
 OpenBabel03242512383D

 34 37  0  0  0  0  0  0  0  0999 V2000
   47.6030   35.0800   42.0310 C   0  0  0  0  0  0  0  0  0  0  0  0
   48.7040   35.6900   42.0920 O   0  0  0  0  0  0  0  0  0  0  0  0
   46.1960   33.7000   40.4340 C   0  0  0  0  0  0  0  0  0  0  0  0
   47.3330   34.4440   40.7250 C   0  0  0  0  0  0  0  0  0  0  0  0
   48.2910   34.6090   39.7290 C   0  0  0  0  0  0  0  0  0  0  0  0
   48.1870   34.0810   38.4650 C   0  0  0  0  0  0  0  0  0  0  0  0
   48.9630   34.1060   37.3640 N   0  0  0  0  0  0  0  0  0  0  0  0
   48.3680   33.4100   36.3870 C   0  0  0  0  0  0  0  0  0  0  0  0
   47.1680   32.9200   36.8760 C   0  0  0  0  0  0  0  0  0  0  0  0
   47.0430   33.3390   38.1940 C   0  0  0  0  0  0  0  0  0  0  0  0
   46.0850   33.1630   39.1590 C   0  0  0  0  0  0  0  0  0  0  0  0
   45.4780   33.5920   41.2250 H   0  0  0  0  0  0  0  0  0  0  0  0
   49.2260   35.1830   39.8640 H   0  0  0  0  0  0  0  0  0  0  0  0
   49.8820   34.5850   37.2660 H   0  0  0  0  0  0  0  0  0  0  0  0
   48.6730   33.2030   35.3690 H   0  0  0  0  0  0  0  0  0  0  0  0
   46.3950   32.3180   36.4190 H   0  0  0  0  0  0  0  0  0  0  0  0
   45.1900   32.5940   38.9760 H   0  0  0  0  0  0  0  0  0  0  0  0
   46.6360   34.9610   43.0880 C   0  0  0  0  0  0  0  0  0  0  0  0
   45.5690   35.8450   43.0400 C   0  0  0  0  0  0  0  0  0  0  0  0
   44.6320   35.7090   44.0940 C   0  0  0  0  0  0  0  0  0  0  0  0
   44.8230   34.7520   45.0590 N   0  0  0  0  0  0  0  0  0  0  0  0
   45.8770   33.9420   45.0310 C   0  0  0  0  0  0  0  0  0  0  0  0
   46.7910   34.0380   44.0490 N   0  0  0  0  0  0  0  0  0  0  0  0
   45.4590   36.5790   42.2670 H   0  0  0  0  0  0  0  0  0  0  0  0
   43.7940   36.3940   44.0660 H   0  0  0  0  0  0  0  0  0  0  0  0
   46.0580   32.9330   46.0700 C   0  0  0  0  0  0  0  0  0  0  0  0
   46.9410   31.8830   45.8920 C   0  0  0  0  0  0  0  0  0  0  0  0
   47.4690   31.8760   44.9470 H   0  0  0  0  0  0  0  0  0  0  0  0
   47.0950   30.9400   46.8910 C   0  0  0  0  0  0  0  0  0  0  0  0
   46.3570   31.0650   48.0550 C   0  0  0  0  0  0  0  0  0  0  0  0
   46.5600   30.2690   48.7650 H   0  0  0  0  0  0  0  0  0  0  0  0
   45.4590   32.1090   48.2660 C   0  0  0  0  0  0  0  0  0  0  0  0
   44.9220   32.1320   49.2050 H   0  0  0  0  0  0  0  0  0  0  0  0
   45.3350   33.0330   47.2410 C   0  0  0  0  0  0  0  0  0  0  0  0
  1  2  2  0  0  0  0
  1 18  1  0  0  0  0
  3  4  1  0  0  0  0
  3 12  1  0  0  0  0
  4  1  1  0  0  0  0
  5 13  1  0  0  0  0
  5  4  2  0  0  0  0
  6  5  1  0  0  0  0
  7  6  1  0  0  0  0
  8  9  2  0  0  0  0
  8  7  1  0  0  0  0
  9 10  1  0  0  0  0
 10  6  2  0  0  0  0
 10 11  1  0  0  0  0
 11  3  2  0  0  0  0
 14  7  1  0  0  0  0
 15  8  1  0  0  0  0
 16  9  1  0  0  0  0
 17 11  1  0  0  0  0
 18 23  1  0  0  0  0
 19 18  2  0  0  0  0
 19 20  1  0  0  0  0
 20 21  2  0  0  0  0
 22 21  1  0  0  0  0
 22 26  1  0  0  0  0
 23 22  2  0  0  0  0
 24 19  1  0  0  0  0
 25 20  1  0  0  0  0
 26 34  1  0  0  0  0
 27 26  2  0  0  0  0
 27 29  1  0  0  0  0
 28 27  1  0  0  0  0
 29 30  2  0  0  0  0
 30 32  1  0  0  0  0
 30 31  1  0  0  0  0
 32 33  1  0  0  0  0
 34 32  2  0  0  0  0
M  END
>  <minimizedAffinity>
-6.6754508

>  <minimizedRMSD>
0.532338738

$$$$
