
 OpenBabel03242510273D

 18 19  0  0  0  0  0  0  0  0999 V2000
   44.4770   35.9850   44.7780 C   0  0  0  0  0  0  0  0  0  0  0  0
   45.1230   35.9320   43.5200 C   0  0  0  0  0  0  0  0  0  0  0  0
   45.9970   34.8780   43.2610 C   0  0  0  0  0  0  0  0  0  0  0  0
   46.1750   33.9560   44.2400 N   0  0  0  0  0  0  0  0  0  0  0  0
   45.5530   34.0140   45.4400 C   0  0  0  0  0  0  0  0  0  0  0  0
   44.6990   35.0340   45.7080 N   0  0  0  0  0  0  0  0  0  0  0  0
   43.8070   36.8230   44.9310 H   0  0  0  0  0  0  0  0  0  0  0  0
   44.9630   36.6670   42.7760 H   0  0  0  0  0  0  0  0  0  0  0  0
   45.7160   33.2610   46.2060 H   0  0  0  0  0  0  0  0  0  0  0  0
   46.7190   34.7190   42.0050 C   0  0  0  0  0  0  0  0  0  0  0  0
   47.9320   35.3630   41.8970 C   0  0  0  0  0  0  0  0  0  0  0  0
   48.4130   35.9860   42.6610 H   0  0  0  0  0  0  0  0  0  0  0  0
   48.6790   35.2660   40.7420 C   0  0  0  0  0  0  0  0  0  0  0  0
   48.1740   34.5040   39.7030 C   0  0  0  0  0  0  0  0  0  0  0  0
   48.7200   34.3860   38.7580 H   0  0  0  0  0  0  0  0  0  0  0  0
   46.9640   33.8370   39.7570 C   0  0  0  0  0  0  0  0  0  0  0  0
   46.6060   33.2540   38.9270 H   0  0  0  0  0  0  0  0  0  0  0  0
   46.2590   33.9800   40.9580 C   0  0  0  0  0  0  0  0  0  0  0  0
  1  7  1  0  0  0  0
  1  6  1  0  0  0  0
  2  1  2  0  0  0  0
  3  2  1  0  0  0  0
  3  4  2  0  0  0  0
  4  5  1  0  0  0  0
  5  6  2  0  0  0  0
  5  9  1  0  0  0  0
  8  2  1  0  0  0  0
 10  3  1  0  0  0  0
 11 10  1  0  0  0  0
 11 12  1  0  0  0  0
 13 11  2  0  0  0  0
 14 16  2  0  0  0  0
 14 13  1  0  0  0  0
 15 14  1  0  0  0  0
 16 18  1  0  0  0  0
 17 16  1  0  0  0  0
 18 10  2  0  0  0  0
M  END
>  <minimizedAffinity>
-4.96724463

>  <minimizedRMSD>
1.1097914

$$$$
