
 OpenBabel03242516273D

 43 47  0  0  0  0  0  0  0  0999 V2000
   36.1420   26.6640   39.3170 C   0  0  0  0  0  0  0  0  0  0  0  0
   35.4660   26.5480   38.1460 N   0  0  0  0  0  0  0  0  0  0  0  0
   35.3050   25.3860   37.5030 C   0  0  0  0  0  0  0  0  0  0  0  0
   35.8550   24.2820   38.0690 N   0  0  0  0  0  0  0  0  0  0  0  0
   36.5370   24.3160   39.2230 C   0  0  0  0  0  0  0  0  0  0  0  0
   37.1060   23.1750   39.7880 C   0  0  0  0  0  0  0  0  0  0  0  0
   37.8080   23.2650   40.9740 C   0  0  0  0  0  0  0  0  0  0  0  0
   37.9710   24.4880   41.6390 C   0  0  0  0  0  0  0  0  0  0  0  0
   37.3900   25.5780   41.0370 C   0  0  0  0  0  0  0  0  0  0  0  0
   36.6880   25.5160   39.8600 C   0  0  0  0  0  0  0  0  0  0  0  0
   34.7660   25.3240   36.5780 H   0  0  0  0  0  0  0  0  0  0  0  0
   36.9560   22.2520   39.2450 H   0  0  0  0  0  0  0  0  0  0  0  0
   38.1950   22.3110   41.3020 H   0  0  0  0  0  0  0  0  0  0  0  0
   38.5390   24.4400   42.5560 H   0  0  0  0  0  0  0  0  0  0  0  0
   37.6240   26.7630   41.8520 C   0  0  0  0  0  0  0  0  0  0  0  0
   38.8170   27.4540   41.5980 C   0  0  0  0  0  0  0  0  0  0  0  0
   39.5450   27.1970   40.8500 H   0  0  0  0  0  0  0  0  0  0  0  0
   39.1160   28.5610   42.3450 C   0  0  0  0  0  3  0  0  0  0  0  0
   38.2810   29.0190   43.3440 C   0  0  0  0  0  0  0  0  0  0  0  0
   38.4500   29.8870   43.9780 H   0  0  0  0  0  0  0  0  0  0  0  0
   37.0980   28.3450   43.6070 C   0  0  0  0  0  0  0  0  0  0  0  0
   36.3410   28.5830   44.3580 H   0  0  0  0  0  0  0  0  0  0  0  0
   36.7720   27.2270   42.8680 C   0  0  0  0  0  3  0  0  0  0  0  0
   36.3670   28.1910   40.1870 S   0  0  0  0  0  0  0  0  0  0  0  0
   37.9850   31.5830   38.7470 C   0  0  0  0  0  0  0  0  0  0  0  0
   37.5560   30.5640   39.5700 C   0  0  0  0  0  0  0  0  0  0  0  0
   36.8980   29.4620   39.0660 C   0  0  0  0  0  0  0  0  0  0  0  0
   36.6540   29.3600   37.7030 C   0  0  0  0  0  0  0  0  0  0  0  0
   37.0680   30.3530   36.8770 C   0  0  0  0  0  0  0  0  0  0  0  0
   37.7210   31.4380   37.4090 C   0  0  0  0  0  0  0  0  0  0  0  0
   37.7490   30.6510   40.6300 H   0  0  0  0  0  0  0  0  0  0  0  0
   36.1340   28.4880   37.3160 H   0  0  0  0  0  0  0  0  0  0  0  0
   36.8880   30.2980   35.7950 H   0  0  0  0  0  0  0  0  0  0  0  0
   38.0480   32.2270   36.7400 H   0  0  0  0  0  0  0  0  0  0  0  0
   40.7490   33.7860   39.6850 C   0  0  0  0  0  0  0  0  0  0  0  0
   40.1090   34.8760   40.3090 C   0  0  0  0  0  0  0  0  0  0  0  0
   38.7130   34.8460   40.4030 C   0  0  0  0  0  0  0  0  0  0  0  0
   38.0090   33.7920   39.9060 N   0  0  0  0  0  0  0  0  0  0  0  0
   38.6840   32.7480   39.3040 C   0  0  0  0  0  0  0  0  0  0  0  0
   40.0340   32.7520   39.1990 N   0  0  0  0  0  0  0  0  0  0  0  0
   41.8250   33.7660   39.5900 H   0  0  0  0  0  0  0  0  0  0  0  0
   40.7030   35.6930   40.6910 H   0  0  0  0  0  0  0  0  0  0  0  0
   38.1900   35.6690   40.8770 H   0  0  0  0  0  0  0  0  0  0  0  0
  1 10  1  0  0  0  0
  1 24  1  0  0  0  0
  2  1  2  0  0  0  0
  3  4  2  0  0  0  0
  3  2  1  0  0  0  0
  4  5  1  0  0  0  0
  5  6  2  0  0  0  0
  5 10  1  0  0  0  0
  6  7  1  0  0  0  0
  7 13  1  0  0  0  0
  7  8  2  0  0  0  0
  8 14  1  0  0  0  0
  9  8  1  0  0  0  0
  9 15  1  0  0  0  0
 10  9  2  0  0  0  0
 11  3  1  0  0  0  0
 12  6  1  0  0  0  0
 15 23  1  0  0  0  0
 16 15  2  0  0  0  0
 16 18  1  0  0  0  0
 17 16  1  0  0  0  0
 18 19  2  0  0  0  0
 19 21  1  0  0  0  0
 19 20  1  0  0  0  0
 21 22  1  0  0  0  0
 23 21  2  0  0  0  0
 25 39  1  0  0  0  0
 25 26  1  0  0  0  0
 26 31  1  0  0  0  0
 27 26  2  0  0  0  0
 27 24  1  0  0  0  0
 28 27  1  0  0  0  0
 29 30  1  0  0  0  0
 29 28  2  0  0  0  0
 30 25  2  0  0  0  0
 32 28  1  0  0  0  0
 33 29  1  0  0  0  0
 34 30  1  0  0  0  0
 35 36  1  0  0  0  0
 36 37  2  0  0  0  0
 36 42  1  0  0  0  0
 37 43  1  0  0  0  0
 38 37  1  0  0  0  0
 39 38  2  0  0  0  0
 40 39  1  0  0  0  0
 40 35  2  0  0  0  0
 41 35  1  0  0  0  0
M  END
>  <minimizedAffinity>
-7.11828566

$$$$

 OpenBabel03242516273D

 43 47  0  0  0  0  0  0  0  0999 V2000
   37.4870   27.1270   39.0760 C   0  0  0  0  0  0  0  0  0  0  0  0
   37.3090   27.5750   37.8070 N   0  0  0  0  0  0  0  0  0  0  0  0
   36.6000   26.9110   36.8880 C   0  0  0  0  0  0  0  0  0  0  0  0
   36.0420   25.7330   37.2650 N   0  0  0  0  0  0  0  0  0  0  0  0
   36.1730   25.2250   38.5000 C   0  0  0  0  0  0  0  0  0  0  0  0
   35.6020   24.0090   38.8720 C   0  0  0  0  0  0  0  0  0  0  0  0
   35.7750   23.5240   40.1530 C   0  0  0  0  0  0  0  0  0  0  0  0
   36.5200   24.2280   41.1090 C   0  0  0  0  0  0  0  0  0  0  0  0
   37.0590   25.4200   40.6880 C   0  0  0  0  0  0  0  0  0  0  0  0
   36.9020   25.9240   39.4220 C   0  0  0  0  0  0  0  0  0  0  0  0
   36.4770   27.2880   35.8910 H   0  0  0  0  0  0  0  0  0  0  0  0
   35.0330   23.4980   38.1060 H   0  0  0  0  0  0  0  0  0  0  0  0
   35.2820   22.5750   40.3100 H   0  0  0  0  0  0  0  0  0  0  0  0
   36.5900   23.7550   42.0770 H   0  0  0  0  0  0  0  0  0  0  0  0
   37.7810   26.0410   41.7900 C   0  0  0  0  0  0  0  0  0  0  0  0
   39.0960   25.5960   41.9890 C   0  0  0  0  0  0  0  0  0  0  0  0
   39.6080   24.8650   41.3910 H   0  0  0  0  0  0  0  0  0  0  0  0
   39.8240   26.1150   43.0250 C   0  0  0  0  0  3  0  0  0  0  0  0
   39.3050   27.0650   43.8830 C   0  0  0  0  0  0  0  0  0  0  0  0
   39.8200   27.5220   44.7250 H   0  0  0  0  0  0  0  0  0  0  0  0
   38.0060   27.5140   43.6990 C   0  0  0  0  0  0  0  0  0  0  0  0
   37.4610   28.2540   44.2890 H   0  0  0  0  0  0  0  0  0  0  0  0
   37.2500   27.0070   42.6620 C   0  0  0  0  0  3  0  0  0  0  0  0
   38.4200   27.9900   40.3110 S   0  0  0  0  0  0  0  0  0  0  0  0
   38.8070   31.9560   39.7500 C   0  0  0  0  0  0  0  0  0  0  0  0
   39.0320   30.5980   39.8110 C   0  0  0  0  0  0  0  0  0  0  0  0
   38.0570   29.7270   40.2520 C   0  0  0  0  0  0  0  0  0  0  0  0
   36.8170   30.2110   40.6450 C   0  0  0  0  0  0  0  0  0  0  0  0
   36.5770   31.5450   40.5920 C   0  0  0  0  0  0  0  0  0  0  0  0
   37.5680   32.3870   40.1500 C   0  0  0  0  0  0  0  0  0  0  0  0
   40.0000   30.2280   39.5040 H   0  0  0  0  0  0  0  0  0  0  0  0
   36.0560   29.5180   40.9900 H   0  0  0  0  0  0  0  0  0  0  0  0
   35.6050   31.9560   40.8970 H   0  0  0  0  0  0  0  0  0  0  0  0
   37.3660   33.4520   40.1110 H   0  0  0  0  0  0  0  0  0  0  0  0
   40.9570   34.9100   39.5990 C   0  0  0  0  0  0  0  0  0  0  0  0
   41.7950   34.6550   38.4940 C   0  0  0  0  0  0  0  0  0  0  0  0
   41.6120   33.4540   37.8000 C   0  0  0  0  0  0  0  0  0  0  0  0
   40.6530   32.5700   38.1880 N   0  0  0  0  0  0  0  0  0  0  0  0
   39.8580   32.8660   39.2790 C   0  0  0  0  0  0  0  0  0  0  0  0
   40.0140   34.0210   39.9680 N   0  0  0  0  0  0  0  0  0  0  0  0
   41.0630   35.8240   40.1650 H   0  0  0  0  0  0  0  0  0  0  0  0
   42.5450   35.3820   38.2170 H   0  0  0  0  0  0  0  0  0  0  0  0
   42.2400   33.2290   36.9450 H   0  0  0  0  0  0  0  0  0  0  0  0
  1 10  1  0  0  0  0
  1 24  1  0  0  0  0
  2  1  2  0  0  0  0
  3  4  2  0  0  0  0
  3  2  1  0  0  0  0
  4  5  1  0  0  0  0
  5  6  2  0  0  0  0
  5 10  1  0  0  0  0
  6  7  1  0  0  0  0
  7 13  1  0  0  0  0
  7  8  2  0  0  0  0
  8 14  1  0  0  0  0
  9  8  1  0  0  0  0
  9 15  1  0  0  0  0
 10  9  2  0  0  0  0
 11  3  1  0  0  0  0
 12  6  1  0  0  0  0
 15 16  2  0  0  0  0
 15 23  1  0  0  0  0
 16 18  1  0  0  0  0
 17 16  1  0  0  0  0
 18 19  2  0  0  0  0
 19 20  1  0  0  0  0
 21 19  1  0  0  0  0
 21 22  1  0  0  0  0
 23 21  2  0  0  0  0
 25 26  2  0  0  0  0
 25 30  1  0  0  0  0
 26 27  1  0  0  0  0
 27 24  1  0  0  0  0
 27 28  2  0  0  0  0
 28 32  1  0  0  0  0
 29 28  1  0  0  0  0
 29 33  1  0  0  0  0
 30 29  2  0  0  0  0
 31 26  1  0  0  0  0
 34 30  1  0  0  0  0
 35 40  1  0  0  0  0
 35 41  1  0  0  0  0
 36 35  2  0  0  0  0
 37 38  2  0  0  0  0
 37 36  1  0  0  0  0
 38 39  1  0  0  0  0
 39 25  1  0  0  0  0
 39 40  2  0  0  0  0
 42 36  1  0  0  0  0
 43 37  1  0  0  0  0
M  END
>  <minimizedAffinity>
-6.78215456

$$$$

 OpenBabel03242516273D

 43 47  0  0  0  0  0  0  0  0999 V2000
   36.8370   28.8870   41.4720 C   0  0  0  0  0  0  0  0  0  0  0  0
   37.1040   29.2800   42.7430 N   0  0  0  0  0  0  0  0  0  0  0  0
   37.3870   28.4240   43.7320 C   0  0  0  0  0  0  0  0  0  0  0  0
   37.4010   27.1030   43.4240 N   0  0  0  0  0  0  0  0  0  0  0  0
   37.1470   26.6370   42.1920 C   0  0  0  0  0  0  0  0  0  0  0  0
   37.1550   25.2760   41.8930 C   0  0  0  0  0  0  0  0  0  0  0  0
   36.8770   24.8460   40.6100 C   0  0  0  0  0  0  0  0  0  0  0  0
   36.5810   25.7520   39.5820 C   0  0  0  0  0  0  0  0  0  0  0  0
   36.5880   27.0790   39.9340 C   0  0  0  0  0  0  0  0  0  0  0  0
   36.8610   27.5320   41.2000 C   0  0  0  0  0  0  0  0  0  0  0  0
   37.5940   28.7640   44.7280 H   0  0  0  0  0  0  0  0  0  0  0  0
   37.3890   24.6100   42.7140 H   0  0  0  0  0  0  0  0  0  0  0  0
   36.9160   23.7700   40.5130 H   0  0  0  0  0  0  0  0  0  0  0  0
   36.3790   25.3040   38.6200 H   0  0  0  0  0  0  0  0  0  0  0  0
   36.2870   27.8920   38.7630 C   0  0  0  0  0  0  0  0  0  0  0  0
   34.9270   28.0870   38.4860 C   0  0  0  0  0  0  0  0  0  0  0  0
   34.1070   27.7110   39.0700 H   0  0  0  0  0  0  0  0  0  0  0  0
   34.5710   28.8170   37.3840 C   0  0  0  0  0  3  0  0  0  0  0  0
   35.5090   29.3680   36.5350 C   0  0  0  0  0  0  0  0  0  0  0  0
   35.3030   29.9560   35.6430 H   0  0  0  0  0  0  0  0  0  0  0  0
   36.8580   29.1830   36.7950 C   0  0  0  0  0  0  0  0  0  0  0  0
   37.7110   29.5520   36.2210 H   0  0  0  0  0  0  0  0  0  0  0  0
   37.2450   28.4510   37.8990 C   0  0  0  0  0  3  0  0  0  0  0  0
   36.4620   30.0010   40.1470 S   0  0  0  0  0  0  0  0  0  0  0  0
   39.6150   32.3850   40.9010 C   0  0  0  0  0  0  0  0  0  0  0  0
   38.7610   31.3080   40.8050 C   0  0  0  0  0  0  0  0  0  0  0  0
   37.5130   31.4300   40.2300 C   0  0  0  0  0  0  0  0  0  0  0  0
   37.0930   32.6550   39.7320 C   0  0  0  0  0  0  0  0  0  0  0  0
   37.9200   33.7270   39.8190 C   0  0  0  0  0  0  0  0  0  0  0  0
   39.1560   33.5750   40.3970 C   0  0  0  0  0  0  0  0  0  0  0  0
   39.0940   30.3560   41.1950 H   0  0  0  0  0  0  0  0  0  0  0  0
   36.1080   32.7420   39.2820 H   0  0  0  0  0  0  0  0  0  0  0  0
   37.6130   34.7080   39.4330 H   0  0  0  0  0  0  0  0  0  0  0  0
   39.8100   34.4370   40.4610 H   0  0  0  0  0  0  0  0  0  0  0  0
   42.2470   31.0630   43.0690 C   0  0  0  0  0  0  0  0  0  0  0  0
   43.3710   31.8510   42.7460 C   0  0  0  0  0  0  0  0  0  0  0  0
   43.2140   32.8440   41.7730 C   0  0  0  0  0  0  0  0  0  0  0  0
   42.0100   33.0330   41.1660 N   0  0  0  0  0  0  0  0  0  0  0  0
   40.9390   32.2340   41.5180 C   0  0  0  0  0  0  0  0  0  0  0  0
   41.0640   31.2660   42.4560 N   0  0  0  0  0  0  0  0  0  0  0  0
   42.3220   30.2850   43.8140 H   0  0  0  0  0  0  0  0  0  0  0  0
   44.3090   31.6710   43.2510 H   0  0  0  0  0  0  0  0  0  0  0  0
   44.0590   33.4680   41.5020 H   0  0  0  0  0  0  0  0  0  0  0  0
  1  2  1  0  0  0  0
  2  3  2  0  0  0  0
  3 11  1  0  0  0  0
  4  3  1  0  0  0  0
  5  4  2  0  0  0  0
  6  5  1  0  0  0  0
  6 12  1  0  0  0  0
  7  6  2  0  0  0  0
  8  9  2  0  0  0  0
  8  7  1  0  0  0  0
  9 10  1  0  0  0  0
 10  1  2  0  0  0  0
 10  5  1  0  0  0  0
 13  7  1  0  0  0  0
 14  8  1  0  0  0  0
 15  9  1  0  0  0  0
 16 15  1  0  0  0  0
 16 17  1  0  0  0  0
 18 16  2  0  0  0  0
 19 21  2  0  0  0  0
 19 18  1  0  0  0  0
 20 19  1  0  0  0  0
 21 23  1  0  0  0  0
 22 21  1  0  0  0  0
 23 15  2  0  0  0  0
 24 27  1  0  0  0  0
 24  1  1  0  0  0  0
 25 39  1  0  0  0  0
 26 25  1  0  0  0  0
 26 31  1  0  0  0  0
 27 26  2  0  0  0  0
 28 29  2  0  0  0  0
 28 27  1  0  0  0  0
 29 30  1  0  0  0  0
 30 34  1  0  0  0  0
 30 25  2  0  0  0  0
 32 28  1  0  0  0  0
 33 29  1  0  0  0  0
 35 41  1  0  0  0  0
 36 35  1  0  0  0  0
 36 42  1  0  0  0  0
 37 36  2  0  0  0  0
 38 39  2  0  0  0  0
 38 37  1  0  0  0  0
 39 40  1  0  0  0  0
 40 35  2  0  0  0  0
 43 37  1  0  0  0  0
M  END
>  <minimizedAffinity>
-6.67734861

$$$$

 OpenBabel03242516273D

 43 47  0  0  0  0  0  0  0  0999 V2000
   36.1550   27.0710   39.4860 C   0  0  0  0  0  0  0  0  0  0  0  0
   35.6180   27.2120   38.2470 N   0  0  0  0  0  0  0  0  0  0  0  0
   35.4920   26.1980   37.3830 C   0  0  0  0  0  0  0  0  0  0  0  0
   35.9310   24.9800   37.7860 N   0  0  0  0  0  0  0  0  0  0  0  0
   36.4730   24.7610   38.9940 C   0  0  0  0  0  0  0  0  0  0  0  0
   36.9290   23.5050   39.3910 C   0  0  0  0  0  0  0  0  0  0  0  0
   37.4890   23.3350   40.6420 C   0  0  0  0  0  0  0  0  0  0  0  0
   37.6160   24.4040   41.5400 C   0  0  0  0  0  0  0  0  0  0  0  0
   37.1500   25.6170   41.0950 C   0  0  0  0  0  0  0  0  0  0  0  0
   36.5900   25.8130   39.8590 C   0  0  0  0  0  0  0  0  0  0  0  0
   35.0650   26.3390   36.4090 H   0  0  0  0  0  0  0  0  0  0  0  0
   36.8110   22.7070   38.6700 H   0  0  0  0  0  0  0  0  0  0  0  0
   37.8000   22.3160   40.8240 H   0  0  0  0  0  0  0  0  0  0  0  0
   38.0690   24.1550   42.4880 H   0  0  0  0  0  0  0  0  0  0  0  0
   37.3300   26.6160   42.1400 C   0  0  0  0  0  0  0  0  0  0  0  0
   38.5720   27.2660   42.1590 C   0  0  0  0  0  0  0  0  0  0  0  0
   39.3750   27.1040   41.4650 H   0  0  0  0  0  0  0  0  0  0  0  0
   38.8200   28.1970   43.1310 C   0  0  0  0  0  3  0  0  0  0  0  0
   37.8870   28.5170   44.0960 C   0  0  0  0  0  0  0  0  0  0  0  0
   38.0110   29.2420   44.8970 H   0  0  0  0  0  0  0  0  0  0  0  0
   36.6540   27.8820   44.0910 C   0  0  0  0  0  0  0  0  0  0  0  0
   35.8200   28.0270   44.7810 H   0  0  0  0  0  0  0  0  0  0  0  0
   36.3770   26.9400   43.1220 C   0  0  0  0  0  3  0  0  0  0  0  0
   36.3310   28.3960   40.6480 S   0  0  0  0  0  0  0  0  0  0  0  0
   38.9110   30.6690   38.5560 C   0  0  0  0  0  0  0  0  0  0  0  0
   38.2730   29.6160   39.1750 C   0  0  0  0  0  0  0  0  0  0  0  0
   37.0950   29.7980   39.8690 C   0  0  0  0  0  0  0  0  0  0  0  0
   36.5260   31.0610   39.9550 C   0  0  0  0  0  0  0  0  0  0  0  0
   37.1400   32.1090   39.3530 C   0  0  0  0  0  0  0  0  0  0  0  0
   38.3120   31.8970   38.6700 C   0  0  0  0  0  0  0  0  0  0  0  0
   38.7210   28.6350   39.1040 H   0  0  0  0  0  0  0  0  0  0  0  0
   35.5980   31.1940   40.5040 H   0  0  0  0  0  0  0  0  0  0  0  0
   36.7120   33.1190   39.4060 H   0  0  0  0  0  0  0  0  0  0  0  0
   38.7960   32.7420   38.1920 H   0  0  0  0  0  0  0  0  0  0  0  0
   42.0680   31.4420   36.8800 C   0  0  0  0  0  0  0  0  0  0  0  0
   42.5360   30.1820   36.4540 C   0  0  0  0  0  0  0  0  0  0  0  0
   41.7520   29.0610   36.7490 C   0  0  0  0  0  0  0  0  0  0  0  0
   40.5790   29.1970   37.4260 N   0  0  0  0  0  0  0  0  0  0  0  0
   40.1650   30.4540   37.8230 C   0  0  0  0  0  0  0  0  0  0  0  0
   40.9040   31.5540   37.5500 N   0  0  0  0  0  0  0  0  0  0  0  0
   42.6400   32.3350   36.6740 H   0  0  0  0  0  0  0  0  0  0  0  0
   43.4720   30.1170   35.9190 H   0  0  0  0  0  0  0  0  0  0  0  0
   42.0840   28.0780   36.4350 H   0  0  0  0  0  0  0  0  0  0  0  0
  1 10  1  0  0  0  0
  1 24  1  0  0  0  0
  2  1  2  0  0  0  0
  3  4  2  0  0  0  0
  3  2  1  0  0  0  0
  4  5  1  0  0  0  0
  5  6  2  0  0  0  0
  5 10  1  0  0  0  0
  6  7  1  0  0  0  0
  7 13  1  0  0  0  0
  7  8  2  0  0  0  0
  8 14  1  0  0  0  0
  9  8  1  0  0  0  0
  9 15  1  0  0  0  0
 10  9  2  0  0  0  0
 11  3  1  0  0  0  0
 12  6  1  0  0  0  0
 15 16  2  0  0  0  0
 15 23  1  0  0  0  0
 16 18  1  0  0  0  0
 17 16  1  0  0  0  0
 18 19  2  0  0  0  0
 19 20  1  0  0  0  0
 21 19  1  0  0  0  0
 21 22  1  0  0  0  0
 23 21  2  0  0  0  0
 25 30  2  0  0  0  0
 25 26  1  0  0  0  0
 26 27  2  0  0  0  0
 27 28  1  0  0  0  0
 27 24  1  0  0  0  0
 28 32  1  0  0  0  0
 29 33  1  0  0  0  0
 29 28  2  0  0  0  0
 30 29  1  0  0  0  0
 31 26  1  0  0  0  0
 34 30  1  0  0  0  0
 35 40  1  0  0  0  0
 36 37  1  0  0  0  0
 36 35  2  0  0  0  0
 37 38  2  0  0  0  0
 38 39  1  0  0  0  0
 39 25  1  0  0  0  0
 40 39  2  0  0  0  0
 41 35  1  0  0  0  0
 42 36  1  0  0  0  0
 43 37  1  0  0  0  0
M  END
>  <minimizedAffinity>
-6.62380838

$$$$

 OpenBabel03242516273D

 43 47  0  0  0  0  0  0  0  0999 V2000
   36.9940   29.0240   41.2360 C   0  0  0  0  0  0  0  0  0  0  0  0
   37.3270   29.5000   42.4620 N   0  0  0  0  0  0  0  0  0  0  0  0
   37.6080   28.7110   43.5040 C   0  0  0  0  0  0  0  0  0  0  0  0
   37.5490   27.3700   43.3020 N   0  0  0  0  0  0  0  0  0  0  0  0
   37.2280   26.8240   42.1200 C   0  0  0  0  0  0  0  0  0  0  0  0
   37.1620   25.4440   41.9290 C   0  0  0  0  0  0  0  0  0  0  0  0
   36.8150   24.9310   40.6940 C   0  0  0  0  0  0  0  0  0  0  0  0
   36.5220   25.7680   39.6090 C   0  0  0  0  0  0  0  0  0  0  0  0
   36.6040   27.1170   39.8550 C   0  0  0  0  0  0  0  0  0  0  0  0
   36.9450   27.6520   41.0710 C   0  0  0  0  0  0  0  0  0  0  0  0
   37.8680   29.1150   44.4640 H   0  0  0  0  0  0  0  0  0  0  0  0
   37.3960   24.8340   42.7910 H   0  0  0  0  0  0  0  0  0  0  0  0
   36.8020   23.8500   40.6810 H   0  0  0  0  0  0  0  0  0  0  0  0
   36.2630   25.2580   38.6930 H   0  0  0  0  0  0  0  0  0  0  0  0
   36.2960   27.8510   38.6340 C   0  0  0  0  0  0  0  0  0  0  0  0
   34.9410   28.1440   38.4210 C   0  0  0  0  0  0  0  0  0  0  0  0
   34.1340   27.8950   39.0850 H   0  0  0  0  0  0  0  0  0  0  0  0
   34.5760   28.8060   37.2810 C   0  0  0  0  0  3  0  0  0  0  0  0
   35.4990   29.1950   36.3310 C   0  0  0  0  0  0  0  0  0  0  0  0
   35.2850   29.7210   35.4030 H   0  0  0  0  0  0  0  0  0  0  0  0
   36.8420   28.9110   36.5270 C   0  0  0  0  0  0  0  0  0  0  0  0
   37.6830   29.1510   35.8720 H   0  0  0  0  0  0  0  0  0  0  0  0
   37.2370   28.2450   37.6680 C   0  0  0  0  0  3  0  0  0  0  0  0
   36.6190   30.0490   39.8400 S   0  0  0  0  0  0  0  0  0  0  0  0
   39.9140   32.1590   38.8990 C   0  0  0  0  0  0  0  0  0  0  0  0
   38.9650   31.1670   39.0200 C   0  0  0  0  0  0  0  0  0  0  0  0
   37.7950   31.3750   39.7200 C   0  0  0  0  0  0  0  0  0  0  0  0
   37.5520   32.6010   40.3230 C   0  0  0  0  0  0  0  0  0  0  0  0
   38.4750   33.5890   40.2160 C   0  0  0  0  0  0  0  0  0  0  0  0
   39.6300   33.3530   39.5120 C   0  0  0  0  0  0  0  0  0  0  0  0
   39.1600   30.2150   38.5480 H   0  0  0  0  0  0  0  0  0  0  0  0
   36.6280   32.7540   40.8730 H   0  0  0  0  0  0  0  0  0  0  0  0
   38.3090   34.5690   40.6830 H   0  0  0  0  0  0  0  0  0  0  0  0
   40.3630   34.1490   39.4320 H   0  0  0  0  0  0  0  0  0  0  0  0
   42.3170   30.4770   36.7150 C   0  0  0  0  0  0  0  0  0  0  0  0
   43.4230   31.3520   36.7010 C   0  0  0  0  0  0  0  0  0  0  0  0
   43.3330   32.5290   37.4520 C   0  0  0  0  0  0  0  0  0  0  0  0
   42.2100   32.8080   38.1680 N   0  0  0  0  0  0  0  0  0  0  0  0
   41.1540   31.9180   38.1490 C   0  0  0  0  0  0  0  0  0  0  0  0
   41.2140   30.7720   37.4310 N   0  0  0  0  0  0  0  0  0  0  0  0
   42.3420   29.5560   36.1510 H   0  0  0  0  0  0  0  0  0  0  0  0
   44.2960   31.0940   36.1190 H   0  0  0  0  0  0  0  0  0  0  0  0
   44.1660   33.2230   37.4610 H   0  0  0  0  0  0  0  0  0  0  0  0
  1  2  1  0  0  0  0
  2  3  2  0  0  0  0
  3 11  1  0  0  0  0
  4  3  1  0  0  0  0
  5  4  2  0  0  0  0
  6  5  1  0  0  0  0
  6 12  1  0  0  0  0
  7  6  2  0  0  0  0
  8  9  2  0  0  0  0
  8  7  1  0  0  0  0
  9 10  1  0  0  0  0
 10  1  2  0  0  0  0
 10  5  1  0  0  0  0
 13  7  1  0  0  0  0
 14  8  1  0  0  0  0
 15  9  1  0  0  0  0
 16 15  1  0  0  0  0
 16 17  1  0  0  0  0
 18 16  2  0  0  0  0
 19 21  2  0  0  0  0
 19 18  1  0  0  0  0
 20 19  1  0  0  0  0
 21 23  1  0  0  0  0
 22 21  1  0  0  0  0
 23 15  2  0  0  0  0
 24  1  1  0  0  0  0
 25 26  2  0  0  0  0
 25 30  1  0  0  0  0
 26 27  1  0  0  0  0
 27 24  1  0  0  0  0
 27 28  2  0  0  0  0
 28 32  1  0  0  0  0
 29 28  1  0  0  0  0
 29 33  1  0  0  0  0
 30 29  2  0  0  0  0
 31 26  1  0  0  0  0
 34 30  1  0  0  0  0
 35 40  1  0  0  0  0
 36 35  2  0  0  0  0
 36 37  1  0  0  0  0
 37 43  1  0  0  0  0
 37 38  2  0  0  0  0
 39 38  1  0  0  0  0
 39 25  1  0  0  0  0
 40 39  2  0  0  0  0
 41 35  1  0  0  0  0
 42 36  1  0  0  0  0
M  END
>  <minimizedAffinity>
-6.60254908

$$$$

 OpenBabel03242516273D

 43 47  0  0  0  0  0  0  0  0999 V2000
   37.0390   30.5950   40.3540 C   0  0  0  0  0  0  0  0  0  0  0  0
   36.6180   31.5610   39.5000 N   0  0  0  0  0  0  0  0  0  0  0  0
   37.3340   32.6570   39.2230 C   0  0  0  0  0  0  0  0  0  0  0  0
   38.5350   32.7880   39.8400 N   0  0  0  0  0  0  0  0  0  0  0  0
   39.0180   31.8760   40.6970 C   0  0  0  0  0  0  0  0  0  0  0  0
   40.2500   32.0280   41.3310 C   0  0  0  0  0  0  0  0  0  0  0  0
   40.6990   31.0650   42.2140 C   0  0  0  0  0  0  0  0  0  0  0  0
   39.9410   29.9200   42.4970 C   0  0  0  0  0  0  0  0  0  0  0  0
   38.7370   29.8230   41.8430 C   0  0  0  0  0  0  0  0  0  0  0  0
   38.2690   30.7650   40.9630 C   0  0  0  0  0  0  0  0  0  0  0  0
   36.9760   33.4060   38.5430 H   0  0  0  0  0  0  0  0  0  0  0  0
   40.8040   32.9240   41.0850 H   0  0  0  0  0  0  0  0  0  0  0  0
   41.6660   31.3030   42.6350 H   0  0  0  0  0  0  0  0  0  0  0  0
   40.3890   29.2360   43.2020 H   0  0  0  0  0  0  0  0  0  0  0  0
   38.0800   28.5790   42.2210 C   0  0  0  0  0  0  0  0  0  0  0  0
   37.2650   28.6370   43.3600 C   0  0  0  0  0  0  0  0  0  0  0  0
   37.0730   29.5140   43.9500 H   0  0  0  0  0  0  0  0  0  0  0  0
   36.6400   27.4980   43.7890 C   0  0  0  0  0  3  0  0  0  0  0  0
   36.7860   26.2910   43.1360 C   0  0  0  0  0  0  0  0  0  0  0  0
   36.3230   25.3470   43.4170 H   0  0  0  0  0  0  0  0  0  0  0  0
   37.5900   26.2170   42.0080 C   0  0  0  0  0  0  0  0  0  0  0  0
   37.8020   25.3420   41.3900 H   0  0  0  0  0  0  0  0  0  0  0  0
   38.2310   27.3500   41.5540 C   0  0  0  0  0  3  0  0  0  0  0  0
   36.1110   29.1340   40.7350 S   0  0  0  0  0  0  0  0  0  0  0  0
   33.9710   28.4970   37.3870 C   0  0  0  0  0  0  0  0  0  0  0  0
   34.4890   29.0310   38.5470 C   0  0  0  0  0  0  0  0  0  0  0  0
   35.4950   28.3930   39.2440 C   0  0  0  0  0  0  0  0  0  0  0  0
   36.0070   27.1890   38.7810 C   0  0  0  0  0  0  0  0  0  0  0  0
   35.5080   26.6480   37.6420 C   0  0  0  0  0  0  0  0  0  0  0  0
   34.5070   27.3060   36.9710 C   0  0  0  0  0  0  0  0  0  0  0  0
   34.0860   29.9690   38.9020 H   0  0  0  0  0  0  0  0  0  0  0  0
   36.7980   26.6940   39.3370 H   0  0  0  0  0  0  0  0  0  0  0  0
   35.8940   25.6960   37.2530 H   0  0  0  0  0  0  0  0  0  0  0  0
   34.1140   26.8660   36.0600 H   0  0  0  0  0  0  0  0  0  0  0  0
   30.8200   30.2600   36.8040 C   0  0  0  0  0  0  0  0  0  0  0  0
   30.8290   30.5070   35.4160 C   0  0  0  0  0  0  0  0  0  0  0  0
   31.9330   30.0600   34.6810 C   0  0  0  0  0  0  0  0  0  0  0  0
   32.9560   29.4090   35.2980 N   0  0  0  0  0  0  0  0  0  0  0  0
   32.9000   29.1920   36.6610 C   0  0  0  0  0  0  0  0  0  0  0  0
   31.8440   29.6140   37.3950 N   0  0  0  0  0  0  0  0  0  0  0  0
   29.9880   30.5860   37.4110 H   0  0  0  0  0  0  0  0  0  0  0  0
   29.9970   31.0270   34.9640 H   0  0  0  0  0  0  0  0  0  0  0  0
   31.9700   30.2350   33.6110 H   0  0  0  0  0  0  0  0  0  0  0  0
  1 24  1  0  0  0  0
  1 10  1  0  0  0  0
  2  1  2  0  0  0  0
  3  2  1  0  0  0  0
  3  4  2  0  0  0  0
  4  5  1  0  0  0  0
  5 10  2  0  0  0  0
  5  6  1  0  0  0  0
  6  7  2  0  0  0  0
  7  8  1  0  0  0  0
  7 13  1  0  0  0  0
  8 14  1  0  0  0  0
  9 15  1  0  0  0  0
  9  8  2  0  0  0  0
 10  9  1  0  0  0  0
 11  3  1  0  0  0  0
 12  6  1  0  0  0  0
 15 16  1  0  0  0  0
 16 18  2  0  0  0  0
 16 17  1  0  0  0  0
 19 20  1  0  0  0  0
 19 18  1  0  0  0  0
 21 19  2  0  0  0  0
 22 21  1  0  0  0  0
 23 21  1  0  0  0  0
 23 15  2  0  0  0  0
 25 26  1  0  0  0  0
 26 31  1  0  0  0  0
 26 27  2  0  0  0  0
 27 24  1  0  0  0  0
 28 27  1  0  0  0  0
 28 32  1  0  0  0  0
 29 28  2  0  0  0  0
 30 25  2  0  0  0  0
 30 29  1  0  0  0  0
 33 29  1  0  0  0  0
 34 30  1  0  0  0  0
 35 40  1  0  0  0  0
 35 41  1  0  0  0  0
 36 35  2  0  0  0  0
 37 38  2  0  0  0  0
 37 36  1  0  0  0  0
 38 39  1  0  0  0  0
 39 25  1  0  0  0  0
 39 40  2  0  0  0  0
 42 36  1  0  0  0  0
 43 37  1  0  0  0  0
M  END
>  <minimizedAffinity>
-6.58005142

$$$$

 OpenBabel03242516273D

 43 47  0  0  0  0  0  0  0  0999 V2000
   36.0160   28.6600   39.5450 C   0  0  0  0  0  0  0  0  0  0  0  0
   35.5080   29.3430   38.4890 N   0  0  0  0  0  0  0  0  0  0  0  0
   35.1890   28.7640   37.3260 C   0  0  0  0  0  0  0  0  0  0  0  0
   35.3940   27.4270   37.2210 N   0  0  0  0  0  0  0  0  0  0  0  0
   35.8930   26.6840   38.2200 C   0  0  0  0  0  0  0  0  0  0  0  0
   36.1070   25.3120   38.0950 C   0  0  0  0  0  0  0  0  0  0  0  0
   36.6330   24.5930   39.1510 C   0  0  0  0  0  0  0  0  0  0  0  0
   36.9640   25.2100   40.3650 C   0  0  0  0  0  0  0  0  0  0  0  0
   36.7300   26.5620   40.4320 C   0  0  0  0  0  0  0  0  0  0  0  0
   36.2100   27.2990   39.3990 C   0  0  0  0  0  0  0  0  0  0  0  0
   34.7900   29.3290   36.5060 H   0  0  0  0  0  0  0  0  0  0  0  0
   35.8380   24.8740   37.1430 H   0  0  0  0  0  0  0  0  0  0  0  0
   36.7490   23.5430   38.9240 H   0  0  0  0  0  0  0  0  0  0  0  0
   37.3680   24.5520   41.1200 H   0  0  0  0  0  0  0  0  0  0  0  0
   37.1000   27.0530   41.7530 C   0  0  0  0  0  0  0  0  0  0  0  0
   38.4660   27.2930   41.9570 C   0  0  0  0  0  0  0  0  0  0  0  0
   39.2410   27.1690   41.2240 H   0  0  0  0  0  0  0  0  0  0  0  0
   38.8880   27.7280   43.1840 C   0  0  0  0  0  3  0  0  0  0  0  0
   38.0120   27.9370   44.2300 C   0  0  0  0  0  0  0  0  0  0  0  0
   38.2720   28.2790   45.2290 H   0  0  0  0  0  0  0  0  0  0  0  0
   36.6580   27.7020   44.0440 C   0  0  0  0  0  0  0  0  0  0  0  0
   35.8490   27.8200   44.7680 H   0  0  0  0  0  0  0  0  0  0  0  0
   36.2060   27.2640   42.8170 C   0  0  0  0  0  3  0  0  0  0  0  0
   36.4430   29.4040   41.0960 S   0  0  0  0  0  0  0  0  0  0  0  0
   39.5260   31.9910   41.1480 C   0  0  0  0  0  0  0  0  0  0  0  0
   38.7180   30.8880   41.3230 C   0  0  0  0  0  0  0  0  0  0  0  0
   37.4310   30.8550   40.8270 C   0  0  0  0  0  0  0  0  0  0  0  0
   36.9240   31.9460   40.1350 C   0  0  0  0  0  0  0  0  0  0  0  0
   37.7040   33.0400   39.9540 C   0  0  0  0  0  0  0  0  0  0  0  0
   38.9810   33.0440   40.4590 C   0  0  0  0  0  0  0  0  0  0  0  0
   39.1190   30.0420   41.8630 H   0  0  0  0  0  0  0  0  0  0  0  0
   35.9090   31.9110   39.7490 H   0  0  0  0  0  0  0  0  0  0  0  0
   37.3280   33.9170   39.4100 H   0  0  0  0  0  0  0  0  0  0  0  0
   39.5980   33.9230   40.3090 H   0  0  0  0  0  0  0  0  0  0  0  0
   42.3840   31.1080   43.2530 C   0  0  0  0  0  0  0  0  0  0  0  0
   43.4180   31.9390   42.7750 C   0  0  0  0  0  0  0  0  0  0  0  0
   43.1210   32.8080   41.7200 C   0  0  0  0  0  0  0  0  0  0  0  0
   41.8720   32.8410   41.1810 N   0  0  0  0  0  0  0  0  0  0  0  0
   40.8930   32.0060   41.6840 C   0  0  0  0  0  0  0  0  0  0  0  0
   41.1530   31.1550   42.7050 N   0  0  0  0  0  0  0  0  0  0  0  0
   42.5660   30.4220   44.0660 H   0  0  0  0  0  0  0  0  0  0  0  0
   44.3960   31.8840   43.2300 H   0  0  0  0  0  0  0  0  0  0  0  0
   43.8950   33.4610   41.3290 H   0  0  0  0  0  0  0  0  0  0  0  0
  1 24  1  0  0  0  0
  2  1  2  0  0  0  0
  3  2  1  0  0  0  0
  4  3  2  0  0  0  0
  4  5  1  0  0  0  0
  5 10  1  0  0  0  0
  6  5  2  0  0  0  0
  6  7  1  0  0  0  0
  7  8  2  0  0  0  0
  8  9  1  0  0  0  0
  8 14  1  0  0  0  0
  9 15  1  0  0  0  0
 10  1  1  0  0  0  0
 10  9  2  0  0  0  0
 11  3  1  0  0  0  0
 12  6  1  0  0  0  0
 13  7  1  0  0  0  0
 15 16  2  0  0  0  0
 15 23  1  0  0  0  0
 16 18  1  0  0  0  0
 17 16  1  0  0  0  0
 18 19  2  0  0  0  0
 19 20  1  0  0  0  0
 21 19  1  0  0  0  0
 21 22  1  0  0  0  0
 23 21  2  0  0  0  0
 25 26  1  0  0  0  0
 25 39  1  0  0  0  0
 26 31  1  0  0  0  0
 27 24  1  0  0  0  0
 27 26  2  0  0  0  0
 28 27  1  0  0  0  0
 29 28  2  0  0  0  0
 29 30  1  0  0  0  0
 30 25  2  0  0  0  0
 32 28  1  0  0  0  0
 33 29  1  0  0  0  0
 34 30  1  0  0  0  0
 35 41  1  0  0  0  0
 36 42  1  0  0  0  0
 36 35  1  0  0  0  0
 37 36  2  0  0  0  0
 38 39  2  0  0  0  0
 38 37  1  0  0  0  0
 39 40  1  0  0  0  0
 40 35  2  0  0  0  0
 43 37  1  0  0  0  0
M  END
>  <minimizedAffinity>
-6.56170797

$$$$

 OpenBabel03242516273D

 43 47  0  0  0  0  0  0  0  0999 V2000
   40.2710   31.2210   39.8570 C   0  0  0  0  0  0  0  0  0  0  0  0
   41.5790   31.1260   40.2040 N   0  0  0  0  0  0  0  0  0  0  0  0
   42.2960   32.1620   40.6530 C   0  0  0  0  0  0  0  0  0  0  0  0
   41.6640   33.3580   40.7550 N   0  0  0  0  0  0  0  0  0  0  0  0
   40.3740   33.5310   40.4310 C   0  0  0  0  0  0  0  0  0  0  0  0
   39.7380   34.7680   40.5330 C   0  0  0  0  0  0  0  0  0  0  0  0
   38.4100   34.8970   40.1760 C   0  0  0  0  0  0  0  0  0  0  0  0
   37.6680   33.8040   39.7070 C   0  0  0  0  0  0  0  0  0  0  0  0
   38.3440   32.6110   39.6290 C   0  0  0  0  0  0  0  0  0  0  0  0
   39.6620   32.4560   39.9760 C   0  0  0  0  0  0  0  0  0  0  0  0
   43.3300   32.0580   40.9190 H   0  0  0  0  0  0  0  0  0  0  0  0
   40.3450   35.5850   40.9000 H   0  0  0  0  0  0  0  0  0  0  0  0
   38.0400   35.9050   40.3020 H   0  0  0  0  0  0  0  0  0  0  0  0
   36.6400   34.0200   39.4580 H   0  0  0  0  0  0  0  0  0  0  0  0
   37.4410   31.5730   39.1500 C   0  0  0  0  0  0  0  0  0  0  0  0
   36.5930   31.0060   40.1120 C   0  0  0  0  0  0  0  0  0  0  0  0
   36.5430   31.2880   41.1480 H   0  0  0  0  0  0  0  0  0  0  0  0
   35.7390   30.0060   39.7390 C   0  0  0  0  0  3  0  0  0  0  0  0
   35.6840   29.5340   38.4420 C   0  0  0  0  0  0  0  0  0  0  0  0
   35.0340   28.7440   38.0720 H   0  0  0  0  0  0  0  0  0  0  0  0
   36.5160   30.0840   37.4790 C   0  0  0  0  0  0  0  0  0  0  0  0
   36.5880   29.8190   36.4220 H   0  0  0  0  0  0  0  0  0  0  0  0
   37.3870   31.0940   37.8300 C   0  0  0  0  0  3  0  0  0  0  0  0
   39.3000   29.8630   39.2630 S   0  0  0  0  0  0  0  0  0  0  0  0
   38.4050   26.4460   41.1910 C   0  0  0  0  0  0  0  0  0  0  0  0
   38.6170   27.4070   40.2260 C   0  0  0  0  0  0  0  0  0  0  0  0
   39.0540   28.6730   40.5580 C   0  0  0  0  0  0  0  0  0  0  0  0
   39.2890   29.0030   41.8850 C   0  0  0  0  0  0  0  0  0  0  0  0
   39.0850   28.0700   42.8480 C   0  0  0  0  0  0  0  0  0  0  0  0
   38.6490   26.8190   42.4880 C   0  0  0  0  0  0  0  0  0  0  0  0
   38.4320   27.1430   39.1950 H   0  0  0  0  0  0  0  0  0  0  0  0
   39.6330   30.0020   42.1360 H   0  0  0  0  0  0  0  0  0  0  0  0
   39.2630   28.3050   43.9060 H   0  0  0  0  0  0  0  0  0  0  0  0
   38.4890   26.0800   43.2660 H   0  0  0  0  0  0  0  0  0  0  0  0
   38.5120   22.8510   40.5270 C   0  0  0  0  0  0  0  0  0  0  0  0
   37.1900   22.5450   40.1400 C   0  0  0  0  0  0  0  0  0  0  0  0
   36.2610   23.5900   40.1100 C   0  0  0  0  0  0  0  0  0  0  0  0
   36.6320   24.8560   40.4450 N   0  0  0  0  0  0  0  0  0  0  0  0
   37.9390   25.1040   40.8180 C   0  0  0  0  0  0  0  0  0  0  0  0
   38.8590   24.1120   40.8550 N   0  0  0  0  0  0  0  0  0  0  0  0
   39.2630   22.0770   40.5640 H   0  0  0  0  0  0  0  0  0  0  0  0
   36.9350   21.5280   39.8810 H   0  0  0  0  0  0  0  0  0  0  0  0
   35.2360   23.3880   39.8170 H   0  0  0  0  0  0  0  0  0  0  0  0
  1 10  2  0  0  0  0
  1  2  1  0  0  0  0
  2  3  2  0  0  0  0
  3  4  1  0  0  0  0
  3 11  1  0  0  0  0
  5  6  1  0  0  0  0
  5  4  2  0  0  0  0
  6 12  1  0  0  0  0
  7 13  1  0  0  0  0
  7  6  2  0  0  0  0
  8  7  1  0  0  0  0
  9  8  2  0  0  0  0
  9 10  1  0  0  0  0
 10  5  1  0  0  0  0
 14  8  1  0  0  0  0
 15  9  1  0  0  0  0
 15 16  1  0  0  0  0
 16 17  1  0  0  0  0
 18 16  2  0  0  0  0
 19 18  1  0  0  0  0
 20 19  1  0  0  0  0
 21 23  1  0  0  0  0
 21 19  2  0  0  0  0
 22 21  1  0  0  0  0
 23 15  2  0  0  0  0
 24  1  1  0  0  0  0
 24 27  1  0  0  0  0
 25 30  1  0  0  0  0
 26 27  1  0  0  0  0
 26 25  2  0  0  0  0
 27 28  2  0  0  0  0
 28 32  1  0  0  0  0
 28 29  1  0  0  0  0
 29 33  1  0  0  0  0
 30 29  2  0  0  0  0
 30 34  1  0  0  0  0
 31 26  1  0  0  0  0
 35 41  1  0  0  0  0
 35 40  1  0  0  0  0
 36 35  2  0  0  0  0
 37 36  1  0  0  0  0
 37 38  2  0  0  0  0
 38 39  1  0  0  0  0
 39 40  2  0  0  0  0
 39 25  1  0  0  0  0
 42 36  1  0  0  0  0
 43 37  1  0  0  0  0
M  END
>  <minimizedAffinity>
-6.52730942

$$$$

 OpenBabel03242516273D

 43 47  0  0  0  0  0  0  0  0999 V2000
   39.1860   31.4470   40.9250 C   0  0  0  0  0  0  0  0  0  0  0  0
   37.8730   31.5340   40.5920 N   0  0  0  0  0  0  0  0  0  0  0  0
   37.3150   32.6440   40.0960 C   0  0  0  0  0  0  0  0  0  0  0  0
   38.1200   33.7230   39.9280 N   0  0  0  0  0  0  0  0  0  0  0  0
   39.4260   33.7140   40.2330 C   0  0  0  0  0  0  0  0  0  0  0  0
   40.2400   34.8330   40.0640 C   0  0  0  0  0  0  0  0  0  0  0  0
   41.5770   34.7760   40.4040 C   0  0  0  0  0  0  0  0  0  0  0  0
   42.1520   33.6080   40.9240 C   0  0  0  0  0  0  0  0  0  0  0  0
   41.3040   32.5370   41.0680 C   0  0  0  0  0  0  0  0  0  0  0  0
   39.9730   32.5680   40.7380 C   0  0  0  0  0  0  0  0  0  0  0  0
   36.2730   32.6850   39.8420 H   0  0  0  0  0  0  0  0  0  0  0  0
   39.7580   35.7140   39.6600 H   0  0  0  0  0  0  0  0  0  0  0  0
   42.0930   35.7080   40.2240 H   0  0  0  0  0  0  0  0  0  0  0  0
   43.2050   33.6770   41.1550 H   0  0  0  0  0  0  0  0  0  0  0  0
   42.0460   31.3990   41.5930 C   0  0  0  0  0  0  0  0  0  0  0  0
   42.1580   31.3320   42.9900 C   0  0  0  0  0  0  0  0  0  0  0  0
   41.7290   32.0280   43.6870 H   0  0  0  0  0  0  0  0  0  0  0  0
   42.8660   30.3050   43.5510 C   0  0  0  0  0  3  0  0  0  0  0  0
   43.4770   29.3310   42.7870 C   0  0  0  0  0  0  0  0  0  0  0  0
   44.0550   28.4880   43.1600 H   0  0  0  0  0  0  0  0  0  0  0  0
   43.3760   29.3840   41.4050 C   0  0  0  0  0  0  0  0  0  0  0  0
   43.7990   28.6930   40.6730 H   0  0  0  0  0  0  0  0  0  0  0  0
   42.6670   30.4080   40.8130 C   0  0  0  0  0  3  0  0  0  0  0  0
   39.9480   29.9880   41.5810 S   0  0  0  0  0  0  0  0  0  0  0  0
   37.3090   26.9520   41.7000 C   0  0  0  0  0  0  0  0  0  0  0  0
   38.2730   27.8560   41.3090 C   0  0  0  0  0  0  0  0  0  0  0  0
   38.7080   28.8540   42.1550 C   0  0  0  0  0  0  0  0  0  0  0  0
   38.1750   28.9650   43.4320 C   0  0  0  0  0  0  0  0  0  0  0  0
   37.2250   28.0850   43.8350 C   0  0  0  0  0  0  0  0  0  0  0  0
   36.8120   27.1030   42.9700 C   0  0  0  0  0  0  0  0  0  0  0  0
   38.6830   27.7640   40.3130 H   0  0  0  0  0  0  0  0  0  0  0  0
   38.5240   29.7550   44.0920 H   0  0  0  0  0  0  0  0  0  0  0  0
   36.7860   28.1500   44.8400 H   0  0  0  0  0  0  0  0  0  0  0  0
   36.0510   26.4030   43.3010 H   0  0  0  0  0  0  0  0  0  0  0  0
   36.0680   25.3830   38.6390 C   0  0  0  0  0  0  0  0  0  0  0  0
   35.9970   24.0150   38.9720 C   0  0  0  0  0  0  0  0  0  0  0  0
   36.3810   23.6360   40.2630 C   0  0  0  0  0  0  0  0  0  0  0  0
   36.8070   24.5690   41.1590 N   0  0  0  0  0  0  0  0  0  0  0  0
   36.8590   25.8970   40.7830 C   0  0  0  0  0  0  0  0  0  0  0  0
   36.4930   26.2900   39.5400 N   0  0  0  0  0  0  0  0  0  0  0  0
   35.7810   25.7210   37.6540 H   0  0  0  0  0  0  0  0  0  0  0  0
   35.6540   23.3050   38.2330 H   0  0  0  0  0  0  0  0  0  0  0  0
   36.3390   22.5920   40.5500 H   0  0  0  0  0  0  0  0  0  0  0  0
  1 24  1  0  0  0  0
  2  1  2  0  0  0  0
  3  2  1  0  0  0  0
  4  3  2  0  0  0  0
  4  5  1  0  0  0  0
  5 10  1  0  0  0  0
  6  5  2  0  0  0  0
  6  7  1  0  0  0  0
  7  8  2  0  0  0  0
  8  9  1  0  0  0  0
  8 14  1  0  0  0  0
  9 15  1  0  0  0  0
 10  1  1  0  0  0  0
 10  9  2  0  0  0  0
 11  3  1  0  0  0  0
 12  6  1  0  0  0  0
 13  7  1  0  0  0  0
 15 16  1  0  0  0  0
 16 18  2  0  0  0  0
 16 17  1  0  0  0  0
 19 20  1  0  0  0  0
 19 18  1  0  0  0  0
 21 19  2  0  0  0  0
 22 21  1  0  0  0  0
 23 21  1  0  0  0  0
 23 15  2  0  0  0  0
 24 27  1  0  0  0  0
 25 30  1  0  0  0  0
 26 25  2  0  0  0  0
 26 27  1  0  0  0  0
 27 28  2  0  0  0  0
 28 29  1  0  0  0  0
 28 32  1  0  0  0  0
 29 33  1  0  0  0  0
 30 34  1  0  0  0  0
 30 29  2  0  0  0  0
 31 26  1  0  0  0  0
 35 36  2  0  0  0  0
 35 40  1  0  0  0  0
 36 37  1  0  0  0  0
 37 43  1  0  0  0  0
 37 38  2  0  0  0  0
 39 38  1  0  0  0  0
 39 25  1  0  0  0  0
 40 39  2  0  0  0  0
 41 35  1  0  0  0  0
 42 36  1  0  0  0  0
M  END
>  <minimizedAffinity>
-6.47732162

$$$$
