
 OpenBabel03242520223D

 44 47  0  0  0  0  0  0  0  0999 V2000
   39.5460   35.3910   40.2790 C   0  0  0  0  0  0  0  0  0  0  0  0
   39.5520   35.1960   41.3580 H   0  0  0  0  0  0  0  0  0  0  0  0
   38.7770   36.1950   40.1230 H   0  0  0  0  0  0  0  0  0  0  0  0
   38.9540   33.0330   40.1510 C   0  0  0  0  0  0  0  0  0  0  0  0
   39.0060   32.8880   41.4180 O   0  0  0  0  0  0  0  0  0  0  0  0
   39.1200   34.2570   39.4810 N   0  0  0  0  0  0  0  0  0  0  0  0
   38.9610   34.3940   38.4800 H   0  0  0  0  0  0  0  0  0  0  0  0
   38.7020   31.8410   39.3010 C   0  0  0  0  0  0  0  0  0  0  0  0
   39.0990   31.8670   37.9760 C   0  0  0  0  0  0  0  0  0  0  0  0
   38.9250   30.8210   37.0940 C   0  0  0  0  0  0  0  0  0  0  0  0
   38.3050   29.6760   37.5980 C   0  0  0  0  0  0  0  0  0  0  0  0
   37.9350   29.7080   38.9150 C   0  0  0  0  0  0  0  0  0  0  0  0
   38.1050   30.7210   39.7640 N   0  0  0  0  0  0  0  0  0  0  0  0
   39.5790   32.7770   37.6150 H   0  0  0  0  0  0  0  0  0  0  0  0
   39.2730   30.9410   36.0660 H   0  0  0  0  0  0  0  0  0  0  0  0
   38.1690   28.8670   36.9230 H   0  0  0  0  0  0  0  0  0  0  0  0
   37.2830   28.5390   39.4980 C   0  0  0  0  0  0  0  0  0  0  0  0
   35.9820   28.1910   39.1500 C   0  0  0  0  0  0  0  0  0  0  0  0
   35.4210   28.7980   38.4220 H   0  0  0  0  0  0  0  0  0  0  0  0
   35.2860   27.1010   39.6510 C   0  0  0  0  0  0  0  0  0  0  0  0
   35.9290   26.2960   40.5670 C   0  0  0  0  0  0  0  0  0  0  0  0
   35.3580   25.4550   40.9370 H   0  0  0  0  0  0  0  0  0  0  0  0
   37.2210   26.5920   40.9500 C   0  0  0  0  0  0  0  0  0  0  0  0
   37.7130   25.9490   41.6720 H   0  0  0  0  0  0  0  0  0  0  0  0
   37.8590   27.6910   40.4150 C   0  0  0  0  0  0  0  0  0  0  0  0
   40.8780   35.9700   39.7910 C   0  0  0  0  0  0  0  0  0  0  0  0
   40.8620   35.9970   38.6920 H   0  0  0  0  0  0  0  0  0  0  0  0
   40.9500   36.9770   40.2410 H   0  0  0  0  0  0  0  0  0  0  0  0
   43.7800   34.5950   41.7980 C   0  0  0  0  0  0  0  0  0  0  0  0
   42.7240   35.4470   41.3780 C   0  0  0  0  0  0  0  0  0  0  0  0
   41.9940   35.1140   40.2570 C   0  0  0  0  0  0  0  0  0  0  0  0
   42.3560   33.9510   39.6110 N   0  0  0  0  0  0  0  0  0  0  0  0
   43.3790   33.1700   40.0580 C   0  0  0  0  0  0  0  0  0  0  0  0
   44.0840   33.4930   41.1440 N   0  0  0  0  0  0  0  0  0  0  0  0
   42.4630   36.3520   41.9020 H   0  0  0  0  0  0  0  0  0  0  0  0
   43.6070   32.2690   39.4990 H   0  0  0  0  0  0  0  0  0  0  0  0
   44.5640   34.9810   43.0080 C   0  0  0  0  0  0  0  0  0  0  0  0
   46.0520   35.3500   42.6260 C   0  0  0  0  0  0  0  0  0  0  0  0
   45.0960   36.2520   43.2890 C   0  0  0  0  0  0  0  0  0  0  0  0
   44.5140   34.1760   43.7870 H   0  0  0  0  0  0  0  0  0  0  0  0
   46.8130   34.8700   43.2640 H   0  0  0  0  0  0  0  0  0  0  0  0
   46.2890   35.4270   41.5660 H   0  0  0  0  0  0  0  0  0  0  0  0
   45.2960   36.5360   44.3440 H   0  0  0  0  0  0  0  0  0  0  0  0
   44.7910   37.1670   42.7010 H   0  0  0  0  0  0  0  0  0  0  0  0
  1  2  1  0  0  0  0
  3  1  1  0  0  0  0
  4  5  2  0  0  0  0
  6  4  1  0  0  0  0
  6  1  1  0  0  0  0
  7  6  1  0  0  0  0
  8 13  1  0  0  0  0
  8  4  1  0  0  0  0
  9  8  2  0  0  0  0
 10 11  2  0  0  0  0
 10  9  1  0  0  0  0
 11 12  1  0  0  0  0
 12 17  1  0  0  0  0
 12 13  2  0  0  0  0
 14  9  1  0  0  0  0
 15 10  1  0  0  0  0
 16 11  1  0  0  0  0
 17 25  1  0  0  0  0
 18 17  2  0  0  0  0
 18 20  1  0  0  0  0
 19 18  1  0  0  0  0
 20 21  2  0  0  0  0
 21 22  1  0  0  0  0
 21 23  1  0  0  0  0
 23 24  1  0  0  0  0
 25 23  2  0  0  0  0
 26 28  1  0  0  0  0
 26 31  1  0  0  0  0
 26  1  1  0  0  0  0
 27 26  1  0  0  0  0
 29 37  1  0  0  0  0
 30 29  1  0  0  0  0
 30 35  1  0  0  0  0
 31 30  2  0  0  0  0
 32 33  2  0  0  0  0
 32 31  1  0  0  0  0
 33 34  1  0  0  0  0
 34 29  2  0  0  0  0
 36 33  1  0  0  0  0
 37 39  1  0  0  0  0
 37 40  1  0  0  0  0
 38 37  1  0  0  0  0
 38 41  1  0  0  0  0
 38 39  1  0  0  0  0
 39 43  1  0  0  0  0
 42 38  1  0  0  0  0
 44 39  1  0  0  0  0
M  END
>  <minimizedAffinity>
-5.46169376

>  <minimizedRMSD>
1.7604531

$$$$
