
 OpenBabel03252506573D

 38 42  0  0  0  0  0  0  0  0999 V2000
   47.3320   31.2990   45.2320 C   0  0  0  0  0  0  0  0  0  0  0  0
   46.9170   32.6260   45.1440 C   0  0  0  0  0  0  0  0  0  0  0  0
   46.2640   33.2820   46.1590 C   0  0  0  0  0  0  0  0  0  0  0  0
   45.9890   32.6140   47.3420 C   0  0  0  0  0  0  0  0  0  0  0  0
   45.3830   32.9210   48.5270 N   0  0  0  0  0  0  0  0  0  0  0  0
   45.4190   31.8220   49.3260 C   0  0  0  0  0  0  0  0  0  0  0  0
   46.0440   30.8500   48.6340 N   0  0  0  0  0  0  0  0  0  0  0  0
   46.4020   31.3050   47.4240 C   0  0  0  0  0  0  0  0  0  0  0  0
   47.0570   30.6290   46.4210 C   0  0  0  0  0  0  0  0  0  0  0  0
   47.8500   30.7960   44.4160 H   0  0  0  0  0  0  0  0  0  0  0  0
   45.9430   34.3160   46.0820 H   0  0  0  0  0  0  0  0  0  0  0  0
   44.9740   33.8700   48.7270 H   0  0  0  0  0  0  0  0  0  0  0  0
   45.0050   31.7760   50.3430 H   0  0  0  0  0  0  0  0  0  0  0  0
   46.6320   35.0730   42.4040 C   0  0  0  0  0  0  0  0  0  0  0  0
   47.7140   34.7270   41.5770 C   0  0  0  0  0  0  0  0  0  0  0  0
   48.5220   33.6650   41.9680 C   0  0  0  0  0  0  0  0  0  0  0  0
   48.2350   33.0040   43.1340 N   0  0  0  0  0  0  0  0  0  0  0  0
   47.1930   33.3590   43.9030 C   0  0  0  0  0  0  0  0  0  0  0  0
   46.3920   34.3860   43.5470 N   0  0  0  0  0  0  0  0  0  0  0  0
   45.9870   35.8940   42.1250 H   0  0  0  0  0  0  0  0  0  0  0  0
   47.8960   35.2820   40.6690 H   0  0  0  0  0  0  0  0  0  0  0  0
   49.3690   33.3650   41.3590 H   0  0  0  0  0  0  0  0  0  0  0  0
   47.4600   29.2280   46.5990 C   0  0  0  0  0  0  0  0  0  0  0  0
   48.7540   28.7710   46.5250 C   0  0  0  0  0  0  0  0  0  0  0  0
   48.6400   27.3890   46.7590 C   0  0  0  0  0  0  0  0  0  0  0  0
   47.2970   27.0980   46.9570 C   0  0  0  0  0  0  0  0  0  0  0  0
   46.6540   28.2410   46.8480 O   0  0  0  0  0  0  0  0  0  0  0  0
   49.6780   29.3140   46.3340 H   0  0  0  0  0  0  0  0  0  0  0  0
   49.4590   26.6740   46.7800 H   0  0  0  0  0  0  0  0  0  0  0  0
   46.6930   25.7770   47.2370 C   0  0  0  0  0  0  0  0  0  0  0  0
   46.4530   24.9720   46.1420 C   0  0  0  0  0  0  0  0  0  0  0  0
   46.6990   25.3040   45.1420 H   0  0  0  0  0  0  0  0  0  0  0  0
   45.8810   23.7290   46.4290 C   0  0  0  0  0  3  0  0  0  0  0  0
   45.5820   23.3450   47.7240 C   0  0  0  0  0  0  0  0  0  0  0  0
   45.1390   22.3710   47.8940 H   0  0  0  0  0  0  0  0  0  0  0  0
   45.8530   24.2110   48.7650 C   0  0  0  0  0  0  0  0  0  0  0  0
   45.6240   23.9290   49.8010 H   0  0  0  0  0  0  0  0  0  0  0  0
   46.4250   25.4720   48.5560 C   0  0  0  0  0  3  0  0  0  0  0  0
  1  9  1  0  0  0  0
  2  1  2  0  0  0  0
  2  3  1  0  0  0  0
  3  4  2  0  0  0  0
  4  8  1  0  0  0  0
  4  5  1  0  0  0  0
  5 12  1  0  0  0  0
  5  6  1  0  0  0  0
  6 13  1  0  0  0  0
  7  6  2  0  0  0  0
  8  7  1  0  0  0  0
  9 23  1  0  0  0  0
  9  8  2  0  0  0  0
 10  1  1  0  0  0  0
 11  3  1  0  0  0  0
 14 19  1  0  0  0  0
 15 16  1  0  0  0  0
 15 14  2  0  0  0  0
 16 17  2  0  0  0  0
 17 18  1  0  0  0  0
 18  2  1  0  0  0  0
 19 18  2  0  0  0  0
 20 14  1  0  0  0  0
 21 15  1  0  0  0  0
 22 16  1  0  0  0  0
 23 27  1  0  0  0  0
 24 23  2  0  0  0  0
 24 25  1  0  0  0  0
 25 29  1  0  0  0  0
 25 26  2  0  0  0  0
 26 30  1  0  0  0  0
 27 26  1  0  0  0  0
 28 24  1  0  0  0  0
 30 38  1  0  0  0  0
 31 33  1  0  0  0  0
 31 30  2  0  0  0  0
 32 31  1  0  0  0  0
 33 34  2  0  0  0  0
 34 35  1  0  0  0  0
 34 36  1  0  0  0  0
 36 37  1  0  0  0  0
 38 36  2  0  0  0  0
M  END
>  <minimizedAffinity>
-5.64703321

>  <minimizedRMSD>
0.643700838

$$$$
