
 OpenBabel03242510283D

 18 19  0  0  0  0  0  0  0  0999 V2000
   37.3190   32.8140   39.6130 C   0  0  0  0  0  0  0  0  0  0  0  0
   36.9530   31.6050   40.2510 C   0  0  0  0  0  0  0  0  0  0  0  0
   37.8460   31.0280   41.1530 C   0  0  0  0  0  0  0  0  0  0  0  0
   39.0230   31.6680   41.3660 N   0  0  0  0  0  0  0  0  0  0  0  0
   39.3650   32.8240   40.7520 C   0  0  0  0  0  0  0  0  0  0  0  0
   38.5070   33.3980   39.8710 N   0  0  0  0  0  0  0  0  0  0  0  0
   36.5920   33.2230   38.9210 H   0  0  0  0  0  0  0  0  0  0  0  0
   36.0260   31.1290   40.0640 H   0  0  0  0  0  0  0  0  0  0  0  0
   40.3150   33.3130   40.9420 H   0  0  0  0  0  0  0  0  0  0  0  0
   37.5800   29.7870   41.8690 C   0  0  0  0  0  0  0  0  0  0  0  0
   36.6060   28.9630   41.3470 C   0  0  0  0  0  0  0  0  0  0  0  0
   36.0080   29.1440   40.4460 H   0  0  0  0  0  0  0  0  0  0  0  0
   36.2910   27.7700   41.9630 C   0  0  0  0  0  3  0  0  0  0  0  0
   36.9810   27.4300   43.1140 C   0  0  0  0  0  0  0  0  0  0  0  0
   36.7780   26.4940   43.6500 H   0  0  0  0  0  0  0  0  0  0  0  0
   37.9660   28.2180   43.6790 C   0  0  0  0  0  0  0  0  0  0  0  0
   38.4800   27.9190   44.5770 H   0  0  0  0  0  0  0  0  0  0  0  0
   38.2330   29.4140   43.0030 C   0  0  0  0  0  3  0  0  0  0  0  0
  1  6  2  0  0  0  0
  1  2  1  0  0  0  0
  2  3  2  0  0  0  0
  3  4  1  0  0  0  0
  3 10  1  0  0  0  0
  5  9  1  0  0  0  0
  5  4  2  0  0  0  0
  6  5  1  0  0  0  0
  7  1  1  0  0  0  0
  8  2  1  0  0  0  0
 10 18  1  0  0  0  0
 11 10  2  0  0  0  0
 11 13  1  0  0  0  0
 12 11  1  0  0  0  0
 13 14  2  0  0  0  0
 14 15  1  0  0  0  0
 14 16  1  0  0  0  0
 16 17  1  0  0  0  0
 18 16  2  0  0  0  0
M  END
>  <minimizedAffinity>
-4.27126074

$$$$

 OpenBabel03242510283D

 18 19  0  0  0  0  0  0  0  0999 V2000
   38.3990   34.1600   40.0340 C   0  0  0  0  0  0  0  0  0  0  0  0
   37.4060   33.2290   39.6490 C   0  0  0  0  0  0  0  0  0  0  0  0
   37.5940   31.8840   39.9600 C   0  0  0  0  0  0  0  0  0  0  0  0
   38.7290   31.5460   40.6200 N   0  0  0  0  0  0  0  0  0  0  0  0
   39.6740   32.4420   40.9850 C   0  0  0  0  0  0  0  0  0  0  0  0
   39.5060   33.7560   40.6900 N   0  0  0  0  0  0  0  0  0  0  0  0
   38.2070   35.1930   39.7700 H   0  0  0  0  0  0  0  0  0  0  0  0
   36.5290   33.5240   39.1330 H   0  0  0  0  0  0  0  0  0  0  0  0
   40.5740   32.1420   41.5130 H   0  0  0  0  0  0  0  0  0  0  0  0
   36.6420   30.8360   39.6150 C   0  0  0  0  0  0  0  0  0  0  0  0
   36.5790   30.4620   38.2900 C   0  0  0  0  0  0  0  0  0  0  0  0
   37.1730   30.8720   37.4640 H   0  0  0  0  0  0  0  0  0  0  0  0
   35.7040   29.4780   37.8780 C   0  0  0  0  0  3  0  0  0  0  0  0
   34.8990   28.8820   38.8320 C   0  0  0  0  0  0  0  0  0  0  0  0
   34.1830   28.0930   38.5690 H   0  0  0  0  0  0  0  0  0  0  0  0
   34.9200   29.2190   40.1730 C   0  0  0  0  0  0  0  0  0  0  0  0
   34.2770   28.7310   40.8860 H   0  0  0  0  0  0  0  0  0  0  0  0
   35.8300   30.2240   40.5200 C   0  0  0  0  0  3  0  0  0  0  0  0
  1  6  1  0  0  0  0
  2  3  1  0  0  0  0
  2  1  2  0  0  0  0
  3  4  2  0  0  0  0
  4  5  1  0  0  0  0
  5  9  1  0  0  0  0
  6  5  2  0  0  0  0
  7  1  1  0  0  0  0
  8  2  1  0  0  0  0
 10  3  1  0  0  0  0
 10 18  1  0  0  0  0
 11 10  2  0  0  0  0
 12 11  1  0  0  0  0
 13 11  1  0  0  0  0
 13 14  2  0  0  0  0
 14 16  1  0  0  0  0
 15 14  1  0  0  0  0
 16 18  2  0  0  0  0
 16 17  1  0  0  0  0
M  END
>  <minimizedAffinity>
-4.17994642

$$$$

 OpenBabel03242510283D

 18 19  0  0  0  0  0  0  0  0999 V2000
   39.5530   32.7790   40.6540 C   0  0  0  0  0  0  0  0  0  0  0  0
   39.2750   31.5660   41.3260 C   0  0  0  0  0  0  0  0  0  0  0  0
   38.0020   31.0120   41.2060 C   0  0  0  0  0  0  0  0  0  0  0  0
   37.0980   31.6760   40.4440 N   0  0  0  0  0  0  0  0  0  0  0  0
   37.3720   32.8350   39.8030 C   0  0  0  0  0  0  0  0  0  0  0  0
   38.6070   33.3890   39.9100 N   0  0  0  0  0  0  0  0  0  0  0  0
   40.5560   33.1710   40.7780 H   0  0  0  0  0  0  0  0  0  0  0  0
   40.0030   31.0710   41.9150 H   0  0  0  0  0  0  0  0  0  0  0  0
   36.6280   33.3450   39.2000 H   0  0  0  0  0  0  0  0  0  0  0  0
   37.6000   29.7690   41.8520 C   0  0  0  0  0  0  0  0  0  0  0  0
   38.2700   29.4190   43.0040 C   0  0  0  0  0  0  0  0  0  0  0  0
   39.0780   29.9810   43.4880 H   0  0  0  0  0  0  0  0  0  0  0  0
   37.9530   28.2580   43.6780 C   0  0  0  0  0  3  0  0  0  0  0  0
   36.9460   27.4620   43.1630 C   0  0  0  0  0  0  0  0  0  0  0  0
   36.6450   26.5260   43.6510 H   0  0  0  0  0  0  0  0  0  0  0  0
   36.2420   27.7640   42.0110 C   0  0  0  0  0  0  0  0  0  0  0  0
   35.4640   27.1180   41.6420 H   0  0  0  0  0  0  0  0  0  0  0  0
   36.6170   28.9550   41.3800 C   0  0  0  0  0  3  0  0  0  0  0  0
  1  7  1  0  0  0  0
  1  2  1  0  0  0  0
  2  8  1  0  0  0  0
  3  2  2  0  0  0  0
  3 10  1  0  0  0  0
  4  3  1  0  0  0  0
  5  6  1  0  0  0  0
  5  4  2  0  0  0  0
  6  1  2  0  0  0  0
  9  5  1  0  0  0  0
 10 11  1  0  0  0  0
 11 12  1  0  0  0  0
 11 13  2  0  0  0  0
 14 15  1  0  0  0  0
 14 13  1  0  0  0  0
 16 14  2  0  0  0  0
 17 16  1  0  0  0  0
 18 10  2  0  0  0  0
 18 16  1  0  0  0  0
M  END
>  <minimizedAffinity>
-4.12588549

$$$$

 OpenBabel03242510283D

 18 19  0  0  0  0  0  0  0  0999 V2000
   37.1940   31.1050   38.0660 C   0  0  0  0  0  0  0  0  0  0  0  0
   37.1600   30.0790   39.0400 C   0  0  0  0  0  0  0  0  0  0  0  0
   37.2210   30.4330   40.3860 C   0  0  0  0  0  0  0  0  0  0  0  0
   37.3100   31.7530   40.6840 N   0  0  0  0  0  0  0  0  0  0  0  0
   37.3420   32.7280   39.7470 C   0  0  0  0  0  0  0  0  0  0  0  0
   37.2840   32.4010   38.4310 N   0  0  0  0  0  0  0  0  0  0  0  0
   37.1450   30.7800   37.0330 H   0  0  0  0  0  0  0  0  0  0  0  0
   37.0900   29.0560   38.7750 H   0  0  0  0  0  0  0  0  0  0  0  0
   37.4130   33.7770   40.0160 H   0  0  0  0  0  0  0  0  0  0  0  0
   37.1930   29.4650   41.4750 C   0  0  0  0  0  0  0  0  0  0  0  0
   38.0880   29.6600   42.5050 C   0  0  0  0  0  0  0  0  0  0  0  0
   38.8220   30.4700   42.5910 H   0  0  0  0  0  0  0  0  0  0  0  0
   38.1290   28.7900   43.5750 C   0  0  0  0  0  3  0  0  0  0  0  0
   37.2470   27.7240   43.5800 C   0  0  0  0  0  0  0  0  0  0  0  0
   37.2290   26.9970   44.4020 H   0  0  0  0  0  0  0  0  0  0  0  0
   36.3300   27.4810   42.5750 C   0  0  0  0  0  0  0  0  0  0  0  0
   35.6600   26.6390   42.6150 H   0  0  0  0  0  0  0  0  0  0  0  0
   36.3450   28.4020   41.5210 C   0  0  0  0  0  3  0  0  0  0  0  0
  1  6  2  0  0  0  0
  1  2  1  0  0  0  0
  2  3  2  0  0  0  0
  3  4  1  0  0  0  0
  3 10  1  0  0  0  0
  5  9  1  0  0  0  0
  5  4  2  0  0  0  0
  6  5  1  0  0  0  0
  7  1  1  0  0  0  0
  8  2  1  0  0  0  0
 10 18  2  0  0  0  0
 10 11  1  0  0  0  0
 11 12  1  0  0  0  0
 11 13  2  0  0  0  0
 13 14  1  0  0  0  0
 14 15  1  0  0  0  0
 16 17  1  0  0  0  0
 16 14  2  0  0  0  0
 18 16  1  0  0  0  0
M  END
>  <minimizedAffinity>
-4.11773443

$$$$

 OpenBabel03242510283D

 18 19  0  0  0  0  0  0  0  0999 V2000
   36.4050   27.9500   41.7830 C   0  0  0  0  0  0  0  0  0  0  0  0
   36.5950   29.1710   41.0950 C   0  0  0  0  0  0  0  0  0  0  0  0
   37.5490   30.0670   41.5730 C   0  0  0  0  0  0  0  0  0  0  0  0
   38.2450   29.7100   42.6810 N   0  0  0  0  0  0  0  0  0  0  0  0
   38.0580   28.5390   43.3330 C   0  0  0  0  0  0  0  0  0  0  0  0
   37.1320   27.6560   42.8810 N   0  0  0  0  0  0  0  0  0  0  0  0
   35.6520   27.2870   41.3730 H   0  0  0  0  0  0  0  0  0  0  0  0
   36.0350   29.4220   40.2320 H   0  0  0  0  0  0  0  0  0  0  0  0
   38.6300   28.2800   44.2190 H   0  0  0  0  0  0  0  0  0  0  0  0
   37.8320   31.3530   40.9490 C   0  0  0  0  0  0  0  0  0  0  0  0
   39.0250   31.9580   41.2800 C   0  0  0  0  0  0  0  0  0  0  0  0
   39.7870   31.5720   41.9680 H   0  0  0  0  0  0  0  0  0  0  0  0
   39.3700   33.1770   40.7340 C   0  0  0  0  0  3  0  0  0  0  0  0
   38.4860   33.7680   39.8490 C   0  0  0  0  0  0  0  0  0  0  0  0
   38.7020   34.7360   39.3800 H   0  0  0  0  0  0  0  0  0  0  0  0
   37.2780   33.2050   39.4820 C   0  0  0  0  0  0  0  0  0  0  0  0
   36.6160   33.6960   38.7880 H   0  0  0  0  0  0  0  0  0  0  0  0
   36.9920   31.9690   40.0740 C   0  0  0  0  0  3  0  0  0  0  0  0
  1  6  1  0  0  0  0
  2  3  1  0  0  0  0
  2  1  2  0  0  0  0
  3  4  2  0  0  0  0
  4  5  1  0  0  0  0
  5  9  1  0  0  0  0
  6  5  2  0  0  0  0
  7  1  1  0  0  0  0
  8  2  1  0  0  0  0
 10 11  1  0  0  0  0
 10  3  1  0  0  0  0
 11 12  1  0  0  0  0
 13 11  2  0  0  0  0
 14 13  1  0  0  0  0
 15 14  1  0  0  0  0
 16 14  2  0  0  0  0
 16 18  1  0  0  0  0
 17 16  1  0  0  0  0
 18 10  2  0  0  0  0
M  END
>  <minimizedAffinity>
-3.97991848

$$$$

 OpenBabel03242510283D

 18 19  0  0  0  0  0  0  0  0999 V2000
   36.9510   32.1820   39.3020 C   0  0  0  0  0  0  0  0  0  0  0  0
   36.7570   31.2540   40.3530 C   0  0  0  0  0  0  0  0  0  0  0  0
   37.4990   30.0750   40.3490 C   0  0  0  0  0  0  0  0  0  0  0  0
   38.3710   29.8860   39.3280 N   0  0  0  0  0  0  0  0  0  0  0  0
   38.5520   30.7780   38.3270 C   0  0  0  0  0  0  0  0  0  0  0  0
   37.8370   31.9320   38.3160 N   0  0  0  0  0  0  0  0  0  0  0  0
   36.3520   33.0830   39.3490 H   0  0  0  0  0  0  0  0  0  0  0  0
   36.0670   31.4300   41.1370 H   0  0  0  0  0  0  0  0  0  0  0  0
   39.2580   30.6000   37.5220 H   0  0  0  0  0  0  0  0  0  0  0  0
   37.3840   29.0470   41.3750 C   0  0  0  0  0  0  0  0  0  0  0  0
   37.0770   27.7720   40.9510 C   0  0  0  0  0  0  0  0  0  0  0  0
   36.9080   27.4490   39.9170 H   0  0  0  0  0  0  0  0  0  0  0  0
   36.9490   26.7410   41.8580 C   0  0  0  0  0  3  0  0  0  0  0  0
   37.1390   27.0260   43.1980 C   0  0  0  0  0  0  0  0  0  0  0  0
   37.0520   26.2500   43.9690 H   0  0  0  0  0  0  0  0  0  0  0  0
   37.4480   28.2850   43.6790 C   0  0  0  0  0  0  0  0  0  0  0  0
   37.5890   28.4670   44.7310 H   0  0  0  0  0  0  0  0  0  0  0  0
   37.5620   29.2830   42.7040 C   0  0  0  0  0  3  0  0  0  0  0  0
  1  7  1  0  0  0  0
  1  2  1  0  0  0  0
  2  8  1  0  0  0  0
  3  2  2  0  0  0  0
  3 10  1  0  0  0  0
  4  3  1  0  0  0  0
  5  4  2  0  0  0  0
  6  5  1  0  0  0  0
  6  1  2  0  0  0  0
  9  5  1  0  0  0  0
 10 18  1  0  0  0  0
 11 10  2  0  0  0  0
 11 13  1  0  0  0  0
 12 11  1  0  0  0  0
 13 14  2  0  0  0  0
 14 16  1  0  0  0  0
 14 15  1  0  0  0  0
 16 17  1  0  0  0  0
 18 16  2  0  0  0  0
M  END
>  <minimizedAffinity>
-3.89736867

$$$$

 OpenBabel03242510283D

 18 19  0  0  0  0  0  0  0  0999 V2000
   36.3300   30.7860   40.8890 C   0  0  0  0  0  0  0  0  0  0  0  0
   36.2910   29.4210   41.2600 C   0  0  0  0  0  0  0  0  0  0  0  0
   36.7980   28.4720   40.3750 C   0  0  0  0  0  0  0  0  0  0  0  0
   37.3040   28.9190   39.1990 N   0  0  0  0  0  0  0  0  0  0  0  0
   37.3390   30.2260   38.8510 C   0  0  0  0  0  0  0  0  0  0  0  0
   36.8480   31.1630   39.7020 N   0  0  0  0  0  0  0  0  0  0  0  0
   35.9240   31.4850   41.6100 H   0  0  0  0  0  0  0  0  0  0  0  0
   35.8890   29.1030   42.1870 H   0  0  0  0  0  0  0  0  0  0  0  0
   37.7500   30.5550   37.9020 H   0  0  0  0  0  0  0  0  0  0  0  0
   36.8120   27.0410   40.6480 C   0  0  0  0  0  0  0  0  0  0  0  0
   37.1020   26.6550   41.9380 C   0  0  0  0  0  0  0  0  0  0  0  0
   37.3250   27.3150   42.7850 H   0  0  0  0  0  0  0  0  0  0  0  0
   37.1350   25.3190   42.2820 C   0  0  0  0  0  3  0  0  0  0  0  0
   36.8690   24.3870   41.2950 C   0  0  0  0  0  0  0  0  0  0  0  0
   36.8800   23.3090   41.5040 H   0  0  0  0  0  0  0  0  0  0  0  0
   36.5730   24.7180   39.9860 C   0  0  0  0  0  0  0  0  0  0  0  0
   36.3710   23.9620   39.2460 H   0  0  0  0  0  0  0  0  0  0  0  0
   36.5570   26.0900   39.7080 C   0  0  0  0  0  3  0  0  0  0  0  0
  1  2  1  0  0  0  0
  1  7  1  0  0  0  0
  2  8  1  0  0  0  0
  3 10  1  0  0  0  0
  3  2  2  0  0  0  0
  4  3  1  0  0  0  0
  5  4  2  0  0  0  0
  5  6  1  0  0  0  0
  6  1  2  0  0  0  0
  9  5  1  0  0  0  0
 10 11  1  0  0  0  0
 11 13  2  0  0  0  0
 11 12  1  0  0  0  0
 14 15  1  0  0  0  0
 14 13  1  0  0  0  0
 16 14  2  0  0  0  0
 17 16  1  0  0  0  0
 18 16  1  0  0  0  0
 18 10  2  0  0  0  0
M  END
>  <minimizedAffinity>
-3.74997687

$$$$

 OpenBabel03242510283D

 18 19  0  0  0  0  0  0  0  0999 V2000
   38.3550   29.8070   42.3990 C   0  0  0  0  0  0  0  0  0  0  0  0
   37.6290   29.6440   41.1950 C   0  0  0  0  0  0  0  0  0  0  0  0
   36.6540   28.6510   41.1310 C   0  0  0  0  0  0  0  0  0  0  0  0
   36.4580   27.8920   42.2380 N   0  0  0  0  0  0  0  0  0  0  0  0
   37.1560   28.0540   43.3850 C   0  0  0  0  0  0  0  0  0  0  0  0
   38.1090   29.0170   43.4650 N   0  0  0  0  0  0  0  0  0  0  0  0
   39.1010   30.5920   42.4000 H   0  0  0  0  0  0  0  0  0  0  0  0
   37.8060   30.2530   40.3470 H   0  0  0  0  0  0  0  0  0  0  0  0
   36.9770   27.4310   44.2570 H   0  0  0  0  0  0  0  0  0  0  0  0
   35.8460   28.3900   39.9470 C   0  0  0  0  0  0  0  0  0  0  0  0
   34.7560   29.2080   39.7440 C   0  0  0  0  0  0  0  0  0  0  0  0
   34.4310   30.0380   40.3830 H   0  0  0  0  0  0  0  0  0  0  0  0
   33.9370   29.0300   38.6480 C   0  0  0  0  0  3  0  0  0  0  0  0
   34.2450   28.0100   37.7650 C   0  0  0  0  0  0  0  0  0  0  0  0
   33.6340   27.8170   36.8740 H   0  0  0  0  0  0  0  0  0  0  0  0
   35.3250   27.1610   37.9200 C   0  0  0  0  0  0  0  0  0  0  0  0
   35.5330   26.3780   37.2100 H   0  0  0  0  0  0  0  0  0  0  0  0
   36.1120   27.3990   39.0530 C   0  0  0  0  0  3  0  0  0  0  0  0
  1  7  1  0  0  0  0
  1  6  1  0  0  0  0
  2  1  2  0  0  0  0
  3  2  1  0  0  0  0
  3  4  2  0  0  0  0
  4  5  1  0  0  0  0
  5  6  2  0  0  0  0
  5  9  1  0  0  0  0
  8  2  1  0  0  0  0
 10  3  1  0  0  0  0
 11 10  1  0  0  0  0
 11 12  1  0  0  0  0
 13 11  2  0  0  0  0
 14 16  2  0  0  0  0
 14 13  1  0  0  0  0
 15 14  1  0  0  0  0
 16 18  1  0  0  0  0
 17 16  1  0  0  0  0
 18 10  2  0  0  0  0
M  END
>  <minimizedAffinity>
-3.74968696

$$$$

 OpenBabel03242510283D

 18 19  0  0  0  0  0  0  0  0999 V2000
   36.5180   29.8200   37.5060 C   0  0  0  0  0  0  0  0  0  0  0  0
   37.1250   29.6540   38.7730 C   0  0  0  0  0  0  0  0  0  0  0  0
   36.3830   29.0720   39.7990 C   0  0  0  0  0  0  0  0  0  0  0  0
   35.1110   28.6950   39.5170 N   0  0  0  0  0  0  0  0  0  0  0  0
   34.5380   28.8570   38.3030 C   0  0  0  0  0  0  0  0  0  0  0  0
   35.2460   29.4220   37.2930 N   0  0  0  0  0  0  0  0  0  0  0  0
   37.1340   30.2770   36.7410 H   0  0  0  0  0  0  0  0  0  0  0  0
   38.1210   29.9590   38.9620 H   0  0  0  0  0  0  0  0  0  0  0  0
   33.5160   28.5450   38.1070 H   0  0  0  0  0  0  0  0  0  0  0  0
   36.9020   28.8510   41.1430 C   0  0  0  0  0  0  0  0  0  0  0  0
   36.3490   27.8140   41.8620 C   0  0  0  0  0  0  0  0  0  0  0  0
   35.5550   27.1350   41.5280 H   0  0  0  0  0  0  0  0  0  0  0  0
   36.7820   27.5360   43.1420 C   0  0  0  0  0  3  0  0  0  0  0  0
   37.7830   28.3280   43.6760 C   0  0  0  0  0  0  0  0  0  0  0  0
   38.1720   28.1580   44.6880 H   0  0  0  0  0  0  0  0  0  0  0  0
   38.3730   29.3800   42.9990 C   0  0  0  0  0  0  0  0  0  0  0  0
   39.1510   29.9730   43.4500 H   0  0  0  0  0  0  0  0  0  0  0  0
   37.8850   29.6050   41.7070 C   0  0  0  0  0  3  0  0  0  0  0  0
  1  2  1  0  0  0  0
  2  8  1  0  0  0  0
  2  3  2  0  0  0  0
  3 10  1  0  0  0  0
  4  3  1  0  0  0  0
  5  4  2  0  0  0  0
  6  1  2  0  0  0  0
  6  5  1  0  0  0  0
  7  1  1  0  0  0  0
  9  5  1  0  0  0  0
 10 18  2  0  0  0  0
 10 11  1  0  0  0  0
 11 13  2  0  0  0  0
 12 11  1  0  0  0  0
 13 14  1  0  0  0  0
 14 15  1  0  0  0  0
 16 17  1  0  0  0  0
 16 14  2  0  0  0  0
 18 16  1  0  0  0  0
M  END
>  <minimizedAffinity>
-3.73059201

$$$$
