
 OpenBabel03252506573D

 38 42  0  0  0  0  0  0  0  0999 V2000
   47.3330   31.3460   45.2140 C   0  0  0  0  0  0  0  0  0  0  0  0
   46.9030   32.6690   45.1220 C   0  0  0  0  0  0  0  0  0  0  0  0
   46.2450   33.3220   46.1350 C   0  0  0  0  0  0  0  0  0  0  0  0
   45.9800   32.6560   47.3220 C   0  0  0  0  0  0  0  0  0  0  0  0
   45.3720   32.9620   48.5060 N   0  0  0  0  0  0  0  0  0  0  0  0
   45.4210   31.8660   49.3100 C   0  0  0  0  0  0  0  0  0  0  0  0
   46.0550   30.8980   48.6200 N   0  0  0  0  0  0  0  0  0  0  0  0
   46.4060   31.3510   47.4080 C   0  0  0  0  0  0  0  0  0  0  0  0
   47.0660   30.6790   46.4060 C   0  0  0  0  0  0  0  0  0  0  0  0
   47.8540   30.8450   44.4000 H   0  0  0  0  0  0  0  0  0  0  0  0
   45.9140   34.3530   46.0540 H   0  0  0  0  0  0  0  0  0  0  0  0
   44.9540   33.9070   48.7030 H   0  0  0  0  0  0  0  0  0  0  0  0
   45.0090   31.8200   50.3270 H   0  0  0  0  0  0  0  0  0  0  0  0
   46.5990   35.1130   42.3810 C   0  0  0  0  0  0  0  0  0  0  0  0
   47.6730   34.7640   41.5450 C   0  0  0  0  0  0  0  0  0  0  0  0
   48.4830   33.7010   41.9310 C   0  0  0  0  0  0  0  0  0  0  0  0
   48.2050   33.0410   43.1000 N   0  0  0  0  0  0  0  0  0  0  0  0
   47.1700   33.3990   43.8780 C   0  0  0  0  0  0  0  0  0  0  0  0
   46.3680   34.4280   43.5270 N   0  0  0  0  0  0  0  0  0  0  0  0
   45.9530   35.9340   42.1060 H   0  0  0  0  0  0  0  0  0  0  0  0
   47.8490   35.3160   40.6350 H   0  0  0  0  0  0  0  0  0  0  0  0
   49.3250   33.3980   41.3150 H   0  0  0  0  0  0  0  0  0  0  0  0
   47.4840   29.2830   46.5890 C   0  0  0  0  0  0  0  0  0  0  0  0
   48.7680   28.8230   46.4270 C   0  0  0  0  0  0  0  0  0  0  0  0
   48.6750   27.4470   46.7050 C   0  0  0  0  0  0  0  0  0  0  0  0
   47.3520   27.1630   47.0160 C   0  0  0  0  0  0  0  0  0  0  0  0
   46.7010   28.3030   46.9260 O   0  0  0  0  0  0  0  0  0  0  0  0
   49.6740   29.3600   46.1500 H   0  0  0  0  0  0  0  0  0  0  0  0
   49.4940   26.7330   46.6820 H   0  0  0  0  0  0  0  0  0  0  0  0
   46.7730   25.8500   47.3760 C   0  0  0  0  0  0  0  0  0  0  0  0
   45.3970   25.7590   47.3340 C   0  0  0  0  0  0  0  0  0  0  0  0
   44.7900   26.6080   47.0510 H   0  0  0  0  0  0  0  0  0  0  0  0
   44.8700   24.5100   47.6790 C   0  0  0  0  0  3  0  0  0  0  0  0
   45.6840   23.4480   48.0350 C   0  0  0  0  0  0  0  0  0  0  0  0
   45.2270   22.5020   48.2930 H   0  0  0  0  0  0  0  0  0  0  0  0
   47.0540   23.6230   48.0510 C   0  0  0  0  0  0  0  0  0  0  0  0
   47.7200   22.7970   48.3300 H   0  0  0  0  0  0  0  0  0  0  0  0
   47.6530   24.8440   47.7190 C   0  0  0  0  0  3  0  0  0  0  0  0
  1  9  1  0  0  0  0
  2  1  2  0  0  0  0
  2  3  1  0  0  0  0
  3  4  2  0  0  0  0
  4  8  1  0  0  0  0
  4  5  1  0  0  0  0
  5 12  1  0  0  0  0
  5  6  1  0  0  0  0
  6 13  1  0  0  0  0
  7  6  2  0  0  0  0
  8  7  1  0  0  0  0
  9 23  1  0  0  0  0
  9  8  2  0  0  0  0
 10  1  1  0  0  0  0
 11  3  1  0  0  0  0
 14 19  1  0  0  0  0
 15 16  1  0  0  0  0
 15 14  2  0  0  0  0
 16 17  2  0  0  0  0
 17 18  1  0  0  0  0
 18  2  1  0  0  0  0
 19 18  2  0  0  0  0
 20 14  1  0  0  0  0
 21 15  1  0  0  0  0
 22 16  1  0  0  0  0
 23 27  1  0  0  0  0
 24 23  2  0  0  0  0
 24 25  1  0  0  0  0
 25 26  2  0  0  0  0
 26 30  1  0  0  0  0
 27 26  1  0  0  0  0
 28 24  1  0  0  0  0
 29 25  1  0  0  0  0
 30 38  1  0  0  0  0
 31 30  2  0  0  0  0
 31 33  1  0  0  0  0
 32 31  1  0  0  0  0
 33 34  2  0  0  0  0
 34 36  1  0  0  0  0
 34 35  1  0  0  0  0
 36 37  1  0  0  0  0
 38 36  2  0  0  0  0
M  END
>  <minimizedAffinity>
-5.67874479

>  <minimizedRMSD>
0.77996552

$$$$
