
 OpenBabel03242523553D

 43 45  0  0  1  0  0  0  0  0999 V2000
   42.9130   34.0020   39.2650 C   0  0  1  0  0  0  0  0  0  0  0  0
   43.1880   35.0420   40.3410 C   0  0  1  0  0  0  0  0  0  0  0  0
   41.9690   35.6670   40.6740 O   0  0  0  0  0  0  0  0  0  0  0  0
   41.1300   35.8300   39.5700 C   0  0  0  0  0  0  0  0  0  0  0  0
   40.5970   34.5110   39.0570 C   0  0  2  0  0  0  0  0  0  0  0  0
   41.5820   33.4040   39.5800 C   0  0  1  0  0  0  0  0  0  0  0  0
   43.7310   33.2320   39.2520 H   0  0  0  0  0  0  0  0  0  0  0  0
   43.9490   35.7710   40.0520 H   0  0  0  0  0  0  0  0  0  0  0  0
   41.6020   36.4370   38.7750 H   0  0  0  0  0  0  0  0  0  0  0  0
   40.2660   36.4000   39.9520 H   0  0  0  0  0  0  0  0  0  0  0  0
   39.5840   34.2610   39.4280 H   0  0  0  0  0  0  0  0  0  0  0  0
   41.3190   33.5510   40.6770 H   0  0  0  0  0  0  0  0  0  0  0  0
   42.8960   34.5960   37.9960 O   0  0  0  0  0  0  0  0  0  0  0  0
   42.9830   33.8960   37.3240 H   0  0  0  0  0  0  0  0  0  0  0  0
   40.6950   34.4640   37.6780 O   0  0  0  0  0  0  0  0  0  0  0  0
   39.9020   33.9890   37.2900 H   0  0  0  0  0  0  0  0  0  0  0  0
   43.5030   34.3070   41.4940 O   0  0  0  0  0  0  0  0  0  0  0  0
   44.6840   34.3280   42.1190 C   0  0  0  0  0  0  0  0  0  0  0  0
   45.8720   34.5180   41.4170 C   0  0  0  0  0  0  0  0  0  0  0  0
   47.0750   34.5340   42.0960 C   0  0  0  0  0  0  0  0  0  0  0  0
   47.0680   34.3610   43.4630 N   0  0  0  0  0  0  0  0  0  0  0  0
   45.8960   34.1780   44.1260 C   0  0  0  0  0  0  0  0  0  0  0  0
   44.7150   34.1620   43.4540 N   0  0  0  0  0  0  0  0  0  0  0  0
   45.8900   34.6530   40.3500 H   0  0  0  0  0  0  0  0  0  0  0  0
   45.8960   34.0410   45.2080 H   0  0  0  0  0  0  0  0  0  0  0  0
   48.3830   34.7150   41.3880 C   0  0  0  0  0  0  0  0  0  0  0  0
   49.0760   36.0630   41.5710 C   0  0  0  0  0  0  0  0  0  0  0  0
   49.6120   34.7230   42.1220 C   0  0  0  0  0  0  0  0  0  0  0  0
   48.3160   34.4650   40.2960 H   0  0  0  0  0  0  0  0  0  0  0  0
   48.6150   36.7470   42.3220 H   0  0  0  0  0  0  0  0  0  0  0  0
   49.6820   36.4890   40.7700 H   0  0  0  0  0  0  0  0  0  0  0  0
   50.5550   34.3520   41.6980 H   0  0  0  0  0  0  0  0  0  0  0  0
   49.5610   34.5890   43.2250 H   0  0  0  0  0  0  0  0  0  0  0  0
   41.2590   32.2530   38.9690 O   0  0  0  0  0  0  0  0  0  0  0  0
   40.2650   31.3830   39.2700 C   0  0  0  0  0  0  0  0  0  0  0  0
   39.1720   31.3260   38.5530 O   0  0  0  0  0  0  0  0  0  0  0  0
   39.8450   30.3730   40.1400 O   0  0  0  0  0  0  0  0  0  0  0  0
   38.3950   29.7410   42.2240 O   0  0  0  0  0  0  0  0  0  0  0  0
   38.2830   30.3860   40.8470 P   0  0  0  0  0  0  0  0  0  0  0  0
   37.1130   29.6900   39.8870 O   0  0  0  0  0  0  0  0  0  0  0  0
   36.4170   29.1940   40.4130 H   0  0  0  0  0  0  0  0  0  0  0  0
   37.8520   32.0130   41.1690 O   0  0  0  0  0  0  0  0  0  0  0  0
   38.4500   32.4050   41.8550 H   0  0  0  0  0  0  0  0  0  0  0  0
  1  7  1  1  0  0  0
  1  6  1  0  0  0  0
  1  2  1  0  0  0  0
  2  8  1  6  0  0  0
  2  3  1  0  0  0  0
  2 17  1  0  0  0  0
  4 10  1  0  0  0  0
  4  3  1  0  0  0  0
  5 11  1  1  0  0  0
  5  4  1  0  0  0  0
  5  6  1  0  0  0  0
  6 12  1  1  0  0  0
  9  4  1  0  0  0  0
 13  1  1  0  0  0  0
 14 13  1  0  0  0  0
 15  5  1  0  0  0  0
 16 15  1  0  0  0  0
 17 18  1  0  0  0  0
 18 23  1  0  0  0  0
 19 20  1  0  0  0  0
 19 18  2  0  0  0  0
 20 21  2  0  0  0  0
 21 22  1  0  0  0  0
 22 25  1  0  0  0  0
 23 22  2  0  0  0  0
 24 19  1  0  0  0  0
 26 27  1  0  0  0  0
 26 20  1  0  0  0  0
 26 28  1  0  0  0  0
 27 28  1  0  0  0  0
 27 30  1  0  0  0  0
 28 33  1  0  0  0  0
 29 26  1  0  0  0  0
 31 27  1  0  0  0  0
 32 28  1  0  0  0  0
 34 35  1  0  0  0  0
 34  6  1  0  0  0  0
 35 37  1  0  0  0  0
 36 35  2  0  0  0  0
 37 39  1  0  0  0  0
 39 42  1  0  0  0  0
 39 38  2  0  0  0  0
 40 41  1  0  0  0  0
 40 39  1  0  0  0  0
 42 43  1  0  0  0  0
M  END
>  <minimizedAffinity>
-6.0305748

>  <minimizedRMSD>
1.4782033

$$$$
