
 OpenBabel03242523553D

 43 45  0  0  1  0  0  0  0  0999 V2000
   42.7850   34.4850   38.8020 C   0  0  1  0  0  0  0  0  0  0  0  0
   42.9440   35.2170   40.1270 C   0  0  1  0  0  0  0  0  0  0  0  0
   41.6590   35.5030   40.6300 O   0  0  0  0  0  0  0  0  0  0  0  0
   40.7450   35.8180   39.6230 C   0  0  0  0  0  0  0  0  0  0  0  0
   40.4090   34.6220   38.7610 C   0  0  2  0  0  0  0  0  0  0  0  0
   41.5900   33.6020   38.9430 C   0  0  1  0  0  0  0  0  0  0  0  0
   43.7170   33.9030   38.5670 H   0  0  0  0  0  0  0  0  0  0  0  0
   43.5570   36.1180   40.0510 H   0  0  0  0  0  0  0  0  0  0  0  0
   41.0660   36.6950   39.0290 H   0  0  0  0  0  0  0  0  0  0  0  0
   39.8210   36.1010   40.1550 H   0  0  0  0  0  0  0  0  0  0  0  0
   39.4740   34.1070   39.0520 H   0  0  0  0  0  0  0  0  0  0  0  0
   41.3670   33.3900   40.0390 H   0  0  0  0  0  0  0  0  0  0  0  0
   42.6010   35.3960   37.7530 O   0  0  0  0  0  0  0  0  0  0  0  0
   42.7650   34.9360   36.9100 H   0  0  0  0  0  0  0  0  0  0  0  0
   40.4380   34.9770   37.4240 O   0  0  0  0  0  0  0  0  0  0  0  0
   39.7140   34.4990   36.9220 H   0  0  0  0  0  0  0  0  0  0  0  0
   43.4380   34.2570   41.0230 O   0  0  0  0  0  0  0  0  0  0  0  0
   44.5560   34.3840   41.7440 C   0  0  0  0  0  0  0  0  0  0  0  0
   45.8050   34.4750   41.1350 C   0  0  0  0  0  0  0  0  0  0  0  0
   46.9400   34.6050   41.9110 C   0  0  0  0  0  0  0  0  0  0  0  0
   46.8050   34.6430   43.2820 N   0  0  0  0  0  0  0  0  0  0  0  0
   45.5750   34.5520   43.8540 C   0  0  0  0  0  0  0  0  0  0  0  0
   44.4620   34.4230   43.0850 N   0  0  0  0  0  0  0  0  0  0  0  0
   45.9230   34.4470   40.0650 H   0  0  0  0  0  0  0  0  0  0  0  0
   45.4740   34.5810   44.9400 H   0  0  0  0  0  0  0  0  0  0  0  0
   48.3090   34.6890   41.3080 C   0  0  0  0  0  0  0  0  0  0  0  0
   49.0600   36.0040   41.5000 C   0  0  0  0  0  0  0  0  0  0  0  0
   49.4730   34.6610   42.1410 C   0  0  0  0  0  0  0  0  0  0  0  0
   48.3170   34.3990   40.2240 H   0  0  0  0  0  0  0  0  0  0  0  0
   48.5780   36.7410   42.1860 H   0  0  0  0  0  0  0  0  0  0  0  0
   49.7510   36.3650   40.7380 H   0  0  0  0  0  0  0  0  0  0  0  0
   50.4250   34.2240   41.8090 H   0  0  0  0  0  0  0  0  0  0  0  0
   49.3260   34.5740   43.2400 H   0  0  0  0  0  0  0  0  0  0  0  0
   41.4280   32.6280   38.0330 O   0  0  0  0  0  0  0  0  0  0  0  0
   40.6970   31.4910   38.1290 C   0  0  0  0  0  0  0  0  0  0  0  0
   39.5900   31.3370   37.4510 O   0  0  0  0  0  0  0  0  0  0  0  0
   40.6060   30.2290   38.7240 O   0  0  0  0  0  0  0  0  0  0  0  0
   42.2490   28.2500   39.1940 O   0  0  0  0  0  0  0  0  0  0  0  0
   41.8490   29.6180   39.7330 P   0  0  0  0  0  0  0  0  0  0  0  0
   41.4410   29.5940   41.3490 O   0  0  0  0  0  0  0  0  0  0  0  0
   41.8230   28.8070   41.8390 H   0  0  0  0  0  0  0  0  0  0  0  0
   43.2430   30.5890   39.5190 O   0  0  0  0  0  0  0  0  0  0  0  0
   43.5920   30.5010   38.5960 H   0  0  0  0  0  0  0  0  0  0  0  0
  1  7  1  6  0  0  0
  1  6  1  0  0  0  0
  1  2  1  0  0  0  0
  2  8  1  6  0  0  0
  2  3  1  0  0  0  0
  2 17  1  0  0  0  0
  4 10  1  0  0  0  0
  4  3  1  0  0  0  0
  5  6  1  0  0  0  0
  5 11  1  1  0  0  0
  5  4  1  0  0  0  0
  6 12  1  1  0  0  0
  9  4  1  0  0  0  0
 13  1  1  0  0  0  0
 14 13  1  0  0  0  0
 15  5  1  0  0  0  0
 16 15  1  0  0  0  0
 17 18  1  0  0  0  0
 18 23  1  0  0  0  0
 19 18  2  0  0  0  0
 19 20  1  0  0  0  0
 20 21  2  0  0  0  0
 21 22  1  0  0  0  0
 22 25  1  0  0  0  0
 23 22  2  0  0  0  0
 24 19  1  0  0  0  0
 26 27  1  0  0  0  0
 26 20  1  0  0  0  0
 26 28  1  0  0  0  0
 27 28  1  0  0  0  0
 27 30  1  0  0  0  0
 28 33  1  0  0  0  0
 29 26  1  0  0  0  0
 31 27  1  0  0  0  0
 32 28  1  0  0  0  0
 34 35  1  0  0  0  0
 34  6  1  0  0  0  0
 35 37  1  0  0  0  0
 36 35  2  0  0  0  0
 37 39  1  0  0  0  0
 38 39  2  0  0  0  0
 39 40  1  0  0  0  0
 40 41  1  0  0  0  0
 42 39  1  0  0  0  0
 43 42  1  0  0  0  0
M  END
>  <minimizedAffinity>
-5.40181684

>  <minimizedRMSD>
0.468642622

$$$$
