
 OpenBabel03252508013D

 27 28  0  0  1  0  0  0  0  0999 V2000
   46.2030   34.5350   43.4200 C   0  0  0  0  0  0  0  0  0  0  0  0
   45.2940   35.5470   43.7840 C   0  0  0  0  0  0  0  0  0  0  0  0
   44.6810   35.4460   45.0380 C   0  0  0  0  0  0  0  0  0  0  0  0
   45.0040   34.3800   45.8140 N   0  0  0  0  0  0  0  0  0  0  0  0
   45.8950   33.4310   45.3970 C   0  0  0  0  0  0  0  0  0  0  0  0
   46.5040   33.4790   44.2210 N   0  0  0  0  0  0  0  0  0  0  0  0
   45.0760   36.3670   43.1320 H   0  0  0  0  0  0  0  0  0  0  0  0
   43.9850   36.2000   45.3460 H   0  0  0  0  0  0  0  0  0  0  0  0
   46.2110   32.2950   46.3210 C   0  0  1  0  0  0  0  0  0  0  0  0
   47.0450   32.5590   47.5530 C   0  0  0  0  0  0  0  0  0  0  0  0
   45.5530   32.3800   47.6410 C   0  0  1  0  0  0  0  0  0  0  0  0
   46.3830   31.3130   45.8700 H   0  0  0  0  0  0  0  0  0  0  0  0
   47.6740   31.7250   47.9210 H   0  0  0  0  0  0  0  0  0  0  0  0
   47.5090   33.5580   47.6370 H   0  0  0  0  0  0  0  0  0  0  0  0
   45.2150   31.5210   48.2160 H   0  0  0  0  0  0  0  0  0  0  0  0
   44.8910   33.6310   48.0360 N   0  0  0  0  0  0  0  0  0  0  0  0
   45.2060   33.8460   49.0160 H   0  0  0  0  0  0  0  0  0  0  0  0
   43.8510   33.4930   48.0900 H   0  0  0  0  0  0  0  0  0  0  0  0
   46.8110   34.7020   42.1230 C   0  0  0  0  0  0  0  0  0  0  0  0
   47.6800   35.6060   41.8540 O   0  0  0  0  0  0  0  0  0  0  0  0
   46.4480   33.8380   41.0720 O   0  0  0  0  0  0  0  0  0  0  0  0
   44.7310   33.0850   39.1600 O   0  0  0  0  0  0  0  0  0  0  0  0
   44.8220   33.7190   40.5180 P   0  0  0  0  0  0  0  0  0  0  0  0
   43.9920   32.7900   41.6800 O   0  0  0  0  0  0  0  0  0  0  0  0
   44.3250   33.0140   42.5850 H   0  0  0  0  0  0  0  0  0  0  0  0
   44.0860   35.2500   40.5250 O   0  0  0  0  0  0  0  0  0  0  0  0
   43.8600   35.4660   41.4730 H   0  0  0  0  0  0  0  0  0  0  0  0
  1  2  2  0  0  0  0
  1  6  1  0  0  0  0
  2  3  1  0  0  0  0
  3  8  1  0  0  0  0
  3  4  2  0  0  0  0
  5  4  1  0  0  0  0
  5  9  1  0  0  0  0
  6  5  2  0  0  0  0
  7  2  1  0  0  0  0
  9 12  1  6  0  0  0
  9 10  1  0  0  0  0
  9 11  1  0  0  0  0
 10 14  1  0  0  0  0
 10 11  1  0  0  0  0
 10 13  1  0  0  0  0
 11 16  1  0  0  0  0
 11 15  1  1  0  0  0
 16 18  1  0  0  0  0
 16 17  1  0  0  0  0
 19  1  1  0  0  0  0
 20 19  2  0  0  0  0
 21 19  1  0  0  0  0
 22 23  2  0  0  0  0
 23 26  1  0  0  0  0
 23 21  1  0  0  0  0
 23 24  1  0  0  0  0
 24 25  1  0  0  0  0
 26 27  1  0  0  0  0
M  END
>  <minimizedAffinity>
-4.94544888

>  <minimizedRMSD>
0.884462297

$$$$
