
 OpenBabel03242519353D

 38 39  0  0  0  0  0  0  0  0999 V2000
   39.6740   27.6250   43.0940 C   0  0  0  0  0  0  0  0  0  0  0  0
   39.0050   28.7630   42.6680 C   0  0  0  0  0  0  0  0  0  0  0  0
   39.7090   29.9110   42.3590 C   0  0  0  0  0  0  0  0  0  0  0  0
   41.0750   29.8430   42.5090 N   0  0  0  0  0  0  0  0  0  0  0  0
   41.7130   28.7170   42.9350 C   0  0  0  0  0  0  0  0  0  0  0  0
   41.0220   27.6240   43.2220 N   0  0  0  0  0  0  0  0  0  0  0  0
   43.1320   28.7820   43.0810 N   0  0  0  0  0  0  0  0  0  0  0  0
   37.8080   30.7000   41.2550 C   0  0  0  0  0  0  0  0  0  0  0  0
   37.4590   29.4990   41.2060 O   0  0  0  0  0  0  0  0  0  0  0  0
   39.0610   31.0750   41.8880 N   0  0  0  0  0  0  0  0  0  0  0  0
   37.9520   28.5590   42.7030 H   0  0  0  0  0  0  0  0  0  0  0  0
   43.3720   29.5290   43.7960 H   0  0  0  0  0  0  0  0  0  0  0  0
   43.6890   28.1210   42.4970 H   0  0  0  0  0  0  0  0  0  0  0  0
   39.4400   32.0160   41.9950 H   0  0  0  0  0  0  0  0  0  0  0  0
   38.8680   26.3870   43.3230 C   0  0  0  0  0  0  0  0  0  0  0  0
   39.7070   25.1740   43.2240 C   0  0  0  0  0  0  0  0  0  0  0  0
   39.3690   24.3780   41.9970 C   0  0  0  0  0  0  0  0  0  0  0  0
   37.9060   24.0050   41.9120 C   0  0  0  0  0  0  0  0  0  0  0  0
   36.9870   25.0970   42.3230 C   0  0  0  0  0  0  0  0  0  0  0  0
   37.6850   26.4320   42.4150 C   0  0  0  0  0  0  0  0  0  0  0  0
   38.4960   26.4990   44.3840 H   0  0  0  0  0  0  0  0  0  0  0  0
   39.5020   24.5110   44.0890 H   0  0  0  0  0  0  0  0  0  0  0  0
   40.7910   25.3270   43.2040 H   0  0  0  0  0  0  0  0  0  0  0  0
   39.6920   24.9200   41.0900 H   0  0  0  0  0  0  0  0  0  0  0  0
   39.9810   23.4410   42.0570 H   0  0  0  0  0  0  0  0  0  0  0  0
   37.7820   23.0850   42.5350 H   0  0  0  0  0  0  0  0  0  0  0  0
   37.7250   23.7040   40.8590 H   0  0  0  0  0  0  0  0  0  0  0  0
   36.6360   24.8680   43.3710 H   0  0  0  0  0  0  0  0  0  0  0  0
   36.1100   25.2100   41.6570 H   0  0  0  0  0  0  0  0  0  0  0  0
   36.9300   27.1560   42.7500 H   0  0  0  0  0  0  0  0  0  0  0  0
   38.0720   26.7120   41.4020 H   0  0  0  0  0  0  0  0  0  0  0  0
   37.0490   31.8190   40.7150 O   0  0  0  0  0  0  0  0  0  0  0  0
   39.0110   32.6380   39.1370 O   0  0  0  0  0  0  0  0  0  0  0  0
   37.9550   33.1520   40.0750 P   0  0  0  0  0  0  0  0  0  0  0  0
   38.6320   33.9960   41.3750 O   0  0  0  0  0  0  0  0  0  0  0  0
   38.8530   33.4020   42.1290 H   0  0  0  0  0  0  0  0  0  0  0  0
   36.9360   34.1610   39.1620 O   0  0  0  0  0  0  0  0  0  0  0  0
   36.3180   34.6700   39.7450 H   0  0  0  0  0  0  0  0  0  0  0  0
  1  6  1  0  0  0  0
  1 15  1  0  0  0  0
  2 11  1  0  0  0  0
  2  1  2  0  0  0  0
  3  4  2  0  0  0  0
  3  2  1  0  0  0  0
  4  5  1  0  0  0  0
  5  7  1  0  0  0  0
  5  6  2  0  0  0  0
  7 12  1  0  0  0  0
  8 10  1  0  0  0  0
  9  8  2  0  0  0  0
 10 14  1  0  0  0  0
 10  3  1  0  0  0  0
 13  7  1  0  0  0  0
 15 21  1  0  0  0  0
 16 15  1  0  0  0  0
 16 22  1  0  0  0  0
 17 25  1  0  0  0  0
 17 16  1  0  0  0  0
 18 17  1  0  0  0  0
 18 19  1  0  0  0  0
 18 26  1  0  0  0  0
 19 20  1  0  0  0  0
 19 28  1  0  0  0  0
 20 30  1  0  0  0  0
 20 15  1  0  0  0  0
 23 16  1  0  0  0  0
 24 17  1  0  0  0  0
 27 18  1  0  0  0  0
 29 19  1  0  0  0  0
 31 20  1  0  0  0  0
 32  8  1  0  0  0  0
 33 34  2  0  0  0  0
 34 32  1  0  0  0  0
 34 35  1  0  0  0  0
 35 36  1  0  0  0  0
 37 38  1  0  0  0  0
 37 34  1  0  0  0  0
M  END
>  <minimizedAffinity>
-6.06166363

$$$$

 OpenBabel03242519353D

 38 39  0  0  0  0  0  0  0  0999 V2000
   38.9630   24.8620   42.2350 C   0  0  0  0  0  0  0  0  0  0  0  0
   38.6870   26.2200   42.2760 C   0  0  0  0  0  0  0  0  0  0  0  0
   39.6580   27.1180   42.6790 C   0  0  0  0  0  0  0  0  0  0  0  0
   40.8720   26.5780   43.0320 N   0  0  0  0  0  0  0  0  0  0  0  0
   41.1220   25.2400   42.9910 C   0  0  0  0  0  0  0  0  0  0  0  0
   40.1820   24.3950   42.5970 N   0  0  0  0  0  0  0  0  0  0  0  0
   42.4140   24.8000   43.4130 N   0  0  0  0  0  0  0  0  0  0  0  0
   38.3720   28.8270   41.7400 C   0  0  0  0  0  0  0  0  0  0  0  0
   37.8320   27.9190   41.0700 O   0  0  0  0  0  0  0  0  0  0  0  0
   39.4190   28.5110   42.6970 N   0  0  0  0  0  0  0  0  0  0  0  0
   37.6550   26.3560   42.0130 H   0  0  0  0  0  0  0  0  0  0  0  0
   42.5620   25.0840   44.4240 H   0  0  0  0  0  0  0  0  0  0  0  0
   42.9860   24.2930   42.7020 H   0  0  0  0  0  0  0  0  0  0  0  0
   39.9190   29.1630   43.3010 H   0  0  0  0  0  0  0  0  0  0  0  0
   37.9050   23.9500   41.7020 C   0  0  0  0  0  0  0  0  0  0  0  0
   38.4840   22.9120   40.8230 C   0  0  0  0  0  0  0  0  0  0  0  0
   38.0920   23.1330   39.3910 C   0  0  0  0  0  0  0  0  0  0  0  0
   36.5960   23.2110   39.1870 C   0  0  0  0  0  0  0  0  0  0  0  0
   35.8890   23.9820   40.2410 C   0  0  0  0  0  0  0  0  0  0  0  0
   36.8360   24.7930   41.0920 C   0  0  0  0  0  0  0  0  0  0  0  0
   37.4780   23.4620   42.6280 H   0  0  0  0  0  0  0  0  0  0  0  0
   38.0770   21.9200   41.1070 H   0  0  0  0  0  0  0  0  0  0  0  0
   39.5740   22.8120   40.8340 H   0  0  0  0  0  0  0  0  0  0  0  0
   38.5930   24.0340   38.9940 H   0  0  0  0  0  0  0  0  0  0  0  0
   38.4920   22.2540   38.8220 H   0  0  0  0  0  0  0  0  0  0  0  0
   36.2350   22.1550   39.1160 H   0  0  0  0  0  0  0  0  0  0  0  0
   36.4440   23.6670   38.1860 H   0  0  0  0  0  0  0  0  0  0  0  0
   35.4130   23.2380   40.9440 H   0  0  0  0  0  0  0  0  0  0  0  0
   35.1110   24.6630   39.8440 H   0  0  0  0  0  0  0  0  0  0  0  0
   36.2200   25.2970   41.8490 H   0  0  0  0  0  0  0  0  0  0  0  0
   37.3530   25.5460   40.4460 H   0  0  0  0  0  0  0  0  0  0  0  0
   38.0430   30.2440   41.6570 O   0  0  0  0  0  0  0  0  0  0  0  0
   37.1100   30.2430   39.1790 O   0  0  0  0  0  0  0  0  0  0  0  0
   36.7680   30.6950   40.5710 P   0  0  0  0  0  0  0  0  0  0  0  0
   36.5790   32.3740   40.6550 O   0  0  0  0  0  0  0  0  0  0  0  0
   37.4310   32.8350   40.8370 H   0  0  0  0  0  0  0  0  0  0  0  0
   35.3290   29.9010   41.0060 O   0  0  0  0  0  0  0  0  0  0  0  0
   34.9500   30.2750   41.8410 H   0  0  0  0  0  0  0  0  0  0  0  0
  1  2  2  0  0  0  0
  1  6  1  0  0  0  0
  2  3  1  0  0  0  0
  3 10  1  0  0  0  0
  3  4  2  0  0  0  0
  5  4  1  0  0  0  0
  5  7  1  0  0  0  0
  6  5  2  0  0  0  0
  7 12  1  0  0  0  0
  8 10  1  0  0  0  0
  9  8  2  0  0  0  0
 10 14  1  0  0  0  0
 11  2  1  0  0  0  0
 13  7  1  0  0  0  0
 15  1  1  0  0  0  0
 15 21  1  0  0  0  0
 16 23  1  0  0  0  0
 16 22  1  0  0  0  0
 16 15  1  0  0  0  0
 17 16  1  0  0  0  0
 18 17  1  0  0  0  0
 18 19  1  0  0  0  0
 19 28  1  0  0  0  0
 19 20  1  0  0  0  0
 20 15  1  0  0  0  0
 20 30  1  0  0  0  0
 24 17  1  0  0  0  0
 25 17  1  0  0  0  0
 26 18  1  0  0  0  0
 27 18  1  0  0  0  0
 29 19  1  0  0  0  0
 31 20  1  0  0  0  0
 32  8  1  0  0  0  0
 33 34  2  0  0  0  0
 34 35  1  0  0  0  0
 34 37  1  0  0  0  0
 34 32  1  0  0  0  0
 35 36  1  0  0  0  0
 37 38  1  0  0  0  0
M  END
>  <minimizedAffinity>
-5.98552942

$$$$

 OpenBabel03242519353D

 38 39  0  0  0  0  0  0  0  0999 V2000
   36.7030   29.8300   40.7150 C   0  0  0  0  0  0  0  0  0  0  0  0
   36.5860   29.4050   39.4000 C   0  0  0  0  0  0  0  0  0  0  0  0
   36.6920   30.3120   38.3620 C   0  0  0  0  0  0  0  0  0  0  0  0
   36.9080   31.6210   38.7220 N   0  0  0  0  0  0  0  0  0  0  0  0
   37.0130   32.0200   40.0200 C   0  0  0  0  0  0  0  0  0  0  0  0
   36.9140   31.1370   41.0020 N   0  0  0  0  0  0  0  0  0  0  0  0
   37.2050   33.4140   40.2650 N   0  0  0  0  0  0  0  0  0  0  0  0
   37.0060   28.5100   36.9090 C   0  0  0  0  0  0  0  0  0  0  0  0
   37.3310   27.8680   37.9330 O   0  0  0  0  0  0  0  0  0  0  0  0
   36.6140   29.9050   37.0100 N   0  0  0  0  0  0  0  0  0  0  0  0
   36.3590   28.3560   39.4110 H   0  0  0  0  0  0  0  0  0  0  0  0
   36.3780   33.9500   39.8730 H   0  0  0  0  0  0  0  0  0  0  0  0
   38.0800   33.6800   40.7670 H   0  0  0  0  0  0  0  0  0  0  0  0
   36.3210   30.5200   36.2510 H   0  0  0  0  0  0  0  0  0  0  0  0
   36.6720   28.7910   41.7890 C   0  0  0  0  0  0  0  0  0  0  0  0
   37.6050   29.1250   42.8860 C   0  0  0  0  0  0  0  0  0  0  0  0
   38.7720   28.1800   42.9140 C   0  0  0  0  0  0  0  0  0  0  0  0
   38.3600   26.7280   43.0060 C   0  0  0  0  0  0  0  0  0  0  0  0
   37.1900   26.3830   42.1590 C   0  0  0  0  0  0  0  0  0  0  0  0
   36.8770   27.4590   41.1480 C   0  0  0  0  0  0  0  0  0  0  0  0
   35.6110   28.8310   42.1740 H   0  0  0  0  0  0  0  0  0  0  0  0
   37.0870   29.0070   43.8600 H   0  0  0  0  0  0  0  0  0  0  0  0
   38.0260   30.1350   42.8810 H   0  0  0  0  0  0  0  0  0  0  0  0
   39.4220   28.3510   42.0380 H   0  0  0  0  0  0  0  0  0  0  0  0
   39.3650   28.4490   43.8250 H   0  0  0  0  0  0  0  0  0  0  0  0
   38.1770   26.5230   44.0910 H   0  0  0  0  0  0  0  0  0  0  0  0
   39.2530   26.1350   42.7170 H   0  0  0  0  0  0  0  0  0  0  0  0
   36.2870   26.3300   42.8340 H   0  0  0  0  0  0  0  0  0  0  0  0
   37.3040   25.4230   41.6190 H   0  0  0  0  0  0  0  0  0  0  0  0
   35.9880   27.1200   40.5990 H   0  0  0  0  0  0  0  0  0  0  0  0
   37.7460   27.5710   40.4520 H   0  0  0  0  0  0  0  0  0  0  0  0
   36.9770   27.9750   35.5550 O   0  0  0  0  0  0  0  0  0  0  0  0
   34.7210   29.1660   34.8500 O   0  0  0  0  0  0  0  0  0  0  0  0
   36.1150   28.8910   34.3620 P   0  0  0  0  0  0  0  0  0  0  0  0
   36.1100   28.0020   32.9220 O   0  0  0  0  0  0  0  0  0  0  0  0
   36.0970   27.0310   33.0860 H   0  0  0  0  0  0  0  0  0  0  0  0
   36.8650   30.4010   34.1380 O   0  0  0  0  0  0  0  0  0  0  0  0
   37.7250   30.3080   33.6580 H   0  0  0  0  0  0  0  0  0  0  0  0
  1  6  1  0  0  0  0
  1 15  1  0  0  0  0
  2 11  1  0  0  0  0
  2  1  2  0  0  0  0
  3  4  2  0  0  0  0
  3  2  1  0  0  0  0
  4  5  1  0  0  0  0
  5  7  1  0  0  0  0
  5  6  2  0  0  0  0
  7 13  1  0  0  0  0
  8 10  1  0  0  0  0
  8  9  2  0  0  0  0
 10  3  1  0  0  0  0
 12  7  1  0  0  0  0
 14 10  1  0  0  0  0
 15 21  1  0  0  0  0
 15 16  1  0  0  0  0
 16 17  1  0  0  0  0
 16 22  1  0  0  0  0
 17 18  1  0  0  0  0
 17 25  1  0  0  0  0
 18 26  1  0  0  0  0
 19 28  1  0  0  0  0
 19 18  1  0  0  0  0
 20 15  1  0  0  0  0
 20 19  1  0  0  0  0
 23 16  1  0  0  0  0
 24 17  1  0  0  0  0
 27 18  1  0  0  0  0
 29 19  1  0  0  0  0
 30 20  1  0  0  0  0
 31 20  1  0  0  0  0
 32  8  1  0  0  0  0
 34 33  2  0  0  0  0
 34 32  1  0  0  0  0
 35 36  1  0  0  0  0
 35 34  1  0  0  0  0
 37 34  1  0  0  0  0
 38 37  1  0  0  0  0
M  END
>  <minimizedAffinity>
-5.9328289

$$$$

 OpenBabel03242519353D

 38 39  0  0  0  0  0  0  0  0999 V2000
   37.2150   28.0240   41.4160 C   0  0  0  0  0  0  0  0  0  0  0  0
   38.1720   28.7300   40.7040 C   0  0  0  0  0  0  0  0  0  0  0  0
   37.7920   29.6750   39.7700 C   0  0  0  0  0  0  0  0  0  0  0  0
   36.4380   29.8480   39.6010 N   0  0  0  0  0  0  0  0  0  0  0  0
   35.5120   29.1390   40.3050 C   0  0  0  0  0  0  0  0  0  0  0  0
   35.8950   28.2410   41.2000 N   0  0  0  0  0  0  0  0  0  0  0  0
   34.1350   29.3870   40.0150 N   0  0  0  0  0  0  0  0  0  0  0  0
   39.9710   30.5130   39.8280 C   0  0  0  0  0  0  0  0  0  0  0  0
   40.0560   29.9410   40.9380 O   0  0  0  0  0  0  0  0  0  0  0  0
   38.7430   30.4380   39.0550 N   0  0  0  0  0  0  0  0  0  0  0  0
   39.1380   28.3540   40.9860 H   0  0  0  0  0  0  0  0  0  0  0  0
   33.9500   29.1580   38.9970 H   0  0  0  0  0  0  0  0  0  0  0  0
   33.5510   29.7360   40.8060 H   0  0  0  0  0  0  0  0  0  0  0  0
   38.5640   30.8520   38.1410 H   0  0  0  0  0  0  0  0  0  0  0  0
   37.6860   27.0830   42.4780 C   0  0  0  0  0  0  0  0  0  0  0  0
   38.4410   27.7960   43.5300 C   0  0  0  0  0  0  0  0  0  0  0  0
   39.8990   27.4420   43.4880 C   0  0  0  0  0  0  0  0  0  0  0  0
   40.1550   25.9550   43.5830 C   0  0  0  0  0  0  0  0  0  0  0  0
   39.2030   25.1330   42.7910 C   0  0  0  0  0  0  0  0  0  0  0  0
   38.4090   25.9610   41.8110 C   0  0  0  0  0  0  0  0  0  0  0  0
   36.7310   26.6690   42.9160 H   0  0  0  0  0  0  0  0  0  0  0  0
   38.0730   27.4780   44.5280 H   0  0  0  0  0  0  0  0  0  0  0  0
   38.3880   28.8890   43.5170 H   0  0  0  0  0  0  0  0  0  0  0  0
   40.3680   27.8670   42.5820 H   0  0  0  0  0  0  0  0  0  0  0  0
   40.3660   27.9490   44.3710 H   0  0  0  0  0  0  0  0  0  0  0  0
   40.1320   25.7030   44.6720 H   0  0  0  0  0  0  0  0  0  0  0  0
   41.2000   25.7990   43.2420 H   0  0  0  0  0  0  0  0  0  0  0  0
   38.4450   24.7060   43.5100 H   0  0  0  0  0  0  0  0  0  0  0  0
   39.6900   24.3090   42.2350 H   0  0  0  0  0  0  0  0  0  0  0  0
   37.7240   25.2680   41.3030 H   0  0  0  0  0  0  0  0  0  0  0  0
   39.1100   26.4270   41.0730 H   0  0  0  0  0  0  0  0  0  0  0  0
   41.0310   31.2890   39.1980 O   0  0  0  0  0  0  0  0  0  0  0  0
   41.7520   33.5910   38.1080 O   0  0  0  0  0  0  0  0  0  0  0  0
   40.5560   32.7060   38.3190 P   0  0  0  0  0  0  0  0  0  0  0  0
   39.3470   33.4900   39.2040 O   0  0  0  0  0  0  0  0  0  0  0  0
   39.4630   33.3730   40.1750 H   0  0  0  0  0  0  0  0  0  0  0  0
   39.9900   32.2680   36.7760 O   0  0  0  0  0  0  0  0  0  0  0  0
   39.1060   31.8250   36.8300 H   0  0  0  0  0  0  0  0  0  0  0  0
  1 15  1  0  0  0  0
  2 11  1  0  0  0  0
  2  1  2  0  0  0  0
  3  2  1  0  0  0  0
  4  3  2  0  0  0  0
  4  5  1  0  0  0  0
  5  6  2  0  0  0  0
  6  1  1  0  0  0  0
  7  5  1  0  0  0  0
  7 13  1  0  0  0  0
  8  9  2  0  0  0  0
 10  3  1  0  0  0  0
 10  8  1  0  0  0  0
 12  7  1  0  0  0  0
 14 10  1  0  0  0  0
 15 21  1  0  0  0  0
 15 16  1  0  0  0  0
 16 22  1  0  0  0  0
 17 16  1  0  0  0  0
 17 18  1  0  0  0  0
 17 25  1  0  0  0  0
 18 26  1  0  0  0  0
 19 28  1  0  0  0  0
 19 18  1  0  0  0  0
 20 15  1  0  0  0  0
 20 19  1  0  0  0  0
 23 16  1  0  0  0  0
 24 17  1  0  0  0  0
 27 18  1  0  0  0  0
 29 19  1  0  0  0  0
 30 20  1  0  0  0  0
 31 20  1  0  0  0  0
 32  8  1  0  0  0  0
 33 34  2  0  0  0  0
 34 32  1  0  0  0  0
 34 35  1  0  0  0  0
 35 36  1  0  0  0  0
 37 38  1  0  0  0  0
 37 34  1  0  0  0  0
M  END
>  <minimizedAffinity>
-5.84222221

$$$$

 OpenBabel03242519353D

 38 39  0  0  0  0  0  0  0  0999 V2000
   38.0680   31.0460   41.0040 C   0  0  0  0  0  0  0  0  0  0  0  0
   37.6180   31.0550   39.6930 C   0  0  0  0  0  0  0  0  0  0  0  0
   38.1350   31.9580   38.7830 C   0  0  0  0  0  0  0  0  0  0  0  0
   39.0910   32.8220   39.2650 N   0  0  0  0  0  0  0  0  0  0  0  0
   39.5160   32.8010   40.5590 C   0  0  0  0  0  0  0  0  0  0  0  0
   39.0130   31.9250   41.4160 N   0  0  0  0  0  0  0  0  0  0  0  0
   40.4910   33.7710   40.9460 N   0  0  0  0  0  0  0  0  0  0  0  0
   37.2360   30.6490   37.0710 C   0  0  0  0  0  0  0  0  0  0  0  0
   37.2210   29.7270   37.9180 O   0  0  0  0  0  0  0  0  0  0  0  0
   37.7240   31.9690   37.4310 N   0  0  0  0  0  0  0  0  0  0  0  0
   36.8330   30.3270   39.6070 H   0  0  0  0  0  0  0  0  0  0  0  0
   40.0910   34.7410   40.7960 H   0  0  0  0  0  0  0  0  0  0  0  0
   41.4000   33.3990   41.2990 H   0  0  0  0  0  0  0  0  0  0  0  0
   37.7730   32.7930   36.8320 H   0  0  0  0  0  0  0  0  0  0  0  0
   37.5400   29.9860   41.9160 C   0  0  0  0  0  0  0  0  0  0  0  0
   38.5520   29.5830   42.9150 C   0  0  0  0  0  0  0  0  0  0  0  0
   39.0490   28.1900   42.6540 C   0  0  0  0  0  0  0  0  0  0  0  0
   37.9410   27.1640   42.5950 C   0  0  0  0  0  0  0  0  0  0  0  0
   36.7310   27.6310   41.8710 C   0  0  0  0  0  0  0  0  0  0  0  0
   36.9890   28.8850   41.0730 C   0  0  0  0  0  0  0  0  0  0  0  0
   36.6740   30.4880   42.4410 H   0  0  0  0  0  0  0  0  0  0  0  0
   38.0890   29.5640   43.9230 H   0  0  0  0  0  0  0  0  0  0  0  0
   39.4400   30.2170   42.9960 H   0  0  0  0  0  0  0  0  0  0  0  0
   39.6570   28.1690   41.7320 H   0  0  0  0  0  0  0  0  0  0  0  0
   39.7310   27.9410   43.5070 H   0  0  0  0  0  0  0  0  0  0  0  0
   37.7210   26.8800   43.6550 H   0  0  0  0  0  0  0  0  0  0  0  0
   38.3770   26.2660   42.1090 H   0  0  0  0  0  0  0  0  0  0  0  0
   35.9620   27.9190   42.6460 H   0  0  0  0  0  0  0  0  0  0  0  0
   36.3020   26.8690   41.1920 H   0  0  0  0  0  0  0  0  0  0  0  0
   36.0330   29.1580   40.6040 H   0  0  0  0  0  0  0  0  0  0  0  0
   37.7590   28.6680   40.2900 H   0  0  0  0  0  0  0  0  0  0  0  0
   36.7910   30.5290   35.6890 O   0  0  0  0  0  0  0  0  0  0  0  0
   35.4710   28.2440   35.4810 O   0  0  0  0  0  0  0  0  0  0  0  0
   36.7240   28.9320   35.0170 P   0  0  0  0  0  0  0  0  0  0  0  0
   38.1130   28.1000   35.5080 O   0  0  0  0  0  0  0  0  0  0  0  0
   38.4210   28.3840   36.3990 H   0  0  0  0  0  0  0  0  0  0  0  0
   36.6380   29.0200   33.3220 O   0  0  0  0  0  0  0  0  0  0  0  0
   37.5010   29.3070   32.9320 H   0  0  0  0  0  0  0  0  0  0  0  0
  1  6  1  0  0  0  0
  1 15  1  0  0  0  0
  2  1  2  0  0  0  0
  3  4  2  0  0  0  0
  3  2  1  0  0  0  0
  4  5  1  0  0  0  0
  5  7  1  0  0  0  0
  5  6  2  0  0  0  0
  7 13  1  0  0  0  0
  8 10  1  0  0  0  0
  8  9  2  0  0  0  0
 10  3  1  0  0  0  0
 11  2  1  0  0  0  0
 12  7  1  0  0  0  0
 14 10  1  0  0  0  0
 15 21  1  0  0  0  0
 15 16  1  0  0  0  0
 16 23  1  0  0  0  0
 16 22  1  0  0  0  0
 17 16  1  0  0  0  0
 17 25  1  0  0  0  0
 18 17  1  0  0  0  0
 18 26  1  0  0  0  0
 19 18  1  0  0  0  0
 19 28  1  0  0  0  0
 20 19  1  0  0  0  0
 20 15  1  0  0  0  0
 24 17  1  0  0  0  0
 27 18  1  0  0  0  0
 29 19  1  0  0  0  0
 30 20  1  0  0  0  0
 31 20  1  0  0  0  0
 32  8  1  0  0  0  0
 34 33  2  0  0  0  0
 34 35  1  0  0  0  0
 34 32  1  0  0  0  0
 35 36  1  0  0  0  0
 37 34  1  0  0  0  0
 38 37  1  0  0  0  0
M  END
>  <minimizedAffinity>
-5.68992043

$$$$

 OpenBabel03242519353D

 38 39  0  0  0  0  0  0  0  0999 V2000
   42.2410   30.5830   37.0560 C   0  0  0  0  0  0  0  0  0  0  0  0
   41.0300   30.5840   37.7320 C   0  0  0  0  0  0  0  0  0  0  0  0
   40.4210   31.7770   38.0700 C   0  0  0  0  0  0  0  0  0  0  0  0
   41.0890   32.9230   37.7050 N   0  0  0  0  0  0  0  0  0  0  0  0
   42.2810   32.9010   37.0470 C   0  0  0  0  0  0  0  0  0  0  0  0
   42.8480   31.7480   36.7260 N   0  0  0  0  0  0  0  0  0  0  0  0
   42.8910   34.1590   36.7520 N   0  0  0  0  0  0  0  0  0  0  0  0
   38.4440   30.5880   38.4330 C   0  0  0  0  0  0  0  0  0  0  0  0
   38.9570   29.7070   37.7070 O   0  0  0  0  0  0  0  0  0  0  0  0
   39.1690   31.8120   38.7260 N   0  0  0  0  0  0  0  0  0  0  0  0
   40.7700   29.5640   37.9440 H   0  0  0  0  0  0  0  0  0  0  0  0
   43.0800   34.6720   37.6610 H   0  0  0  0  0  0  0  0  0  0  0  0
   43.0520   34.3710   35.7430 H   0  0  0  0  0  0  0  0  0  0  0  0
   38.8580   32.5890   39.3080 H   0  0  0  0  0  0  0  0  0  0  0  0
   42.8050   29.2640   36.6350 C   0  0  0  0  0  0  0  0  0  0  0  0
   42.3870   28.1840   37.5530 C   0  0  0  0  0  0  0  0  0  0  0  0
   43.5460   27.6810   38.3640 C   0  0  0  0  0  0  0  0  0  0  0  0
   44.7110   27.2200   37.5170 C   0  0  0  0  0  0  0  0  0  0  0  0
   44.9900   28.1020   36.3540 C   0  0  0  0  0  0  0  0  0  0  0  0
   44.2770   29.4280   36.4570 C   0  0  0  0  0  0  0  0  0  0  0  0
   42.3490   29.0880   35.6160 H   0  0  0  0  0  0  0  0  0  0  0  0
   42.0220   27.3180   36.9630 H   0  0  0  0  0  0  0  0  0  0  0  0
   41.5930   28.4260   38.2670 H   0  0  0  0  0  0  0  0  0  0  0  0
   43.8650   28.4490   39.0900 H   0  0  0  0  0  0  0  0  0  0  0  0
   43.1570   26.8100   38.9520 H   0  0  0  0  0  0  0  0  0  0  0  0
   44.4780   26.1700   37.2100 H   0  0  0  0  0  0  0  0  0  0  0  0
   45.5860   27.1670   38.1980 H   0  0  0  0  0  0  0  0  0  0  0  0
   44.5630   27.6000   35.4380 H   0  0  0  0  0  0  0  0  0  0  0  0
   46.0680   28.2990   36.1990 H   0  0  0  0  0  0  0  0  0  0  0  0
   44.5260   29.9860   35.5440 H   0  0  0  0  0  0  0  0  0  0  0  0
   44.6480   29.9740   37.3610 H   0  0  0  0  0  0  0  0  0  0  0  0
   37.1250   30.5100   39.0460 O   0  0  0  0  0  0  0  0  0  0  0  0
   38.0930   30.9160   41.4760 O   0  0  0  0  0  0  0  0  0  0  0  0
   36.9280   31.2670   40.5940 P   0  0  0  0  0  0  0  0  0  0  0  0
   35.4630   30.7370   41.2520 O   0  0  0  0  0  0  0  0  0  0  0  0
   35.2450   29.8160   40.9810 H   0  0  0  0  0  0  0  0  0  0  0  0
   36.9370   32.9580   40.4170 O   0  0  0  0  0  0  0  0  0  0  0  0
   36.1040   33.2790   39.9890 H   0  0  0  0  0  0  0  0  0  0  0  0
  1  2  1  0  0  0  0
  2 11  1  0  0  0  0
  2  3  2  0  0  0  0
  3 10  1  0  0  0  0
  4  3  1  0  0  0  0
  5  4  2  0  0  0  0
  6  5  1  0  0  0  0
  6  1  2  0  0  0  0
  7  5  1  0  0  0  0
  7 12  1  0  0  0  0
  8 10  1  0  0  0  0
  8 32  1  0  0  0  0
  9  8  2  0  0  0  0
 10 14  1  0  0  0  0
 13  7  1  0  0  0  0
 15  1  1  0  0  0  0
 15 16  1  0  0  0  0
 16 23  1  0  0  0  0
 16 17  1  0  0  0  0
 17 25  1  0  0  0  0
 17 24  1  0  0  0  0
 18 27  1  0  0  0  0
 18 17  1  0  0  0  0
 19 20  1  0  0  0  0
 19 18  1  0  0  0  0
 20 15  1  0  0  0  0
 20 31  1  0  0  0  0
 21 15  1  0  0  0  0
 22 16  1  0  0  0  0
 26 18  1  0  0  0  0
 28 19  1  0  0  0  0
 29 19  1  0  0  0  0
 30 20  1  0  0  0  0
 32 34  1  0  0  0  0
 34 35  1  0  0  0  0
 34 33  2  0  0  0  0
 36 35  1  0  0  0  0
 37 34  1  0  0  0  0
 38 37  1  0  0  0  0
M  END
>  <minimizedAffinity>
-5.60488415

$$$$

 OpenBabel03242519353D

 38 39  0  0  0  0  0  0  0  0999 V2000
   36.5870   27.6280   40.6160 C   0  0  0  0  0  0  0  0  0  0  0  0
   36.4400   27.6380   39.2380 C   0  0  0  0  0  0  0  0  0  0  0  0
   36.0540   28.7940   38.5860 C   0  0  0  0  0  0  0  0  0  0  0  0
   35.8280   29.8920   39.3830 N   0  0  0  0  0  0  0  0  0  0  0  0
   35.9720   29.8600   40.7370 C   0  0  0  0  0  0  0  0  0  0  0  0
   36.3470   28.7440   41.3450 N   0  0  0  0  0  0  0  0  0  0  0  0
   35.6760   31.0570   41.4570 N   0  0  0  0  0  0  0  0  0  0  0  0
   36.7850   27.8310   36.5870 C   0  0  0  0  0  0  0  0  0  0  0  0
   37.4690   27.0770   37.3150 O   0  0  0  0  0  0  0  0  0  0  0  0
   35.9310   28.8460   37.1780 N   0  0  0  0  0  0  0  0  0  0  0  0
   36.6160   26.6410   38.8790 H   0  0  0  0  0  0  0  0  0  0  0  0
   34.6620   31.3200   41.2870 H   0  0  0  0  0  0  0  0  0  0  0  0
   36.4570   31.4700   42.0120 H   0  0  0  0  0  0  0  0  0  0  0  0
   35.3260   29.5050   36.6890 H   0  0  0  0  0  0  0  0  0  0  0  0
   37.0960   26.3750   41.2550 C   0  0  0  0  0  0  0  0  0  0  0  0
   37.2710   26.5490   42.7120 C   0  0  0  0  0  0  0  0  0  0  0  0
   38.7250   26.5520   43.0890 C   0  0  0  0  0  0  0  0  0  0  0  0
   39.4640   25.3190   42.6200 C   0  0  0  0  0  0  0  0  0  0  0  0
   39.0880   24.8810   41.2510 C   0  0  0  0  0  0  0  0  0  0  0  0
   38.3080   25.9360   40.5050 C   0  0  0  0  0  0  0  0  0  0  0  0
   36.2760   25.6210   41.0630 H   0  0  0  0  0  0  0  0  0  0  0  0
   36.8150   25.6890   43.2450 H   0  0  0  0  0  0  0  0  0  0  0  0
   36.8360   27.4500   43.1550 H   0  0  0  0  0  0  0  0  0  0  0  0
   39.2130   27.4700   42.7170 H   0  0  0  0  0  0  0  0  0  0  0  0
   38.7550   26.5910   44.2070 H   0  0  0  0  0  0  0  0  0  0  0  0
   39.2740   24.5300   43.3880 H   0  0  0  0  0  0  0  0  0  0  0  0
   40.5450   25.5670   42.6780 H   0  0  0  0  0  0  0  0  0  0  0  0
   38.3840   24.0040   41.3580 H   0  0  0  0  0  0  0  0  0  0  0  0
   39.9540   24.5850   40.6290 H   0  0  0  0  0  0  0  0  0  0  0  0
   38.0580   25.5040   39.5260 H   0  0  0  0  0  0  0  0  0  0  0  0
   38.9510   26.8430   40.3780 H   0  0  0  0  0  0  0  0  0  0  0  0
   36.7540   27.7930   35.1310 O   0  0  0  0  0  0  0  0  0  0  0  0
   34.7780   29.4280   34.4770 O   0  0  0  0  0  0  0  0  0  0  0  0
   36.2600   29.2410   34.3150 P   0  0  0  0  0  0  0  0  0  0  0  0
   36.6990   29.0990   32.6870 O   0  0  0  0  0  0  0  0  0  0  0  0
   36.6610   28.1660   32.3720 H   0  0  0  0  0  0  0  0  0  0  0  0
   37.0070   30.5920   35.0280 O   0  0  0  0  0  0  0  0  0  0  0  0
   37.9730   30.6240   34.8120 H   0  0  0  0  0  0  0  0  0  0  0  0
  1 15  1  0  0  0  0
  1  6  1  0  0  0  0
  2  1  2  0  0  0  0
  3  2  1  0  0  0  0
  3  4  2  0  0  0  0
  4  5  1  0  0  0  0
  5  6  2  0  0  0  0
  5  7  1  0  0  0  0
  7 13  1  0  0  0  0
  8 10  1  0  0  0  0
  8  9  2  0  0  0  0
 10  3  1  0  0  0  0
 11  2  1  0  0  0  0
 12  7  1  0  0  0  0
 14 10  1  0  0  0  0
 15 16  1  0  0  0  0
 16 17  1  0  0  0  0
 16 23  1  0  0  0  0
 16 22  1  0  0  0  0
 17 25  1  0  0  0  0
 18 27  1  0  0  0  0
 18 17  1  0  0  0  0
 18 26  1  0  0  0  0
 19 28  1  0  0  0  0
 19 18  1  0  0  0  0
 20 19  1  0  0  0  0
 20 15  1  0  0  0  0
 21 15  1  0  0  0  0
 24 17  1  0  0  0  0
 29 19  1  0  0  0  0
 30 20  1  0  0  0  0
 31 20  1  0  0  0  0
 32  8  1  0  0  0  0
 34 33  2  0  0  0  0
 34 37  1  0  0  0  0
 34 32  1  0  0  0  0
 35 34  1  0  0  0  0
 36 35  1  0  0  0  0
 38 37  1  0  0  0  0
M  END
>  <minimizedAffinity>
-5.58330441

$$$$

 OpenBabel03242519353D

 38 39  0  0  0  0  0  0  0  0999 V2000
   38.8060   30.1210   41.0060 C   0  0  0  0  0  0  0  0  0  0  0  0
   39.9420   30.2730   40.2270 C   0  0  0  0  0  0  0  0  0  0  0  0
   40.1110   31.4050   39.4520 C   0  0  0  0  0  0  0  0  0  0  0  0
   39.0960   32.3320   39.5050 N   0  0  0  0  0  0  0  0  0  0  0  0
   37.9840   32.1610   40.2720 C   0  0  0  0  0  0  0  0  0  0  0  0
   37.8410   31.0720   41.0130 N   0  0  0  0  0  0  0  0  0  0  0  0
   36.9850   33.1810   40.2170 N   0  0  0  0  0  0  0  0  0  0  0  0
   42.3730   30.8550   39.2600 C   0  0  0  0  0  0  0  0  0  0  0  0
   42.1910   30.1630   40.2860 O   0  0  0  0  0  0  0  0  0  0  0  0
   41.2750   31.6070   38.6760 N   0  0  0  0  0  0  0  0  0  0  0  0
   40.5320   29.3810   40.3250 H   0  0  0  0  0  0  0  0  0  0  0  0
   36.6300   33.2630   39.2200 H   0  0  0  0  0  0  0  0  0  0  0  0
   36.7650   33.6640   41.1150 H   0  0  0  0  0  0  0  0  0  0  0  0
   41.3030   32.1920   37.8410 H   0  0  0  0  0  0  0  0  0  0  0  0
   38.7230   28.9210   41.8940 C   0  0  0  0  0  0  0  0  0  0  0  0
   38.5500   27.6820   41.1070 C   0  0  0  0  0  0  0  0  0  0  0  0
   37.1780   27.1040   41.2970 C   0  0  0  0  0  0  0  0  0  0  0  0
   36.8330   26.8500   42.7470 C   0  0  0  0  0  0  0  0  0  0  0  0
   37.2810   27.9290   43.6650 C   0  0  0  0  0  0  0  0  0  0  0  0
   37.6780   29.1830   42.9260 C   0  0  0  0  0  0  0  0  0  0  0  0
   39.7260   28.8990   42.4130 H   0  0  0  0  0  0  0  0  0  0  0  0
   39.2630   26.9120   41.4680 H   0  0  0  0  0  0  0  0  0  0  0  0
   38.7050   27.7610   40.0260 H   0  0  0  0  0  0  0  0  0  0  0  0
   36.4220   27.7520   40.8190 H   0  0  0  0  0  0  0  0  0  0  0  0
   37.1740   26.1290   40.7460 H   0  0  0  0  0  0  0  0  0  0  0  0
   37.2800   25.8570   43.0050 H   0  0  0  0  0  0  0  0  0  0  0  0
   35.7310   26.7230   42.7850 H   0  0  0  0  0  0  0  0  0  0  0  0
   38.2210   27.5690   44.1780 H   0  0  0  0  0  0  0  0  0  0  0  0
   36.5260   28.2000   44.4280 H   0  0  0  0  0  0  0  0  0  0  0  0
   38.0150   29.8990   43.6880 H   0  0  0  0  0  0  0  0  0  0  0  0
   36.7860   29.5840   42.3820 H   0  0  0  0  0  0  0  0  0  0  0  0
   43.6380   30.9930   38.5510 O   0  0  0  0  0  0  0  0  0  0  0  0
   44.8520   31.0240   36.1990 O   0  0  0  0  0  0  0  0  0  0  0  0
   43.5600   31.4010   36.8680 P   0  0  0  0  0  0  0  0  0  0  0  0
   43.2540   33.0610   36.7460 O   0  0  0  0  0  0  0  0  0  0  0  0
   43.6560   33.5680   37.4890 H   0  0  0  0  0  0  0  0  0  0  0  0
   42.3330   30.5010   36.1100 O   0  0  0  0  0  0  0  0  0  0  0  0
   41.4360   30.8190   36.3790 H   0  0  0  0  0  0  0  0  0  0  0  0
  1  6  1  0  0  0  0
  1 15  1  0  0  0  0
  2 11  1  0  0  0  0
  2  1  2  0  0  0  0
  3  4  2  0  0  0  0
  3  2  1  0  0  0  0
  4  5  1  0  0  0  0
  5  6  2  0  0  0  0
  7  5  1  0  0  0  0
  7 13  1  0  0  0  0
  8  9  2  0  0  0  0
 10  8  1  0  0  0  0
 10  3  1  0  0  0  0
 12  7  1  0  0  0  0
 14 10  1  0  0  0  0
 15 21  1  0  0  0  0
 15 20  1  0  0  0  0
 16 17  1  0  0  0  0
 16 22  1  0  0  0  0
 16 15  1  0  0  0  0
 17 18  1  0  0  0  0
 18 27  1  0  0  0  0
 18 26  1  0  0  0  0
 18 19  1  0  0  0  0
 19 28  1  0  0  0  0
 19 29  1  0  0  0  0
 20 19  1  0  0  0  0
 20 30  1  0  0  0  0
 23 16  1  0  0  0  0
 24 17  1  0  0  0  0
 25 17  1  0  0  0  0
 31 20  1  0  0  0  0
 32  8  1  0  0  0  0
 33 34  2  0  0  0  0
 34 32  1  0  0  0  0
 35 34  1  0  0  0  0
 35 36  1  0  0  0  0
 37 38  1  0  0  0  0
 37 34  1  0  0  0  0
M  END
>  <minimizedAffinity>
-5.54141426

$$$$

 OpenBabel03242519353D

 38 39  0  0  0  0  0  0  0  0999 V2000
   36.7620   26.8810   40.8590 C   0  0  0  0  0  0  0  0  0  0  0  0
   36.6000   27.7790   39.8150 C   0  0  0  0  0  0  0  0  0  0  0  0
   36.6740   29.1390   40.0470 C   0  0  0  0  0  0  0  0  0  0  0  0
   36.9050   29.5190   41.3490 N   0  0  0  0  0  0  0  0  0  0  0  0
   37.0550   28.6220   42.3620 C   0  0  0  0  0  0  0  0  0  0  0  0
   36.9860   27.3210   42.1200 N   0  0  0  0  0  0  0  0  0  0  0  0
   37.2590   29.1420   43.6770 N   0  0  0  0  0  0  0  0  0  0  0  0
   36.9340   29.4500   37.7470 C   0  0  0  0  0  0  0  0  0  0  0  0
   37.2910   28.2510   37.7250 O   0  0  0  0  0  0  0  0  0  0  0  0
   36.5500   30.0790   38.9990 N   0  0  0  0  0  0  0  0  0  0  0  0
   36.3710   27.2180   38.9290 H   0  0  0  0  0  0  0  0  0  0  0  0
   36.4210   29.7340   43.9470 H   0  0  0  0  0  0  0  0  0  0  0  0
   38.1510   28.8760   44.1480 H   0  0  0  0  0  0  0  0  0  0  0  0
   36.2340   31.0390   39.1350 H   0  0  0  0  0  0  0  0  0  0  0  0
   36.7630   25.4220   40.5310 C   0  0  0  0  0  0  0  0  0  0  0  0
   36.8960   24.5980   41.7510 C   0  0  0  0  0  0  0  0  0  0  0  0
   38.2340   23.9180   41.8050 C   0  0  0  0  0  0  0  0  0  0  0  0
   38.5280   23.0830   40.5790 C   0  0  0  0  0  0  0  0  0  0  0  0
   38.1090   23.7230   39.3050 C   0  0  0  0  0  0  0  0  0  0  0  0
   37.7930   25.1890   39.4770 C   0  0  0  0  0  0  0  0  0  0  0  0
   35.7470   25.2470   40.0690 H   0  0  0  0  0  0  0  0  0  0  0  0
   36.1380   23.7880   41.7340 H   0  0  0  0  0  0  0  0  0  0  0  0
   36.7740   25.1140   42.7080 H   0  0  0  0  0  0  0  0  0  0  0  0
   39.0320   24.6620   41.9770 H   0  0  0  0  0  0  0  0  0  0  0  0
   38.2050   23.2490   42.7020 H   0  0  0  0  0  0  0  0  0  0  0  0
   38.0280   22.0970   40.7450 H   0  0  0  0  0  0  0  0  0  0  0  0
   39.6220   22.8910   40.5910 H   0  0  0  0  0  0  0  0  0  0  0  0
   37.1410   23.2400   38.9850 H   0  0  0  0  0  0  0  0  0  0  0  0
   38.8560   23.6220   38.4940 H   0  0  0  0  0  0  0  0  0  0  0  0
   37.4700   25.5540   38.4920 H   0  0  0  0  0  0  0  0  0  0  0  0
   38.7170   25.7260   39.8090 H   0  0  0  0  0  0  0  0  0  0  0  0
   36.8600   30.3270   36.5870 O   0  0  0  0  0  0  0  0  0  0  0  0
   34.9470   29.3310   35.0510 O   0  0  0  0  0  0  0  0  0  0  0  0
   36.4260   29.5990   35.0740 P   0  0  0  0  0  0  0  0  0  0  0  0
   37.3230   28.1750   34.9030 O   0  0  0  0  0  0  0  0  0  0  0  0
   37.5020   27.7430   35.7690 H   0  0  0  0  0  0  0  0  0  0  0  0
   36.7500   30.6760   33.7990 O   0  0  0  0  0  0  0  0  0  0  0  0
   37.7230   30.7680   33.6440 H   0  0  0  0  0  0  0  0  0  0  0  0
  1  6  1  0  0  0  0
  2  3  1  0  0  0  0
  2  1  2  0  0  0  0
  3  4  2  0  0  0  0
  4  5  1  0  0  0  0
  5  7  1  0  0  0  0
  6  5  2  0  0  0  0
  7 12  1  0  0  0  0
  7 13  1  0  0  0  0
  8 10  1  0  0  0  0
  9  8  2  0  0  0  0
 10 14  1  0  0  0  0
 10  3  1  0  0  0  0
 11  2  1  0  0  0  0
 15  1  1  0  0  0  0
 15 16  1  0  0  0  0
 16 17  1  0  0  0  0
 16 23  1  0  0  0  0
 17 24  1  0  0  0  0
 17 25  1  0  0  0  0
 18 27  1  0  0  0  0
 18 26  1  0  0  0  0
 18 17  1  0  0  0  0
 19 20  1  0  0  0  0
 19 18  1  0  0  0  0
 20 31  1  0  0  0  0
 20 15  1  0  0  0  0
 21 15  1  0  0  0  0
 22 16  1  0  0  0  0
 28 19  1  0  0  0  0
 29 19  1  0  0  0  0
 30 20  1  0  0  0  0
 32  8  1  0  0  0  0
 33 34  2  0  0  0  0
 34 32  1  0  0  0  0
 35 34  1  0  0  0  0
 35 36  1  0  0  0  0
 37 34  1  0  0  0  0
 38 37  1  0  0  0  0
M  END
>  <minimizedAffinity>
-5.51856947

$$$$
