
 OpenBabel03252508003D

 27 28  0  0  1  0  0  0  0  0999 V2000
   46.2550   34.7940   43.2360 C   0  0  0  0  0  0  0  0  0  0  0  0
   45.3110   35.7990   43.5280 C   0  0  0  0  0  0  0  0  0  0  0  0
   44.6030   35.6920   44.7290 C   0  0  0  0  0  0  0  0  0  0  0  0
   44.8720   34.6280   45.5280 N   0  0  0  0  0  0  0  0  0  0  0  0
   45.8010   33.6870   45.1830 C   0  0  0  0  0  0  0  0  0  0  0  0
   46.5000   33.7400   44.0580 N   0  0  0  0  0  0  0  0  0  0  0  0
   45.1390   36.6170   42.8610 H   0  0  0  0  0  0  0  0  0  0  0  0
   43.8790   36.4400   44.9820 H   0  0  0  0  0  0  0  0  0  0  0  0
   46.0530   32.5520   46.1280 C   0  0  1  0  0  0  0  0  0  0  0  0
   46.8400   32.8080   47.3910 C   0  0  0  0  0  0  0  0  0  0  0  0
   45.3420   32.6640   47.4190 C   0  0  1  0  0  0  0  0  0  0  0  0
   46.2210   31.5620   45.6930 H   0  0  0  0  0  0  0  0  0  0  0  0
   47.4340   31.9650   47.7920 H   0  0  0  0  0  0  0  0  0  0  0  0
   47.3220   33.7980   47.4860 H   0  0  0  0  0  0  0  0  0  0  0  0
   44.9600   31.8170   47.9860 H   0  0  0  0  0  0  0  0  0  0  0  0
   44.6930   33.9330   47.7750 N   0  0  0  0  0  0  0  0  0  0  0  0
   44.9720   34.1500   48.7650 H   0  0  0  0  0  0  0  0  0  0  0  0
   43.6480   33.8190   47.7870 H   0  0  0  0  0  0  0  0  0  0  0  0
   46.9610   34.9670   41.9900 C   0  0  0  0  0  0  0  0  0  0  0  0
   48.1030   35.5410   41.8920 O   0  0  0  0  0  0  0  0  0  0  0  0
   46.3870   34.4890   40.7970 O   0  0  0  0  0  0  0  0  0  0  0  0
   45.1030   32.2490   40.0920 O   0  0  0  0  0  0  0  0  0  0  0  0
   46.4630   32.8260   40.3570 P   0  0  0  0  0  0  0  0  0  0  0  0
   47.4410   32.7480   38.9640 O   0  0  0  0  0  0  0  0  0  0  0  0
   48.1760   33.4060   39.0360 H   0  0  0  0  0  0  0  0  0  0  0  0
   47.2780   31.9390   41.5550 O   0  0  0  0  0  0  0  0  0  0  0  0
   48.2530   32.1220   41.4490 H   0  0  0  0  0  0  0  0  0  0  0  0
  1  2  2  0  0  0  0
  1  6  1  0  0  0  0
  2  3  1  0  0  0  0
  3  8  1  0  0  0  0
  3  4  2  0  0  0  0
  5  4  1  0  0  0  0
  5  9  1  0  0  0  0
  6  5  2  0  0  0  0
  7  2  1  0  0  0  0
  9 12  1  6  0  0  0
  9 10  1  0  0  0  0
  9 11  1  0  0  0  0
 10 11  1  0  0  0  0
 10 14  1  0  0  0  0
 10 13  1  0  0  0  0
 11 16  1  0  0  0  0
 11 15  1  1  0  0  0
 16 18  1  0  0  0  0
 16 17  1  0  0  0  0
 19  1  1  0  0  0  0
 20 19  2  0  0  0  0
 21 19  1  0  0  0  0
 22 23  2  0  0  0  0
 23 21  1  0  0  0  0
 23 26  1  0  0  0  0
 24 25  1  0  0  0  0
 24 23  1  0  0  0  0
 27 26  1  0  0  0  0
M  END
>  <minimizedAffinity>
-4.81181145

>  <minimizedRMSD>
0.755238235

$$$$
