
 OpenBabel03242520453D

 20 20  0  0  0  0  0  0  0  0999 V2000
   44.9100   35.1340   44.1600 C   0  0  0  0  0  0  0  0  0  0  0  0
   45.6800   35.3810   43.0010 C   0  0  0  0  0  0  0  0  0  0  0  0
   46.8670   34.6680   42.8510 C   0  0  0  0  0  0  0  0  0  0  0  0
   47.2310   33.7850   43.7980 N   0  0  0  0  0  0  0  0  0  0  0  0
   46.4590   33.5770   44.9010 C   0  0  0  0  0  0  0  0  0  0  0  0
   45.3250   34.2500   45.0550 N   0  0  0  0  0  0  0  0  0  0  0  0
   43.6950   35.8500   44.3340 N   0  0  0  0  0  0  0  0  0  0  0  0
   45.2840   36.1180   42.3060 H   0  0  0  0  0  0  0  0  0  0  0  0
   46.8300   32.8470   45.6110 H   0  0  0  0  0  0  0  0  0  0  0  0
   43.6230   36.8410   44.6460 H   0  0  0  0  0  0  0  0  0  0  0  0
   42.7400   35.4710   44.1700 H   0  0  0  0  0  0  0  0  0  0  0  0
   47.6220   34.9530   41.6510 C   0  0  0  0  0  0  0  0  0  0  0  0
   48.6900   35.6010   41.5880 O   0  0  0  0  0  0  0  0  0  0  0  0
   46.9990   34.4040   40.5210 O   0  0  0  0  0  0  0  0  0  0  0  0
   48.5700   32.5930   39.3140 O   0  0  0  0  0  0  0  0  0  0  0  0
   47.8450   33.8800   39.1340 P   0  0  0  0  0  0  0  0  0  0  0  0
   46.6570   33.6560   37.9250 O   0  0  0  0  0  0  0  0  0  0  0  0
   45.9590   33.0240   38.2130 H   0  0  0  0  0  0  0  0  0  0  0  0
   48.8810   35.1090   38.6310 O   0  0  0  0  0  0  0  0  0  0  0  0
   49.0840   35.0430   37.6550 H   0  0  0  0  0  0  0  0  0  0  0  0
  1  7  1  0  0  0  0
  1  6  1  0  0  0  0
  2  1  2  0  0  0  0
  3  2  1  0  0  0  0
  3  4  2  0  0  0  0
  4  5  1  0  0  0  0
  5  6  2  0  0  0  0
  5  9  1  0  0  0  0
  7 10  1  0  0  0  0
  8  2  1  0  0  0  0
 11  7  1  0  0  0  0
 12  3  1  0  0  0  0
 13 12  2  0  0  0  0
 14 12  1  0  0  0  0
 16 15  2  0  0  0  0
 16 14  1  0  0  0  0
 17 18  1  0  0  0  0
 17 16  1  0  0  0  0
 19 16  1  0  0  0  0
 20 19  1  0  0  0  0
M  END
>  <minimizedAffinity>
-4.81348753

>  <minimizedRMSD>
1.07157087

$$$$
