
 OpenBabel03242523553D

 43 45  0  0  1  0  0  0  0  0999 V2000
   42.8250   34.5000   38.7620 C   0  0  1  0  0  0  0  0  0  0  0  0
   42.9620   35.1830   40.1150 C   0  0  1  0  0  0  0  0  0  0  0  0
   41.6700   35.4020   40.6330 O   0  0  0  0  0  0  0  0  0  0  0  0
   40.7410   35.7240   39.6420 C   0  0  0  0  0  0  0  0  0  0  0  0
   40.4450   34.5530   38.7340 C   0  0  2  0  0  0  0  0  0  0  0  0
   41.6630   33.5690   38.8710 C   0  0  1  0  0  0  0  0  0  0  0  0
   43.7760   33.9620   38.5010 H   0  0  0  0  0  0  0  0  0  0  0  0
   43.5420   36.1080   40.0740 H   0  0  0  0  0  0  0  0  0  0  0  0
   41.0280   36.6350   39.0830 H   0  0  0  0  0  0  0  0  0  0  0  0
   39.8090   35.9520   40.1880 H   0  0  0  0  0  0  0  0  0  0  0  0
   39.5300   33.9930   39.0050 H   0  0  0  0  0  0  0  0  0  0  0  0
   41.4520   33.3060   39.9570 H   0  0  0  0  0  0  0  0  0  0  0  0
   42.6030   35.4450   37.7520 O   0  0  0  0  0  0  0  0  0  0  0  0
   42.7810   35.0260   36.8900 H   0  0  0  0  0  0  0  0  0  0  0  0
   40.4550   34.9630   37.4120 O   0  0  0  0  0  0  0  0  0  0  0  0
   39.7470   34.4790   36.8930 H   0  0  0  0  0  0  0  0  0  0  0  0
   43.4950   34.2060   40.9700 O   0  0  0  0  0  0  0  0  0  0  0  0
   44.6000   34.3510   41.7070 C   0  0  0  0  0  0  0  0  0  0  0  0
   45.8570   34.4530   41.1150 C   0  0  0  0  0  0  0  0  0  0  0  0
   46.9780   34.6020   41.9070 C   0  0  0  0  0  0  0  0  0  0  0  0
   46.8230   34.6460   43.2760 N   0  0  0  0  0  0  0  0  0  0  0  0
   45.5860   34.5440   43.8300 C   0  0  0  0  0  0  0  0  0  0  0  0
   44.4860   34.3970   43.0460 N   0  0  0  0  0  0  0  0  0  0  0  0
   45.9910   34.4200   40.0480 H   0  0  0  0  0  0  0  0  0  0  0  0
   45.4690   34.5790   44.9140 H   0  0  0  0  0  0  0  0  0  0  0  0
   48.3560   34.6980   41.3240 C   0  0  0  0  0  0  0  0  0  0  0  0
   49.0820   36.0280   41.5070 C   0  0  0  0  0  0  0  0  0  0  0  0
   49.5070   34.7010   42.1750 C   0  0  0  0  0  0  0  0  0  0  0  0
   48.3840   34.3920   40.2450 H   0  0  0  0  0  0  0  0  0  0  0  0
   48.5780   36.7670   42.1740 H   0  0  0  0  0  0  0  0  0  0  0  0
   49.7790   36.3880   40.7500 H   0  0  0  0  0  0  0  0  0  0  0  0
   50.4700   34.2750   41.8650 H   0  0  0  0  0  0  0  0  0  0  0  0
   49.3440   34.6290   43.2730 H   0  0  0  0  0  0  0  0  0  0  0  0
   41.5320   32.6280   37.9230 O   0  0  0  0  0  0  0  0  0  0  0  0
   40.8700   31.4470   37.9850 C   0  0  0  0  0  0  0  0  0  0  0  0
   39.6800   31.3070   37.4630 O   0  0  0  0  0  0  0  0  0  0  0  0
   40.9220   30.1220   38.4290 O   0  0  0  0  0  0  0  0  0  0  0  0
   42.1360   27.8060   38.4660 O   0  0  0  0  0  0  0  0  0  0  0  0
   42.4110   29.2970   38.6290 P   0  0  0  0  0  0  0  0  0  0  0  0
   43.1920   29.6710   40.0520 O   0  0  0  0  0  0  0  0  0  0  0  0
   43.6810   28.8900   40.4500 H   0  0  0  0  0  0  0  0  0  0  0  0
   43.4270   29.6930   37.3080 O   0  0  0  0  0  0  0  0  0  0  0  0
   43.0510   29.3460   36.4600 H   0  0  0  0  0  0  0  0  0  0  0  0
  1  7  1  6  0  0  0
  1  6  1  0  0  0  0
  1  2  1  0  0  0  0
  2  8  1  6  0  0  0
  2  3  1  0  0  0  0
  2 17  1  0  0  0  0
  4 10  1  0  0  0  0
  4  3  1  0  0  0  0
  5  6  1  0  0  0  0
  5 11  1  1  0  0  0
  5  4  1  0  0  0  0
  6 12  1  1  0  0  0
  9  4  1  0  0  0  0
 13  1  1  0  0  0  0
 14 13  1  0  0  0  0
 15  5  1  0  0  0  0
 16 15  1  0  0  0  0
 17 18  1  0  0  0  0
 18 23  1  0  0  0  0
 19 18  2  0  0  0  0
 19 20  1  0  0  0  0
 20 21  2  0  0  0  0
 21 22  1  0  0  0  0
 22 25  1  0  0  0  0
 23 22  2  0  0  0  0
 24 19  1  0  0  0  0
 26 27  1  0  0  0  0
 26 20  1  0  0  0  0
 26 28  1  0  0  0  0
 27 30  1  0  0  0  0
 27 28  1  0  0  0  0
 28 33  1  0  0  0  0
 29 26  1  0  0  0  0
 31 27  1  0  0  0  0
 32 28  1  0  0  0  0
 34 35  1  0  0  0  0
 34  6  1  0  0  0  0
 35 37  1  0  0  0  0
 36 35  2  0  0  0  0
 37 39  1  0  0  0  0
 38 39  2  0  0  0  0
 39 40  1  0  0  0  0
 40 41  1  0  0  0  0
 42 39  1  0  0  0  0
 43 42  1  0  0  0  0
M  END
>  <minimizedAffinity>
-5.35878754

>  <minimizedRMSD>
0.150320619

$$$$
