
 OpenBabel03242522513D

 24 24  0  0  0  0  0  0  0  0999 V2000
   45.3860   30.8090   47.5270 O   0  0  0  0  0  0  0  0  0  0  0  0
   45.7880   32.0440   48.3570 P   0  0  2  0  0  0  0  0  0  0  0  0
   45.1810   31.7800   49.9060 O   0  0  0  0  0  0  0  0  0  0  0  0
   45.7610   32.2000   50.5890 H   0  0  0  0  0  0  0  0  0  0  0  0
   45.0410   33.4010   47.6720 O   0  0  0  0  0  0  0  0  0  0  0  0
   46.6980   33.4970   44.4380 C   0  0  0  0  0  0  0  0  0  0  0  0
   46.3420   33.1210   45.7460 C   0  0  0  0  0  0  0  0  0  0  0  0
   45.3460   33.8130   46.3920 C   0  0  0  0  0  0  0  0  0  0  0  0
   44.7420   34.8360   45.7360 N   0  0  0  0  0  0  0  0  0  0  0  0
   45.0830   35.1900   44.4910 C   0  0  0  0  0  0  0  0  0  0  0  0
   46.0570   34.5300   43.8340 N   0  0  0  0  0  0  0  0  0  0  0  0
   47.4650   33.0160   43.8530 H   0  0  0  0  0  0  0  0  0  0  0  0
   46.9350   32.2920   46.0800 H   0  0  0  0  0  0  0  0  0  0  0  0
   44.5000   36.0290   44.1150 H   0  0  0  0  0  0  0  0  0  0  0  0
   47.4300   32.2360   48.3670 O   0  0  0  0  0  0  0  0  0  0  0  0
   48.4130   31.4470   48.8650 C   0  0  0  0  0  0  0  0  0  0  0  0
   49.4410   32.0900   49.2750 O   0  0  0  0  0  0  0  0  0  0  0  0
   49.0010   30.2440   49.2190 O   0  0  0  0  0  0  0  0  0  0  0  0
   48.0910   28.7940   47.2210 O   0  0  0  0  0  0  0  0  0  0  0  0
   49.2610   28.9530   48.1670 P   0  0  0  0  0  0  0  0  0  0  0  0
   50.7070   29.1280   47.3390 O   0  0  0  0  0  0  0  0  0  0  0  0
   50.8930   30.0650   47.0850 H   0  0  0  0  0  0  0  0  0  0  0  0
   49.3150   27.5490   49.1490 O   0  0  0  0  0  0  0  0  0  0  0  0
   48.4450   27.1190   49.1420 H   0  0  0  0  0  0  0  0  0  0  0  0
  2  1  2  6  0  0  0
  2 15  1  0  0  0  0
  2  3  1  0  0  0  0
  3  4  1  0  0  0  0
  5  2  1  0  0  0  0
  6  7  1  0  0  0  0
  7 13  1  0  0  0  0
  7  8  2  0  0  0  0
  8  5  1  0  0  0  0
  9  8  1  0  0  0  0
 10  9  2  0  0  0  0
 11  6  2  0  0  0  0
 11 10  1  0  0  0  0
 12  6  1  0  0  0  0
 14 10  1  0  0  0  0
 15 16  1  0  0  0  0
 16 18  1  0  0  0  0
 16 17  2  0  0  0  0
 19 20  2  0  0  0  0
 20 23  1  0  0  0  0
 20 18  1  0  0  0  0
 21 20  1  0  0  0  0
 22 21  1  0  0  0  0
 24 23  1  0  0  0  0
M  END
>  <minimizedAffinity>
-4.50131989

>  <minimizedRMSD>
0.964745283

$$$$
