
 OpenBabel03242523553D

 43 45  0  0  1  0  0  0  0  0999 V2000
   42.8170   34.3830   38.9460 C   0  0  1  0  0  0  0  0  0  0  0  0
   43.0050   35.2000   40.2160 C   0  0  1  0  0  0  0  0  0  0  0  0
   41.7320   35.5840   40.6860 O   0  0  0  0  0  0  0  0  0  0  0  0
   40.8400   35.8690   39.6510 C   0  0  0  0  0  0  0  0  0  0  0  0
   40.4500   34.6320   38.8750 C   0  0  2  0  0  0  0  0  0  0  0  0
   41.5790   33.5710   39.1400 C   0  0  1  0  0  0  0  0  0  0  0  0
   43.7200   33.7400   38.7620 H   0  0  0  0  0  0  0  0  0  0  0  0
   43.6620   36.0620   40.0810 H   0  0  0  0  0  0  0  0  0  0  0  0
   41.2070   36.6840   38.9980 H   0  0  0  0  0  0  0  0  0  0  0  0
   39.9280   36.2350   40.1540 H   0  0  0  0  0  0  0  0  0  0  0  0
   39.4890   34.1850   39.1940 H   0  0  0  0  0  0  0  0  0  0  0  0
   41.3400   33.4510   40.2460 H   0  0  0  0  0  0  0  0  0  0  0  0
   42.6830   35.2220   37.8330 O   0  0  0  0  0  0  0  0  0  0  0  0
   42.8290   34.6950   37.0270 H   0  0  0  0  0  0  0  0  0  0  0  0
   40.5030   34.8870   37.5160 O   0  0  0  0  0  0  0  0  0  0  0  0
   39.7600   34.4100   37.0440 H   0  0  0  0  0  0  0  0  0  0  0  0
   43.4470   34.2840   41.1830 O   0  0  0  0  0  0  0  0  0  0  0  0
   44.5890   34.3840   41.8690 C   0  0  0  0  0  0  0  0  0  0  0  0
   45.8150   34.5060   41.2200 C   0  0  0  0  0  0  0  0  0  0  0  0
   46.9760   34.6070   41.9610 C   0  0  0  0  0  0  0  0  0  0  0  0
   46.8910   34.5850   43.3360 N   0  0  0  0  0  0  0  0  0  0  0  0
   45.6820   34.4640   43.9460 C   0  0  0  0  0  0  0  0  0  0  0  0
   44.5430   34.3650   43.2130 N   0  0  0  0  0  0  0  0  0  0  0  0
   45.8960   34.5250   40.1470 H   0  0  0  0  0  0  0  0  0  0  0  0
   45.6200   34.4470   45.0360 H   0  0  0  0  0  0  0  0  0  0  0  0
   48.3240   34.7220   41.3140 C   0  0  0  0  0  0  0  0  0  0  0  0
   49.0700   36.0370   41.5210 C   0  0  0  0  0  0  0  0  0  0  0  0
   49.5160   34.6780   42.1040 C   0  0  0  0  0  0  0  0  0  0  0  0
   48.2950   34.4670   40.2210 H   0  0  0  0  0  0  0  0  0  0  0  0
   48.6060   36.7480   42.2460 H   0  0  0  0  0  0  0  0  0  0  0  0
   49.7320   36.4280   40.7470 H   0  0  0  0  0  0  0  0  0  0  0  0
   50.4590   34.2600   41.7270 H   0  0  0  0  0  0  0  0  0  0  0  0
   49.4080   34.5550   43.2050 H   0  0  0  0  0  0  0  0  0  0  0  0
   41.3740   32.5430   38.3020 O   0  0  0  0  0  0  0  0  0  0  0  0
   40.5710   31.4630   38.4640 C   0  0  0  0  0  0  0  0  0  0  0  0
   39.7230   31.1020   37.5360 O   0  0  0  0  0  0  0  0  0  0  0  0
   40.2100   30.4170   39.3180 O   0  0  0  0  0  0  0  0  0  0  0  0
   38.9550   29.6940   41.4950 O   0  0  0  0  0  0  0  0  0  0  0  0
   38.7280   30.4310   40.1790 P   0  0  0  0  0  0  0  0  0  0  0  0
   37.4430   29.8340   39.3040 O   0  0  0  0  0  0  0  0  0  0  0  0
   36.7860   29.3250   39.8660 H   0  0  0  0  0  0  0  0  0  0  0  0
   38.3900   32.0450   40.6450 O   0  0  0  0  0  0  0  0  0  0  0  0
   39.0680   32.3720   41.2900 H   0  0  0  0  0  0  0  0  0  0  0  0
  1  7  1  6  0  0  0
  1  6  1  0  0  0  0
  1  2  1  0  0  0  0
  2  8  1  6  0  0  0
  2  3  1  0  0  0  0
  2 17  1  0  0  0  0
  4 10  1  0  0  0  0
  4  3  1  0  0  0  0
  5  6  1  0  0  0  0
  5 11  1  1  0  0  0
  5  4  1  0  0  0  0
  6 12  1  1  0  0  0
  9  4  1  0  0  0  0
 13  1  1  0  0  0  0
 14 13  1  0  0  0  0
 15  5  1  0  0  0  0
 16 15  1  0  0  0  0
 17 18  1  0  0  0  0
 18 23  1  0  0  0  0
 19 18  2  0  0  0  0
 19 20  1  0  0  0  0
 20 21  2  0  0  0  0
 21 22  1  0  0  0  0
 22 25  1  0  0  0  0
 23 22  2  0  0  0  0
 24 19  1  0  0  0  0
 26 27  1  0  0  0  0
 26 20  1  0  0  0  0
 26 28  1  0  0  0  0
 27 28  1  0  0  0  0
 27 30  1  0  0  0  0
 28 33  1  0  0  0  0
 29 26  1  0  0  0  0
 31 27  1  0  0  0  0
 32 28  1  0  0  0  0
 34 35  1  0  0  0  0
 34  6  1  0  0  0  0
 35 37  1  0  0  0  0
 36 35  2  0  0  0  0
 37 39  1  0  0  0  0
 39 42  1  0  0  0  0
 39 38  2  0  0  0  0
 40 41  1  0  0  0  0
 40 39  1  0  0  0  0
 42 43  1  0  0  0  0
M  END
>  <minimizedAffinity>
-5.82864237

>  <minimizedRMSD>
1.05716872

$$$$
