
 OpenBabel03242523553D

 43 45  0  0  1  0  0  0  0  0999 V2000
   42.8660   34.0910   39.2150 C   0  0  1  0  0  0  0  0  0  0  0  0
   43.1660   35.0930   40.3200 C   0  0  1  0  0  0  0  0  0  0  0  0
   41.9580   35.7170   40.6910 O   0  0  0  0  0  0  0  0  0  0  0  0
   41.1040   35.9240   39.6060 C   0  0  0  0  0  0  0  0  0  0  0  0
   40.5520   34.6280   39.0570 C   0  0  2  0  0  0  0  0  0  0  0  0
   41.5340   33.4950   39.5290 C   0  0  1  0  0  0  0  0  0  0  0  0
   43.6770   33.3150   39.1640 H   0  0  0  0  0  0  0  0  0  0  0  0
   43.9300   35.8240   40.0440 H   0  0  0  0  0  0  0  0  0  0  0  0
   41.5710   36.5530   38.8240 H   0  0  0  0  0  0  0  0  0  0  0  0
   40.2510   36.4880   40.0180 H   0  0  0  0  0  0  0  0  0  0  0  0
   39.5430   34.3740   39.4340 H   0  0  0  0  0  0  0  0  0  0  0  0
   41.2880   33.6080   40.6340 H   0  0  0  0  0  0  0  0  0  0  0  0
   42.8360   34.7270   37.9660 O   0  0  0  0  0  0  0  0  0  0  0  0
   42.9080   34.0490   37.2710 H   0  0  0  0  0  0  0  0  0  0  0  0
   40.6300   34.6250   37.6750 O   0  0  0  0  0  0  0  0  0  0  0  0
   39.8280   34.1710   37.2830 H   0  0  0  0  0  0  0  0  0  0  0  0
   43.4900   34.3170   41.4440 O   0  0  0  0  0  0  0  0  0  0  0  0
   44.6660   34.3400   42.0790 C   0  0  0  0  0  0  0  0  0  0  0  0
   45.8600   34.5200   41.3870 C   0  0  0  0  0  0  0  0  0  0  0  0
   47.0570   34.5390   42.0760 C   0  0  0  0  0  0  0  0  0  0  0  0
   47.0380   34.3780   43.4450 N   0  0  0  0  0  0  0  0  0  0  0  0
   45.8590   34.2030   44.0980 C   0  0  0  0  0  0  0  0  0  0  0  0
   44.6840   34.1850   43.4150 N   0  0  0  0  0  0  0  0  0  0  0  0
   45.8890   34.6470   40.3180 H   0  0  0  0  0  0  0  0  0  0  0  0
   45.8490   34.0750   45.1820 H   0  0  0  0  0  0  0  0  0  0  0  0
   48.3720   34.7110   41.3780 C   0  0  0  0  0  0  0  0  0  0  0  0
   49.0730   36.0540   41.5650 C   0  0  0  0  0  0  0  0  0  0  0  0
   49.5950   34.7110   42.1220 C   0  0  0  0  0  0  0  0  0  0  0  0
   48.3120   34.4600   40.2860 H   0  0  0  0  0  0  0  0  0  0  0  0
   48.6100   36.7420   42.3120 H   0  0  0  0  0  0  0  0  0  0  0  0
   49.6880   36.4750   40.7690 H   0  0  0  0  0  0  0  0  0  0  0  0
   50.5390   34.3340   41.7060 H   0  0  0  0  0  0  0  0  0  0  0  0
   49.5350   34.5790   43.2250 H   0  0  0  0  0  0  0  0  0  0  0  0
   41.1920   32.3680   38.8850 O   0  0  0  0  0  0  0  0  0  0  0  0
   40.2090   31.4840   39.1850 C   0  0  0  0  0  0  0  0  0  0  0  0
   39.0870   31.4640   38.5150 O   0  0  0  0  0  0  0  0  0  0  0  0
   39.8250   30.4320   40.0220 O   0  0  0  0  0  0  0  0  0  0  0  0
   38.4910   29.7650   42.1690 O   0  0  0  0  0  0  0  0  0  0  0  0
   38.3010   30.4160   40.8040 P   0  0  0  0  0  0  0  0  0  0  0  0
   37.0950   29.7070   39.9000 O   0  0  0  0  0  0  0  0  0  0  0  0
   36.4340   29.1960   40.4560 H   0  0  0  0  0  0  0  0  0  0  0  0
   37.8600   32.0340   41.1580 O   0  0  0  0  0  0  0  0  0  0  0  0
   38.4850   32.4300   41.8160 H   0  0  0  0  0  0  0  0  0  0  0  0
  1  7  1  6  0  0  0
  1  6  1  0  0  0  0
  1  2  1  0  0  0  0
  2  8  1  6  0  0  0
  2  3  1  0  0  0  0
  2 17  1  0  0  0  0
  4 10  1  0  0  0  0
  4  3  1  0  0  0  0
  5 11  1  1  0  0  0
  5  6  1  0  0  0  0
  5  4  1  0  0  0  0
  6 12  1  1  0  0  0
  9  4  1  0  0  0  0
 13  1  1  0  0  0  0
 14 13  1  0  0  0  0
 15  5  1  0  0  0  0
 16 15  1  0  0  0  0
 17 18  1  0  0  0  0
 18 23  1  0  0  0  0
 19 20  1  0  0  0  0
 19 18  2  0  0  0  0
 20 21  2  0  0  0  0
 21 22  1  0  0  0  0
 22 25  1  0  0  0  0
 23 22  2  0  0  0  0
 24 19  1  0  0  0  0
 26 27  1  0  0  0  0
 26 20  1  0  0  0  0
 26 28  1  0  0  0  0
 27 28  1  0  0  0  0
 27 30  1  0  0  0  0
 28 33  1  0  0  0  0
 29 26  1  0  0  0  0
 31 27  1  0  0  0  0
 32 28  1  0  0  0  0
 34 35  1  0  0  0  0
 34  6  1  0  0  0  0
 35 37  1  0  0  0  0
 36 35  2  0  0  0  0
 37 39  1  0  0  0  0
 39 42  1  0  0  0  0
 39 38  2  0  0  0  0
 40 41  1  0  0  0  0
 40 39  1  0  0  0  0
 42 43  1  0  0  0  0
M  END
>  <minimizedAffinity>
-6.02460432

>  <minimizedRMSD>
1.22929633

$$$$
