
 OpenBabel03242518373D

 37 39  0  0  1  0  0  0  0  0999 V2000
   48.0160   33.6860   39.2760 C   0  0  0  0  0  0  0  0  0  0  0  0
   48.5790   34.6880   38.4720 C   0  0  0  0  0  0  0  0  0  0  0  0
   48.1920   34.4770   37.1640 C   0  0  0  0  0  0  0  0  0  0  0  0
   47.4180   33.3630   37.2290 C   0  0  0  0  0  0  0  0  0  0  0  0
   47.3200   32.9080   38.4680 O   0  0  0  0  0  0  0  0  0  0  0  0
   49.2020   35.4590   38.9060 H   0  0  0  0  0  0  0  0  0  0  0  0
   48.4800   35.0970   36.3330 H   0  0  0  0  0  0  0  0  0  0  0  0
   46.7620   32.7400   36.0580 C   0  0  2  0  0  0  0  0  0  0  0  0
   46.9130   31.3110   35.7930 C   0  0  0  0  0  0  0  0  0  0  0  0
   47.7710   32.2230   34.9940 C   0  0  1  0  0  0  0  0  0  0  0  0
   45.8870   33.2790   35.6620 H   0  0  0  0  0  0  0  0  0  0  0  0
   46.1140   30.7210   35.2820 H   0  0  0  0  0  0  0  0  0  0  0  0
   47.4420   30.6990   36.5750 H   0  0  0  0  0  0  0  0  0  0  0  0
   48.8270   32.3850   35.2040 H   0  0  0  0  0  0  0  0  0  0  0  0
   48.2590   32.9230   32.6580 C   0  0  0  0  0  0  0  0  0  0  0  0
   49.4760   33.1490   32.9200 O   0  0  0  0  0  0  0  0  0  0  0  0
   47.3230   32.4800   33.6270 N   0  0  0  0  0  0  0  0  0  0  0  0
   48.0110   33.1070   31.6130 H   0  0  0  0  0  0  0  0  0  0  0  0
   46.3290   32.3390   33.3600 H   0  0  0  0  0  0  0  0  0  0  0  0
   48.0950   33.4410   40.6720 O   0  0  0  0  0  0  0  0  0  0  0  0
   47.8840   34.5160   41.5610 C   0  0  0  0  0  0  0  0  0  0  0  0
   48.5510   35.5670   41.3260 O   0  0  0  0  0  0  0  0  0  0  0  0
   46.9570   34.3100   42.6120 C   0  0  0  0  0  0  0  0  0  0  0  0
   46.1140   35.3360   42.8880 C   0  0  0  0  0  0  0  0  0  0  0  0
   45.1830   35.1920   43.9120 C   0  0  0  0  0  0  0  0  0  0  0  0
   45.1590   34.0300   44.5850 N   0  0  0  0  0  0  0  0  0  0  0  0
   45.9960   33.0320   44.3000 C   0  0  0  0  0  0  0  0  0  0  0  0
   46.8750   33.2050   43.3150 N   0  0  0  0  0  0  0  0  0  0  0  0
   46.1260   36.2750   42.3520 H   0  0  0  0  0  0  0  0  0  0  0  0
   44.4970   36.0200   44.1390 H   0  0  0  0  0  0  0  0  0  0  0  0
   45.8430   31.9130   45.0840 O   0  0  0  0  0  0  0  0  0  0  0  0
   45.3180   31.5730   47.6120 O   0  0  0  0  0  0  0  0  0  0  0  0
   46.4550   31.9230   46.6690 P   0  0  0  0  0  0  0  0  0  0  0  0
   47.6290   30.7160   46.8530 O   0  0  0  0  0  0  0  0  0  0  0  0
   48.2240   30.7210   46.0660 H   0  0  0  0  0  0  0  0  0  0  0  0
   47.0590   33.4160   47.1450 O   0  0  0  0  0  0  0  0  0  0  0  0
   47.5590   33.8030   46.3910 H   0  0  0  0  0  0  0  0  0  0  0  0
  1 20  1  0  0  0  0
  2  6  1  0  0  0  0
  2  1  2  0  0  0  0
  3  4  2  0  0  0  0
  3  2  1  0  0  0  0
  4  5  1  0  0  0  0
  5  1  1  0  0  0  0
  7  3  1  0  0  0  0
  8 11  1  6  0  0  0
  8  4  1  0  0  0  0
  9  8  1  0  0  0  0
  9 13  1  0  0  0  0
 10 14  1  1  0  0  0
 10  9  1  0  0  0  0
 10  8  1  0  0  0  0
 12  9  1  0  0  0  0
 15 16  2  0  0  0  0
 15 17  1  0  0  0  0
 17 10  1  0  0  0  0
 18 15  1  0  0  0  0
 19 17  1  0  0  0  0
 20 21  1  0  0  0  0
 21 23  1  0  0  0  0
 22 21  2  0  0  0  0
 23 24  2  0  0  0  0
 23 28  1  0  0  0  0
 24 25  1  0  0  0  0
 25 30  1  0  0  0  0
 25 26  2  0  0  0  0
 27 26  1  0  0  0  0
 27 31  1  0  0  0  0
 28 27  2  0  0  0  0
 29 24  1  0  0  0  0
 31 33  1  0  0  0  0
 33 34  1  0  0  0  0
 33 36  1  0  0  0  0
 33 32  2  0  0  0  0
 35 34  1  0  0  0  0
 37 36  1  0  0  0  0
M  END
>  <minimizedAffinity>
-5.55289793

>  <minimizedRMSD>
1.27148151

$$$$
