
 OpenBabel03242512053D

 18 18  0  0  0  0  0  0  0  0999 V2000
   39.1100   27.1120   43.4440 C   0  0  0  0  0  0  0  0  0  0  0  0
   37.9580   27.0950   42.6620 C   0  0  0  0  0  0  0  0  0  0  0  0
   37.5660   25.8640   42.1080 C   0  0  0  0  0  0  0  0  0  0  0  0
   38.3180   24.7590   42.3540 N   0  0  0  0  0  0  0  0  0  0  0  0
   39.4360   24.8330   43.1250 C   0  0  0  0  0  0  0  0  0  0  0  0
   39.8280   25.9890   43.6630 N   0  0  0  0  0  0  0  0  0  0  0  0
   39.4770   28.0200   43.9050 H   0  0  0  0  0  0  0  0  0  0  0  0
   36.6690   25.8010   41.4880 H   0  0  0  0  0  0  0  0  0  0  0  0
   39.9210   23.8570   43.2230 H   0  0  0  0  0  0  0  0  0  0  0  0
   37.1990   28.2760   42.4310 C   0  0  0  0  0  0  0  0  0  0  0  0
   37.6370   29.3560   42.9290 O   0  0  0  0  0  0  0  0  0  0  0  0
   36.0200   28.2470   41.6860 O   0  0  0  0  0  0  0  0  0  0  0  0
   36.6220   29.5090   39.4010 O   0  0  0  0  0  0  0  0  0  0  0  0
   35.6350   29.4740   40.5250 P   0  0  0  0  0  0  0  0  0  0  0  0
   35.6910   30.9450   41.3860 O   0  0  0  0  0  0  0  0  0  0  0  0
   34.9920   30.9260   42.0940 H   0  0  0  0  0  0  0  0  0  0  0  0
   34.0390   29.2930   40.0060 O   0  0  0  0  0  0  0  0  0  0  0  0
   33.4460   29.5470   40.7590 H   0  0  0  0  0  0  0  0  0  0  0  0
  1  6  1  0  0  0  0
  1  7  1  0  0  0  0
  2  1  2  0  0  0  0
  3  4  2  0  0  0  0
  3  2  1  0  0  0  0
  4  5  1  0  0  0  0
  5  9  1  0  0  0  0
  5  6  2  0  0  0  0
  8  3  1  0  0  0  0
 10  2  1  0  0  0  0
 10 11  2  0  0  0  0
 12 10  1  0  0  0  0
 13 14  2  0  0  0  0
 14 15  1  0  0  0  0
 14 12  1  0  0  0  0
 15 16  1  0  0  0  0
 17 14  1  0  0  0  0
 17 18  1  0  0  0  0
M  END
>  <minimizedAffinity>
-4.47123098

$$$$

 OpenBabel03242512053D

 18 18  0  0  0  0  0  0  0  0999 V2000
   38.4250   28.0130   41.2680 C   0  0  0  0  0  0  0  0  0  0  0  0
   38.2530   29.0400   42.1930 C   0  0  0  0  0  0  0  0  0  0  0  0
   37.5530   28.7400   43.3750 C   0  0  0  0  0  0  0  0  0  0  0  0
   37.0810   27.4800   43.5610 N   0  0  0  0  0  0  0  0  0  0  0  0
   37.2780   26.5140   42.6240 C   0  0  0  0  0  0  0  0  0  0  0  0
   37.9380   26.7730   41.4950 N   0  0  0  0  0  0  0  0  0  0  0  0
   38.9520   28.1650   40.3340 H   0  0  0  0  0  0  0  0  0  0  0  0
   37.3930   29.5130   44.1300 H   0  0  0  0  0  0  0  0  0  0  0  0
   36.8360   25.5610   42.9310 H   0  0  0  0  0  0  0  0  0  0  0  0
   38.7650   30.3470   41.9570 C   0  0  0  0  0  0  0  0  0  0  0  0
   39.4470   30.8800   42.8830 O   0  0  0  0  0  0  0  0  0  0  0  0
   38.5250   31.0140   40.7560 O   0  0  0  0  0  0  0  0  0  0  0  0
   36.5950   30.9310   38.9010 O   0  0  0  0  0  0  0  0  0  0  0  0
   36.9290   31.4660   40.2570 P   0  0  0  0  0  0  0  0  0  0  0  0
   36.9340   33.1720   40.2170 O   0  0  0  0  0  0  0  0  0  0  0  0
   37.1040   33.5110   41.1370 H   0  0  0  0  0  0  0  0  0  0  0  0
   35.8110   31.0270   41.4430 O   0  0  0  0  0  0  0  0  0  0  0  0
   35.9460   31.6250   42.2220 H   0  0  0  0  0  0  0  0  0  0  0  0
  1  6  2  0  0  0  0
  1  2  1  0  0  0  0
  2  3  2  0  0  0  0
  3  4  1  0  0  0  0
  3  8  1  0  0  0  0
  5  9  1  0  0  0  0
  5  4  2  0  0  0  0
  6  5  1  0  0  0  0
  7  1  1  0  0  0  0
 10  2  1  0  0  0  0
 10 11  2  0  0  0  0
 12 10  1  0  0  0  0
 13 14  2  0  0  0  0
 14 12  1  0  0  0  0
 14 17  1  0  0  0  0
 15 14  1  0  0  0  0
 15 16  1  0  0  0  0
 17 18  1  0  0  0  0
M  END
>  <minimizedAffinity>
-4.44470978

$$$$

 OpenBabel03242512053D

 18 18  0  0  0  0  0  0  0  0999 V2000
   37.0220   28.2260   41.1220 C   0  0  0  0  0  0  0  0  0  0  0  0
   37.4510   29.3090   41.8850 C   0  0  0  0  0  0  0  0  0  0  0  0
   38.0030   29.0370   43.1490 C   0  0  0  0  0  0  0  0  0  0  0  0
   38.0930   27.7470   43.5660 N   0  0  0  0  0  0  0  0  0  0  0  0
   37.6580   26.7260   42.7800 C   0  0  0  0  0  0  0  0  0  0  0  0
   37.1310   26.9580   41.5770 N   0  0  0  0  0  0  0  0  0  0  0  0
   36.5860   28.3530   40.1390 H   0  0  0  0  0  0  0  0  0  0  0  0
   38.3530   29.8540   43.7830 H   0  0  0  0  0  0  0  0  0  0  0  0
   37.8030   25.7560   43.2650 H   0  0  0  0  0  0  0  0  0  0  0  0
   37.3380   30.6450   41.4080 C   0  0  0  0  0  0  0  0  0  0  0  0
   36.1770   31.0630   41.1180 O   0  0  0  0  0  0  0  0  0  0  0  0
   38.4600   31.4610   41.2640 O   0  0  0  0  0  0  0  0  0  0  0  0
   39.3940   33.0000   39.2810 O   0  0  0  0  0  0  0  0  0  0  0  0
   38.4030   32.9620   40.4010 P   0  0  0  0  0  0  0  0  0  0  0  0
   38.7900   34.1610   41.5520 O   0  0  0  0  0  0  0  0  0  0  0  0
   38.0920   34.1580   42.2610 H   0  0  0  0  0  0  0  0  0  0  0  0
   36.8210   33.2790   39.9060 O   0  0  0  0  0  0  0  0  0  0  0  0
   36.2900   33.5010   40.7130 H   0  0  0  0  0  0  0  0  0  0  0  0
  1  6  2  0  0  0  0
  1  2  1  0  0  0  0
  2  3  2  0  0  0  0
  3  4  1  0  0  0  0
  3  8  1  0  0  0  0
  5  9  1  0  0  0  0
  5  4  2  0  0  0  0
  6  5  1  0  0  0  0
  7  1  1  0  0  0  0
 10  2  1  0  0  0  0
 11 10  2  0  0  0  0
 12 10  1  0  0  0  0
 13 14  2  0  0  0  0
 14 12  1  0  0  0  0
 14 15  1  0  0  0  0
 15 16  1  0  0  0  0
 17 14  1  0  0  0  0
 17 18  1  0  0  0  0
M  END
>  <minimizedAffinity>
-4.39099264

$$$$

 OpenBabel03242512053D

 18 18  0  0  0  0  0  0  0  0999 V2000
   38.8470   29.3070   42.4590 C   0  0  0  0  0  0  0  0  0  0  0  0
   37.5810   29.3450   41.8810 C   0  0  0  0  0  0  0  0  0  0  0  0
   36.7200   28.2610   42.1270 C   0  0  0  0  0  0  0  0  0  0  0  0
   37.1550   27.2370   42.9070 N   0  0  0  0  0  0  0  0  0  0  0  0
   38.4030   27.2510   43.4480 C   0  0  0  0  0  0  0  0  0  0  0  0
   39.2370   28.2680   43.2290 N   0  0  0  0  0  0  0  0  0  0  0  0
   39.5670   30.1030   42.3170 H   0  0  0  0  0  0  0  0  0  0  0  0
   35.7180   28.2460   41.6950 H   0  0  0  0  0  0  0  0  0  0  0  0
   38.5910   26.3550   44.0470 H   0  0  0  0  0  0  0  0  0  0  0  0
   37.1660   30.4380   41.0690 C   0  0  0  0  0  0  0  0  0  0  0  0
   36.0000   30.8960   41.2630 O   0  0  0  0  0  0  0  0  0  0  0  0
   38.0090   30.9840   40.1010 O   0  0  0  0  0  0  0  0  0  0  0  0
   39.0930   33.1510   41.2410 O   0  0  0  0  0  0  0  0  0  0  0  0
   38.3520   32.6800   40.0300 P   0  0  0  0  0  0  0  0  0  0  0  0
   36.8290   33.4470   39.9530 O   0  0  0  0  0  0  0  0  0  0  0  0
   36.3740   33.1640   39.1150 H   0  0  0  0  0  0  0  0  0  0  0  0
   39.1370   33.0470   38.5820 O   0  0  0  0  0  0  0  0  0  0  0  0
   38.4770   32.9530   37.8480 H   0  0  0  0  0  0  0  0  0  0  0  0
  1  6  1  0  0  0  0
  2  3  1  0  0  0  0
  2  1  2  0  0  0  0
  3  4  2  0  0  0  0
  4  5  1  0  0  0  0
  5  9  1  0  0  0  0
  6  5  2  0  0  0  0
  7  1  1  0  0  0  0
  8  3  1  0  0  0  0
 10 11  2  0  0  0  0
 10  2  1  0  0  0  0
 12 10  1  0  0  0  0
 14 12  1  0  0  0  0
 14 13  2  0  0  0  0
 15 14  1  0  0  0  0
 16 15  1  0  0  0  0
 17 14  1  0  0  0  0
 18 17  1  0  0  0  0
M  END
>  <minimizedAffinity>
-4.12126589

$$$$

 OpenBabel03242512053D

 18 18  0  0  0  0  0  0  0  0999 V2000
   37.0250   25.3940   40.8460 C   0  0  0  0  0  0  0  0  0  0  0  0
   37.4080   26.1450   41.9540 C   0  0  0  0  0  0  0  0  0  0  0  0
   38.5770   25.7550   42.6310 C   0  0  0  0  0  0  0  0  0  0  0  0
   39.2720   24.6770   42.1820 N   0  0  0  0  0  0  0  0  0  0  0  0
   38.8520   23.9790   41.0930 C   0  0  0  0  0  0  0  0  0  0  0  0
   37.7470   24.3290   40.4330 N   0  0  0  0  0  0  0  0  0  0  0  0
   36.1380   25.6310   40.2720 H   0  0  0  0  0  0  0  0  0  0  0  0
   38.9180   26.3130   43.5060 H   0  0  0  0  0  0  0  0  0  0  0  0
   39.5230   23.1450   40.8670 H   0  0  0  0  0  0  0  0  0  0  0  0
   36.6500   27.2680   42.3900 C   0  0  0  0  0  0  0  0  0  0  0  0
   36.4260   27.3710   43.6330 O   0  0  0  0  0  0  0  0  0  0  0  0
   36.1740   28.2170   41.4860 O   0  0  0  0  0  0  0  0  0  0  0  0
   37.7530   29.9120   40.1420 O   0  0  0  0  0  0  0  0  0  0  0  0
   36.8780   29.7940   41.3500 P   0  0  0  0  0  0  0  0  0  0  0  0
   37.8170   29.9930   42.7610 O   0  0  0  0  0  0  0  0  0  0  0  0
   37.2130   29.9650   43.5510 H   0  0  0  0  0  0  0  0  0  0  0  0
   35.6710   30.9700   41.4180 O   0  0  0  0  0  0  0  0  0  0  0  0
   35.3230   30.9930   42.3470 H   0  0  0  0  0  0  0  0  0  0  0  0
  1  2  1  0  0  0  0
  2 10  1  0  0  0  0
  2  3  2  0  0  0  0
  3  8  1  0  0  0  0
  4  3  1  0  0  0  0
  5  4  2  0  0  0  0
  6  1  2  0  0  0  0
  6  5  1  0  0  0  0
  7  1  1  0  0  0  0
  9  5  1  0  0  0  0
 10 11  2  0  0  0  0
 12 10  1  0  0  0  0
 13 14  2  0  0  0  0
 14 17  1  0  0  0  0
 14 12  1  0  0  0  0
 14 15  1  0  0  0  0
 15 16  1  0  0  0  0
 17 18  1  0  0  0  0
M  END
>  <minimizedAffinity>
-3.99569321

$$$$

 OpenBabel03242512053D

 18 18  0  0  0  0  0  0  0  0999 V2000
   36.8420   26.8060   40.1980 C   0  0  0  0  0  0  0  0  0  0  0  0
   37.1540   27.1880   41.5000 C   0  0  0  0  0  0  0  0  0  0  0  0
   37.2260   26.1770   42.4750 C   0  0  0  0  0  0  0  0  0  0  0  0
   36.9910   24.8900   42.1100 N   0  0  0  0  0  0  0  0  0  0  0  0
   36.6890   24.5730   40.8220 C   0  0  0  0  0  0  0  0  0  0  0  0
   36.6150   25.5130   39.8790 N   0  0  0  0  0  0  0  0  0  0  0  0
   36.7680   27.5260   39.3920 H   0  0  0  0  0  0  0  0  0  0  0  0
   37.4680   26.4270   43.5100 H   0  0  0  0  0  0  0  0  0  0  0  0
   36.5300   23.4970   40.7000 H   0  0  0  0  0  0  0  0  0  0  0  0
   37.3950   28.5490   41.8390 C   0  0  0  0  0  0  0  0  0  0  0  0
   37.1900   28.8940   43.0410 O   0  0  0  0  0  0  0  0  0  0  0  0
   37.8380   29.4660   40.8860 O   0  0  0  0  0  0  0  0  0  0  0  0
   36.5170   30.7960   38.9730 O   0  0  0  0  0  0  0  0  0  0  0  0
   36.8900   30.8400   40.4210 P   0  0  0  0  0  0  0  0  0  0  0  0
   37.8830   32.1960   40.7190 O   0  0  0  0  0  0  0  0  0  0  0  0
   38.0760   32.2400   41.6940 H   0  0  0  0  0  0  0  0  0  0  0  0
   35.5610   30.9960   41.4490 O   0  0  0  0  0  0  0  0  0  0  0  0
   35.8970   31.2840   42.3360 H   0  0  0  0  0  0  0  0  0  0  0  0
  1  2  1  0  0  0  0
  2 10  1  0  0  0  0
  2  3  2  0  0  0  0
  3  8  1  0  0  0  0
  4  3  1  0  0  0  0
  5  4  2  0  0  0  0
  6  1  2  0  0  0  0
  6  5  1  0  0  0  0
  7  1  1  0  0  0  0
  9  5  1  0  0  0  0
 10 11  2  0  0  0  0
 12 10  1  0  0  0  0
 13 14  2  0  0  0  0
 14 15  1  0  0  0  0
 14 12  1  0  0  0  0
 14 17  1  0  0  0  0
 15 16  1  0  0  0  0
 17 18  1  0  0  0  0
M  END
>  <minimizedAffinity>
-3.96363163

$$$$

 OpenBabel03242512053D

 18 18  0  0  0  0  0  0  0  0999 V2000
   37.8820   26.0510   42.0800 C   0  0  0  0  0  0  0  0  0  0  0  0
   38.3840   27.2440   42.5930 C   0  0  0  0  0  0  0  0  0  0  0  0
   39.5180   27.1720   43.4200 C   0  0  0  0  0  0  0  0  0  0  0  0
   40.0690   25.9570   43.6800 N   0  0  0  0  0  0  0  0  0  0  0  0
   39.5380   24.8220   43.1520 C   0  0  0  0  0  0  0  0  0  0  0  0
   38.4620   24.8640   42.3650 N   0  0  0  0  0  0  0  0  0  0  0  0
   37.0120   26.0240   41.4360 H   0  0  0  0  0  0  0  0  0  0  0  0
   39.9470   28.0810   43.8450 H   0  0  0  0  0  0  0  0  0  0  0  0
   40.1010   23.9350   43.4590 H   0  0  0  0  0  0  0  0  0  0  0  0
   37.7750   28.4960   42.2940 C   0  0  0  0  0  0  0  0  0  0  0  0
   37.5220   29.2670   43.2680 O   0  0  0  0  0  0  0  0  0  0  0  0
   37.4700   28.8590   40.9820 O   0  0  0  0  0  0  0  0  0  0  0  0
   36.7720   30.6210   39.0890 O   0  0  0  0  0  0  0  0  0  0  0  0
   36.9730   30.4650   40.5640 P   0  0  0  0  0  0  0  0  0  0  0  0
   38.2430   31.4810   41.0820 O   0  0  0  0  0  0  0  0  0  0  0  0
   38.3260   31.4050   42.0710 H   0  0  0  0  0  0  0  0  0  0  0  0
   35.6200   30.9030   41.4720 O   0  0  0  0  0  0  0  0  0  0  0  0
   35.9140   31.0310   42.4110 H   0  0  0  0  0  0  0  0  0  0  0  0
  1  6  2  0  0  0  0
  1  2  1  0  0  0  0
  2  3  2  0  0  0  0
  3  4  1  0  0  0  0
  3  8  1  0  0  0  0
  5  9  1  0  0  0  0
  5  4  2  0  0  0  0
  6  5  1  0  0  0  0
  7  1  1  0  0  0  0
 10  2  1  0  0  0  0
 10 11  2  0  0  0  0
 12 10  1  0  0  0  0
 13 14  2  0  0  0  0
 14 12  1  0  0  0  0
 14 15  1  0  0  0  0
 14 17  1  0  0  0  0
 15 16  1  0  0  0  0
 17 18  1  0  0  0  0
M  END
>  <minimizedAffinity>
-3.89458895

$$$$

 OpenBabel03242512053D

 18 18  0  0  0  0  0  0  0  0999 V2000
   40.2050   31.7340   39.1600 C   0  0  0  0  0  0  0  0  0  0  0  0
   38.9350   32.0950   39.6030 C   0  0  0  0  0  0  0  0  0  0  0  0
   38.7910   33.3550   40.2080 C   0  0  0  0  0  0  0  0  0  0  0  0
   39.8810   34.1560   40.3340 N   0  0  0  0  0  0  0  0  0  0  0  0
   41.1000   33.7530   39.8830 C   0  0  0  0  0  0  0  0  0  0  0  0
   41.2620   32.5620   39.3050 N   0  0  0  0  0  0  0  0  0  0  0  0
   40.3970   30.7800   38.6840 H   0  0  0  0  0  0  0  0  0  0  0  0
   37.8140   33.6820   40.5710 H   0  0  0  0  0  0  0  0  0  0  0  0
   41.8650   34.5150   40.0610 H   0  0  0  0  0  0  0  0  0  0  0  0
   37.8190   31.2240   39.4510 C   0  0  0  0  0  0  0  0  0  0  0  0
   36.8910   31.5990   38.6740 O   0  0  0  0  0  0  0  0  0  0  0  0
   37.7510   30.0070   40.1300 O   0  0  0  0  0  0  0  0  0  0  0  0
   35.7180   28.4880   40.9850 O   0  0  0  0  0  0  0  0  0  0  0  0
   36.5410   29.6900   41.3280 P   0  0  0  0  0  0  0  0  0  0  0  0
   35.5490   31.0790   41.3500 O   0  0  0  0  0  0  0  0  0  0  0  0
   36.1000   31.8570   41.6320 H   0  0  0  0  0  0  0  0  0  0  0  0
   37.2540   29.5970   42.8550 O   0  0  0  0  0  0  0  0  0  0  0  0
   37.5420   30.5110   43.1090 H   0  0  0  0  0  0  0  0  0  0  0  0
  1  6  2  0  0  0  0
  1  2  1  0  0  0  0
  2  3  2  0  0  0  0
  3  4  1  0  0  0  0
  3  8  1  0  0  0  0
  5  9  1  0  0  0  0
  5  4  2  0  0  0  0
  6  5  1  0  0  0  0
  7  1  1  0  0  0  0
 10  2  1  0  0  0  0
 10 12  1  0  0  0  0
 11 10  2  0  0  0  0
 12 14  1  0  0  0  0
 13 14  2  0  0  0  0
 14 15  1  0  0  0  0
 14 17  1  0  0  0  0
 15 16  1  0  0  0  0
 17 18  1  0  0  0  0
M  END
>  <minimizedAffinity>
-3.88738275

$$$$

 OpenBabel03242512053D

 18 18  0  0  0  0  0  0  0  0999 V2000
   37.4060   25.7930   39.4250 C   0  0  0  0  0  0  0  0  0  0  0  0
   37.0900   25.7260   40.7800 C   0  0  0  0  0  0  0  0  0  0  0  0
   36.8860   24.4530   41.3380 C   0  0  0  0  0  0  0  0  0  0  0  0
   37.0030   23.3570   40.5440 N   0  0  0  0  0  0  0  0  0  0  0  0
   37.3140   23.4790   39.2250 C   0  0  0  0  0  0  0  0  0  0  0  0
   37.5130   24.6760   38.6720 N   0  0  0  0  0  0  0  0  0  0  0  0
   37.5780   26.7360   38.9220 H   0  0  0  0  0  0  0  0  0  0  0  0
   36.6360   24.3500   42.3960 H   0  0  0  0  0  0  0  0  0  0  0  0
   37.3690   22.5030   38.7330 H   0  0  0  0  0  0  0  0  0  0  0  0
   36.9780   26.9010   41.5760 C   0  0  0  0  0  0  0  0  0  0  0  0
   37.4020   26.8380   42.7680 O   0  0  0  0  0  0  0  0  0  0  0  0
   36.4240   28.0740   41.0640 O   0  0  0  0  0  0  0  0  0  0  0  0
   38.2130   30.0660   41.0230 O   0  0  0  0  0  0  0  0  0  0  0  0
   36.9090   29.6410   41.6210 P   0  0  0  0  0  0  0  0  0  0  0  0
   37.0740   29.4880   43.3130 O   0  0  0  0  0  0  0  0  0  0  0  0
   36.1870   29.2580   43.6980 H   0  0  0  0  0  0  0  0  0  0  0  0
   35.6640   30.7520   41.3680 O   0  0  0  0  0  0  0  0  0  0  0  0
   34.9350   30.5380   42.0050 H   0  0  0  0  0  0  0  0  0  0  0  0
  1  2  1  0  0  0  0
  2  3  2  0  0  0  0
  2 10  1  0  0  0  0
  3  8  1  0  0  0  0
  4  3  1  0  0  0  0
  5  4  2  0  0  0  0
  6  5  1  0  0  0  0
  6  1  2  0  0  0  0
  7  1  1  0  0  0  0
  9  5  1  0  0  0  0
 10 11  2  0  0  0  0
 12 10  1  0  0  0  0
 12 14  1  0  0  0  0
 13 14  2  0  0  0  0
 14 15  1  0  0  0  0
 15 16  1  0  0  0  0
 17 14  1  0  0  0  0
 17 18  1  0  0  0  0
M  END
>  <minimizedAffinity>
-3.81184292

$$$$
