
 OpenBabel03242516533D

 43 45  0  0  1  0  0  0  0  0999 V2000
   47.6740   32.5870   41.3270 C   0  0  1  0  0  0  0  0  0  0  0  0
   47.0770   31.9380   40.1620 C   0  0  0  0  0  0  0  0  0  0  0  0
   47.9880   32.2670   38.9810 C   0  0  0  0  0  0  0  0  0  0  0  0
   47.8090   33.7500   38.6980 C   0  0  0  0  0  0  0  0  0  0  0  0
   48.0480   34.6340   39.8860 C   0  0  0  0  0  0  0  0  0  0  0  0
   47.6700   34.1140   41.2060 C   0  0  1  0  0  0  0  0  0  0  0  0
   48.7830   32.3510   41.3370 H   0  0  0  0  0  0  0  0  0  0  0  0
   47.1160   30.8400   40.2940 H   0  0  0  0  0  0  0  0  0  0  0  0
   46.0360   32.2070   39.9430 H   0  0  0  0  0  0  0  0  0  0  0  0
   49.0300   32.0790   39.2950 H   0  0  0  0  0  0  0  0  0  0  0  0
   47.6910   31.7380   38.0740 H   0  0  0  0  0  0  0  0  0  0  0  0
   46.7320   33.8530   38.3990 H   0  0  0  0  0  0  0  0  0  0  0  0
   48.4350   34.0820   37.8580 H   0  0  0  0  0  0  0  0  0  0  0  0
   49.1080   34.9650   39.8320 H   0  0  0  0  0  0  0  0  0  0  0  0
   47.4490   35.5530   39.6980 H   0  0  0  0  0  0  0  0  0  0  0  0
   48.4540   34.4550   41.9490 H   0  0  0  0  0  0  0  0  0  0  0  0
   45.4500   31.0110   43.9460 C   0  0  0  0  0  0  0  0  0  0  0  0
   46.0120   31.4170   42.7310 C   0  0  0  0  0  0  0  0  0  0  0  0
   47.1630   32.2040   42.6270 C   0  0  0  0  0  0  0  0  0  0  0  0
   47.7190   32.5600   43.7850 N   0  0  0  0  0  0  0  0  0  0  0  0
   47.1850   32.1740   44.9740 C   0  0  0  0  0  0  0  0  0  0  0  0
   46.0880   31.4240   45.0670 N   0  0  0  0  0  0  0  0  0  0  0  0
   44.5570   30.4030   43.9310 H   0  0  0  0  0  0  0  0  0  0  0  0
   45.4910   31.0810   41.8210 H   0  0  0  0  0  0  0  0  0  0  0  0
   47.7340   32.5320   45.8290 H   0  0  0  0  0  0  0  0  0  0  0  0
   46.4190   34.6910   41.6990 C   0  0  0  0  0  0  0  0  0  0  0  0
   46.2800   35.5500   42.8010 C   0  0  0  0  0  0  0  0  0  0  0  0
   44.9830   35.9860   43.0700 C   0  0  0  0  0  0  0  0  0  0  0  0
   43.9620   35.5490   42.2530 C   0  0  0  0  0  0  0  0  0  0  0  0
   44.1200   34.7040   41.1760 C   0  0  0  0  0  0  0  0  0  0  0  0
   45.3930   34.2830   40.9200 N   0  0  0  0  0  0  0  0  0  0  0  0
   47.1660   35.7920   43.3280 H   0  0  0  0  0  0  0  0  0  0  0  0
   44.8580   36.6450   43.9110 H   0  0  0  0  0  0  0  0  0  0  0  0
   42.9670   35.9200   42.5080 H   0  0  0  0  0  0  0  0  0  0  0  0
   42.9800   34.2900   40.3510 C   0  0  0  0  0  0  0  0  0  0  0  0
   42.0880   33.5810   40.8900 O   0  0  0  0  0  0  0  0  0  0  0  0
   42.8620   34.6560   38.9960 O   0  0  0  0  0  0  0  0  0  0  0  0
   40.5400   34.0600   37.8200 O   0  0  0  0  0  0  0  0  0  0  0  0
   41.3610   35.2060   38.3510 P   0  0  0  0  0  0  0  0  0  0  0  0
   41.7300   36.3280   37.1400 O   0  0  0  0  0  0  0  0  0  0  0  0
   41.7900   37.2160   37.5670 H   0  0  0  0  0  0  0  0  0  0  0  0
   40.4400   36.0070   39.5270 O   0  0  0  0  0  0  0  0  0  0  0  0
   40.9340   35.9270   40.3790 H   0  0  0  0  0  0  0  0  0  0  0  0
  1  7  1  6  0  0  0
  1 19  1  0  0  0  0
  2  8  1  0  0  0  0
  2  1  1  0  0  0  0
  3 10  1  0  0  0  0
  3  2  1  0  0  0  0
  4  3  1  0  0  0  0
  4  5  1  0  0  0  0
  5  6  1  0  0  0  0
  6  1  1  0  0  0  0
  6 26  1  0  0  0  0
  6 16  1  1  0  0  0
  9  2  1  0  0  0  0
 11  3  1  0  0  0  0
 12  4  1  0  0  0  0
 13  4  1  0  0  0  0
 14  5  1  0  0  0  0
 15  5  1  0  0  0  0
 17 22  1  0  0  0  0
 18 17  2  0  0  0  0
 19 18  1  0  0  0  0
 19 20  2  0  0  0  0
 20 21  1  0  0  0  0
 21 22  2  0  0  0  0
 21 25  1  0  0  0  0
 23 17  1  0  0  0  0
 24 18  1  0  0  0  0
 26 27  1  0  0  0  0
 27 28  2  0  0  0  0
 27 32  1  0  0  0  0
 28 33  1  0  0  0  0
 29 34  1  0  0  0  0
 29 28  1  0  0  0  0
 30 29  2  0  0  0  0
 31 30  1  0  0  0  0
 31 26  2  0  0  0  0
 35 36  2  0  0  0  0
 35 30  1  0  0  0  0
 37 35  1  0  0  0  0
 38 39  2  0  0  0  0
 39 37  1  0  0  0  0
 39 42  1  0  0  0  0
 40 41  1  0  0  0  0
 40 39  1  0  0  0  0
 42 43  1  0  0  0  0
M  END
>  <minimizedAffinity>
-5.51637316

>  <minimizedRMSD>
2.48313022

$$$$
