
 OpenBabel03242520013D

 28 29  0  0  0  0  0  0  0  0999 V2000
   37.0930   27.5820   39.0740 Br  0  0  0  0  0  0  0  0  0  0  0  0
   37.4670   27.7860   40.9470 C   0  0  0  0  0  0  0  0  0  0  0  0
   37.8320   26.7340   41.7450 C   0  0  0  0  0  0  0  0  0  0  0  0
   38.0800   26.9860   43.0850 C   0  0  0  0  0  0  0  0  0  0  0  0
   37.9740   28.2450   43.6300 C   0  0  0  0  0  0  0  0  0  0  0  0
   37.6080   29.3150   42.8390 C   0  0  0  0  0  0  0  0  0  0  0  0
   37.3670   29.0460   41.5210 C   0  0  0  0  0  0  0  0  0  0  0  0
   38.3670   26.1540   43.7130 H   0  0  0  0  0  0  0  0  0  0  0  0
   38.1870   28.3470   44.6870 H   0  0  0  0  0  0  0  0  0  0  0  0
   37.5260   30.3030   43.2740 H   0  0  0  0  0  0  0  0  0  0  0  0
   36.9850   23.2440   40.5150 C   0  0  0  0  0  0  0  0  0  0  0  0
   36.8810   24.5010   41.1160 C   0  0  0  0  0  0  0  0  0  0  0  0
   37.9300   25.4220   41.1220 C   0  0  0  0  0  0  0  0  0  0  0  0
   39.0550   24.9970   40.4990 N   0  0  0  0  0  0  0  0  0  0  0  0
   39.1620   23.7900   39.9200 C   0  0  0  0  0  0  0  0  0  0  0  0
   38.1460   22.9260   39.9260 N   0  0  0  0  0  0  0  0  0  0  0  0
   36.0920   22.6220   40.5820 H   0  0  0  0  0  0  0  0  0  0  0  0
   35.9620   24.8190   41.6110 H   0  0  0  0  0  0  0  0  0  0  0  0
   40.1120   23.5640   39.4540 H   0  0  0  0  0  0  0  0  0  0  0  0
   36.9750   30.1560   40.6430 C   0  0  0  0  0  0  0  0  0  0  0  0
   35.7670   30.5150   40.5880 O   0  0  0  0  0  0  0  0  0  0  0  0
   37.9810   30.7880   39.8840 O   0  0  0  0  0  0  0  0  0  0  0  0
   39.0940   32.7360   41.3100 O   0  0  0  0  0  0  0  0  0  0  0  0
   38.2850   32.4710   40.0650 P   0  0  0  0  0  0  0  0  0  0  0  0
   39.1550   32.9930   38.7130 O   0  0  0  0  0  0  0  0  0  0  0  0
   38.5890   33.0930   37.9190 H   0  0  0  0  0  0  0  0  0  0  0  0
   36.8310   33.3300   40.0670 O   0  0  0  0  0  0  0  0  0  0  0  0
   36.0290   32.7800   40.0060 H   0  0  0  0  0  0  0  0  0  0  0  0
  1  2  1  0  0  0  0
  2  7  2  0  0  0  0
  2  3  1  0  0  0  0
  3  4  2  0  0  0  0
  4  5  1  0  0  0  0
  4  8  1  0  0  0  0
  5  9  1  0  0  0  0
  6 10  1  0  0  0  0
  6  5  2  0  0  0  0
  7  6  1  0  0  0  0
 11 17  1  0  0  0  0
 11 12  1  0  0  0  0
 12 13  2  0  0  0  0
 12 18  1  0  0  0  0
 13  3  1  0  0  0  0
 14 13  1  0  0  0  0
 15 16  1  0  0  0  0
 15 14  2  0  0  0  0
 16 11  2  0  0  0  0
 19 15  1  0  0  0  0
 20  7  1  0  0  0  0
 21 20  2  0  0  0  0
 22 24  1  0  0  0  0
 22 20  1  0  0  0  0
 24 27  1  0  0  0  0
 24 23  2  0  0  0  0
 25 24  1  0  0  0  0
 26 25  1  0  0  0  0
 28 27  1  0  0  0  0
M  END
>  <minimizedAffinity>
-5.27727079

$$$$

 OpenBabel03242520013D

 28 29  0  0  0  0  0  0  0  0999 V2000
   39.8630   28.1650   41.5500 Br  0  0  0  0  0  0  0  0  0  0  0  0
   38.0940   28.8190   41.1840 C   0  0  0  0  0  0  0  0  0  0  0  0
   37.0350   27.9850   40.9400 C   0  0  0  0  0  0  0  0  0  0  0  0
   35.7980   28.5560   40.6870 C   0  0  0  0  0  0  0  0  0  0  0  0
   35.6050   29.9190   40.6750 C   0  0  0  0  0  0  0  0  0  0  0  0
   36.6610   30.7720   40.9190 C   0  0  0  0  0  0  0  0  0  0  0  0
   37.8730   30.1900   41.1660 C   0  0  0  0  0  0  0  0  0  0  0  0
   34.9640   27.8960   40.4940 H   0  0  0  0  0  0  0  0  0  0  0  0
   34.6030   30.2750   40.4670 H   0  0  0  0  0  0  0  0  0  0  0  0
   36.5020   31.8430   40.9070 H   0  0  0  0  0  0  0  0  0  0  0  0
   37.3810   24.3940   42.1220 C   0  0  0  0  0  0  0  0  0  0  0  0
   37.1330   25.7700   42.1090 C   0  0  0  0  0  0  0  0  0  0  0  0
   37.2910   26.5530   40.9640 C   0  0  0  0  0  0  0  0  0  0  0  0
   37.7020   25.8710   39.8680 N   0  0  0  0  0  0  0  0  0  0  0  0
   37.9430   24.5500   39.8740 C   0  0  0  0  0  0  0  0  0  0  0  0
   37.7850   23.8210   40.9800 N   0  0  0  0  0  0  0  0  0  0  0  0
   37.2190   23.9020   43.0800 H   0  0  0  0  0  0  0  0  0  0  0  0
   36.8010   26.2940   43.0060 H   0  0  0  0  0  0  0  0  0  0  0  0
   38.2680   24.1170   38.9360 H   0  0  0  0  0  0  0  0  0  0  0  0
   39.0250   31.0620   41.4310 C   0  0  0  0  0  0  0  0  0  0  0  0
   39.4550   31.1900   42.6090 O   0  0  0  0  0  0  0  0  0  0  0  0
   39.6140   31.7310   40.3390 O   0  0  0  0  0  0  0  0  0  0  0  0
   40.5240   34.0660   39.4540 O   0  0  0  0  0  0  0  0  0  0  0  0
   39.3210   33.4060   40.0800 P   0  0  0  0  0  0  0  0  0  0  0  0
   38.0000   33.5490   39.0360 O   0  0  0  0  0  0  0  0  0  0  0  0
   37.1460   33.3820   39.4880 H   0  0  0  0  0  0  0  0  0  0  0  0
   38.8790   34.1520   41.5280 O   0  0  0  0  0  0  0  0  0  0  0  0
   38.8820   33.5680   42.3090 H   0  0  0  0  0  0  0  0  0  0  0  0
  2  1  1  0  0  0  0
  3 13  1  0  0  0  0
  3  2  2  0  0  0  0
  4  3  1  0  0  0  0
  5  4  2  0  0  0  0
  5  6  1  0  0  0  0
  6  7  2  0  0  0  0
  7  2  1  0  0  0  0
  7 20  1  0  0  0  0
  8  4  1  0  0  0  0
  9  5  1  0  0  0  0
 10  6  1  0  0  0  0
 11 17  1  0  0  0  0
 12 11  1  0  0  0  0
 12 18  1  0  0  0  0
 13 12  2  0  0  0  0
 14 15  2  0  0  0  0
 14 13  1  0  0  0  0
 15 16  1  0  0  0  0
 16 11  2  0  0  0  0
 19 15  1  0  0  0  0
 20 21  2  0  0  0  0
 22 20  1  0  0  0  0
 23 24  2  0  0  0  0
 24 22  1  0  0  0  0
 24 27  1  0  0  0  0
 25 26  1  0  0  0  0
 25 24  1  0  0  0  0
 27 28  1  0  0  0  0
M  END
>  <minimizedAffinity>
-5.24939013

$$$$

 OpenBabel03242520013D

 28 29  0  0  0  0  0  0  0  0999 V2000
   38.7550   28.5570   39.3720 Br  0  0  0  0  0  0  0  0  0  0  0  0
   38.0620   28.1560   41.1180 C   0  0  0  0  0  0  0  0  0  0  0  0
   37.5900   26.9150   41.4580 C   0  0  0  0  0  0  0  0  0  0  0  0
   37.1110   26.7280   42.7450 C   0  0  0  0  0  0  0  0  0  0  0  0
   37.0960   27.7380   43.6790 C   0  0  0  0  0  0  0  0  0  0  0  0
   37.5670   28.9930   43.3530 C   0  0  0  0  0  0  0  0  0  0  0  0
   38.0350   29.1580   42.0790 C   0  0  0  0  0  0  0  0  0  0  0  0
   36.7390   25.7490   43.0110 H   0  0  0  0  0  0  0  0  0  0  0  0
   36.7020   27.5000   44.6600 H   0  0  0  0  0  0  0  0  0  0  0  0
   37.5520   29.7840   44.0930 H   0  0  0  0  0  0  0  0  0  0  0  0
   36.6250   24.6610   38.5610 C   0  0  0  0  0  0  0  0  0  0  0  0
   36.5800   25.6570   39.5400 C   0  0  0  0  0  0  0  0  0  0  0  0
   37.6270   25.8810   40.4350 C   0  0  0  0  0  0  0  0  0  0  0  0
   38.6890   25.0540   40.2770 N   0  0  0  0  0  0  0  0  0  0  0  0
   38.7380   24.0950   39.3390 C   0  0  0  0  0  0  0  0  0  0  0  0
   37.7250   23.8990   38.4940 N   0  0  0  0  0  0  0  0  0  0  0  0
   35.7410   24.5920   37.9270 H   0  0  0  0  0  0  0  0  0  0  0  0
   35.7130   26.3100   39.6450 H   0  0  0  0  0  0  0  0  0  0  0  0
   39.6400   23.4970   39.3110 H   0  0  0  0  0  0  0  0  0  0  0  0
   38.5460   30.4780   41.6890 C   0  0  0  0  0  0  0  0  0  0  0  0
   39.7310   30.8010   41.9760 O   0  0  0  0  0  0  0  0  0  0  0  0
   37.6780   31.3470   40.9960 O   0  0  0  0  0  0  0  0  0  0  0  0
   39.0610   32.4910   39.0360 O   0  0  0  0  0  0  0  0  0  0  0  0
   38.2740   32.7950   40.2860 P   0  0  0  0  0  0  0  0  0  0  0  0
   36.9480   33.7650   39.8890 O   0  0  0  0  0  0  0  0  0  0  0  0
   36.5590   34.2080   40.6720 H   0  0  0  0  0  0  0  0  0  0  0  0
   39.1900   33.6620   41.4090 O   0  0  0  0  0  0  0  0  0  0  0  0
   39.2940   33.2290   42.2760 H   0  0  0  0  0  0  0  0  0  0  0  0
  1  2  1  0  0  0  0
  2  3  2  0  0  0  0
  2  7  1  0  0  0  0
  3  4  1  0  0  0  0
  4  8  1  0  0  0  0
  4  5  2  0  0  0  0
  5  9  1  0  0  0  0
  6  5  1  0  0  0  0
  6 10  1  0  0  0  0
  7  6  2  0  0  0  0
 11 12  1  0  0  0  0
 12 18  1  0  0  0  0
 12 13  2  0  0  0  0
 13  3  1  0  0  0  0
 14 13  1  0  0  0  0
 15 14  2  0  0  0  0
 16 11  2  0  0  0  0
 16 15  1  0  0  0  0
 17 11  1  0  0  0  0
 19 15  1  0  0  0  0
 20 21  2  0  0  0  0
 20  7  1  0  0  0  0
 22 20  1  0  0  0  0
 23 24  2  0  0  0  0
 24 22  1  0  0  0  0
 24 27  1  0  0  0  0
 25 24  1  0  0  0  0
 25 26  1  0  0  0  0
 27 28  1  0  0  0  0
M  END
>  <minimizedAffinity>
-5.22406006

$$$$

 OpenBabel03242520013D

 28 29  0  0  0  0  0  0  0  0999 V2000
   36.9920   28.0990   39.1640 Br  0  0  0  0  0  0  0  0  0  0  0  0
   37.5040   27.9280   41.0080 C   0  0  0  0  0  0  0  0  0  0  0  0
   37.8190   26.7230   41.5770 C   0  0  0  0  0  0  0  0  0  0  0  0
   38.1760   26.7050   42.9160 C   0  0  0  0  0  0  0  0  0  0  0  0
   38.2240   27.8490   43.6800 C   0  0  0  0  0  0  0  0  0  0  0  0
   37.9110   29.0710   43.1210 C   0  0  0  0  0  0  0  0  0  0  0  0
   37.5610   29.0670   41.8000 C   0  0  0  0  0  0  0  0  0  0  0  0
   38.4230   25.7530   43.3630 H   0  0  0  0  0  0  0  0  0  0  0  0
   38.5140   27.7400   44.7180 H   0  0  0  0  0  0  0  0  0  0  0  0
   37.9510   29.9670   43.7280 H   0  0  0  0  0  0  0  0  0  0  0  0
   36.5910   23.5600   39.8730 C   0  0  0  0  0  0  0  0  0  0  0  0
   36.6460   24.6920   40.6920 C   0  0  0  0  0  0  0  0  0  0  0  0
   37.7520   25.5420   40.7280 C   0  0  0  0  0  0  0  0  0  0  0  0
   38.7660   25.1820   39.9060 N   0  0  0  0  0  0  0  0  0  0  0  0
   38.7200   24.0960   39.1170 C   0  0  0  0  0  0  0  0  0  0  0  0
   37.6530   23.2970   39.0980 N   0  0  0  0  0  0  0  0  0  0  0  0
   35.6700   22.9820   39.9400 H   0  0  0  0  0  0  0  0  0  0  0  0
   35.8140   24.9600   41.3450 H   0  0  0  0  0  0  0  0  0  0  0  0
   39.5930   23.9110   38.5040 H   0  0  0  0  0  0  0  0  0  0  0  0
   37.2190   30.3460   41.1640 C   0  0  0  0  0  0  0  0  0  0  0  0
   36.0380   30.7830   41.2310 O   0  0  0  0  0  0  0  0  0  0  0  0
   38.2420   31.0480   40.4950 O   0  0  0  0  0  0  0  0  0  0  0  0
   37.1230   31.6440   38.1590 O   0  0  0  0  0  0  0  0  0  0  0  0
   37.8580   32.2510   39.3280 P   0  0  0  0  0  0  0  0  0  0  0  0
   36.8700   33.4030   40.0710 O   0  0  0  0  0  0  0  0  0  0  0  0
   37.3730   34.0080   40.6560 H   0  0  0  0  0  0  0  0  0  0  0  0
   39.2590   33.0570   38.8380 O   0  0  0  0  0  0  0  0  0  0  0  0
   40.0840   32.7260   39.2360 H   0  0  0  0  0  0  0  0  0  0  0  0
  1  2  1  0  0  0  0
  2  3  2  0  0  0  0
  2  7  1  0  0  0  0
  3  4  1  0  0  0  0
  4  8  1  0  0  0  0
  4  5  2  0  0  0  0
  5  9  1  0  0  0  0
  6  5  1  0  0  0  0
  6 10  1  0  0  0  0
  7  6  2  0  0  0  0
 11 17  1  0  0  0  0
 11 12  1  0  0  0  0
 12 13  2  0  0  0  0
 12 18  1  0  0  0  0
 13  3  1  0  0  0  0
 14 13  1  0  0  0  0
 15 14  2  0  0  0  0
 16 15  1  0  0  0  0
 16 11  2  0  0  0  0
 19 15  1  0  0  0  0
 20 21  2  0  0  0  0
 20  7  1  0  0  0  0
 22 20  1  0  0  0  0
 23 24  2  0  0  0  0
 24 25  1  0  0  0  0
 24 22  1  0  0  0  0
 25 26  1  0  0  0  0
 27 28  1  0  0  0  0
 27 24  1  0  0  0  0
M  END
>  <minimizedAffinity>
-5.20941114

$$$$

 OpenBabel03242520013D

 28 29  0  0  0  0  0  0  0  0999 V2000
   39.7090   27.5680   39.9350 Br  0  0  0  0  0  0  0  0  0  0  0  0
   38.1880   28.6790   40.3160 C   0  0  0  0  0  0  0  0  0  0  0  0
   36.9790   28.1660   40.7050 C   0  0  0  0  0  0  0  0  0  0  0  0
   35.9430   29.0510   40.9560 C   0  0  0  0  0  0  0  0  0  0  0  0
   36.0920   30.4130   40.8290 C   0  0  0  0  0  0  0  0  0  0  0  0
   37.3030   30.9460   40.4380 C   0  0  0  0  0  0  0  0  0  0  0  0
   38.3120   30.0560   40.1950 C   0  0  0  0  0  0  0  0  0  0  0  0
   34.9900   28.6440   41.2630 H   0  0  0  0  0  0  0  0  0  0  0  0
   35.2270   31.0290   41.0460 H   0  0  0  0  0  0  0  0  0  0  0  0
   37.4140   32.0190   40.3400 H   0  0  0  0  0  0  0  0  0  0  0  0
   37.0200   24.6420   42.1190 C   0  0  0  0  0  0  0  0  0  0  0  0
   37.1260   26.0320   42.0140 C   0  0  0  0  0  0  0  0  0  0  0  0
   36.8720   26.7190   40.8250 C   0  0  0  0  0  0  0  0  0  0  0  0
   36.5140   25.9300   39.7840 N   0  0  0  0  0  0  0  0  0  0  0  0
   36.4110   24.5940   39.8780 C   0  0  0  0  0  0  0  0  0  0  0  0
   36.6590   23.9580   41.0240 N   0  0  0  0  0  0  0  0  0  0  0  0
   37.2460   24.2320   43.1030 H   0  0  0  0  0  0  0  0  0  0  0  0
   37.4150   26.6450   42.8680 H   0  0  0  0  0  0  0  0  0  0  0  0
   36.1180   24.0710   38.9770 H   0  0  0  0  0  0  0  0  0  0  0  0
   39.6190   30.5800   39.7760 C   0  0  0  0  0  0  0  0  0  0  0  0
   40.4400   30.9820   40.6450 O   0  0  0  0  0  0  0  0  0  0  0  0
   39.9080   30.6130   38.3970 O   0  0  0  0  0  0  0  0  0  0  0  0
   41.7440   31.9950   37.0610 O   0  0  0  0  0  0  0  0  0  0  0  0
   40.3510   32.0880   37.6310 P   0  0  0  0  0  0  0  0  0  0  0  0
   39.2520   32.3760   36.3800 O   0  0  0  0  0  0  0  0  0  0  0  0
   38.3890   32.7050   36.7070 H   0  0  0  0  0  0  0  0  0  0  0  0
   40.2000   33.3750   38.7140 O   0  0  0  0  0  0  0  0  0  0  0  0
   39.9280   33.1240   39.6160 H   0  0  0  0  0  0  0  0  0  0  0  0
  1  2  1  0  0  0  0
  2  3  1  0  0  0  0
  3 13  1  0  0  0  0
  3  4  2  0  0  0  0
  4  8  1  0  0  0  0
  5  4  1  0  0  0  0
  5  9  1  0  0  0  0
  6  5  2  0  0  0  0
  7  2  2  0  0  0  0
  7  6  1  0  0  0  0
 10  6  1  0  0  0  0
 11 17  1  0  0  0  0
 12 11  1  0  0  0  0
 12 18  1  0  0  0  0
 13 12  2  0  0  0  0
 14 15  2  0  0  0  0
 14 13  1  0  0  0  0
 15 16  1  0  0  0  0
 16 11  2  0  0  0  0
 19 15  1  0  0  0  0
 20  7  1  0  0  0  0
 20 21  2  0  0  0  0
 22 20  1  0  0  0  0
 23 24  2  0  0  0  0
 24 22  1  0  0  0  0
 24 27  1  0  0  0  0
 25 26  1  0  0  0  0
 25 24  1  0  0  0  0
 27 28  1  0  0  0  0
M  END
>  <minimizedAffinity>
-5.08176613

$$$$

 OpenBabel03242520013D

 28 29  0  0  0  0  0  0  0  0999 V2000
   40.0580   27.9930   39.8240 Br  0  0  0  0  0  0  0  0  0  0  0  0
   38.2480   28.3810   40.3370 C   0  0  0  0  0  0  0  0  0  0  0  0
   37.5970   27.6910   41.3260 C   0  0  0  0  0  0  0  0  0  0  0  0
   36.2910   28.0480   41.6220 C   0  0  0  0  0  0  0  0  0  0  0  0
   35.6380   29.0620   40.9610 C   0  0  0  0  0  0  0  0  0  0  0  0
   36.2780   29.7670   39.9620 C   0  0  0  0  0  0  0  0  0  0  0  0
   37.5660   29.4000   39.6850 C   0  0  0  0  0  0  0  0  0  0  0  0
   35.7800   27.5020   42.4020 H   0  0  0  0  0  0  0  0  0  0  0  0
   34.6170   29.2720   41.2590 H   0  0  0  0  0  0  0  0  0  0  0  0
   35.7580   30.5640   39.4460 H   0  0  0  0  0  0  0  0  0  0  0  0
   38.9610   24.2730   42.2590 C   0  0  0  0  0  0  0  0  0  0  0  0
   38.2520   25.2880   41.6100 C   0  0  0  0  0  0  0  0  0  0  0  0
   38.3310   26.6270   41.9960 C   0  0  0  0  0  0  0  0  0  0  0  0
   39.1500   26.8620   43.0480 N   0  0  0  0  0  0  0  0  0  0  0  0
   39.8340   25.8920   43.6760 C   0  0  0  0  0  0  0  0  0  0  0  0
   39.7430   24.6190   43.2910 N   0  0  0  0  0  0  0  0  0  0  0  0
   38.8100   23.2710   41.8580 H   0  0  0  0  0  0  0  0  0  0  0  0
   37.5990   25.0720   40.7630 H   0  0  0  0  0  0  0  0  0  0  0  0
   40.4560   26.2030   44.5060 H   0  0  0  0  0  0  0  0  0  0  0  0
   38.2860   30.1230   38.6290 C   0  0  0  0  0  0  0  0  0  0  0  0
   38.1820   29.7480   37.4300 O   0  0  0  0  0  0  0  0  0  0  0  0
   39.0780   31.2280   39.0050 O   0  0  0  0  0  0  0  0  0  0  0  0
   41.2950   31.0780   37.5460 O   0  0  0  0  0  0  0  0  0  0  0  0
   40.1280   31.9770   37.8670 P   0  0  0  0  0  0  0  0  0  0  0  0
   39.2440   32.2710   36.4570 O   0  0  0  0  0  0  0  0  0  0  0  0
   38.6460   33.0420   36.5420 H   0  0  0  0  0  0  0  0  0  0  0  0
   40.6340   33.4820   38.4440 O   0  0  0  0  0  0  0  0  0  0  0  0
   40.3090   33.7110   39.3340 H   0  0  0  0  0  0  0  0  0  0  0  0
  1  2  1  0  0  0  0
  2  3  1  0  0  0  0
  3  4  2  0  0  0  0
  3 13  1  0  0  0  0
  4  8  1  0  0  0  0
  5  9  1  0  0  0  0
  5  4  1  0  0  0  0
  6  5  2  0  0  0  0
  7  6  1  0  0  0  0
  7  2  2  0  0  0  0
 10  6  1  0  0  0  0
 11 16  1  0  0  0  0
 12 13  1  0  0  0  0
 12 11  2  0  0  0  0
 13 14  2  0  0  0  0
 14 15  1  0  0  0  0
 15 19  1  0  0  0  0
 16 15  2  0  0  0  0
 17 11  1  0  0  0  0
 18 12  1  0  0  0  0
 20 22  1  0  0  0  0
 20  7  1  0  0  0  0
 21 20  2  0  0  0  0
 23 24  2  0  0  0  0
 24 27  1  0  0  0  0
 24 22  1  0  0  0  0
 25 26  1  0  0  0  0
 25 24  1  0  0  0  0
 27 28  1  0  0  0  0
M  END
>  <minimizedAffinity>
-5.02502346

$$$$

 OpenBabel03242520013D

 28 29  0  0  0  0  0  0  0  0999 V2000
   39.6900   29.6310   42.0750 Br  0  0  0  0  0  0  0  0  0  0  0  0
   37.9580   29.5980   41.2420 C   0  0  0  0  0  0  0  0  0  0  0  0
   37.5390   30.5720   40.3740 C   0  0  0  0  0  0  0  0  0  0  0  0
   36.2710   30.4570   39.8270 C   0  0  0  0  0  0  0  0  0  0  0  0
   35.4330   29.4070   40.1250 C   0  0  0  0  0  0  0  0  0  0  0  0
   35.8400   28.4180   40.9970 C   0  0  0  0  0  0  0  0  0  0  0  0
   37.0940   28.5500   41.5270 C   0  0  0  0  0  0  0  0  0  0  0  0
   35.9420   31.2260   39.1430 H   0  0  0  0  0  0  0  0  0  0  0  0
   34.4590   29.4000   39.6490 H   0  0  0  0  0  0  0  0  0  0  0  0
   35.1760   27.5950   41.2270 H   0  0  0  0  0  0  0  0  0  0  0  0
   39.2680   33.9510   40.4310 C   0  0  0  0  0  0  0  0  0  0  0  0
   38.3770   32.9110   40.7090 C   0  0  0  0  0  0  0  0  0  0  0  0
   38.4620   31.6610   40.0920 C   0  0  0  0  0  0  0  0  0  0  0  0
   39.4760   31.5400   39.2030 N   0  0  0  0  0  0  0  0  0  0  0  0
   40.3360   32.5360   38.9310 C   0  0  0  0  0  0  0  0  0  0  0  0
   40.2360   33.7220   39.5330 N   0  0  0  0  0  0  0  0  0  0  0  0
   39.0910   34.8740   40.9820 H   0  0  0  0  0  0  0  0  0  0  0  0
   37.5680   33.0340   41.4300 H   0  0  0  0  0  0  0  0  0  0  0  0
   41.1060   32.3190   38.2010 H   0  0  0  0  0  0  0  0  0  0  0  0
   37.5680   27.5200   42.4600 C   0  0  0  0  0  0  0  0  0  0  0  0
   37.2540   27.5870   43.6790 O   0  0  0  0  0  0  0  0  0  0  0  0
   38.3690   26.4790   41.9470 O   0  0  0  0  0  0  0  0  0  0  0  0
   37.5660   24.5850   40.2640 O   0  0  0  0  0  0  0  0  0  0  0  0
   37.7180   24.9020   41.7300 P   0  0  0  0  0  0  0  0  0  0  0  0
   38.7860   23.7960   42.4330 O   0  0  0  0  0  0  0  0  0  0  0  0
   38.7210   23.7820   43.4110 H   0  0  0  0  0  0  0  0  0  0  0  0
   36.2540   24.7560   42.5590 O   0  0  0  0  0  0  0  0  0  0  0  0
   35.9530   25.5670   43.0090 H   0  0  0  0  0  0  0  0  0  0  0  0
  2  7  1  0  0  0  0
  2  1  1  0  0  0  0
  3  2  2  0  0  0  0
  4  5  2  0  0  0  0
  4  3  1  0  0  0  0
  5  6  1  0  0  0  0
  6 10  1  0  0  0  0
  6  7  2  0  0  0  0
  7 20  1  0  0  0  0
  8  4  1  0  0  0  0
  9  5  1  0  0  0  0
 11 12  1  0  0  0  0
 11 17  1  0  0  0  0
 12 18  1  0  0  0  0
 13  3  1  0  0  0  0
 13 12  2  0  0  0  0
 14 13  1  0  0  0  0
 15 14  2  0  0  0  0
 15 16  1  0  0  0  0
 16 11  2  0  0  0  0
 19 15  1  0  0  0  0
 20 21  2  0  0  0  0
 22 20  1  0  0  0  0
 23 24  2  0  0  0  0
 24 22  1  0  0  0  0
 24 25  1  0  0  0  0
 24 27  1  0  0  0  0
 25 26  1  0  0  0  0
 27 28  1  0  0  0  0
M  END
>  <minimizedAffinity>
-4.94532681

$$$$

 OpenBabel03242520013D

 28 29  0  0  0  0  0  0  0  0999 V2000
   39.7360   28.1350   41.5640 Br  0  0  0  0  0  0  0  0  0  0  0  0
   38.9090   26.4030   41.6500 C   0  0  0  0  0  0  0  0  0  0  0  0
   39.6340   25.2420   41.7090 C   0  0  0  0  0  0  0  0  0  0  0  0
   38.9430   24.0420   41.7690 C   0  0  0  0  0  0  0  0  0  0  0  0
   37.5680   23.9840   41.7710 C   0  0  0  0  0  0  0  0  0  0  0  0
   36.8240   25.1440   41.7120 C   0  0  0  0  0  0  0  0  0  0  0  0
   37.5240   26.3170   41.6540 C   0  0  0  0  0  0  0  0  0  0  0  0
   39.5170   23.1270   41.8150 H   0  0  0  0  0  0  0  0  0  0  0  0
   37.1140   23.0010   41.8190 H   0  0  0  0  0  0  0  0  0  0  0  0
   35.7420   25.0910   41.7140 H   0  0  0  0  0  0  0  0  0  0  0  0
   43.2390   25.5690   42.8550 C   0  0  0  0  0  0  0  0  0  0  0  0
   41.8450   25.4590   42.8700 C   0  0  0  0  0  0  0  0  0  0  0  0
   41.0850   25.3560   41.7040 C   0  0  0  0  0  0  0  0  0  0  0  0
   41.8070   25.3700   40.5580 N   0  0  0  0  0  0  0  0  0  0  0  0
   43.1460   25.4750   40.5360 C   0  0  0  0  0  0  0  0  0  0  0  0
   43.8520   25.5720   41.6630 N   0  0  0  0  0  0  0  0  0  0  0  0
   43.7100   25.6420   43.8340 H   0  0  0  0  0  0  0  0  0  0  0  0
   41.2880   25.4500   43.8070 H   0  0  0  0  0  0  0  0  0  0  0  0
   43.6110   25.4750   39.5590 H   0  0  0  0  0  0  0  0  0  0  0  0
   36.7710   27.5760   41.5900 C   0  0  0  0  0  0  0  0  0  0  0  0
   36.4170   28.1490   42.6550 O   0  0  0  0  0  0  0  0  0  0  0  0
   36.4700   28.1040   40.3180 O   0  0  0  0  0  0  0  0  0  0  0  0
   35.9920   30.2960   38.8920 O   0  0  0  0  0  0  0  0  0  0  0  0
   35.6120   29.5870   40.1670 P   0  0  0  0  0  0  0  0  0  0  0  0
   33.9590   29.2320   40.1380 O   0  0  0  0  0  0  0  0  0  0  0  0
   33.6060   29.0180   41.0270 H   0  0  0  0  0  0  0  0  0  0  0  0
   35.8760   30.5540   41.5260 O   0  0  0  0  0  0  0  0  0  0  0  0
   36.4900   30.1800   42.1840 H   0  0  0  0  0  0  0  0  0  0  0  0
  1  2  1  0  0  0  0
  2  7  2  0  0  0  0
  2  3  1  0  0  0  0
  3  4  2  0  0  0  0
  4  5  1  0  0  0  0
  4  8  1  0  0  0  0
  5  9  1  0  0  0  0
  6 10  1  0  0  0  0
  6  5  2  0  0  0  0
  7  6  1  0  0  0  0
 11 12  1  0  0  0  0
 11 17  1  0  0  0  0
 12 18  1  0  0  0  0
 13  3  1  0  0  0  0
 13 12  2  0  0  0  0
 14 13  1  0  0  0  0
 15 14  2  0  0  0  0
 15 16  1  0  0  0  0
 16 11  2  0  0  0  0
 19 15  1  0  0  0  0
 20  7  1  0  0  0  0
 20 21  2  0  0  0  0
 22 20  1  0  0  0  0
 23 24  2  0  0  0  0
 24 22  1  0  0  0  0
 24 27  1  0  0  0  0
 25 24  1  0  0  0  0
 25 26  1  0  0  0  0
 27 28  1  0  0  0  0
M  END
>  <minimizedAffinity>
-4.91376209

$$$$

 OpenBabel03242520013D

 28 29  0  0  0  0  0  0  0  0999 V2000
   38.4140   27.7170   38.8790 Br  0  0  0  0  0  0  0  0  0  0  0  0
   38.6880   28.5900   40.5680 C   0  0  0  0  0  0  0  0  0  0  0  0
   38.6530   27.9170   41.7600 C   0  0  0  0  0  0  0  0  0  0  0  0
   38.8620   28.6390   42.9250 C   0  0  0  0  0  0  0  0  0  0  0  0
   39.1020   29.9940   42.9180 C   0  0  0  0  0  0  0  0  0  0  0  0
   39.1410   30.6870   41.7250 C   0  0  0  0  0  0  0  0  0  0  0  0
   38.9310   29.9570   40.5880 C   0  0  0  0  0  0  0  0  0  0  0  0
   38.8330   28.1060   43.8650 H   0  0  0  0  0  0  0  0  0  0  0  0
   39.2550   30.4750   43.8770 H   0  0  0  0  0  0  0  0  0  0  0  0
   39.3300   31.7530   41.7270 H   0  0  0  0  0  0  0  0  0  0  0  0
   36.8870   24.5580   41.8460 C   0  0  0  0  0  0  0  0  0  0  0  0
   37.1240   25.9350   41.8910 C   0  0  0  0  0  0  0  0  0  0  0  0
   38.3950   26.4850   41.7150 C   0  0  0  0  0  0  0  0  0  0  0  0
   39.3760   25.5780   41.4970 N   0  0  0  0  0  0  0  0  0  0  0  0
   39.1550   24.2540   41.4520 C   0  0  0  0  0  0  0  0  0  0  0  0
   37.9320   23.7500   41.6230 N   0  0  0  0  0  0  0  0  0  0  0  0
   35.8500   24.2600   41.9980 H   0  0  0  0  0  0  0  0  0  0  0  0
   36.3150   26.6440   42.0680 H   0  0  0  0  0  0  0  0  0  0  0  0
   40.0200   23.6290   41.2710 H   0  0  0  0  0  0  0  0  0  0  0  0
   38.9640   30.6540   39.2960 C   0  0  0  0  0  0  0  0  0  0  0  0
   37.9210   31.2120   38.8590 O   0  0  0  0  0  0  0  0  0  0  0  0
   40.1810   30.6730   38.5840 O   0  0  0  0  0  0  0  0  0  0  0  0
   41.0070   33.1900   38.3600 O   0  0  0  0  0  0  0  0  0  0  0  0
   40.5690   31.9940   37.5530 P   0  0  0  0  0  0  0  0  0  0  0  0
   41.8330   31.5100   36.5400 O   0  0  0  0  0  0  0  0  0  0  0  0
   41.5290   30.9230   35.8160 H   0  0  0  0  0  0  0  0  0  0  0  0
   39.2580   32.3580   36.5530 O   0  0  0  0  0  0  0  0  0  0  0  0
   38.4610   31.8190   36.7070 H   0  0  0  0  0  0  0  0  0  0  0  0
  1  2  1  0  0  0  0
  2  7  2  0  0  0  0
  2  3  1  0  0  0  0
  3  4  2  0  0  0  0
  4  8  1  0  0  0  0
  5  4  1  0  0  0  0
  5  9  1  0  0  0  0
  6 10  1  0  0  0  0
  6  5  2  0  0  0  0
  7  6  1  0  0  0  0
 11 12  1  0  0  0  0
 11 17  1  0  0  0  0
 12 18  1  0  0  0  0
 13  3  1  0  0  0  0
 13 12  2  0  0  0  0
 14 13  1  0  0  0  0
 15 14  2  0  0  0  0
 15 16  1  0  0  0  0
 16 11  2  0  0  0  0
 19 15  1  0  0  0  0
 20  7  1  0  0  0  0
 21 20  2  0  0  0  0
 22 20  1  0  0  0  0
 24 23  2  0  0  0  0
 24 22  1  0  0  0  0
 25 24  1  0  0  0  0
 26 25  1  0  0  0  0
 27 28  1  0  0  0  0
 27 24  1  0  0  0  0
M  END
>  <minimizedAffinity>
-4.89995575

$$$$
