
 OpenBabel03242523553D

 43 45  0  0  1  0  0  0  0  0999 V2000
   42.7850   34.4370   38.8330 C   0  0  1  0  0  0  0  0  0  0  0  0
   42.9530   35.1970   40.1400 C   0  0  1  0  0  0  0  0  0  0  0  0
   41.6710   35.5090   40.6380 O   0  0  0  0  0  0  0  0  0  0  0  0
   40.7600   35.8110   39.6240 C   0  0  0  0  0  0  0  0  0  0  0  0
   40.4100   34.6000   38.7900 C   0  0  2  0  0  0  0  0  0  0  0  0
   41.5800   33.5700   38.9940 C   0  0  1  0  0  0  0  0  0  0  0  0
   43.7100   33.8390   38.6100 H   0  0  0  0  0  0  0  0  0  0  0  0
   43.5760   36.0890   40.0440 H   0  0  0  0  0  0  0  0  0  0  0  0
   41.0910   36.6700   39.0100 H   0  0  0  0  0  0  0  0  0  0  0  0
   39.8400   36.1160   40.1500 H   0  0  0  0  0  0  0  0  0  0  0  0
   39.4690   34.1010   39.0920 H   0  0  0  0  0  0  0  0  0  0  0  0
   41.3550   33.3860   40.0950 H   0  0  0  0  0  0  0  0  0  0  0  0
   42.6100   35.3250   37.7630 O   0  0  0  0  0  0  0  0  0  0  0  0
   42.7690   34.8450   36.9310 H   0  0  0  0  0  0  0  0  0  0  0  0
   40.4420   34.9240   37.4450 O   0  0  0  0  0  0  0  0  0  0  0  0
   39.7130   34.4430   36.9540 H   0  0  0  0  0  0  0  0  0  0  0  0
   43.4370   34.2510   41.0580 O   0  0  0  0  0  0  0  0  0  0  0  0
   44.5600   34.3800   41.7710 C   0  0  0  0  0  0  0  0  0  0  0  0
   45.8040   34.4760   41.1520 C   0  0  0  0  0  0  0  0  0  0  0  0
   46.9440   34.6070   41.9200 C   0  0  0  0  0  0  0  0  0  0  0  0
   46.8200   34.6410   43.2930 N   0  0  0  0  0  0  0  0  0  0  0  0
   45.5950   34.5440   43.8730 C   0  0  0  0  0  0  0  0  0  0  0  0
   44.4760   34.4150   43.1130 N   0  0  0  0  0  0  0  0  0  0  0  0
   45.9150   34.4510   40.0820 H   0  0  0  0  0  0  0  0  0  0  0  0
   45.5020   34.5710   44.9600 H   0  0  0  0  0  0  0  0  0  0  0  0
   48.3090   34.6960   41.3070 C   0  0  0  0  0  0  0  0  0  0  0  0
   49.0590   36.0110   41.5010 C   0  0  0  0  0  0  0  0  0  0  0  0
   49.4800   34.6650   42.1310 C   0  0  0  0  0  0  0  0  0  0  0  0
   48.3080   34.4130   40.2210 H   0  0  0  0  0  0  0  0  0  0  0  0
   48.5820   36.7430   42.1950 H   0  0  0  0  0  0  0  0  0  0  0  0
   49.7440   36.3780   40.7360 H   0  0  0  0  0  0  0  0  0  0  0  0
   50.4290   34.2310   41.7890 H   0  0  0  0  0  0  0  0  0  0  0  0
   49.3410   34.5710   43.2310 H   0  0  0  0  0  0  0  0  0  0  0  0
   41.4060   32.5780   38.1070 O   0  0  0  0  0  0  0  0  0  0  0  0
   40.5530   31.5270   38.1660 C   0  0  0  0  0  0  0  0  0  0  0  0
   39.4670   31.4930   37.4390 O   0  0  0  0  0  0  0  0  0  0  0  0
   40.2990   30.2830   38.7520 O   0  0  0  0  0  0  0  0  0  0  0  0
   41.2780   28.3860   40.2620 O   0  0  0  0  0  0  0  0  0  0  0  0
   40.9270   29.8700   40.2910 P   0  0  0  0  0  0  0  0  0  0  0  0
   39.9200   30.2810   41.5530 O   0  0  0  0  0  0  0  0  0  0  0  0
   39.9440   29.6210   42.3080 H   0  0  0  0  0  0  0  0  0  0  0  0
   42.4320   30.6630   40.4910 O   0  0  0  0  0  0  0  0  0  0  0  0
   43.0960   30.3220   39.8400 H   0  0  0  0  0  0  0  0  0  0  0  0
  1  7  1  6  0  0  0
  1  6  1  0  0  0  0
  1  2  1  0  0  0  0
  2  8  1  6  0  0  0
  2  3  1  0  0  0  0
  2 17  1  0  0  0  0
  4 10  1  0  0  0  0
  4  3  1  0  0  0  0
  5  6  1  0  0  0  0
  5 11  1  1  0  0  0
  5  4  1  0  0  0  0
  6 12  1  1  0  0  0
  9  4  1  0  0  0  0
 13  1  1  0  0  0  0
 14 13  1  0  0  0  0
 15  5  1  0  0  0  0
 16 15  1  0  0  0  0
 17 18  1  0  0  0  0
 18 23  1  0  0  0  0
 19 18  2  0  0  0  0
 19 20  1  0  0  0  0
 20 21  2  0  0  0  0
 21 22  1  0  0  0  0
 22 25  1  0  0  0  0
 23 22  2  0  0  0  0
 24 19  1  0  0  0  0
 26 27  1  0  0  0  0
 26 20  1  0  0  0  0
 26 28  1  0  0  0  0
 27 28  1  0  0  0  0
 27 30  1  0  0  0  0
 28 33  1  0  0  0  0
 29 26  1  0  0  0  0
 31 27  1  0  0  0  0
 32 28  1  0  0  0  0
 34 35  1  0  0  0  0
 34  6  1  0  0  0  0
 35 37  1  0  0  0  0
 36 35  2  0  0  0  0
 37 39  1  0  0  0  0
 38 39  2  0  0  0  0
 39 42  1  0  0  0  0
 39 40  1  0  0  0  0
 40 41  1  0  0  0  0
 43 42  1  0  0  0  0
M  END
>  <minimizedAffinity>
-5.52746248

>  <minimizedRMSD>
0.586938262

$$$$
