
 OpenBabel03252502283D

 33 34  0  0  0  0  0  0  0  0999 V2000
   45.1270   34.4190   41.1870 C   0  0  0  0  0  0  0  0  0  0  0  0
   45.5710   34.9770   42.3860 C   0  0  0  0  0  0  0  0  0  0  0  0
   46.9410   35.1830   42.5520 C   0  0  0  0  0  0  0  0  0  0  0  0
   47.8070   34.8390   41.5590 C   0  0  0  0  0  0  0  0  0  0  0  0
   47.3900   34.2860   40.3650 C   0  0  0  0  0  0  0  0  0  0  0  0
   46.0160   34.0870   40.2160 C   0  0  0  0  0  0  0  0  0  0  0  0
   44.8760   35.2470   43.1720 H   0  0  0  0  0  0  0  0  0  0  0  0
   47.2970   35.6120   43.4710 H   0  0  0  0  0  0  0  0  0  0  0  0
   48.8640   35.0150   41.7240 H   0  0  0  0  0  0  0  0  0  0  0  0
   48.0550   34.0110   39.5740 H   0  0  0  0  0  0  0  0  0  0  0  0
   41.4250   34.9100   40.6530 C   0  0  0  0  0  0  0  0  0  0  0  0
   42.7970   35.2170   40.7320 C   0  0  0  0  0  0  0  0  0  0  0  0
   43.6950   34.2330   41.0730 C   0  0  0  0  0  0  0  0  0  0  0  0
   43.1830   33.0010   41.3170 N   0  0  0  0  0  0  0  0  0  0  0  0
   41.8670   32.7120   41.2410 C   0  0  0  0  0  0  0  0  0  0  0  0
   40.9810   33.6740   40.9060 N   0  0  0  0  0  0  0  0  0  0  0  0
   43.1800   36.2120   40.5310 H   0  0  0  0  0  0  0  0  0  0  0  0
   41.5640   31.6890   41.4580 H   0  0  0  0  0  0  0  0  0  0  0  0
   40.4570   35.9650   40.2870 C   0  0  0  0  0  0  0  0  0  0  0  0
   39.2180   35.3380   40.0720 F   0  0  0  0  0  0  0  0  0  0  0  0
   40.8320   36.4280   39.0180 F   0  0  0  0  0  0  0  0  0  0  0  0
   40.3420   36.9590   41.2070 F   0  0  0  0  0  0  0  0  0  0  0  0
   45.3860   32.2550   38.4690 C   0  0  0  0  0  0  0  0  0  0  0  0
   45.8850   31.2360   38.9320 O   0  0  0  0  0  0  0  0  0  0  0  0
   45.4510   33.5400   39.0440 N   0  0  0  0  0  0  0  0  0  0  0  0
   44.9880   34.3600   38.5420 H   0  0  0  0  0  0  0  0  0  0  0  0
   44.6860   32.1320   37.2530 O   0  0  0  0  0  0  0  0  0  0  0  0
   44.8840   29.8070   35.9600 O   0  0  0  0  0  0  0  0  0  0  0  0
   45.4450   31.2070   36.0270 P   0  0  0  0  0  0  0  0  0  0  0  0
   45.0480   31.9730   34.5510 O   0  0  0  0  0  0  0  0  0  0  0  0
   44.9960   32.9540   34.7190 H   0  0  0  0  0  0  0  0  0  0  0  0
   47.1130   31.1790   36.1520 O   0  0  0  0  0  0  0  0  0  0  0  0
   47.4150   30.4540   36.7740 H   0  0  0  0  0  0  0  0  0  0  0  0
  1  2  1  0  0  0  0
  2  3  2  0  0  0  0
  2  7  1  0  0  0  0
  3  8  1  0  0  0  0
  4  9  1  0  0  0  0
  4  3  1  0  0  0  0
  5  4  2  0  0  0  0
  6  5  1  0  0  0  0
  6  1  2  0  0  0  0
 10  5  1  0  0  0  0
 11 12  2  0  0  0  0
 11 16  1  0  0  0  0
 12 13  1  0  0  0  0
 13  1  1  0  0  0  0
 13 14  2  0  0  0  0
 15 14  1  0  0  0  0
 15 18  1  0  0  0  0
 16 15  2  0  0  0  0
 17 12  1  0  0  0  0
 19 11  1  0  0  0  0
 19 22  1  0  0  0  0
 20 19  1  0  0  0  0
 21 19  1  0  0  0  0
 23 24  2  0  0  0  0
 23 25  1  0  0  0  0
 25  6  1  0  0  0  0
 26 25  1  0  0  0  0
 27 23  1  0  0  0  0
 28 29  2  0  0  0  0
 29 32  1  0  0  0  0
 29 27  1  0  0  0  0
 30 31  1  0  0  0  0
 30 29  1  0  0  0  0
 32 33  1  0  0  0  0
M  END
>  <minimizedAffinity>
-5.57435131

>  <minimizedRMSD>
0.16294831

$$$$
