
 OpenBabel03242522513D

 24 24  0  0  0  0  0  0  0  0999 V2000
   45.2650   30.7560   47.5460 O   0  0  0  0  0  0  0  0  0  0  0  0
   45.7870   31.9710   48.3380 P   0  0  2  0  0  0  0  0  0  0  0  0
   45.2230   31.7740   49.9140 O   0  0  0  0  0  0  0  0  0  0  0  0
   45.8590   32.1620   50.5670 H   0  0  0  0  0  0  0  0  0  0  0  0
   45.1120   33.3680   47.6580 O   0  0  0  0  0  0  0  0  0  0  0  0
   46.7920   33.4170   44.4350 C   0  0  0  0  0  0  0  0  0  0  0  0
   46.4330   33.0660   45.7500 C   0  0  0  0  0  0  0  0  0  0  0  0
   45.4190   33.7550   46.3710 C   0  0  0  0  0  0  0  0  0  0  0  0
   44.8010   34.7500   45.6860 N   0  0  0  0  0  0  0  0  0  0  0  0
   45.1450   35.0810   44.4350 C   0  0  0  0  0  0  0  0  0  0  0  0
   46.1360   34.4240   43.8020 N   0  0  0  0  0  0  0  0  0  0  0  0
   47.5720   32.9370   43.8680 H   0  0  0  0  0  0  0  0  0  0  0  0
   47.0380   32.2560   46.1070 H   0  0  0  0  0  0  0  0  0  0  0  0
   44.5500   35.9000   44.0340 H   0  0  0  0  0  0  0  0  0  0  0  0
   47.4360   32.0450   48.2820 O   0  0  0  0  0  0  0  0  0  0  0  0
   48.3790   31.4210   49.0300 C   0  0  0  0  0  0  0  0  0  0  0  0
   49.4170   32.1330   49.2630 O   0  0  0  0  0  0  0  0  0  0  0  0
   48.9170   30.3680   49.7520 O   0  0  0  0  0  0  0  0  0  0  0  0
   50.4450   29.2820   47.9040 O   0  0  0  0  0  0  0  0  0  0  0  0
   50.3680   29.5910   49.3840 P   0  0  0  0  0  0  0  0  0  0  0  0
   51.6840   30.4890   49.8990 O   0  0  0  0  0  0  0  0  0  0  0  0
   51.5570   31.4610   49.7760 H   0  0  0  0  0  0  0  0  0  0  0  0
   50.3210   28.0910   50.2130 O   0  0  0  0  0  0  0  0  0  0  0  0
   50.0250   27.3960   49.6030 H   0  0  0  0  0  0  0  0  0  0  0  0
  2  1  2  6  0  0  0
  2  3  1  0  0  0  0
  3  4  1  0  0  0  0
  5  2  1  0  0  0  0
  6  7  1  0  0  0  0
  7 13  1  0  0  0  0
  7  8  2  0  0  0  0
  8  5  1  0  0  0  0
  9  8  1  0  0  0  0
 10  9  2  0  0  0  0
 11  6  2  0  0  0  0
 11 10  1  0  0  0  0
 12  6  1  0  0  0  0
 14 10  1  0  0  0  0
 15  2  1  0  0  0  0
 15 16  1  0  0  0  0
 16 17  2  0  0  0  0
 16 18  1  0  0  0  0
 19 20  2  0  0  0  0
 20 18  1  0  0  0  0
 20 21  1  0  0  0  0
 20 23  1  0  0  0  0
 22 21  1  0  0  0  0
 24 23  1  0  0  0  0
M  END
>  <minimizedAffinity>
-4.45350122

>  <minimizedRMSD>
0.903724849

$$$$
