
 OpenBabel03242518383D

 37 39  0  0  1  0  0  0  0  0999 V2000
   47.3750   33.6970   39.6000 C   0  0  0  0  0  0  0  0  0  0  0  0
   48.3150   34.3950   38.8250 C   0  0  0  0  0  0  0  0  0  0  0  0
   48.0020   34.2250   37.4910 C   0  0  0  0  0  0  0  0  0  0  0  0
   46.8950   33.4380   37.5130 C   0  0  0  0  0  0  0  0  0  0  0  0
   46.5360   33.1350   38.7500 O   0  0  0  0  0  0  0  0  0  0  0  0
   49.1180   34.9460   39.2950 H   0  0  0  0  0  0  0  0  0  0  0  0
   48.5570   34.6520   36.6740 H   0  0  0  0  0  0  0  0  0  0  0  0
   46.1790   32.9810   36.3010 C   0  0  2  0  0  0  0  0  0  0  0  0
   45.9020   31.5630   36.0910 C   0  0  0  0  0  0  0  0  0  0  0  0
   47.0630   32.1230   35.3540 C   0  0  1  0  0  0  0  0  0  0  0  0
   45.5500   33.7390   35.8090 H   0  0  0  0  0  0  0  0  0  0  0  0
   45.0050   31.2170   35.5210 H   0  0  0  0  0  0  0  0  0  0  0  0
   46.1490   30.8620   36.9370 H   0  0  0  0  0  0  0  0  0  0  0  0
   48.0970   31.9660   35.6610 H   0  0  0  0  0  0  0  0  0  0  0  0
   47.9430   32.6150   33.0800 C   0  0  0  0  0  0  0  0  0  0  0  0
   49.1440   32.5690   33.4730 O   0  0  0  0  0  0  0  0  0  0  0  0
   46.8330   32.4280   33.9440 N   0  0  0  0  0  0  0  0  0  0  0  0
   47.8550   32.8150   32.0130 H   0  0  0  0  0  0  0  0  0  0  0  0
   45.8670   32.5070   33.5690 H   0  0  0  0  0  0  0  0  0  0  0  0
   47.2380   33.5460   41.0050 O   0  0  0  0  0  0  0  0  0  0  0  0
   47.3740   34.6840   41.8250 C   0  0  0  0  0  0  0  0  0  0  0  0
   48.2910   35.4950   41.4980 O   0  0  0  0  0  0  0  0  0  0  0  0
   46.4810   34.8020   42.9180 C   0  0  0  0  0  0  0  0  0  0  0  0
   45.4660   35.6910   42.7810 C   0  0  0  0  0  0  0  0  0  0  0  0
   44.5580   35.8500   43.8230 C   0  0  0  0  0  0  0  0  0  0  0  0
   44.7290   35.1070   44.9280 N   0  0  0  0  0  0  0  0  0  0  0  0
   45.7330   34.2380   45.0460 C   0  0  0  0  0  0  0  0  0  0  0  0
   46.5840   34.1110   44.0290 N   0  0  0  0  0  0  0  0  0  0  0  0
   45.3210   36.2940   41.8950 H   0  0  0  0  0  0  0  0  0  0  0  0
   43.7330   36.5690   43.7160 H   0  0  0  0  0  0  0  0  0  0  0  0
   45.7670   33.5580   46.2410 O   0  0  0  0  0  0  0  0  0  0  0  0
   47.4360   31.8840   47.3330 O   0  0  0  0  0  0  0  0  0  0  0  0
   46.3560   31.9640   46.2700 P   0  0  0  0  0  0  0  0  0  0  0  0
   45.1300   30.8930   46.7370 O   0  0  0  0  0  0  0  0  0  0  0  0
   44.2970   31.1290   46.2660 H   0  0  0  0  0  0  0  0  0  0  0  0
   47.0460   31.4790   44.8170 O   0  0  0  0  0  0  0  0  0  0  0  0
   46.4870   31.8140   44.0800 H   0  0  0  0  0  0  0  0  0  0  0  0
  1 20  1  0  0  0  0
  2  6  1  0  0  0  0
  2  1  2  0  0  0  0
  3  4  2  0  0  0  0
  3  2  1  0  0  0  0
  4  5  1  0  0  0  0
  5  1  1  0  0  0  0
  7  3  1  0  0  0  0
  8 11  1  6  0  0  0
  8  4  1  0  0  0  0
  9  8  1  0  0  0  0
  9 13  1  0  0  0  0
 10 14  1  1  0  0  0
 10  9  1  0  0  0  0
 10  8  1  0  0  0  0
 12  9  1  0  0  0  0
 15 16  2  0  0  0  0
 15 17  1  0  0  0  0
 17 10  1  0  0  0  0
 18 15  1  0  0  0  0
 19 17  1  0  0  0  0
 20 21  1  0  0  0  0
 21 23  1  0  0  0  0
 22 21  2  0  0  0  0
 23 28  1  0  0  0  0
 24 23  2  0  0  0  0
 24 25  1  0  0  0  0
 25 26  2  0  0  0  0
 26 27  1  0  0  0  0
 27 31  1  0  0  0  0
 28 27  2  0  0  0  0
 29 24  1  0  0  0  0
 30 25  1  0  0  0  0
 31 33  1  0  0  0  0
 33 34  1  0  0  0  0
 33 32  2  0  0  0  0
 35 34  1  0  0  0  0
 36 33  1  0  0  0  0
 37 36  1  0  0  0  0
M  END
>  <minimizedAffinity>
-5.60345078

>  <minimizedRMSD>
0.943334103

$$$$
