
 OpenBabel03242522513D

 24 24  0  0  0  0  0  0  0  0999 V2000
   45.4250   30.7620   47.5590 O   0  0  0  0  0  0  0  0  0  0  0  0
   45.8280   32.0110   48.3670 P   0  0  2  0  0  0  0  0  0  0  0  0
   45.2130   31.7770   49.9190 O   0  0  0  0  0  0  0  0  0  0  0  0
   45.7920   32.2080   50.5960 H   0  0  0  0  0  0  0  0  0  0  0  0
   45.0890   33.3570   47.6540 O   0  0  0  0  0  0  0  0  0  0  0  0
   46.7920   33.4160   44.4440 C   0  0  0  0  0  0  0  0  0  0  0  0
   46.4220   33.0590   45.7530 C   0  0  0  0  0  0  0  0  0  0  0  0
   45.4070   33.7500   46.3720 C   0  0  0  0  0  0  0  0  0  0  0  0
   44.8000   34.7530   45.6890 N   0  0  0  0  0  0  0  0  0  0  0  0
   45.1550   35.0890   44.4420 C   0  0  0  0  0  0  0  0  0  0  0  0
   46.1470   34.4300   43.8120 N   0  0  0  0  0  0  0  0  0  0  0  0
   47.5730   32.9350   43.8790 H   0  0  0  0  0  0  0  0  0  0  0  0
   47.0190   32.2440   46.1100 H   0  0  0  0  0  0  0  0  0  0  0  0
   44.5680   35.9140   44.0420 H   0  0  0  0  0  0  0  0  0  0  0  0
   47.4700   32.1970   48.3810 O   0  0  0  0  0  0  0  0  0  0  0  0
   48.4500   31.4010   48.8760 C   0  0  0  0  0  0  0  0  0  0  0  0
   49.4790   32.0380   49.2920 O   0  0  0  0  0  0  0  0  0  0  0  0
   49.0330   30.1940   49.2230 O   0  0  0  0  0  0  0  0  0  0  0  0
   47.9290   28.4270   47.6160 O   0  0  0  0  0  0  0  0  0  0  0  0
   49.2570   28.8960   48.1700 P   0  0  0  0  0  0  0  0  0  0  0  0
   50.3360   29.2830   46.9500 O   0  0  0  0  0  0  0  0  0  0  0  0
   50.2360   30.2140   46.6300 H   0  0  0  0  0  0  0  0  0  0  0  0
   49.8870   27.6200   49.1250 O   0  0  0  0  0  0  0  0  0  0  0  0
   49.1640   27.0270   49.3870 H   0  0  0  0  0  0  0  0  0  0  0  0
  2  1  2  6  0  0  0
  2 15  1  0  0  0  0
  2  3  1  0  0  0  0
  3  4  1  0  0  0  0
  5  2  1  0  0  0  0
  6  7  1  0  0  0  0
  7 13  1  0  0  0  0
  7  8  2  0  0  0  0
  8  5  1  0  0  0  0
  9  8  1  0  0  0  0
 10  9  2  0  0  0  0
 11 10  1  0  0  0  0
 11  6  2  0  0  0  0
 12  6  1  0  0  0  0
 14 10  1  0  0  0  0
 15 16  1  0  0  0  0
 16 18  1  0  0  0  0
 16 17  2  0  0  0  0
 19 20  2  0  0  0  0
 20 23  1  0  0  0  0
 20 18  1  0  0  0  0
 21 20  1  0  0  0  0
 22 21  1  0  0  0  0
 23 24  1  0  0  0  0
M  END
>  <minimizedAffinity>
-4.35365438

>  <minimizedRMSD>
0.484634638

$$$$
