
 OpenBabel03242523553D

 43 45  0  0  1  0  0  0  0  0999 V2000
   42.7910   34.4310   38.8460 C   0  0  1  0  0  0  0  0  0  0  0  0
   42.9620   35.1970   40.1490 C   0  0  1  0  0  0  0  0  0  0  0  0
   41.6810   35.5120   40.6480 O   0  0  0  0  0  0  0  0  0  0  0  0
   40.7680   35.8090   39.6340 C   0  0  0  0  0  0  0  0  0  0  0  0
   40.4170   34.5940   38.8070 C   0  0  2  0  0  0  0  0  0  0  0  0
   41.5870   33.5650   39.0140 C   0  0  1  0  0  0  0  0  0  0  0  0
   43.7160   33.8320   38.6240 H   0  0  0  0  0  0  0  0  0  0  0  0
   43.5850   36.0890   40.0470 H   0  0  0  0  0  0  0  0  0  0  0  0
   41.0980   36.6650   39.0150 H   0  0  0  0  0  0  0  0  0  0  0  0
   39.8490   36.1180   40.1610 H   0  0  0  0  0  0  0  0  0  0  0  0
   39.4760   34.0980   39.1130 H   0  0  0  0  0  0  0  0  0  0  0  0
   41.3640   33.3870   40.1160 H   0  0  0  0  0  0  0  0  0  0  0  0
   42.6140   35.3140   37.7720 O   0  0  0  0  0  0  0  0  0  0  0  0
   42.7720   34.8300   36.9420 H   0  0  0  0  0  0  0  0  0  0  0  0
   40.4460   34.9120   37.4600 O   0  0  0  0  0  0  0  0  0  0  0  0
   39.7160   34.4290   36.9730 H   0  0  0  0  0  0  0  0  0  0  0  0
   43.4480   34.2570   41.0700 O   0  0  0  0  0  0  0  0  0  0  0  0
   44.5720   34.3880   41.7810 C   0  0  0  0  0  0  0  0  0  0  0  0
   45.8150   34.4830   41.1590 C   0  0  0  0  0  0  0  0  0  0  0  0
   46.9560   34.6180   41.9240 C   0  0  0  0  0  0  0  0  0  0  0  0
   46.8350   34.6550   43.2970 N   0  0  0  0  0  0  0  0  0  0  0  0
   45.6110   34.5600   43.8800 C   0  0  0  0  0  0  0  0  0  0  0  0
   44.4910   34.4270   43.1230 N   0  0  0  0  0  0  0  0  0  0  0  0
   45.9220   34.4550   40.0890 H   0  0  0  0  0  0  0  0  0  0  0  0
   45.5210   34.5890   44.9670 H   0  0  0  0  0  0  0  0  0  0  0  0
   48.3200   34.7060   41.3080 C   0  0  0  0  0  0  0  0  0  0  0  0
   49.0720   36.0200   41.5020 C   0  0  0  0  0  0  0  0  0  0  0  0
   49.4920   34.6720   42.1280 C   0  0  0  0  0  0  0  0  0  0  0  0
   48.3160   34.4260   40.2210 H   0  0  0  0  0  0  0  0  0  0  0  0
   48.5970   36.7520   42.1990 H   0  0  0  0  0  0  0  0  0  0  0  0
   49.7550   36.3870   40.7360 H   0  0  0  0  0  0  0  0  0  0  0  0
   50.4400   34.2380   41.7840 H   0  0  0  0  0  0  0  0  0  0  0  0
   49.3560   34.5770   43.2280 H   0  0  0  0  0  0  0  0  0  0  0  0
   41.4110   32.5690   38.1320 O   0  0  0  0  0  0  0  0  0  0  0  0
   40.6480   31.4560   38.2500 C   0  0  0  0  0  0  0  0  0  0  0  0
   39.7020   31.1860   37.3890 O   0  0  0  0  0  0  0  0  0  0  0  0
   40.4030   30.3050   39.0050 O   0  0  0  0  0  0  0  0  0  0  0  0
   39.3880   29.1140   41.1000 O   0  0  0  0  0  0  0  0  0  0  0  0
   39.0690   30.1970   40.0750 P   0  0  0  0  0  0  0  0  0  0  0  0
   37.6130   29.9630   39.3030 O   0  0  0  0  0  0  0  0  0  0  0  0
   36.9840   29.3730   39.8160 H   0  0  0  0  0  0  0  0  0  0  0  0
   38.9950   31.6440   40.9900 O   0  0  0  0  0  0  0  0  0  0  0  0
   39.7900   31.7290   41.5740 H   0  0  0  0  0  0  0  0  0  0  0  0
  1  7  1  6  0  0  0
  1  6  1  0  0  0  0
  1  2  1  0  0  0  0
  2  8  1  6  0  0  0
  2  3  1  0  0  0  0
  2 17  1  0  0  0  0
  4 10  1  0  0  0  0
  4  3  1  0  0  0  0
  5  6  1  0  0  0  0
  5 11  1  1  0  0  0
  5  4  1  0  0  0  0
  6 12  1  1  0  0  0
  9  4  1  0  0  0  0
 13  1  1  0  0  0  0
 14 13  1  0  0  0  0
 15  5  1  0  0  0  0
 16 15  1  0  0  0  0
 17 18  1  0  0  0  0
 18 23  1  0  0  0  0
 19 18  2  0  0  0  0
 19 20  1  0  0  0  0
 20 21  2  0  0  0  0
 21 22  1  0  0  0  0
 22 25  1  0  0  0  0
 23 22  2  0  0  0  0
 24 19  1  0  0  0  0
 26 27  1  0  0  0  0
 26 20  1  0  0  0  0
 26 28  1  0  0  0  0
 27 28  1  0  0  0  0
 27 30  1  0  0  0  0
 28 33  1  0  0  0  0
 29 26  1  0  0  0  0
 31 27  1  0  0  0  0
 32 28  1  0  0  0  0
 34 35  1  0  0  0  0
 34  6  1  0  0  0  0
 35 37  1  0  0  0  0
 36 35  2  0  0  0  0
 37 39  1  0  0  0  0
 39 42  1  0  0  0  0
 39 38  2  0  0  0  0
 40 41  1  0  0  0  0
 40 39  1  0  0  0  0
 42 43  1  0  0  0  0
M  END
>  <minimizedAffinity>
-5.76023054

>  <minimizedRMSD>
1.0026511

$$$$
