
 OpenBabel03252508003D

 27 28  0  0  1  0  0  0  0  0999 V2000
   46.3060   34.7330   43.2500 C   0  0  0  0  0  0  0  0  0  0  0  0
   45.3370   35.7000   43.5790 C   0  0  0  0  0  0  0  0  0  0  0  0
   44.6480   35.5410   44.7860 C   0  0  0  0  0  0  0  0  0  0  0  0
   44.9610   34.4650   45.5540 N   0  0  0  0  0  0  0  0  0  0  0  0
   45.9140   33.5630   45.1720 C   0  0  0  0  0  0  0  0  0  0  0  0
   46.5950   33.6670   44.0400 N   0  0  0  0  0  0  0  0  0  0  0  0
   45.1300   36.5290   42.9350 H   0  0  0  0  0  0  0  0  0  0  0  0
   43.9050   36.2590   45.0670 H   0  0  0  0  0  0  0  0  0  0  0  0
   46.2130   32.4130   46.0850 C   0  0  1  0  0  0  0  0  0  0  0  0
   47.0310   32.6570   47.3310 C   0  0  0  0  0  0  0  0  0  0  0  0
   45.5370   32.4820   47.3970 C   0  0  1  0  0  0  0  0  0  0  0  0
   46.3880   31.4360   45.6230 H   0  0  0  0  0  0  0  0  0  0  0  0
   47.6510   31.8160   47.6970 H   0  0  0  0  0  0  0  0  0  0  0  0
   47.4970   33.6530   47.4350 H   0  0  0  0  0  0  0  0  0  0  0  0
   45.1870   31.6170   47.9550 H   0  0  0  0  0  0  0  0  0  0  0  0
   44.8740   33.7310   47.7990 N   0  0  0  0  0  0  0  0  0  0  0  0
   45.1760   33.9320   48.7860 H   0  0  0  0  0  0  0  0  0  0  0  0
   43.8330   33.5960   47.8380 H   0  0  0  0  0  0  0  0  0  0  0  0
   46.9910   34.9600   42.0000 C   0  0  0  0  0  0  0  0  0  0  0  0
   48.1050   35.5850   41.9000 O   0  0  0  0  0  0  0  0  0  0  0  0
   46.4240   34.4790   40.8040 O   0  0  0  0  0  0  0  0  0  0  0  0
   46.4990   32.1850   39.4260 O   0  0  0  0  0  0  0  0  0  0  0  0
   47.2860   33.4200   39.7540 P   0  0  0  0  0  0  0  0  0  0  0  0
   47.6250   34.3190   38.3470 O   0  0  0  0  0  0  0  0  0  0  0  0
   47.8310   35.2560   38.5920 H   0  0  0  0  0  0  0  0  0  0  0  0
   48.7910   33.0200   40.4310 O   0  0  0  0  0  0  0  0  0  0  0  0
   49.3930   33.8070   40.3050 H   0  0  0  0  0  0  0  0  0  0  0  0
  1  2  2  0  0  0  0
  1  6  1  0  0  0  0
  2  3  1  0  0  0  0
  3  8  1  0  0  0  0
  3  4  2  0  0  0  0
  5  4  1  0  0  0  0
  5  9  1  0  0  0  0
  6  5  2  0  0  0  0
  7  2  1  0  0  0  0
  9 12  1  6  0  0  0
  9 10  1  0  0  0  0
  9 11  1  0  0  0  0
 10 11  1  0  0  0  0
 10 14  1  0  0  0  0
 10 13  1  0  0  0  0
 11 16  1  0  0  0  0
 11 15  1  1  0  0  0
 16 18  1  0  0  0  0
 16 17  1  0  0  0  0
 19  1  1  0  0  0  0
 20 19  2  0  0  0  0
 21 19  1  0  0  0  0
 22 23  2  0  0  0  0
 23 26  1  0  0  0  0
 23 21  1  0  0  0  0
 24 25  1  0  0  0  0
 24 23  1  0  0  0  0
 27 26  1  0  0  0  0
M  END
>  <minimizedAffinity>
-5.21178675

>  <minimizedRMSD>
0.452474445

$$$$
