
 OpenBabel03252502283D

 33 34  0  0  0  0  0  0  0  0999 V2000
   45.2340   34.2870   40.8980 C   0  0  0  0  0  0  0  0  0  0  0  0
   45.6420   34.7860   42.1360 C   0  0  0  0  0  0  0  0  0  0  0  0
   47.0040   35.0080   42.3430 C   0  0  0  0  0  0  0  0  0  0  0  0
   47.8960   34.7370   41.3500 C   0  0  0  0  0  0  0  0  0  0  0  0
   47.5160   34.2440   40.1190 C   0  0  0  0  0  0  0  0  0  0  0  0
   46.1490   34.0280   39.9300 C   0  0  0  0  0  0  0  0  0  0  0  0
   44.9260   34.9980   42.9210 H   0  0  0  0  0  0  0  0  0  0  0  0
   47.3320   35.3920   43.2910 H   0  0  0  0  0  0  0  0  0  0  0  0
   48.9470   34.9230   41.5480 H   0  0  0  0  0  0  0  0  0  0  0  0
   48.2020   34.0260   39.3280 H   0  0  0  0  0  0  0  0  0  0  0  0
   41.5300   34.7430   40.3450 C   0  0  0  0  0  0  0  0  0  0  0  0
   42.8940   35.0710   40.4750 C   0  0  0  0  0  0  0  0  0  0  0  0
   43.8080   34.0810   40.7430 C   0  0  0  0  0  0  0  0  0  0  0  0
   43.3220   32.8210   40.8690 N   0  0  0  0  0  0  0  0  0  0  0  0
   42.0140   32.5120   40.7450 C   0  0  0  0  0  0  0  0  0  0  0  0
   41.1120   33.4790   40.4800 N   0  0  0  0  0  0  0  0  0  0  0  0
   43.2560   36.0880   40.3690 H   0  0  0  0  0  0  0  0  0  0  0  0
   41.7320   31.4670   40.8650 H   0  0  0  0  0  0  0  0  0  0  0  0
   40.5430   35.8040   40.0560 C   0  0  0  0  0  0  0  0  0  0  0  0
   39.3030   35.1760   39.8490 F   0  0  0  0  0  0  0  0  0  0  0  0
   40.8770   36.3280   38.7990 F   0  0  0  0  0  0  0  0  0  0  0  0
   40.4480   36.7540   41.0240 F   0  0  0  0  0  0  0  0  0  0  0  0
   46.0120   32.5670   37.7720 C   0  0  0  0  0  0  0  0  0  0  0  0
   47.0290   31.8860   37.8240 O   0  0  0  0  0  0  0  0  0  0  0  0
   45.6190   33.5370   38.7170 N   0  0  0  0  0  0  0  0  0  0  0  0
   44.7150   34.0810   38.5600 H   0  0  0  0  0  0  0  0  0  0  0  0
   45.1590   32.3650   36.6690 O   0  0  0  0  0  0  0  0  0  0  0  0
   45.9360   30.6520   34.7780 O   0  0  0  0  0  0  0  0  0  0  0  0
   45.9190   32.1140   35.1550 P   0  0  0  0  0  0  0  0  0  0  0  0
   44.9390   32.9130   34.0030 O   0  0  0  0  0  0  0  0  0  0  0  0
   44.5560   33.7220   34.4360 H   0  0  0  0  0  0  0  0  0  0  0  0
   47.4530   32.7740   35.0620 O   0  0  0  0  0  0  0  0  0  0  0  0
   48.1400   32.1400   35.4220 H   0  0  0  0  0  0  0  0  0  0  0  0
  1  2  1  0  0  0  0
  2  3  2  0  0  0  0
  2  7  1  0  0  0  0
  3  8  1  0  0  0  0
  4  9  1  0  0  0  0
  4  3  1  0  0  0  0
  5  4  2  0  0  0  0
  6  5  1  0  0  0  0
  6  1  2  0  0  0  0
 10  5  1  0  0  0  0
 11 12  2  0  0  0  0
 11 16  1  0  0  0  0
 12 13  1  0  0  0  0
 13 14  2  0  0  0  0
 13  1  1  0  0  0  0
 15 18  1  0  0  0  0
 15 14  1  0  0  0  0
 16 15  2  0  0  0  0
 17 12  1  0  0  0  0
 19 11  1  0  0  0  0
 19 22  1  0  0  0  0
 20 19  1  0  0  0  0
 21 19  1  0  0  0  0
 23 24  2  0  0  0  0
 23 25  1  0  0  0  0
 25  6  1  0  0  0  0
 26 25  1  0  0  0  0
 27 23  1  0  0  0  0
 28 29  2  0  0  0  0
 29 27  1  0  0  0  0
 30 31  1  0  0  0  0
 30 29  1  0  0  0  0
 32 29  1  0  0  0  0
 32 33  1  0  0  0  0
M  END
>  <minimizedAffinity>
-6.71927357

>  <minimizedRMSD>
1.28392684

$$$$
