
 OpenBabel03242523553D

 43 45  0  0  1  0  0  0  0  0999 V2000
   42.8230   34.5070   38.7610 C   0  0  1  0  0  0  0  0  0  0  0  0
   42.9600   35.1870   40.1150 C   0  0  1  0  0  0  0  0  0  0  0  0
   41.6670   35.4050   40.6330 O   0  0  0  0  0  0  0  0  0  0  0  0
   40.7380   35.7280   39.6420 C   0  0  0  0  0  0  0  0  0  0  0  0
   40.4430   34.5590   38.7310 C   0  0  2  0  0  0  0  0  0  0  0  0
   41.6620   33.5750   38.8670 C   0  0  1  0  0  0  0  0  0  0  0  0
   43.7750   33.9700   38.4990 H   0  0  0  0  0  0  0  0  0  0  0  0
   43.5400   36.1130   40.0770 H   0  0  0  0  0  0  0  0  0  0  0  0
   41.0250   36.6400   39.0850 H   0  0  0  0  0  0  0  0  0  0  0  0
   39.8060   35.9540   40.1880 H   0  0  0  0  0  0  0  0  0  0  0  0
   39.5280   33.9970   39.0010 H   0  0  0  0  0  0  0  0  0  0  0  0
   41.4500   33.3090   39.9530 H   0  0  0  0  0  0  0  0  0  0  0  0
   42.6010   35.4540   37.7520 O   0  0  0  0  0  0  0  0  0  0  0  0
   42.7800   35.0370   36.8900 H   0  0  0  0  0  0  0  0  0  0  0  0
   40.4540   34.9710   37.4100 O   0  0  0  0  0  0  0  0  0  0  0  0
   39.7460   34.4890   36.8900 H   0  0  0  0  0  0  0  0  0  0  0  0
   43.4920   34.2080   40.9690 O   0  0  0  0  0  0  0  0  0  0  0  0
   44.5980   34.3520   41.7060 C   0  0  0  0  0  0  0  0  0  0  0  0
   45.8550   34.4540   41.1150 C   0  0  0  0  0  0  0  0  0  0  0  0
   46.9760   34.6010   41.9070 C   0  0  0  0  0  0  0  0  0  0  0  0
   46.8200   34.6450   43.2760 N   0  0  0  0  0  0  0  0  0  0  0  0
   45.5830   34.5440   43.8290 C   0  0  0  0  0  0  0  0  0  0  0  0
   44.4830   34.3980   43.0450 N   0  0  0  0  0  0  0  0  0  0  0  0
   45.9890   34.4200   40.0480 H   0  0  0  0  0  0  0  0  0  0  0  0
   45.4650   34.5790   44.9140 H   0  0  0  0  0  0  0  0  0  0  0  0
   48.3530   34.6960   41.3250 C   0  0  0  0  0  0  0  0  0  0  0  0
   49.0800   36.0260   41.5060 C   0  0  0  0  0  0  0  0  0  0  0  0
   49.5040   34.7010   42.1760 C   0  0  0  0  0  0  0  0  0  0  0  0
   48.3820   34.3890   40.2460 H   0  0  0  0  0  0  0  0  0  0  0  0
   48.5760   36.7670   42.1720 H   0  0  0  0  0  0  0  0  0  0  0  0
   49.7780   36.3850   40.7490 H   0  0  0  0  0  0  0  0  0  0  0  0
   50.4680   34.2740   41.8670 H   0  0  0  0  0  0  0  0  0  0  0  0
   49.3410   34.6300   43.2740 H   0  0  0  0  0  0  0  0  0  0  0  0
   41.5320   32.6360   37.9170 O   0  0  0  0  0  0  0  0  0  0  0  0
   40.8870   31.4460   37.9830 C   0  0  0  0  0  0  0  0  0  0  0  0
   39.6910   31.2920   37.4770 O   0  0  0  0  0  0  0  0  0  0  0  0
   40.9630   30.1200   38.4200 O   0  0  0  0  0  0  0  0  0  0  0  0
   41.7410   27.6810   37.8870 O   0  0  0  0  0  0  0  0  0  0  0  0
   42.2750   29.1050   37.9920 P   0  0  0  0  0  0  0  0  0  0  0  0
   43.5840   29.2440   39.0130 O   0  0  0  0  0  0  0  0  0  0  0  0
   44.0650   28.3740   39.1560 H   0  0  0  0  0  0  0  0  0  0  0  0
   42.7620   29.4980   36.3970 O   0  0  0  0  0  0  0  0  0  0  0  0
   42.0450   29.2810   35.7490 H   0  0  0  0  0  0  0  0  0  0  0  0
  1  7  1  6  0  0  0
  1  6  1  0  0  0  0
  1  2  1  0  0  0  0
  2  8  1  6  0  0  0
  2  3  1  0  0  0  0
  2 17  1  0  0  0  0
  4 10  1  0  0  0  0
  4  3  1  0  0  0  0
  5  6  1  0  0  0  0
  5 11  1  1  0  0  0
  5  4  1  0  0  0  0
  6 12  1  1  0  0  0
  9  4  1  0  0  0  0
 13  1  1  0  0  0  0
 14 13  1  0  0  0  0
 15  5  1  0  0  0  0
 16 15  1  0  0  0  0
 17 18  1  0  0  0  0
 18 23  1  0  0  0  0
 19 18  2  0  0  0  0
 19 20  1  0  0  0  0
 20 21  2  0  0  0  0
 21 22  1  0  0  0  0
 22 25  1  0  0  0  0
 23 22  2  0  0  0  0
 24 19  1  0  0  0  0
 26 27  1  0  0  0  0
 26 20  1  0  0  0  0
 26 28  1  0  0  0  0
 27 30  1  0  0  0  0
 27 28  1  0  0  0  0
 28 33  1  0  0  0  0
 29 26  1  0  0  0  0
 31 27  1  0  0  0  0
 32 28  1  0  0  0  0
 34 35  1  0  0  0  0
 34  6  1  0  0  0  0
 35 37  1  0  0  0  0
 36 35  2  0  0  0  0
 38 39  2  0  0  0  0
 39 37  1  0  0  0  0
 39 40  1  0  0  0  0
 40 41  1  0  0  0  0
 42 39  1  0  0  0  0
 43 42  1  0  0  0  0
M  END
>  <minimizedAffinity>
-5.3601737

>  <minimizedRMSD>
0.080205448

$$$$
