
 OpenBabel03242510523D

 20 20  0  0  0  0  0  0  0  0999 V2000
   37.0900   28.7530   40.1920 C   0  0  0  0  0  0  0  0  0  0  0  0
   36.1390   29.4420   40.9600 C   0  0  0  0  0  0  0  0  0  0  0  0
   36.3200   30.8280   41.1230 C   0  0  0  0  0  0  0  0  0  0  0  0
   37.3900   31.4230   40.5380 N   0  0  0  0  0  0  0  0  0  0  0  0
   38.2800   30.7150   39.8050 C   0  0  0  0  0  0  0  0  0  0  0  0
   38.1380   29.3750   39.6260 N   0  0  0  0  0  0  0  0  0  0  0  0
   39.6490   32.7140   39.6840 C   0  0  0  0  0  0  0  0  0  0  0  0
   39.0010   33.3100   40.5630 O   0  0  0  0  0  0  0  0  0  0  0  0
   39.3780   31.4010   39.2180 N   0  0  0  0  0  0  0  0  0  0  0  0
   37.0560   27.6900   39.9970 H   0  0  0  0  0  0  0  0  0  0  0  0
   35.3200   28.8780   41.3870 H   0  0  0  0  0  0  0  0  0  0  0  0
   35.5860   31.3560   41.7160 H   0  0  0  0  0  0  0  0  0  0  0  0
   39.9410   30.9200   38.4740 H   0  0  0  0  0  0  0  0  0  0  0  0
   40.7420   33.3370   39.0690 O   0  0  0  0  0  0  0  0  0  0  0  0
   42.2390   31.5260   37.7740 O   0  0  0  0  0  0  0  0  0  0  0  0
   41.3660   32.7290   37.5950 P   0  0  0  0  0  0  0  0  0  0  0  0
   40.0120   32.3880   36.6190 O   0  0  0  0  0  0  0  0  0  0  0  0
   39.2750   32.0730   37.1990 H   0  0  0  0  0  0  0  0  0  0  0  0
   42.2120   33.9960   36.8320 O   0  0  0  0  0  0  0  0  0  0  0  0
   42.1040   33.9610   35.8500 H   0  0  0  0  0  0  0  0  0  0  0  0
  1  2  1  0  0  0  0
  2  3  2  0  0  0  0
  2 11  1  0  0  0  0
  3 12  1  0  0  0  0
  4  3  1  0  0  0  0
  5  4  2  0  0  0  0
  6  5  1  0  0  0  0
  6  1  2  0  0  0  0
  7  8  2  0  0  0  0
  9  7  1  0  0  0  0
  9  5  1  0  0  0  0
 10  1  1  0  0  0  0
 13  9  1  0  0  0  0
 14  7  1  0  0  0  0
 16 15  2  0  0  0  0
 16 14  1  0  0  0  0
 17 18  1  0  0  0  0
 17 16  1  0  0  0  0
 19 16  1  0  0  0  0
 20 19  1  0  0  0  0
M  END
>  <minimizedAffinity>
-4.60418081

$$$$

 OpenBabel03242510523D

 20 20  0  0  0  0  0  0  0  0999 V2000
   37.1910   24.8840   41.2740 C   0  0  0  0  0  0  0  0  0  0  0  0
   38.2080   24.4500   42.1380 C   0  0  0  0  0  0  0  0  0  0  0  0
   38.9920   25.4390   42.7620 C   0  0  0  0  0  0  0  0  0  0  0  0
   38.7320   26.7440   42.5020 N   0  0  0  0  0  0  0  0  0  0  0  0
   37.7380   27.1130   41.6600 C   0  0  0  0  0  0  0  0  0  0  0  0
   36.9610   26.1870   41.0390 N   0  0  0  0  0  0  0  0  0  0  0  0
   38.5350   29.3960   41.8490 C   0  0  0  0  0  0  0  0  0  0  0  0
   39.6010   29.0650   42.3980 O   0  0  0  0  0  0  0  0  0  0  0  0
   37.5180   28.4980   41.4320 N   0  0  0  0  0  0  0  0  0  0  0  0
   36.5260   24.2200   40.7390 H   0  0  0  0  0  0  0  0  0  0  0  0
   38.3380   23.3860   42.2810 H   0  0  0  0  0  0  0  0  0  0  0  0
   39.7750   25.1010   43.4280 H   0  0  0  0  0  0  0  0  0  0  0  0
   36.6260   28.8040   40.9700 H   0  0  0  0  0  0  0  0  0  0  0  0
   38.2600   30.7460   41.5970 O   0  0  0  0  0  0  0  0  0  0  0  0
   36.9450   30.4830   39.2740 O   0  0  0  0  0  0  0  0  0  0  0  0
   36.9440   31.1880   40.5950 P   0  0  0  0  0  0  0  0  0  0  0  0
   35.5370   30.8480   41.4930 O   0  0  0  0  0  0  0  0  0  0  0  0
   35.7010   30.0430   42.0440 H   0  0  0  0  0  0  0  0  0  0  0  0
   36.9970   32.8790   40.3910 O   0  0  0  0  0  0  0  0  0  0  0  0
   36.0880   33.2660   40.3570 H   0  0  0  0  0  0  0  0  0  0  0  0
  1  2  1  0  0  0  0
  2 11  1  0  0  0  0
  2  3  2  0  0  0  0
  3 12  1  0  0  0  0
  4  3  1  0  0  0  0
  5  4  2  0  0  0  0
  6  1  2  0  0  0  0
  6  5  1  0  0  0  0
  7  8  2  0  0  0  0
  9  5  1  0  0  0  0
  9  7  1  0  0  0  0
 10  1  1  0  0  0  0
 13  9  1  0  0  0  0
 14  7  1  0  0  0  0
 15 16  2  0  0  0  0
 16 17  1  0  0  0  0
 16 14  1  0  0  0  0
 17 18  1  0  0  0  0
 19 16  1  0  0  0  0
 20 19  1  0  0  0  0
M  END
>  <minimizedAffinity>
-4.59859467

$$$$

 OpenBabel03242510523D

 20 20  0  0  0  0  0  0  0  0999 V2000
   37.2620   26.6710   42.0470 C   0  0  0  0  0  0  0  0  0  0  0  0
   37.0430   27.2810   43.2920 C   0  0  0  0  0  0  0  0  0  0  0  0
   37.3550   28.6490   43.4060 C   0  0  0  0  0  0  0  0  0  0  0  0
   37.8470   29.3030   42.3240 N   0  0  0  0  0  0  0  0  0  0  0  0
   38.0400   28.6710   41.1440 C   0  0  0  0  0  0  0  0  0  0  0  0
   37.7510   27.3510   40.9950 N   0  0  0  0  0  0  0  0  0  0  0  0
   39.1270   30.6830   40.3360 C   0  0  0  0  0  0  0  0  0  0  0  0
   39.2070   31.1920   41.4680 O   0  0  0  0  0  0  0  0  0  0  0  0
   38.5570   29.4150   40.0490 N   0  0  0  0  0  0  0  0  0  0  0  0
   37.0600   25.6300   41.8380 H   0  0  0  0  0  0  0  0  0  0  0  0
   36.6480   26.6750   44.0960 H   0  0  0  0  0  0  0  0  0  0  0  0
   37.1850   29.1150   44.3670 H   0  0  0  0  0  0  0  0  0  0  0  0
   38.5020   29.0070   39.0830 H   0  0  0  0  0  0  0  0  0  0  0  0
   39.6180   31.3680   39.2170 O   0  0  0  0  0  0  0  0  0  0  0  0
   37.9810   30.3440   37.3550 O   0  0  0  0  0  0  0  0  0  0  0  0
   38.6250   31.6040   37.8430 P   0  0  0  0  0  0  0  0  0  0  0  0
   37.4690   32.7700   38.2970 O   0  0  0  0  0  0  0  0  0  0  0  0
   37.2480   32.6400   39.2520 H   0  0  0  0  0  0  0  0  0  0  0  0
   39.5860   32.3160   36.6290 O   0  0  0  0  0  0  0  0  0  0  0  0
   39.0680   32.9670   36.0960 H   0  0  0  0  0  0  0  0  0  0  0  0
  1  2  1  0  0  0  0
  2  3  2  0  0  0  0
  2 11  1  0  0  0  0
  3 12  1  0  0  0  0
  4  3  1  0  0  0  0
  5  4  2  0  0  0  0
  6  5  1  0  0  0  0
  6  1  2  0  0  0  0
  7  8  2  0  0  0  0
  9  7  1  0  0  0  0
  9  5  1  0  0  0  0
 10  1  1  0  0  0  0
 13  9  1  0  0  0  0
 14  7  1  0  0  0  0
 15 16  2  0  0  0  0
 16 17  1  0  0  0  0
 16 14  1  0  0  0  0
 17 18  1  0  0  0  0
 19 16  1  0  0  0  0
 20 19  1  0  0  0  0
M  END
>  <minimizedAffinity>
-4.30394125

$$$$

 OpenBabel03242510523D

 20 20  0  0  0  0  0  0  0  0999 V2000
   37.9770   28.9260   43.5330 C   0  0  0  0  0  0  0  0  0  0  0  0
   37.0400   27.8830   43.4700 C   0  0  0  0  0  0  0  0  0  0  0  0
   36.3270   27.7250   42.2670 C   0  0  0  0  0  0  0  0  0  0  0  0
   36.5750   28.5760   41.2410 N   0  0  0  0  0  0  0  0  0  0  0  0
   37.4900   29.5680   41.3490 C   0  0  0  0  0  0  0  0  0  0  0  0
   38.1980   29.7510   42.4950 N   0  0  0  0  0  0  0  0  0  0  0  0
   36.7360   30.3900   39.1950 C   0  0  0  0  0  0  0  0  0  0  0  0
   35.7220   29.6700   39.1830 O   0  0  0  0  0  0  0  0  0  0  0  0
   37.7020   30.4240   40.2350 N   0  0  0  0  0  0  0  0  0  0  0  0
   38.5840   29.1450   44.4010 H   0  0  0  0  0  0  0  0  0  0  0  0
   36.9140   27.2570   44.3430 H   0  0  0  0  0  0  0  0  0  0  0  0
   35.6060   26.9210   42.2230 H   0  0  0  0  0  0  0  0  0  0  0  0
   38.5500   31.0430   40.2200 H   0  0  0  0  0  0  0  0  0  0  0  0
   37.0010   31.2550   38.1260 O   0  0  0  0  0  0  0  0  0  0  0  0
   39.5490   30.4960   37.7740 O   0  0  0  0  0  0  0  0  0  0  0  0
   38.6130   31.6630   37.7220 P   0  0  0  0  0  0  0  0  0  0  0  0
   38.5460   32.3500   36.1640 O   0  0  0  0  0  0  0  0  0  0  0  0
   37.8350   31.8950   35.6480 H   0  0  0  0  0  0  0  0  0  0  0  0
   39.1120   32.9010   38.7810 O   0  0  0  0  0  0  0  0  0  0  0  0
   39.7030   33.5490   38.3240 H   0  0  0  0  0  0  0  0  0  0  0  0
  1 10  1  0  0  0  0
  2  1  1  0  0  0  0
  2 11  1  0  0  0  0
  3  2  2  0  0  0  0
  4  5  2  0  0  0  0
  4  3  1  0  0  0  0
  5  6  1  0  0  0  0
  6  1  2  0  0  0  0
  7  9  1  0  0  0  0
  8  7  2  0  0  0  0
  9  5  1  0  0  0  0
 12  3  1  0  0  0  0
 13  9  1  0  0  0  0
 14  7  1  0  0  0  0
 16 15  2  0  0  0  0
 16 14  1  0  0  0  0
 16 19  1  0  0  0  0
 17 16  1  0  0  0  0
 18 17  1  0  0  0  0
 20 19  1  0  0  0  0
M  END
>  <minimizedAffinity>
-4.27912569

$$$$

 OpenBabel03242510523D

 20 20  0  0  0  0  0  0  0  0999 V2000
   40.0440   25.8870   43.5600 C   0  0  0  0  0  0  0  0  0  0  0  0
   39.3280   24.8280   42.9810 C   0  0  0  0  0  0  0  0  0  0  0  0
   38.2250   25.1580   42.1720 C   0  0  0  0  0  0  0  0  0  0  0  0
   37.9110   26.4660   41.9920 N   0  0  0  0  0  0  0  0  0  0  0  0
   38.6340   27.4520   42.5710 C   0  0  0  0  0  0  0  0  0  0  0  0
   39.7050   27.1720   43.3600 N   0  0  0  0  0  0  0  0  0  0  0  0
   36.9670   29.0270   41.7800 C   0  0  0  0  0  0  0  0  0  0  0  0
   36.1530   28.1380   41.4740 O   0  0  0  0  0  0  0  0  0  0  0  0
   38.2510   28.8020   42.3410 N   0  0  0  0  0  0  0  0  0  0  0  0
   40.9070   25.7580   44.1980 H   0  0  0  0  0  0  0  0  0  0  0  0
   39.6560   23.8170   43.1850 H   0  0  0  0  0  0  0  0  0  0  0  0
   37.6750   24.3400   41.7280 H   0  0  0  0  0  0  0  0  0  0  0  0
   38.9200   29.5720   42.5910 H   0  0  0  0  0  0  0  0  0  0  0  0
   36.6480   30.3760   41.5770 O   0  0  0  0  0  0  0  0  0  0  0  0
   37.7750   30.7320   39.1690 O   0  0  0  0  0  0  0  0  0  0  0  0
   37.5950   31.3400   40.5250 P   0  0  0  0  0  0  0  0  0  0  0  0
   36.8130   32.8510   40.4430 O   0  0  0  0  0  0  0  0  0  0  0  0
   35.8360   32.7040   40.4980 H   0  0  0  0  0  0  0  0  0  0  0  0
   39.0970   31.6070   41.2850 O   0  0  0  0  0  0  0  0  0  0  0  0
   39.4410   32.5140   41.0920 H   0  0  0  0  0  0  0  0  0  0  0  0
  1 10  1  0  0  0  0
  2 11  1  0  0  0  0
  2  1  2  0  0  0  0
  3  2  1  0  0  0  0
  4  3  2  0  0  0  0
  4  5  1  0  0  0  0
  5  6  2  0  0  0  0
  6  1  1  0  0  0  0
  7  9  1  0  0  0  0
  8  7  2  0  0  0  0
  9  5  1  0  0  0  0
  9 13  1  0  0  0  0
 12  3  1  0  0  0  0
 14  7  1  0  0  0  0
 15 16  2  0  0  0  0
 16 19  1  0  0  0  0
 16 14  1  0  0  0  0
 17 18  1  0  0  0  0
 17 16  1  0  0  0  0
 20 19  1  0  0  0  0
M  END
>  <minimizedAffinity>
-4.20712614

$$$$

 OpenBabel03242510523D

 20 20  0  0  0  0  0  0  0  0999 V2000
   38.4020   24.4420   42.2750 C   0  0  0  0  0  0  0  0  0  0  0  0
   39.5640   24.3840   43.0610 C   0  0  0  0  0  0  0  0  0  0  0  0
   40.0970   25.6040   43.5180 C   0  0  0  0  0  0  0  0  0  0  0  0
   39.4720   26.7600   43.1830 N   0  0  0  0  0  0  0  0  0  0  0  0
   38.3520   26.7640   42.4230 C   0  0  0  0  0  0  0  0  0  0  0  0
   37.8090   25.6060   41.9620 N   0  0  0  0  0  0  0  0  0  0  0  0
   38.5110   29.1830   42.3440 C   0  0  0  0  0  0  0  0  0  0  0  0
   39.6670   29.2040   42.8030 O   0  0  0  0  0  0  0  0  0  0  0  0
   37.7470   28.0110   42.1090 N   0  0  0  0  0  0  0  0  0  0  0  0
   37.9030   23.5740   41.8680 H   0  0  0  0  0  0  0  0  0  0  0  0
   39.9890   23.4120   43.2740 H   0  0  0  0  0  0  0  0  0  0  0  0
   40.9920   25.5550   44.1230 H   0  0  0  0  0  0  0  0  0  0  0  0
   36.7710   28.0210   41.7200 H   0  0  0  0  0  0  0  0  0  0  0  0
   37.8600   30.3790   42.0160 O   0  0  0  0  0  0  0  0  0  0  0  0
   36.8030   31.8500   40.0370 O   0  0  0  0  0  0  0  0  0  0  0  0
   36.8760   30.4720   40.6180 P   0  0  0  0  0  0  0  0  0  0  0  0
   37.5290   29.3540   39.5110 O   0  0  0  0  0  0  0  0  0  0  0  0
   38.5120   29.3360   39.6220 H   0  0  0  0  0  0  0  0  0  0  0  0
   35.3280   29.8970   41.0380 O   0  0  0  0  0  0  0  0  0  0  0  0
   34.9160   29.3960   40.2930 H   0  0  0  0  0  0  0  0  0  0  0  0
  1  2  1  0  0  0  0
  2 11  1  0  0  0  0
  2  3  2  0  0  0  0
  3 12  1  0  0  0  0
  4  3  1  0  0  0  0
  5  4  2  0  0  0  0
  6  1  2  0  0  0  0
  6  5  1  0  0  0  0
  7  8  2  0  0  0  0
  9  7  1  0  0  0  0
  9  5  1  0  0  0  0
 10  1  1  0  0  0  0
 13  9  1  0  0  0  0
 14  7  1  0  0  0  0
 15 16  2  0  0  0  0
 16 19  1  0  0  0  0
 16 14  1  0  0  0  0
 17 18  1  0  0  0  0
 17 16  1  0  0  0  0
 20 19  1  0  0  0  0
M  END
>  <minimizedAffinity>
-4.06596231

$$$$

 OpenBabel03242510523D

 20 20  0  0  0  0  0  0  0  0999 V2000
   38.7910   27.4080   43.3850 C   0  0  0  0  0  0  0  0  0  0  0  0
   37.4580   26.9730   43.3170 C   0  0  0  0  0  0  0  0  0  0  0  0
   36.5590   27.7560   42.5680 C   0  0  0  0  0  0  0  0  0  0  0  0
   37.0180   28.8770   41.9560 N   0  0  0  0  0  0  0  0  0  0  0  0
   38.3140   29.2540   42.0500 C   0  0  0  0  0  0  0  0  0  0  0  0
   39.2100   28.5240   42.7650 N   0  0  0  0  0  0  0  0  0  0  0  0
   37.7120   31.3160   40.9230 C   0  0  0  0  0  0  0  0  0  0  0  0
   36.4900   31.1280   41.0550 O   0  0  0  0  0  0  0  0  0  0  0  0
   38.7280   30.4390   41.3840 N   0  0  0  0  0  0  0  0  0  0  0  0
   39.5700   26.8910   43.9280 H   0  0  0  0  0  0  0  0  0  0  0  0
   37.1890   26.0660   43.8400 H   0  0  0  0  0  0  0  0  0  0  0  0
   35.5330   27.4190   42.5180 H   0  0  0  0  0  0  0  0  0  0  0  0
   39.7550   30.6220   41.2600 H   0  0  0  0  0  0  0  0  0  0  0  0
   38.1830   32.4650   40.2750 O   0  0  0  0  0  0  0  0  0  0  0  0
   40.4080   31.5390   39.0960 O   0  0  0  0  0  0  0  0  0  0  0  0
   39.8520   32.6450   39.9390 P   0  0  0  0  0  0  0  0  0  0  0  0
   40.0160   34.1610   39.1800 O   0  0  0  0  0  0  0  0  0  0  0  0
   39.2130   34.3250   38.6250 H   0  0  0  0  0  0  0  0  0  0  0  0
   40.6690   32.7540   41.4300 O   0  0  0  0  0  0  0  0  0  0  0  0
   41.4310   33.3820   41.3780 H   0  0  0  0  0  0  0  0  0  0  0  0
  1 10  1  0  0  0  0
  2  1  1  0  0  0  0
  2 11  1  0  0  0  0
  3  2  2  0  0  0  0
  4  5  2  0  0  0  0
  4  3  1  0  0  0  0
  5  6  1  0  0  0  0
  6  1  2  0  0  0  0
  7  8  2  0  0  0  0
  7  9  1  0  0  0  0
  9  5  1  0  0  0  0
 12  3  1  0  0  0  0
 13  9  1  0  0  0  0
 14  7  1  0  0  0  0
 15 16  2  0  0  0  0
 16 14  1  0  0  0  0
 16 19  1  0  0  0  0
 17 16  1  0  0  0  0
 18 17  1  0  0  0  0
 20 19  1  0  0  0  0
M  END
>  <minimizedAffinity>
-4.05211878

$$$$

 OpenBabel03242510523D

 20 20  0  0  0  0  0  0  0  0999 V2000
   39.4250   27.7380   42.8740 C   0  0  0  0  0  0  0  0  0  0  0  0
   38.2550   27.6740   43.6470 C   0  0  0  0  0  0  0  0  0  0  0  0
   37.1420   28.4090   43.1980 C   0  0  0  0  0  0  0  0  0  0  0  0
   37.2510   29.1340   42.0570 N   0  0  0  0  0  0  0  0  0  0  0  0
   38.4020   29.1630   41.3450 C   0  0  0  0  0  0  0  0  0  0  0  0
   39.4980   28.4670   41.7480 N   0  0  0  0  0  0  0  0  0  0  0  0
   37.4030   30.8810   39.9530 C   0  0  0  0  0  0  0  0  0  0  0  0
   36.4510   31.0720   40.7300 O   0  0  0  0  0  0  0  0  0  0  0  0
   38.4480   29.9430   40.1580 N   0  0  0  0  0  0  0  0  0  0  0  0
   40.3410   27.2180   43.1170 H   0  0  0  0  0  0  0  0  0  0  0  0
   38.2670   27.0680   44.5430 H   0  0  0  0  0  0  0  0  0  0  0  0
   36.2430   28.3570   43.7960 H   0  0  0  0  0  0  0  0  0  0  0  0
   39.2420   29.8010   39.4850 H   0  0  0  0  0  0  0  0  0  0  0  0
   37.5040   31.6170   38.7660 O   0  0  0  0  0  0  0  0  0  0  0  0
   40.1480   31.5380   38.3170 O   0  0  0  0  0  0  0  0  0  0  0  0
   38.8040   31.3430   37.6860 P   0  0  0  0  0  0  0  0  0  0  0  0
   38.6030   29.7530   37.1070 O   0  0  0  0  0  0  0  0  0  0  0  0
   38.2230   29.1980   37.8330 H   0  0  0  0  0  0  0  0  0  0  0  0
   38.5930   32.3800   36.3510 O   0  0  0  0  0  0  0  0  0  0  0  0
   38.8810   31.9470   35.5110 H   0  0  0  0  0  0  0  0  0  0  0  0
  1 10  1  0  0  0  0
  1  2  1  0  0  0  0
  2 11  1  0  0  0  0
  3  2  2  0  0  0  0
  3 12  1  0  0  0  0
  4  3  1  0  0  0  0
  5  6  1  0  0  0  0
  5  4  2  0  0  0  0
  6  1  2  0  0  0  0
  7  9  1  0  0  0  0
  7  8  2  0  0  0  0
  9  5  1  0  0  0  0
 13  9  1  0  0  0  0
 14  7  1  0  0  0  0
 16 15  2  0  0  0  0
 16 14  1  0  0  0  0
 17 16  1  0  0  0  0
 17 18  1  0  0  0  0
 19 16  1  0  0  0  0
 20 19  1  0  0  0  0
M  END
>  <minimizedAffinity>
-4.02557564

$$$$

 OpenBabel03242510523D

 20 20  0  0  0  0  0  0  0  0999 V2000
   36.9640   25.3900   40.4830 C   0  0  0  0  0  0  0  0  0  0  0  0
   37.1740   25.1350   41.8470 C   0  0  0  0  0  0  0  0  0  0  0  0
   37.2610   26.2460   42.7070 C   0  0  0  0  0  0  0  0  0  0  0  0
   37.1380   27.4910   42.1850 N   0  0  0  0  0  0  0  0  0  0  0  0
   36.9360   27.6870   40.8610 C   0  0  0  0  0  0  0  0  0  0  0  0
   36.8480   26.6390   40.0000 N   0  0  0  0  0  0  0  0  0  0  0  0
   37.2200   30.0640   41.2500 C   0  0  0  0  0  0  0  0  0  0  0  0
   37.6690   29.9060   42.3990 O   0  0  0  0  0  0  0  0  0  0  0  0
   36.8160   29.0180   40.3800 N   0  0  0  0  0  0  0  0  0  0  0  0
   36.8810   24.6210   39.7280 H   0  0  0  0  0  0  0  0  0  0  0  0
   37.2590   24.1050   42.1670 H   0  0  0  0  0  0  0  0  0  0  0  0
   37.4230   26.0450   43.7570 H   0  0  0  0  0  0  0  0  0  0  0  0
   36.4400   29.1790   39.4120 H   0  0  0  0  0  0  0  0  0  0  0  0
   37.0770   31.3520   40.7190 O   0  0  0  0  0  0  0  0  0  0  0  0
   39.1950   32.0480   39.2260 O   0  0  0  0  0  0  0  0  0  0  0  0
   38.4500   32.3490   40.4890 P   0  0  0  0  0  0  0  0  0  0  0  0
   37.8740   33.9520   40.5160 O   0  0  0  0  0  0  0  0  0  0  0  0
   36.9730   33.9710   40.1070 H   0  0  0  0  0  0  0  0  0  0  0  0
   39.4530   32.1680   41.8550 O   0  0  0  0  0  0  0  0  0  0  0  0
   39.8950   33.0200   42.0930 H   0  0  0  0  0  0  0  0  0  0  0  0
  1  2  1  0  0  0  0
  2 11  1  0  0  0  0
  2  3  2  0  0  0  0
  3 12  1  0  0  0  0
  4  3  1  0  0  0  0
  5  4  2  0  0  0  0
  6  1  2  0  0  0  0
  6  5  1  0  0  0  0
  7  8  2  0  0  0  0
  9  5  1  0  0  0  0
  9  7  1  0  0  0  0
 10  1  1  0  0  0  0
 13  9  1  0  0  0  0
 14  7  1  0  0  0  0
 15 16  2  0  0  0  0
 16 17  1  0  0  0  0
 16 14  1  0  0  0  0
 16 19  1  0  0  0  0
 18 17  1  0  0  0  0
 19 20  1  0  0  0  0
M  END
>  <minimizedAffinity>
-4.02496386

$$$$
