
 OpenBabel03242523553D

 43 45  0  0  1  0  0  0  0  0999 V2000
   42.8160   34.4900   38.7360 C   0  0  1  0  0  0  0  0  0  0  0  0
   42.9860   35.1760   40.0840 C   0  0  1  0  0  0  0  0  0  0  0  0
   41.7050   35.4320   40.6150 O   0  0  0  0  0  0  0  0  0  0  0  0
   40.7750   35.7740   39.6320 C   0  0  0  0  0  0  0  0  0  0  0  0
   40.4380   34.6080   38.7320 C   0  0  2  0  0  0  0  0  0  0  0  0
   41.6300   33.5920   38.8610 C   0  0  1  0  0  0  0  0  0  0  0  0
   43.7490   33.9260   38.4670 H   0  0  0  0  0  0  0  0  0  0  0  0
   43.5910   36.0840   40.0330 H   0  0  0  0  0  0  0  0  0  0  0  0
   41.0810   36.6750   39.0650 H   0  0  0  0  0  0  0  0  0  0  0  0
   39.8560   36.0300   40.1860 H   0  0  0  0  0  0  0  0  0  0  0  0
   39.5110   34.0740   39.0160 H   0  0  0  0  0  0  0  0  0  0  0  0
   41.4240   33.3390   39.9510 H   0  0  0  0  0  0  0  0  0  0  0  0
   42.6090   35.4360   37.7230 O   0  0  0  0  0  0  0  0  0  0  0  0
   42.7660   35.0090   36.8620 H   0  0  0  0  0  0  0  0  0  0  0  0
   40.4450   35.0110   37.4080 O   0  0  0  0  0  0  0  0  0  0  0  0
   39.7190   34.5450   36.8990 H   0  0  0  0  0  0  0  0  0  0  0  0
   43.5010   34.1880   40.9380 O   0  0  0  0  0  0  0  0  0  0  0  0
   44.6020   34.3170   41.6850 C   0  0  0  0  0  0  0  0  0  0  0  0
   45.8620   34.4360   41.1050 C   0  0  0  0  0  0  0  0  0  0  0  0
   46.9770   34.5680   41.9070 C   0  0  0  0  0  0  0  0  0  0  0  0
   46.8130   34.5800   43.2760 N   0  0  0  0  0  0  0  0  0  0  0  0
   45.5730   34.4610   43.8190 C   0  0  0  0  0  0  0  0  0  0  0  0
   44.4780   34.3310   43.0250 N   0  0  0  0  0  0  0  0  0  0  0  0
   46.0030   34.4290   40.0380 H   0  0  0  0  0  0  0  0  0  0  0  0
   45.4480   34.4700   44.9030 H   0  0  0  0  0  0  0  0  0  0  0  0
   48.3580   34.6810   41.3360 C   0  0  0  0  0  0  0  0  0  0  0  0
   49.0650   36.0210   41.5200 C   0  0  0  0  0  0  0  0  0  0  0  0
   49.5020   34.7030   42.1960 C   0  0  0  0  0  0  0  0  0  0  0  0
   48.4000   34.3720   40.2580 H   0  0  0  0  0  0  0  0  0  0  0  0
   48.5450   36.7560   42.1800 H   0  0  0  0  0  0  0  0  0  0  0  0
   49.7640   36.3880   40.7680 H   0  0  0  0  0  0  0  0  0  0  0  0
   50.4740   34.2890   41.8960 H   0  0  0  0  0  0  0  0  0  0  0  0
   49.3300   34.6320   43.2930 H   0  0  0  0  0  0  0  0  0  0  0  0
   41.4640   32.6500   37.9190 O   0  0  0  0  0  0  0  0  0  0  0  0
   40.6970   31.5330   37.9620 C   0  0  0  0  0  0  0  0  0  0  0  0
   39.4790   31.5270   37.4880 O   0  0  0  0  0  0  0  0  0  0  0  0
   40.6430   30.1910   38.3480 O   0  0  0  0  0  0  0  0  0  0  0  0
   39.9140   27.6920   38.0940 O   0  0  0  0  0  0  0  0  0  0  0  0
   39.5360   29.0950   37.6320 P   0  0  0  0  0  0  0  0  0  0  0  0
   39.4350   29.2370   35.9760 O   0  0  0  0  0  0  0  0  0  0  0  0
   39.2940   28.3580   35.5130 H   0  0  0  0  0  0  0  0  0  0  0  0
   37.9880   29.3680   38.3150 O   0  0  0  0  0  0  0  0  0  0  0  0
   37.9870   29.1450   39.2790 H   0  0  0  0  0  0  0  0  0  0  0  0
  1  7  1  6  0  0  0
  1  6  1  0  0  0  0
  1  2  1  0  0  0  0
  2  8  1  6  0  0  0
  2  3  1  0  0  0  0
  2 17  1  0  0  0  0
  4 10  1  0  0  0  0
  4  3  1  0  0  0  0
  5  6  1  0  0  0  0
  5 11  1  1  0  0  0
  5  4  1  0  0  0  0
  6 12  1  1  0  0  0
  9  4  1  0  0  0  0
 13  1  1  0  0  0  0
 14 13  1  0  0  0  0
 15  5  1  0  0  0  0
 16 15  1  0  0  0  0
 17 18  1  0  0  0  0
 18 23  1  0  0  0  0
 19 18  2  0  0  0  0
 19 20  1  0  0  0  0
 20 21  2  0  0  0  0
 21 22  1  0  0  0  0
 22 25  1  0  0  0  0
 23 22  2  0  0  0  0
 24 19  1  0  0  0  0
 26 27  1  0  0  0  0
 26 20  1  0  0  0  0
 26 28  1  0  0  0  0
 27 30  1  0  0  0  0
 27 28  1  0  0  0  0
 28 33  1  0  0  0  0
 29 26  1  0  0  0  0
 31 27  1  0  0  0  0
 32 28  1  0  0  0  0
 34 35  1  0  0  0  0
 34  6  1  0  0  0  0
 35 37  1  0  0  0  0
 36 35  2  0  0  0  0
 39 38  2  0  0  0  0
 39 42  1  0  0  0  0
 39 37  1  0  0  0  0
 40 39  1  0  0  0  0
 41 40  1  0  0  0  0
 42 43  1  0  0  0  0
M  END
>  <minimizedAffinity>
-5.53687954

>  <minimizedRMSD>
0.44930023

$$$$
