
 OpenBabel03252508013D

 27 28  0  0  1  0  0  0  0  0999 V2000
   39.6810   31.6630   40.4590 C   0  0  0  0  0  0  0  0  0  0  0  0
   40.3200   31.3920   41.6860 C   0  0  0  0  0  0  0  0  0  0  0  0
   39.8340   30.3230   42.4460 C   0  0  0  0  0  0  0  0  0  0  0  0
   38.7810   29.6230   41.9500 N   0  0  0  0  0  0  0  0  0  0  0  0
   38.2070   29.9420   40.7510 C   0  0  0  0  0  0  0  0  0  0  0  0
   38.6290   30.9440   39.9920 N   0  0  0  0  0  0  0  0  0  0  0  0
   41.1480   31.9760   42.0280 H   0  0  0  0  0  0  0  0  0  0  0  0
   40.2970   30.0890   43.3820 H   0  0  0  0  0  0  0  0  0  0  0  0
   37.0600   29.1100   40.2660 C   0  0  1  0  0  0  0  0  0  0  0  0
   36.1000   28.5200   41.2720 C   0  0  0  0  0  0  0  0  0  0  0  0
   35.7320   29.7290   40.4540 C   0  0  1  0  0  0  0  0  0  0  0  0
   37.2350   28.4720   39.3930 H   0  0  0  0  0  0  0  0  0  0  0  0
   35.6140   27.5640   41.0010 H   0  0  0  0  0  0  0  0  0  0  0  0
   36.3770   28.6120   42.3380 H   0  0  0  0  0  0  0  0  0  0  0  0
   34.8910   29.6010   39.7760 H   0  0  0  0  0  0  0  0  0  0  0  0
   35.6100   30.9250   41.2990 N   0  0  0  0  0  0  0  0  0  0  0  0
   34.7930   30.7620   41.9420 H   0  0  0  0  0  0  0  0  0  0  0  0
   35.3560   31.7610   40.7160 H   0  0  0  0  0  0  0  0  0  0  0  0
   40.2370   32.7680   39.7170 C   0  0  0  0  0  0  0  0  0  0  0  0
   39.6600   33.9060   39.5930 O   0  0  0  0  0  0  0  0  0  0  0  0
   41.4840   32.6170   39.0810 O   0  0  0  0  0  0  0  0  0  0  0  0
   42.4460   31.3690   36.9160 O   0  0  0  0  0  0  0  0  0  0  0  0
   41.6240   32.5420   37.3660 P   0  0  0  0  0  0  0  0  0  0  0  0
   40.0330   32.4380   36.7640 O   0  0  0  0  0  0  0  0  0  0  0  0
   39.4310   32.9990   37.3150 H   0  0  0  0  0  0  0  0  0  0  0  0
   42.2610   33.9970   36.7640 O   0  0  0  0  0  0  0  0  0  0  0  0
   41.5270   34.6720   36.7830 H   0  0  0  0  0  0  0  0  0  0  0  0
  1  2  1  0  0  0  0
  2  7  1  0  0  0  0
  2  3  2  0  0  0  0
  3  8  1  0  0  0  0
  4  3  1  0  0  0  0
  5  4  2  0  0  0  0
  6  1  2  0  0  0  0
  6  5  1  0  0  0  0
  9 12  1  6  0  0  0
  9 11  1  0  0  0  0
  9  5  1  0  0  0  0
  9 10  1  0  0  0  0
 10 14  1  0  0  0  0
 11 15  1  6  0  0  0
 11 10  1  0  0  0  0
 11 16  1  0  0  0  0
 13 10  1  0  0  0  0
 16 17  1  0  0  0  0
 18 16  1  0  0  0  0
 19  1  1  0  0  0  0
 20 19  2  0  0  0  0
 21 19  1  0  0  0  0
 22 23  2  0  0  0  0
 23 21  1  0  0  0  0
 24 25  1  0  0  0  0
 24 23  1  0  0  0  0
 26 27  1  0  0  0  0
 26 23  1  0  0  0  0
M  END
>  <minimizedAffinity>
-5.414711

$$$$

 OpenBabel03252508013D

 27 28  0  0  1  0  0  0  0  0999 V2000
   38.1920   28.5680   41.6760 C   0  0  0  0  0  0  0  0  0  0  0  0
   37.8530   28.7020   43.0370 C   0  0  0  0  0  0  0  0  0  0  0  0
   37.1720   27.6410   43.6420 C   0  0  0  0  0  0  0  0  0  0  0  0
   36.8850   26.5560   42.8760 N   0  0  0  0  0  0  0  0  0  0  0  0
   37.2440   26.4920   41.5590 C   0  0  0  0  0  0  0  0  0  0  0  0
   37.8900   27.4690   40.9370 N   0  0  0  0  0  0  0  0  0  0  0  0
   38.1040   29.5810   43.5940 H   0  0  0  0  0  0  0  0  0  0  0  0
   36.9000   27.7100   44.6750 H   0  0  0  0  0  0  0  0  0  0  0  0
   36.9070   25.2530   40.7880 C   0  0  1  0  0  0  0  0  0  0  0  0
   38.0180   24.4750   40.1230 C   0  0  0  0  0  0  0  0  0  0  0  0
   37.3870   24.0000   41.4050 C   0  0  1  0  0  0  0  0  0  0  0  0
   35.9660   25.2480   40.2280 H   0  0  0  0  0  0  0  0  0  0  0  0
   37.7600   23.9200   39.2010 H   0  0  0  0  0  0  0  0  0  0  0  0
   39.0190   24.9420   40.1160 H   0  0  0  0  0  0  0  0  0  0  0  0
   36.8650   23.0470   41.3490 H   0  0  0  0  0  0  0  0  0  0  0  0
   38.3390   24.0670   42.5230 N   0  0  0  0  0  0  0  0  0  0  0  0
   39.1030   23.3760   42.3130 H   0  0  0  0  0  0  0  0  0  0  0  0
   37.8850   23.7360   43.4110 H   0  0  0  0  0  0  0  0  0  0  0  0
   38.9040   29.6900   41.1140 C   0  0  0  0  0  0  0  0  0  0  0  0
   40.0230   29.5880   40.4970 O   0  0  0  0  0  0  0  0  0  0  0  0
   38.3620   30.9840   41.2360 O   0  0  0  0  0  0  0  0  0  0  0  0
   36.8510   30.7980   39.0340 O   0  0  0  0  0  0  0  0  0  0  0  0
   36.9450   31.4570   40.3800 P   0  0  0  0  0  0  0  0  0  0  0  0
   35.6260   31.0210   41.3660 O   0  0  0  0  0  0  0  0  0  0  0  0
   35.8570   31.1710   42.3170 H   0  0  0  0  0  0  0  0  0  0  0  0
   36.8840   33.1480   40.2340 O   0  0  0  0  0  0  0  0  0  0  0  0
   36.6010   33.5130   41.1180 H   0  0  0  0  0  0  0  0  0  0  0  0
  1  2  1  0  0  0  0
  2  7  1  0  0  0  0
  2  3  2  0  0  0  0
  3  8  1  0  0  0  0
  4  3  1  0  0  0  0
  5  4  2  0  0  0  0
  6  5  1  0  0  0  0
  6  1  2  0  0  0  0
  9 12  1  6  0  0  0
  9 11  1  0  0  0  0
  9  5  1  0  0  0  0
 10  9  1  0  0  0  0
 10 11  1  0  0  0  0
 11 15  1  6  0  0  0
 11 16  1  0  0  0  0
 13 10  1  0  0  0  0
 14 10  1  0  0  0  0
 16 18  1  0  0  0  0
 17 16  1  0  0  0  0
 19 21  1  0  0  0  0
 19  1  1  0  0  0  0
 20 19  2  0  0  0  0
 22 23  2  0  0  0  0
 23 21  1  0  0  0  0
 23 24  1  0  0  0  0
 24 25  1  0  0  0  0
 26 23  1  0  0  0  0
 26 27  1  0  0  0  0
M  END
>  <minimizedAffinity>
-5.25832176

$$$$

 OpenBabel03252508013D

 27 28  0  0  1  0  0  0  0  0999 V2000
   36.8100   28.7320   41.7470 C   0  0  0  0  0  0  0  0  0  0  0  0
   37.8640   29.2150   42.5480 C   0  0  0  0  0  0  0  0  0  0  0  0
   38.6010   28.2790   43.2810 C   0  0  0  0  0  0  0  0  0  0  0  0
   38.2490   26.9720   43.1710 N   0  0  0  0  0  0  0  0  0  0  0  0
   37.2120   26.5720   42.3750 C   0  0  0  0  0  0  0  0  0  0  0  0
   36.4830   27.4170   41.6590 N   0  0  0  0  0  0  0  0  0  0  0  0
   38.0980   30.2570   42.5980 H   0  0  0  0  0  0  0  0  0  0  0  0
   39.4090   28.6120   43.8990 H   0  0  0  0  0  0  0  0  0  0  0  0
   36.8990   25.1090   42.2940 C   0  0  1  0  0  0  0  0  0  0  0  0
   36.9180   24.4260   40.9460 C   0  0  0  0  0  0  0  0  0  0  0  0
   38.0490   24.2580   41.9260 C   0  0  1  0  0  0  0  0  0  0  0  0
   36.1400   24.7180   42.9790 H   0  0  0  0  0  0  0  0  0  0  0  0
   36.2380   23.5640   40.8110 H   0  0  0  0  0  0  0  0  0  0  0  0
   37.0210   25.0770   40.0590 H   0  0  0  0  0  0  0  0  0  0  0  0
   38.2080   23.2460   42.2930 H   0  0  0  0  0  0  0  0  0  0  0  0
   39.2800   24.8870   41.4290 N   0  0  0  0  0  0  0  0  0  0  0  0
   39.5710   24.3530   40.5710 H   0  0  0  0  0  0  0  0  0  0  0  0
   40.0600   24.7650   42.1230 H   0  0  0  0  0  0  0  0  0  0  0  0
   36.0980   29.7440   41.0060 C   0  0  0  0  0  0  0  0  0  0  0  0
   35.1360   29.4910   40.1980 O   0  0  0  0  0  0  0  0  0  0  0  0
   36.4590   31.0960   41.1600 O   0  0  0  0  0  0  0  0  0  0  0  0
   38.8070   31.8280   40.1040 O   0  0  0  0  0  0  0  0  0  0  0  0
   37.3210   31.9490   39.9360 P   0  0  0  0  0  0  0  0  0  0  0  0
   36.8190   31.2830   38.4510 O   0  0  0  0  0  0  0  0  0  0  0  0
   35.8540   31.0630   38.4930 H   0  0  0  0  0  0  0  0  0  0  0  0
   36.8420   33.5780   39.9070 O   0  0  0  0  0  0  0  0  0  0  0  0
   35.9520   33.6180   39.4590 H   0  0  0  0  0  0  0  0  0  0  0  0
  1  2  1  0  0  0  0
  2  7  1  0  0  0  0
  2  3  2  0  0  0  0
  3  8  1  0  0  0  0
  4  3  1  0  0  0  0
  5  4  2  0  0  0  0
  6  1  2  0  0  0  0
  6  5  1  0  0  0  0
  9  5  1  0  0  0  0
  9 12  1  1  0  0  0
 10 11  1  0  0  0  0
 10  9  1  0  0  0  0
 11 15  1  1  0  0  0
 11  9  1  0  0  0  0
 13 10  1  0  0  0  0
 14 10  1  0  0  0  0
 16 11  1  0  0  0  0
 16 18  1  0  0  0  0
 17 16  1  0  0  0  0
 19 21  1  0  0  0  0
 19  1  1  0  0  0  0
 20 19  2  0  0  0  0
 23 22  2  0  0  0  0
 23 21  1  0  0  0  0
 24 25  1  0  0  0  0
 24 23  1  0  0  0  0
 26 23  1  0  0  0  0
 27 26  1  0  0  0  0
M  END
>  <minimizedAffinity>
-4.95925665

$$$$

 OpenBabel03252508013D

 27 28  0  0  1  0  0  0  0  0999 V2000
   37.4310   28.8280   39.2080 C   0  0  0  0  0  0  0  0  0  0  0  0
   38.6420   28.3950   38.6330 C   0  0  0  0  0  0  0  0  0  0  0  0
   39.3870   27.4410   39.3350 C   0  0  0  0  0  0  0  0  0  0  0  0
   38.8910   27.0010   40.5210 N   0  0  0  0  0  0  0  0  0  0  0  0
   37.7080   27.4670   41.0220 C   0  0  0  0  0  0  0  0  0  0  0  0
   36.9640   28.3690   40.3970 N   0  0  0  0  0  0  0  0  0  0  0  0
   38.9860   28.7750   37.6940 H   0  0  0  0  0  0  0  0  0  0  0  0
   40.3110   27.0890   38.9260 H   0  0  0  0  0  0  0  0  0  0  0  0
   37.2210   26.9170   42.3280 C   0  0  1  0  0  0  0  0  0  0  0  0
   38.0830   27.0720   43.5580 C   0  0  0  0  0  0  0  0  0  0  0  0
   36.8770   27.9440   43.3320 C   0  0  1  0  0  0  0  0  0  0  0  0
   36.6510   25.9830   42.3000 H   0  0  0  0  0  0  0  0  0  0  0  0
   37.9970   26.2870   44.3330 H   0  0  0  0  0  0  0  0  0  0  0  0
   39.1070   27.4580   43.4040 H   0  0  0  0  0  0  0  0  0  0  0  0
   36.0800   27.8450   44.0660 H   0  0  0  0  0  0  0  0  0  0  0  0
   37.2690   29.3410   43.0960 N   0  0  0  0  0  0  0  0  0  0  0  0
   37.7050   29.6900   43.9870 H   0  0  0  0  0  0  0  0  0  0  0  0
   36.4190   29.9380   42.9370 H   0  0  0  0  0  0  0  0  0  0  0  0
   36.7040   29.8020   38.4300 C   0  0  0  0  0  0  0  0  0  0  0  0
   35.7720   29.5020   37.6030 O   0  0  0  0  0  0  0  0  0  0  0  0
   37.0160   31.1690   38.5660 O   0  0  0  0  0  0  0  0  0  0  0  0
   38.4770   31.7780   40.7250 O   0  0  0  0  0  0  0  0  0  0  0  0
   37.1160   31.9260   40.1090 P   0  0  0  0  0  0  0  0  0  0  0  0
   36.7350   33.5680   39.8580 O   0  0  0  0  0  0  0  0  0  0  0  0
   36.0240   33.6440   39.1730 H   0  0  0  0  0  0  0  0  0  0  0  0
   35.9120   31.3170   41.1410 O   0  0  0  0  0  0  0  0  0  0  0  0
   35.0490   31.7370   40.8720 H   0  0  0  0  0  0  0  0  0  0  0  0
  1  6  1  0  0  0  0
  2  1  2  0  0  0  0
  2  3  1  0  0  0  0
  3  4  2  0  0  0  0
  4  5  1  0  0  0  0
  5  9  1  0  0  0  0
  6  5  2  0  0  0  0
  7  2  1  0  0  0  0
  8  3  1  0  0  0  0
  9 12  1  6  0  0  0
  9 11  1  0  0  0  0
  9 10  1  0  0  0  0
 10 13  1  0  0  0  0
 11 10  1  0  0  0  0
 11 15  1  1  0  0  0
 14 10  1  0  0  0  0
 16 11  1  0  0  0  0
 16 17  1  0  0  0  0
 18 16  1  0  0  0  0
 19 21  1  0  0  0  0
 19  1  1  0  0  0  0
 20 19  2  0  0  0  0
 21 23  1  0  0  0  0
 23 22  2  0  0  0  0
 23 26  1  0  0  0  0
 24 23  1  0  0  0  0
 25 24  1  0  0  0  0
 27 26  1  0  0  0  0
M  END
>  <minimizedAffinity>
-4.95264673

$$$$

 OpenBabel03252508013D

 27 28  0  0  1  0  0  0  0  0999 V2000
   38.8910   27.4660   42.8380 C   0  0  0  0  0  0  0  0  0  0  0  0
   40.0770   26.9820   43.4250 C   0  0  0  0  0  0  0  0  0  0  0  0
   40.2410   25.5950   43.5010 C   0  0  0  0  0  0  0  0  0  0  0  0
   39.2480   24.8130   43.0050 N   0  0  0  0  0  0  0  0  0  0  0  0
   38.1210   25.3510   42.4480 C   0  0  0  0  0  0  0  0  0  0  0  0
   37.9150   26.6570   42.3510 N   0  0  0  0  0  0  0  0  0  0  0  0
   40.8280   27.6450   43.8000 H   0  0  0  0  0  0  0  0  0  0  0  0
   41.1310   25.1940   43.9410 H   0  0  0  0  0  0  0  0  0  0  0  0
   37.0800   24.4190   41.9070 C   0  0  1  0  0  0  0  0  0  0  0  0
   36.6710   24.5350   40.4570 C   0  0  0  0  0  0  0  0  0  0  0  0
   37.5880   23.4380   40.9270 C   0  0  1  0  0  0  0  0  0  0  0  0
   36.2630   24.1340   42.5770 H   0  0  0  0  0  0  0  0  0  0  0  0
   35.6330   24.2480   40.2040 H   0  0  0  0  0  0  0  0  0  0  0  0
   37.0590   25.4060   39.8980 H   0  0  0  0  0  0  0  0  0  0  0  0
   37.2070   22.4250   40.8160 H   0  0  0  0  0  0  0  0  0  0  0  0
   38.9410   23.6040   40.3770 N   0  0  0  0  0  0  0  0  0  0  0  0
   38.8640   23.4800   39.3360 H   0  0  0  0  0  0  0  0  0  0  0  0
   39.5710   22.8340   40.7150 H   0  0  0  0  0  0  0  0  0  0  0  0
   38.7870   28.9040   42.7770 C   0  0  0  0  0  0  0  0  0  0  0  0
   39.7970   29.6930   42.7770 O   0  0  0  0  0  0  0  0  0  0  0  0
   37.5140   29.5030   42.7140 O   0  0  0  0  0  0  0  0  0  0  0  0
   37.7250   30.1710   40.1310 O   0  0  0  0  0  0  0  0  0  0  0  0
   36.7400   29.8310   41.2110 P   0  0  0  0  0  0  0  0  0  0  0  0
   35.8590   28.4280   40.8140 O   0  0  0  0  0  0  0  0  0  0  0  0
   35.4760   28.0310   41.6370 H   0  0  0  0  0  0  0  0  0  0  0  0
   35.5930   31.0700   41.3990 O   0  0  0  0  0  0  0  0  0  0  0  0
   34.7950   30.6710   41.8460 H   0  0  0  0  0  0  0  0  0  0  0  0
  1  2  1  0  0  0  0
  2  3  2  0  0  0  0
  2  7  1  0  0  0  0
  3  8  1  0  0  0  0
  4  3  1  0  0  0  0
  5  4  2  0  0  0  0
  6  5  1  0  0  0  0
  6  1  2  0  0  0  0
  9  5  1  0  0  0  0
  9 12  1  1  0  0  0
 10 11  1  0  0  0  0
 10  9  1  0  0  0  0
 11 15  1  1  0  0  0
 11  9  1  0  0  0  0
 13 10  1  0  0  0  0
 14 10  1  0  0  0  0
 16 18  1  0  0  0  0
 16 11  1  0  0  0  0
 17 16  1  0  0  0  0
 19 20  2  0  0  0  0
 19  1  1  0  0  0  0
 21 19  1  0  0  0  0
 22 23  2  0  0  0  0
 23 26  1  0  0  0  0
 23 21  1  0  0  0  0
 24 23  1  0  0  0  0
 24 25  1  0  0  0  0
 26 27  1  0  0  0  0
M  END
>  <minimizedAffinity>
-4.90659475

$$$$

 OpenBabel03252508013D

 27 28  0  0  1  0  0  0  0  0999 V2000
   37.9430   29.4350   39.2600 C   0  0  0  0  0  0  0  0  0  0  0  0
   36.8530   30.3260   39.1940 C   0  0  0  0  0  0  0  0  0  0  0  0
   35.7890   30.1130   40.0760 C   0  0  0  0  0  0  0  0  0  0  0  0
   35.8790   29.0630   40.9330 N   0  0  0  0  0  0  0  0  0  0  0  0
   36.9680   28.2360   40.9430 C   0  0  0  0  0  0  0  0  0  0  0  0
   38.0030   28.3940   40.1300 N   0  0  0  0  0  0  0  0  0  0  0  0
   36.8340   31.1380   38.4970 H   0  0  0  0  0  0  0  0  0  0  0  0
   34.9450   30.7720   40.0520 H   0  0  0  0  0  0  0  0  0  0  0  0
   36.9990   27.1120   41.9320 C   0  0  1  0  0  0  0  0  0  0  0  0
   38.1960   26.9660   42.8430 C   0  0  0  0  0  0  0  0  0  0  0  0
   36.8960   27.5360   43.3440 C   0  0  1  0  0  0  0  0  0  0  0  0
   36.5560   26.1590   41.6260 H   0  0  0  0  0  0  0  0  0  0  0  0
   38.4540   25.9410   43.1710 H   0  0  0  0  0  0  0  0  0  0  0  0
   39.0640   27.6160   42.6330 H   0  0  0  0  0  0  0  0  0  0  0  0
   36.3990   26.9630   44.1240 H   0  0  0  0  0  0  0  0  0  0  0  0
   37.0350   28.9600   43.6790 N   0  0  0  0  0  0  0  0  0  0  0  0
   37.6990   29.0190   44.4920 H   0  0  0  0  0  0  0  0  0  0  0  0
   36.1210   29.3460   44.0230 H   0  0  0  0  0  0  0  0  0  0  0  0
   39.0130   29.7160   38.3340 C   0  0  0  0  0  0  0  0  0  0  0  0
   39.1080   29.1840   37.1720 O   0  0  0  0  0  0  0  0  0  0  0  0
   40.0270   30.6220   38.7030 O   0  0  0  0  0  0  0  0  0  0  0  0
   41.2990   32.9450   38.3160 O   0  0  0  0  0  0  0  0  0  0  0  0
   40.6240   31.8070   37.6060 P   0  0  0  0  0  0  0  0  0  0  0  0
   41.7160   30.9970   36.5790 O   0  0  0  0  0  0  0  0  0  0  0  0
   41.3780   30.0860   36.3860 H   0  0  0  0  0  0  0  0  0  0  0  0
   39.3700   32.3710   36.6100 O   0  0  0  0  0  0  0  0  0  0  0  0
   39.1970   31.6680   35.9230 H   0  0  0  0  0  0  0  0  0  0  0  0
  1  6  1  0  0  0  0
  2  1  2  0  0  0  0
  2  3  1  0  0  0  0
  3  4  2  0  0  0  0
  4  5  1  0  0  0  0
  5  9  1  0  0  0  0
  6  5  2  0  0  0  0
  7  2  1  0  0  0  0
  8  3  1  0  0  0  0
  9 12  1  6  0  0  0
  9 10  1  0  0  0  0
  9 11  1  0  0  0  0
 10 13  1  0  0  0  0
 10 11  1  0  0  0  0
 11 16  1  0  0  0  0
 11 15  1  1  0  0  0
 14 10  1  0  0  0  0
 16 18  1  0  0  0  0
 16 17  1  0  0  0  0
 19 21  1  0  0  0  0
 19  1  1  0  0  0  0
 20 19  2  0  0  0  0
 23 22  2  0  0  0  0
 23 21  1  0  0  0  0
 24 23  1  0  0  0  0
 25 24  1  0  0  0  0
 26 23  1  0  0  0  0
 27 26  1  0  0  0  0
M  END
>  <minimizedAffinity>
-4.86183548

$$$$

 OpenBabel03252508013D

 27 28  0  0  1  0  0  0  0  0999 V2000
   37.9680   31.0450   40.2960 C   0  0  0  0  0  0  0  0  0  0  0  0
   36.7190   30.8710   39.6680 C   0  0  0  0  0  0  0  0  0  0  0  0
   35.8000   30.0140   40.2810 C   0  0  0  0  0  0  0  0  0  0  0  0
   36.1760   29.4080   41.4370 N   0  0  0  0  0  0  0  0  0  0  0  0
   37.4070   29.6210   41.9920 C   0  0  0  0  0  0  0  0  0  0  0  0
   38.3130   30.4240   41.4530 N   0  0  0  0  0  0  0  0  0  0  0  0
   36.4750   31.3750   38.7560 H   0  0  0  0  0  0  0  0  0  0  0  0
   34.8410   29.8600   39.8300 H   0  0  0  0  0  0  0  0  0  0  0  0
   37.7380   28.9290   43.2790 C   0  0  1  0  0  0  0  0  0  0  0  0
   37.5000   27.4420   43.3980 C   0  0  0  0  0  0  0  0  0  0  0  0
   38.8830   28.0000   43.1960 C   0  0  1  0  0  0  0  0  0  0  0  0
   37.5630   29.4820   44.2070 H   0  0  0  0  0  0  0  0  0  0  0  0
   37.2580   27.0510   44.4040 H   0  0  0  0  0  0  0  0  0  0  0  0
   36.9510   26.9570   42.5700 H   0  0  0  0  0  0  0  0  0  0  0  0
   39.5880   27.8180   44.0050 H   0  0  0  0  0  0  0  0  0  0  0  0
   39.4170   27.6320   41.8770 N   0  0  0  0  0  0  0  0  0  0  0  0
   39.5330   26.5870   41.8760 H   0  0  0  0  0  0  0  0  0  0  0  0
   40.3810   28.0300   41.7480 H   0  0  0  0  0  0  0  0  0  0  0  0
   38.8650   31.9520   39.6220 C   0  0  0  0  0  0  0  0  0  0  0  0
   38.6750   33.2170   39.5440 O   0  0  0  0  0  0  0  0  0  0  0  0
   40.0250   31.4450   39.0050 O   0  0  0  0  0  0  0  0  0  0  0  0
   41.7640   31.3200   36.9740 O   0  0  0  0  0  0  0  0  0  0  0  0
   40.6860   32.1650   37.5870 P   0  0  0  0  0  0  0  0  0  0  0  0
   39.3830   32.3700   36.5080 O   0  0  0  0  0  0  0  0  0  0  0  0
   38.5690   32.6220   37.0120 H   0  0  0  0  0  0  0  0  0  0  0  0
   41.2590   33.7260   37.9330 O   0  0  0  0  0  0  0  0  0  0  0  0
   40.4660   34.3260   37.9990 H   0  0  0  0  0  0  0  0  0  0  0  0
  1  6  1  0  0  0  0
  2  3  1  0  0  0  0
  2  1  2  0  0  0  0
  3  4  2  0  0  0  0
  4  5  1  0  0  0  0
  5  9  1  0  0  0  0
  6  5  2  0  0  0  0
  7  2  1  0  0  0  0
  8  3  1  0  0  0  0
  9 10  1  0  0  0  0
  9 12  1  1  0  0  0
 10 13  1  0  0  0  0
 11  9  1  0  0  0  0
 11 10  1  0  0  0  0
 11 15  1  1  0  0  0
 14 10  1  0  0  0  0
 16 11  1  0  0  0  0
 17 16  1  0  0  0  0
 18 16  1  0  0  0  0
 19  1  1  0  0  0  0
 20 19  2  0  0  0  0
 21 19  1  0  0  0  0
 22 23  2  0  0  0  0
 23 26  1  0  0  0  0
 23 21  1  0  0  0  0
 24 25  1  0  0  0  0
 24 23  1  0  0  0  0
 26 27  1  0  0  0  0
M  END
>  <minimizedAffinity>
-4.82864809

$$$$

 OpenBabel03252508013D

 27 28  0  0  1  0  0  0  0  0999 V2000
   37.7110   26.9290   41.9160 C   0  0  0  0  0  0  0  0  0  0  0  0
   37.7330   27.2800   43.2800 C   0  0  0  0  0  0  0  0  0  0  0  0
   37.7760   28.6410   43.5970 C   0  0  0  0  0  0  0  0  0  0  0  0
   37.7950   29.5290   42.5690 N   0  0  0  0  0  0  0  0  0  0  0  0
   37.7730   29.1180   41.2660 C   0  0  0  0  0  0  0  0  0  0  0  0
   37.7310   27.8410   40.9110 N   0  0  0  0  0  0  0  0  0  0  0  0
   37.7170   26.5380   44.0510 H   0  0  0  0  0  0  0  0  0  0  0  0
   37.7930   28.9430   44.6250 H   0  0  0  0  0  0  0  0  0  0  0  0
   37.7770   30.1600   40.1900 C   0  0  1  0  0  0  0  0  0  0  0  0
   36.6470   30.1880   39.1870 C   0  0  0  0  0  0  0  0  0  0  0  0
   36.7130   31.1780   40.3200 C   0  0  1  0  0  0  0  0  0  0  0  0
   38.7470   30.4500   39.7730 H   0  0  0  0  0  0  0  0  0  0  0  0
   36.8830   30.5670   38.1750 H   0  0  0  0  0  0  0  0  0  0  0  0
   35.9400   29.3390   39.2090 H   0  0  0  0  0  0  0  0  0  0  0  0
   36.8200   32.2200   40.0300 H   0  0  0  0  0  0  0  0  0  0  0  0
   35.6230   30.9590   41.2810 N   0  0  0  0  0  0  0  0  0  0  0  0
   34.7250   31.1700   40.7760 H   0  0  0  0  0  0  0  0  0  0  0  0
   35.6830   31.6530   42.0670 H   0  0  0  0  0  0  0  0  0  0  0  0
   37.6530   25.5110   41.6550 C   0  0  0  0  0  0  0  0  0  0  0  0
   36.7420   24.7370   42.1170 O   0  0  0  0  0  0  0  0  0  0  0  0
   38.6430   24.9150   40.8490 O   0  0  0  0  0  0  0  0  0  0  0  0
   39.4250   23.1970   38.9520 O   0  0  0  0  0  0  0  0  0  0  0  0
   38.3320   23.4870   39.9390 P   0  0  0  0  0  0  0  0  0  0  0  0
   38.1850   22.2240   41.0740 O   0  0  0  0  0  0  0  0  0  0  0  0
   37.7240   22.5570   41.8850 H   0  0  0  0  0  0  0  0  0  0  0  0
   36.8260   23.6000   39.1630 O   0  0  0  0  0  0  0  0  0  0  0  0
   36.1230   23.4430   39.8530 H   0  0  0  0  0  0  0  0  0  0  0  0
  1  2  1  0  0  0  0
  2  3  2  0  0  0  0
  2  7  1  0  0  0  0
  3  8  1  0  0  0  0
  4  3  1  0  0  0  0
  5  4  2  0  0  0  0
  6  5  1  0  0  0  0
  6  1  2  0  0  0  0
  9 12  1  6  0  0  0
  9 11  1  0  0  0  0
  9  5  1  0  0  0  0
 10 14  1  0  0  0  0
 10  9  1  0  0  0  0
 10 11  1  0  0  0  0
 11 15  1  6  0  0  0
 11 16  1  0  0  0  0
 13 10  1  0  0  0  0
 16 18  1  0  0  0  0
 17 16  1  0  0  0  0
 19  1  1  0  0  0  0
 19 20  2  0  0  0  0
 21 19  1  0  0  0  0
 22 23  2  0  0  0  0
 23 21  1  0  0  0  0
 23 24  1  0  0  0  0
 24 25  1  0  0  0  0
 26 27  1  0  0  0  0
 26 23  1  0  0  0  0
M  END
>  <minimizedAffinity>
-4.70841646

$$$$

 OpenBabel03252508013D

 27 28  0  0  1  0  0  0  0  0999 V2000
   38.3180   28.5480   42.0980 C   0  0  0  0  0  0  0  0  0  0  0  0
   39.0850   29.3370   42.9770 C   0  0  0  0  0  0  0  0  0  0  0  0
   39.4910   30.5980   42.5280 C   0  0  0  0  0  0  0  0  0  0  0  0
   39.1180   30.9730   41.2770 N   0  0  0  0  0  0  0  0  0  0  0  0
   38.3730   30.1550   40.4750 C   0  0  0  0  0  0  0  0  0  0  0  0
   37.9620   28.9510   40.8510 N   0  0  0  0  0  0  0  0  0  0  0  0
   39.3510   28.9920   43.9540 H   0  0  0  0  0  0  0  0  0  0  0  0
   40.0740   31.2240   43.1720 H   0  0  0  0  0  0  0  0  0  0  0  0
   37.9870   30.6490   39.1140 C   0  0  1  0  0  0  0  0  0  0  0  0
   36.5280   30.6710   38.7260 C   0  0  0  0  0  0  0  0  0  0  0  0
   37.2540   31.9310   39.1150 C   0  0  1  0  0  0  0  0  0  0  0  0
   38.6640   30.4200   38.2850 H   0  0  0  0  0  0  0  0  0  0  0  0
   36.2920   30.5400   37.6520 H   0  0  0  0  0  0  0  0  0  0  0  0
   35.8200   30.1800   39.4180 H   0  0  0  0  0  0  0  0  0  0  0  0
   37.3360   32.6880   38.3380 H   0  0  0  0  0  0  0  0  0  0  0  0
   36.7430   32.4670   40.3850 N   0  0  0  0  0  0  0  0  0  0  0  0
   35.7480   32.7580   40.2150 H   0  0  0  0  0  0  0  0  0  0  0  0
   37.2610   33.3440   40.6470 H   0  0  0  0  0  0  0  0  0  0  0  0
   37.9200   27.2640   42.6240 C   0  0  0  0  0  0  0  0  0  0  0  0
   36.7040   26.9350   42.8570 O   0  0  0  0  0  0  0  0  0  0  0  0
   38.9050   26.2980   42.9090 O   0  0  0  0  0  0  0  0  0  0  0  0
   39.5630   24.7320   40.8410 O   0  0  0  0  0  0  0  0  0  0  0  0
   38.8820   24.7390   42.1790 P   0  0  0  0  0  0  0  0  0  0  0  0
   39.6690   23.6930   43.2690 O   0  0  0  0  0  0  0  0  0  0  0  0
   39.4410   23.9480   44.1980 H   0  0  0  0  0  0  0  0  0  0  0  0
   37.2860   24.1730   42.0520 O   0  0  0  0  0  0  0  0  0  0  0  0
   37.0050   23.8700   42.9600 H   0  0  0  0  0  0  0  0  0  0  0  0
  1 19  1  0  0  0  0
  1  2  1  0  0  0  0
  2  7  1  0  0  0  0
  3  2  2  0  0  0  0
  3  8  1  0  0  0  0
  4  3  1  0  0  0  0
  5  6  1  0  0  0  0
  5  4  2  0  0  0  0
  6  1  2  0  0  0  0
  9 12  1  6  0  0  0
  9 11  1  0  0  0  0
  9  5  1  0  0  0  0
 10  9  1  0  0  0  0
 10 11  1  0  0  0  0
 10 14  1  0  0  0  0
 11 15  1  6  0  0  0
 11 16  1  0  0  0  0
 13 10  1  0  0  0  0
 16 18  1  0  0  0  0
 17 16  1  0  0  0  0
 19 20  2  0  0  0  0
 19 21  1  0  0  0  0
 22 23  2  0  0  0  0
 23 21  1  0  0  0  0
 23 24  1  0  0  0  0
 24 25  1  0  0  0  0
 26 23  1  0  0  0  0
 26 27  1  0  0  0  0
M  END
>  <minimizedAffinity>
-4.67847967

$$$$
