
 OpenBabel03242523553D

 43 45  0  0  1  0  0  0  0  0999 V2000
   42.8240   34.5030   38.7630 C   0  0  1  0  0  0  0  0  0  0  0  0
   42.9610   35.1850   40.1160 C   0  0  1  0  0  0  0  0  0  0  0  0
   41.6670   35.4030   40.6340 O   0  0  0  0  0  0  0  0  0  0  0  0
   40.7390   35.7250   39.6420 C   0  0  0  0  0  0  0  0  0  0  0  0
   40.4440   34.5550   38.7320 C   0  0  2  0  0  0  0  0  0  0  0  0
   41.6630   33.5710   38.8700 C   0  0  1  0  0  0  0  0  0  0  0  0
   43.7760   33.9660   38.5020 H   0  0  0  0  0  0  0  0  0  0  0  0
   43.5400   36.1110   40.0770 H   0  0  0  0  0  0  0  0  0  0  0  0
   41.0260   36.6370   39.0840 H   0  0  0  0  0  0  0  0  0  0  0  0
   39.8070   35.9520   40.1880 H   0  0  0  0  0  0  0  0  0  0  0  0
   39.5300   33.9930   39.0030 H   0  0  0  0  0  0  0  0  0  0  0  0
   41.4510   33.3070   39.9560 H   0  0  0  0  0  0  0  0  0  0  0  0
   42.6030   35.4490   37.7530 O   0  0  0  0  0  0  0  0  0  0  0  0
   42.7810   35.0310   36.8910 H   0  0  0  0  0  0  0  0  0  0  0  0
   40.4550   34.9650   37.4110 O   0  0  0  0  0  0  0  0  0  0  0  0
   39.7480   34.4820   36.8910 H   0  0  0  0  0  0  0  0  0  0  0  0
   43.4930   34.2080   40.9710 O   0  0  0  0  0  0  0  0  0  0  0  0
   44.5990   34.3520   41.7080 C   0  0  0  0  0  0  0  0  0  0  0  0
   45.8550   34.4530   41.1160 C   0  0  0  0  0  0  0  0  0  0  0  0
   46.9770   34.6020   41.9080 C   0  0  0  0  0  0  0  0  0  0  0  0
   46.8220   34.6470   43.2770 N   0  0  0  0  0  0  0  0  0  0  0  0
   45.5840   34.5460   43.8310 C   0  0  0  0  0  0  0  0  0  0  0  0
   44.4840   34.4000   43.0470 N   0  0  0  0  0  0  0  0  0  0  0  0
   45.9900   34.4190   40.0490 H   0  0  0  0  0  0  0  0  0  0  0  0
   45.4670   34.5820   44.9150 H   0  0  0  0  0  0  0  0  0  0  0  0
   48.3540   34.6970   41.3250 C   0  0  0  0  0  0  0  0  0  0  0  0
   49.0800   36.0270   41.5030 C   0  0  0  0  0  0  0  0  0  0  0  0
   49.5050   34.7030   42.1760 C   0  0  0  0  0  0  0  0  0  0  0  0
   48.3830   34.3880   40.2470 H   0  0  0  0  0  0  0  0  0  0  0  0
   48.5760   36.7690   42.1680 H   0  0  0  0  0  0  0  0  0  0  0  0
   49.7780   36.3850   40.7460 H   0  0  0  0  0  0  0  0  0  0  0  0
   50.4690   34.2760   41.8670 H   0  0  0  0  0  0  0  0  0  0  0  0
   49.3420   34.6340   43.2740 H   0  0  0  0  0  0  0  0  0  0  0  0
   41.5330   32.6310   37.9210 O   0  0  0  0  0  0  0  0  0  0  0  0
   40.8860   31.4420   37.9870 C   0  0  0  0  0  0  0  0  0  0  0  0
   39.6900   31.2910   37.4800 O   0  0  0  0  0  0  0  0  0  0  0  0
   40.9580   30.1170   38.4250 O   0  0  0  0  0  0  0  0  0  0  0  0
   42.2610   27.8670   38.7020 O   0  0  0  0  0  0  0  0  0  0  0  0
   42.4550   29.3750   38.8080 P   0  0  0  0  0  0  0  0  0  0  0  0
   43.0810   29.8570   40.2730 O   0  0  0  0  0  0  0  0  0  0  0  0
   43.5610   29.1220   40.7570 H   0  0  0  0  0  0  0  0  0  0  0  0
   43.5740   29.7510   37.5660 O   0  0  0  0  0  0  0  0  0  0  0  0
   43.2950   29.3440   36.7080 H   0  0  0  0  0  0  0  0  0  0  0  0
  1  7  1  6  0  0  0
  1  6  1  0  0  0  0
  1  2  1  0  0  0  0
  2  8  1  6  0  0  0
  2  3  1  0  0  0  0
  2 17  1  0  0  0  0
  4 10  1  0  0  0  0
  4  3  1  0  0  0  0
  5  6  1  0  0  0  0
  5 11  1  1  0  0  0
  5  4  1  0  0  0  0
  6 12  1  1  0  0  0
  9  4  1  0  0  0  0
 13  1  1  0  0  0  0
 14 13  1  0  0  0  0
 15  5  1  0  0  0  0
 16 15  1  0  0  0  0
 17 18  1  0  0  0  0
 18 23  1  0  0  0  0
 19 18  2  0  0  0  0
 19 20  1  0  0  0  0
 20 21  2  0  0  0  0
 21 22  1  0  0  0  0
 22 25  1  0  0  0  0
 23 22  2  0  0  0  0
 24 19  1  0  0  0  0
 26 27  1  0  0  0  0
 26 20  1  0  0  0  0
 26 28  1  0  0  0  0
 27 30  1  0  0  0  0
 27 28  1  0  0  0  0
 28 33  1  0  0  0  0
 29 26  1  0  0  0  0
 31 27  1  0  0  0  0
 32 28  1  0  0  0  0
 34 35  1  0  0  0  0
 34  6  1  0  0  0  0
 35 37  1  0  0  0  0
 36 35  2  0  0  0  0
 37 39  1  0  0  0  0
 38 39  2  0  0  0  0
 39 40  1  0  0  0  0
 40 41  1  0  0  0  0
 42 39  1  0  0  0  0
 43 42  1  0  0  0  0
M  END
>  <minimizedAffinity>
-5.35516024

>  <minimizedRMSD>
0.0706515461

$$$$
