
 OpenBabel03242518383D

 37 39  0  0  1  0  0  0  0  0999 V2000
   47.2660   33.7110   39.8630 C   0  0  0  0  0  0  0  0  0  0  0  0
   48.2730   34.3410   39.1150 C   0  0  0  0  0  0  0  0  0  0  0  0
   47.9900   34.1860   37.7730 C   0  0  0  0  0  0  0  0  0  0  0  0
   46.8330   33.4740   37.7640 C   0  0  0  0  0  0  0  0  0  0  0  0
   46.4180   33.2020   38.9900 O   0  0  0  0  0  0  0  0  0  0  0  0
   49.0960   34.8400   39.6080 H   0  0  0  0  0  0  0  0  0  0  0  0
   48.5970   34.5710   36.9720 H   0  0  0  0  0  0  0  0  0  0  0  0
   46.1250   33.0590   36.5320 C   0  0  2  0  0  0  0  0  0  0  0  0
   45.7610   31.6610   36.3170 C   0  0  0  0  0  0  0  0  0  0  0  0
   46.9790   32.1400   35.6150 C   0  0  1  0  0  0  0  0  0  0  0  0
   45.5630   33.8540   36.0180 H   0  0  0  0  0  0  0  0  0  0  0  0
   44.8610   31.3730   35.7220 H   0  0  0  0  0  0  0  0  0  0  0  0
   45.9360   30.9500   37.1730 H   0  0  0  0  0  0  0  0  0  0  0  0
   47.9900   31.9160   35.9530 H   0  0  0  0  0  0  0  0  0  0  0  0
   47.9550   32.5370   33.3620 C   0  0  0  0  0  0  0  0  0  0  0  0
   49.1370   32.3910   33.7860 O   0  0  0  0  0  0  0  0  0  0  0  0
   46.8120   32.4520   34.1970 N   0  0  0  0  0  0  0  0  0  0  0  0
   47.9120   32.7350   32.2920 H   0  0  0  0  0  0  0  0  0  0  0  0
   45.8660   32.6110   33.7970 H   0  0  0  0  0  0  0  0  0  0  0  0
   47.0770   33.5760   41.2640 O   0  0  0  0  0  0  0  0  0  0  0  0
   47.2500   34.7100   42.0830 C   0  0  0  0  0  0  0  0  0  0  0  0
   48.2060   35.4800   41.7680 O   0  0  0  0  0  0  0  0  0  0  0  0
   46.3460   34.8700   43.1620 C   0  0  0  0  0  0  0  0  0  0  0  0
   45.4640   35.8970   43.0680 C   0  0  0  0  0  0  0  0  0  0  0  0
   44.5520   36.1030   44.0990 C   0  0  0  0  0  0  0  0  0  0  0  0
   44.5860   35.2660   45.1490 N   0  0  0  0  0  0  0  0  0  0  0  0
   45.4610   34.2630   45.2240 C   0  0  0  0  0  0  0  0  0  0  0  0
   46.3200   34.0950   44.2200 N   0  0  0  0  0  0  0  0  0  0  0  0
   45.4290   36.5740   42.2270 H   0  0  0  0  0  0  0  0  0  0  0  0
   43.8350   36.9330   44.0280 H   0  0  0  0  0  0  0  0  0  0  0  0
   45.3650   33.5020   46.3650 O   0  0  0  0  0  0  0  0  0  0  0  0
   47.4760   32.6280   47.6150 O   0  0  0  0  0  0  0  0  0  0  0  0
   46.4400   32.2060   46.5880 P   0  0  0  0  0  0  0  0  0  0  0  0
   45.6240   30.8700   47.2380 O   0  0  0  0  0  0  0  0  0  0  0  0
   44.7650   30.7570   46.7680 H   0  0  0  0  0  0  0  0  0  0  0  0
   47.2680   31.7740   45.1920 O   0  0  0  0  0  0  0  0  0  0  0  0
   46.6380   31.8040   44.4350 H   0  0  0  0  0  0  0  0  0  0  0  0
  1 20  1  0  0  0  0
  2  6  1  0  0  0  0
  2  1  2  0  0  0  0
  3  2  1  0  0  0  0
  4  3  2  0  0  0  0
  4  5  1  0  0  0  0
  5  1  1  0  0  0  0
  7  3  1  0  0  0  0
  8 11  1  6  0  0  0
  8  4  1  0  0  0  0
  9  8  1  0  0  0  0
  9 13  1  0  0  0  0
 10 14  1  1  0  0  0
 10  9  1  0  0  0  0
 10  8  1  0  0  0  0
 12  9  1  0  0  0  0
 15 16  2  0  0  0  0
 15 17  1  0  0  0  0
 17 10  1  0  0  0  0
 18 15  1  0  0  0  0
 19 17  1  0  0  0  0
 20 21  1  0  0  0  0
 21 23  1  0  0  0  0
 22 21  2  0  0  0  0
 23 28  1  0  0  0  0
 24 23  2  0  0  0  0
 24 25  1  0  0  0  0
 25 26  2  0  0  0  0
 26 27  1  0  0  0  0
 27 31  1  0  0  0  0
 28 27  2  0  0  0  0
 29 24  1  0  0  0  0
 30 25  1  0  0  0  0
 31 33  1  0  0  0  0
 33 34  1  0  0  0  0
 33 32  2  0  0  0  0
 35 34  1  0  0  0  0
 36 33  1  0  0  0  0
 37 36  1  0  0  0  0
M  END
>  <minimizedAffinity>
-5.61416674

>  <minimizedRMSD>
0.395924449

$$$$
