
 OpenBabel03242522513D

 24 24  0  0  0  0  0  0  0  0999 V2000
   45.4100   30.7760   47.5700 O   0  0  0  0  0  0  0  0  0  0  0  0
   45.8080   32.0320   48.3710 P   0  0  2  0  0  0  0  0  0  0  0  0
   45.1910   31.8080   49.9230 O   0  0  0  0  0  0  0  0  0  0  0  0
   45.7670   32.2450   50.5980 H   0  0  0  0  0  0  0  0  0  0  0  0
   45.0650   33.3710   47.6470 O   0  0  0  0  0  0  0  0  0  0  0  0
   46.7860   33.4210   44.4450 C   0  0  0  0  0  0  0  0  0  0  0  0
   46.4060   33.0660   45.7530 C   0  0  0  0  0  0  0  0  0  0  0  0
   45.3930   33.7620   46.3660 C   0  0  0  0  0  0  0  0  0  0  0  0
   44.7950   34.7690   45.6800 N   0  0  0  0  0  0  0  0  0  0  0  0
   45.1580   35.1040   44.4360 C   0  0  0  0  0  0  0  0  0  0  0  0
   46.1500   34.4390   43.8100 N   0  0  0  0  0  0  0  0  0  0  0  0
   47.5670   32.9350   43.8850 H   0  0  0  0  0  0  0  0  0  0  0  0
   46.9970   32.2470   46.1130 H   0  0  0  0  0  0  0  0  0  0  0  0
   44.5780   35.9320   44.0320 H   0  0  0  0  0  0  0  0  0  0  0  0
   47.4490   32.2240   48.3860 O   0  0  0  0  0  0  0  0  0  0  0  0
   48.4310   31.4300   48.8800 C   0  0  0  0  0  0  0  0  0  0  0  0
   49.4630   32.0690   49.2860 O   0  0  0  0  0  0  0  0  0  0  0  0
   49.0160   30.2250   49.2310 O   0  0  0  0  0  0  0  0  0  0  0  0
   48.1190   28.7930   47.2130 O   0  0  0  0  0  0  0  0  0  0  0  0
   49.2810   28.9400   48.1720 P   0  0  0  0  0  0  0  0  0  0  0  0
   50.7360   29.1130   47.3610 O   0  0  0  0  0  0  0  0  0  0  0  0
   50.9300   30.0500   47.1160 H   0  0  0  0  0  0  0  0  0  0  0  0
   49.3160   27.5300   49.1450 O   0  0  0  0  0  0  0  0  0  0  0  0
   48.4440   27.1040   49.1270 H   0  0  0  0  0  0  0  0  0  0  0  0
  2  1  2  6  0  0  0
  2 15  1  0  0  0  0
  2  3  1  0  0  0  0
  3  4  1  0  0  0  0
  5  2  1  0  0  0  0
  6  7  1  0  0  0  0
  7 13  1  0  0  0  0
  7  8  2  0  0  0  0
  8  5  1  0  0  0  0
  9  8  1  0  0  0  0
 10  9  2  0  0  0  0
 11 10  1  0  0  0  0
 11  6  2  0  0  0  0
 12  6  1  0  0  0  0
 14 10  1  0  0  0  0
 15 16  1  0  0  0  0
 16 18  1  0  0  0  0
 16 17  2  0  0  0  0
 19 20  2  0  0  0  0
 20 23  1  0  0  0  0
 20 18  1  0  0  0  0
 21 20  1  0  0  0  0
 22 21  1  0  0  0  0
 24 23  1  0  0  0  0
M  END
>  <minimizedAffinity>
-4.49510813

>  <minimizedRMSD>
0.568336844

$$$$
