
 OpenBabel03252508013D

 27 28  0  0  1  0  0  0  0  0999 V2000
   46.2800   34.7950   43.2100 C   0  0  0  0  0  0  0  0  0  0  0  0
   45.3320   35.7990   43.4890 C   0  0  0  0  0  0  0  0  0  0  0  0
   44.6090   35.6930   44.6820 C   0  0  0  0  0  0  0  0  0  0  0  0
   44.8710   34.6310   45.4870 N   0  0  0  0  0  0  0  0  0  0  0  0
   45.8050   33.6900   45.1530 C   0  0  0  0  0  0  0  0  0  0  0  0
   46.5180   33.7430   44.0360 N   0  0  0  0  0  0  0  0  0  0  0  0
   45.1660   36.6160   42.8190 H   0  0  0  0  0  0  0  0  0  0  0  0
   43.8820   36.4400   44.9250 H   0  0  0  0  0  0  0  0  0  0  0  0
   46.0480   32.5580   46.1040 C   0  0  1  0  0  0  0  0  0  0  0  0
   46.8320   32.8140   47.3690 C   0  0  0  0  0  0  0  0  0  0  0  0
   45.3330   32.6770   47.3910 C   0  0  1  0  0  0  0  0  0  0  0  0
   46.2130   31.5660   45.6730 H   0  0  0  0  0  0  0  0  0  0  0  0
   47.4200   31.9690   47.7750 H   0  0  0  0  0  0  0  0  0  0  0  0
   47.3180   33.8020   47.4630 H   0  0  0  0  0  0  0  0  0  0  0  0
   44.9450   31.8340   47.9600 H   0  0  0  0  0  0  0  0  0  0  0  0
   44.6880   33.9500   47.7410 N   0  0  0  0  0  0  0  0  0  0  0  0
   44.9640   34.1700   48.7310 H   0  0  0  0  0  0  0  0  0  0  0  0
   43.6430   33.8410   47.7490 H   0  0  0  0  0  0  0  0  0  0  0  0
   47.0010   34.9680   41.9720 C   0  0  0  0  0  0  0  0  0  0  0  0
   48.1310   35.5650   41.8830 O   0  0  0  0  0  0  0  0  0  0  0  0
   46.4540   34.4620   40.7770 O   0  0  0  0  0  0  0  0  0  0  0  0
   46.5910   32.2810   39.2300 O   0  0  0  0  0  0  0  0  0  0  0  0
   47.3720   33.4690   39.7100 P   0  0  0  0  0  0  0  0  0  0  0  0
   47.8230   34.4690   38.4050 O   0  0  0  0  0  0  0  0  0  0  0  0
   48.0280   35.3780   38.7380 H   0  0  0  0  0  0  0  0  0  0  0  0
   48.8180   32.9860   40.4570 O   0  0  0  0  0  0  0  0  0  0  0  0
   49.4390   33.7670   40.4360 H   0  0  0  0  0  0  0  0  0  0  0  0
  1  2  2  0  0  0  0
  1  6  1  0  0  0  0
  2  3  1  0  0  0  0
  3  8  1  0  0  0  0
  3  4  2  0  0  0  0
  5  4  1  0  0  0  0
  5  9  1  0  0  0  0
  6  5  2  0  0  0  0
  7  2  1  0  0  0  0
  9 12  1  6  0  0  0
  9 10  1  0  0  0  0
  9 11  1  0  0  0  0
 10 11  1  0  0  0  0
 10 14  1  0  0  0  0
 10 13  1  0  0  0  0
 11 16  1  0  0  0  0
 11 15  1  1  0  0  0
 16 18  1  0  0  0  0
 16 17  1  0  0  0  0
 19  1  1  0  0  0  0
 20 19  2  0  0  0  0
 21 19  1  0  0  0  0
 22 23  2  0  0  0  0
 23 26  1  0  0  0  0
 23 21  1  0  0  0  0
 24 25  1  0  0  0  0
 24 23  1  0  0  0  0
 27 26  1  0  0  0  0
M  END
>  <minimizedAffinity>
-5.23940468

>  <minimizedRMSD>
0.314404815

$$$$
