
 OpenBabel03252508003D

 27 28  0  0  1  0  0  0  0  0999 V2000
   46.3730   34.8200   43.1360 C   0  0  0  0  0  0  0  0  0  0  0  0
   45.4040   35.8140   43.3770 C   0  0  0  0  0  0  0  0  0  0  0  0
   44.6410   35.7040   44.5430 C   0  0  0  0  0  0  0  0  0  0  0  0
   44.8850   34.6470   45.3600 N   0  0  0  0  0  0  0  0  0  0  0  0
   45.8410   33.7170   45.0640 C   0  0  0  0  0  0  0  0  0  0  0  0
   46.5930   33.7740   43.9740 N   0  0  0  0  0  0  0  0  0  0  0  0
   45.2540   36.6270   42.6970 H   0  0  0  0  0  0  0  0  0  0  0  0
   43.8960   36.4430   44.7570 H   0  0  0  0  0  0  0  0  0  0  0  0
   46.0620   32.5900   46.0270 C   0  0  1  0  0  0  0  0  0  0  0  0
   46.8180   32.8550   47.3080 C   0  0  0  0  0  0  0  0  0  0  0  0
   45.3190   32.7170   47.2970 C   0  0  1  0  0  0  0  0  0  0  0  0
   46.2370   31.5950   45.6060 H   0  0  0  0  0  0  0  0  0  0  0  0
   47.3960   32.0120   47.7330 H   0  0  0  0  0  0  0  0  0  0  0  0
   47.3020   33.8430   47.4060 H   0  0  0  0  0  0  0  0  0  0  0  0
   44.9180   31.8790   47.8620 H   0  0  0  0  0  0  0  0  0  0  0  0
   44.6660   33.9930   47.6240 N   0  0  0  0  0  0  0  0  0  0  0  0
   44.9200   34.2190   48.6190 H   0  0  0  0  0  0  0  0  0  0  0  0
   43.6210   33.8840   47.6100 H   0  0  0  0  0  0  0  0  0  0  0  0
   47.1370   34.9970   41.9240 C   0  0  0  0  0  0  0  0  0  0  0  0
   48.2460   35.6350   41.8670 O   0  0  0  0  0  0  0  0  0  0  0  0
   46.6580   34.4470   40.7190 O   0  0  0  0  0  0  0  0  0  0  0  0
   47.1110   32.1670   39.3910 O   0  0  0  0  0  0  0  0  0  0  0  0
   47.6750   33.5300   39.6750 P   0  0  0  0  0  0  0  0  0  0  0  0
   47.8250   34.4380   38.2410 O   0  0  0  0  0  0  0  0  0  0  0  0
   47.8680   35.4030   38.4610 H   0  0  0  0  0  0  0  0  0  0  0  0
   49.2380   33.4170   40.3280 O   0  0  0  0  0  0  0  0  0  0  0  0
   49.6890   34.2930   40.1720 H   0  0  0  0  0  0  0  0  0  0  0  0
  1  2  2  0  0  0  0
  1  6  1  0  0  0  0
  2  3  1  0  0  0  0
  3  8  1  0  0  0  0
  3  4  2  0  0  0  0
  5  4  1  0  0  0  0
  5  9  1  0  0  0  0
  6  5  2  0  0  0  0
  7  2  1  0  0  0  0
  9 12  1  6  0  0  0
  9 11  1  0  0  0  0
  9 10  1  0  0  0  0
 10 14  1  0  0  0  0
 10 13  1  0  0  0  0
 11 10  1  0  0  0  0
 11 16  1  0  0  0  0
 11 15  1  1  0  0  0
 16 17  1  0  0  0  0
 18 16  1  0  0  0  0
 19  1  1  0  0  0  0
 20 19  2  0  0  0  0
 21 19  1  0  0  0  0
 22 23  2  0  0  0  0
 23 26  1  0  0  0  0
 23 21  1  0  0  0  0
 24 25  1  0  0  0  0
 24 23  1  0  0  0  0
 27 26  1  0  0  0  0
M  END
>  <minimizedAffinity>
-5.42028856

>  <minimizedRMSD>
0.559327066

$$$$
