
 OpenBabel03242522513D

 24 24  0  0  0  0  0  0  0  0999 V2000
   45.2900   30.7560   47.5450 O   0  0  0  0  0  0  0  0  0  0  0  0
   45.7940   31.9650   48.3580 P   0  0  2  0  0  0  0  0  0  0  0  0
   45.2080   31.7480   49.9230 O   0  0  0  0  0  0  0  0  0  0  0  0
   45.8320   32.1310   50.5890 H   0  0  0  0  0  0  0  0  0  0  0  0
   45.1240   33.3660   47.6830 O   0  0  0  0  0  0  0  0  0  0  0  0
   46.7890   33.4140   44.4520 C   0  0  0  0  0  0  0  0  0  0  0  0
   46.4380   33.0650   45.7700 C   0  0  0  0  0  0  0  0  0  0  0  0
   45.4220   33.7500   46.3930 C   0  0  0  0  0  0  0  0  0  0  0  0
   44.7960   34.7400   45.7080 N   0  0  0  0  0  0  0  0  0  0  0  0
   45.1320   35.0680   44.4540 C   0  0  0  0  0  0  0  0  0  0  0  0
   46.1240   34.4140   43.8190 N   0  0  0  0  0  0  0  0  0  0  0  0
   47.5690   32.9360   43.8830 H   0  0  0  0  0  0  0  0  0  0  0  0
   47.0490   32.2600   46.1270 H   0  0  0  0  0  0  0  0  0  0  0  0
   44.5300   35.8820   44.0530 H   0  0  0  0  0  0  0  0  0  0  0  0
   47.4440   32.0460   48.3270 O   0  0  0  0  0  0  0  0  0  0  0  0
   48.3790   31.4050   49.0720 C   0  0  0  0  0  0  0  0  0  0  0  0
   49.4780   32.0480   49.1970 O   0  0  0  0  0  0  0  0  0  0  0  0
   48.8770   30.3670   49.8420 O   0  0  0  0  0  0  0  0  0  0  0  0
   51.4980   30.3260   49.6080 O   0  0  0  0  0  0  0  0  0  0  0  0
   50.3730   30.3780   50.6190 P   0  0  0  0  0  0  0  0  0  0  0  0
   50.5170   31.6990   51.6390 O   0  0  0  0  0  0  0  0  0  0  0  0
   50.1070   32.5180   51.2670 H   0  0  0  0  0  0  0  0  0  0  0  0
   50.4410   28.9260   51.5280 O   0  0  0  0  0  0  0  0  0  0  0  0
   50.9310   28.2550   51.0260 H   0  0  0  0  0  0  0  0  0  0  0  0
  2  1  2  6  0  0  0
  2  3  1  0  0  0  0
  3  4  1  0  0  0  0
  5  2  1  0  0  0  0
  6  7  1  0  0  0  0
  7 13  1  0  0  0  0
  7  8  2  0  0  0  0
  8  5  1  0  0  0  0
  9  8  1  0  0  0  0
 10  9  2  0  0  0  0
 11  6  2  0  0  0  0
 11 10  1  0  0  0  0
 12  6  1  0  0  0  0
 14 10  1  0  0  0  0
 15  2  1  0  0  0  0
 15 16  1  0  0  0  0
 16 17  2  0  0  0  0
 16 18  1  0  0  0  0
 18 20  1  0  0  0  0
 19 20  2  0  0  0  0
 20 23  1  0  0  0  0
 20 21  1  0  0  0  0
 22 21  1  0  0  0  0
 24 23  1  0  0  0  0
M  END
>  <minimizedAffinity>
-4.89071417

>  <minimizedRMSD>
1.01722169

$$$$
