
 OpenBabel03252508003D

 27 28  0  0  1  0  0  0  0  0999 V2000
   46.2560   34.7940   43.2350 C   0  0  0  0  0  0  0  0  0  0  0  0
   45.3130   35.7990   43.5260 C   0  0  0  0  0  0  0  0  0  0  0  0
   44.6030   35.6920   44.7260 C   0  0  0  0  0  0  0  0  0  0  0  0
   44.8710   34.6280   45.5260 N   0  0  0  0  0  0  0  0  0  0  0  0
   45.8010   33.6870   45.1810 C   0  0  0  0  0  0  0  0  0  0  0  0
   46.5010   33.7410   44.0560 N   0  0  0  0  0  0  0  0  0  0  0  0
   45.1410   36.6170   42.8580 H   0  0  0  0  0  0  0  0  0  0  0  0
   43.8790   36.4400   44.9780 H   0  0  0  0  0  0  0  0  0  0  0  0
   46.0520   32.5530   46.1270 C   0  0  1  0  0  0  0  0  0  0  0  0
   46.8400   32.8090   47.3900 C   0  0  0  0  0  0  0  0  0  0  0  0
   45.3410   32.6650   47.4170 C   0  0  1  0  0  0  0  0  0  0  0  0
   46.2200   31.5620   45.6920 H   0  0  0  0  0  0  0  0  0  0  0  0
   47.4330   31.9650   47.7910 H   0  0  0  0  0  0  0  0  0  0  0  0
   47.3220   33.7980   47.4850 H   0  0  0  0  0  0  0  0  0  0  0  0
   44.9590   31.8190   47.9840 H   0  0  0  0  0  0  0  0  0  0  0  0
   44.6920   33.9340   47.7730 N   0  0  0  0  0  0  0  0  0  0  0  0
   44.9710   34.1520   48.7630 H   0  0  0  0  0  0  0  0  0  0  0  0
   43.6480   33.8200   47.7850 H   0  0  0  0  0  0  0  0  0  0  0  0
   46.9650   34.9680   41.9900 C   0  0  0  0  0  0  0  0  0  0  0  0
   48.1070   35.5420   41.8930 O   0  0  0  0  0  0  0  0  0  0  0  0
   46.3910   34.4910   40.7950 O   0  0  0  0  0  0  0  0  0  0  0  0
   45.1030   32.2510   40.0950 O   0  0  0  0  0  0  0  0  0  0  0  0
   46.4640   32.8260   40.3580 P   0  0  0  0  0  0  0  0  0  0  0  0
   47.4390   32.7460   38.9630 O   0  0  0  0  0  0  0  0  0  0  0  0
   48.1770   33.4030   39.0330 H   0  0  0  0  0  0  0  0  0  0  0  0
   47.2790   31.9400   41.5540 O   0  0  0  0  0  0  0  0  0  0  0  0
   48.2540   32.1210   41.4460 H   0  0  0  0  0  0  0  0  0  0  0  0
  1  2  2  0  0  0  0
  1  6  1  0  0  0  0
  2  3  1  0  0  0  0
  3  8  1  0  0  0  0
  3  4  2  0  0  0  0
  5  4  1  0  0  0  0
  5  9  1  0  0  0  0
  6  5  2  0  0  0  0
  7  2  1  0  0  0  0
  9 12  1  6  0  0  0
  9 10  1  0  0  0  0
  9 11  1  0  0  0  0
 10 11  1  0  0  0  0
 10 14  1  0  0  0  0
 10 13  1  0  0  0  0
 11 16  1  0  0  0  0
 11 15  1  1  0  0  0
 16 18  1  0  0  0  0
 16 17  1  0  0  0  0
 19  1  1  0  0  0  0
 20 19  2  0  0  0  0
 21 19  1  0  0  0  0
 22 23  2  0  0  0  0
 23 21  1  0  0  0  0
 23 26  1  0  0  0  0
 24 25  1  0  0  0  0
 24 23  1  0  0  0  0
 27 26  1  0  0  0  0
M  END
>  <minimizedAffinity>
-4.81140757

>  <minimizedRMSD>
0.502606034

$$$$
