
 OpenBabel03252502283D

 33 34  0  0  0  0  0  0  0  0999 V2000
   45.2250   34.2800   40.8930 C   0  0  0  0  0  0  0  0  0  0  0  0
   45.6390   34.7740   42.1300 C   0  0  0  0  0  0  0  0  0  0  0  0
   47.0020   34.9930   42.3320 C   0  0  0  0  0  0  0  0  0  0  0  0
   47.8900   34.7220   41.3350 C   0  0  0  0  0  0  0  0  0  0  0  0
   47.5030   34.2340   40.1040 C   0  0  0  0  0  0  0  0  0  0  0  0
   46.1350   34.0220   39.9200 C   0  0  0  0  0  0  0  0  0  0  0  0
   44.9270   34.9860   42.9190 H   0  0  0  0  0  0  0  0  0  0  0  0
   47.3350   35.3720   43.2800 H   0  0  0  0  0  0  0  0  0  0  0  0
   48.9410   34.9050   41.5290 H   0  0  0  0  0  0  0  0  0  0  0  0
   48.1850   34.0170   39.3100 H   0  0  0  0  0  0  0  0  0  0  0  0
   41.5200   34.7460   40.3510 C   0  0  0  0  0  0  0  0  0  0  0  0
   42.8850   35.0700   40.4760 C   0  0  0  0  0  0  0  0  0  0  0  0
   43.7980   34.0780   40.7440 C   0  0  0  0  0  0  0  0  0  0  0  0
   43.3080   32.8200   40.8740 N   0  0  0  0  0  0  0  0  0  0  0  0
   41.9990   32.5140   40.7550 C   0  0  0  0  0  0  0  0  0  0  0  0
   41.0980   33.4840   40.4910 N   0  0  0  0  0  0  0  0  0  0  0  0
   43.2500   36.0860   40.3670 H   0  0  0  0  0  0  0  0  0  0  0  0
   41.7140   31.4700   40.8780 H   0  0  0  0  0  0  0  0  0  0  0  0
   40.5350   35.8090   40.0640 C   0  0  0  0  0  0  0  0  0  0  0  0
   39.2940   35.1840   39.8560 F   0  0  0  0  0  0  0  0  0  0  0  0
   40.8700   36.3330   38.8070 F   0  0  0  0  0  0  0  0  0  0  0  0
   40.4420   36.7590   41.0330 F   0  0  0  0  0  0  0  0  0  0  0  0
   45.9560   32.5300   37.7860 C   0  0  0  0  0  0  0  0  0  0  0  0
   46.9370   31.8000   37.8660 O   0  0  0  0  0  0  0  0  0  0  0  0
   45.5990   33.5350   38.7080 N   0  0  0  0  0  0  0  0  0  0  0  0
   44.7250   34.1210   38.5280 H   0  0  0  0  0  0  0  0  0  0  0  0
   45.1100   32.3510   36.6750 O   0  0  0  0  0  0  0  0  0  0  0  0
   45.8710   30.6400   34.7750 O   0  0  0  0  0  0  0  0  0  0  0  0
   45.8810   32.0970   35.1650 P   0  0  0  0  0  0  0  0  0  0  0  0
   44.9290   32.9260   34.0110 O   0  0  0  0  0  0  0  0  0  0  0  0
   44.5590   33.7410   34.4480 H   0  0  0  0  0  0  0  0  0  0  0  0
   47.4270   32.7250   35.0930 O   0  0  0  0  0  0  0  0  0  0  0  0
   48.0980   32.0740   35.4550 H   0  0  0  0  0  0  0  0  0  0  0  0
  1  2  1  0  0  0  0
  2  3  2  0  0  0  0
  2  7  1  0  0  0  0
  3  8  1  0  0  0  0
  4  9  1  0  0  0  0
  4  3  1  0  0  0  0
  5  4  2  0  0  0  0
  6  5  1  0  0  0  0
  6  1  2  0  0  0  0
 10  5  1  0  0  0  0
 11 12  2  0  0  0  0
 11 16  1  0  0  0  0
 12 13  1  0  0  0  0
 13 14  2  0  0  0  0
 13  1  1  0  0  0  0
 15 14  1  0  0  0  0
 15 18  1  0  0  0  0
 16 15  2  0  0  0  0
 17 12  1  0  0  0  0
 19 11  1  0  0  0  0
 19 22  1  0  0  0  0
 20 19  1  0  0  0  0
 21 19  1  0  0  0  0
 23 24  2  0  0  0  0
 23 25  1  0  0  0  0
 25  6  1  0  0  0  0
 26 25  1  0  0  0  0
 27 23  1  0  0  0  0
 28 29  2  0  0  0  0
 29 27  1  0  0  0  0
 30 31  1  0  0  0  0
 30 29  1  0  0  0  0
 32 29  1  0  0  0  0
 32 33  1  0  0  0  0
M  END
>  <minimizedAffinity>
-6.70070267

>  <minimizedRMSD>
1.07654536

$$$$
