
 OpenBabel03242523553D

 43 45  0  0  1  0  0  0  0  0999 V2000
   42.8190   34.5230   38.7430 C   0  0  1  0  0  0  0  0  0  0  0  0
   42.9550   35.1870   40.1060 C   0  0  1  0  0  0  0  0  0  0  0  0
   41.6620   35.3950   40.6280 O   0  0  0  0  0  0  0  0  0  0  0  0
   40.7320   35.7280   39.6410 C   0  0  0  0  0  0  0  0  0  0  0  0
   40.4390   34.5690   38.7160 C   0  0  2  0  0  0  0  0  0  0  0  0
   41.6600   33.5870   38.8390 C   0  0  1  0  0  0  0  0  0  0  0  0
   43.7710   33.9910   38.4740 H   0  0  0  0  0  0  0  0  0  0  0  0
   43.5330   36.1140   40.0780 H   0  0  0  0  0  0  0  0  0  0  0  0
   41.0160   36.6480   39.0960 H   0  0  0  0  0  0  0  0  0  0  0  0
   39.8000   35.9450   40.1910 H   0  0  0  0  0  0  0  0  0  0  0  0
   39.5250   34.0030   38.9810 H   0  0  0  0  0  0  0  0  0  0  0  0
   41.4500   33.3080   39.9220 H   0  0  0  0  0  0  0  0  0  0  0  0
   42.5940   35.4820   37.7460 O   0  0  0  0  0  0  0  0  0  0  0  0
   42.7720   35.0760   36.8790 H   0  0  0  0  0  0  0  0  0  0  0  0
   40.4470   34.9980   37.4000 O   0  0  0  0  0  0  0  0  0  0  0  0
   39.7400   34.5200   36.8750 H   0  0  0  0  0  0  0  0  0  0  0  0
   43.4910   34.1990   40.9460 O   0  0  0  0  0  0  0  0  0  0  0  0
   44.5930   34.3390   41.6900 C   0  0  0  0  0  0  0  0  0  0  0  0
   45.8520   34.4430   41.1050 C   0  0  0  0  0  0  0  0  0  0  0  0
   46.9700   34.5870   41.9040 C   0  0  0  0  0  0  0  0  0  0  0  0
   46.8070   34.6240   43.2720 N   0  0  0  0  0  0  0  0  0  0  0  0
   45.5670   34.5190   43.8190 C   0  0  0  0  0  0  0  0  0  0  0  0
   44.4710   34.3780   43.0290 N   0  0  0  0  0  0  0  0  0  0  0  0
   45.9920   34.4150   40.0390 H   0  0  0  0  0  0  0  0  0  0  0  0
   45.4440   34.5490   44.9030 H   0  0  0  0  0  0  0  0  0  0  0  0
   48.3500   34.6840   41.3290 C   0  0  0  0  0  0  0  0  0  0  0  0
   49.0700   36.0180   41.5070 C   0  0  0  0  0  0  0  0  0  0  0  0
   49.4960   34.6970   42.1860 C   0  0  0  0  0  0  0  0  0  0  0  0
   48.3860   34.3720   40.2510 H   0  0  0  0  0  0  0  0  0  0  0  0
   48.5600   36.7600   42.1670 H   0  0  0  0  0  0  0  0  0  0  0  0
   49.7710   36.3760   40.7530 H   0  0  0  0  0  0  0  0  0  0  0  0
   50.4630   34.2730   41.8840 H   0  0  0  0  0  0  0  0  0  0  0  0
   49.3270   34.6310   43.2840 H   0  0  0  0  0  0  0  0  0  0  0  0
   41.5310   32.6590   37.8770 O   0  0  0  0  0  0  0  0  0  0  0  0
   40.8670   31.4790   37.9210 C   0  0  0  0  0  0  0  0  0  0  0  0
   39.6320   31.3790   37.5040 O   0  0  0  0  0  0  0  0  0  0  0  0
   40.9460   30.1270   38.2680 O   0  0  0  0  0  0  0  0  0  0  0  0
   40.5210   27.6730   37.4700 O   0  0  0  0  0  0  0  0  0  0  0  0
   41.3180   28.9210   37.1080 P   0  0  0  0  0  0  0  0  0  0  0  0
   42.9510   28.6350   36.9460 O   0  0  0  0  0  0  0  0  0  0  0  0
   43.1660   27.6720   36.7660 H   0  0  0  0  0  0  0  0  0  0  0  0
   40.6810   29.4130   35.5950 O   0  0  0  0  0  0  0  0  0  0  0  0
   39.6910   29.4460   35.6270 H   0  0  0  0  0  0  0  0  0  0  0  0
  1  7  1  6  0  0  0
  1  6  1  0  0  0  0
  1  2  1  0  0  0  0
  2  8  1  6  0  0  0
  2  3  1  0  0  0  0
  2 17  1  0  0  0  0
  4 10  1  0  0  0  0
  4  3  1  0  0  0  0
  5  6  1  0  0  0  0
  5 11  1  1  0  0  0
  5  4  1  0  0  0  0
  6 12  1  1  0  0  0
  9  4  1  0  0  0  0
 13  1  1  0  0  0  0
 14 13  1  0  0  0  0
 15  5  1  0  0  0  0
 16 15  1  0  0  0  0
 17 18  1  0  0  0  0
 18 23  1  0  0  0  0
 19 18  2  0  0  0  0
 19 20  1  0  0  0  0
 20 21  2  0  0  0  0
 21 22  1  0  0  0  0
 22 25  1  0  0  0  0
 23 22  2  0  0  0  0
 24 19  1  0  0  0  0
 26 27  1  0  0  0  0
 26 20  1  0  0  0  0
 26 28  1  0  0  0  0
 27 30  1  0  0  0  0
 27 28  1  0  0  0  0
 28 33  1  0  0  0  0
 29 26  1  0  0  0  0
 31 27  1  0  0  0  0
 32 28  1  0  0  0  0
 34 35  1  0  0  0  0
 34  6  1  0  0  0  0
 35 37  1  0  0  0  0
 36 35  2  0  0  0  0
 39 38  2  0  0  0  0
 39 37  1  0  0  0  0
 40 39  1  0  0  0  0
 41 40  1  0  0  0  0
 42 43  1  0  0  0  0
 42 39  1  0  0  0  0
M  END
>  <minimizedAffinity>
-5.44994259

>  <minimizedRMSD>
0.180174127

$$$$
