
 OpenBabel03242523553D

 43 45  0  0  1  0  0  0  0  0999 V2000
   42.7850   34.4660   38.8290 C   0  0  1  0  0  0  0  0  0  0  0  0
   42.9340   35.2130   40.1470 C   0  0  1  0  0  0  0  0  0  0  0  0
   41.6450   35.5050   40.6370 O   0  0  0  0  0  0  0  0  0  0  0  0
   40.7390   35.8080   39.6200 C   0  0  0  0  0  0  0  0  0  0  0  0
   40.4090   34.6020   38.7700 C   0  0  2  0  0  0  0  0  0  0  0  0
   41.5890   33.5840   38.9720 C   0  0  1  0  0  0  0  0  0  0  0  0
   43.7190   33.8810   38.6080 H   0  0  0  0  0  0  0  0  0  0  0  0
   43.5480   36.1130   40.0650 H   0  0  0  0  0  0  0  0  0  0  0  0
   41.0640   36.6770   39.0180 H   0  0  0  0  0  0  0  0  0  0  0  0
   39.8110   36.0970   40.1420 H   0  0  0  0  0  0  0  0  0  0  0  0
   39.4720   34.0900   39.0590 H   0  0  0  0  0  0  0  0  0  0  0  0
   41.3580   33.3850   40.0680 H   0  0  0  0  0  0  0  0  0  0  0  0
   42.6080   35.3640   37.7690 O   0  0  0  0  0  0  0  0  0  0  0  0
   42.7790   34.8950   36.9320 H   0  0  0  0  0  0  0  0  0  0  0  0
   40.4480   34.9420   37.4280 O   0  0  0  0  0  0  0  0  0  0  0  0
   39.7280   34.4580   36.9270 H   0  0  0  0  0  0  0  0  0  0  0  0
   43.4220   34.2630   41.0570 O   0  0  0  0  0  0  0  0  0  0  0  0
   44.5460   34.3880   41.7690 C   0  0  0  0  0  0  0  0  0  0  0  0
   45.7900   34.4790   41.1490 C   0  0  0  0  0  0  0  0  0  0  0  0
   46.9310   34.6080   41.9150 C   0  0  0  0  0  0  0  0  0  0  0  0
   46.8090   34.6450   43.2880 N   0  0  0  0  0  0  0  0  0  0  0  0
   45.5840   34.5540   43.8700 C   0  0  0  0  0  0  0  0  0  0  0  0
   44.4640   34.4260   43.1110 N   0  0  0  0  0  0  0  0  0  0  0  0
   45.8990   34.4520   40.0780 H   0  0  0  0  0  0  0  0  0  0  0  0
   45.4920   34.5830   44.9570 H   0  0  0  0  0  0  0  0  0  0  0  0
   48.2960   34.6910   41.3010 C   0  0  0  0  0  0  0  0  0  0  0  0
   49.0550   36.0000   41.5010 C   0  0  0  0  0  0  0  0  0  0  0  0
   49.4670   34.6460   42.1220 C   0  0  0  0  0  0  0  0  0  0  0  0
   48.2910   34.4150   40.2130 H   0  0  0  0  0  0  0  0  0  0  0  0
   48.5840   36.7310   42.2010 H   0  0  0  0  0  0  0  0  0  0  0  0
   49.7420   36.3660   40.7370 H   0  0  0  0  0  0  0  0  0  0  0  0
   50.4130   34.2080   41.7760 H   0  0  0  0  0  0  0  0  0  0  0  0
   49.3300   34.5470   43.2220 H   0  0  0  0  0  0  0  0  0  0  0  0
   41.4340   32.6000   38.0720 O   0  0  0  0  0  0  0  0  0  0  0  0
   40.6690   31.4840   38.1580 C   0  0  0  0  0  0  0  0  0  0  0  0
   39.5810   31.3500   37.4460 O   0  0  0  0  0  0  0  0  0  0  0  0
   40.5240   30.2340   38.7670 O   0  0  0  0  0  0  0  0  0  0  0  0
   41.7250   28.3640   40.1450 O   0  0  0  0  0  0  0  0  0  0  0  0
   41.3460   29.8390   40.2180 P   0  0  0  0  0  0  0  0  0  0  0  0
   40.4930   30.2310   41.5940 O   0  0  0  0  0  0  0  0  0  0  0  0
   40.6240   29.5740   42.3390 H   0  0  0  0  0  0  0  0  0  0  0  0
   42.8460   30.6670   40.2300 O   0  0  0  0  0  0  0  0  0  0  0  0
   43.4320   30.3390   39.5030 H   0  0  0  0  0  0  0  0  0  0  0  0
  1  7  1  6  0  0  0
  1  6  1  0  0  0  0
  1  2  1  0  0  0  0
  2  8  1  6  0  0  0
  2  3  1  0  0  0  0
  2 17  1  0  0  0  0
  4 10  1  0  0  0  0
  4  3  1  0  0  0  0
  5  6  1  0  0  0  0
  5 11  1  1  0  0  0
  5  4  1  0  0  0  0
  6 12  1  1  0  0  0
  9  4  1  0  0  0  0
 13  1  1  0  0  0  0
 14 13  1  0  0  0  0
 15  5  1  0  0  0  0
 16 15  1  0  0  0  0
 17 18  1  0  0  0  0
 18 23  1  0  0  0  0
 19 18  2  0  0  0  0
 19 20  1  0  0  0  0
 20 21  2  0  0  0  0
 21 22  1  0  0  0  0
 22 25  1  0  0  0  0
 23 22  2  0  0  0  0
 24 19  1  0  0  0  0
 26 27  1  0  0  0  0
 26 20  1  0  0  0  0
 26 28  1  0  0  0  0
 27 28  1  0  0  0  0
 27 30  1  0  0  0  0
 28 33  1  0  0  0  0
 29 26  1  0  0  0  0
 31 27  1  0  0  0  0
 32 28  1  0  0  0  0
 34 35  1  0  0  0  0
 34  6  1  0  0  0  0
 35 37  1  0  0  0  0
 36 35  2  0  0  0  0
 37 39  1  0  0  0  0
 38 39  2  0  0  0  0
 39 42  1  0  0  0  0
 39 40  1  0  0  0  0
 40 41  1  0  0  0  0
 43 42  1  0  0  0  0
M  END
>  <minimizedAffinity>
-5.48563576

>  <minimizedRMSD>
0.599183321

$$$$
