
 OpenBabel03242520463D

 20 20  0  0  0  0  0  0  0  0999 V2000
   37.5750   28.0440   43.3490 C   0  0  0  0  0  0  0  0  0  0  0  0
   37.8850   29.3130   42.8070 C   0  0  0  0  0  0  0  0  0  0  0  0
   39.2250   29.5970   42.5560 C   0  0  0  0  0  0  0  0  0  0  0  0
   40.1590   28.6710   42.8320 N   0  0  0  0  0  0  0  0  0  0  0  0
   39.8180   27.4600   43.3540 C   0  0  0  0  0  0  0  0  0  0  0  0
   38.5450   27.1760   43.5990 N   0  0  0  0  0  0  0  0  0  0  0  0
   36.2140   27.7330   43.6140 N   0  0  0  0  0  0  0  0  0  0  0  0
   37.0440   29.9780   42.6260 H   0  0  0  0  0  0  0  0  0  0  0  0
   40.6370   26.7760   43.5450 H   0  0  0  0  0  0  0  0  0  0  0  0
   35.6680   28.0790   44.4300 H   0  0  0  0  0  0  0  0  0  0  0  0
   35.6070   27.1250   43.0260 H   0  0  0  0  0  0  0  0  0  0  0  0
   39.4930   30.9060   42.0020 C   0  0  0  0  0  0  0  0  0  0  0  0
   40.5550   31.5550   42.1260 O   0  0  0  0  0  0  0  0  0  0  0  0
   38.3890   31.3850   41.2830 O   0  0  0  0  0  0  0  0  0  0  0  0
   39.1630   32.8570   39.1750 O   0  0  0  0  0  0  0  0  0  0  0  0
   38.3790   32.8700   40.4410 P   0  0  0  0  0  0  0  0  0  0  0  0
   36.7420   33.1700   40.0500 O   0  0  0  0  0  0  0  0  0  0  0  0
   36.3510   32.4290   39.5320 H   0  0  0  0  0  0  0  0  0  0  0  0
   38.9020   34.0890   41.4800 O   0  0  0  0  0  0  0  0  0  0  0  0
   38.5480   34.9830   41.2070 H   0  0  0  0  0  0  0  0  0  0  0  0
  1  6  1  0  0  0  0
  1  7  1  0  0  0  0
  2  1  2  0  0  0  0
  3  2  1  0  0  0  0
  3  4  2  0  0  0  0
  4  5  1  0  0  0  0
  5  9  1  0  0  0  0
  5  6  2  0  0  0  0
  7 10  1  0  0  0  0
  8  2  1  0  0  0  0
 11  7  1  0  0  0  0
 12 13  2  0  0  0  0
 12  3  1  0  0  0  0
 14 12  1  0  0  0  0
 15 16  2  0  0  0  0
 16 14  1  0  0  0  0
 16 19  1  0  0  0  0
 17 16  1  0  0  0  0
 18 17  1  0  0  0  0
 20 19  1  0  0  0  0
M  END
>  <minimizedAffinity>
-4.76932573

$$$$

 OpenBabel03242520463D

 20 20  0  0  0  0  0  0  0  0999 V2000
   40.1460   32.4640   38.2370 C   0  0  0  0  0  0  0  0  0  0  0  0
   39.5410   31.5840   39.1640 C   0  0  0  0  0  0  0  0  0  0  0  0
   39.8140   31.7830   40.5150 C   0  0  0  0  0  0  0  0  0  0  0  0
   40.6270   32.7880   40.8830 N   0  0  0  0  0  0  0  0  0  0  0  0
   41.1900   33.6150   39.9580 C   0  0  0  0  0  0  0  0  0  0  0  0
   40.9380   33.4360   38.6660 N   0  0  0  0  0  0  0  0  0  0  0  0
   39.8810   32.2800   36.8530 N   0  0  0  0  0  0  0  0  0  0  0  0
   38.9030   30.8080   38.7460 H   0  0  0  0  0  0  0  0  0  0  0  0
   41.8310   34.3970   40.3450 H   0  0  0  0  0  0  0  0  0  0  0  0
   40.3140   31.5470   36.2530 H   0  0  0  0  0  0  0  0  0  0  0  0
   39.2280   32.8520   36.2800 H   0  0  0  0  0  0  0  0  0  0  0  0
   39.1750   30.8590   41.4250 C   0  0  0  0  0  0  0  0  0  0  0  0
   39.4330   30.7230   42.6410 O   0  0  0  0  0  0  0  0  0  0  0  0
   38.1940   30.1010   40.7680 O   0  0  0  0  0  0  0  0  0  0  0  0
   36.0310   28.5130   40.8560 O   0  0  0  0  0  0  0  0  0  0  0  0
   36.6800   29.7130   41.4530 P   0  0  0  0  0  0  0  0  0  0  0  0
   36.9890   29.3840   43.1030 O   0  0  0  0  0  0  0  0  0  0  0  0
   37.6580   28.6690   43.2120 H   0  0  0  0  0  0  0  0  0  0  0  0
   35.6800   31.0650   41.3660 O   0  0  0  0  0  0  0  0  0  0  0  0
   34.9740   31.0480   42.0730 H   0  0  0  0  0  0  0  0  0  0  0  0
  1  6  2  0  0  0  0
  1  2  1  0  0  0  0
  2  3  2  0  0  0  0
  3  4  1  0  0  0  0
  3 12  1  0  0  0  0
  5  9  1  0  0  0  0
  5  4  2  0  0  0  0
  6  5  1  0  0  0  0
  7  1  1  0  0  0  0
  8  2  1  0  0  0  0
 10  7  1  0  0  0  0
 11  7  1  0  0  0  0
 12 13  2  0  0  0  0
 14 12  1  0  0  0  0
 14 16  1  0  0  0  0
 15 16  2  0  0  0  0
 16 17  1  0  0  0  0
 17 18  1  0  0  0  0
 19 16  1  0  0  0  0
 19 20  1  0  0  0  0
M  END
>  <minimizedAffinity>
-4.76078987

$$$$

 OpenBabel03242520463D

 20 20  0  0  0  0  0  0  0  0999 V2000
   39.6160   25.5030   42.9430 C   0  0  0  0  0  0  0  0  0  0  0  0
   39.0190   26.7830   42.8950 C   0  0  0  0  0  0  0  0  0  0  0  0
   37.7020   26.8650   42.4490 C   0  0  0  0  0  0  0  0  0  0  0  0
   37.0570   25.7420   42.0870 N   0  0  0  0  0  0  0  0  0  0  0  0
   37.6690   24.5260   42.1490 C   0  0  0  0  0  0  0  0  0  0  0  0
   38.9250   24.4350   42.5730 N   0  0  0  0  0  0  0  0  0  0  0  0
   40.9590   25.3960   43.3950 N   0  0  0  0  0  0  0  0  0  0  0  0
   39.6410   27.6170   43.2120 H   0  0  0  0  0  0  0  0  0  0  0  0
   37.0730   23.6760   41.8390 H   0  0  0  0  0  0  0  0  0  0  0  0
   41.8020   25.6330   42.8300 H   0  0  0  0  0  0  0  0  0  0  0  0
   41.2570   25.0700   44.3370 H   0  0  0  0  0  0  0  0  0  0  0  0
   37.1340   28.1940   42.4160 C   0  0  0  0  0  0  0  0  0  0  0  0
   37.5600   29.1940   43.0350 O   0  0  0  0  0  0  0  0  0  0  0  0
   36.0070   28.2400   41.5820 O   0  0  0  0  0  0  0  0  0  0  0  0
   36.5350   29.6230   39.3430 O   0  0  0  0  0  0  0  0  0  0  0  0
   35.6530   29.5440   40.5400 P   0  0  0  0  0  0  0  0  0  0  0  0
   34.0500   29.2860   40.0040 O   0  0  0  0  0  0  0  0  0  0  0  0
   33.9490   28.4070   39.5710 H   0  0  0  0  0  0  0  0  0  0  0  0
   35.6850   30.9760   41.4280 O   0  0  0  0  0  0  0  0  0  0  0  0
   35.1160   31.6820   41.0090 H   0  0  0  0  0  0  0  0  0  0  0  0
  1  7  1  0  0  0  0
  2  1  1  0  0  0  0
  2  8  1  0  0  0  0
  3  2  2  0  0  0  0
  4  5  2  0  0  0  0
  4  3  1  0  0  0  0
  5  6  1  0  0  0  0
  6  1  2  0  0  0  0
  7 11  1  0  0  0  0
  9  5  1  0  0  0  0
 10  7  1  0  0  0  0
 12  3  1  0  0  0  0
 12 13  2  0  0  0  0
 14 12  1  0  0  0  0
 15 16  2  0  0  0  0
 16 19  1  0  0  0  0
 16 14  1  0  0  0  0
 17 16  1  0  0  0  0
 18 17  1  0  0  0  0
 20 19  1  0  0  0  0
M  END
>  <minimizedAffinity>
-4.61506224

$$$$

 OpenBabel03242520463D

 20 20  0  0  0  0  0  0  0  0999 V2000
   38.1260   24.8940   42.1790 C   0  0  0  0  0  0  0  0  0  0  0  0
   37.5380   26.1640   41.9830 C   0  0  0  0  0  0  0  0  0  0  0  0
   38.1270   27.2530   42.6220 C   0  0  0  0  0  0  0  0  0  0  0  0
   39.2160   27.0600   43.3870 N   0  0  0  0  0  0  0  0  0  0  0  0
   39.7510   25.8180   43.5500 C   0  0  0  0  0  0  0  0  0  0  0  0
   39.1990   24.7720   42.9470 N   0  0  0  0  0  0  0  0  0  0  0  0
   37.5420   23.7680   41.5370 N   0  0  0  0  0  0  0  0  0  0  0  0
   36.6600   26.1960   41.3420 H   0  0  0  0  0  0  0  0  0  0  0  0
   40.6280   25.7570   44.1840 H   0  0  0  0  0  0  0  0  0  0  0  0
   36.6770   23.2810   41.8530 H   0  0  0  0  0  0  0  0  0  0  0  0
   37.9080   23.3020   40.6820 H   0  0  0  0  0  0  0  0  0  0  0  0
   37.4920   28.5310   42.3930 C   0  0  0  0  0  0  0  0  0  0  0  0
   37.8760   29.6360   42.8360 O   0  0  0  0  0  0  0  0  0  0  0  0
   36.3520   28.3910   41.5870 O   0  0  0  0  0  0  0  0  0  0  0  0
   36.5340   29.7550   39.2820 O   0  0  0  0  0  0  0  0  0  0  0  0
   35.7680   29.6150   40.5510 P   0  0  0  0  0  0  0  0  0  0  0  0
   34.1660   29.1630   40.1580 O   0  0  0  0  0  0  0  0  0  0  0  0
   34.1300   28.2660   39.7550 H   0  0  0  0  0  0  0  0  0  0  0  0
   35.7100   31.0680   41.4020 O   0  0  0  0  0  0  0  0  0  0  0  0
   35.0330   31.6940   41.0180 H   0  0  0  0  0  0  0  0  0  0  0  0
  1  6  1  0  0  0  0
  2  1  2  0  0  0  0
  2  3  1  0  0  0  0
  3  4  2  0  0  0  0
  4  5  1  0  0  0  0
  5  9  1  0  0  0  0
  6  5  2  0  0  0  0
  7 10  1  0  0  0  0
  7  1  1  0  0  0  0
  8  2  1  0  0  0  0
 11  7  1  0  0  0  0
 12  3  1  0  0  0  0
 12 13  2  0  0  0  0
 14 12  1  0  0  0  0
 15 16  2  0  0  0  0
 16 19  1  0  0  0  0
 16 14  1  0  0  0  0
 17 16  1  0  0  0  0
 18 17  1  0  0  0  0
 20 19  1  0  0  0  0
M  END
>  <minimizedAffinity>
-4.59263849

$$$$

 OpenBabel03242520463D

 20 20  0  0  0  0  0  0  0  0999 V2000
   37.6340   32.7990   40.2410 C   0  0  0  0  0  0  0  0  0  0  0  0
   36.9240   31.5810   40.3500 C   0  0  0  0  0  0  0  0  0  0  0  0
   37.5380   30.5360   41.0370 C   0  0  0  0  0  0  0  0  0  0  0  0
   38.7620   30.7200   41.5630 N   0  0  0  0  0  0  0  0  0  0  0  0
   39.4110   31.9110   41.4350 C   0  0  0  0  0  0  0  0  0  0  0  0
   38.8370   32.9150   40.7830 N   0  0  0  0  0  0  0  0  0  0  0  0
   37.0260   33.8780   39.5450 N   0  0  0  0  0  0  0  0  0  0  0  0
   35.9420   31.5510   39.8840 H   0  0  0  0  0  0  0  0  0  0  0  0
   40.3930   31.9690   41.8910 H   0  0  0  0  0  0  0  0  0  0  0  0
   36.9640   33.9630   38.5090 H   0  0  0  0  0  0  0  0  0  0  0  0
   36.5760   34.7060   39.9860 H   0  0  0  0  0  0  0  0  0  0  0  0
   36.7760   29.3100   41.1230 C   0  0  0  0  0  0  0  0  0  0  0  0
   35.5360   29.2020   40.9970 O   0  0  0  0  0  0  0  0  0  0  0  0
   37.6120   28.2120   41.3730 O   0  0  0  0  0  0  0  0  0  0  0  0
   38.6050   27.2620   43.6790 O   0  0  0  0  0  0  0  0  0  0  0  0
   37.4570   27.1940   42.7350 P   0  0  0  0  0  0  0  0  0  0  0  0
   36.0580   27.7330   43.5580 O   0  0  0  0  0  0  0  0  0  0  0  0
   36.1200   28.6870   43.7930 H   0  0  0  0  0  0  0  0  0  0  0  0
   37.1820   25.6180   42.2080 O   0  0  0  0  0  0  0  0  0  0  0  0
   36.6970   25.0790   42.8960 H   0  0  0  0  0  0  0  0  0  0  0  0
  1  2  2  0  0  0  0
  1  6  1  0  0  0  0
  2  3  1  0  0  0  0
  3 12  1  0  0  0  0
  3  4  2  0  0  0  0
  5  4  1  0  0  0  0
  5  9  1  0  0  0  0
  6  5  2  0  0  0  0
  7 11  1  0  0  0  0
  7  1  1  0  0  0  0
  8  2  1  0  0  0  0
 10  7  1  0  0  0  0
 12 14  1  0  0  0  0
 13 12  2  0  0  0  0
 14 16  1  0  0  0  0
 16 17  1  0  0  0  0
 16 15  2  0  0  0  0
 17 18  1  0  0  0  0
 19 16  1  0  0  0  0
 19 20  1  0  0  0  0
M  END
>  <minimizedAffinity>
-4.44138145

$$$$

 OpenBabel03242520463D

 20 20  0  0  0  0  0  0  0  0999 V2000
   39.1950   27.8490   43.0360 C   0  0  0  0  0  0  0  0  0  0  0  0
   38.8530   29.0700   42.4120 C   0  0  0  0  0  0  0  0  0  0  0  0
   37.5240   29.2550   42.0400 C   0  0  0  0  0  0  0  0  0  0  0  0
   36.6290   28.2810   42.2830 N   0  0  0  0  0  0  0  0  0  0  0  0
   37.0000   27.1180   42.8870 C   0  0  0  0  0  0  0  0  0  0  0  0
   38.2640   26.9290   43.2470 N   0  0  0  0  0  0  0  0  0  0  0  0
   40.5460   27.6390   43.4240 N   0  0  0  0  0  0  0  0  0  0  0  0
   39.6630   29.7820   42.2680 H   0  0  0  0  0  0  0  0  0  0  0  0
   36.2130   26.3900   43.0430 H   0  0  0  0  0  0  0  0  0  0  0  0
   41.3220   27.3860   42.7780 H   0  0  0  0  0  0  0  0  0  0  0  0
   40.9150   27.7130   44.3940 H   0  0  0  0  0  0  0  0  0  0  0  0
   37.2210   30.5180   41.4050 C   0  0  0  0  0  0  0  0  0  0  0  0
   36.1140   30.8610   40.9340 O   0  0  0  0  0  0  0  0  0  0  0  0
   38.3490   31.3510   41.3750 O   0  0  0  0  0  0  0  0  0  0  0  0
   39.0300   32.3910   38.9960 O   0  0  0  0  0  0  0  0  0  0  0  0
   38.4990   32.7070   40.3500 P   0  0  0  0  0  0  0  0  0  0  0  0
   36.9150   33.3260   40.1690 O   0  0  0  0  0  0  0  0  0  0  0  0
   36.2960   32.6450   39.8210 H   0  0  0  0  0  0  0  0  0  0  0  0
   39.4340   33.8750   41.1250 O   0  0  0  0  0  0  0  0  0  0  0  0
   39.2290   34.7940   40.7880 H   0  0  0  0  0  0  0  0  0  0  0  0
  1  6  1  0  0  0  0
  1  7  1  0  0  0  0
  2  1  2  0  0  0  0
  3  4  2  0  0  0  0
  3  2  1  0  0  0  0
  4  5  1  0  0  0  0
  5  9  1  0  0  0  0
  5  6  2  0  0  0  0
  7 11  1  0  0  0  0
  8  2  1  0  0  0  0
 10  7  1  0  0  0  0
 12  3  1  0  0  0  0
 13 12  2  0  0  0  0
 14 12  1  0  0  0  0
 15 16  2  0  0  0  0
 16 19  1  0  0  0  0
 16 14  1  0  0  0  0
 17 16  1  0  0  0  0
 18 17  1  0  0  0  0
 20 19  1  0  0  0  0
M  END
>  <minimizedAffinity>
-4.38316774

$$$$

 OpenBabel03242520463D

 20 20  0  0  0  0  0  0  0  0999 V2000
   37.5580   31.7610   38.1250 C   0  0  0  0  0  0  0  0  0  0  0  0
   36.8790   30.5900   38.5330 C   0  0  0  0  0  0  0  0  0  0  0  0
   36.5400   30.4770   39.8790 C   0  0  0  0  0  0  0  0  0  0  0  0
   36.8640   31.4690   40.7270 N   0  0  0  0  0  0  0  0  0  0  0  0
   37.5190   32.5820   40.2920 C   0  0  0  0  0  0  0  0  0  0  0  0
   37.8480   32.7020   39.0120 N   0  0  0  0  0  0  0  0  0  0  0  0
   37.9140   31.8980   36.7560 N   0  0  0  0  0  0  0  0  0  0  0  0
   36.6720   29.8570   37.7560 H   0  0  0  0  0  0  0  0  0  0  0  0
   37.7390   33.3290   41.0460 H   0  0  0  0  0  0  0  0  0  0  0  0
   38.7160   31.4200   36.2950 H   0  0  0  0  0  0  0  0  0  0  0  0
   37.4170   32.4890   36.0580 H   0  0  0  0  0  0  0  0  0  0  0  0
   35.8480   29.2630   40.2500 C   0  0  0  0  0  0  0  0  0  0  0  0
   34.6100   29.0850   40.2320 O   0  0  0  0  0  0  0  0  0  0  0  0
   36.7530   28.2680   40.6480 O   0  0  0  0  0  0  0  0  0  0  0  0
   36.5620   26.8630   42.9280 O   0  0  0  0  0  0  0  0  0  0  0  0
   37.2320   28.0160   42.2670 P   0  0  0  0  0  0  0  0  0  0  0  0
   38.9110   27.6940   42.2080 O   0  0  0  0  0  0  0  0  0  0  0  0
   39.1130   26.9290   41.6210 H   0  0  0  0  0  0  0  0  0  0  0  0
   37.0020   29.4440   43.1310 O   0  0  0  0  0  0  0  0  0  0  0  0
   37.6090   29.4970   43.9240 H   0  0  0  0  0  0  0  0  0  0  0  0
  1  2  2  0  0  0  0
  1  6  1  0  0  0  0
  2  3  1  0  0  0  0
  3 12  1  0  0  0  0
  3  4  2  0  0  0  0
  5  4  1  0  0  0  0
  5  9  1  0  0  0  0
  6  5  2  0  0  0  0
  7  1  1  0  0  0  0
  8  2  1  0  0  0  0
 10  7  1  0  0  0  0
 11  7  1  0  0  0  0
 12 14  1  0  0  0  0
 13 12  2  0  0  0  0
 14 16  1  0  0  0  0
 16 15  2  0  0  0  0
 16 19  1  0  0  0  0
 17 16  1  0  0  0  0
 18 17  1  0  0  0  0
 19 20  1  0  0  0  0
M  END
>  <minimizedAffinity>
-4.29178905

$$$$

 OpenBabel03242520463D

 20 20  0  0  0  0  0  0  0  0999 V2000
   37.6910   26.5240   41.7930 C   0  0  0  0  0  0  0  0  0  0  0  0
   36.8140   27.3860   41.0950 C   0  0  0  0  0  0  0  0  0  0  0  0
   36.6280   28.6690   41.6050 C   0  0  0  0  0  0  0  0  0  0  0  0
   37.2780   29.0350   42.7240 N   0  0  0  0  0  0  0  0  0  0  0  0
   38.1150   28.1730   43.3660 C   0  0  0  0  0  0  0  0  0  0  0  0
   38.3010   26.9480   42.8900 N   0  0  0  0  0  0  0  0  0  0  0  0
   37.8960   25.2110   41.2900 N   0  0  0  0  0  0  0  0  0  0  0  0
   36.3450   26.9770   40.2030 H   0  0  0  0  0  0  0  0  0  0  0  0
   38.5970   28.5540   44.2590 H   0  0  0  0  0  0  0  0  0  0  0  0
   37.2290   24.4180   41.3970 H   0  0  0  0  0  0  0  0  0  0  0  0
   38.7320   24.8890   40.7610 H   0  0  0  0  0  0  0  0  0  0  0  0
   35.7230   29.5140   40.8590 C   0  0  0  0  0  0  0  0  0  0  0  0
   34.7770   29.1260   40.1390 O   0  0  0  0  0  0  0  0  0  0  0  0
   36.0360   30.8690   41.0370 O   0  0  0  0  0  0  0  0  0  0  0  0
   37.6170   31.1730   38.8900 O   0  0  0  0  0  0  0  0  0  0  0  0
   37.3510   31.6460   40.2760 P   0  0  0  0  0  0  0  0  0  0  0  0
   36.9300   33.3020   40.2010 O   0  0  0  0  0  0  0  0  0  0  0  0
   36.0750   33.4390   39.7320 H   0  0  0  0  0  0  0  0  0  0  0  0
   38.7140   31.4950   41.2540 O   0  0  0  0  0  0  0  0  0  0  0  0
   39.3700   32.2300   41.0880 H   0  0  0  0  0  0  0  0  0  0  0  0
  1  6  1  0  0  0  0
  2  3  1  0  0  0  0
  2  1  2  0  0  0  0
  3  4  2  0  0  0  0
  4  5  1  0  0  0  0
  5  9  1  0  0  0  0
  6  5  2  0  0  0  0
  7 10  1  0  0  0  0
  7  1  1  0  0  0  0
  8  2  1  0  0  0  0
 11  7  1  0  0  0  0
 12 14  1  0  0  0  0
 12  3  1  0  0  0  0
 13 12  2  0  0  0  0
 15 16  2  0  0  0  0
 16 14  1  0  0  0  0
 16 19  1  0  0  0  0
 17 16  1  0  0  0  0
 18 17  1  0  0  0  0
 20 19  1  0  0  0  0
M  END
>  <minimizedAffinity>
-4.27679968

$$$$

 OpenBabel03242520463D

 20 20  0  0  0  0  0  0  0  0999 V2000
   40.3740   31.3790   37.6770 C   0  0  0  0  0  0  0  0  0  0  0  0
   39.5770   30.8780   38.7320 C   0  0  0  0  0  0  0  0  0  0  0  0
   40.1060   29.8490   39.5080 C   0  0  0  0  0  0  0  0  0  0  0  0
   41.3340   29.3770   39.2300 N   0  0  0  0  0  0  0  0  0  0  0  0
   42.0700   29.8880   38.2030 C   0  0  0  0  0  0  0  0  0  0  0  0
   41.5770   30.8690   37.4570 N   0  0  0  0  0  0  0  0  0  0  0  0
   39.8550   32.4290   36.8730 N   0  0  0  0  0  0  0  0  0  0  0  0
   38.6000   31.3390   38.8590 H   0  0  0  0  0  0  0  0  0  0  0  0
   43.0480   29.4470   38.0530 H   0  0  0  0  0  0  0  0  0  0  0  0
   39.1460   32.3110   36.1190 H   0  0  0  0  0  0  0  0  0  0  0  0
   40.1200   33.4320   36.9420 H   0  0  0  0  0  0  0  0  0  0  0  0
   39.2560   29.3690   40.5740 C   0  0  0  0  0  0  0  0  0  0  0  0
   39.4190   28.3170   41.2310 O   0  0  0  0  0  0  0  0  0  0  0  0
   38.1850   30.2470   40.7990 O   0  0  0  0  0  0  0  0  0  0  0  0
   36.0290   28.7120   40.3510 O   0  0  0  0  0  0  0  0  0  0  0  0
   36.6210   29.7360   41.2540 P   0  0  0  0  0  0  0  0  0  0  0  0
   36.7950   29.0400   42.8070 O   0  0  0  0  0  0  0  0  0  0  0  0
   37.4550   28.3100   42.8050 H   0  0  0  0  0  0  0  0  0  0  0  0
   35.6260   31.0890   41.3940 O   0  0  0  0  0  0  0  0  0  0  0  0
   34.8640   30.9220   42.0190 H   0  0  0  0  0  0  0  0  0  0  0  0
  1  2  1  0  0  0  0
  2  8  1  0  0  0  0
  2  3  2  0  0  0  0
  3 12  1  0  0  0  0
  4  3  1  0  0  0  0
  5  4  2  0  0  0  0
  6  1  2  0  0  0  0
  6  5  1  0  0  0  0
  7 11  1  0  0  0  0
  7  1  1  0  0  0  0
  9  5  1  0  0  0  0
 10  7  1  0  0  0  0
 12 14  1  0  0  0  0
 12 13  2  0  0  0  0
 14 16  1  0  0  0  0
 15 16  2  0  0  0  0
 16 19  1  0  0  0  0
 16 17  1  0  0  0  0
 18 17  1  0  0  0  0
 19 20  1  0  0  0  0
M  END
>  <minimizedAffinity>
-4.06623602

$$$$
