
 OpenBabel03252509353D

 42 43  0  0  1  0  0  0  0  0999 V2000
   44.5160   35.4440   43.9960 O   0  0  0  0  0  0  0  0  0  0  0  0
   45.3800   34.2550   44.3750 P   0  0  1  0  0  0  0  0  0  0  0  0
   44.7320   32.8190   43.7570 O   0  0  0  0  0  0  0  0  0  0  0  0
   44.3440   32.9640   42.8470 H   0  0  0  0  0  0  0  0  0  0  0  0
   46.9060   34.5080   43.7460 O   0  0  0  0  0  0  0  0  0  0  0  0
   47.0370   33.8220   42.5330 C   0  0  1  0  0  0  0  0  0  0  0  0
   46.4450   34.6590   41.3960 C   0  0  0  0  0  0  0  0  0  0  0  0
   46.9600   33.8960   40.1980 C   0  0  0  0  0  0  0  0  0  0  0  0
   48.2540   33.2320   40.6440 C   0  0  0  0  0  0  0  0  0  0  0  0
   48.4540   33.7020   42.0700 C   0  0  1  0  0  0  0  0  0  0  0  0
   46.5270   32.8620   42.5100 H   0  0  0  0  0  0  0  0  0  0  0  0
   45.3390   34.5420   41.4350 H   0  0  0  0  0  0  0  0  0  0  0  0
   46.7190   35.7080   41.4320 H   0  0  0  0  0  0  0  0  0  0  0  0
   46.1930   33.1280   39.8880 H   0  0  0  0  0  0  0  0  0  0  0  0
   47.1820   34.5980   39.3660 H   0  0  0  0  0  0  0  0  0  0  0  0
   49.0980   33.4940   39.9890 H   0  0  0  0  0  0  0  0  0  0  0  0
   48.0560   32.1430   40.7080 H   0  0  0  0  0  0  0  0  0  0  0  0
   48.9650   32.9380   42.6820 H   0  0  0  0  0  0  0  0  0  0  0  0
   49.2100   35.0010   42.1370 C   0  0  0  0  0  0  0  0  0  0  0  0
   48.5560   35.9030   42.1940 H   0  0  0  0  0  0  0  0  0  0  0  0
   49.8590   35.1340   41.2250 H   0  0  0  0  0  0  0  0  0  0  0  0
   50.0300   35.0680   43.2400 O   0  0  0  0  0  0  0  0  0  0  0  0
   50.1710   34.1580   43.5990 H   0  0  0  0  0  0  0  0  0  0  0  0
   45.4390   34.0740   46.0320 O   0  0  0  0  0  0  0  0  0  0  0  0
   46.4110   33.1810   46.3490 C   0  0  0  0  0  0  0  0  0  0  0  0
   47.1800   33.7240   46.9680 H   0  0  0  0  0  0  0  0  0  0  0  0
   46.9670   32.7110   45.5410 H   0  0  0  0  0  0  0  0  0  0  0  0
   45.2980   31.3040   49.3650 C   0  0  0  0  0  0  0  0  0  0  0  0
   45.7610   32.3620   48.5780 C   0  0  0  0  0  0  0  0  0  0  0  0
   45.9210   32.0880   47.2130 C   0  0  0  0  0  0  0  0  0  0  0  0
   45.6250   30.8420   46.7340 N   0  0  0  0  0  0  0  0  0  0  0  0
   45.1790   29.8490   47.5290 C   0  0  0  0  0  0  0  0  0  0  0  0
   45.0190   30.0880   48.8380 N   0  0  0  0  0  0  0  0  0  0  0  0
   45.1550   31.4580   50.4330 H   0  0  0  0  0  0  0  0  0  0  0  0
   45.9750   33.3180   49.0260 H   0  0  0  0  0  0  0  0  0  0  0  0
   44.9280   28.6510   46.8730 O   0  0  0  0  0  0  0  0  0  0  0  0
   42.6580   28.3480   45.6380 O   0  0  0  0  0  0  0  0  0  0  0  0
   44.1410   28.5310   45.3840 P   0  0  0  0  0  0  0  0  0  0  0  0
   44.6630   27.1850   44.4900 O   0  0  0  0  0  0  0  0  0  0  0  0
   44.2600   26.3910   44.9180 H   0  0  0  0  0  0  0  0  0  0  0  0
   44.3230   29.9240   44.4430 O   0  0  0  0  0  0  0  0  0  0  0  0
   44.3550   29.6460   43.5040 H   0  0  0  0  0  0  0  0  0  0  0  0
  2  1  2  6  0  0  0
  2 24  1  0  0  0  0
  3  2  1  0  0  0  0
  4  3  1  0  0  0  0
  5  2  1  0  0  0  0
  6 11  1  1  0  0  0
  6  5  1  0  0  0  0
  7 13  1  0  0  0  0
  7 12  1  0  0  0  0
  7  6  1  0  0  0  0
  8  9  1  0  0  0  0
  8  7  1  0  0  0  0
  9 17  1  0  0  0  0
  9 10  1  0  0  0  0
 10 19  1  0  0  0  0
 10  6  1  0  0  0  0
 10 18  1  1  0  0  0
 14  8  1  0  0  0  0
 15  8  1  0  0  0  0
 16  9  1  0  0  0  0
 19 20  1  0  0  0  0
 19 22  1  0  0  0  0
 21 19  1  0  0  0  0
 22 23  1  0  0  0  0
 24 25  1  0  0  0  0
 25 26  1  0  0  0  0
 25 30  1  0  0  0  0
 27 25  1  0  0  0  0
 28 34  1  0  0  0  0
 29 35  1  0  0  0  0
 29 28  2  0  0  0  0
 30 29  1  0  0  0  0
 31 30  2  0  0  0  0
 31 32  1  0  0  0  0
 32 33  2  0  0  0  0
 33 28  1  0  0  0  0
 36 32  1  0  0  0  0
 38 37  2  0  0  0  0
 38 36  1  0  0  0  0
 39 40  1  0  0  0  0
 39 38  1  0  0  0  0
 41 38  1  0  0  0  0
 42 41  1  0  0  0  0
M  END
>  <minimizedAffinity>
-5.71408081

>  <minimizedRMSD>
1.38785338

$$$$
