
 OpenBabel03252508513D

 26 27  0  0  0  0  0  0  0  0999 V2000
   45.7950   34.0200   41.0440 C   0  0  0  0  0  0  0  0  0  0  0  0
   46.4100   34.7280   42.0720 C   0  0  0  0  0  0  0  0  0  0  0  0
   47.7310   35.1430   41.8630 C   0  0  0  0  0  0  0  0  0  0  0  0
   48.3210   34.8310   40.6820 N   0  0  0  0  0  0  0  0  0  0  0  0
   47.6970   34.1480   39.7160 C   0  0  0  0  0  0  0  0  0  0  0  0
   46.4220   33.7400   39.9020 N   0  0  0  0  0  0  0  0  0  0  0  0
   48.2370   35.7000   42.6510 H   0  0  0  0  0  0  0  0  0  0  0  0
   48.2760   33.9680   38.8330 H   0  0  0  0  0  0  0  0  0  0  0  0
   45.6790   35.0110   43.3070 C   0  0  0  0  0  0  0  0  0  0  0  0
   45.0050   36.1880   43.5350 C   0  0  0  0  0  0  0  0  0  0  0  0
   44.4770   36.0190   44.7970 C   0  0  0  0  0  0  0  0  0  0  0  0
   44.8090   34.8080   45.3090 N   0  0  0  0  0  0  0  0  0  0  0  0
   45.5340   34.2230   44.3860 N   0  0  0  0  0  0  0  0  0  0  0  0
   44.8730   37.0670   42.9410 H   0  0  0  0  0  0  0  0  0  0  0  0
   43.8610   36.6750   45.4230 H   0  0  0  0  0  0  0  0  0  0  0  0
   44.6190   34.3130   46.1920 H   0  0  0  0  0  0  0  0  0  0  0  0
   44.4900   33.6040   41.2370 O   0  0  0  0  0  0  0  0  0  0  0  0
   43.3680   34.2390   40.7790 C   0  0  0  0  0  0  0  0  0  0  0  0
   43.2710   35.4010   40.2670 O   0  0  0  0  0  0  0  0  0  0  0  0
   42.0070   33.8530   40.7220 O   0  0  0  0  0  0  0  0  0  0  0  0
   39.9910   35.5080   40.5940 O   0  0  0  0  0  0  0  0  0  0  0  0
   40.8210   34.7290   41.5940 P   0  0  0  0  0  0  0  0  0  0  0  0
   39.8020   33.6330   42.3690 O   0  0  0  0  0  0  0  0  0  0  0  0
   39.1250   33.2940   41.7040 H   0  0  0  0  0  0  0  0  0  0  0  0
   41.4950   35.8330   42.6800 O   0  0  0  0  0  0  0  0  0  0  0  0
   41.1690   35.7310   43.6080 H   0  0  0  0  0  0  0  0  0  0  0  0
  1 17  1  0  0  0  0
  1  2  1  0  0  0  0
  2  9  1  0  0  0  0
  3  2  2  0  0  0  0
  3  7  1  0  0  0  0
  4  3  1  0  0  0  0
  5  6  1  0  0  0  0
  5  4  2  0  0  0  0
  6  1  2  0  0  0  0
  8  5  1  0  0  0  0
  9 10  1  0  0  0  0
  9 13  2  0  0  0  0
 10 11  2  0  0  0  0
 11 12  1  0  0  0  0
 11 15  1  0  0  0  0
 12 16  1  0  0  0  0
 13 12  1  0  0  0  0
 14 10  1  0  0  0  0
 18 17  1  0  0  0  0
 19 18  2  0  0  0  0
 20 18  1  0  0  0  0
 20 22  1  0  0  0  0
 21 22  2  0  0  0  0
 22 23  1  0  0  0  0
 22 25  1  0  0  0  0
 24 23  1  0  0  0  0
 25 26  1  0  0  0  0
M  END
>  <minimizedAffinity>
-5.70768166

>  <minimizedRMSD>
1.23363614

$$$$
