
 OpenBabel03252509153D

 23 24  0  0  0  0  0  0  0  0999 V2000
   45.9700   33.1230   46.6360 C   0  0  0  0  0  0  0  0  0  0  0  0
   45.2410   32.9800   47.8490 C   0  0  0  0  0  0  0  0  0  0  0  0
   45.6720   32.1010   48.7820 C   0  0  0  0  0  0  0  0  0  0  0  0
   46.8360   31.3580   48.5100 C   0  0  0  0  0  0  0  0  0  0  0  0
   47.3320   31.9540   46.8320 S   0  0  0  0  0  0  0  0  0  0  0  0
   44.3360   33.5710   48.0380 H   0  0  0  0  0  0  0  0  0  0  0  0
   45.2380   31.8920   49.7150 H   0  0  0  0  0  0  0  0  0  0  0  0
   44.4420   35.8150   44.5680 C   0  0  0  0  0  0  0  0  0  0  0  0
   45.0900   35.5500   43.3330 C   0  0  0  0  0  0  0  0  0  0  0  0
   46.0040   34.4800   43.2740 C   0  0  0  0  0  0  0  0  0  0  0  0
   46.2190   33.7470   44.4220 N   0  0  0  0  0  0  0  0  0  0  0  0
   45.5620   34.0570   45.5720 C   0  0  0  0  0  0  0  0  0  0  0  0
   44.6770   35.0850   45.6510 N   0  0  0  0  0  0  0  0  0  0  0  0
   43.7420   36.6200   44.6480 H   0  0  0  0  0  0  0  0  0  0  0  0
   44.9020   36.1340   42.4640 H   0  0  0  0  0  0  0  0  0  0  0  0
   46.5220   34.2310   42.3720 H   0  0  0  0  0  0  0  0  0  0  0  0
   47.5280   30.4090   49.2160 O   0  0  0  0  0  0  0  0  0  0  0  0
   49.6920   29.8960   50.7150 O   0  0  0  0  0  0  0  0  0  0  0  0
   49.2330   30.5290   49.4350 P   0  0  0  0  0  0  0  0  0  0  0  0
   49.9710   29.7970   48.0980 O   0  0  0  0  0  0  0  0  0  0  0  0
   50.9460   29.9480   48.0940 H   0  0  0  0  0  0  0  0  0  0  0  0
   49.6480   32.1670   49.4640 O   0  0  0  0  0  0  0  0  0  0  0  0
   50.2450   32.4140   50.2000 H   0  0  0  0  0  0  0  0  0  0  0  0
  1  5  1  0  0  0  0
  1  2  2  0  0  0  0
  2  6  1  0  0  0  0
  2  3  1  0  0  0  0
  3  7  1  0  0  0  0
  4  3  2  0  0  0  0
  4 17  1  0  0  0  0
  5  4  1  0  0  0  0
  8 14  1  0  0  0  0
  8 13  1  0  0  0  0
  9  8  2  0  0  0  0
 10  9  1  0  0  0  0
 10 11  2  0  0  0  0
 11 12  1  0  0  0  0
 12 13  2  0  0  0  0
 12  1  1  0  0  0  0
 15  9  1  0  0  0  0
 16 10  1  0  0  0  0
 17 19  1  0  0  0  0
 19 22  1  0  0  0  0
 19 18  2  0  0  0  0
 20 19  1  0  0  0  0
 21 20  1  0  0  0  0
 22 23  1  0  0  0  0
M  END
>  <minimizedAffinity>
-4.74379635

>  <minimizedRMSD>
0.792674601

$$$$
