
 OpenBabel03252505353D

 28 29  0  0  0  0  0  0  0  0999 V2000
   39.8010   29.2870   42.4680 C   0  0  0  0  0  0  0  0  0  0  0  0
   40.1430   28.0560   43.0070 C   0  0  0  0  0  0  0  0  0  0  0  0
   39.1990   27.2220   43.6110 C   0  0  0  0  0  0  0  0  0  0  0  0
   37.8850   27.6260   43.6790 C   0  0  0  0  0  0  0  0  0  0  0  0
   37.5650   28.8420   43.1440 C   0  0  0  0  0  0  0  0  0  0  0  0
   38.4760   29.6750   42.5470 C   0  0  0  0  0  0  0  0  0  0  0  0
   41.1650   27.6950   42.9770 H   0  0  0  0  0  0  0  0  0  0  0  0
   39.5100   26.2590   44.0240 H   0  0  0  0  0  0  0  0  0  0  0  0
   37.1280   27.0040   44.1410 H   0  0  0  0  0  0  0  0  0  0  0  0
   36.5430   29.1950   43.1770 H   0  0  0  0  0  0  0  0  0  0  0  0
   42.2890   30.7480   40.0570 C   0  0  0  0  0  0  0  0  0  0  0  0
   41.2550   29.9200   40.5400 C   0  0  0  0  0  0  0  0  0  0  0  0
   40.8470   30.0770   41.8660 C   0  0  0  0  0  0  0  0  0  0  0  0
   41.4530   31.0080   42.6270 N   0  0  0  0  0  0  0  0  0  0  0  0
   42.4450   31.7870   42.1260 C   0  0  0  0  0  0  0  0  0  0  0  0
   42.8570   31.6500   40.8400 N   0  0  0  0  0  0  0  0  0  0  0  0
   43.0820   32.7710   42.9370 N   0  0  0  0  0  0  0  0  0  0  0  0
   42.5400   30.5580   39.0220 H   0  0  0  0  0  0  0  0  0  0  0  0
   40.7110   29.1500   40.0120 H   0  0  0  0  0  0  0  0  0  0  0  0
   42.3970   33.5430   42.7930 H   0  0  0  0  0  0  0  0  0  0  0  0
   43.9350   32.2820   43.3040 H   0  0  0  0  0  0  0  0  0  0  0  0
   38.2260   30.9180   41.9830 O   0  0  0  0  0  0  0  0  0  0  0  0
   37.3720   30.3020   39.6040 O   0  0  0  0  0  0  0  0  0  0  0  0
   37.0350   31.1690   40.7830 P   0  0  0  0  0  0  0  0  0  0  0  0
   36.9920   32.7850   40.2920 O   0  0  0  0  0  0  0  0  0  0  0  0
   36.8520   33.3990   41.0440 H   0  0  0  0  0  0  0  0  0  0  0  0
   35.4850   30.7640   41.3170 O   0  0  0  0  0  0  0  0  0  0  0  0
   34.8280   31.2430   40.7420 H   0  0  0  0  0  0  0  0  0  0  0  0
  1  6  2  0  0  0  0
  1  2  1  0  0  0  0
  2  3  2  0  0  0  0
  3  4  1  0  0  0  0
  3  8  1  0  0  0  0
  4  9  1  0  0  0  0
  5 10  1  0  0  0  0
  5  4  2  0  0  0  0
  6  5  1  0  0  0  0
  7  2  1  0  0  0  0
 11 12  2  0  0  0  0
 11 16  1  0  0  0  0
 12 13  1  0  0  0  0
 13  1  1  0  0  0  0
 13 14  2  0  0  0  0
 15 14  1  0  0  0  0
 15 17  1  0  0  0  0
 16 15  2  0  0  0  0
 17 21  1  0  0  0  0
 18 11  1  0  0  0  0
 19 12  1  0  0  0  0
 20 17  1  0  0  0  0
 22  6  1  0  0  0  0
 23 24  2  0  0  0  0
 24 27  1  0  0  0  0
 24 22  1  0  0  0  0
 25 24  1  0  0  0  0
 25 26  1  0  0  0  0
 28 27  1  0  0  0  0
M  END
>  <minimizedAffinity>
-5.46863699

$$$$

 OpenBabel03252505353D

 28 29  0  0  0  0  0  0  0  0999 V2000
   38.7230   29.0310   41.8280 C   0  0  0  0  0  0  0  0  0  0  0  0
   39.2500   28.5490   43.0170 C   0  0  0  0  0  0  0  0  0  0  0  0
   38.7010   27.4490   43.6790 C   0  0  0  0  0  0  0  0  0  0  0  0
   37.6030   26.8150   43.1430 C   0  0  0  0  0  0  0  0  0  0  0  0
   37.0970   27.3030   41.9710 C   0  0  0  0  0  0  0  0  0  0  0  0
   37.6200   28.3820   41.3050 C   0  0  0  0  0  0  0  0  0  0  0  0
   40.1140   29.0150   43.4770 H   0  0  0  0  0  0  0  0  0  0  0  0
   39.1460   27.1000   44.6140 H   0  0  0  0  0  0  0  0  0  0  0  0
   37.1530   25.9590   43.6310 H   0  0  0  0  0  0  0  0  0  0  0  0
   36.2340   26.8330   41.5180 H   0  0  0  0  0  0  0  0  0  0  0  0
   40.9730   31.2550   39.7950 C   0  0  0  0  0  0  0  0  0  0  0  0
   40.4290   30.0690   40.3290 C   0  0  0  0  0  0  0  0  0  0  0  0
   39.3600   30.1750   41.2200 C   0  0  0  0  0  0  0  0  0  0  0  0
   38.8930   31.3980   41.5340 N   0  0  0  0  0  0  0  0  0  0  0  0
   39.4440   32.5180   40.9990 C   0  0  0  0  0  0  0  0  0  0  0  0
   40.4840   32.4370   40.1310 N   0  0  0  0  0  0  0  0  0  0  0  0
   38.9440   33.8110   41.3350 N   0  0  0  0  0  0  0  0  0  0  0  0
   41.7960   31.0800   39.1150 H   0  0  0  0  0  0  0  0  0  0  0  0
   40.7310   29.0490   40.1400 H   0  0  0  0  0  0  0  0  0  0  0  0
   38.1710   33.8530   40.6380 H   0  0  0  0  0  0  0  0  0  0  0  0
   39.5690   34.1270   42.1170 H   0  0  0  0  0  0  0  0  0  0  0  0
   37.1610   28.9320   40.1170 O   0  0  0  0  0  0  0  0  0  0  0  0
   35.9580   30.8150   38.7830 O   0  0  0  0  0  0  0  0  0  0  0  0
   35.8360   30.0080   40.0450 P   0  0  0  0  0  0  0  0  0  0  0  0
   35.8210   31.0510   41.3740 O   0  0  0  0  0  0  0  0  0  0  0  0
   35.8200   30.5660   42.2270 H   0  0  0  0  0  0  0  0  0  0  0  0
   34.3510   29.2040   40.0200 O   0  0  0  0  0  0  0  0  0  0  0  0
   33.6510   29.8420   40.3280 H   0  0  0  0  0  0  0  0  0  0  0  0
  1  2  1  0  0  0  0
  2  7  1  0  0  0  0
  2  3  2  0  0  0  0
  3  8  1  0  0  0  0
  4  9  1  0  0  0  0
  4  3  1  0  0  0  0
  5  4  2  0  0  0  0
  6  1  2  0  0  0  0
  6  5  1  0  0  0  0
 10  5  1  0  0  0  0
 11 16  2  0  0  0  0
 11 12  1  0  0  0  0
 12 13  2  0  0  0  0
 13 14  1  0  0  0  0
 13  1  1  0  0  0  0
 15 17  1  0  0  0  0
 15 14  2  0  0  0  0
 16 15  1  0  0  0  0
 17 21  1  0  0  0  0
 18 11  1  0  0  0  0
 19 12  1  0  0  0  0
 20 17  1  0  0  0  0
 22  6  1  0  0  0  0
 23 24  2  0  0  0  0
 24 22  1  0  0  0  0
 24 25  1  0  0  0  0
 25 26  1  0  0  0  0
 27 24  1  0  0  0  0
 27 28  1  0  0  0  0
M  END
>  <minimizedAffinity>
-5.27310944

$$$$

 OpenBabel03252505353D

 28 29  0  0  0  0  0  0  0  0999 V2000
   37.3960   29.4970   41.4130 C   0  0  0  0  0  0  0  0  0  0  0  0
   36.4690   28.4660   41.3760 C   0  0  0  0  0  0  0  0  0  0  0  0
   36.3000   27.5820   42.4440 C   0  0  0  0  0  0  0  0  0  0  0  0
   37.0740   27.7300   43.5740 C   0  0  0  0  0  0  0  0  0  0  0  0
   37.9820   28.7500   43.5920 C   0  0  0  0  0  0  0  0  0  0  0  0
   38.1640   29.6290   42.5550 C   0  0  0  0  0  0  0  0  0  0  0  0
   35.8370   28.3110   40.5090 H   0  0  0  0  0  0  0  0  0  0  0  0
   35.5580   26.7820   42.3750 H   0  0  0  0  0  0  0  0  0  0  0  0
   36.9680   27.0610   44.4190 H   0  0  0  0  0  0  0  0  0  0  0  0
   38.6080   28.8990   44.4610 H   0  0  0  0  0  0  0  0  0  0  0  0
   37.9500   30.8340   37.9420 C   0  0  0  0  0  0  0  0  0  0  0  0
   37.8860   29.9030   38.9980 C   0  0  0  0  0  0  0  0  0  0  0  0
   37.4970   30.3580   40.2590 C   0  0  0  0  0  0  0  0  0  0  0  0
   37.2000   31.6620   40.4170 N   0  0  0  0  0  0  0  0  0  0  0  0
   37.2730   32.5290   39.3750 C   0  0  0  0  0  0  0  0  0  0  0  0
   37.6490   32.1060   38.1410 N   0  0  0  0  0  0  0  0  0  0  0  0
   36.9570   33.9090   39.5490 N   0  0  0  0  0  0  0  0  0  0  0  0
   38.2590   30.3950   37.0030 H   0  0  0  0  0  0  0  0  0  0  0  0
   38.1030   28.8440   38.9720 H   0  0  0  0  0  0  0  0  0  0  0  0
   35.9250   33.8370   39.4220 H   0  0  0  0  0  0  0  0  0  0  0  0
   37.8880   34.3610   39.7210 H   0  0  0  0  0  0  0  0  0  0  0  0
   39.0630   30.6840   42.5030 O   0  0  0  0  0  0  0  0  0  0  0  0
   41.1400   29.1430   42.7850 O   0  0  0  0  0  0  0  0  0  0  0  0
   40.7310   30.4660   42.2030 P   0  0  0  0  0  0  0  0  0  0  0  0
   41.6460   31.6950   42.9150 O   0  0  0  0  0  0  0  0  0  0  0  0
   41.3620   32.5870   42.6240 H   0  0  0  0  0  0  0  0  0  0  0  0
   41.0950   30.4590   40.5540 O   0  0  0  0  0  0  0  0  0  0  0  0
   42.0610   30.6820   40.4530 H   0  0  0  0  0  0  0  0  0  0  0  0
  1  6  1  0  0  0  0
  2  1  2  0  0  0  0
  2  3  1  0  0  0  0
  3  4  2  0  0  0  0
  4  5  1  0  0  0  0
  4  9  1  0  0  0  0
  5 10  1  0  0  0  0
  6  5  2  0  0  0  0
  7  2  1  0  0  0  0
  8  3  1  0  0  0  0
 11 16  2  0  0  0  0
 11 12  1  0  0  0  0
 12 13  2  0  0  0  0
 13 14  1  0  0  0  0
 13  1  1  0  0  0  0
 15 17  1  0  0  0  0
 15 14  2  0  0  0  0
 16 15  1  0  0  0  0
 17 21  1  0  0  0  0
 18 11  1  0  0  0  0
 19 12  1  0  0  0  0
 20 17  1  0  0  0  0
 22  6  1  0  0  0  0
 24 22  1  0  0  0  0
 24 23  2  0  0  0  0
 24 25  1  0  0  0  0
 26 25  1  0  0  0  0
 27 24  1  0  0  0  0
 28 27  1  0  0  0  0
M  END
>  <minimizedAffinity>
-5.23180342

$$$$

 OpenBabel03252505353D

 28 29  0  0  0  0  0  0  0  0999 V2000
   37.6280   29.4390   41.7560 C   0  0  0  0  0  0  0  0  0  0  0  0
   37.7940   29.1860   43.1100 C   0  0  0  0  0  0  0  0  0  0  0  0
   37.4800   27.9490   43.6770 C   0  0  0  0  0  0  0  0  0  0  0  0
   36.9900   26.9420   42.8770 C   0  0  0  0  0  0  0  0  0  0  0  0
   36.8330   27.2080   41.5460 C   0  0  0  0  0  0  0  0  0  0  0  0
   37.1350   28.4150   40.9680 C   0  0  0  0  0  0  0  0  0  0  0  0
   38.1770   29.9480   43.7790 H   0  0  0  0  0  0  0  0  0  0  0  0
   37.6250   27.7910   44.7490 H   0  0  0  0  0  0  0  0  0  0  0  0
   36.7370   25.9710   43.2850 H   0  0  0  0  0  0  0  0  0  0  0  0
   36.4510   26.4430   40.8840 H   0  0  0  0  0  0  0  0  0  0  0  0
   37.5280   32.8490   40.1740 C   0  0  0  0  0  0  0  0  0  0  0  0
   37.0740   31.5890   40.6140 C   0  0  0  0  0  0  0  0  0  0  0  0
   37.9800   30.7490   41.2640 C   0  0  0  0  0  0  0  0  0  0  0  0
   39.2450   31.1720   41.4440 N   0  0  0  0  0  0  0  0  0  0  0  0
   39.6460   32.3940   41.0060 C   0  0  0  0  0  0  0  0  0  0  0  0
   38.7800   33.2250   40.3720 N   0  0  0  0  0  0  0  0  0  0  0  0
   40.9870   32.8360   41.2000 N   0  0  0  0  0  0  0  0  0  0  0  0
   36.7600   33.4320   39.6830 H   0  0  0  0  0  0  0  0  0  0  0  0
   36.0860   31.1610   40.5180 H   0  0  0  0  0  0  0  0  0  0  0  0
   40.8760   33.2140   42.1650 H   0  0  0  0  0  0  0  0  0  0  0  0
   41.4680   32.5870   40.3010 H   0  0  0  0  0  0  0  0  0  0  0  0
   37.0020   28.7570   39.6300 O   0  0  0  0  0  0  0  0  0  0  0  0
   35.5870   29.7830   37.7020 O   0  0  0  0  0  0  0  0  0  0  0  0
   35.4930   28.7940   38.8290 P   0  0  0  0  0  0  0  0  0  0  0  0
   34.2540   29.2630   39.8790 O   0  0  0  0  0  0  0  0  0  0  0  0
   34.2040   28.6910   40.6740 H   0  0  0  0  0  0  0  0  0  0  0  0
   35.0650   27.2920   38.1860 O   0  0  0  0  0  0  0  0  0  0  0  0
   34.0770   27.2830   38.0590 H   0  0  0  0  0  0  0  0  0  0  0  0
  1  2  1  0  0  0  0
  2  3  2  0  0  0  0
  2  7  1  0  0  0  0
  3  8  1  0  0  0  0
  4  9  1  0  0  0  0
  4  3  1  0  0  0  0
  5  4  2  0  0  0  0
  6  5  1  0  0  0  0
  6  1  2  0  0  0  0
 10  5  1  0  0  0  0
 11 16  2  0  0  0  0
 11 12  1  0  0  0  0
 12 13  2  0  0  0  0
 13 14  1  0  0  0  0
 13  1  1  0  0  0  0
 15 17  1  0  0  0  0
 15 14  2  0  0  0  0
 16 15  1  0  0  0  0
 17 20  1  0  0  0  0
 18 11  1  0  0  0  0
 19 12  1  0  0  0  0
 21 17  1  0  0  0  0
 22  6  1  0  0  0  0
 23 24  2  0  0  0  0
 24 22  1  0  0  0  0
 24 25  1  0  0  0  0
 25 26  1  0  0  0  0
 27 24  1  0  0  0  0
 28 27  1  0  0  0  0
M  END
>  <minimizedAffinity>
-5.19540119

$$$$

 OpenBabel03252505353D

 28 29  0  0  0  0  0  0  0  0999 V2000
   36.5340   28.5900   40.4950 C   0  0  0  0  0  0  0  0  0  0  0  0
   36.8320   27.2980   40.9020 C   0  0  0  0  0  0  0  0  0  0  0  0
   37.3630   27.0210   42.1630 C   0  0  0  0  0  0  0  0  0  0  0  0
   37.6020   28.0570   43.0390 C   0  0  0  0  0  0  0  0  0  0  0  0
   37.3030   29.3230   42.6220 C   0  0  0  0  0  0  0  0  0  0  0  0
   36.7810   29.6170   41.3880 C   0  0  0  0  0  0  0  0  0  0  0  0
   36.6610   26.4510   40.2470 H   0  0  0  0  0  0  0  0  0  0  0  0
   37.5840   25.9890   42.4450 H   0  0  0  0  0  0  0  0  0  0  0  0
   38.0140   27.8760   44.0250 H   0  0  0  0  0  0  0  0  0  0  0  0
   37.4760   30.1630   43.2810 H   0  0  0  0  0  0  0  0  0  0  0  0
   34.1990   29.0110   37.5770 C   0  0  0  0  0  0  0  0  0  0  0  0
   34.6190   28.8260   38.9110 C   0  0  0  0  0  0  0  0  0  0  0  0
   35.9890   28.7750   39.1720 C   0  0  0  0  0  0  0  0  0  0  0  0
   36.8520   28.9040   38.1460 N   0  0  0  0  0  0  0  0  0  0  0  0
   36.4100   29.0810   36.8750 C   0  0  0  0  0  0  0  0  0  0  0  0
   35.0810   29.1330   36.6000 N   0  0  0  0  0  0  0  0  0  0  0  0
   37.3290   29.2170   35.7930 N   0  0  0  0  0  0  0  0  0  0  0  0
   33.1240   29.0380   37.4680 H   0  0  0  0  0  0  0  0  0  0  0  0
   34.0090   28.7130   39.7960 H   0  0  0  0  0  0  0  0  0  0  0  0
   37.5030   30.2410   35.8800 H   0  0  0  0  0  0  0  0  0  0  0  0
   37.4120   28.2440   35.4080 H   0  0  0  0  0  0  0  0  0  0  0  0
   36.4540   30.8730   40.8980 O   0  0  0  0  0  0  0  0  0  0  0  0
   38.7460   32.0430   41.2820 O   0  0  0  0  0  0  0  0  0  0  0  0
   37.6210   31.9630   40.2900 P   0  0  0  0  0  0  0  0  0  0  0  0
   36.9630   33.5030   40.0670 O   0  0  0  0  0  0  0  0  0  0  0  0
   36.1740   33.4890   39.4850 H   0  0  0  0  0  0  0  0  0  0  0  0
   38.2560   31.4670   38.8050 O   0  0  0  0  0  0  0  0  0  0  0  0
   38.6360   32.2690   38.3510 H   0  0  0  0  0  0  0  0  0  0  0  0
  1  2  2  0  0  0  0
  1  6  1  0  0  0  0
  2  3  1  0  0  0  0
  3  8  1  0  0  0  0
  3  4  2  0  0  0  0
  4  9  1  0  0  0  0
  5  4  1  0  0  0  0
  5 10  1  0  0  0  0
  6  5  2  0  0  0  0
  7  2  1  0  0  0  0
 11 12  1  0  0  0  0
 12 13  2  0  0  0  0
 12 19  1  0  0  0  0
 13  1  1  0  0  0  0
 14 13  1  0  0  0  0
 15 14  2  0  0  0  0
 16 15  1  0  0  0  0
 16 11  2  0  0  0  0
 17 20  1  0  0  0  0
 17 15  1  0  0  0  0
 18 11  1  0  0  0  0
 21 17  1  0  0  0  0
 22  6  1  0  0  0  0
 24 22  1  0  0  0  0
 24 23  2  0  0  0  0
 25 24  1  0  0  0  0
 26 25  1  0  0  0  0
 27 24  1  0  0  0  0
 28 27  1  0  0  0  0
M  END
>  <minimizedAffinity>
-5.10233831

$$$$

 OpenBabel03252505353D

 28 29  0  0  0  0  0  0  0  0999 V2000
   36.8730   30.6890   38.9400 C   0  0  0  0  0  0  0  0  0  0  0  0
   36.7070   30.4190   37.5900 C   0  0  0  0  0  0  0  0  0  0  0  0
   35.8690   29.3980   37.1350 C   0  0  0  0  0  0  0  0  0  0  0  0
   35.1820   28.6290   38.0480 C   0  0  0  0  0  0  0  0  0  0  0  0
   35.3580   28.9080   39.3740 C   0  0  0  0  0  0  0  0  0  0  0  0
   36.1750   29.9050   39.8420 C   0  0  0  0  0  0  0  0  0  0  0  0
   37.2250   30.9980   36.8350 H   0  0  0  0  0  0  0  0  0  0  0  0
   35.7650   29.2180   36.0630 H   0  0  0  0  0  0  0  0  0  0  0  0
   34.5250   27.8300   37.7280 H   0  0  0  0  0  0  0  0  0  0  0  0
   34.8360   28.3270   40.1220 H   0  0  0  0  0  0  0  0  0  0  0  0
   38.2760   34.0280   39.9510 C   0  0  0  0  0  0  0  0  0  0  0  0
   37.3180   33.0550   39.5990 C   0  0  0  0  0  0  0  0  0  0  0  0
   37.7610   31.7630   39.3120 C   0  0  0  0  0  0  0  0  0  0  0  0
   39.0790   31.4970   39.3820 N   0  0  0  0  0  0  0  0  0  0  0  0
   39.9720   32.4610   39.7260 C   0  0  0  0  0  0  0  0  0  0  0  0
   39.5610   33.7230   40.0080 N   0  0  0  0  0  0  0  0  0  0  0  0
   41.3670   32.1720   39.7990 N   0  0  0  0  0  0  0  0  0  0  0  0
   37.8450   34.9980   40.1570 H   0  0  0  0  0  0  0  0  0  0  0  0
   36.2460   33.1700   39.5150 H   0  0  0  0  0  0  0  0  0  0  0  0
   41.3870   31.8000   40.7730 H   0  0  0  0  0  0  0  0  0  0  0  0
   41.7330   32.4590   38.8590 H   0  0  0  0  0  0  0  0  0  0  0  0
   36.4030   30.2450   41.1680 O   0  0  0  0  0  0  0  0  0  0  0  0
   37.9230   28.1550   41.4700 O   0  0  0  0  0  0  0  0  0  0  0  0
   37.5550   29.4460   42.1440 P   0  0  0  0  0  0  0  0  0  0  0  0
   36.9330   29.1150   43.6800 O   0  0  0  0  0  0  0  0  0  0  0  0
   36.6060   29.9220   44.1300 H   0  0  0  0  0  0  0  0  0  0  0  0
   38.9630   30.3550   42.3570 O   0  0  0  0  0  0  0  0  0  0  0  0
   39.4200   30.0250   43.1780 H   0  0  0  0  0  0  0  0  0  0  0  0
  1 13  1  0  0  0  0
  1  6  1  0  0  0  0
  2  1  2  0  0  0  0
  3  2  1  0  0  0  0
  3  4  2  0  0  0  0
  4  5  1  0  0  0  0
  5  6  2  0  0  0  0
  5 10  1  0  0  0  0
  6 22  1  0  0  0  0
  7  2  1  0  0  0  0
  8  3  1  0  0  0  0
  9  4  1  0  0  0  0
 11 16  1  0  0  0  0
 11 18  1  0  0  0  0
 12 11  2  0  0  0  0
 13 14  2  0  0  0  0
 13 12  1  0  0  0  0
 14 15  1  0  0  0  0
 15 17  1  0  0  0  0
 15 16  2  0  0  0  0
 17 20  1  0  0  0  0
 19 12  1  0  0  0  0
 21 17  1  0  0  0  0
 22 24  1  0  0  0  0
 23 24  2  0  0  0  0
 24 27  1  0  0  0  0
 24 25  1  0  0  0  0
 25 26  1  0  0  0  0
 27 28  1  0  0  0  0
M  END
>  <minimizedAffinity>
-5.0695858

$$$$

 OpenBabel03252505353D

 28 29  0  0  0  0  0  0  0  0999 V2000
   38.5180   27.9810   40.7640 C   0  0  0  0  0  0  0  0  0  0  0  0
   38.3450   26.6750   41.1950 C   0  0  0  0  0  0  0  0  0  0  0  0
   37.6850   26.3690   42.3880 C   0  0  0  0  0  0  0  0  0  0  0  0
   37.1880   27.3900   43.1670 C   0  0  0  0  0  0  0  0  0  0  0  0
   37.3680   28.6700   42.7270 C   0  0  0  0  0  0  0  0  0  0  0  0
   38.0130   28.9930   41.5600 C   0  0  0  0  0  0  0  0  0  0  0  0
   38.7180   25.8390   40.6150 H   0  0  0  0  0  0  0  0  0  0  0  0
   37.5690   25.3260   42.6920 H   0  0  0  0  0  0  0  0  0  0  0  0
   36.6720   27.1870   44.0980 H   0  0  0  0  0  0  0  0  0  0  0  0
   36.9920   29.5000   43.3110 H   0  0  0  0  0  0  0  0  0  0  0  0
   41.1660   28.5990   38.1650 C   0  0  0  0  0  0  0  0  0  0  0  0
   40.5920   28.3980   39.4380 C   0  0  0  0  0  0  0  0  0  0  0  0
   39.2140   28.1960   39.5180 C   0  0  0  0  0  0  0  0  0  0  0  0
   38.4890   28.2000   38.3830 N   0  0  0  0  0  0  0  0  0  0  0  0
   39.0770   28.3960   37.1750 C   0  0  0  0  0  0  0  0  0  0  0  0
   40.4160   28.5950   37.0760 N   0  0  0  0  0  0  0  0  0  0  0  0
   38.3040   28.3990   35.9770 N   0  0  0  0  0  0  0  0  0  0  0  0
   42.2370   28.7460   38.1980 H   0  0  0  0  0  0  0  0  0  0  0  0
   41.0850   28.3780   40.3990 H   0  0  0  0  0  0  0  0  0  0  0  0
   38.2930   27.3700   35.8100 H   0  0  0  0  0  0  0  0  0  0  0  0
   38.1010   29.4150   35.8100 H   0  0  0  0  0  0  0  0  0  0  0  0
   38.2320   30.2640   41.0510 O   0  0  0  0  0  0  0  0  0  0  0  0
   36.7360   30.9380   39.0320 O   0  0  0  0  0  0  0  0  0  0  0  0
   36.9700   31.2640   40.4790 P   0  0  0  0  0  0  0  0  0  0  0  0
   37.3710   32.8990   40.6240 O   0  0  0  0  0  0  0  0  0  0  0  0
   37.6080   33.1440   41.5430 H   0  0  0  0  0  0  0  0  0  0  0  0
   35.5240   31.0240   41.3200 O   0  0  0  0  0  0  0  0  0  0  0  0
   34.9610   31.8360   41.1990 H   0  0  0  0  0  0  0  0  0  0  0  0
  1  2  2  0  0  0  0
  1  6  1  0  0  0  0
  2  3  1  0  0  0  0
  3  8  1  0  0  0  0
  3  4  2  0  0  0  0
  4  9  1  0  0  0  0
  5  4  1  0  0  0  0
  5 10  1  0  0  0  0
  6  5  2  0  0  0  0
  7  2  1  0  0  0  0
 11 18  1  0  0  0  0
 11 12  1  0  0  0  0
 12 13  2  0  0  0  0
 12 19  1  0  0  0  0
 13  1  1  0  0  0  0
 14 13  1  0  0  0  0
 15 14  2  0  0  0  0
 16 15  1  0  0  0  0
 16 11  2  0  0  0  0
 17 15  1  0  0  0  0
 20 17  1  0  0  0  0
 21 17  1  0  0  0  0
 22  6  1  0  0  0  0
 23 24  2  0  0  0  0
 24 25  1  0  0  0  0
 24 22  1  0  0  0  0
 24 27  1  0  0  0  0
 25 26  1  0  0  0  0
 28 27  1  0  0  0  0
M  END
>  <minimizedAffinity>
-5.06953382

$$$$

 OpenBabel03252505353D

 28 29  0  0  0  0  0  0  0  0999 V2000
   36.7100   26.3270   39.7950 C   0  0  0  0  0  0  0  0  0  0  0  0
   36.2020   25.0770   39.4770 C   0  0  0  0  0  0  0  0  0  0  0  0
   36.3410   23.9810   40.3320 C   0  0  0  0  0  0  0  0  0  0  0  0
   37.0020   24.1360   41.5290 C   0  0  0  0  0  0  0  0  0  0  0  0
   37.4960   25.3750   41.8260 C   0  0  0  0  0  0  0  0  0  0  0  0
   37.3710   26.4640   41.0020 C   0  0  0  0  0  0  0  0  0  0  0  0
   35.6740   24.9060   38.5460 H   0  0  0  0  0  0  0  0  0  0  0  0
   35.9260   23.0120   40.0440 H   0  0  0  0  0  0  0  0  0  0  0  0
   37.1270   23.3060   42.2150 H   0  0  0  0  0  0  0  0  0  0  0  0
   38.0210   25.5370   42.7580 H   0  0  0  0  0  0  0  0  0  0  0  0
   35.3710   29.3140   37.9430 C   0  0  0  0  0  0  0  0  0  0  0  0
   35.4620   28.3070   38.9260 C   0  0  0  0  0  0  0  0  0  0  0  0
   36.5170   27.3970   38.8460 C   0  0  0  0  0  0  0  0  0  0  0  0
   37.4030   27.5160   37.8390 N   0  0  0  0  0  0  0  0  0  0  0  0
   37.2830   28.5000   36.9110 C   0  0  0  0  0  0  0  0  0  0  0  0
   36.2640   29.3940   36.9710 N   0  0  0  0  0  0  0  0  0  0  0  0
   38.2250   28.6200   35.8470 N   0  0  0  0  0  0  0  0  0  0  0  0
   34.5250   29.9730   38.0830 H   0  0  0  0  0  0  0  0  0  0  0  0
   34.8050   28.1300   39.7660 H   0  0  0  0  0  0  0  0  0  0  0  0
   38.9440   29.1790   36.3530 H   0  0  0  0  0  0  0  0  0  0  0  0
   37.7760   28.1010   35.0530 H   0  0  0  0  0  0  0  0  0  0  0  0
   37.8450   27.7460   41.2350 O   0  0  0  0  0  0  0  0  0  0  0  0
   38.3970   29.2580   43.2800 O   0  0  0  0  0  0  0  0  0  0  0  0
   37.2340   28.7480   42.4770 P   0  0  0  0  0  0  0  0  0  0  0  0
   36.1880   27.8940   43.4930 O   0  0  0  0  0  0  0  0  0  0  0  0
   35.4510   27.4750   43.0000 H   0  0  0  0  0  0  0  0  0  0  0  0
   36.3800   30.0750   41.8760 O   0  0  0  0  0  0  0  0  0  0  0  0
   35.7740   30.4020   42.5960 H   0  0  0  0  0  0  0  0  0  0  0  0
  1  6  1  0  0  0  0
  2  1  2  0  0  0  0
  2  3  1  0  0  0  0
  3  4  2  0  0  0  0
  4  5  1  0  0  0  0
  4  9  1  0  0  0  0
  5 10  1  0  0  0  0
  6 22  1  0  0  0  0
  6  5  2  0  0  0  0
  7  2  1  0  0  0  0
  8  3  1  0  0  0  0
 11 18  1  0  0  0  0
 11 12  1  0  0  0  0
 12 19  1  0  0  0  0
 13 12  2  0  0  0  0
 13  1  1  0  0  0  0
 14 13  1  0  0  0  0
 15 16  1  0  0  0  0
 15 14  2  0  0  0  0
 16 11  2  0  0  0  0
 17 20  1  0  0  0  0
 17 15  1  0  0  0  0
 21 17  1  0  0  0  0
 22 24  1  0  0  0  0
 24 23  2  0  0  0  0
 24 25  1  0  0  0  0
 26 25  1  0  0  0  0
 27 24  1  0  0  0  0
 27 28  1  0  0  0  0
M  END
>  <minimizedAffinity>
-5.0260253

$$$$

 OpenBabel03252505353D

 28 29  0  0  0  0  0  0  0  0999 V2000
   37.8800   29.1040   41.8540 C   0  0  0  0  0  0  0  0  0  0  0  0
   37.5380   28.9350   43.1870 C   0  0  0  0  0  0  0  0  0  0  0  0
   37.0310   27.7290   43.6760 C   0  0  0  0  0  0  0  0  0  0  0  0
   36.8620   26.6680   42.8160 C   0  0  0  0  0  0  0  0  0  0  0  0
   37.2040   26.8510   41.5060 C   0  0  0  0  0  0  0  0  0  0  0  0
   37.7020   28.0260   41.0050 C   0  0  0  0  0  0  0  0  0  0  0  0
   37.6540   29.7420   43.9010 H   0  0  0  0  0  0  0  0  0  0  0  0
   36.7740   27.6380   44.7340 H   0  0  0  0  0  0  0  0  0  0  0  0
   36.4710   25.7190   43.1630 H   0  0  0  0  0  0  0  0  0  0  0  0
   37.0860   26.0410   40.7990 H   0  0  0  0  0  0  0  0  0  0  0  0
   40.1310   32.0250   41.1180 C   0  0  0  0  0  0  0  0  0  0  0  0
   39.7400   30.7410   41.5510 C   0  0  0  0  0  0  0  0  0  0  0  0
   38.3940   30.3880   41.4430 C   0  0  0  0  0  0  0  0  0  0  0  0
   37.5260   31.2820   40.9330 N   0  0  0  0  0  0  0  0  0  0  0  0
   37.9410   32.5090   40.5260 C   0  0  0  0  0  0  0  0  0  0  0  0
   39.2450   32.8720   40.6230 N   0  0  0  0  0  0  0  0  0  0  0  0
   37.0160   33.4510   39.9870 N   0  0  0  0  0  0  0  0  0  0  0  0
   41.1900   32.2120   41.2380 H   0  0  0  0  0  0  0  0  0  0  0  0
   40.3570   29.9590   41.9710 H   0  0  0  0  0  0  0  0  0  0  0  0
   37.0280   33.1160   39.0000 H   0  0  0  0  0  0  0  0  0  0  0  0
   36.7490   34.0430   40.8110 H   0  0  0  0  0  0  0  0  0  0  0  0
   38.0690   28.2850   39.6920 O   0  0  0  0  0  0  0  0  0  0  0  0
   36.1360   27.3220   38.2400 O   0  0  0  0  0  0  0  0  0  0  0  0
   36.9310   28.5800   38.4530 P   0  0  0  0  0  0  0  0  0  0  0  0
   37.6950   29.0070   37.0080 O   0  0  0  0  0  0  0  0  0  0  0  0
   38.2890   29.7800   37.1160 H   0  0  0  0  0  0  0  0  0  0  0  0
   35.8590   29.8260   38.8430 O   0  0  0  0  0  0  0  0  0  0  0  0
   35.4770   30.1790   37.9940 H   0  0  0  0  0  0  0  0  0  0  0  0
  1  2  1  0  0  0  0
  2  3  2  0  0  0  0
  2  7  1  0  0  0  0
  3  8  1  0  0  0  0
  4  9  1  0  0  0  0
  4  3  1  0  0  0  0
  5  4  2  0  0  0  0
  6  5  1  0  0  0  0
  6  1  2  0  0  0  0
 10  5  1  0  0  0  0
 11 18  1  0  0  0  0
 11 12  1  0  0  0  0
 12 19  1  0  0  0  0
 13 12  2  0  0  0  0
 13  1  1  0  0  0  0
 14 13  1  0  0  0  0
 15 16  1  0  0  0  0
 15 14  2  0  0  0  0
 16 11  2  0  0  0  0
 17 15  1  0  0  0  0
 17 21  1  0  0  0  0
 20 17  1  0  0  0  0
 22  6  1  0  0  0  0
 23 24  2  0  0  0  0
 24 27  1  0  0  0  0
 24 22  1  0  0  0  0
 25 26  1  0  0  0  0
 25 24  1  0  0  0  0
 28 27  1  0  0  0  0
M  END
>  <minimizedAffinity>
-4.99640036

$$$$
