
 OpenBabel03252501023D

 23 24  0  0  1  0  0  0  0  0999 V2000
   39.1980   30.3780   42.8780 C   0  0  1  0  0  0  0  0  0  0  0  0
   40.4530   30.5220   42.0610 C   0  0  0  0  0  0  0  0  0  0  0  0
   39.1500   31.1530   41.6360 C   0  0  1  0  0  0  0  0  0  0  0  0
   39.2660   30.7580   43.9060 H   0  0  0  0  0  0  0  0  0  0  0  0
   40.8650   29.6490   41.5910 H   0  0  0  0  0  0  0  0  0  0  0  0
   41.2250   31.2100   42.4630 H   0  0  0  0  0  0  0  0  0  0  0  0
   39.1110   32.2780   41.7190 H   0  0  0  0  0  0  0  0  0  0  0  0
   38.7860   26.6400   42.5500 C   0  0  0  0  0  0  0  0  0  0  0  0
   39.4260   27.8920   42.5540 C   0  0  0  0  0  0  0  0  0  0  0  0
   38.6190   28.9900   42.8290 C   0  0  0  0  0  0  0  0  0  0  0  0
   37.2790   28.8160   43.0760 N   0  0  0  0  0  0  0  0  0  0  0  0
   36.7020   27.6030   43.0640 C   0  0  0  0  0  0  0  0  0  0  0  0
   37.4620   26.5170   42.8000 N   0  0  0  0  0  0  0  0  0  0  0  0
   39.4280   25.7960   42.3340 H   0  0  0  0  0  0  0  0  0  0  0  0
   40.4690   28.0340   42.3630 H   0  0  0  0  0  0  0  0  0  0  0  0
   35.6470   27.4920   43.2630 H   0  0  0  0  0  0  0  0  0  0  0  0
   38.3760   30.6810   40.6420 O   0  0  0  0  0  0  0  0  0  0  0  0
   36.4160   31.1380   38.8880 O   0  0  0  0  0  0  0  0  0  0  0  0
   36.9870   31.4450   40.2390 P   0  0  0  0  0  0  0  0  0  0  0  0
   37.0740   33.1330   40.3720 O   0  0  0  0  0  0  0  0  0  0  0  0
   36.2490   33.4860   39.9390 H   0  0  0  0  0  0  0  0  0  0  0  0
   35.7890   30.9630   41.3540 O   0  0  0  0  0  0  0  0  0  0  0  0
   36.2290   30.8060   42.2220 H   0  0  0  0  0  0  0  0  0  0  0  0
  1  4  1  1  0  0  0
  2  6  1  0  0  0  0
  2  1  1  0  0  0  0
  3  7  1  1  0  0  0
  3  2  1  0  0  0  0
  3  1  1  0  0  0  0
  5  2  1  0  0  0  0
  8  9  2  0  0  0  0
  8 13  1  0  0  0  0
  9 10  1  0  0  0  0
 10  1  1  0  0  0  0
 10 11  2  0  0  0  0
 12 11  1  0  0  0  0
 12 16  1  0  0  0  0
 13 12  2  0  0  0  0
 14  8  1  0  0  0  0
 15  9  1  0  0  0  0
 17  3  1  0  0  0  0
 18 19  2  0  0  0  0
 19 20  1  0  0  0  0
 19 17  1  0  0  0  0
 19 22  1  0  0  0  0
 21 20  1  0  0  0  0
 22 23  1  0  0  0  0
M  END
>  <minimizedAffinity>
-4.6960001

$$$$

 OpenBabel03252501023D

 23 24  0  0  1  0  0  0  0  0999 V2000
   37.3760   27.3970   43.2540 C   0  0  1  0  0  0  0  0  0  0  0  0
   38.3140   28.5590   43.0740 C   0  0  0  0  0  0  0  0  0  0  0  0
   36.8980   28.5930   42.5570 C   0  0  1  0  0  0  0  0  0  0  0  0
   37.1900   27.1060   44.2960 H   0  0  0  0  0  0  0  0  0  0  0  0
   39.1700   28.4370   42.4380 H   0  0  0  0  0  0  0  0  0  0  0  0
   38.5230   29.1670   43.9780 H   0  0  0  0  0  0  0  0  0  0  0  0
   36.1980   29.2820   43.1130 H   0  0  0  0  0  0  0  0  0  0  0  0
   37.2780   24.1030   41.4110 C   0  0  0  0  0  0  0  0  0  0  0  0
   36.8500   25.1500   42.2480 C   0  0  0  0  0  0  0  0  0  0  0  0
   37.7330   26.2140   42.3960 C   0  0  0  0  0  0  0  0  0  0  0  0
   38.9430   26.2010   41.7440 N   0  0  0  0  0  0  0  0  0  0  0  0
   39.3160   25.1840   40.9510 C   0  0  0  0  0  0  0  0  0  0  0  0
   38.4770   24.1360   40.7880 N   0  0  0  0  0  0  0  0  0  0  0  0
   36.5790   23.2830   41.3070 H   0  0  0  0  0  0  0  0  0  0  0  0
   35.9100   25.1650   42.7590 H   0  0  0  0  0  0  0  0  0  0  0  0
   40.2710   25.1980   40.4480 H   0  0  0  0  0  0  0  0  0  0  0  0
   36.5690   28.4620   41.2590 O   0  0  0  0  0  0  0  0  0  0  0  0
   36.3630   30.0580   39.1290 O   0  0  0  0  0  0  0  0  0  0  0  0
   35.8120   29.6780   40.4700 P   0  0  0  0  0  0  0  0  0  0  0  0
   35.6810   31.1040   41.3780 O   0  0  0  0  0  0  0  0  0  0  0  0
   35.3730   31.8070   40.7430 H   0  0  0  0  0  0  0  0  0  0  0  0
   34.2070   29.1820   40.1700 O   0  0  0  0  0  0  0  0  0  0  0  0
   33.9250   28.6030   40.9170 H   0  0  0  0  0  0  0  0  0  0  0  0
  1  4  1  1  0  0  0
  2  1  1  0  0  0  0
  2  6  1  0  0  0  0
  3  2  1  0  0  0  0
  3  7  1  1  0  0  0
  3  1  1  0  0  0  0
  5  2  1  0  0  0  0
  8  9  1  0  0  0  0
  9 10  2  0  0  0  0
  9 15  1  0  0  0  0
 10  1  1  0  0  0  0
 11 10  1  0  0  0  0
 12 11  2  0  0  0  0
 13 12  1  0  0  0  0
 13  8  2  0  0  0  0
 14  8  1  0  0  0  0
 16 12  1  0  0  0  0
 17  3  1  0  0  0  0
 18 19  2  0  0  0  0
 19 17  1  0  0  0  0
 19 20  1  0  0  0  0
 21 20  1  0  0  0  0
 22 19  1  0  0  0  0
 22 23  1  0  0  0  0
M  END
>  <minimizedAffinity>
-4.62362432

$$$$

 OpenBabel03252501023D

 23 24  0  0  1  0  0  0  0  0999 V2000
   37.0450   26.7300   42.4510 C   0  0  1  0  0  0  0  0  0  0  0  0
   36.5200   27.5430   43.6020 C   0  0  0  0  0  0  0  0  0  0  0  0
   36.5920   28.1000   42.2020 C   0  0  1  0  0  0  0  0  0  0  0  0
   36.5010   25.7960   42.2540 H   0  0  0  0  0  0  0  0  0  0  0  0
   37.1980   27.8270   44.3840 H   0  0  0  0  0  0  0  0  0  0  0  0
   35.5090   27.2750   43.9740 H   0  0  0  0  0  0  0  0  0  0  0  0
   35.5970   28.2420   41.6880 H   0  0  0  0  0  0  0  0  0  0  0  0
   40.6240   26.5230   43.6310 C   0  0  0  0  0  0  0  0  0  0  0  0
   39.2420   26.7780   43.6780 C   0  0  0  0  0  0  0  0  0  0  0  0
   38.5320   26.5120   42.5130 C   0  0  0  0  0  0  0  0  0  0  0  0
   39.1830   26.0280   41.4030 N   0  0  0  0  0  0  0  0  0  0  0  0
   40.5060   25.7960   41.3970 C   0  0  0  0  0  0  0  0  0  0  0  0
   41.2230   26.0450   42.5160 N   0  0  0  0  0  0  0  0  0  0  0  0
   41.1630   26.7360   44.5450 H   0  0  0  0  0  0  0  0  0  0  0  0
   38.7300   27.1550   44.5380 H   0  0  0  0  0  0  0  0  0  0  0  0
   40.9940   25.4140   40.5130 H   0  0  0  0  0  0  0  0  0  0  0  0
   37.5140   28.9920   41.7950 O   0  0  0  0  0  0  0  0  0  0  0  0
   38.0300   31.4800   40.9770 O   0  0  0  0  0  0  0  0  0  0  0  0
   37.0640   30.3340   40.9770 P   0  0  0  0  0  0  0  0  0  0  0  0
   35.5580   30.9520   41.4540 O   0  0  0  0  0  0  0  0  0  0  0  0
   35.4790   31.8470   41.0230 H   0  0  0  0  0  0  0  0  0  0  0  0
   36.8780   29.9040   39.3360 O   0  0  0  0  0  0  0  0  0  0  0  0
   36.5590   28.9720   39.3030 H   0  0  0  0  0  0  0  0  0  0  0  0
  1  4  1  6  0  0  0
  1 10  1  0  0  0  0
  1  2  1  0  0  0  0
  2  6  1  0  0  0  0
  2  5  1  0  0  0  0
  3  7  1  6  0  0  0
  3  1  1  0  0  0  0
  3  2  1  0  0  0  0
  8  9  1  0  0  0  0
  8 14  1  0  0  0  0
  9 15  1  0  0  0  0
 10  9  2  0  0  0  0
 11 10  1  0  0  0  0
 12 11  2  0  0  0  0
 12 13  1  0  0  0  0
 13  8  2  0  0  0  0
 16 12  1  0  0  0  0
 17  3  1  0  0  0  0
 19 18  2  0  0  0  0
 19 20  1  0  0  0  0
 19 17  1  0  0  0  0
 21 20  1  0  0  0  0
 22 19  1  0  0  0  0
 23 22  1  0  0  0  0
M  END
>  <minimizedAffinity>
-4.44578457

$$$$

 OpenBabel03252501023D

 23 24  0  0  1  0  0  0  0  0999 V2000
   36.8020   29.0780   39.9920 C   0  0  1  0  0  0  0  0  0  0  0  0
   35.4160   29.6070   40.2420 C   0  0  0  0  0  0  0  0  0  0  0  0
   36.5630   30.5180   39.8820 C   0  0  1  0  0  0  0  0  0  0  0  0
   36.8790   28.3450   39.1770 H   0  0  0  0  0  0  0  0  0  0  0  0
   35.0100   29.5370   41.2340 H   0  0  0  0  0  0  0  0  0  0  0  0
   34.6660   29.4210   39.4460 H   0  0  0  0  0  0  0  0  0  0  0  0
   36.5150   30.9680   38.8480 H   0  0  0  0  0  0  0  0  0  0  0  0
   37.4870   27.7050   43.4410 C   0  0  0  0  0  0  0  0  0  0  0  0
   36.7460   28.1430   42.3280 C   0  0  0  0  0  0  0  0  0  0  0  0
   37.4860   28.6000   41.2430 C   0  0  0  0  0  0  0  0  0  0  0  0
   38.8590   28.6050   41.2980 N   0  0  0  0  0  0  0  0  0  0  0  0
   39.5320   28.1770   42.3780 C   0  0  0  0  0  0  0  0  0  0  0  0
   38.8400   27.7270   43.4490 N   0  0  0  0  0  0  0  0  0  0  0  0
   36.8970   27.3530   44.2770 H   0  0  0  0  0  0  0  0  0  0  0  0
   35.6780   28.1420   42.2800 H   0  0  0  0  0  0  0  0  0  0  0  0
   40.6120   28.1900   42.3960 H   0  0  0  0  0  0  0  0  0  0  0  0
   37.1920   31.3180   40.7630 O   0  0  0  0  0  0  0  0  0  0  0  0
   38.9160   32.4940   39.0990 O   0  0  0  0  0  0  0  0  0  0  0  0
   37.9740   32.6600   40.2520 P   0  0  0  0  0  0  0  0  0  0  0  0
   38.8260   33.4620   41.4800 O   0  0  0  0  0  0  0  0  0  0  0  0
   39.3920   34.1420   41.0220 H   0  0  0  0  0  0  0  0  0  0  0  0
   36.7980   33.7730   39.7150 O   0  0  0  0  0  0  0  0  0  0  0  0
   35.9900   33.6480   40.2650 H   0  0  0  0  0  0  0  0  0  0  0  0
  1  4  1  6  0  0  0
  1  2  1  0  0  0  0
  1 10  1  0  0  0  0
  2  5  1  0  0  0  0
  3  7  1  6  0  0  0
  3  1  1  0  0  0  0
  3  2  1  0  0  0  0
  3 17  1  0  0  0  0
  6  2  1  0  0  0  0
  8 13  1  0  0  0  0
  8 14  1  0  0  0  0
  9  8  2  0  0  0  0
 10 11  2  0  0  0  0
 10  9  1  0  0  0  0
 11 12  1  0  0  0  0
 12 16  1  0  0  0  0
 12 13  2  0  0  0  0
 15  9  1  0  0  0  0
 18 19  2  0  0  0  0
 19 17  1  0  0  0  0
 19 20  1  0  0  0  0
 21 20  1  0  0  0  0
 22 19  1  0  0  0  0
 22 23  1  0  0  0  0
M  END
>  <minimizedAffinity>
-4.36172199

$$$$

 OpenBabel03252501023D

 23 24  0  0  1  0  0  0  0  0999 V2000
   37.1500   31.5340   37.9930 C   0  0  1  0  0  0  0  0  0  0  0  0
   37.5470   30.3910   37.0990 C   0  0  0  0  0  0  0  0  0  0  0  0
   36.5600   30.2140   38.2260 C   0  0  1  0  0  0  0  0  0  0  0  0
   36.6960   32.3920   37.4780 H   0  0  0  0  0  0  0  0  0  0  0  0
   38.5580   30.0330   37.1410 H   0  0  0  0  0  0  0  0  0  0  0  0
   37.1270   30.4000   36.0730 H   0  0  0  0  0  0  0  0  0  0  0  0
   35.4890   30.0510   37.9070 H   0  0  0  0  0  0  0  0  0  0  0  0
   40.5230   32.1410   39.5750 C   0  0  0  0  0  0  0  0  0  0  0  0
   39.5780   31.6860   38.6380 C   0  0  0  0  0  0  0  0  0  0  0  0
   38.2470   31.9580   38.9310 C   0  0  0  0  0  0  0  0  0  0  0  0
   37.9180   32.6360   40.0810 N   0  0  0  0  0  0  0  0  0  0  0  0
   38.8500   33.0560   40.9520 C   0  0  0  0  0  0  0  0  0  0  0  0
   40.1530   32.8060   40.6930 N   0  0  0  0  0  0  0  0  0  0  0  0
   41.5540   31.9210   39.3330 H   0  0  0  0  0  0  0  0  0  0  0  0
   39.8280   31.1580   37.7420 H   0  0  0  0  0  0  0  0  0  0  0  0
   38.5660   33.5880   41.8480 H   0  0  0  0  0  0  0  0  0  0  0  0
   36.8500   29.6040   39.3890 O   0  0  0  0  0  0  0  0  0  0  0  0
   35.9510   28.4540   41.6250 O   0  0  0  0  0  0  0  0  0  0  0  0
   35.7250   29.4970   40.5720 P   0  0  0  0  0  0  0  0  0  0  0  0
   34.1450   29.2870   39.9930 O   0  0  0  0  0  0  0  0  0  0  0  0
   33.5890   29.0590   40.7880 H   0  0  0  0  0  0  0  0  0  0  0  0
   35.7090   30.9830   41.4080 O   0  0  0  0  0  0  0  0  0  0  0  0
   35.9210   31.6960   40.7620 H   0  0  0  0  0  0  0  0  0  0  0  0
  1  4  1  6  0  0  0
  1  3  1  0  0  0  0
  1 10  1  0  0  0  0
  2  5  1  0  0  0  0
  2  1  1  0  0  0  0
  2  3  1  0  0  0  0
  3  7  1  6  0  0  0
  3 17  1  0  0  0  0
  6  2  1  0  0  0  0
  8 13  1  0  0  0  0
  9 10  1  0  0  0  0
  9  8  2  0  0  0  0
 10 11  2  0  0  0  0
 11 12  1  0  0  0  0
 12 16  1  0  0  0  0
 13 12  2  0  0  0  0
 14  8  1  0  0  0  0
 15  9  1  0  0  0  0
 17 19  1  0  0  0  0
 19 22  1  0  0  0  0
 19 18  2  0  0  0  0
 20 19  1  0  0  0  0
 20 21  1  0  0  0  0
 23 22  1  0  0  0  0
M  END
>  <minimizedAffinity>
-4.3017683

$$$$

 OpenBabel03252501023D

 23 24  0  0  1  0  0  0  0  0999 V2000
   35.6370   29.0430   40.3670 C   0  0  1  0  0  0  0  0  0  0  0  0
   35.9420   27.7700   39.6260 C   0  0  0  0  0  0  0  0  0  0  0  0
   36.4970   28.0430   41.0010 C   0  0  1  0  0  0  0  0  0  0  0  0
   34.5700   29.2280   40.5540 H   0  0  0  0  0  0  0  0  0  0  0  0
   36.5330   27.8250   38.7310 H   0  0  0  0  0  0  0  0  0  0  0  0
   35.1200   27.0270   39.5640 H   0  0  0  0  0  0  0  0  0  0  0  0
   36.0560   27.4180   41.8310 H   0  0  0  0  0  0  0  0  0  0  0  0
   37.1860   32.4530   39.8950 C   0  0  0  0  0  0  0  0  0  0  0  0
   36.5230   31.3930   40.5390 C   0  0  0  0  0  0  0  0  0  0  0  0
   36.3210   30.2470   39.7790 C   0  0  0  0  0  0  0  0  0  0  0  0
   36.7600   30.1960   38.4770 N   0  0  0  0  0  0  0  0  0  0  0  0
   37.3920   31.2290   37.8970 C   0  0  0  0  0  0  0  0  0  0  0  0
   37.6030   32.3570   38.6120 N   0  0  0  0  0  0  0  0  0  0  0  0
   37.3360   33.3380   40.5000 H   0  0  0  0  0  0  0  0  0  0  0  0
   36.1780   31.4270   41.5510 H   0  0  0  0  0  0  0  0  0  0  0  0
   37.7290   31.1640   36.8730 H   0  0  0  0  0  0  0  0  0  0  0  0
   37.7750   28.3890   41.2400 O   0  0  0  0  0  0  0  0  0  0  0  0
   39.1400   29.9750   42.8970 O   0  0  0  0  0  0  0  0  0  0  0  0
   38.2620   28.7690   42.7540 P   0  0  0  0  0  0  0  0  0  0  0  0
   39.0310   27.4940   43.5640 O   0  0  0  0  0  0  0  0  0  0  0  0
   39.4310   27.8910   44.3860 H   0  0  0  0  0  0  0  0  0  0  0  0
   36.8680   29.1170   43.6750 O   0  0  0  0  0  0  0  0  0  0  0  0
   36.1350   28.5500   43.3400 H   0  0  0  0  0  0  0  0  0  0  0  0
  1  4  1  1  0  0  0
  1  3  1  0  0  0  0
  2  1  1  0  0  0  0
  2  3  1  0  0  0  0
  3 17  1  0  0  0  0
  3  7  1  1  0  0  0
  5  2  1  0  0  0  0
  6  2  1  0  0  0  0
  8 14  1  0  0  0  0
  8  9  1  0  0  0  0
  9 15  1  0  0  0  0
 10  1  1  0  0  0  0
 10  9  2  0  0  0  0
 11 10  1  0  0  0  0
 12 11  2  0  0  0  0
 12 13  1  0  0  0  0
 13  8  2  0  0  0  0
 16 12  1  0  0  0  0
 17 19  1  0  0  0  0
 19 18  2  0  0  0  0
 19 20  1  0  0  0  0
 19 22  1  0  0  0  0
 20 21  1  0  0  0  0
 23 22  1  0  0  0  0
M  END
>  <minimizedAffinity>
-4.17124462

$$$$

 OpenBabel03252501023D

 23 24  0  0  1  0  0  0  0  0999 V2000
   37.3840   31.2890   38.0880 C   0  0  1  0  0  0  0  0  0  0  0  0
   38.1880   30.0840   37.6810 C   0  0  0  0  0  0  0  0  0  0  0  0
   37.1340   30.0110   38.7570 C   0  0  1  0  0  0  0  0  0  0  0  0
   36.7990   31.7520   37.2820 H   0  0  0  0  0  0  0  0  0  0  0  0
   39.2410   30.0740   37.8870 H   0  0  0  0  0  0  0  0  0  0  0  0
   37.9280   29.6260   36.7040 H   0  0  0  0  0  0  0  0  0  0  0  0
   36.1980   29.4440   38.4780 H   0  0  0  0  0  0  0  0  0  0  0  0
   38.4110   34.1570   40.3180 C   0  0  0  0  0  0  0  0  0  0  0  0
   37.5620   33.2670   39.6350 C   0  0  0  0  0  0  0  0  0  0  0  0
   38.1890   32.3040   38.8520 C   0  0  0  0  0  0  0  0  0  0  0  0
   39.5610   32.2610   38.7790 N   0  0  0  0  0  0  0  0  0  0  0  0
   40.3390   33.1280   39.4480 C   0  0  0  0  0  0  0  0  0  0  0  0
   39.7570   34.0750   40.2180 N   0  0  0  0  0  0  0  0  0  0  0  0
   37.9070   34.9000   40.9230 H   0  0  0  0  0  0  0  0  0  0  0  0
   36.4950   33.2960   39.6870 H   0  0  0  0  0  0  0  0  0  0  0  0
   41.4150   33.0720   39.3760 H   0  0  0  0  0  0  0  0  0  0  0  0
   37.4070   29.9380   40.0730 O   0  0  0  0  0  0  0  0  0  0  0  0
   36.5640   27.6260   41.1060 O   0  0  0  0  0  0  0  0  0  0  0  0
   36.4160   29.1170   41.0810 P   0  0  0  0  0  0  0  0  0  0  0  0
   34.7710   29.4500   40.8410 O   0  0  0  0  0  0  0  0  0  0  0  0
   34.2720   28.7740   41.3760 H   0  0  0  0  0  0  0  0  0  0  0  0
   36.7550   29.6280   42.6730 O   0  0  0  0  0  0  0  0  0  0  0  0
   37.0210   30.5770   42.6350 H   0  0  0  0  0  0  0  0  0  0  0  0
  1  4  1  6  0  0  0
  1  3  1  0  0  0  0
  1 10  1  0  0  0  0
  2  5  1  0  0  0  0
  2  1  1  0  0  0  0
  2  3  1  0  0  0  0
  3  7  1  6  0  0  0
  3 17  1  0  0  0  0
  6  2  1  0  0  0  0
  8 14  1  0  0  0  0
  9 15  1  0  0  0  0
  9  8  2  0  0  0  0
 10  9  1  0  0  0  0
 11 10  2  0  0  0  0
 11 12  1  0  0  0  0
 12 13  2  0  0  0  0
 13  8  1  0  0  0  0
 16 12  1  0  0  0  0
 17 19  1  0  0  0  0
 19 18  2  0  0  0  0
 19 22  1  0  0  0  0
 20 19  1  0  0  0  0
 20 21  1  0  0  0  0
 23 22  1  0  0  0  0
M  END
>  <minimizedAffinity>
-4.17086935

$$$$

 OpenBabel03252501023D

 23 24  0  0  1  0  0  0  0  0999 V2000
   36.9910   29.5470   40.0030 C   0  0  1  0  0  0  0  0  0  0  0  0
   35.8140   30.3650   40.4610 C   0  0  0  0  0  0  0  0  0  0  0  0
   37.0120   30.9970   39.7960 C   0  0  1  0  0  0  0  0  0  0  0  0
   36.7560   28.7660   39.2670 H   0  0  0  0  0  0  0  0  0  0  0  0
   35.6190   30.4400   41.5140 H   0  0  0  0  0  0  0  0  0  0  0  0
   34.8930   30.2890   39.8480 H   0  0  0  0  0  0  0  0  0  0  0  0
   36.8340   31.3830   38.7510 H   0  0  0  0  0  0  0  0  0  0  0  0
   39.7730   28.0230   42.0480 C   0  0  0  0  0  0  0  0  0  0  0  0
   39.0790   28.4760   40.9120 C   0  0  0  0  0  0  0  0  0  0  0  0
   37.8190   29.0160   41.1410 C   0  0  0  0  0  0  0  0  0  0  0  0
   37.3190   29.0830   42.4190 N   0  0  0  0  0  0  0  0  0  0  0  0
   38.0130   28.6410   43.4810 C   0  0  0  0  0  0  0  0  0  0  0  0
   39.2420   28.1110   43.2890 N   0  0  0  0  0  0  0  0  0  0  0  0
   40.7530   27.6050   41.8530 H   0  0  0  0  0  0  0  0  0  0  0  0
   39.4620   28.4250   39.9150 H   0  0  0  0  0  0  0  0  0  0  0  0
   37.5990   28.7070   44.4760 H   0  0  0  0  0  0  0  0  0  0  0  0
   37.9510   31.7010   40.4530 O   0  0  0  0  0  0  0  0  0  0  0  0
   37.1310   34.0410   39.4650 O   0  0  0  0  0  0  0  0  0  0  0  0
   38.2690   33.2500   40.0350 P   0  0  0  0  0  0  0  0  0  0  0  0
   39.5750   33.4140   38.9660 O   0  0  0  0  0  0  0  0  0  0  0  0
   39.5560   34.3590   38.6520 H   0  0  0  0  0  0  0  0  0  0  0  0
   38.7320   34.0850   41.4490 O   0  0  0  0  0  0  0  0  0  0  0  0
   39.2050   33.4480   42.0340 H   0  0  0  0  0  0  0  0  0  0  0  0
  1  4  1  6  0  0  0
  1  2  1  0  0  0  0
  1 10  1  0  0  0  0
  2  5  1  0  0  0  0
  3  7  1  6  0  0  0
  3  1  1  0  0  0  0
  3 17  1  0  0  0  0
  3  2  1  0  0  0  0
  6  2  1  0  0  0  0
  8 13  1  0  0  0  0
  9 10  1  0  0  0  0
  9  8  2  0  0  0  0
 10 11  2  0  0  0  0
 11 12  1  0  0  0  0
 12 16  1  0  0  0  0
 13 12  2  0  0  0  0
 14  8  1  0  0  0  0
 15  9  1  0  0  0  0
 18 19  2  0  0  0  0
 19 17  1  0  0  0  0
 19 22  1  0  0  0  0
 20 19  1  0  0  0  0
 21 20  1  0  0  0  0
 22 23  1  0  0  0  0
M  END
>  <minimizedAffinity>
-4.11245918

$$$$

 OpenBabel03252501023D

 23 24  0  0  1  0  0  0  0  0999 V2000
   35.5820   29.9830   40.2770 C   0  0  1  0  0  0  0  0  0  0  0  0
   35.3420   28.8280   39.3430 C   0  0  0  0  0  0  0  0  0  0  0  0
   35.7610   28.6170   40.7770 C   0  0  1  0  0  0  0  0  0  0  0  0
   34.7200   30.6460   40.4280 H   0  0  0  0  0  0  0  0  0  0  0  0
   36.0070   28.6930   38.5100 H   0  0  0  0  0  0  0  0  0  0  0  0
   34.2840   28.6030   39.1010 H   0  0  0  0  0  0  0  0  0  0  0  0
   34.9630   28.1950   41.4540 H   0  0  0  0  0  0  0  0  0  0  0  0
   38.5300   31.5050   38.4760 C   0  0  0  0  0  0  0  0  0  0  0  0
   37.3670   30.7370   38.6710 C   0  0  0  0  0  0  0  0  0  0  0  0
   36.8330   30.7520   39.9550 C   0  0  0  0  0  0  0  0  0  0  0  0
   37.4400   31.4880   40.9450 N   0  0  0  0  0  0  0  0  0  0  0  0
   38.5500   32.2100   40.7200 C   0  0  0  0  0  0  0  0  0  0  0  0
   39.0910   32.2150   39.4810 N   0  0  0  0  0  0  0  0  0  0  0  0
   38.9320   31.4820   37.4710 H   0  0  0  0  0  0  0  0  0  0  0  0
   36.8910   30.1630   37.9050 H   0  0  0  0  0  0  0  0  0  0  0  0
   39.0060   32.7810   41.5140 H   0  0  0  0  0  0  0  0  0  0  0  0
   37.0010   28.2540   41.1510 O   0  0  0  0  0  0  0  0  0  0  0  0
   38.5020   27.1320   43.0520 O   0  0  0  0  0  0  0  0  0  0  0  0
   37.3630   28.0520   42.7330 P   0  0  0  0  0  0  0  0  0  0  0  0
   36.0440   27.5580   43.6770 O   0  0  0  0  0  0  0  0  0  0  0  0
   36.4210   27.3010   44.5630 H   0  0  0  0  0  0  0  0  0  0  0  0
   37.8250   29.5710   43.3580 O   0  0  0  0  0  0  0  0  0  0  0  0
   37.3090   30.2630   42.8810 H   0  0  0  0  0  0  0  0  0  0  0  0
  1  4  1  1  0  0  0
  1  3  1  0  0  0  0
  2  1  1  0  0  0  0
  2  3  1  0  0  0  0
  3 17  1  0  0  0  0
  3  7  1  1  0  0  0
  5  2  1  0  0  0  0
  6  2  1  0  0  0  0
  8  9  2  0  0  0  0
  8 13  1  0  0  0  0
  9 10  1  0  0  0  0
 10  1  1  0  0  0  0
 10 11  2  0  0  0  0
 12 11  1  0  0  0  0
 12 16  1  0  0  0  0
 13 12  2  0  0  0  0
 14  8  1  0  0  0  0
 15  9  1  0  0  0  0
 17 19  1  0  0  0  0
 19 18  2  0  0  0  0
 19 22  1  0  0  0  0
 19 20  1  0  0  0  0
 20 21  1  0  0  0  0
 23 22  1  0  0  0  0
M  END
>  <minimizedAffinity>
-4.07778502

$$$$
