
 OpenBabel03252508513D

 26 27  0  0  0  0  0  0  0  0999 V2000
   46.0770   34.1780   40.9990 C   0  0  0  0  0  0  0  0  0  0  0  0
   46.6160   34.8410   42.0970 C   0  0  0  0  0  0  0  0  0  0  0  0
   47.9430   35.2750   41.9960 C   0  0  0  0  0  0  0  0  0  0  0  0
   48.6130   35.0230   40.8420 N   0  0  0  0  0  0  0  0  0  0  0  0
   48.0600   34.3820   39.8070 C   0  0  0  0  0  0  0  0  0  0  0  0
   46.7800   33.9560   39.8890 N   0  0  0  0  0  0  0  0  0  0  0  0
   48.3910   35.7970   42.8390 H   0  0  0  0  0  0  0  0  0  0  0  0
   48.6980   34.2470   38.9560 H   0  0  0  0  0  0  0  0  0  0  0  0
   45.8030   35.0600   43.2930 C   0  0  0  0  0  0  0  0  0  0  0  0
   45.0490   36.1920   43.4990 C   0  0  0  0  0  0  0  0  0  0  0  0
   44.4630   35.9710   44.7270 C   0  0  0  0  0  0  0  0  0  0  0  0
   44.8380   34.7750   45.2400 N   0  0  0  0  0  0  0  0  0  0  0  0
   45.6460   34.2480   44.3520 N   0  0  0  0  0  0  0  0  0  0  0  0
   44.8960   37.0720   42.9100 H   0  0  0  0  0  0  0  0  0  0  0  0
   43.7760   36.5800   45.3260 H   0  0  0  0  0  0  0  0  0  0  0  0
   44.6290   34.2550   46.1060 H   0  0  0  0  0  0  0  0  0  0  0  0
   44.7670   33.7440   41.0860 O   0  0  0  0  0  0  0  0  0  0  0  0
   43.7050   34.2480   40.3840 C   0  0  0  0  0  0  0  0  0  0  0  0
   43.1620   35.3950   40.4880 O   0  0  0  0  0  0  0  0  0  0  0  0
   42.8880   33.7030   39.3650 O   0  0  0  0  0  0  0  0  0  0  0  0
   42.9370   31.0960   39.5120 O   0  0  0  0  0  0  0  0  0  0  0  0
   43.3280   32.2370   38.5950 P   0  0  0  0  0  0  0  0  0  0  0  0
   42.4360   32.0850   37.1730 O   0  0  0  0  0  0  0  0  0  0  0  0
   41.5170   31.7400   37.4010 H   0  0  0  0  0  0  0  0  0  0  0  0
   44.9880   32.1250   38.3070 O   0  0  0  0  0  0  0  0  0  0  0  0
   45.2190   31.9340   37.3640 H   0  0  0  0  0  0  0  0  0  0  0  0
  1 17  1  0  0  0  0
  1  2  1  0  0  0  0
  2  9  1  0  0  0  0
  3  2  2  0  0  0  0
  3  7  1  0  0  0  0
  4  3  1  0  0  0  0
  5  6  1  0  0  0  0
  5  4  2  0  0  0  0
  6  1  2  0  0  0  0
  8  5  1  0  0  0  0
  9 10  1  0  0  0  0
  9 13  2  0  0  0  0
 10 11  2  0  0  0  0
 11 12  1  0  0  0  0
 11 15  1  0  0  0  0
 12 16  1  0  0  0  0
 13 12  1  0  0  0  0
 14 10  1  0  0  0  0
 18 19  2  0  0  0  0
 18 17  1  0  0  0  0
 20 18  1  0  0  0  0
 22 20  1  0  0  0  0
 22 21  2  0  0  0  0
 23 24  1  0  0  0  0
 23 22  1  0  0  0  0
 25 22  1  0  0  0  0
 26 25  1  0  0  0  0
M  END
>  <minimizedAffinity>
-4.65878344

>  <minimizedRMSD>
0.128228143

$$$$
