
 OpenBabel03252508513D

 26 27  0  0  0  0  0  0  0  0999 V2000
   46.0570   34.1810   41.0340 C   0  0  0  0  0  0  0  0  0  0  0  0
   46.6000   34.8550   42.1220 C   0  0  0  0  0  0  0  0  0  0  0  0
   47.9240   35.2970   42.0060 C   0  0  0  0  0  0  0  0  0  0  0  0
   48.5850   35.0410   40.8490 N   0  0  0  0  0  0  0  0  0  0  0  0
   48.0280   34.3900   39.8230 C   0  0  0  0  0  0  0  0  0  0  0  0
   46.7510   33.9570   39.9190 N   0  0  0  0  0  0  0  0  0  0  0  0
   48.3750   35.8280   42.8430 H   0  0  0  0  0  0  0  0  0  0  0  0
   48.6590   34.2530   38.9680 H   0  0  0  0  0  0  0  0  0  0  0  0
   45.7960   35.0770   43.3230 C   0  0  0  0  0  0  0  0  0  0  0  0
   45.0460   36.2120   43.5340 C   0  0  0  0  0  0  0  0  0  0  0  0
   44.4680   35.9930   44.7660 C   0  0  0  0  0  0  0  0  0  0  0  0
   44.8440   34.7960   45.2780 N   0  0  0  0  0  0  0  0  0  0  0  0
   45.6440   34.2660   44.3840 N   0  0  0  0  0  0  0  0  0  0  0  0
   44.8920   37.0910   42.9450 H   0  0  0  0  0  0  0  0  0  0  0  0
   43.7870   36.6040   45.3690 H   0  0  0  0  0  0  0  0  0  0  0  0
   44.6390   34.2770   46.1450 H   0  0  0  0  0  0  0  0  0  0  0  0
   44.7500   33.7390   41.1340 O   0  0  0  0  0  0  0  0  0  0  0  0
   43.6950   34.1670   40.3740 C   0  0  0  0  0  0  0  0  0  0  0  0
   43.1060   35.2950   40.4040 O   0  0  0  0  0  0  0  0  0  0  0  0
   42.9370   33.5440   39.3540 O   0  0  0  0  0  0  0  0  0  0  0  0
   44.5170   31.5870   38.6500 O   0  0  0  0  0  0  0  0  0  0  0  0
   43.7240   32.7370   38.0630 P   0  0  0  0  0  0  0  0  0  0  0  0
   42.5530   32.0870   37.0390 O   0  0  0  0  0  0  0  0  0  0  0  0
   42.2190   31.2230   37.4350 H   0  0  0  0  0  0  0  0  0  0  0  0
   44.7990   33.7350   37.2280 O   0  0  0  0  0  0  0  0  0  0  0  0
   44.6390   33.7690   36.2530 H   0  0  0  0  0  0  0  0  0  0  0  0
  1 17  1  0  0  0  0
  1  2  1  0  0  0  0
  2  9  1  0  0  0  0
  3  2  2  0  0  0  0
  3  7  1  0  0  0  0
  4  3  1  0  0  0  0
  5  6  1  0  0  0  0
  5  4  2  0  0  0  0
  6  1  2  0  0  0  0
  8  5  1  0  0  0  0
  9 10  1  0  0  0  0
  9 13  2  0  0  0  0
 10 11  2  0  0  0  0
 11 12  1  0  0  0  0
 11 15  1  0  0  0  0
 12 16  1  0  0  0  0
 13 12  1  0  0  0  0
 14 10  1  0  0  0  0
 18 19  2  0  0  0  0
 18 17  1  0  0  0  0
 20 18  1  0  0  0  0
 22 21  2  0  0  0  0
 22 20  1  0  0  0  0
 23 24  1  0  0  0  0
 23 22  1  0  0  0  0
 25 22  1  0  0  0  0
 26 25  1  0  0  0  0
M  END
>  <minimizedAffinity>
-4.97011042

>  <minimizedRMSD>
0.399212003

$$$$
