
 OpenBabel03252508453D

 43 44  0  0  0  0  0  0  0  0999 V2000
   43.0600   32.5510   41.6260 C   0  0  0  0  0  0  0  0  0  0  0  0
   43.5740   32.1780   40.7360 H   0  0  0  0  0  0  0  0  0  0  0  0
   42.1110   33.0460   41.2820 H   0  0  0  0  0  0  0  0  0  0  0  0
   43.6690   34.9670   41.8860 C   0  0  0  0  0  0  0  0  0  0  0  0
   43.9250   33.6350   42.1860 C   0  0  0  0  0  0  0  0  0  0  0  0
   44.9880   33.3500   43.0070 C   0  0  0  0  0  0  0  0  0  0  0  0
   45.7660   34.3510   43.5090 C   0  0  0  0  0  0  0  0  0  0  0  0
   45.5310   35.6700   43.2270 C   0  0  0  0  0  0  0  0  0  0  0  0
   44.4540   35.9220   42.3990 C   0  0  0  0  0  0  0  0  0  0  0  0
   45.1580   32.2880   43.2210 H   0  0  0  0  0  0  0  0  0  0  0  0
   46.5740   34.0060   44.1450 H   0  0  0  0  0  0  0  0  0  0  0  0
   46.1680   36.4410   43.6420 H   0  0  0  0  0  0  0  0  0  0  0  0
   44.2230   36.9490   42.1420 H   0  0  0  0  0  0  0  0  0  0  0  0
   40.2330   35.8120   40.5210 C   0  0  0  0  0  0  0  0  0  0  0  0
   41.2630   35.5940   41.4550 C   0  0  0  0  0  0  0  0  0  0  0  0
   42.5290   35.2200   41.0110 C   0  0  0  0  0  0  0  0  0  0  0  0
   42.7010   35.0840   39.6660 N   0  0  0  0  0  0  0  0  0  0  0  0
   41.6940   35.2990   38.7700 C   0  0  0  0  0  0  0  0  0  0  0  0
   40.4740   35.6610   39.2240 N   0  0  0  0  0  0  0  0  0  0  0  0
   39.2880   36.0980   40.9460 H   0  0  0  0  0  0  0  0  0  0  0  0
   41.1200   35.7020   42.5150 H   0  0  0  0  0  0  0  0  0  0  0  0
   41.8900   35.1760   37.7180 H   0  0  0  0  0  0  0  0  0  0  0  0
   42.6920   31.5390   42.5820 N   0  0  0  0  0  0  0  0  0  0  0  0
   42.8330   31.9620   43.5270 H   0  0  0  0  0  0  0  0  0  0  0  0
   41.0190   31.1680   42.5260 S   0  0  0  0  0  0  0  0  0  0  0  0
   40.1970   32.4270   42.4740 O   0  0  0  0  0  0  0  0  0  0  0  0
   39.7340   32.7100   41.6290 H   0  0  0  0  0  0  0  0  0  0  0  0
   40.6330   30.3400   43.7040 O   0  0  0  0  0  0  0  0  0  0  0  0
   41.1290   29.5130   43.9370 H   0  0  0  0  0  0  0  0  0  0  0  0
   40.7510   30.2790   41.1360 O   0  0  0  0  0  0  0  0  0  0  0  0
   39.8930   30.9770   40.3240 C   0  0  0  0  0  0  0  0  0  0  0  0
   40.3260   31.0270   39.2840 H   0  0  0  0  0  0  0  0  0  0  0  0
   39.6370   31.9890   40.6330 H   0  0  0  0  0  0  0  0  0  0  0  0
   38.6080   30.1420   40.1180 C   0  0  0  0  0  0  0  0  0  0  0  0
   38.3240   30.1460   39.0560 H   0  0  0  0  0  0  0  0  0  0  0  0
   37.8040   30.5330   40.7750 H   0  0  0  0  0  0  0  0  0  0  0  0
   38.9520   28.8360   40.4560 O   0  0  0  0  0  0  0  0  0  0  0  0
   36.5640   27.7860   40.3740 O   0  0  0  0  0  0  0  0  0  0  0  0
   37.7060   28.0690   41.3090 P   0  0  0  0  0  0  0  0  0  0  0  0
   38.2560   26.5680   41.9130 O   0  0  0  0  0  0  0  0  0  0  0  0
   37.4620   26.1190   42.3020 H   0  0  0  0  0  0  0  0  0  0  0  0
   37.1920   28.9830   42.6340 O   0  0  0  0  0  0  0  0  0  0  0  0
   37.6580   28.6780   43.4630 H   0  0  0  0  0  0  0  0  0  0  0  0
  1  5  1  0  0  0  0
  1 23  1  0  0  0  0
  2  1  1  0  0  0  0
  3  1  1  0  0  0  0
  4  5  2  0  0  0  0
  4  9  1  0  0  0  0
  5  6  1  0  0  0  0
  6 10  1  0  0  0  0
  6  7  2  0  0  0  0
  7 11  1  0  0  0  0
  8  7  1  0  0  0  0
  8 12  1  0  0  0  0
  9  8  2  0  0  0  0
 13  9  1  0  0  0  0
 14 20  1  0  0  0  0
 14 15  1  0  0  0  0
 15 21  1  0  0  0  0
 16 15  2  0  0  0  0
 16  4  1  0  0  0  0
 17 16  1  0  0  0  0
 18 19  1  0  0  0  0
 18 17  2  0  0  0  0
 19 14  2  0  0  0  0
 22 18  1  0  0  0  0
 23 24  1  0  0  0  0
 25 23  1  0  0  0  0
 25 28  1  0  0  0  0
 26 25  1  0  0  0  0
 27 26  1  0  0  0  0
 28 29  1  0  0  0  0
 30 25  1  0  0  0  0
 31 33  1  0  0  0  0
 31 30  1  0  0  0  0
 32 31  1  0  0  0  0
 34 31  1  0  0  0  0
 34 37  1  0  0  0  0
 34 36  1  0  0  0  0
 35 34  1  0  0  0  0
 37 39  1  0  0  0  0
 38 39  2  0  0  0  0
 39 40  1  0  0  0  0
 39 42  1  0  0  0  0
 40 41  1  0  0  0  0
 42 43  1  0  0  0  0
M  END
>  <minimizedAffinity>
-5.47605133

>  <minimizedRMSD>
2.43456531

$$$$
