
 OpenBabel03242521443D

 36 37  0  0  1  0  0  0  0  0999 V2000
   45.2340   36.2100   43.9680 C   0  0  0  0  0  0  0  0  0  0  0  0
   46.0430   35.3500   43.2040 C   0  0  0  0  0  0  0  0  0  0  0  0
   46.2870   34.0520   43.6610 C   0  0  0  0  0  0  0  0  0  0  0  0
   45.7260   33.6970   44.8160 N   0  0  0  0  0  0  0  0  0  0  0  0
   44.9510   34.5340   45.5400 C   0  0  0  0  0  0  0  0  0  0  0  0
   44.7000   35.7950   45.1210 N   0  0  0  0  0  0  0  0  0  0  0  0
   46.4400   35.7550   42.2820 H   0  0  0  0  0  0  0  0  0  0  0  0
   44.5270   34.1770   46.4720 H   0  0  0  0  0  0  0  0  0  0  0  0
   48.3540   33.8720   42.2930 C   0  0  2  0  0  0  0  0  0  0  0  0
   47.1270   33.2190   42.8230 C   0  0  2  0  0  0  0  0  0  0  0  0
   46.5080   32.7850   41.6130 O   0  0  0  0  0  0  0  0  0  0  0  0
   47.5390   32.1360   40.9630 C   0  0  0  0  0  0  0  0  0  0  0  0
   48.8510   32.7210   41.3960 C   0  0  1  0  0  0  0  0  0  0  0  0
   48.1120   34.6840   41.5490 H   0  0  0  0  0  0  0  0  0  0  0  0
   47.4360   32.3040   43.4020 H   0  0  0  0  0  0  0  0  0  0  0  0
   47.5170   31.0530   41.1940 H   0  0  0  0  0  0  0  0  0  0  0  0
   47.4420   32.2700   39.8740 H   0  0  0  0  0  0  0  0  0  0  0  0
   49.4460   32.0510   42.0290 H   0  0  0  0  0  0  0  0  0  0  0  0
   49.2540   34.2650   43.2350 O   0  0  0  0  0  0  0  0  0  0  0  0
   49.4960   35.2240   43.1770 H   0  0  0  0  0  0  0  0  0  0  0  0
   49.5930   33.2630   40.3490 O   0  0  0  0  0  0  0  0  0  0  0  0
   50.3240   33.7820   40.7670 H   0  0  0  0  0  0  0  0  0  0  0  0
   44.9980   37.6060   43.4570 C   0  0  0  0  0  0  0  0  0  0  0  0
   44.0330   37.6060   42.9320 H   0  0  0  0  0  0  0  0  0  0  0  0
   45.8290   37.9070   42.8150 H   0  0  0  0  0  0  0  0  0  0  0  0
   45.1620   39.8440   44.7090 C   0  0  0  0  0  0  0  0  0  0  0  0
   45.5280   40.4020   43.6360 O   0  0  0  0  0  0  0  0  0  0  0  0
   44.8860   38.4510   44.6390 N   0  0  0  0  0  0  0  0  0  0  0  0
   44.5670   37.9870   45.5390 H   0  0  0  0  0  0  0  0  0  0  0  0
   45.0300   40.5330   45.9080 O   0  0  0  0  0  0  0  0  0  0  0  0
   44.5690   42.7740   44.5360 O   0  0  0  0  0  0  0  0  0  0  0  0
   44.3120   42.1110   45.8910 P   0  0  0  0  0  0  0  0  0  0  0  0
   44.9130   43.0350   47.1520 O   0  0  0  0  0  0  0  0  0  0  0  0
   45.1690   43.9230   46.7590 H   0  0  0  0  0  0  0  0  0  0  0  0
   42.6450   41.8960   45.9930 O   0  0  0  0  0  0  0  0  0  0  0  0
   42.2070   41.8760   45.0850 H   0  0  0  0  0  0  0  0  0  0  0  0
  1  6  1  0  0  0  0
  2  3  1  0  0  0  0
  2  1  2  0  0  0  0
  3  4  2  0  0  0  0
  4  5  1  0  0  0  0
  5  8  1  0  0  0  0
  6  5  2  0  0  0  0
  7  2  1  0  0  0  0
  9 14  1  6  0  0  0
  9 10  1  0  0  0  0
  9 19  1  0  0  0  0
 10 15  1  1  0  0  0
 10  3  1  0  0  0  0
 11 10  1  0  0  0  0
 12 16  1  0  0  0  0
 12 13  1  0  0  0  0
 12 11  1  0  0  0  0
 13 18  1  1  0  0  0
 13  9  1  0  0  0  0
 17 12  1  0  0  0  0
 20 19  1  0  0  0  0
 21 22  1  0  0  0  0
 21 13  1  0  0  0  0
 23  1  1  0  0  0  0
 23 28  1  0  0  0  0
 24 23  1  0  0  0  0
 25 23  1  0  0  0  0
 26 30  1  0  0  0  0
 27 26  2  0  0  0  0
 28 26  1  0  0  0  0
 28 29  1  0  0  0  0
 31 32  2  0  0  0  0
 32 30  1  0  0  0  0
 32 35  1  0  0  0  0
 32 33  1  0  0  0  0
 34 33  1  0  0  0  0
 36 35  1  0  0  0  0
M  END
>  <minimizedAffinity>
-5.12596083

>  <minimizedRMSD>
0.749303281

$$$$
