
 OpenBabel03252508513D

 26 27  0  0  0  0  0  0  0  0999 V2000
   45.6540   33.9490   41.0170 C   0  0  0  0  0  0  0  0  0  0  0  0
   46.3160   34.6560   42.0160 C   0  0  0  0  0  0  0  0  0  0  0  0
   47.6390   35.0370   41.7620 C   0  0  0  0  0  0  0  0  0  0  0  0
   48.1850   34.6960   40.5670 N   0  0  0  0  0  0  0  0  0  0  0  0
   47.5160   34.0160   39.6300 C   0  0  0  0  0  0  0  0  0  0  0  0
   46.2390   33.6410   39.8600 N   0  0  0  0  0  0  0  0  0  0  0  0
   48.1820   35.5910   42.5260 H   0  0  0  0  0  0  0  0  0  0  0  0
   48.0640   33.8110   38.7320 H   0  0  0  0  0  0  0  0  0  0  0  0
   45.6300   34.9710   43.2680 C   0  0  0  0  0  0  0  0  0  0  0  0
   44.9890   36.1660   43.5010 C   0  0  0  0  0  0  0  0  0  0  0  0
   44.4960   36.0250   44.7800 C   0  0  0  0  0  0  0  0  0  0  0  0
   44.8180   34.8150   45.2990 N   0  0  0  0  0  0  0  0  0  0  0  0
   45.5010   34.2010   44.3630 N   0  0  0  0  0  0  0  0  0  0  0  0
   44.8570   37.0400   42.8990 H   0  0  0  0  0  0  0  0  0  0  0  0
   43.9150   36.7040   45.4150 H   0  0  0  0  0  0  0  0  0  0  0  0
   44.6440   34.3360   46.1950 H   0  0  0  0  0  0  0  0  0  0  0  0
   44.3460   33.5660   41.2540 O   0  0  0  0  0  0  0  0  0  0  0  0
   43.2280   34.1480   40.7200 C   0  0  0  0  0  0  0  0  0  0  0  0
   43.1360   35.2500   40.0900 O   0  0  0  0  0  0  0  0  0  0  0  0
   41.8690   33.7530   40.6850 O   0  0  0  0  0  0  0  0  0  0  0  0
   39.6610   35.0620   40.2080 O   0  0  0  0  0  0  0  0  0  0  0  0
   40.6530   34.7800   41.3160 P   0  0  0  0  0  0  0  0  0  0  0  0
   39.8390   33.9600   42.5430 O   0  0  0  0  0  0  0  0  0  0  0  0
   39.1610   33.3420   42.1260 H   0  0  0  0  0  0  0  0  0  0  0  0
   41.2650   36.2600   41.8540 O   0  0  0  0  0  0  0  0  0  0  0  0
   41.0250   36.4780   42.7880 H   0  0  0  0  0  0  0  0  0  0  0  0
  1 17  1  0  0  0  0
  1  2  1  0  0  0  0
  2  9  1  0  0  0  0
  3  2  2  0  0  0  0
  3  7  1  0  0  0  0
  4  3  1  0  0  0  0
  5  6  1  0  0  0  0
  5  4  2  0  0  0  0
  6  1  2  0  0  0  0
  8  5  1  0  0  0  0
  9 10  1  0  0  0  0
  9 13  2  0  0  0  0
 10 11  2  0  0  0  0
 11 12  1  0  0  0  0
 11 15  1  0  0  0  0
 12 16  1  0  0  0  0
 13 12  1  0  0  0  0
 14 10  1  0  0  0  0
 18 17  1  0  0  0  0
 19 18  2  0  0  0  0
 20 18  1  0  0  0  0
 20 22  1  0  0  0  0
 21 22  2  0  0  0  0
 22 25  1  0  0  0  0
 22 23  1  0  0  0  0
 24 23  1  0  0  0  0
 25 26  1  0  0  0  0
M  END
>  <minimizedAffinity>
-5.61996269

>  <minimizedRMSD>
1.3045373

$$$$
