
 OpenBabel03252505313D

 25 25  0  0  0  0  0  0  0  0999 V2000
   38.1520   31.0340   38.9000 O   0  0  0  0  0  0  0  0  0  0  0  0
   38.1410   31.9670   40.1070 P   0  0  1  0  0  0  0  0  0  0  0  0
   36.5730   32.2810   40.6190 O   0  0  0  0  0  0  0  0  0  0  0  0
   36.4960   33.1790   41.0430 H   0  0  0  0  0  0  0  0  0  0  0  0
   39.0620   31.2300   41.3330 O   0  0  0  0  0  0  0  0  0  0  0  0
   39.5230   28.1740   43.0710 C   0  0  0  0  0  0  0  0  0  0  0  0
   38.2240   27.7020   43.3370 C   0  0  0  0  0  0  0  0  0  0  0  0
   37.1730   28.5230   42.8690 C   0  0  0  0  0  0  0  0  0  0  0  0
   37.4810   29.6890   42.2060 N   0  0  0  0  0  0  0  0  0  0  0  0
   38.7430   30.0600   41.9970 C   0  0  0  0  0  0  0  0  0  0  0  0
   39.7600   29.3210   42.4190 N   0  0  0  0  0  0  0  0  0  0  0  0
   40.3150   27.5330   43.4360 H   0  0  0  0  0  0  0  0  0  0  0  0
   38.0590   26.7800   43.8620 H   0  0  0  0  0  0  0  0  0  0  0  0
   36.1520   28.2080   43.0480 H   0  0  0  0  0  0  0  0  0  0  0  0
   38.8430   33.4110   39.6060 O   0  0  0  0  0  0  0  0  0  0  0  0
   40.1960   33.3400   39.8660 C   0  0  0  0  0  0  0  0  0  0  0  0
   40.3540   33.7370   40.9020 H   0  0  0  0  0  0  0  0  0  0  0  0
   40.5550   32.2910   39.9140 H   0  0  0  0  0  0  0  0  0  0  0  0
   40.9320   34.1170   38.9930 O   0  0  0  0  0  0  0  0  0  0  0  0
   42.3130   31.9900   38.3630 O   0  0  0  0  0  0  0  0  0  0  0  0
   41.5180   33.1220   37.7590 P   0  0  0  0  0  0  0  0  0  0  0  0
   40.1480   32.4850   36.9630 O   0  0  0  0  0  0  0  0  0  0  0  0
   39.5210   33.2620   36.8510 H   0  0  0  0  0  0  0  0  0  0  0  0
   42.4490   34.0250   36.6540 O   0  0  0  0  0  0  0  0  0  0  0  0
   42.1960   33.7280   35.7530 H   0  0  0  0  0  0  0  0  0  0  0  0
  2  1  2  6  0  0  0
  2  3  1  0  0  0  0
  2  5  1  0  0  0  0
  3  4  1  0  0  0  0
  5 10  1  0  0  0  0
  6  7  1  0  0  0  0
  6 12  1  0  0  0  0
  7 13  1  0  0  0  0
  8 14  1  0  0  0  0
  8  7  2  0  0  0  0
  9  8  1  0  0  0  0
 10  9  2  0  0  0  0
 10 11  1  0  0  0  0
 11  6  2  0  0  0  0
 15 16  1  0  0  0  0
 15  2  1  0  0  0  0
 16 18  1  0  0  0  0
 16 17  1  0  0  0  0
 19 16  1  0  0  0  0
 21 20  2  0  0  0  0
 21 19  1  0  0  0  0
 22 21  1  0  0  0  0
 23 22  1  0  0  0  0
 24 21  1  0  0  0  0
 25 24  1  0  0  0  0
M  END
>  <minimizedAffinity>
-4.97316504

$$$$

 OpenBabel03252505313D

 25 25  0  0  0  0  0  0  0  0999 V2000
   36.1870   28.0780   41.1640 O   0  0  0  0  0  0  0  0  0  0  0  0
   37.2880   28.0880   42.2200 P   0  0  1  0  0  0  0  0  0  0  0  0
   36.9570   29.1980   43.4350 O   0  0  0  0  0  0  0  0  0  0  0  0
   37.7900   29.5610   43.8420 H   0  0  0  0  0  0  0  0  0  0  0  0
   37.4200   26.5080   42.8370 O   0  0  0  0  0  0  0  0  0  0  0  0
   39.1930   23.8610   41.2830 C   0  0  0  0  0  0  0  0  0  0  0  0
   38.2090   23.0840   40.6430 C   0  0  0  0  0  0  0  0  0  0  0  0
   36.8820   23.5470   40.7900 C   0  0  0  0  0  0  0  0  0  0  0  0
   36.6490   24.6870   41.5250 N   0  0  0  0  0  0  0  0  0  0  0  0
   37.6430   25.3620   42.0980 C   0  0  0  0  0  0  0  0  0  0  0  0
   38.9040   24.9640   41.9860 N   0  0  0  0  0  0  0  0  0  0  0  0
   40.2030   23.4930   41.1590 H   0  0  0  0  0  0  0  0  0  0  0  0
   38.4650   22.2030   40.0850 H   0  0  0  0  0  0  0  0  0  0  0  0
   36.0840   22.9850   40.3190 H   0  0  0  0  0  0  0  0  0  0  0  0
   38.7020   28.5530   41.4370 O   0  0  0  0  0  0  0  0  0  0  0  0
   38.3740   29.5110   40.4990 C   0  0  0  0  0  0  0  0  0  0  0  0
   39.2120   29.5460   39.7560 H   0  0  0  0  0  0  0  0  0  0  0  0
   37.4860   29.2200   39.9020 H   0  0  0  0  0  0  0  0  0  0  0  0
   38.2500   30.7660   41.0630 O   0  0  0  0  0  0  0  0  0  0  0  0
   36.6870   31.0100   38.9830 O   0  0  0  0  0  0  0  0  0  0  0  0
   36.8980   31.5220   40.3880 P   0  0  0  0  0  0  0  0  0  0  0  0
   35.5640   31.0780   41.3550 O   0  0  0  0  0  0  0  0  0  0  0  0
   35.8820   31.1690   42.3040 H   0  0  0  0  0  0  0  0  0  0  0  0
   37.0830   33.2160   40.4170 O   0  0  0  0  0  0  0  0  0  0  0  0
   36.2230   33.5950   40.6990 H   0  0  0  0  0  0  0  0  0  0  0  0
  2  1  2  6  0  0  0
  2  5  1  0  0  0  0
  2  3  1  0  0  0  0
  3  4  1  0  0  0  0
  6 11  1  0  0  0  0
  7  8  1  0  0  0  0
  7  6  2  0  0  0  0
  8  9  2  0  0  0  0
  9 10  1  0  0  0  0
 10  5  1  0  0  0  0
 11 10  2  0  0  0  0
 12  6  1  0  0  0  0
 13  7  1  0  0  0  0
 14  8  1  0  0  0  0
 15  2  1  0  0  0  0
 16 19  1  0  0  0  0
 16 15  1  0  0  0  0
 17 16  1  0  0  0  0
 18 16  1  0  0  0  0
 20 21  2  0  0  0  0
 21 24  1  0  0  0  0
 21 19  1  0  0  0  0
 21 22  1  0  0  0  0
 22 23  1  0  0  0  0
 24 25  1  0  0  0  0
M  END
>  <minimizedAffinity>
-4.8159976

$$$$

 OpenBabel03252505313D

 25 25  0  0  0  0  0  0  0  0999 V2000
   36.9250   29.1580   40.0380 O   0  0  0  0  0  0  0  0  0  0  0  0
   36.9950   30.1020   41.2340 P   0  0  1  0  0  0  0  0  0  0  0  0
   35.6250   31.0660   41.3300 O   0  0  0  0  0  0  0  0  0  0  0  0
   35.8200   31.9460   41.7530 H   0  0  0  0  0  0  0  0  0  0  0  0
   37.1850   29.1470   42.6300 O   0  0  0  0  0  0  0  0  0  0  0  0
   38.4430   25.8330   42.5920 C   0  0  0  0  0  0  0  0  0  0  0  0
   39.7700   25.9370   43.0540 C   0  0  0  0  0  0  0  0  0  0  0  0
   40.1960   27.2440   43.3790 C   0  0  0  0  0  0  0  0  0  0  0  0
   39.3170   28.2920   43.2290 N   0  0  0  0  0  0  0  0  0  0  0  0
   38.0760   28.1020   42.7850 C   0  0  0  0  0  0  0  0  0  0  0  0
   37.6330   26.8920   42.4660 N   0  0  0  0  0  0  0  0  0  0  0  0
   38.1330   24.8250   42.3480 H   0  0  0  0  0  0  0  0  0  0  0  0
   40.4010   25.0740   43.1450 H   0  0  0  0  0  0  0  0  0  0  0  0
   41.2090   27.3830   43.7380 H   0  0  0  0  0  0  0  0  0  0  0  0
   38.3330   31.0910   40.9890 O   0  0  0  0  0  0  0  0  0  0  0  0
   37.9250   32.1850   40.2520 C   0  0  0  0  0  0  0  0  0  0  0  0
   37.0190   31.8720   39.6720 H   0  0  0  0  0  0  0  0  0  0  0  0
   37.5690   33.0110   40.9000 H   0  0  0  0  0  0  0  0  0  0  0  0
   38.8910   32.5900   39.3510 O   0  0  0  0  0  0  0  0  0  0  0  0
   37.3660   31.5450   37.5050 O   0  0  0  0  0  0  0  0  0  0  0  0
   38.7960   31.6000   37.9860 P   0  0  0  0  0  0  0  0  0  0  0  0
   39.7640   32.3360   36.7890 O   0  0  0  0  0  0  0  0  0  0  0  0
   40.6050   32.6140   37.2610 H   0  0  0  0  0  0  0  0  0  0  0  0
   39.4030   30.0450   38.3320 O   0  0  0  0  0  0  0  0  0  0  0  0
   39.9560   29.7750   37.5680 H   0  0  0  0  0  0  0  0  0  0  0  0
  2  1  2  6  0  0  0
  2  3  1  0  0  0  0
  2  5  1  0  0  0  0
  3  4  1  0  0  0  0
  5 10  1  0  0  0  0
  6  7  1  0  0  0  0
  7 13  1  0  0  0  0
  7  8  2  0  0  0  0
  8 14  1  0  0  0  0
  9  8  1  0  0  0  0
 10  9  2  0  0  0  0
 11  6  2  0  0  0  0
 11 10  1  0  0  0  0
 12  6  1  0  0  0  0
 15  2  1  0  0  0  0
 16 18  1  0  0  0  0
 16 15  1  0  0  0  0
 17 16  1  0  0  0  0
 19 16  1  0  0  0  0
 20 21  2  0  0  0  0
 21 24  1  0  0  0  0
 21 19  1  0  0  0  0
 22 23  1  0  0  0  0
 22 21  1  0  0  0  0
 25 24  1  0  0  0  0
M  END
>  <minimizedAffinity>
-4.61153507

$$$$

 OpenBabel03252505313D

 25 25  0  0  0  0  0  0  0  0999 V2000
   36.8890   29.0900   39.9160 O   0  0  0  0  0  0  0  0  0  0  0  0
   36.8450   29.7970   41.2670 P   0  0  1  0  0  0  0  0  0  0  0  0
   35.5440   30.8540   41.3600 O   0  0  0  0  0  0  0  0  0  0  0  0
   35.7340   31.6230   41.9630 H   0  0  0  0  0  0  0  0  0  0  0  0
   36.7620   28.5970   42.4700 O   0  0  0  0  0  0  0  0  0  0  0  0
   38.3400   25.4300   42.2570 C   0  0  0  0  0  0  0  0  0  0  0  0
   39.4930   25.5380   43.0590 C   0  0  0  0  0  0  0  0  0  0  0  0
   39.6830   26.7930   43.6800 C   0  0  0  0  0  0  0  0  0  0  0  0
   38.7600   27.7910   43.4660 N   0  0  0  0  0  0  0  0  0  0  0  0
   37.6940   27.6010   42.6900 C   0  0  0  0  0  0  0  0  0  0  0  0
   37.4760   26.4400   42.0870 N   0  0  0  0  0  0  0  0  0  0  0  0
   38.2100   24.4620   41.7900 H   0  0  0  0  0  0  0  0  0  0  0  0
   40.1720   24.7150   43.1790 H   0  0  0  0  0  0  0  0  0  0  0  0
   40.5560   26.9320   44.3070 H   0  0  0  0  0  0  0  0  0  0  0  0
   38.2690   30.6850   41.3920 O   0  0  0  0  0  0  0  0  0  0  0  0
   38.9750   30.5260   40.2170 C   0  0  0  0  0  0  0  0  0  0  0  0
   40.0400   30.3160   40.4970 H   0  0  0  0  0  0  0  0  0  0  0  0
   38.6520   29.6230   39.6590 H   0  0  0  0  0  0  0  0  0  0  0  0
   38.9540   31.6690   39.4420 O   0  0  0  0  0  0  0  0  0  0  0  0
   41.0670   32.3010   40.8410 O   0  0  0  0  0  0  0  0  0  0  0  0
   39.8020   32.8810   40.2570 P   0  0  0  0  0  0  0  0  0  0  0  0
   40.2100   34.0540   39.0860 O   0  0  0  0  0  0  0  0  0  0  0  0
   39.3790   34.1800   38.5360 H   0  0  0  0  0  0  0  0  0  0  0  0
   38.8240   33.5920   41.4570 O   0  0  0  0  0  0  0  0  0  0  0  0
   38.9670   34.5620   41.4100 H   0  0  0  0  0  0  0  0  0  0  0  0
  2  1  2  6  0  0  0
  2  3  1  0  0  0  0
  2 15  1  0  0  0  0
  2  5  1  0  0  0  0
  3  4  1  0  0  0  0
  5 10  1  0  0  0  0
  6  7  1  0  0  0  0
  7 13  1  0  0  0  0
  7  8  2  0  0  0  0
  8 14  1  0  0  0  0
  9  8  1  0  0  0  0
 10  9  2  0  0  0  0
 11  6  2  0  0  0  0
 11 10  1  0  0  0  0
 12  6  1  0  0  0  0
 16 17  1  0  0  0  0
 16 15  1  0  0  0  0
 18 16  1  0  0  0  0
 19 16  1  0  0  0  0
 19 21  1  0  0  0  0
 21 20  2  0  0  0  0
 21 24  1  0  0  0  0
 22 21  1  0  0  0  0
 23 22  1  0  0  0  0
 25 24  1  0  0  0  0
M  END
>  <minimizedAffinity>
-4.55835581

$$$$

 OpenBabel03252505313D

 25 25  0  0  0  0  0  0  0  0999 V2000
   35.5930   29.3030   41.0100 O   0  0  0  0  0  0  0  0  0  0  0  0
   36.9220   28.9060   41.6450 P   0  0  1  0  0  0  0  0  0  0  0  0
   37.0920   29.5800   43.1730 O   0  0  0  0  0  0  0  0  0  0  0  0
   38.0470   29.7430   43.4020 H   0  0  0  0  0  0  0  0  0  0  0  0
   36.9750   27.2070   41.7030 O   0  0  0  0  0  0  0  0  0  0  0  0
   39.8100   26.3720   43.6620 C   0  0  0  0  0  0  0  0  0  0  0  0
   40.0630   25.0150   43.3830 C   0  0  0  0  0  0  0  0  0  0  0  0
   39.1770   24.4100   42.4640 C   0  0  0  0  0  0  0  0  0  0  0  0
   38.1600   25.1620   41.9220 N   0  0  0  0  0  0  0  0  0  0  0  0
   37.9930   26.4440   42.2430 C   0  0  0  0  0  0  0  0  0  0  0  0
   38.8010   27.0520   43.1010 N   0  0  0  0  0  0  0  0  0  0  0  0
   40.4980   26.8190   44.3670 H   0  0  0  0  0  0  0  0  0  0  0  0
   40.8780   24.4900   43.8460 H   0  0  0  0  0  0  0  0  0  0  0  0
   39.3250   23.3660   42.2150 H   0  0  0  0  0  0  0  0  0  0  0  0
   38.1330   29.5180   40.6510 O   0  0  0  0  0  0  0  0  0  0  0  0
   38.6550   30.6430   41.2570 C   0  0  0  0  0  0  0  0  0  0  0  0
   37.8130   31.1470   41.7980 H   0  0  0  0  0  0  0  0  0  0  0  0
   39.3820   30.3850   42.0540 H   0  0  0  0  0  0  0  0  0  0  0  0
   39.1670   31.5360   40.3360 O   0  0  0  0  0  0  0  0  0  0  0  0
   38.3940   34.0300   40.4120 O   0  0  0  0  0  0  0  0  0  0  0  0
   37.9630   32.6580   39.9540 P   0  0  0  0  0  0  0  0  0  0  0  0
   37.8210   32.6510   38.2530 O   0  0  0  0  0  0  0  0  0  0  0  0
   37.8320   31.6820   37.9890 H   0  0  0  0  0  0  0  0  0  0  0  0
   36.4770   32.2000   40.6510 O   0  0  0  0  0  0  0  0  0  0  0  0
   35.7830   32.3470   39.9730 H   0  0  0  0  0  0  0  0  0  0  0  0
  2  1  2  6  0  0  0
  2  5  1  0  0  0  0
  2  3  1  0  0  0  0
  3  4  1  0  0  0  0
  5 10  1  0  0  0  0
  6 12  1  0  0  0  0
  7  6  1  0  0  0  0
  7 13  1  0  0  0  0
  8  7  2  0  0  0  0
  9 10  2  0  0  0  0
  9  8  1  0  0  0  0
 10 11  1  0  0  0  0
 11  6  2  0  0  0  0
 14  8  1  0  0  0  0
 15 16  1  0  0  0  0
 15  2  1  0  0  0  0
 16 17  1  0  0  0  0
 16 18  1  0  0  0  0
 19 16  1  0  0  0  0
 21 19  1  0  0  0  0
 21 20  2  0  0  0  0
 21 24  1  0  0  0  0
 22 21  1  0  0  0  0
 23 22  1  0  0  0  0
 25 24  1  0  0  0  0
M  END
>  <minimizedAffinity>
-4.55283737

$$$$

 OpenBabel03252505313D

 25 25  0  0  0  0  0  0  0  0999 V2000
   36.9290   31.6920   38.6460 O   0  0  0  0  0  0  0  0  0  0  0  0
   37.2600   31.4910   40.1210 P   0  0  1  0  0  0  0  0  0  0  0  0
   35.8660   31.4300   41.0550 O   0  0  0  0  0  0  0  0  0  0  0  0
   36.0250   31.7630   41.9800 H   0  0  0  0  0  0  0  0  0  0  0  0
   38.1620   30.0550   40.2530 O   0  0  0  0  0  0  0  0  0  0  0  0
   36.9500   27.8370   42.7390 C   0  0  0  0  0  0  0  0  0  0  0  0
   38.0820   27.4770   43.4950 C   0  0  0  0  0  0  0  0  0  0  0  0
   39.2990   28.0610   43.0790 C   0  0  0  0  0  0  0  0  0  0  0  0
   39.2970   28.9140   41.9980 N   0  0  0  0  0  0  0  0  0  0  0  0
   38.1750   29.2000   41.3390 C   0  0  0  0  0  0  0  0  0  0  0  0
   37.0110   28.6750   41.6950 N   0  0  0  0  0  0  0  0  0  0  0  0
   36.0270   27.3810   43.0720 H   0  0  0  0  0  0  0  0  0  0  0  0
   38.0090   26.8030   44.3280 H   0  0  0  0  0  0  0  0  0  0  0  0
   40.2030   27.8170   43.6240 H   0  0  0  0  0  0  0  0  0  0  0  0
   38.1680   32.8250   40.5970 O   0  0  0  0  0  0  0  0  0  0  0  0
   39.4910   32.5660   40.3040 C   0  0  0  0  0  0  0  0  0  0  0  0
   40.0870   32.8110   41.2200 H   0  0  0  0  0  0  0  0  0  0  0  0
   39.6740   31.4850   40.1350 H   0  0  0  0  0  0  0  0  0  0  0  0
   39.9550   33.3540   39.2680 O   0  0  0  0  0  0  0  0  0  0  0  0
   41.8650   32.8170   37.5690 O   0  0  0  0  0  0  0  0  0  0  0  0
   40.5110   32.3410   38.0350 P   0  0  0  0  0  0  0  0  0  0  0  0
   40.6660   30.7870   38.7220 O   0  0  0  0  0  0  0  0  0  0  0  0
   39.8340   30.6530   39.2680 H   0  0  0  0  0  0  0  0  0  0  0  0
   39.3880   32.2880   36.7540 O   0  0  0  0  0  0  0  0  0  0  0  0
   39.3180   31.3510   36.4710 H   0  0  0  0  0  0  0  0  0  0  0  0
  2  1  2  6  0  0  0
  2  5  1  0  0  0  0
  2 15  1  0  0  0  0
  2  3  1  0  0  0  0
  3  4  1  0  0  0  0
  5 10  1  0  0  0  0
  6 12  1  0  0  0  0
  6  7  1  0  0  0  0
  7 13  1  0  0  0  0
  8  7  2  0  0  0  0
  8 14  1  0  0  0  0
  9  8  1  0  0  0  0
 10 11  1  0  0  0  0
 10  9  2  0  0  0  0
 11  6  2  0  0  0  0
 16 15  1  0  0  0  0
 16 17  1  0  0  0  0
 18 16  1  0  0  0  0
 19 16  1  0  0  0  0
 20 21  2  0  0  0  0
 21 22  1  0  0  0  0
 21 19  1  0  0  0  0
 22 23  1  0  0  0  0
 24 21  1  0  0  0  0
 25 24  1  0  0  0  0
M  END
>  <minimizedAffinity>
-4.4930954

$$$$

 OpenBabel03252505313D

 25 25  0  0  0  0  0  0  0  0999 V2000
   36.8190   28.8650   41.9890 O   0  0  0  0  0  0  0  0  0  0  0  0
   37.1030   30.1250   41.1780 P   0  0  1  0  0  0  0  0  0  0  0  0
   35.8040   31.1860   41.2270 O   0  0  0  0  0  0  0  0  0  0  0  0
   35.7460   31.7400   40.4010 H   0  0  0  0  0  0  0  0  0  0  0  0
   38.5130   30.8350   41.8120 O   0  0  0  0  0  0  0  0  0  0  0  0
   39.0120   34.0390   40.3800 C   0  0  0  0  0  0  0  0  0  0  0  0
   40.4060   34.1610   40.2260 C   0  0  0  0  0  0  0  0  0  0  0  0
   41.1620   33.0480   40.6560 C   0  0  0  0  0  0  0  0  0  0  0  0
   40.5070   31.9570   41.1800 N   0  0  0  0  0  0  0  0  0  0  0  0
   39.1800   31.9260   41.2880 C   0  0  0  0  0  0  0  0  0  0  0  0
   38.4310   32.9480   40.8970 N   0  0  0  0  0  0  0  0  0  0  0  0
   38.4480   34.9010   40.0450 H   0  0  0  0  0  0  0  0  0  0  0  0
   40.8490   35.0460   39.8090 H   0  0  0  0  0  0  0  0  0  0  0  0
   42.2410   33.0890   40.5630 H   0  0  0  0  0  0  0  0  0  0  0  0
   37.3350   29.6320   39.5870 O   0  0  0  0  0  0  0  0  0  0  0  0
   36.4590   30.3410   38.7890 C   0  0  0  0  0  0  0  0  0  0  0  0
   36.3090   29.7450   37.8520 H   0  0  0  0  0  0  0  0  0  0  0  0
   35.4480   30.4070   39.2410 H   0  0  0  0  0  0  0  0  0  0  0  0
   36.9670   31.5750   38.4340 O   0  0  0  0  0  0  0  0  0  0  0  0
   39.5180   31.4350   37.8890 O   0  0  0  0  0  0  0  0  0  0  0  0
   38.1530   31.3440   37.2520 P   0  0  0  0  0  0  0  0  0  0  0  0
   37.9210   29.7670   36.6400 O   0  0  0  0  0  0  0  0  0  0  0  0
   36.9300   29.6760   36.5100 H   0  0  0  0  0  0  0  0  0  0  0  0
   37.9700   32.4760   35.9920 O   0  0  0  0  0  0  0  0  0  0  0  0
   38.0960   31.9910   35.1480 H   0  0  0  0  0  0  0  0  0  0  0  0
  2  3  1  0  0  0  0
  2  5  1  0  0  0  0
  2  1  2  1  0  0  0
  4  3  1  0  0  0  0
  6 11  1  0  0  0  0
  7  6  2  0  0  0  0
  7  8  1  0  0  0  0
  8  9  2  0  0  0  0
  9 10  1  0  0  0  0
 10  5  1  0  0  0  0
 11 10  2  0  0  0  0
 12  6  1  0  0  0  0
 13  7  1  0  0  0  0
 14  8  1  0  0  0  0
 15  2  1  0  0  0  0
 16 18  1  0  0  0  0
 16 15  1  0  0  0  0
 17 16  1  0  0  0  0
 19 16  1  0  0  0  0
 21 20  2  0  0  0  0
 21 19  1  0  0  0  0
 22 21  1  0  0  0  0
 23 22  1  0  0  0  0
 24 21  1  0  0  0  0
 25 24  1  0  0  0  0
M  END
>  <minimizedAffinity>
-4.43237019

$$$$

 OpenBabel03252505313D

 25 25  0  0  0  0  0  0  0  0999 V2000
   34.3760   29.2050   39.8090 O   0  0  0  0  0  0  0  0  0  0  0  0
   35.7180   29.5020   40.4710 P   0  0  1  0  0  0  0  0  0  0  0  0
   35.6620   30.9340   41.3450 O   0  0  0  0  0  0  0  0  0  0  0  0
   36.5520   31.3800   41.3820 H   0  0  0  0  0  0  0  0  0  0  0  0
   36.1010   28.1780   41.4690 O   0  0  0  0  0  0  0  0  0  0  0  0
   38.7200   26.4400   43.1090 C   0  0  0  0  0  0  0  0  0  0  0  0
   39.6890   27.4210   43.3970 C   0  0  0  0  0  0  0  0  0  0  0  0
   39.3660   28.7310   42.9790 C   0  0  0  0  0  0  0  0  0  0  0  0
   38.1670   28.9540   42.3400 N   0  0  0  0  0  0  0  0  0  0  0  0
   37.3070   27.9640   42.1090 C   0  0  0  0  0  0  0  0  0  0  0  0
   37.5680   26.7190   42.4830 N   0  0  0  0  0  0  0  0  0  0  0  0
   38.9830   25.4430   43.4360 H   0  0  0  0  0  0  0  0  0  0  0  0
   40.6050   27.1740   43.8990 H   0  0  0  0  0  0  0  0  0  0  0  0
   40.0770   29.5250   43.1730 H   0  0  0  0  0  0  0  0  0  0  0  0
   36.8410   29.6720   39.2310 O   0  0  0  0  0  0  0  0  0  0  0  0
   36.6050   30.8790   38.6050 C   0  0  0  0  0  0  0  0  0  0  0  0
   35.9270   30.6740   37.7360 H   0  0  0  0  0  0  0  0  0  0  0  0
   36.0280   31.5740   39.2490 H   0  0  0  0  0  0  0  0  0  0  0  0
   37.7670   31.4440   38.1160 O   0  0  0  0  0  0  0  0  0  0  0  0
   37.4830   33.0180   40.1820 O   0  0  0  0  0  0  0  0  0  0  0  0
   38.5230   32.2790   39.3750 P   0  0  0  0  0  0  0  0  0  0  0  0
   39.2640   31.0980   40.3600 O   0  0  0  0  0  0  0  0  0  0  0  0
   39.7060   30.4600   39.7220 H   0  0  0  0  0  0  0  0  0  0  0  0
   39.7110   33.3360   38.7630 O   0  0  0  0  0  0  0  0  0  0  0  0
   40.4970   33.2540   39.3440 H   0  0  0  0  0  0  0  0  0  0  0  0
  2  1  2  6  0  0  0
  2  3  1  0  0  0  0
  2  5  1  0  0  0  0
  3  4  1  0  0  0  0
  5 10  1  0  0  0  0
  6  7  1  0  0  0  0
  6 12  1  0  0  0  0
  7 13  1  0  0  0  0
  8 14  1  0  0  0  0
  8  7  2  0  0  0  0
  9  8  1  0  0  0  0
 10  9  2  0  0  0  0
 10 11  1  0  0  0  0
 11  6  2  0  0  0  0
 15  2  1  0  0  0  0
 16 15  1  0  0  0  0
 16 18  1  0  0  0  0
 17 16  1  0  0  0  0
 19 16  1  0  0  0  0
 19 21  1  0  0  0  0
 21 20  2  0  0  0  0
 21 22  1  0  0  0  0
 23 22  1  0  0  0  0
 24 25  1  0  0  0  0
 24 21  1  0  0  0  0
M  END
>  <minimizedAffinity>
-4.42020226

$$$$

 OpenBabel03252505313D

 25 25  0  0  0  0  0  0  0  0999 V2000
   34.2260   29.2260   39.5170 O   0  0  0  0  0  0  0  0  0  0  0  0
   35.5660   29.4580   40.2080 P   0  0  1  0  0  0  0  0  0  0  0  0
   35.5110   30.8090   41.2040 O   0  0  0  0  0  0  0  0  0  0  0  0
   36.4030   31.2460   41.2830 H   0  0  0  0  0  0  0  0  0  0  0  0
   35.9410   28.0500   41.0860 O   0  0  0  0  0  0  0  0  0  0  0  0
   38.7460   28.7990   43.1210 C   0  0  0  0  0  0  0  0  0  0  0  0
   39.3490   27.5550   43.3890 C   0  0  0  0  0  0  0  0  0  0  0  0
   38.7090   26.4350   42.8120 C   0  0  0  0  0  0  0  0  0  0  0  0
   37.5790   26.6290   42.0510 N   0  0  0  0  0  0  0  0  0  0  0  0
   37.0760   27.8450   41.8480 C   0  0  0  0  0  0  0  0  0  0  0  0
   37.6420   28.9250   42.3710 N   0  0  0  0  0  0  0  0  0  0  0  0
   39.2480   29.6460   43.5700 H   0  0  0  0  0  0  0  0  0  0  0  0
   40.2330   27.4790   43.9940 H   0  0  0  0  0  0  0  0  0  0  0  0
   39.1300   25.4530   42.9870 H   0  0  0  0  0  0  0  0  0  0  0  0
   36.6940   29.7330   38.9910 O   0  0  0  0  0  0  0  0  0  0  0  0
   36.1130   29.3940   37.7860 C   0  0  0  0  0  0  0  0  0  0  0  0
   35.0060   29.3430   37.9560 H   0  0  0  0  0  0  0  0  0  0  0  0
   36.2400   30.1920   37.0250 H   0  0  0  0  0  0  0  0  0  0  0  0
   36.5350   28.1580   37.3380 O   0  0  0  0  0  0  0  0  0  0  0  0
   38.7830   27.1130   36.5120 O   0  0  0  0  0  0  0  0  0  0  0  0
   37.9510   28.3710   36.4410 P   0  0  0  0  0  0  0  0  0  0  0  0
   37.4630   28.6320   34.8260 O   0  0  0  0  0  0  0  0  0  0  0  0
   36.6950   29.2760   34.8820 H   0  0  0  0  0  0  0  0  0  0  0  0
   38.8150   29.7280   37.0010 O   0  0  0  0  0  0  0  0  0  0  0  0
   39.1290   30.2160   36.2100 H   0  0  0  0  0  0  0  0  0  0  0  0
  2  1  2  6  0  0  0
  2  5  1  0  0  0  0
  2  3  1  0  0  0  0
  3  4  1  0  0  0  0
  5 10  1  0  0  0  0
  6  7  1  0  0  0  0
  6 12  1  0  0  0  0
  7 13  1  0  0  0  0
  8 14  1  0  0  0  0
  8  7  2  0  0  0  0
  9  8  1  0  0  0  0
 10  9  2  0  0  0  0
 10 11  1  0  0  0  0
 11  6  2  0  0  0  0
 15  2  1  0  0  0  0
 16 17  1  0  0  0  0
 16 15  1  0  0  0  0
 18 16  1  0  0  0  0
 19 16  1  0  0  0  0
 21 20  2  0  0  0  0
 21 24  1  0  0  0  0
 21 19  1  0  0  0  0
 22 23  1  0  0  0  0
 22 21  1  0  0  0  0
 25 24  1  0  0  0  0
M  END
>  <minimizedAffinity>
-4.39069033

$$$$
