
 OpenBabel03252503093D

 25 26  0  0  0  0  0  0  0  0999 V2000
   45.4470   36.2800   43.2970 C   0  0  0  0  0  0  0  0  0  0  0  0
   46.1600   35.1050   42.9910 C   0  0  0  0  0  0  0  0  0  0  0  0
   46.0220   34.0640   43.9080 C   0  0  0  0  0  0  0  0  0  0  0  0
   45.2620   34.1820   45.0000 N   0  0  0  0  0  0  0  0  0  0  0  0
   44.5880   35.3480   45.2540 C   0  0  0  0  0  0  0  0  0  0  0  0
   44.6910   36.3830   44.3960 N   0  0  0  0  0  0  0  0  0  0  0  0
   45.5050   37.1320   42.6350 H   0  0  0  0  0  0  0  0  0  0  0  0
   43.9900   35.3830   46.1540 H   0  0  0  0  0  0  0  0  0  0  0  0
   46.6990   32.8740   43.6660 C   0  0  0  0  0  0  0  0  0  0  0  0
   48.0100   32.4820   43.6260 C   0  0  0  0  0  0  0  0  0  0  0  0
   48.4150   31.2560   43.3560 C   0  0  0  0  0  0  0  0  0  0  0  0
   47.4260   30.3340   43.1030 C   0  0  0  0  0  0  0  0  0  0  0  0
   45.8870   31.3470   43.2800 S   0  0  0  0  0  0  0  0  0  0  0  0
   48.8890   33.0680   43.8370 H   0  0  0  0  0  0  0  0  0  0  0  0
   49.3110   30.6910   43.2590 H   0  0  0  0  0  0  0  0  0  0  0  0
   47.2190   29.2810   42.8490 H   0  0  0  0  0  0  0  0  0  0  0  0
   46.9440   35.0280   41.7950 C   0  0  0  0  0  0  0  0  0  0  0  0
   48.1010   35.5900   41.9130 O   0  0  0  0  0  0  0  0  0  0  0  0
   46.1270   34.3310   40.8610 O   0  0  0  0  0  0  0  0  0  0  0  0
   47.1300   32.0360   39.9360 O   0  0  0  0  0  0  0  0  0  0  0  0
   46.9510   33.4950   39.5810 P   0  0  0  0  0  0  0  0  0  0  0  0
   45.9750   33.5390   38.1910 O   0  0  0  0  0  0  0  0  0  0  0  0
   46.5240   33.2760   37.4050 H   0  0  0  0  0  0  0  0  0  0  0  0
   48.4830   34.1400   39.3160 O   0  0  0  0  0  0  0  0  0  0  0  0
   48.4950   34.9430   38.7400 H   0  0  0  0  0  0  0  0  0  0  0  0
  1  6  1  0  0  0  0
  2  1  2  0  0  0  0
  2  3  1  0  0  0  0
  3  4  2  0  0  0  0
  4  5  1  0  0  0  0
  5  8  1  0  0  0  0
  6  5  2  0  0  0  0
  7  1  1  0  0  0  0
  9  3  1  0  0  0  0
 10  9  2  0  0  0  0
 10 14  1  0  0  0  0
 11 10  1  0  0  0  0
 12 13  1  0  0  0  0
 12 11  2  0  0  0  0
 13  9  1  0  0  0  0
 15 11  1  0  0  0  0
 16 12  1  0  0  0  0
 17 18  2  0  0  0  0
 17  2  1  0  0  0  0
 19 17  1  0  0  0  0
 21 20  2  0  0  0  0
 21 19  1  0  0  0  0
 22 21  1  0  0  0  0
 23 22  1  0  0  0  0
 24 21  1  0  0  0  0
 25 24  1  0  0  0  0
M  END
>  <minimizedAffinity>
-4.29664373

>  <minimizedRMSD>
0.779217839

$$$$
