
 OpenBabel03252508433D

 29 30  0  0  0  0  0  0  0  0999 V2000
   36.7520   28.5740   39.8960 C   0  0  0  0  0  0  0  0  0  0  0  0
   37.0150   29.8450   39.3900 C   0  0  0  0  0  0  0  0  0  0  0  0
   36.4100   30.2260   38.2130 C   0  0  0  0  0  0  0  0  0  0  0  0
   35.5680   29.3540   37.5680 C   0  0  0  0  0  0  0  0  0  0  0  0
   35.2910   28.1040   38.0360 C   0  0  0  0  0  0  0  0  0  0  0  0
   35.9200   27.7480   39.2290 C   0  0  0  0  0  0  0  0  0  0  0  0
   36.6440   31.2350   37.8480 H   0  0  0  0  0  0  0  0  0  0  0  0
   35.1540   29.7780   36.6450 H   0  0  0  0  0  0  0  0  0  0  0  0
   34.6280   27.4660   37.4940 H   0  0  0  0  0  0  0  0  0  0  0  0
   35.7060   26.7470   39.6210 H   0  0  0  0  0  0  0  0  0  0  0  0
   39.2440   27.3660   42.4780 C   0  0  0  0  0  0  0  0  0  0  0  0
   38.6780   27.6640   41.2150 C   0  0  0  0  0  0  0  0  0  0  0  0
   37.4220   28.2300   41.1400 C   0  0  0  0  0  0  0  0  0  0  0  0
   36.8010   28.4700   42.3120 N   0  0  0  0  0  0  0  0  0  0  0  0
   37.3190   28.1950   43.5260 C   0  0  0  0  0  0  0  0  0  0  0  0
   38.5410   27.6430   43.6000 N   0  0  0  0  0  0  0  0  0  0  0  0
   40.2190   26.9260   42.5640 H   0  0  0  0  0  0  0  0  0  0  0  0
   39.2060   27.4570   40.3200 H   0  0  0  0  0  0  0  0  0  0  0  0
   36.7010   28.4450   44.3900 H   0  0  0  0  0  0  0  0  0  0  0  0
   37.9340   30.7700   40.0960 C   0  0  0  0  0  0  0  0  0  0  0  0
   38.5670   30.1600   40.7710 H   0  0  0  0  0  0  0  0  0  0  0  0
   38.6010   31.2450   39.3440 H   0  0  0  0  0  0  0  0  0  0  0  0
   37.3010   31.8120   40.7440 O   0  0  0  0  0  0  0  0  0  0  0  0
   39.1880   32.7260   39.2460 O   0  0  0  0  0  0  0  0  0  0  0  0
   38.0390   33.2300   40.1270 P   0  0  0  0  0  0  0  0  0  0  0  0
   36.9640   34.1610   39.2490 O   0  0  0  0  0  0  0  0  0  0  0  0
   37.5000   34.6230   38.5300 H   0  0  0  0  0  0  0  0  0  0  0  0
   38.6500   34.1610   41.3980 O   0  0  0  0  0  0  0  0  0  0  0  0
   39.5820   33.9080   41.6210 H   0  0  0  0  0  0  0  0  0  0  0  0
  1 13  1  0  0  0  0
  2  1  1  0  0  0  0
  2 20  1  0  0  0  0
  3  2  2  0  0  0  0
  4  5  2  0  0  0  0
  4  3  1  0  0  0  0
  5  6  1  0  0  0  0
  6 10  1  0  0  0  0
  6  1  2  0  0  0  0
  7  3  1  0  0  0  0
  8  4  1  0  0  0  0
  9  5  1  0  0  0  0
 11 17  1  0  0  0  0
 11 16  1  0  0  0  0
 12 11  2  0  0  0  0
 13 12  1  0  0  0  0
 13 14  2  0  0  0  0
 14 15  1  0  0  0  0
 15 16  2  0  0  0  0
 15 19  1  0  0  0  0
 18 12  1  0  0  0  0
 20 23  1  0  0  0  0
 20 21  1  0  0  0  0
 22 20  1  0  0  0  0
 24 25  2  0  0  0  0
 25 23  1  0  0  0  0
 25 28  1  0  0  0  0
 26 25  1  0  0  0  0
 27 26  1  0  0  0  0
 28 29  1  0  0  0  0
M  END
>  <minimizedAffinity>
-5.07068014

$$$$

 OpenBabel03252508433D

 29 30  0  0  0  0  0  0  0  0999 V2000
   37.3530   28.4900   40.9730 C   0  0  0  0  0  0  0  0  0  0  0  0
   38.2650   29.2710   41.6800 C   0  0  0  0  0  0  0  0  0  0  0  0
   38.3470   29.1200   43.0460 C   0  0  0  0  0  0  0  0  0  0  0  0
   37.5350   28.2120   43.6800 C   0  0  0  0  0  0  0  0  0  0  0  0
   36.6320   27.4330   43.0180 C   0  0  0  0  0  0  0  0  0  0  0  0
   36.5730   27.6110   41.6360 C   0  0  0  0  0  0  0  0  0  0  0  0
   39.0770   29.7540   43.5650 H   0  0  0  0  0  0  0  0  0  0  0  0
   37.6980   28.1900   44.7640 H   0  0  0  0  0  0  0  0  0  0  0  0
   36.0250   26.7420   43.5600 H   0  0  0  0  0  0  0  0  0  0  0  0
   35.8540   26.9910   41.0880 H   0  0  0  0  0  0  0  0  0  0  0  0
   37.8420   28.1690   37.2330 C   0  0  0  0  0  0  0  0  0  0  0  0
   37.9410   27.8810   38.6150 C   0  0  0  0  0  0  0  0  0  0  0  0
   37.3130   28.6970   39.5350 C   0  0  0  0  0  0  0  0  0  0  0  0
   36.6260   29.7440   39.0370 N   0  0  0  0  0  0  0  0  0  0  0  0
   36.5170   30.0380   37.7260 C   0  0  0  0  0  0  0  0  0  0  0  0
   37.1280   29.2460   36.8310 N   0  0  0  0  0  0  0  0  0  0  0  0
   38.3210   27.5510   36.4980 H   0  0  0  0  0  0  0  0  0  0  0  0
   38.4940   27.0450   38.9590 H   0  0  0  0  0  0  0  0  0  0  0  0
   35.9270   30.9190   37.4690 H   0  0  0  0  0  0  0  0  0  0  0  0
   39.1280   30.2530   40.9790 C   0  0  0  0  0  0  0  0  0  0  0  0
   40.0780   29.7430   40.7290 H   0  0  0  0  0  0  0  0  0  0  0  0
   38.6330   30.5370   40.0240 H   0  0  0  0  0  0  0  0  0  0  0  0
   39.3140   31.4360   41.6680 O   0  0  0  0  0  0  0  0  0  0  0  0
   39.2240   32.5380   39.3400 O   0  0  0  0  0  0  0  0  0  0  0  0
   38.5440   32.6300   40.7100 P   0  0  0  0  0  0  0  0  0  0  0  0
   36.8980   32.3680   40.5900 O   0  0  0  0  0  0  0  0  0  0  0  0
   36.6150   32.7110   39.6850 H   0  0  0  0  0  0  0  0  0  0  0  0
   38.8010   34.1600   41.3830 O   0  0  0  0  0  0  0  0  0  0  0  0
   39.6310   34.5770   41.0350 H   0  0  0  0  0  0  0  0  0  0  0  0
  1  6  2  0  0  0  0
  1  2  1  0  0  0  0
  2  3  2  0  0  0  0
  3  7  1  0  0  0  0
  3  4  1  0  0  0  0
  4  8  1  0  0  0  0
  5  9  1  0  0  0  0
  5  4  2  0  0  0  0
  6  5  1  0  0  0  0
 10  6  1  0  0  0  0
 11 12  1  0  0  0  0
 12 18  1  0  0  0  0
 12 13  2  0  0  0  0
 13  1  1  0  0  0  0
 14 13  1  0  0  0  0
 15 14  2  0  0  0  0
 16 11  2  0  0  0  0
 16 15  1  0  0  0  0
 17 11  1  0  0  0  0
 19 15  1  0  0  0  0
 20 23  1  0  0  0  0
 20  2  1  0  0  0  0
 21 20  1  0  0  0  0
 22 20  1  0  0  0  0
 24 25  2  0  0  0  0
 25 28  1  0  0  0  0
 25 23  1  0  0  0  0
 26 25  1  0  0  0  0
 27 26  1  0  0  0  0
 29 28  1  0  0  0  0
M  END
>  <minimizedAffinity>
-5.06134701

$$$$

 OpenBabel03252508433D

 29 30  0  0  0  0  0  0  0  0999 V2000
   37.1980   27.9460   41.1420 C   0  0  0  0  0  0  0  0  0  0  0  0
   38.2490   28.8600   41.1740 C   0  0  0  0  0  0  0  0  0  0  0  0
   39.1010   28.8510   42.2550 C   0  0  0  0  0  0  0  0  0  0  0  0
   38.9010   27.9490   43.2710 C   0  0  0  0  0  0  0  0  0  0  0  0
   37.8830   27.0410   43.2700 C   0  0  0  0  0  0  0  0  0  0  0  0
   37.0370   27.0780   42.1620 C   0  0  0  0  0  0  0  0  0  0  0  0
   39.9150   29.5870   42.2430 H   0  0  0  0  0  0  0  0  0  0  0  0
   39.6460   28.0460   44.0700 H   0  0  0  0  0  0  0  0  0  0  0  0
   37.7720   26.3620   44.0860 H   0  0  0  0  0  0  0  0  0  0  0  0
   36.2150   26.3540   42.1430 H   0  0  0  0  0  0  0  0  0  0  0  0
   35.6680   27.4620   37.7130 C   0  0  0  0  0  0  0  0  0  0  0  0
   36.5730   27.3360   38.7940 C   0  0  0  0  0  0  0  0  0  0  0  0
   36.3330   28.0080   39.9750 C   0  0  0  0  0  0  0  0  0  0  0  0
   35.2160   28.7610   40.0200 N   0  0  0  0  0  0  0  0  0  0  0  0
   34.3390   28.8960   39.0050 C   0  0  0  0  0  0  0  0  0  0  0  0
   34.5730   28.2440   37.8550 N   0  0  0  0  0  0  0  0  0  0  0  0
   35.8320   26.9500   36.7840 H   0  0  0  0  0  0  0  0  0  0  0  0
   37.4400   26.7310   38.7100 H   0  0  0  0  0  0  0  0  0  0  0  0
   33.4770   29.5400   39.1860 H   0  0  0  0  0  0  0  0  0  0  0  0
   38.4450   29.8330   40.0720 C   0  0  0  0  0  0  0  0  0  0  0  0
   39.2980   29.4780   39.4620 H   0  0  0  0  0  0  0  0  0  0  0  0
   37.5380   29.8210   39.4270 H   0  0  0  0  0  0  0  0  0  0  0  0
   38.5860   31.1420   40.4900 O   0  0  0  0  0  0  0  0  0  0  0  0
   36.8320   31.5130   38.6400 O   0  0  0  0  0  0  0  0  0  0  0  0
   37.0970   31.8940   40.1000 P   0  0  0  0  0  0  0  0  0  0  0  0
   35.8580   31.3790   41.0980 O   0  0  0  0  0  0  0  0  0  0  0  0
   35.0130   31.4070   40.5480 H   0  0  0  0  0  0  0  0  0  0  0  0
   37.2450   33.5720   40.2440 O   0  0  0  0  0  0  0  0  0  0  0  0
   37.5470   33.9850   39.3940 H   0  0  0  0  0  0  0  0  0  0  0  0
  1  2  2  0  0  0  0
  1  6  1  0  0  0  0
  2  3  1  0  0  0  0
  3  4  2  0  0  0  0
  4  8  1  0  0  0  0
  5  4  1  0  0  0  0
  5  9  1  0  0  0  0
  6  5  2  0  0  0  0
  7  3  1  0  0  0  0
 10  6  1  0  0  0  0
 11 16  2  0  0  0  0
 11 12  1  0  0  0  0
 12 13  2  0  0  0  0
 13 14  1  0  0  0  0
 13  1  1  0  0  0  0
 15 19  1  0  0  0  0
 15 14  2  0  0  0  0
 16 15  1  0  0  0  0
 17 11  1  0  0  0  0
 18 12  1  0  0  0  0
 20 23  1  0  0  0  0
 20  2  1  0  0  0  0
 21 20  1  0  0  0  0
 22 20  1  0  0  0  0
 24 25  2  0  0  0  0
 25 28  1  0  0  0  0
 25 23  1  0  0  0  0
 25 26  1  0  0  0  0
 27 26  1  0  0  0  0
 29 28  1  0  0  0  0
M  END
>  <minimizedAffinity>
-5.0162859

$$$$

 OpenBabel03252508433D

 29 30  0  0  0  0  0  0  0  0999 V2000
   37.0250   30.7690   38.3270 C   0  0  0  0  0  0  0  0  0  0  0  0
   36.1320   29.9320   38.9930 C   0  0  0  0  0  0  0  0  0  0  0  0
   35.4460   28.9850   38.2680 C   0  0  0  0  0  0  0  0  0  0  0  0
   35.6520   28.8840   36.9140 C   0  0  0  0  0  0  0  0  0  0  0  0
   36.5180   29.6870   36.2320 C   0  0  0  0  0  0  0  0  0  0  0  0
   37.1970   30.6370   36.9960 C   0  0  0  0  0  0  0  0  0  0  0  0
   34.7520   28.3460   38.8300 H   0  0  0  0  0  0  0  0  0  0  0  0
   35.0460   28.0930   36.4550 H   0  0  0  0  0  0  0  0  0  0  0  0
   36.6410   29.5670   35.1780 H   0  0  0  0  0  0  0  0  0  0  0  0
   37.8980   31.2890   36.4640 H   0  0  0  0  0  0  0  0  0  0  0  0
   38.0470   33.9320   40.1390 C   0  0  0  0  0  0  0  0  0  0  0  0
   37.3010   33.0530   39.3170 C   0  0  0  0  0  0  0  0  0  0  0  0
   37.7170   31.7480   39.1480 C   0  0  0  0  0  0  0  0  0  0  0  0
   38.8400   31.3870   39.8010 N   0  0  0  0  0  0  0  0  0  0  0  0
   39.5660   32.2050   40.5900 C   0  0  0  0  0  0  0  0  0  0  0  0
   39.1630   33.4750   40.7530 N   0  0  0  0  0  0  0  0  0  0  0  0
   37.7460   34.9510   40.2870 H   0  0  0  0  0  0  0  0  0  0  0  0
   36.4240   33.3840   38.8230 H   0  0  0  0  0  0  0  0  0  0  0  0
   40.4540   31.7740   41.0550 H   0  0  0  0  0  0  0  0  0  0  0  0
   35.9150   30.0610   40.4550 C   0  0  0  0  0  0  0  0  0  0  0  0
   36.8140   30.5470   40.8830 H   0  0  0  0  0  0  0  0  0  0  0  0
   35.0490   30.7380   40.6240 H   0  0  0  0  0  0  0  0  0  0  0  0
   35.5890   28.8760   41.0860 O   0  0  0  0  0  0  0  0  0  0  0  0
   36.8580   26.9490   42.2320 O   0  0  0  0  0  0  0  0  0  0  0  0
   36.9850   28.4550   41.9850 P   0  0  0  0  0  0  0  0  0  0  0  0
   38.3920   28.8190   41.1590 O   0  0  0  0  0  0  0  0  0  0  0  0
   39.0760   28.1320   41.4360 H   0  0  0  0  0  0  0  0  0  0  0  0
   36.9920   29.2850   43.4580 O   0  0  0  0  0  0  0  0  0  0  0  0
   36.5210   28.7760   44.1660 H   0  0  0  0  0  0  0  0  0  0  0  0
  1  2  1  0  0  0  0
  1 13  1  0  0  0  0
  2 20  1  0  0  0  0
  3  7  1  0  0  0  0
  3  2  2  0  0  0  0
  4  3  1  0  0  0  0
  5  4  2  0  0  0  0
  5  6  1  0  0  0  0
  6  1  2  0  0  0  0
  8  4  1  0  0  0  0
  9  5  1  0  0  0  0
 10  6  1  0  0  0  0
 11 17  1  0  0  0  0
 11 16  1  0  0  0  0
 12 11  2  0  0  0  0
 13 12  1  0  0  0  0
 13 14  2  0  0  0  0
 14 15  1  0  0  0  0
 15 16  2  0  0  0  0
 15 19  1  0  0  0  0
 18 12  1  0  0  0  0
 20 22  1  0  0  0  0
 20 21  1  0  0  0  0
 20 23  1  0  0  0  0
 23 25  1  0  0  0  0
 25 24  2  0  0  0  0
 25 28  1  0  0  0  0
 26 27  1  0  0  0  0
 26 25  1  0  0  0  0
 28 29  1  0  0  0  0
M  END
>  <minimizedAffinity>
-4.99938107

$$$$

 OpenBabel03252508433D

 29 30  0  0  0  0  0  0  0  0999 V2000
   36.9140   27.3270   39.5930 C   0  0  0  0  0  0  0  0  0  0  0  0
   36.9570   28.3370   38.6350 C   0  0  0  0  0  0  0  0  0  0  0  0
   36.3800   28.1090   37.4060 C   0  0  0  0  0  0  0  0  0  0  0  0
   35.7800   26.9010   37.1510 C   0  0  0  0  0  0  0  0  0  0  0  0
   35.7200   25.8910   38.0660 C   0  0  0  0  0  0  0  0  0  0  0  0
   36.3150   26.1540   39.3000 C   0  0  0  0  0  0  0  0  0  0  0  0
   36.4360   28.9300   36.6800 H   0  0  0  0  0  0  0  0  0  0  0  0
   35.3610   26.8470   36.1390 H   0  0  0  0  0  0  0  0  0  0  0  0
   35.2410   24.9710   37.8160 H   0  0  0  0  0  0  0  0  0  0  0  0
   36.2740   25.3540   40.0480 H   0  0  0  0  0  0  0  0  0  0  0  0
   39.4050   27.8080   42.4030 C   0  0  0  0  0  0  0  0  0  0  0  0
   38.8910   27.4880   41.1240 C   0  0  0  0  0  0  0  0  0  0  0  0
   37.5410   27.6280   40.8690 C   0  0  0  0  0  0  0  0  0  0  0  0
   36.7820   28.0780   41.8890 N   0  0  0  0  0  0  0  0  0  0  0  0
   37.2490   28.3900   43.1150 C   0  0  0  0  0  0  0  0  0  0  0  0
   38.5610   28.2520   43.3630 N   0  0  0  0  0  0  0  0  0  0  0  0
   40.4500   27.7080   42.6270 H   0  0  0  0  0  0  0  0  0  0  0  0
   39.5280   27.1370   40.3530 H   0  0  0  0  0  0  0  0  0  0  0  0
   36.5160   28.7430   43.8420 H   0  0  0  0  0  0  0  0  0  0  0  0
   37.6180   29.6330   38.9260 C   0  0  0  0  0  0  0  0  0  0  0  0
   38.1110   29.5400   39.9130 H   0  0  0  0  0  0  0  0  0  0  0  0
   38.4120   29.8010   38.1650 H   0  0  0  0  0  0  0  0  0  0  0  0
   36.7810   30.7280   38.8390 O   0  0  0  0  0  0  0  0  0  0  0  0
   38.2530   31.0400   40.9310 O   0  0  0  0  0  0  0  0  0  0  0  0
   36.9070   31.5020   40.3620 P   0  0  0  0  0  0  0  0  0  0  0  0
   36.8460   33.1670   40.2220 O   0  0  0  0  0  0  0  0  0  0  0  0
   37.4160   33.5410   40.9660 H   0  0  0  0  0  0  0  0  0  0  0  0
   35.6480   30.9970   41.3700 O   0  0  0  0  0  0  0  0  0  0  0  0
   35.8960   30.1880   41.8870 H   0  0  0  0  0  0  0  0  0  0  0  0
  1 13  1  0  0  0  0
  2 20  1  0  0  0  0
  2  1  2  0  0  0  0
  3  2  1  0  0  0  0
  4  3  2  0  0  0  0
  4  5  1  0  0  0  0
  5  6  2  0  0  0  0
  6  1  1  0  0  0  0
  6 10  1  0  0  0  0
  7  3  1  0  0  0  0
  8  4  1  0  0  0  0
  9  5  1  0  0  0  0
 11 17  1  0  0  0  0
 11 16  1  0  0  0  0
 12 11  2  0  0  0  0
 13 12  1  0  0  0  0
 13 14  2  0  0  0  0
 14 15  1  0  0  0  0
 15 16  2  0  0  0  0
 15 19  1  0  0  0  0
 18 12  1  0  0  0  0
 20 21  1  0  0  0  0
 22 20  1  0  0  0  0
 23 20  1  0  0  0  0
 23 25  1  0  0  0  0
 25 24  2  0  0  0  0
 25 28  1  0  0  0  0
 26 25  1  0  0  0  0
 26 27  1  0  0  0  0
 28 29  1  0  0  0  0
M  END
>  <minimizedAffinity>
-4.84760523

$$$$

 OpenBabel03252508433D

 29 30  0  0  0  0  0  0  0  0999 V2000
   38.4280   25.4190   41.7760 C   0  0  0  0  0  0  0  0  0  0  0  0
   38.2170   26.7920   41.8780 C   0  0  0  0  0  0  0  0  0  0  0  0
   38.9000   27.4970   42.8430 C   0  0  0  0  0  0  0  0  0  0  0  0
   39.7680   26.8390   43.6790 C   0  0  0  0  0  0  0  0  0  0  0  0
   39.9970   25.4960   43.6060 C   0  0  0  0  0  0  0  0  0  0  0  0
   39.2890   24.8110   42.6180 C   0  0  0  0  0  0  0  0  0  0  0  0
   38.7050   28.5760   42.8910 H   0  0  0  0  0  0  0  0  0  0  0  0
   40.2460   27.5120   44.4000 H   0  0  0  0  0  0  0  0  0  0  0  0
   40.6830   25.0340   44.2800 H   0  0  0  0  0  0  0  0  0  0  0  0
   39.4630   23.7320   42.5440 H   0  0  0  0  0  0  0  0  0  0  0  0
   35.7890   23.5000   39.8550 C   0  0  0  0  0  0  0  0  0  0  0  0
   36.4410   24.1480   40.9320 C   0  0  0  0  0  0  0  0  0  0  0  0
   37.6770   24.7320   40.7380 C   0  0  0  0  0  0  0  0  0  0  0  0
   38.1930   24.6450   39.4960 N   0  0  0  0  0  0  0  0  0  0  0  0
   37.5910   24.0350   38.4550 C   0  0  0  0  0  0  0  0  0  0  0  0
   36.3900   23.4650   38.6430 N   0  0  0  0  0  0  0  0  0  0  0  0
   34.8290   23.0380   39.9790 H   0  0  0  0  0  0  0  0  0  0  0  0
   35.9950   24.1900   41.8920 H   0  0  0  0  0  0  0  0  0  0  0  0
   38.1300   24.0430   37.5050 H   0  0  0  0  0  0  0  0  0  0  0  0
   37.2690   27.4850   40.9720 C   0  0  0  0  0  0  0  0  0  0  0  0
   37.8670   28.0030   40.1970 H   0  0  0  0  0  0  0  0  0  0  0  0
   36.6450   26.7180   40.4620 H   0  0  0  0  0  0  0  0  0  0  0  0
   36.3780   28.3210   41.6160 O   0  0  0  0  0  0  0  0  0  0  0  0
   37.6830   30.0350   40.2030 O   0  0  0  0  0  0  0  0  0  0  0  0
   36.2430   29.6920   40.5980 P   0  0  0  0  0  0  0  0  0  0  0  0
   35.3010   29.3800   39.2530 O   0  0  0  0  0  0  0  0  0  0  0  0
   35.6660   29.9500   38.5050 H   0  0  0  0  0  0  0  0  0  0  0  0
   35.5560   30.9780   41.4540 O   0  0  0  0  0  0  0  0  0  0  0  0
   36.2470   31.5240   41.9090 H   0  0  0  0  0  0  0  0  0  0  0  0
  1  2  2  0  0  0  0
  1  6  1  0  0  0  0
  2  3  1  0  0  0  0
  3  7  1  0  0  0  0
  3  4  2  0  0  0  0
  4  8  1  0  0  0  0
  5  4  1  0  0  0  0
  5  9  1  0  0  0  0
  6  5  2  0  0  0  0
 10  6  1  0  0  0  0
 11 17  1  0  0  0  0
 11 12  1  0  0  0  0
 12 18  1  0  0  0  0
 13 12  2  0  0  0  0
 13  1  1  0  0  0  0
 14 13  1  0  0  0  0
 15 16  1  0  0  0  0
 15 14  2  0  0  0  0
 16 11  2  0  0  0  0
 19 15  1  0  0  0  0
 20 23  1  0  0  0  0
 20  2  1  0  0  0  0
 21 20  1  0  0  0  0
 22 20  1  0  0  0  0
 24 25  2  0  0  0  0
 25 28  1  0  0  0  0
 25 23  1  0  0  0  0
 26 25  1  0  0  0  0
 27 26  1  0  0  0  0
 28 29  1  0  0  0  0
M  END
>  <minimizedAffinity>
-4.78445053

$$$$

 OpenBabel03252508433D

 29 30  0  0  0  0  0  0  0  0999 V2000
   35.7270   27.1830   38.3650 C   0  0  0  0  0  0  0  0  0  0  0  0
   36.0230   28.0480   39.4170 C   0  0  0  0  0  0  0  0  0  0  0  0
   36.6430   27.5400   40.5360 C   0  0  0  0  0  0  0  0  0  0  0  0
   36.9570   26.2050   40.5930 C   0  0  0  0  0  0  0  0  0  0  0  0
   36.6810   25.3320   39.5820 C   0  0  0  0  0  0  0  0  0  0  0  0
   36.0510   25.8770   38.4630 C   0  0  0  0  0  0  0  0  0  0  0  0
   36.8580   28.2540   41.3420 H   0  0  0  0  0  0  0  0  0  0  0  0
   37.4460   25.9290   41.5350 H   0  0  0  0  0  0  0  0  0  0  0  0
   36.9470   24.3020   39.6770 H   0  0  0  0  0  0  0  0  0  0  0  0
   35.8250   25.1910   37.6400 H   0  0  0  0  0  0  0  0  0  0  0  0
   35.0040   28.8880   35.0630 C   0  0  0  0  0  0  0  0  0  0  0  0
   35.7370   28.3310   36.1380 C   0  0  0  0  0  0  0  0  0  0  0  0
   35.0710   27.7790   37.2130 C   0  0  0  0  0  0  0  0  0  0  0  0
   33.7240   27.8080   37.1630 N   0  0  0  0  0  0  0  0  0  0  0  0
   33.0040   28.3330   36.1500 C   0  0  0  0  0  0  0  0  0  0  0  0
   33.6520   28.8710   35.1050 N   0  0  0  0  0  0  0  0  0  0  0  0
   35.4980   29.3230   34.2150 H   0  0  0  0  0  0  0  0  0  0  0  0
   36.7970   28.3310   36.1320 H   0  0  0  0  0  0  0  0  0  0  0  0
   31.9180   28.2850   36.2460 H   0  0  0  0  0  0  0  0  0  0  0  0
   35.6690   29.4860   39.3410 C   0  0  0  0  0  0  0  0  0  0  0  0
   34.8590   29.5910   38.5930 H   0  0  0  0  0  0  0  0  0  0  0  0
   35.2620   29.8010   40.3270 H   0  0  0  0  0  0  0  0  0  0  0  0
   36.7410   30.3220   39.0980 O   0  0  0  0  0  0  0  0  0  0  0  0
   38.1810   30.9010   41.1540 O   0  0  0  0  0  0  0  0  0  0  0  0
   36.8600   31.3070   40.4950 P   0  0  0  0  0  0  0  0  0  0  0  0
   36.8450   32.9340   40.1120 O   0  0  0  0  0  0  0  0  0  0  0  0
   37.4100   33.4000   40.8060 H   0  0  0  0  0  0  0  0  0  0  0  0
   35.5690   30.9840   41.5370 O   0  0  0  0  0  0  0  0  0  0  0  0
   35.7860   30.2540   42.1720 H   0  0  0  0  0  0  0  0  0  0  0  0
  1  6  2  0  0  0  0
  1  2  1  0  0  0  0
  2  3  2  0  0  0  0
  3  4  1  0  0  0  0
  3  7  1  0  0  0  0
  4  8  1  0  0  0  0
  5  9  1  0  0  0  0
  5  4  2  0  0  0  0
  6  5  1  0  0  0  0
 10  6  1  0  0  0  0
 11 16  2  0  0  0  0
 11 12  1  0  0  0  0
 12 13  2  0  0  0  0
 13  1  1  0  0  0  0
 14 13  1  0  0  0  0
 15 19  1  0  0  0  0
 15 14  2  0  0  0  0
 16 15  1  0  0  0  0
 17 11  1  0  0  0  0
 18 12  1  0  0  0  0
 20  2  1  0  0  0  0
 20 22  1  0  0  0  0
 21 20  1  0  0  0  0
 23 20  1  0  0  0  0
 23 25  1  0  0  0  0
 25 24  2  0  0  0  0
 25 28  1  0  0  0  0
 26 25  1  0  0  0  0
 26 27  1  0  0  0  0
 28 29  1  0  0  0  0
M  END
>  <minimizedAffinity>
-4.64373398

$$$$

 OpenBabel03252508433D

 29 30  0  0  0  0  0  0  0  0999 V2000
   38.9050   25.6930   41.4660 C   0  0  0  0  0  0  0  0  0  0  0  0
   37.5380   25.8900   41.6490 C   0  0  0  0  0  0  0  0  0  0  0  0
   36.6830   24.8330   41.4360 C   0  0  0  0  0  0  0  0  0  0  0  0
   37.1890   23.6160   41.0520 C   0  0  0  0  0  0  0  0  0  0  0  0
   38.5210   23.3890   40.8640 C   0  0  0  0  0  0  0  0  0  0  0  0
   39.3600   24.4810   41.0860 C   0  0  0  0  0  0  0  0  0  0  0  0
   35.6140   25.0300   41.5910 H   0  0  0  0  0  0  0  0  0  0  0  0
   36.4050   22.8610   40.9150 H   0  0  0  0  0  0  0  0  0  0  0  0
   38.8610   22.4230   40.5640 H   0  0  0  0  0  0  0  0  0  0  0  0
   40.4340   24.3160   40.9420 H   0  0  0  0  0  0  0  0  0  0  0  0
   40.8910   28.4820   43.0830 C   0  0  0  0  0  0  0  0  0  0  0  0
   40.0510   27.3500   42.9560 C   0  0  0  0  0  0  0  0  0  0  0  0
   39.7550   26.8480   41.7050 C   0  0  0  0  0  0  0  0  0  0  0  0
   40.3050   27.4910   40.6550 N   0  0  0  0  0  0  0  0  0  0  0  0
   41.1080   28.5700   40.7510 C   0  0  0  0  0  0  0  0  0  0  0  0
   41.3950   29.0590   41.9680 N   0  0  0  0  0  0  0  0  0  0  0  0
   41.1360   28.8920   44.0440 H   0  0  0  0  0  0  0  0  0  0  0  0
   39.6410   26.8780   43.8120 H   0  0  0  0  0  0  0  0  0  0  0  0
   41.4820   28.9860   39.8140 H   0  0  0  0  0  0  0  0  0  0  0  0
   37.0090   27.2150   42.0570 C   0  0  0  0  0  0  0  0  0  0  0  0
   36.2270   27.0390   42.8220 H   0  0  0  0  0  0  0  0  0  0  0  0
   37.8310   27.7890   42.5370 H   0  0  0  0  0  0  0  0  0  0  0  0
   36.5720   27.9970   41.0060 O   0  0  0  0  0  0  0  0  0  0  0  0
   38.0630   30.0750   40.6890 O   0  0  0  0  0  0  0  0  0  0  0  0
   36.8550   29.6100   41.5090 P   0  0  0  0  0  0  0  0  0  0  0  0
   35.5260   30.5890   41.2430 O   0  0  0  0  0  0  0  0  0  0  0  0
   35.8820   31.5130   41.0500 H   0  0  0  0  0  0  0  0  0  0  0  0
   37.2290   29.6410   43.1580 O   0  0  0  0  0  0  0  0  0  0  0  0
   38.2030   29.5410   43.3130 H   0  0  0  0  0  0  0  0  0  0  0  0
  1  2  1  0  0  0  0
  1 13  1  0  0  0  0
  2 20  1  0  0  0  0
  3  7  1  0  0  0  0
  3  2  2  0  0  0  0
  4  3  1  0  0  0  0
  5  4  2  0  0  0  0
  5  6  1  0  0  0  0
  6  1  2  0  0  0  0
  8  4  1  0  0  0  0
  9  5  1  0  0  0  0
 10  6  1  0  0  0  0
 11 17  1  0  0  0  0
 12 11  1  0  0  0  0
 12 18  1  0  0  0  0
 13 12  2  0  0  0  0
 14 15  2  0  0  0  0
 14 13  1  0  0  0  0
 15 16  1  0  0  0  0
 16 11  2  0  0  0  0
 19 15  1  0  0  0  0
 20 22  1  0  0  0  0
 20 21  1  0  0  0  0
 23 25  1  0  0  0  0
 23 20  1  0  0  0  0
 24 25  2  0  0  0  0
 25 28  1  0  0  0  0
 26 25  1  0  0  0  0
 27 26  1  0  0  0  0
 28 29  1  0  0  0  0
M  END
>  <minimizedAffinity>
-4.60562563

$$$$

 OpenBabel03252508433D

 29 30  0  0  0  0  0  0  0  0999 V2000
   36.9920   27.0720   40.9340 C   0  0  0  0  0  0  0  0  0  0  0  0
   36.8090   26.4100   39.7220 C   0  0  0  0  0  0  0  0  0  0  0  0
   36.7160   25.0370   39.7250 C   0  0  0  0  0  0  0  0  0  0  0  0
   36.8040   24.3520   40.9120 C   0  0  0  0  0  0  0  0  0  0  0  0
   36.9830   24.9690   42.1150 C   0  0  0  0  0  0  0  0  0  0  0  0
   37.0750   26.3610   42.0770 C   0  0  0  0  0  0  0  0  0  0  0  0
   36.5730   24.5540   38.7500 H   0  0  0  0  0  0  0  0  0  0  0  0
   36.7160   23.2670   40.7780 H   0  0  0  0  0  0  0  0  0  0  0  0
   37.0450   24.3890   43.0090 H   0  0  0  0  0  0  0  0  0  0  0  0
   37.2160   26.8730   43.0350 H   0  0  0  0  0  0  0  0  0  0  0  0
   36.1970   30.7730   40.8650 C   0  0  0  0  0  0  0  0  0  0  0  0
   36.0020   29.3730   40.9450 C   0  0  0  0  0  0  0  0  0  0  0  0
   37.0840   28.5210   40.8630 C   0  0  0  0  0  0  0  0  0  0  0  0
   38.2930   29.0990   40.7090 N   0  0  0  0  0  0  0  0  0  0  0  0
   38.5040   30.4280   40.6310 C   0  0  0  0  0  0  0  0  0  0  0  0
   37.4510   31.2580   40.7090 N   0  0  0  0  0  0  0  0  0  0  0  0
   35.3730   31.4570   40.9250 H   0  0  0  0  0  0  0  0  0  0  0  0
   35.0310   28.9650   41.0660 H   0  0  0  0  0  0  0  0  0  0  0  0
   39.5380   30.7530   40.5060 H   0  0  0  0  0  0  0  0  0  0  0  0
   36.7260   27.1650   38.4480 C   0  0  0  0  0  0  0  0  0  0  0  0
   35.8570   26.7730   37.8840 H   0  0  0  0  0  0  0  0  0  0  0  0
   36.5220   28.2330   38.6850 H   0  0  0  0  0  0  0  0  0  0  0  0
   37.8940   27.1650   37.7110 O   0  0  0  0  0  0  0  0  0  0  0  0
   36.6620   29.4080   37.4100 O   0  0  0  0  0  0  0  0  0  0  0  0
   37.9000   28.6690   36.8910 P   0  0  0  0  0  0  0  0  0  0  0  0
   39.2970   29.5370   37.1920 O   0  0  0  0  0  0  0  0  0  0  0  0
   39.0440   30.5130   37.1580 H   0  0  0  0  0  0  0  0  0  0  0  0
   37.7680   28.4160   35.2250 O   0  0  0  0  0  0  0  0  0  0  0  0
   36.8200   28.3900   34.9340 H   0  0  0  0  0  0  0  0  0  0  0  0
  1  6  1  0  0  0  0
  2  3  1  0  0  0  0
  2  1  2  0  0  0  0
  3  4  2  0  0  0  0
  4  5  1  0  0  0  0
  5  9  1  0  0  0  0
  6  5  2  0  0  0  0
  6 10  1  0  0  0  0
  7  3  1  0  0  0  0
  8  4  1  0  0  0  0
 11 17  1  0  0  0  0
 11 12  1  0  0  0  0
 12 18  1  0  0  0  0
 13  1  1  0  0  0  0
 13 12  2  0  0  0  0
 14 13  1  0  0  0  0
 15 14  2  0  0  0  0
 15 16  1  0  0  0  0
 16 11  2  0  0  0  0
 19 15  1  0  0  0  0
 20 22  1  0  0  0  0
 20  2  1  0  0  0  0
 21 20  1  0  0  0  0
 23 20  1  0  0  0  0
 25 26  1  0  0  0  0
 25 24  2  0  0  0  0
 25 23  1  0  0  0  0
 27 26  1  0  0  0  0
 28 25  1  0  0  0  0
 29 28  1  0  0  0  0
M  END
>  <minimizedAffinity>
-4.57511663

$$$$
