
 OpenBabel03252509353D

 42 43  0  0  1  0  0  0  0  0999 V2000
   44.5250   35.4600   44.0460 O   0  0  0  0  0  0  0  0  0  0  0  0
   45.3880   34.2550   44.3710 P   0  0  1  0  0  0  0  0  0  0  0  0
   44.7240   32.8430   43.7160 O   0  0  0  0  0  0  0  0  0  0  0  0
   44.3230   33.0210   42.8170 H   0  0  0  0  0  0  0  0  0  0  0  0
   46.9050   34.5220   43.7290 O   0  0  0  0  0  0  0  0  0  0  0  0
   47.0340   33.8330   42.5180 C   0  0  1  0  0  0  0  0  0  0  0  0
   46.4470   34.6700   41.3780 C   0  0  0  0  0  0  0  0  0  0  0  0
   46.9580   33.9010   40.1830 C   0  0  0  0  0  0  0  0  0  0  0  0
   48.2500   33.2330   40.6300 C   0  0  0  0  0  0  0  0  0  0  0  0
   48.4510   33.7050   42.0550 C   0  0  1  0  0  0  0  0  0  0  0  0
   46.5200   32.8750   42.4960 H   0  0  0  0  0  0  0  0  0  0  0  0
   45.3400   34.5580   41.4160 H   0  0  0  0  0  0  0  0  0  0  0  0
   46.7250   35.7180   41.4110 H   0  0  0  0  0  0  0  0  0  0  0  0
   46.1890   33.1360   39.8740 H   0  0  0  0  0  0  0  0  0  0  0  0
   47.1850   34.6000   39.3490 H   0  0  0  0  0  0  0  0  0  0  0  0
   49.0950   33.4890   39.9750 H   0  0  0  0  0  0  0  0  0  0  0  0
   48.0470   32.1450   40.6970 H   0  0  0  0  0  0  0  0  0  0  0  0
   48.9580   32.9400   42.6690 H   0  0  0  0  0  0  0  0  0  0  0  0
   49.2130   35.0010   42.1190 C   0  0  0  0  0  0  0  0  0  0  0  0
   48.5620   35.9070   42.1600 H   0  0  0  0  0  0  0  0  0  0  0  0
   49.8730   35.1230   41.2130 H   0  0  0  0  0  0  0  0  0  0  0  0
   50.0200   35.0740   43.2310 O   0  0  0  0  0  0  0  0  0  0  0  0
   50.1530   34.1670   43.6000 H   0  0  0  0  0  0  0  0  0  0  0  0
   45.4710   34.0180   46.0200 O   0  0  0  0  0  0  0  0  0  0  0  0
   46.4050   33.0690   46.2890 C   0  0  0  0  0  0  0  0  0  0  0  0
   47.2530   33.5750   46.8300 H   0  0  0  0  0  0  0  0  0  0  0  0
   46.8630   32.5430   45.4550 H   0  0  0  0  0  0  0  0  0  0  0  0
   45.3700   31.3620   49.4310 C   0  0  0  0  0  0  0  0  0  0  0  0
   45.8370   32.3670   48.5790 C   0  0  0  0  0  0  0  0  0  0  0  0
   45.9140   32.0340   47.2200 C   0  0  0  0  0  0  0  0  0  0  0  0
   45.5400   30.7850   46.8070 N   0  0  0  0  0  0  0  0  0  0  0  0
   45.0940   29.8440   47.6640 C   0  0  0  0  0  0  0  0  0  0  0  0
   45.0130   30.1400   48.9690 N   0  0  0  0  0  0  0  0  0  0  0  0
   45.2890   31.5630   50.4970 H   0  0  0  0  0  0  0  0  0  0  0  0
   46.1140   33.3300   48.9760 H   0  0  0  0  0  0  0  0  0  0  0  0
   44.7590   28.6330   47.0710 O   0  0  0  0  0  0  0  0  0  0  0  0
   46.3220   26.6360   47.6510 O   0  0  0  0  0  0  0  0  0  0  0  0
   44.9010   27.1330   47.8320 P   0  0  0  0  0  0  0  0  0  0  0  0
   43.8750   25.9670   47.1430 O   0  0  0  0  0  0  0  0  0  0  0  0
   44.2770   25.7170   46.2760 H   0  0  0  0  0  0  0  0  0  0  0  0
   44.6040   27.2170   49.4940 O   0  0  0  0  0  0  0  0  0  0  0  0
   44.1790   26.3780   49.7630 H   0  0  0  0  0  0  0  0  0  0  0  0
  2  1  2  6  0  0  0
  2 24  1  0  0  0  0
  3  2  1  0  0  0  0
  4  3  1  0  0  0  0
  5  2  1  0  0  0  0
  6 11  1  1  0  0  0
  6  5  1  0  0  0  0
  7 13  1  0  0  0  0
  7 12  1  0  0  0  0
  7  6  1  0  0  0  0
  8  9  1  0  0  0  0
  8  7  1  0  0  0  0
  9 17  1  0  0  0  0
  9 10  1  0  0  0  0
 10 19  1  0  0  0  0
 10  6  1  0  0  0  0
 10 18  1  1  0  0  0
 14  8  1  0  0  0  0
 15  8  1  0  0  0  0
 16  9  1  0  0  0  0
 19 20  1  0  0  0  0
 19 22  1  0  0  0  0
 21 19  1  0  0  0  0
 22 23  1  0  0  0  0
 24 25  1  0  0  0  0
 25 26  1  0  0  0  0
 25 30  1  0  0  0  0
 27 25  1  0  0  0  0
 28 34  1  0  0  0  0
 29 35  1  0  0  0  0
 29 28  2  0  0  0  0
 30 29  1  0  0  0  0
 31 30  2  0  0  0  0
 31 32  1  0  0  0  0
 32 33  2  0  0  0  0
 33 28  1  0  0  0  0
 36 32  1  0  0  0  0
 36 38  1  0  0  0  0
 37 38  2  0  0  0  0
 38 41  1  0  0  0  0
 39 38  1  0  0  0  0
 40 39  1  0  0  0  0
 41 42  1  0  0  0  0
M  END
>  <minimizedAffinity>
-5.91056442

>  <minimizedRMSD>
0.995099485

$$$$
