
 OpenBabel03252509213D

 23 24  0  0  0  0  0  0  0  0999 V2000
   38.3200   29.0820   42.4920 C   0  0  0  0  0  0  0  0  0  0  0  0
   37.4040   28.0600   42.1910 C   0  0  0  0  0  0  0  0  0  0  0  0
   37.8630   26.7630   42.4260 C   0  0  0  0  0  0  0  0  0  0  0  0
   39.1370   26.5540   42.9220 N   0  0  0  0  0  0  0  0  0  0  0  0
   39.9670   27.5670   43.1930 C   0  0  0  0  0  0  0  0  0  0  0  0
   39.5510   28.8260   42.9740 N   0  0  0  0  0  0  0  0  0  0  0  0
   38.0550   30.1010   42.3420 H   0  0  0  0  0  0  0  0  0  0  0  0
   40.9120   27.2120   43.5710 H   0  0  0  0  0  0  0  0  0  0  0  0
   36.8940   25.6240   42.2010 C   0  0  0  0  0  0  0  0  0  0  0  0
   37.0550   25.0460   40.7880 C   0  0  0  0  0  0  0  0  0  0  0  0
   37.4580   24.2980   42.0980 C   0  0  0  0  0  0  0  0  0  0  0  0
   35.8600   25.9900   42.3210 H   0  0  0  0  0  0  0  0  0  0  0  0
   36.1330   24.6730   40.3080 H   0  0  0  0  0  0  0  0  0  0  0  0
   37.9320   25.3360   40.1800 H   0  0  0  0  0  0  0  0  0  0  0  0
   36.7930   23.4260   42.3510 H   0  0  0  0  0  0  0  0  0  0  0  0
   38.5380   24.1420   42.2750 H   0  0  0  0  0  0  0  0  0  0  0  0
   36.1620   28.3020   41.7070 O   0  0  0  0  0  0  0  0  0  0  0  0
   36.6180   29.5370   39.4790 O   0  0  0  0  0  0  0  0  0  0  0  0
   35.6680   29.5270   40.6810 P   0  0  0  0  0  0  0  0  0  0  0  0
   35.6740   31.0680   41.3060 O   0  0  0  0  0  0  0  0  0  0  0  0
   36.4180   31.6050   40.9970 H   0  0  0  0  0  0  0  0  0  0  0  0
   34.1350   29.2410   39.9860 O   0  0  0  0  0  0  0  0  0  0  0  0
   33.4240   29.3510   40.6500 H   0  0  0  0  0  0  0  0  0  0  0  0
  1  6  1  0  0  0  0
  2  3  1  0  0  0  0
  2  1  2  0  0  0  0
  3  4  2  0  0  0  0
  4  5  1  0  0  0  0
  5  8  1  0  0  0  0
  6  5  2  0  0  0  0
  7  1  1  0  0  0  0
  9 12  1  0  0  0  0
  9  3  1  0  0  0  0
 10 11  1  0  0  0  0
 10  9  1  0  0  0  0
 11  9  1  0  0  0  0
 11 16  1  0  0  0  0
 11 15  1  0  0  0  0
 13 10  1  0  0  0  0
 14 10  1  0  0  0  0
 17  2  1  0  0  0  0
 18 19  2  0  0  0  0
 19 20  1  0  0  0  0
 19 17  1  0  0  0  0
 21 20  1  0  0  0  0
 22 23  1  0  0  0  0
 22 19  1  0  0  0  0
M  END
>  <minimizedAffinity>
-4.63534498

$$$$

 OpenBabel03252509213D

 23 24  0  0  0  0  0  0  0  0999 V2000
   36.9430   30.2610   39.3660 C   0  0  0  0  0  0  0  0  0  0  0  0
   37.4680   30.3500   40.6660 C   0  0  0  0  0  0  0  0  0  0  0  0
   37.1270   29.2980   41.5170 C   0  0  0  0  0  0  0  0  0  0  0  0
   36.3280   28.2640   41.0620 N   0  0  0  0  0  0  0  0  0  0  0  0
   35.8580   28.2300   39.8110 C   0  0  0  0  0  0  0  0  0  0  0  0
   36.1690   29.2310   38.9710 N   0  0  0  0  0  0  0  0  0  0  0  0
   37.1510   31.0200   38.6510 H   0  0  0  0  0  0  0  0  0  0  0  0
   35.2570   27.3520   39.6390 H   0  0  0  0  0  0  0  0  0  0  0  0
   37.7280   29.2940   42.9050 C   0  0  0  0  0  0  0  0  0  0  0  0
   37.2990   28.0400   43.6790 C   0  0  0  0  0  0  0  0  0  0  0  0
   38.7510   28.3090   43.1710 C   0  0  0  0  0  0  0  0  0  0  0  0
   37.3880   30.1880   43.4560 H   0  0  0  0  0  0  0  0  0  0  0  0
   37.1600   28.1660   44.7670 H   0  0  0  0  0  0  0  0  0  0  0  0
   36.8090   27.2100   43.1380 H   0  0  0  0  0  0  0  0  0  0  0  0
   39.4900   28.5300   43.9900 H   0  0  0  0  0  0  0  0  0  0  0  0
   39.1230   27.6650   42.3530 H   0  0  0  0  0  0  0  0  0  0  0  0
   38.2480   31.3780   41.0780 O   0  0  0  0  0  0  0  0  0  0  0  0
   39.1960   32.9240   39.2330 O   0  0  0  0  0  0  0  0  0  0  0  0
   38.3090   32.9390   40.4810 P   0  0  0  0  0  0  0  0  0  0  0  0
   38.9330   34.1000   41.4950 O   0  0  0  0  0  0  0  0  0  0  0  0
   39.8350   34.3660   41.2660 H   0  0  0  0  0  0  0  0  0  0  0  0
   36.8020   33.4930   39.9020 O   0  0  0  0  0  0  0  0  0  0  0  0
   36.1880   33.6750   40.6430 H   0  0  0  0  0  0  0  0  0  0  0  0
  1  2  1  0  0  0  0
  2 17  1  0  0  0  0
  2  3  2  0  0  0  0
  3  9  1  0  0  0  0
  4  3  1  0  0  0  0
  5  4  2  0  0  0  0
  6  1  2  0  0  0  0
  6  5  1  0  0  0  0
  7  1  1  0  0  0  0
  8  5  1  0  0  0  0
  9 11  1  0  0  0  0
  9 12  1  0  0  0  0
  9 10  1  0  0  0  0
 10 13  1  0  0  0  0
 11 10  1  0  0  0  0
 11 15  1  0  0  0  0
 14 10  1  0  0  0  0
 16 11  1  0  0  0  0
 18 19  2  0  0  0  0
 19 17  1  0  0  0  0
 19 20  1  0  0  0  0
 21 20  1  0  0  0  0
 22 19  1  0  0  0  0
 22 23  1  0  0  0  0
M  END
>  <minimizedAffinity>
-4.58618879

$$$$

 OpenBabel03252509213D

 23 24  0  0  0  0  0  0  0  0999 V2000
   39.6420   29.2720   39.4990 C   0  0  0  0  0  0  0  0  0  0  0  0
   38.8690   29.5190   40.6450 C   0  0  0  0  0  0  0  0  0  0  0  0
   38.6500   28.4100   41.4640 C   0  0  0  0  0  0  0  0  0  0  0  0
   39.1810   27.1780   41.1250 N   0  0  0  0  0  0  0  0  0  0  0  0
   39.9130   27.0020   40.0200 C   0  0  0  0  0  0  0  0  0  0  0  0
   40.1370   28.0530   39.2130 N   0  0  0  0  0  0  0  0  0  0  0  0
   39.8570   30.0600   38.8180 H   0  0  0  0  0  0  0  0  0  0  0  0
   40.2400   25.9800   39.9220 H   0  0  0  0  0  0  0  0  0  0  0  0
   37.8950   28.6290   42.7560 C   0  0  0  0  0  0  0  0  0  0  0  0
   36.6030   27.8010   42.7760 C   0  0  0  0  0  0  0  0  0  0  0  0
   37.8460   27.5190   43.6800 C   0  0  0  0  0  0  0  0  0  0  0  0
   37.6360   29.6970   42.8550 H   0  0  0  0  0  0  0  0  0  0  0  0
   35.7440   28.2540   43.3010 H   0  0  0  0  0  0  0  0  0  0  0  0
   36.4490   27.0160   42.0120 H   0  0  0  0  0  0  0  0  0  0  0  0
   37.6830   27.7510   44.7680 H   0  0  0  0  0  0  0  0  0  0  0  0
   38.4210   26.5990   43.4680 H   0  0  0  0  0  0  0  0  0  0  0  0
   38.3640   30.7400   40.9470 O   0  0  0  0  0  0  0  0  0  0  0  0
   36.6060   30.8490   39.0520 O   0  0  0  0  0  0  0  0  0  0  0  0
   36.9280   31.4250   40.4340 P   0  0  0  0  0  0  0  0  0  0  0  0
   36.9070   33.0810   40.2760 O   0  0  0  0  0  0  0  0  0  0  0  0
   36.9560   33.3800   39.3570 H   0  0  0  0  0  0  0  0  0  0  0  0
   35.5890   30.9650   41.3880 O   0  0  0  0  0  0  0  0  0  0  0  0
   35.6190   31.3990   42.2650 H   0  0  0  0  0  0  0  0  0  0  0  0
  1  2  1  0  0  0  0
  2 17  1  0  0  0  0
  2  3  2  0  0  0  0
  3  9  1  0  0  0  0
  4  3  1  0  0  0  0
  5  4  2  0  0  0  0
  6  1  2  0  0  0  0
  6  5  1  0  0  0  0
  7  1  1  0  0  0  0
  8  5  1  0  0  0  0
  9 10  1  0  0  0  0
  9 12  1  0  0  0  0
  9 11  1  0  0  0  0
 10 13  1  0  0  0  0
 10 11  1  0  0  0  0
 11 15  1  0  0  0  0
 14 10  1  0  0  0  0
 16 11  1  0  0  0  0
 18 19  2  0  0  0  0
 19 17  1  0  0  0  0
 19 22  1  0  0  0  0
 20 19  1  0  0  0  0
 21 20  1  0  0  0  0
 22 23  1  0  0  0  0
M  END
>  <minimizedAffinity>
-4.52124023

$$$$

 OpenBabel03252509213D

 23 24  0  0  0  0  0  0  0  0999 V2000
   37.7260   29.6630   42.2720 C   0  0  0  0  0  0  0  0  0  0  0  0
   36.8430   30.0980   41.2690 C   0  0  0  0  0  0  0  0  0  0  0  0
   36.1990   29.0810   40.5630 C   0  0  0  0  0  0  0  0  0  0  0  0
   36.4470   27.7550   40.8690 N   0  0  0  0  0  0  0  0  0  0  0  0
   37.2980   27.3990   41.8380 C   0  0  0  0  0  0  0  0  0  0  0  0
   37.9320   28.3580   42.5320 N   0  0  0  0  0  0  0  0  0  0  0  0
   38.2610   30.3700   42.8580 H   0  0  0  0  0  0  0  0  0  0  0  0
   37.3610   26.3270   41.9320 H   0  0  0  0  0  0  0  0  0  0  0  0
   35.1740   29.4850   39.5270 C   0  0  0  0  0  0  0  0  0  0  0  0
   35.8220   29.6030   38.1400 C   0  0  0  0  0  0  0  0  0  0  0  0
   34.8060   28.4880   38.5480 C   0  0  0  0  0  0  0  0  0  0  0  0
   34.7380   30.4610   39.8010 H   0  0  0  0  0  0  0  0  0  0  0  0
   35.4090   30.3830   37.4760 H   0  0  0  0  0  0  0  0  0  0  0  0
   36.8420   29.2080   37.9820 H   0  0  0  0  0  0  0  0  0  0  0  0
   33.7990   28.5840   38.0570 H   0  0  0  0  0  0  0  0  0  0  0  0
   35.2010   27.4590   38.6330 H   0  0  0  0  0  0  0  0  0  0  0  0
   36.6240   31.4070   40.9960 O   0  0  0  0  0  0  0  0  0  0  0  0
   38.5190   31.7750   39.2730 O   0  0  0  0  0  0  0  0  0  0  0  0
   37.6750   32.5160   40.3150 P   0  0  0  0  0  0  0  0  0  0  0  0
   38.7420   33.2620   41.3500 O   0  0  0  0  0  0  0  0  0  0  0  0
   39.6440   32.9160   41.2870 H   0  0  0  0  0  0  0  0  0  0  0  0
   36.8790   33.7240   39.4100 O   0  0  0  0  0  0  0  0  0  0  0  0
   36.4120   34.3510   39.9980 H   0  0  0  0  0  0  0  0  0  0  0  0
  1  6  1  0  0  0  0
  1  7  1  0  0  0  0
  2  1  2  0  0  0  0
  3  4  2  0  0  0  0
  3  2  1  0  0  0  0
  4  5  1  0  0  0  0
  5  8  1  0  0  0  0
  5  6  2  0  0  0  0
  9 12  1  0  0  0  0
  9  3  1  0  0  0  0
 10 11  1  0  0  0  0
 10  9  1  0  0  0  0
 11 16  1  0  0  0  0
 11  9  1  0  0  0  0
 13 10  1  0  0  0  0
 14 10  1  0  0  0  0
 15 11  1  0  0  0  0
 17  2  1  0  0  0  0
 18 19  2  0  0  0  0
 19 17  1  0  0  0  0
 19 20  1  0  0  0  0
 21 20  1  0  0  0  0
 22 23  1  0  0  0  0
 22 19  1  0  0  0  0
M  END
>  <minimizedAffinity>
-4.18808937

$$$$

 OpenBabel03252509213D

 23 24  0  0  0  0  0  0  0  0999 V2000
   40.7030   29.8820   42.3470 C   0  0  0  0  0  0  0  0  0  0  0  0
   39.3040   29.8710   42.4760 C   0  0  0  0  0  0  0  0  0  0  0  0
   38.7660   28.7000   43.0100 C   0  0  0  0  0  0  0  0  0  0  0  0
   39.5960   27.6540   43.3720 N   0  0  0  0  0  0  0  0  0  0  0  0
   40.9240   27.7200   43.2290 C   0  0  0  0  0  0  0  0  0  0  0  0
   41.4680   28.8360   42.7150 N   0  0  0  0  0  0  0  0  0  0  0  0
   41.1980   30.7340   41.9470 H   0  0  0  0  0  0  0  0  0  0  0  0
   41.4020   26.8150   43.5640 H   0  0  0  0  0  0  0  0  0  0  0  0
   37.2730   28.6590   43.2510 C   0  0  0  0  0  0  0  0  0  0  0  0
   36.5510   27.9980   42.0690 C   0  0  0  0  0  0  0  0  0  0  0  0
   36.6860   27.3610   43.4890 C   0  0  0  0  0  0  0  0  0  0  0  0
   36.8920   29.6870   43.3730 H   0  0  0  0  0  0  0  0  0  0  0  0
   35.5460   28.3910   41.8330 H   0  0  0  0  0  0  0  0  0  0  0  0
   37.1410   27.4570   41.3060 H   0  0  0  0  0  0  0  0  0  0  0  0
   35.7210   27.3210   44.0670 H   0  0  0  0  0  0  0  0  0  0  0  0
   37.3340   26.4700   43.5790 H   0  0  0  0  0  0  0  0  0  0  0  0
   38.5220   30.9160   42.1110 O   0  0  0  0  0  0  0  0  0  0  0  0
   37.7700   30.3320   39.7050 O   0  0  0  0  0  0  0  0  0  0  0  0
   38.2300   31.5070   40.5740 P   0  0  0  0  0  0  0  0  0  0  0  0
   39.5180   32.2050   39.7870 O   0  0  0  0  0  0  0  0  0  0  0  0
   39.9020   31.6390   39.1020 H   0  0  0  0  0  0  0  0  0  0  0  0
   36.9170   32.5960   40.5140 O   0  0  0  0  0  0  0  0  0  0  0  0
   37.1530   33.4520   40.9250 H   0  0  0  0  0  0  0  0  0  0  0  0
  1  2  2  0  0  0  0
  1  6  1  0  0  0  0
  2  3  1  0  0  0  0
  3  9  1  0  0  0  0
  3  4  2  0  0  0  0
  5  4  1  0  0  0  0
  5  8  1  0  0  0  0
  6  5  2  0  0  0  0
  7  1  1  0  0  0  0
  9 12  1  0  0  0  0
  9 11  1  0  0  0  0
 10  9  1  0  0  0  0
 10 11  1  0  0  0  0
 11 16  1  0  0  0  0
 11 15  1  0  0  0  0
 13 10  1  0  0  0  0
 14 10  1  0  0  0  0
 17  2  1  0  0  0  0
 18 19  2  0  0  0  0
 19 17  1  0  0  0  0
 20 19  1  0  0  0  0
 21 20  1  0  0  0  0
 22 19  1  0  0  0  0
 22 23  1  0  0  0  0
M  END
>  <minimizedAffinity>
-4.02556419

$$$$

 OpenBabel03252509213D

 23 24  0  0  0  0  0  0  0  0999 V2000
   38.0650   28.0980   39.5720 C   0  0  0  0  0  0  0  0  0  0  0  0
   37.0330   28.9130   39.0780 C   0  0  0  0  0  0  0  0  0  0  0  0
   35.9520   28.2290   38.5200 C   0  0  0  0  0  0  0  0  0  0  0  0
   35.9480   26.8460   38.4800 N   0  0  0  0  0  0  0  0  0  0  0  0
   36.9590   26.1200   38.9680 C   0  0  0  0  0  0  0  0  0  0  0  0
   38.0130   26.7530   39.5100 N   0  0  0  0  0  0  0  0  0  0  0  0
   38.9280   28.5340   40.0130 H   0  0  0  0  0  0  0  0  0  0  0  0
   36.7790   25.0640   38.8500 H   0  0  0  0  0  0  0  0  0  0  0  0
   34.7720   29.0470   38.0460 C   0  0  0  0  0  0  0  0  0  0  0  0
   34.6310   28.9650   36.5200 C   0  0  0  0  0  0  0  0  0  0  0  0
   33.6350   28.3180   37.5340 C   0  0  0  0  0  0  0  0  0  0  0  0
   34.9160   30.1020   38.3350 H   0  0  0  0  0  0  0  0  0  0  0  0
   34.2550   29.8730   36.0170 H   0  0  0  0  0  0  0  0  0  0  0  0
   35.2150   28.2100   35.9610 H   0  0  0  0  0  0  0  0  0  0  0  0
   32.6300   28.8220   37.5730 H   0  0  0  0  0  0  0  0  0  0  0  0
   33.6180   27.2140   37.5850 H   0  0  0  0  0  0  0  0  0  0  0  0
   37.0710   30.2660   39.1340 O   0  0  0  0  0  0  0  0  0  0  0  0
   38.1970   31.0740   41.3180 O   0  0  0  0  0  0  0  0  0  0  0  0
   36.9300   31.2540   40.4750 P   0  0  0  0  0  0  0  0  0  0  0  0
   35.6410   30.9610   41.4840 O   0  0  0  0  0  0  0  0  0  0  0  0
   35.8880   30.5030   42.3000 H   0  0  0  0  0  0  0  0  0  0  0  0
   36.9340   32.9160   40.0850 O   0  0  0  0  0  0  0  0  0  0  0  0
   36.0920   33.1770   39.6600 H   0  0  0  0  0  0  0  0  0  0  0  0
  1  7  1  0  0  0  0
  2 17  1  0  0  0  0
  2  1  2  0  0  0  0
  3  2  1  0  0  0  0
  4  3  2  0  0  0  0
  4  5  1  0  0  0  0
  5  6  2  0  0  0  0
  6  1  1  0  0  0  0
  8  5  1  0  0  0  0
  9 12  1  0  0  0  0
  9  3  1  0  0  0  0
 10 11  1  0  0  0  0
 10  9  1  0  0  0  0
 11 15  1  0  0  0  0
 11 16  1  0  0  0  0
 11  9  1  0  0  0  0
 13 10  1  0  0  0  0
 14 10  1  0  0  0  0
 17 19  1  0  0  0  0
 19 18  2  0  0  0  0
 19 20  1  0  0  0  0
 20 21  1  0  0  0  0
 22 19  1  0  0  0  0
 23 22  1  0  0  0  0
M  END
>  <minimizedAffinity>
-4.01438856

$$$$

 OpenBabel03252509213D

 23 24  0  0  0  0  0  0  0  0999 V2000
   40.9710   29.1090   42.4130 C   0  0  0  0  0  0  0  0  0  0  0  0
   40.2220   28.1010   43.0450 C   0  0  0  0  0  0  0  0  0  0  0  0
   38.8450   28.3220   43.0850 C   0  0  0  0  0  0  0  0  0  0  0  0
   38.3060   29.4670   42.5270 N   0  0  0  0  0  0  0  0  0  0  0  0
   39.0680   30.3940   41.9360 C   0  0  0  0  0  0  0  0  0  0  0  0
   40.3970   30.2070   41.8850 N   0  0  0  0  0  0  0  0  0  0  0  0
   42.0280   29.0240   42.3380 H   0  0  0  0  0  0  0  0  0  0  0  0
   38.4750   31.2120   41.5610 H   0  0  0  0  0  0  0  0  0  0  0  0
   37.9770   27.2350   43.6780 C   0  0  0  0  0  0  0  0  0  0  0  0
   36.4930   27.6190   43.5960 C   0  0  0  0  0  0  0  0  0  0  0  0
   37.1560   26.4800   42.7580 C   0  0  0  0  0  0  0  0  0  0  0  0
   38.2490   27.0820   44.7360 H   0  0  0  0  0  0  0  0  0  0  0  0
   35.8550   27.2700   44.4270 H   0  0  0  0  0  0  0  0  0  0  0  0
   36.1900   28.4810   42.9720 H   0  0  0  0  0  0  0  0  0  0  0  0
   36.8440   25.4440   43.0660 H   0  0  0  0  0  0  0  0  0  0  0  0
   37.2500   26.6480   41.6700 H   0  0  0  0  0  0  0  0  0  0  0  0
   40.7850   26.9910   43.5800 O   0  0  0  0  0  0  0  0  0  0  0  0
   40.0700   24.5330   43.2060 O   0  0  0  0  0  0  0  0  0  0  0  0
   41.1540   25.5460   42.8240 P   0  0  0  0  0  0  0  0  0  0  0  0
   42.6140   24.8520   43.2160 O   0  0  0  0  0  0  0  0  0  0  0  0
   42.5310   24.0970   43.8160 H   0  0  0  0  0  0  0  0  0  0  0  0
   41.0460   25.6340   41.1230 O   0  0  0  0  0  0  0  0  0  0  0  0
   41.7890   26.1530   40.7520 H   0  0  0  0  0  0  0  0  0  0  0  0
  1  2  1  0  0  0  0
  2  3  2  0  0  0  0
  2 17  1  0  0  0  0
  3  9  1  0  0  0  0
  4  3  1  0  0  0  0
  5  4  2  0  0  0  0
  6  5  1  0  0  0  0
  6  1  2  0  0  0  0
  7  1  1  0  0  0  0
  8  5  1  0  0  0  0
  9 12  1  0  0  0  0
 10  9  1  0  0  0  0
 10 13  1  0  0  0  0
 11 15  1  0  0  0  0
 11 10  1  0  0  0  0
 11  9  1  0  0  0  0
 14 10  1  0  0  0  0
 16 11  1  0  0  0  0
 19 18  2  0  0  0  0
 19 20  1  0  0  0  0
 19 17  1  0  0  0  0
 20 21  1  0  0  0  0
 22 19  1  0  0  0  0
 23 22  1  0  0  0  0
M  END
>  <minimizedAffinity>
-3.99160028

$$$$

 OpenBabel03252509213D

 23 24  0  0  0  0  0  0  0  0999 V2000
   39.0970   30.4770   42.2830 C   0  0  0  0  0  0  0  0  0  0  0  0
   38.3930   30.7670   41.1020 C   0  0  0  0  0  0  0  0  0  0  0  0
   37.2090   30.0510   40.9260 C   0  0  0  0  0  0  0  0  0  0  0  0
   36.8020   29.1330   41.8780 N   0  0  0  0  0  0  0  0  0  0  0  0
   37.5120   28.8980   42.9860 C   0  0  0  0  0  0  0  0  0  0  0  0
   38.6570   29.5730   43.1800 N   0  0  0  0  0  0  0  0  0  0  0  0
   40.0120   30.9750   42.4980 H   0  0  0  0  0  0  0  0  0  0  0  0
   37.0400   28.1550   43.6070 H   0  0  0  0  0  0  0  0  0  0  0  0
   36.3640   30.3780   39.7160 C   0  0  0  0  0  0  0  0  0  0  0  0
   36.4180   29.2370   38.6910 C   0  0  0  0  0  0  0  0  0  0  0  0
   35.1560   29.6070   39.5340 C   0  0  0  0  0  0  0  0  0  0  0  0
   36.7400   31.3010   39.2420 H   0  0  0  0  0  0  0  0  0  0  0  0
   36.3680   29.5350   37.6290 H   0  0  0  0  0  0  0  0  0  0  0  0
   36.8530   28.2640   38.9860 H   0  0  0  0  0  0  0  0  0  0  0  0
   34.3240   30.0700   38.9340 H   0  0  0  0  0  0  0  0  0  0  0  0
   34.8410   28.8830   40.3080 H   0  0  0  0  0  0  0  0  0  0  0  0
   38.8230   31.6740   40.1920 O   0  0  0  0  0  0  0  0  0  0  0  0
   40.8890   33.0210   40.9710 O   0  0  0  0  0  0  0  0  0  0  0  0
   39.4550   33.1980   40.4620 P   0  0  0  0  0  0  0  0  0  0  0  0
   38.6660   34.1430   41.5810 O   0  0  0  0  0  0  0  0  0  0  0  0
   39.1270   34.1990   42.4300 H   0  0  0  0  0  0  0  0  0  0  0  0
   39.6400   34.1100   39.0310 O   0  0  0  0  0  0  0  0  0  0  0  0
   38.7710   34.4030   38.6880 H   0  0  0  0  0  0  0  0  0  0  0  0
  1  7  1  0  0  0  0
  1  6  1  0  0  0  0
  2  1  2  0  0  0  0
  3  2  1  0  0  0  0
  3  4  2  0  0  0  0
  4  5  1  0  0  0  0
  5  6  2  0  0  0  0
  5  8  1  0  0  0  0
  9  3  1  0  0  0  0
 10 14  1  0  0  0  0
 10 11  1  0  0  0  0
 10  9  1  0  0  0  0
 11  9  1  0  0  0  0
 11 16  1  0  0  0  0
 12  9  1  0  0  0  0
 13 10  1  0  0  0  0
 15 11  1  0  0  0  0
 17 19  1  0  0  0  0
 17  2  1  0  0  0  0
 19 18  2  0  0  0  0
 19 20  1  0  0  0  0
 20 21  1  0  0  0  0
 22 19  1  0  0  0  0
 23 22  1  0  0  0  0
M  END
>  <minimizedAffinity>
-3.99040437

$$$$

 OpenBabel03252509213D

 23 24  0  0  0  0  0  0  0  0999 V2000
   38.8920   27.4910   42.9940 C   0  0  0  0  0  0  0  0  0  0  0  0
   37.6330   27.3850   42.3790 C   0  0  0  0  0  0  0  0  0  0  0  0
   37.1090   28.5820   41.8890 C   0  0  0  0  0  0  0  0  0  0  0  0
   37.8210   29.7610   42.0230 N   0  0  0  0  0  0  0  0  0  0  0  0
   39.0190   29.8020   42.6160 C   0  0  0  0  0  0  0  0  0  0  0  0
   39.5450   28.6640   43.0990 N   0  0  0  0  0  0  0  0  0  0  0  0
   39.3650   26.6290   43.3980 H   0  0  0  0  0  0  0  0  0  0  0  0
   39.4200   30.8020   42.6260 H   0  0  0  0  0  0  0  0  0  0  0  0
   35.7950   28.5210   41.1430 C   0  0  0  0  0  0  0  0  0  0  0  0
   35.5890   29.7860   40.2990 C   0  0  0  0  0  0  0  0  0  0  0  0
   35.8640   28.3670   39.7080 C   0  0  0  0  0  0  0  0  0  0  0  0
   34.9660   28.4340   41.8660 H   0  0  0  0  0  0  0  0  0  0  0  0
   34.5470   30.1360   40.1950 H   0  0  0  0  0  0  0  0  0  0  0  0
   36.4370   30.4790   40.1460 H   0  0  0  0  0  0  0  0  0  0  0  0
   34.9790   27.9080   39.1880 H   0  0  0  0  0  0  0  0  0  0  0  0
   36.8420   28.2090   39.2170 H   0  0  0  0  0  0  0  0  0  0  0  0
   36.9640   26.2130   42.2660 O   0  0  0  0  0  0  0  0  0  0  0  0
   36.2570   24.0050   41.1160 O   0  0  0  0  0  0  0  0  0  0  0  0
   37.4920   24.7770   41.5910 P   0  0  0  0  0  0  0  0  0  0  0  0
   38.3390   23.7520   42.5900 O   0  0  0  0  0  0  0  0  0  0  0  0
   37.8190   22.9950   42.8940 H   0  0  0  0  0  0  0  0  0  0  0  0
   38.4030   25.0030   40.1650 O   0  0  0  0  0  0  0  0  0  0  0  0
   39.2880   25.3690   40.3690 H   0  0  0  0  0  0  0  0  0  0  0  0
  1  6  1  0  0  0  0
  1  7  1  0  0  0  0
  2  1  2  0  0  0  0
  3  4  2  0  0  0  0
  3  2  1  0  0  0  0
  4  5  1  0  0  0  0
  5  8  1  0  0  0  0
  5  6  2  0  0  0  0
  9 12  1  0  0  0  0
  9  3  1  0  0  0  0
 10  9  1  0  0  0  0
 11 10  1  0  0  0  0
 11  9  1  0  0  0  0
 13 10  1  0  0  0  0
 14 10  1  0  0  0  0
 15 11  1  0  0  0  0
 16 11  1  0  0  0  0
 17  2  1  0  0  0  0
 18 19  2  0  0  0  0
 19 17  1  0  0  0  0
 19 20  1  0  0  0  0
 20 21  1  0  0  0  0
 22 23  1  0  0  0  0
 22 19  1  0  0  0  0
M  END
>  <minimizedAffinity>
-3.94667268

$$$$
