
 OpenBabel03242513123D

 18 18  0  0  0  0  0  0  0  0999 V2000
   38.1120   26.8360   41.5740 C   0  0  0  0  0  0  0  0  0  0  0  0
   37.1720   26.5410   42.5680 C   0  0  0  0  0  0  0  0  0  0  0  0
   36.7780   27.6110   43.3750 C   0  0  0  0  0  0  0  0  0  0  0  0
   37.3110   28.8600   43.1640 N   0  0  0  0  0  0  0  0  0  0  0  0
   38.2080   29.0720   42.1940 C   0  0  0  0  0  0  0  0  0  0  0  0
   38.6010   28.0600   41.4070 N   0  0  0  0  0  0  0  0  0  0  0  0
   38.4120   25.9860   40.9490 H   0  0  0  0  0  0  0  0  0  0  0  0
   36.7570   25.5570   42.7290 H   0  0  0  0  0  0  0  0  0  0  0  0
   36.0650   27.4890   44.1630 H   0  0  0  0  0  0  0  0  0  0  0  0
   38.7860   30.3890   41.9530 C   0  0  0  0  0  0  0  0  0  0  0  0
   39.5110   30.9610   42.8010 O   0  0  0  0  0  0  0  0  0  0  0  0
   38.5030   31.0040   40.7350 O   0  0  0  0  0  0  0  0  0  0  0  0
   36.5820   30.8810   39.0030 O   0  0  0  0  0  0  0  0  0  0  0  0
   36.9190   31.5080   40.3530 P   0  0  0  0  0  0  0  0  0  0  0  0
   36.8410   33.1990   40.1450 O   0  0  0  0  0  0  0  0  0  0  0  0
   37.3250   33.4650   39.3360 H   0  0  0  0  0  0  0  0  0  0  0  0
   35.7680   31.0050   41.4510 O   0  0  0  0  0  0  0  0  0  0  0  0
   35.8400   31.5200   42.2880 H   0  0  0  0  0  0  0  0  0  0  0  0
  1  2  1  0  0  0  0
  2  8  1  0  0  0  0
  2  3  2  0  0  0  0
  3  9  1  0  0  0  0
  4  3  1  0  0  0  0
  5  4  2  0  0  0  0
  6  1  2  0  0  0  0
  6  5  1  0  0  0  0
  7  1  1  0  0  0  0
 10  5  1  0  0  0  0
 10 11  2  0  0  0  0
 12 10  1  0  0  0  0
 13 14  2  0  0  0  0
 14 12  1  0  0  0  0
 14 17  1  0  0  0  0
 15 14  1  0  0  0  0
 16 15  1  0  0  0  0
 17 18  1  0  0  0  0
M  END
>  <minimizedAffinity>
-4.55921698

$$$$

 OpenBabel03242513123D

 18 18  0  0  0  0  0  0  0  0999 V2000
   38.3830   24.8880   42.1190 C   0  0  0  0  0  0  0  0  0  0  0  0
   39.4750   24.7770   42.9870 C   0  0  0  0  0  0  0  0  0  0  0  0
   39.8290   25.9390   43.6770 C   0  0  0  0  0  0  0  0  0  0  0  0
   39.1160   27.0970   43.4790 N   0  0  0  0  0  0  0  0  0  0  0  0
   38.0810   27.1320   42.6320 C   0  0  0  0  0  0  0  0  0  0  0  0
   37.7220   26.0290   41.9600 N   0  0  0  0  0  0  0  0  0  0  0  0
   38.1170   23.9680   41.5850 H   0  0  0  0  0  0  0  0  0  0  0  0
   40.0330   23.8640   43.1390 H   0  0  0  0  0  0  0  0  0  0  0  0
   40.6500   25.9590   44.3640 H   0  0  0  0  0  0  0  0  0  0  0  0
   37.3100   28.3500   42.4080 C   0  0  0  0  0  0  0  0  0  0  0  0
   37.6770   29.4610   42.8590 O   0  0  0  0  0  0  0  0  0  0  0  0
   36.1340   28.2410   41.6680 O   0  0  0  0  0  0  0  0  0  0  0  0
   36.6620   29.5190   39.4780 O   0  0  0  0  0  0  0  0  0  0  0  0
   35.6430   29.4900   40.6140 P   0  0  0  0  0  0  0  0  0  0  0  0
   35.7150   31.0120   41.3810 O   0  0  0  0  0  0  0  0  0  0  0  0
   36.6470   31.2630   41.5520 H   0  0  0  0  0  0  0  0  0  0  0  0
   34.1350   29.2510   39.9420 O   0  0  0  0  0  0  0  0  0  0  0  0
   33.4290   29.4000   40.6120 H   0  0  0  0  0  0  0  0  0  0  0  0
  1  2  1  0  0  0  0
  2  8  1  0  0  0  0
  2  3  2  0  0  0  0
  3  9  1  0  0  0  0
  4  3  1  0  0  0  0
  5  4  2  0  0  0  0
  6  1  2  0  0  0  0
  6  5  1  0  0  0  0
  7  1  1  0  0  0  0
 10  5  1  0  0  0  0
 10 11  2  0  0  0  0
 12 10  1  0  0  0  0
 13 14  2  0  0  0  0
 14 15  1  0  0  0  0
 14 12  1  0  0  0  0
 15 16  1  0  0  0  0
 17 18  1  0  0  0  0
 17 14  1  0  0  0  0
M  END
>  <minimizedAffinity>
-4.38456535

$$$$

 OpenBabel03242513123D

 18 18  0  0  0  0  0  0  0  0999 V2000
   36.9010   27.0760   41.5690 C   0  0  0  0  0  0  0  0  0  0  0  0
   37.3250   26.8660   42.8860 C   0  0  0  0  0  0  0  0  0  0  0  0
   37.7230   28.0050   43.5910 C   0  0  0  0  0  0  0  0  0  0  0  0
   37.6810   29.2360   42.9810 N   0  0  0  0  0  0  0  0  0  0  0  0
   37.2640   29.3650   41.7160 C   0  0  0  0  0  0  0  0  0  0  0  0
   36.8770   28.2860   41.0200 N   0  0  0  0  0  0  0  0  0  0  0  0
   36.5920   26.1720   41.0290 H   0  0  0  0  0  0  0  0  0  0  0  0
   37.3560   25.8960   43.3600 H   0  0  0  0  0  0  0  0  0  0  0  0
   38.0640   27.9500   44.6030 H   0  0  0  0  0  0  0  0  0  0  0  0
   37.2110   30.6610   41.0500 C   0  0  0  0  0  0  0  0  0  0  0  0
   36.2380   31.0010   40.3360 O   0  0  0  0  0  0  0  0  0  0  0  0
   38.2900   31.5250   41.2330 O   0  0  0  0  0  0  0  0  0  0  0  0
   39.1570   32.6570   39.0720 O   0  0  0  0  0  0  0  0  0  0  0  0
   38.4030   32.9840   40.3580 P   0  0  0  0  0  0  0  0  0  0  0  0
   39.3380   34.1390   41.1980 O   0  0  0  0  0  0  0  0  0  0  0  0
   40.2770   33.8600   41.2260 H   0  0  0  0  0  0  0  0  0  0  0  0
   36.9260   33.6330   39.9340 O   0  0  0  0  0  0  0  0  0  0  0  0
   36.4790   34.0210   40.7210 H   0  0  0  0  0  0  0  0  0  0  0  0
  1  2  1  0  0  0  0
  2  8  1  0  0  0  0
  2  3  2  0  0  0  0
  3  9  1  0  0  0  0
  4  3  1  0  0  0  0
  5  4  2  0  0  0  0
  6  1  2  0  0  0  0
  6  5  1  0  0  0  0
  7  1  1  0  0  0  0
 10 12  1  0  0  0  0
 10  5  1  0  0  0  0
 11 10  2  0  0  0  0
 13 14  2  0  0  0  0
 14 15  1  0  0  0  0
 14 12  1  0  0  0  0
 15 16  1  0  0  0  0
 17 14  1  0  0  0  0
 17 18  1  0  0  0  0
M  END
>  <minimizedAffinity>
-4.23648119

$$$$

 OpenBabel03242513123D

 18 18  0  0  0  0  0  0  0  0999 V2000
   39.5170   28.4050   42.9760 C   0  0  0  0  0  0  0  0  0  0  0  0
   38.7380   27.3810   43.5260 C   0  0  0  0  0  0  0  0  0  0  0  0
   37.3740   27.4220   43.2250 C   0  0  0  0  0  0  0  0  0  0  0  0
   36.8780   28.4280   42.4330 N   0  0  0  0  0  0  0  0  0  0  0  0
   37.6820   29.3780   41.9400 C   0  0  0  0  0  0  0  0  0  0  0  0
   38.9940   29.3590   42.2140 N   0  0  0  0  0  0  0  0  0  0  0  0
   40.5860   28.3590   43.2210 H   0  0  0  0  0  0  0  0  0  0  0  0
   39.1340   26.5920   44.1490 H   0  0  0  0  0  0  0  0  0  0  0  0
   36.6930   26.6850   43.5980 H   0  0  0  0  0  0  0  0  0  0  0  0
   37.1760   30.4540   41.0970 C   0  0  0  0  0  0  0  0  0  0  0  0
   36.0200   30.9210   41.2380 O   0  0  0  0  0  0  0  0  0  0  0  0
   38.0260   30.9570   40.1140 O   0  0  0  0  0  0  0  0  0  0  0  0
   39.0550   33.0490   41.2410 O   0  0  0  0  0  0  0  0  0  0  0  0
   38.3120   32.6330   39.9750 P   0  0  0  0  0  0  0  0  0  0  0  0
   36.8490   33.5110   39.9510 O   0  0  0  0  0  0  0  0  0  0  0  0
   36.4100   33.4650   40.8250 H   0  0  0  0  0  0  0  0  0  0  0  0
   39.2590   33.0500   38.6660 O   0  0  0  0  0  0  0  0  0  0  0  0
   38.7490   32.9640   37.8280 H   0  0  0  0  0  0  0  0  0  0  0  0
  1  7  1  0  0  0  0
  1  2  1  0  0  0  0
  2  8  1  0  0  0  0
  3  2  2  0  0  0  0
  3  9  1  0  0  0  0
  4  3  1  0  0  0  0
  5  6  1  0  0  0  0
  5  4  2  0  0  0  0
  6  1  2  0  0  0  0
 10 11  2  0  0  0  0
 10  5  1  0  0  0  0
 12 10  1  0  0  0  0
 14 12  1  0  0  0  0
 14 13  2  0  0  0  0
 15 14  1  0  0  0  0
 15 16  1  0  0  0  0
 17 14  1  0  0  0  0
 18 17  1  0  0  0  0
M  END
>  <minimizedAffinity>
-4.21298504

$$$$

 OpenBabel03242513123D

 18 18  0  0  0  0  0  0  0  0999 V2000
   36.3010   28.1800   41.8890 C   0  0  0  0  0  0  0  0  0  0  0  0
   36.7900   27.5810   43.0550 C   0  0  0  0  0  0  0  0  0  0  0  0
   37.9200   28.1760   43.6220 C   0  0  0  0  0  0  0  0  0  0  0  0
   38.4810   29.2810   43.0290 N   0  0  0  0  0  0  0  0  0  0  0  0
   37.9610   29.8030   41.9120 C   0  0  0  0  0  0  0  0  0  0  0  0
   36.8760   29.2500   41.3510 N   0  0  0  0  0  0  0  0  0  0  0  0
   35.4140   27.7020   41.4560 H   0  0  0  0  0  0  0  0  0  0  0  0
   36.3450   26.7110   43.5160 H   0  0  0  0  0  0  0  0  0  0  0  0
   38.3710   27.7930   44.5130 H   0  0  0  0  0  0  0  0  0  0  0  0
   38.5400   30.9770   41.2680 C   0  0  0  0  0  0  0  0  0  0  0  0
   39.7680   31.0650   41.0300 O   0  0  0  0  0  0  0  0  0  0  0  0
   37.6760   32.0130   40.9200 O   0  0  0  0  0  0  0  0  0  0  0  0
   37.0030   31.5950   38.4550 O   0  0  0  0  0  0  0  0  0  0  0  0
   37.6620   32.6500   39.3380 P   0  0  0  0  0  0  0  0  0  0  0  0
   39.2470   32.8690   38.7450 O   0  0  0  0  0  0  0  0  0  0  0  0
   39.6780   32.0010   38.5970 H   0  0  0  0  0  0  0  0  0  0  0  0
   36.7880   34.0630   39.1870 O   0  0  0  0  0  0  0  0  0  0  0  0
   37.2720   34.8160   39.5950 H   0  0  0  0  0  0  0  0  0  0  0  0
  1  2  1  0  0  0  0
  2  8  1  0  0  0  0
  2  3  2  0  0  0  0
  3  9  1  0  0  0  0
  4  3  1  0  0  0  0
  5  4  2  0  0  0  0
  6  1  2  0  0  0  0
  6  5  1  0  0  0  0
  7  1  1  0  0  0  0
 10  5  1  0  0  0  0
 11 10  2  0  0  0  0
 12 10  1  0  0  0  0
 13 14  2  0  0  0  0
 14 12  1  0  0  0  0
 15 14  1  0  0  0  0
 16 15  1  0  0  0  0
 17 14  1  0  0  0  0
 17 18  1  0  0  0  0
M  END
>  <minimizedAffinity>
-4.07388067

$$$$

 OpenBabel03242513123D

 18 18  0  0  0  0  0  0  0  0999 V2000
   36.6190   27.5630   42.8920 C   0  0  0  0  0  0  0  0  0  0  0  0
   37.9130   27.1060   43.1630 C   0  0  0  0  0  0  0  0  0  0  0  0
   38.8490   27.2730   42.1390 C   0  0  0  0  0  0  0  0  0  0  0  0
   38.4690   27.8570   40.9550 N   0  0  0  0  0  0  0  0  0  0  0  0
   37.2110   28.2710   40.7620 C   0  0  0  0  0  0  0  0  0  0  0  0
   36.2970   28.1220   41.7310 N   0  0  0  0  0  0  0  0  0  0  0  0
   35.8960   27.4250   43.7060 H   0  0  0  0  0  0  0  0  0  0  0  0
   38.2060   26.6470   44.0960 H   0  0  0  0  0  0  0  0  0  0  0  0
   39.8650   26.9560   42.2470 H   0  0  0  0  0  0  0  0  0  0  0  0
   36.7880   28.8950   39.5130 C   0  0  0  0  0  0  0  0  0  0  0  0
   36.0240   28.3130   38.7070 O   0  0  0  0  0  0  0  0  0  0  0  0
   37.2640   30.1750   39.2380 O   0  0  0  0  0  0  0  0  0  0  0  0
   38.2510   31.5480   41.1980 O   0  0  0  0  0  0  0  0  0  0  0  0
   37.0020   31.4620   40.3260 P   0  0  0  0  0  0  0  0  0  0  0  0
   35.6930   31.1330   41.3700 O   0  0  0  0  0  0  0  0  0  0  0  0
   35.9230   30.4070   41.9860 H   0  0  0  0  0  0  0  0  0  0  0  0
   36.7930   32.9410   39.5840 O   0  0  0  0  0  0  0  0  0  0  0  0
   35.9090   32.9910   39.1530 H   0  0  0  0  0  0  0  0  0  0  0  0
  1  2  1  0  0  0  0
  1  7  1  0  0  0  0
  2  8  1  0  0  0  0
  3  9  1  0  0  0  0
  3  2  2  0  0  0  0
  4  3  1  0  0  0  0
  5  4  2  0  0  0  0
  5  6  1  0  0  0  0
  6  1  2  0  0  0  0
 10  5  1  0  0  0  0
 11 10  2  0  0  0  0
 12 10  1  0  0  0  0
 12 14  1  0  0  0  0
 14 13  2  0  0  0  0
 14 15  1  0  0  0  0
 15 16  1  0  0  0  0
 17 14  1  0  0  0  0
 18 17  1  0  0  0  0
M  END
>  <minimizedAffinity>
-4.03842402

$$$$

 OpenBabel03242513123D

 18 18  0  0  0  0  0  0  0  0999 V2000
   40.7400   32.1400   37.4260 C   0  0  0  0  0  0  0  0  0  0  0  0
   41.6380   33.1770   37.7000 C   0  0  0  0  0  0  0  0  0  0  0  0
   41.3300   33.9780   38.8030 C   0  0  0  0  0  0  0  0  0  0  0  0
   40.2000   33.7210   39.5400 N   0  0  0  0  0  0  0  0  0  0  0  0
   39.3820   32.7110   39.2200 C   0  0  0  0  0  0  0  0  0  0  0  0
   39.6580   31.9280   38.1670 N   0  0  0  0  0  0  0  0  0  0  0  0
   40.9950   31.5200   36.5570 H   0  0  0  0  0  0  0  0  0  0  0  0
   42.5250   33.3740   37.1160 H   0  0  0  0  0  0  0  0  0  0  0  0
   41.9530   34.7970   39.0950 H   0  0  0  0  0  0  0  0  0  0  0  0
   38.1780   32.4210   39.9900 C   0  0  0  0  0  0  0  0  0  0  0  0
   37.0690   32.9340   39.7070 O   0  0  0  0  0  0  0  0  0  0  0  0
   38.2970   31.5440   41.0670 O   0  0  0  0  0  0  0  0  0  0  0  0
   37.2080   29.3360   40.2640 O   0  0  0  0  0  0  0  0  0  0  0  0
   37.0980   30.3710   41.3800 P   0  0  0  0  0  0  0  0  0  0  0  0
   35.5330   31.0430   41.2760 O   0  0  0  0  0  0  0  0  0  0  0  0
   35.3270   31.2840   40.3500 H   0  0  0  0  0  0  0  0  0  0  0  0
   37.2940   29.5780   42.8340 O   0  0  0  0  0  0  0  0  0  0  0  0
   37.0560   30.1690   43.5850 H   0  0  0  0  0  0  0  0  0  0  0  0
  1  2  2  0  0  0  0
  1  6  1  0  0  0  0
  2  3  1  0  0  0  0
  3  9  1  0  0  0  0
  3  4  2  0  0  0  0
  5  4  1  0  0  0  0
  5 10  1  0  0  0  0
  6  5  2  0  0  0  0
  7  1  1  0  0  0  0
  8  2  1  0  0  0  0
 10 12  1  0  0  0  0
 11 10  2  0  0  0  0
 12 14  1  0  0  0  0
 13 14  2  0  0  0  0
 14 17  1  0  0  0  0
 15 14  1  0  0  0  0
 16 15  1  0  0  0  0
 17 18  1  0  0  0  0
M  END
>  <minimizedAffinity>
-4.03381586

$$$$

 OpenBabel03242513123D

 18 18  0  0  0  0  0  0  0  0999 V2000
   36.6410   25.7510   40.0220 C   0  0  0  0  0  0  0  0  0  0  0  0
   36.9090   24.6820   40.8840 C   0  0  0  0  0  0  0  0  0  0  0  0
   37.4210   25.0210   42.1390 C   0  0  0  0  0  0  0  0  0  0  0  0
   37.6310   26.3400   42.4590 N   0  0  0  0  0  0  0  0  0  0  0  0
   37.3530   27.3140   41.5840 C   0  0  0  0  0  0  0  0  0  0  0  0
   36.8590   27.0130   40.3740 N   0  0  0  0  0  0  0  0  0  0  0  0
   36.2390   25.4690   39.0410 H   0  0  0  0  0  0  0  0  0  0  0  0
   36.7420   23.6460   40.6280 H   0  0  0  0  0  0  0  0  0  0  0  0
   37.6600   24.2760   42.8700 H   0  0  0  0  0  0  0  0  0  0  0  0
   37.5670   28.7210   41.9030 C   0  0  0  0  0  0  0  0  0  0  0  0
   37.4300   29.1660   43.0670 O   0  0  0  0  0  0  0  0  0  0  0  0
   37.9340   29.5700   40.8600 O   0  0  0  0  0  0  0  0  0  0  0  0
   37.7950   32.1530   40.7540 O   0  0  0  0  0  0  0  0  0  0  0  0
   36.9670   30.9110   40.4400 P   0  0  0  0  0  0  0  0  0  0  0  0
   35.5660   30.9930   41.4110 O   0  0  0  0  0  0  0  0  0  0  0  0
   35.8050   31.2130   42.3350 H   0  0  0  0  0  0  0  0  0  0  0  0
   36.5560   30.9650   38.8240 O   0  0  0  0  0  0  0  0  0  0  0  0
   35.8780   30.2830   38.6160 H   0  0  0  0  0  0  0  0  0  0  0  0
  1  6  2  0  0  0  0
  1  2  1  0  0  0  0
  2  3  2  0  0  0  0
  3  4  1  0  0  0  0
  3  9  1  0  0  0  0
  5 10  1  0  0  0  0
  5  4  2  0  0  0  0
  6  5  1  0  0  0  0
  7  1  1  0  0  0  0
  8  2  1  0  0  0  0
 10 11  2  0  0  0  0
 12 10  1  0  0  0  0
 14 13  2  0  0  0  0
 14 12  1  0  0  0  0
 14 15  1  0  0  0  0
 15 16  1  0  0  0  0
 17 14  1  0  0  0  0
 18 17  1  0  0  0  0
M  END
>  <minimizedAffinity>
-3.97035885

$$$$

 OpenBabel03242513123D

 18 18  0  0  0  0  0  0  0  0999 V2000
   38.8590   25.2590   40.2110 C   0  0  0  0  0  0  0  0  0  0  0  0
   38.4970   23.9350   40.4840 C   0  0  0  0  0  0  0  0  0  0  0  0
   37.5060   23.7590   41.4530 C   0  0  0  0  0  0  0  0  0  0  0  0
   36.9510   24.8530   42.0720 N   0  0  0  0  0  0  0  0  0  0  0  0
   37.3460   26.0930   41.7620 C   0  0  0  0  0  0  0  0  0  0  0  0
   38.2950   26.2880   40.8350 N   0  0  0  0  0  0  0  0  0  0  0  0
   39.6380   25.3820   39.4480 H   0  0  0  0  0  0  0  0  0  0  0  0
   38.9370   23.0790   39.9940 H   0  0  0  0  0  0  0  0  0  0  0  0
   37.1600   22.7860   41.7340 H   0  0  0  0  0  0  0  0  0  0  0  0
   36.7700   27.2680   42.4060 C   0  0  0  0  0  0  0  0  0  0  0  0
   36.8070   27.4290   43.6490 O   0  0  0  0  0  0  0  0  0  0  0  0
   36.1660   28.2210   41.5870 O   0  0  0  0  0  0  0  0  0  0  0  0
   37.5770   29.8120   40.1110 O   0  0  0  0  0  0  0  0  0  0  0  0
   36.8210   29.7890   41.4360 P   0  0  0  0  0  0  0  0  0  0  0  0
   37.9650   30.1030   42.6620 O   0  0  0  0  0  0  0  0  0  0  0  0
   38.7630   29.5500   42.5330 H   0  0  0  0  0  0  0  0  0  0  0  0
   35.6730   30.9980   41.3920 O   0  0  0  0  0  0  0  0  0  0  0  0
   35.2820   31.1380   42.2840 H   0  0  0  0  0  0  0  0  0  0  0  0
  1  2  2  0  0  0  0
  1  6  1  0  0  0  0
  2  3  1  0  0  0  0
  3  9  1  0  0  0  0
  3  4  2  0  0  0  0
  5  4  1  0  0  0  0
  5 10  1  0  0  0  0
  6  5  2  0  0  0  0
  7  1  1  0  0  0  0
  8  2  1  0  0  0  0
 10 11  2  0  0  0  0
 12 10  1  0  0  0  0
 13 14  2  0  0  0  0
 14 12  1  0  0  0  0
 14 15  1  0  0  0  0
 16 15  1  0  0  0  0
 17 14  1  0  0  0  0
 17 18  1  0  0  0  0
M  END
>  <minimizedAffinity>
-3.93071747

$$$$
