
 OpenBabel03252509353D

 42 43  0  0  1  0  0  0  0  0999 V2000
   44.5300   35.4590   44.0660 O   0  0  0  0  0  0  0  0  0  0  0  0
   45.3930   34.2500   44.3760 P   0  0  1  0  0  0  0  0  0  0  0  0
   44.7240   32.8450   43.7110 O   0  0  0  0  0  0  0  0  0  0  0  0
   44.3190   33.0300   42.8160 H   0  0  0  0  0  0  0  0  0  0  0  0
   46.9080   34.5200   43.7290 O   0  0  0  0  0  0  0  0  0  0  0  0
   47.0340   33.8320   42.5170 C   0  0  1  0  0  0  0  0  0  0  0  0
   46.4460   34.6700   41.3790 C   0  0  0  0  0  0  0  0  0  0  0  0
   46.9550   33.9020   40.1820 C   0  0  0  0  0  0  0  0  0  0  0  0
   48.2460   33.2330   40.6280 C   0  0  0  0  0  0  0  0  0  0  0  0
   48.4500   33.7040   42.0520 C   0  0  1  0  0  0  0  0  0  0  0  0
   46.5190   32.8750   42.4960 H   0  0  0  0  0  0  0  0  0  0  0  0
   45.3390   34.5590   41.4190 H   0  0  0  0  0  0  0  0  0  0  0  0
   46.7250   35.7180   41.4130 H   0  0  0  0  0  0  0  0  0  0  0  0
   46.1840   33.1380   39.8740 H   0  0  0  0  0  0  0  0  0  0  0  0
   47.1800   34.6020   39.3490 H   0  0  0  0  0  0  0  0  0  0  0  0
   49.0910   33.4890   39.9710 H   0  0  0  0  0  0  0  0  0  0  0  0
   48.0430   32.1450   40.6940 H   0  0  0  0  0  0  0  0  0  0  0  0
   48.9570   32.9380   42.6650 H   0  0  0  0  0  0  0  0  0  0  0  0
   49.2130   34.9990   42.1160 C   0  0  0  0  0  0  0  0  0  0  0  0
   48.5630   35.9050   42.1540 H   0  0  0  0  0  0  0  0  0  0  0  0
   49.8760   35.1190   41.2120 H   0  0  0  0  0  0  0  0  0  0  0  0
   50.0170   35.0740   43.2310 O   0  0  0  0  0  0  0  0  0  0  0  0
   50.1480   34.1670   43.6010 H   0  0  0  0  0  0  0  0  0  0  0  0
   45.4830   33.9970   46.0230 O   0  0  0  0  0  0  0  0  0  0  0  0
   46.4060   33.0350   46.2770 C   0  0  0  0  0  0  0  0  0  0  0  0
   47.2710   33.5280   46.8050 H   0  0  0  0  0  0  0  0  0  0  0  0
   46.8440   32.5020   45.4370 H   0  0  0  0  0  0  0  0  0  0  0  0
   45.3600   31.3590   49.4320 C   0  0  0  0  0  0  0  0  0  0  0  0
   45.8270   32.3560   48.5720 C   0  0  0  0  0  0  0  0  0  0  0  0
   45.9150   32.0080   47.2170 C   0  0  0  0  0  0  0  0  0  0  0  0
   45.5500   30.7530   46.8170 N   0  0  0  0  0  0  0  0  0  0  0  0
   45.1030   29.8190   47.6810 C   0  0  0  0  0  0  0  0  0  0  0  0
   45.0120   30.1300   48.9820 N   0  0  0  0  0  0  0  0  0  0  0  0
   45.2710   31.5720   50.4950 H   0  0  0  0  0  0  0  0  0  0  0  0
   46.0970   33.3250   48.9600 H   0  0  0  0  0  0  0  0  0  0  0  0
   44.7790   28.6000   47.1000 O   0  0  0  0  0  0  0  0  0  0  0  0
   43.7600   26.2190   47.3570 O   0  0  0  0  0  0  0  0  0  0  0  0
   44.8510   27.1170   47.9060 P   0  0  0  0  0  0  0  0  0  0  0  0
   44.5690   27.2820   49.5740 O   0  0  0  0  0  0  0  0  0  0  0  0
   43.6000   27.4440   49.6790 H   0  0  0  0  0  0  0  0  0  0  0  0
   46.3240   26.3230   47.6710 O   0  0  0  0  0  0  0  0  0  0  0  0
   46.5320   25.8320   48.4930 H   0  0  0  0  0  0  0  0  0  0  0  0
  2  1  2  6  0  0  0
  2 24  1  0  0  0  0
  3  2  1  0  0  0  0
  4  3  1  0  0  0  0
  5  2  1  0  0  0  0
  6 11  1  1  0  0  0
  6  5  1  0  0  0  0
  7 13  1  0  0  0  0
  7 12  1  0  0  0  0
  7  6  1  0  0  0  0
  8  9  1  0  0  0  0
  8  7  1  0  0  0  0
  9 17  1  0  0  0  0
  9 10  1  0  0  0  0
 10 19  1  0  0  0  0
 10  6  1  0  0  0  0
 10 18  1  1  0  0  0
 14  8  1  0  0  0  0
 15  8  1  0  0  0  0
 16  9  1  0  0  0  0
 19 20  1  0  0  0  0
 19 22  1  0  0  0  0
 21 19  1  0  0  0  0
 22 23  1  0  0  0  0
 24 25  1  0  0  0  0
 25 26  1  0  0  0  0
 25 30  1  0  0  0  0
 27 25  1  0  0  0  0
 28 34  1  0  0  0  0
 29 35  1  0  0  0  0
 29 28  2  0  0  0  0
 30 29  1  0  0  0  0
 31 30  2  0  0  0  0
 31 32  1  0  0  0  0
 32 33  2  0  0  0  0
 33 28  1  0  0  0  0
 36 32  1  0  0  0  0
 36 38  1  0  0  0  0
 37 38  2  0  0  0  0
 38 39  1  0  0  0  0
 39 40  1  0  0  0  0
 41 38  1  0  0  0  0
 41 42  1  0  0  0  0
M  END
>  <minimizedAffinity>
-5.9144311

>  <minimizedRMSD>
1.44261348

$$$$
