
 OpenBabel03252509203D

 23 24  0  0  0  0  0  0  0  0999 V2000
   45.5330   34.0690   45.6080 C   0  0  0  0  0  0  0  0  0  0  0  0
   46.1840   34.0240   44.3630 C   0  0  0  0  0  0  0  0  0  0  0  0
   47.0210   32.9240   44.1710 C   0  0  0  0  0  0  0  0  0  0  0  0
   47.1630   31.9740   45.1670 N   0  0  0  0  0  0  0  0  0  0  0  0
   46.5160   32.0670   46.3330 C   0  0  0  0  0  0  0  0  0  0  0  0
   45.7050   33.1170   46.5450 N   0  0  0  0  0  0  0  0  0  0  0  0
   44.8770   34.8730   45.8400 H   0  0  0  0  0  0  0  0  0  0  0  0
   46.7500   31.2390   46.9810 H   0  0  0  0  0  0  0  0  0  0  0  0
   47.6850   32.7750   42.8210 C   0  0  0  0  0  0  0  0  0  0  0  0
   49.0520   33.4730   42.8080 C   0  0  0  0  0  0  0  0  0  0  0  0
   48.8520   31.9240   42.7570 C   0  0  0  0  0  0  0  0  0  0  0  0
   47.0460   33.2280   42.0440 H   0  0  0  0  0  0  0  0  0  0  0  0
   49.3540   33.9310   41.8500 H   0  0  0  0  0  0  0  0  0  0  0  0
   49.4980   33.8100   43.7620 H   0  0  0  0  0  0  0  0  0  0  0  0
   49.1080   31.4620   41.7640 H   0  0  0  0  0  0  0  0  0  0  0  0
   49.1650   31.3490   43.6470 H   0  0  0  0  0  0  0  0  0  0  0  0
   46.0200   34.9730   43.4100 O   0  0  0  0  0  0  0  0  0  0  0  0
   44.1690   35.8130   41.8100 O   0  0  0  0  0  0  0  0  0  0  0  0
   44.7440   36.0360   43.2120 P   0  0  0  0  0  0  0  0  0  0  0  0
   45.1010   37.6560   43.3290 O   0  0  0  0  0  0  0  0  0  0  0  0
   45.1330   38.1050   42.4720 H   0  0  0  0  0  0  0  0  0  0  0  0
   43.4300   35.7040   44.2490 O   0  0  0  0  0  0  0  0  0  0  0  0
   43.6420   35.9480   45.1720 H   0  0  0  0  0  0  0  0  0  0  0  0
  1  7  1  0  0  0  0
  1  6  1  0  0  0  0
  2  1  2  0  0  0  0
  3  2  1  0  0  0  0
  3  4  2  0  0  0  0
  4  5  1  0  0  0  0
  5  6  2  0  0  0  0
  5  8  1  0  0  0  0
  9  3  1  0  0  0  0
 10  9  1  0  0  0  0
 10 14  1  0  0  0  0
 11 10  1  0  0  0  0
 11  9  1  0  0  0  0
 11 16  1  0  0  0  0
 12  9  1  0  0  0  0
 13 10  1  0  0  0  0
 15 11  1  0  0  0  0
 17  2  1  0  0  0  0
 18 19  2  0  0  0  0
 19 20  1  0  0  0  0
 19 17  1  0  0  0  0
 19 22  1  0  0  0  0
 21 20  1  0  0  0  0
 22 23  1  0  0  0  0
M  END
>  <minimizedAffinity>
-4.33551407

>  <minimizedRMSD>
2.5657084

$$$$
