
 OpenBabel03252503393D

 19 19  0  0  0  0  0  0  0  0999 V2000
   44.5770   35.3110   44.3470 C   0  0  0  0  0  0  0  0  0  0  0  0
   44.9530   35.0410   43.0410 C   0  0  0  0  0  0  0  0  0  0  0  0
   45.9470   34.0770   42.8430 C   0  0  0  0  0  0  0  0  0  0  0  0
   46.4640   33.4840   43.9360 N   0  0  0  0  0  0  0  0  0  0  0  0
   46.0740   33.7700   45.1910 C   0  0  0  0  0  0  0  0  0  0  0  0
   45.1060   34.7050   45.4320 N   0  0  0  0  0  0  0  0  0  0  0  0
   43.8100   36.0440   44.6410 H   0  0  0  0  0  0  0  0  0  0  0  0
   46.2060   33.9020   41.8260 H   0  0  0  0  0  0  0  0  0  0  0  0
   44.2520   35.8110   42.0020 C   0  0  0  0  0  0  0  0  0  0  0  0
   44.7830   35.7930   41.0290 H   0  0  0  0  0  0  0  0  0  0  0  0
   43.2470   35.3440   41.9070 H   0  0  0  0  0  0  0  0  0  0  0  0
   44.1580   36.8570   42.3560 H   0  0  0  0  0  0  0  0  0  0  0  0
   46.6960   33.0780   46.2220 O   0  0  0  0  0  0  0  0  0  0  0  0
   46.6030   32.1970   48.7090 O   0  0  0  0  0  0  0  0  0  0  0  0
   45.7310   32.4050   47.4660 P   0  0  0  0  0  0  0  0  0  0  0  0
   45.0780   30.9290   46.9650 O   0  0  0  0  0  0  0  0  0  0  0  0
   44.8840   30.4000   47.7800 H   0  0  0  0  0  0  0  0  0  0  0  0
   44.5120   33.4850   47.9120 O   0  0  0  0  0  0  0  0  0  0  0  0
   43.7520   33.5140   47.3100 H   0  0  0  0  0  0  0  0  0  0  0  0
  1  7  1  0  0  0  0
  1  6  1  0  0  0  0
  2  1  2  0  0  0  0
  3  2  1  0  0  0  0
  3  4  2  0  0  0  0
  4  5  1  0  0  0  0
  5  6  2  0  0  0  0
  5 13  1  0  0  0  0
  8  3  1  0  0  0  0
  9 12  1  0  0  0  0
  9  2  1  0  0  0  0
 10  9  1  0  0  0  0
 11  9  1  0  0  0  0
 13 15  1  0  0  0  0
 15 18  1  0  0  0  0
 15 14  2  0  0  0  0
 16 15  1  0  0  0  0
 16 17  1  0  0  0  0
 19 18  1  0  0  0  0
M  END
>  <minimizedAffinity>
-4.26958227

>  <minimizedRMSD>
1.41280365

$$$$
