
 OpenBabel03252508573D

 37 38  0  0  1  0  0  0  0  0999 V2000
   47.1940   34.1690   43.1000 N   0  0  0  0  0  0  0  0  0  0  0  0
   46.6570   35.3550   42.5230 C   0  0  0  0  0  0  0  0  0  0  0  0
   45.1890   35.5950   42.7440 C   0  0  0  0  0  0  0  0  0  0  0  0
   44.6480   35.0510   44.0340 C   0  0  0  0  0  0  0  0  0  0  0  0
   45.7250   34.4560   44.8920 C   0  0  0  0  0  0  0  0  0  0  0  0
   46.4050   33.4020   43.9630 C   0  0  2  0  0  0  0  0  0  0  0  0
   47.2110   36.2150   42.9540 H   0  0  0  0  0  0  0  0  0  0  0  0
   46.8710   35.3650   41.4330 H   0  0  0  0  0  0  0  0  0  0  0  0
   44.6420   35.2300   41.8470 H   0  0  0  0  0  0  0  0  0  0  0  0
   45.0140   36.7040   42.7720 H   0  0  0  0  0  0  0  0  0  0  0  0
   43.9020   34.2650   43.8050 H   0  0  0  0  0  0  0  0  0  0  0  0
   44.1300   35.8340   44.6570 H   0  0  0  0  0  0  0  0  0  0  0  0
   46.5110   35.1540   45.1680 H   0  0  0  0  0  0  0  0  0  0  0  0
   45.2340   33.9480   45.7300 H   0  0  0  0  0  0  0  0  0  0  0  0
   45.5460   32.8530   43.5740 H   0  0  0  0  0  0  0  0  0  0  0  0
   48.1490   33.4990   42.2670 C   0  0  0  0  0  0  0  0  0  0  0  0
   48.7990   32.8380   42.8780 H   0  0  0  0  0  0  0  0  0  0  0  0
   48.8090   34.2320   41.7640 H   0  0  0  0  0  0  0  0  0  0  0  0
   47.4410   32.6560   41.2560 C   0  0  0  0  0  0  0  0  0  0  0  0
   47.6300   31.5790   41.4730 H   0  0  0  0  0  0  0  0  0  0  0  0
   46.3490   32.8380   41.1740 H   0  0  0  0  0  0  0  0  0  0  0  0
   49.3280   32.2820   38.0250 C   0  0  0  0  0  0  0  0  0  0  0  0
   48.8070   32.0150   39.3050 C   0  0  0  0  0  0  0  0  0  0  0  0
   47.9930   32.9480   39.9050 C   0  0  0  0  0  0  0  0  0  0  0  0
   47.7300   34.0800   39.2330 N   0  0  0  0  0  0  0  0  0  0  0  0
   48.2370   34.3210   38.0060 C   0  0  0  0  0  0  0  0  0  0  0  0
   49.0340   33.4310   37.3940 N   0  0  0  0  0  0  0  0  0  0  0  0
   49.9660   31.5530   37.5540 H   0  0  0  0  0  0  0  0  0  0  0  0
   49.0890   31.0640   39.7530 H   0  0  0  0  0  0  0  0  0  0  0  0
   47.9430   35.2810   37.5740 H   0  0  0  0  0  0  0  0  0  0  0  0
   47.2130   32.6920   44.8460 O   0  0  0  0  0  0  0  0  0  0  0  0
   46.0090   30.5410   43.8670 O   0  0  0  0  0  0  0  0  0  0  0  0
   46.6500   31.1250   45.1220 P   0  0  0  0  0  0  0  0  0  0  0  0
   45.4050   31.2420   46.2760 O   0  0  0  0  0  0  0  0  0  0  0  0
   44.5040   31.1520   45.8790 H   0  0  0  0  0  0  0  0  0  0  0  0
   47.8420   30.1280   45.7390 O   0  0  0  0  0  0  0  0  0  0  0  0
   48.4670   29.7760   45.0680 H   0  0  0  0  0  0  0  0  0  0  0  0
  1  6  1  0  0  0  0
  2  3  1  0  0  0  0
  2  7  1  0  0  0  0
  2  1  1  0  0  0  0
  3 10  1  0  0  0  0
  3  4  1  0  0  0  0
  4 12  1  0  0  0  0
  4  5  1  0  0  0  0
  5 13  1  0  0  0  0
  5 14  1  0  0  0  0
  6 15  1  6  0  0  0
  6 31  1  0  0  0  0
  6  5  1  0  0  0  0
  8  2  1  0  0  0  0
  9  3  1  0  0  0  0
 11  4  1  0  0  0  0
 16 17  1  0  0  0  0
 16  1  1  0  0  0  0
 18 16  1  0  0  0  0
 19 20  1  0  0  0  0
 19 16  1  0  0  0  0
 21 19  1  0  0  0  0
 22 23  1  0  0  0  0
 23 29  1  0  0  0  0
 23 24  2  0  0  0  0
 24 19  1  0  0  0  0
 25 24  1  0  0  0  0
 26 25  2  0  0  0  0
 27 26  1  0  0  0  0
 27 22  2  0  0  0  0
 28 22  1  0  0  0  0
 30 26  1  0  0  0  0
 31 33  1  0  0  0  0
 32 33  2  0  0  0  0
 33 36  1  0  0  0  0
 33 34  1  0  0  0  0
 35 34  1  0  0  0  0
 37 36  1  0  0  0  0
M  END
>  <minimizedAffinity>
-3.79906249

>  <minimizedRMSD>
6.95390415

$$$$
