
 OpenBabel03252509353D

 42 43  0  0  1  0  0  0  0  0999 V2000
   44.5200   35.4610   44.0860 O   0  0  0  0  0  0  0  0  0  0  0  0
   45.3890   34.2490   44.3690 P   0  0  1  0  0  0  0  0  0  0  0  0
   44.7170   32.8530   43.6890 O   0  0  0  0  0  0  0  0  0  0  0  0
   44.3020   33.0520   42.8010 H   0  0  0  0  0  0  0  0  0  0  0  0
   46.8970   34.5330   43.7110 O   0  0  0  0  0  0  0  0  0  0  0  0
   47.0250   33.8360   42.5050 C   0  0  1  0  0  0  0  0  0  0  0  0
   46.4440   34.6680   41.3580 C   0  0  0  0  0  0  0  0  0  0  0  0
   46.9550   33.8890   40.1690 C   0  0  0  0  0  0  0  0  0  0  0  0
   48.2430   33.2180   40.6240 C   0  0  0  0  0  0  0  0  0  0  0  0
   48.4430   33.6990   42.0460 C   0  0  1  0  0  0  0  0  0  0  0  0
   46.5070   32.8800   42.4880 H   0  0  0  0  0  0  0  0  0  0  0  0
   45.3370   34.5610   41.3950 H   0  0  0  0  0  0  0  0  0  0  0  0
   46.7270   35.7150   41.3860 H   0  0  0  0  0  0  0  0  0  0  0  0
   46.1830   33.1260   39.8630 H   0  0  0  0  0  0  0  0  0  0  0  0
   47.1870   34.5820   39.3310 H   0  0  0  0  0  0  0  0  0  0  0  0
   49.0900   33.4660   39.9690 H   0  0  0  0  0  0  0  0  0  0  0  0
   48.0350   32.1320   40.6980 H   0  0  0  0  0  0  0  0  0  0  0  0
   48.9450   32.9350   42.6670 H   0  0  0  0  0  0  0  0  0  0  0  0
   49.2100   34.9910   42.1040 C   0  0  0  0  0  0  0  0  0  0  0  0
   48.5630   35.9010   42.1290 H   0  0  0  0  0  0  0  0  0  0  0  0
   49.8800   35.1000   41.2040 H   0  0  0  0  0  0  0  0  0  0  0  0
   50.0060   35.0730   43.2240 O   0  0  0  0  0  0  0  0  0  0  0  0
   50.1310   34.1690   43.6030 H   0  0  0  0  0  0  0  0  0  0  0  0
   45.4960   33.9710   46.0110 O   0  0  0  0  0  0  0  0  0  0  0  0
   46.4420   33.0250   46.2430 C   0  0  0  0  0  0  0  0  0  0  0  0
   47.2980   33.5270   46.7760 H   0  0  0  0  0  0  0  0  0  0  0  0
   46.8880   32.5180   45.3900 H   0  0  0  0  0  0  0  0  0  0  0  0
   45.1040   31.3390   49.2790 C   0  0  0  0  0  0  0  0  0  0  0  0
   45.5340   32.3650   48.4330 C   0  0  0  0  0  0  0  0  0  0  0  0
   45.9780   31.9700   47.1640 C   0  0  0  0  0  0  0  0  0  0  0  0
   45.9680   30.6440   46.8270 N   0  0  0  0  0  0  0  0  0  0  0  0
   45.5440   29.6850   47.6750 C   0  0  0  0  0  0  0  0  0  0  0  0
   45.1150   30.0410   48.8940 N   0  0  0  0  0  0  0  0  0  0  0  0
   44.7480   31.5860   50.2770 H   0  0  0  0  0  0  0  0  0  0  0  0
   45.5130   33.3890   48.7680 H   0  0  0  0  0  0  0  0  0  0  0  0
   45.6040   28.3950   47.1650 O   0  0  0  0  0  0  0  0  0  0  0  0
   43.3490   28.7300   45.9090 O   0  0  0  0  0  0  0  0  0  0  0  0
   44.5160   27.7700   46.0330 P   0  0  0  0  0  0  0  0  0  0  0  0
   43.8800   26.2720   46.5170 O   0  0  0  0  0  0  0  0  0  0  0  0
   43.2300   26.4620   47.2360 H   0  0  0  0  0  0  0  0  0  0  0  0
   45.2040   27.6090   44.4980 O   0  0  0  0  0  0  0  0  0  0  0  0
   44.8030   26.8220   44.0730 H   0  0  0  0  0  0  0  0  0  0  0  0
  2  1  2  6  0  0  0
  2 24  1  0  0  0  0
  3  2  1  0  0  0  0
  4  3  1  0  0  0  0
  5  2  1  0  0  0  0
  6 11  1  1  0  0  0
  6  5  1  0  0  0  0
  7 13  1  0  0  0  0
  7 12  1  0  0  0  0
  7  6  1  0  0  0  0
  8  9  1  0  0  0  0
  8  7  1  0  0  0  0
  9 17  1  0  0  0  0
  9 10  1  0  0  0  0
 10 19  1  0  0  0  0
 10  6  1  0  0  0  0
 10 18  1  1  0  0  0
 14  8  1  0  0  0  0
 15  8  1  0  0  0  0
 16  9  1  0  0  0  0
 19 20  1  0  0  0  0
 19 22  1  0  0  0  0
 21 19  1  0  0  0  0
 22 23  1  0  0  0  0
 24 25  1  0  0  0  0
 25 26  1  0  0  0  0
 25 30  1  0  0  0  0
 27 25  1  0  0  0  0
 28 34  1  0  0  0  0
 29 35  1  0  0  0  0
 29 28  2  0  0  0  0
 30 29  1  0  0  0  0
 31 30  2  0  0  0  0
 31 32  1  0  0  0  0
 32 33  2  0  0  0  0
 33 28  1  0  0  0  0
 36 32  1  0  0  0  0
 37 38  2  0  0  0  0
 38 39  1  0  0  0  0
 38 36  1  0  0  0  0
 39 40  1  0  0  0  0
 41 38  1  0  0  0  0
 42 41  1  0  0  0  0
M  END
>  <minimizedAffinity>
-5.47625971

>  <minimizedRMSD>
0.979548275

$$$$
