
 OpenBabel03252505293D

 25 25  0  0  0  0  0  0  0  0999 V2000
   46.9590   32.1630   48.3980 O   0  0  0  0  0  0  0  0  0  0  0  0
   45.9220   32.4000   47.3050 P   0  0  1  0  0  0  0  0  0  0  0  0
   44.6310   33.3070   47.8780 O   0  0  0  0  0  0  0  0  0  0  0  0
   43.7850   33.0920   47.3980 H   0  0  0  0  0  0  0  0  0  0  0  0
   46.7070   33.1790   46.0130 O   0  0  0  0  0  0  0  0  0  0  0  0
   44.4880   35.6250   44.7230 C   0  0  0  0  0  0  0  0  0  0  0  0
   44.8710   35.7970   43.3790 C   0  0  0  0  0  0  0  0  0  0  0  0
   45.9570   35.0020   42.9520 C   0  0  0  0  0  0  0  0  0  0  0  0
   46.5480   34.1410   43.8480 N   0  0  0  0  0  0  0  0  0  0  0  0
   46.1200   34.0410   45.1050 C   0  0  0  0  0  0  0  0  0  0  0  0
   45.1040   34.7690   45.5490 N   0  0  0  0  0  0  0  0  0  0  0  0
   43.6540   36.2420   45.0330 H   0  0  0  0  0  0  0  0  0  0  0  0
   44.3620   36.4910   42.7350 H   0  0  0  0  0  0  0  0  0  0  0  0
   46.2950   35.0950   41.9270 H   0  0  0  0  0  0  0  0  0  0  0  0
   45.3520   30.8860   46.8450 O   0  0  0  0  0  0  0  0  0  0  0  0
   45.0720   30.1690   47.9910 C   0  0  0  0  0  0  0  0  0  0  0  0
   45.9600   30.2670   48.6670 H   0  0  0  0  0  0  0  0  0  0  0  0
   44.2360   30.6180   48.5650 H   0  0  0  0  0  0  0  0  0  0  0  0
   44.8800   28.8270   47.7280 O   0  0  0  0  0  0  0  0  0  0  0  0
   46.6110   27.9530   45.9770 O   0  0  0  0  0  0  0  0  0  0  0  0
   46.3880   28.1150   47.4610 P   0  0  0  0  0  0  0  0  0  0  0  0
   47.5490   29.1960   48.0900 O   0  0  0  0  0  0  0  0  0  0  0  0
   47.1830   29.4930   48.9760 H   0  0  0  0  0  0  0  0  0  0  0  0
   46.4980   26.6240   48.2790 O   0  0  0  0  0  0  0  0  0  0  0  0
   47.3880   26.5860   48.6920 H   0  0  0  0  0  0  0  0  0  0  0  0
  2  3  1  0  0  0  0
  2  1  2  1  0  0  0
  4  3  1  0  0  0  0
  5  2  1  0  0  0  0
  6 12  1  0  0  0  0
  6 11  1  0  0  0  0
  7  6  2  0  0  0  0
  8  7  1  0  0  0  0
  8  9  2  0  0  0  0
  9 10  1  0  0  0  0
 10 11  2  0  0  0  0
 10  5  1  0  0  0  0
 13  7  1  0  0  0  0
 14  8  1  0  0  0  0
 15  2  1  0  0  0  0
 15 16  1  0  0  0  0
 16 18  1  0  0  0  0
 16 17  1  0  0  0  0
 19 16  1  0  0  0  0
 20 21  2  0  0  0  0
 21 19  1  0  0  0  0
 21 22  1  0  0  0  0
 21 24  1  0  0  0  0
 22 23  1  0  0  0  0
 24 25  1  0  0  0  0
M  END
>  <minimizedAffinity>
-4.43206692

>  <minimizedRMSD>
0.661812067

$$$$
