
 OpenBabel03252506233D

 29 30  0  0  0  0  0  0  0  0999 V2000
   37.7930   30.8190   41.1260 C   0  0  0  0  0  0  0  0  0  0  0  0
   36.9790   31.4210   40.1480 C   0  0  0  0  0  0  0  0  0  0  0  0
   37.4880   32.6330   39.8430 C   0  0  0  0  0  0  0  0  0  0  0  0
   38.5850   32.7780   40.6120 N   0  0  0  0  0  0  0  0  0  0  0  0
   38.7640   31.6850   41.3800 N   0  0  0  0  0  0  0  0  0  0  0  0
   36.0910   30.9580   39.7240 H   0  0  0  0  0  0  0  0  0  0  0  0
   37.1120   33.3630   39.1290 H   0  0  0  0  0  0  0  0  0  0  0  0
   37.5810   28.0980   43.5730 C   0  0  0  0  0  0  0  0  0  0  0  0
   37.1320   27.0170   42.7780 C   0  0  0  0  0  0  0  0  0  0  0  0
   36.9110   27.2460   41.4160 C   0  0  0  0  0  0  0  0  0  0  0  0
   37.1400   28.4870   40.9330 N   0  0  0  0  0  0  0  0  0  0  0  0
   37.5690   29.5030   41.7140 C   0  0  0  0  0  0  0  0  0  0  0  0
   37.7900   29.3140   43.0270 N   0  0  0  0  0  0  0  0  0  0  0  0
   37.7380   27.8860   44.6090 H   0  0  0  0  0  0  0  0  0  0  0  0
   36.9580   26.0470   43.1750 H   0  0  0  0  0  0  0  0  0  0  0  0
   36.5690   26.4820   40.7310 H   0  0  0  0  0  0  0  0  0  0  0  0
   39.4440   33.9550   40.6030 C   0  0  0  0  0  0  0  0  0  0  0  0
   39.0530   34.7030   39.9190 H   0  0  0  0  0  0  0  0  0  0  0  0
   39.4280   34.3460   41.6370 H   0  0  0  0  0  0  0  0  0  0  0  0
   40.8110   33.5230   40.1600 C   0  0  0  0  0  0  0  0  0  0  0  0
   41.5470   33.8630   40.9190 H   0  0  0  0  0  0  0  0  0  0  0  0
   40.8680   32.4340   39.9680 H   0  0  0  0  0  0  0  0  0  0  0  0
   41.0550   34.1610   38.9280 O   0  0  0  0  0  0  0  0  0  0  0  0
   42.1990   31.9070   38.4310 O   0  0  0  0  0  0  0  0  0  0  0  0
   41.5060   33.0540   37.7390 P   0  0  0  0  0  0  0  0  0  0  0  0
   40.1390   32.4260   36.9450 O   0  0  0  0  0  0  0  0  0  0  0  0
   39.4060   32.2370   37.5710 H   0  0  0  0  0  0  0  0  0  0  0  0
   42.4820   33.8240   36.6260 O   0  0  0  0  0  0  0  0  0  0  0  0
   42.5510   34.8000   36.7260 H   0  0  0  0  0  0  0  0  0  0  0  0
  1  5  2  0  0  0  0
  1 12  1  0  0  0  0
  2  1  1  0  0  0  0
  3  2  2  0  0  0  0
  3  4  1  0  0  0  0
  4  5  1  0  0  0  0
  6  2  1  0  0  0  0
  7  3  1  0  0  0  0
  8 14  1  0  0  0  0
  9 15  1  0  0  0  0
  9  8  2  0  0  0  0
 10  9  1  0  0  0  0
 11 10  2  0  0  0  0
 11 12  1  0  0  0  0
 12 13  2  0  0  0  0
 13  8  1  0  0  0  0
 16 10  1  0  0  0  0
 17  4  1  0  0  0  0
 17 19  1  0  0  0  0
 18 17  1  0  0  0  0
 20 17  1  0  0  0  0
 20 21  1  0  0  0  0
 22 20  1  0  0  0  0
 23 20  1  0  0  0  0
 25 24  2  0  0  0  0
 25 23  1  0  0  0  0
 26 27  1  0  0  0  0
 26 25  1  0  0  0  0
 28 29  1  0  0  0  0
 28 25  1  0  0  0  0
M  END
>  <minimizedAffinity>
-5.2301445

$$$$

 OpenBabel03252506233D

 29 30  0  0  0  0  0  0  0  0999 V2000
   37.3730   27.1730   41.8250 C   0  0  0  0  0  0  0  0  0  0  0  0
   36.9150   27.4310   43.1300 C   0  0  0  0  0  0  0  0  0  0  0  0
   37.5190   28.5460   43.5910 C   0  0  0  0  0  0  0  0  0  0  0  0
   38.3290   28.9660   42.5990 N   0  0  0  0  0  0  0  0  0  0  0  0
   38.2360   28.1370   41.5400 N   0  0  0  0  0  0  0  0  0  0  0  0
   36.1900   26.8140   43.6560 H   0  0  0  0  0  0  0  0  0  0  0  0
   37.3970   29.0290   44.5590 H   0  0  0  0  0  0  0  0  0  0  0  0
   36.5510   23.7690   40.7380 C   0  0  0  0  0  0  0  0  0  0  0  0
   36.1520   23.9740   39.3960 C   0  0  0  0  0  0  0  0  0  0  0  0
   36.1730   25.2780   38.8920 C   0  0  0  0  0  0  0  0  0  0  0  0
   36.5750   26.2730   39.7140 N   0  0  0  0  0  0  0  0  0  0  0  0
   36.9520   26.0510   40.9920 C   0  0  0  0  0  0  0  0  0  0  0  0
   36.9410   24.8080   41.5060 N   0  0  0  0  0  0  0  0  0  0  0  0
   36.5210   22.7600   41.0880 H   0  0  0  0  0  0  0  0  0  0  0  0
   35.8380   23.1790   38.7640 H   0  0  0  0  0  0  0  0  0  0  0  0
   35.8860   25.5310   37.8800 H   0  0  0  0  0  0  0  0  0  0  0  0
   39.1770   30.1480   42.6760 C   0  0  0  0  0  0  0  0  0  0  0  0
   38.7360   30.8860   43.3390 H   0  0  0  0  0  0  0  0  0  0  0  0
   40.1410   29.7980   43.0900 H   0  0  0  0  0  0  0  0  0  0  0  0
   39.3030   30.7150   41.2930 C   0  0  0  0  0  0  0  0  0  0  0  0
   40.3780   30.9110   41.0920 H   0  0  0  0  0  0  0  0  0  0  0  0
   38.8380   30.0650   40.5260 H   0  0  0  0  0  0  0  0  0  0  0  0
   38.5800   31.9240   41.2860 O   0  0  0  0  0  0  0  0  0  0  0  0
   37.4480   30.8530   39.2350 O   0  0  0  0  0  0  0  0  0  0  0  0
   37.1640   31.7900   40.3810 P   0  0  0  0  0  0  0  0  0  0  0  0
   35.9130   31.1050   41.3090 O   0  0  0  0  0  0  0  0  0  0  0  0
   36.2360   30.3650   41.8700 H   0  0  0  0  0  0  0  0  0  0  0  0
   36.7010   33.3110   39.8740 O   0  0  0  0  0  0  0  0  0  0  0  0
   37.2080   34.0600   40.2620 H   0  0  0  0  0  0  0  0  0  0  0  0
  1  2  1  0  0  0  0
  2  3  2  0  0  0  0
  2  6  1  0  0  0  0
  3  7  1  0  0  0  0
  4 17  1  0  0  0  0
  4  3  1  0  0  0  0
  5  1  2  0  0  0  0
  5  4  1  0  0  0  0
  8 14  1  0  0  0  0
  8 13  1  0  0  0  0
  9  8  2  0  0  0  0
 10  9  1  0  0  0  0
 10 11  2  0  0  0  0
 11 12  1  0  0  0  0
 12 13  2  0  0  0  0
 12  1  1  0  0  0  0
 15  9  1  0  0  0  0
 16 10  1  0  0  0  0
 17 19  1  0  0  0  0
 17 18  1  0  0  0  0
 20 17  1  0  0  0  0
 21 20  1  0  0  0  0
 22 20  1  0  0  0  0
 23 20  1  0  0  0  0
 24 25  2  0  0  0  0
 25 23  1  0  0  0  0
 25 26  1  0  0  0  0
 26 27  1  0  0  0  0
 28 29  1  0  0  0  0
 28 25  1  0  0  0  0
M  END
>  <minimizedAffinity>
-4.95597601

$$$$

 OpenBabel03252506233D

 29 30  0  0  0  0  0  0  0  0999 V2000
   37.1480   30.3540   41.1490 C   0  0  0  0  0  0  0  0  0  0  0  0
   36.0640   29.7320   40.5010 C   0  0  0  0  0  0  0  0  0  0  0  0
   35.8040   28.5590   41.1140 C   0  0  0  0  0  0  0  0  0  0  0  0
   36.7020   28.4570   42.1140 N   0  0  0  0  0  0  0  0  0  0  0  0
   37.5060   29.5390   42.1310 N   0  0  0  0  0  0  0  0  0  0  0  0
   35.5410   30.1550   39.6460 H   0  0  0  0  0  0  0  0  0  0  0  0
   35.0360   27.8270   40.8740 H   0  0  0  0  0  0  0  0  0  0  0  0
   39.5040   33.1460   40.8440 C   0  0  0  0  0  0  0  0  0  0  0  0
   38.7770   34.0630   40.0490 C   0  0  0  0  0  0  0  0  0  0  0  0
   37.4920   33.7030   39.6340 C   0  0  0  0  0  0  0  0  0  0  0  0
   37.0120   32.4980   40.0150 N   0  0  0  0  0  0  0  0  0  0  0  0
   37.7270   31.6400   40.7750 C   0  0  0  0  0  0  0  0  0  0  0  0
   38.9660   31.9570   41.1900 N   0  0  0  0  0  0  0  0  0  0  0  0
   40.4830   33.4540   41.1420 H   0  0  0  0  0  0  0  0  0  0  0  0
   39.1710   35.0060   39.7580 H   0  0  0  0  0  0  0  0  0  0  0  0
   36.8620   34.3380   39.0250 H   0  0  0  0  0  0  0  0  0  0  0  0
   36.7790   27.3320   43.0360 C   0  0  0  0  0  0  0  0  0  0  0  0
   36.8860   27.6860   44.0570 H   0  0  0  0  0  0  0  0  0  0  0  0
   35.8240   26.7870   42.9240 H   0  0  0  0  0  0  0  0  0  0  0  0
   37.9740   26.5070   42.6560 C   0  0  0  0  0  0  0  0  0  0  0  0
   38.4570   26.9800   41.7740 H   0  0  0  0  0  0  0  0  0  0  0  0
   38.6750   26.3650   43.5010 H   0  0  0  0  0  0  0  0  0  0  0  0
   37.4900   25.2290   42.3160 O   0  0  0  0  0  0  0  0  0  0  0  0
   39.6430   24.9290   40.9360 O   0  0  0  0  0  0  0  0  0  0  0  0
   38.7450   24.1870   41.8930 P   0  0  0  0  0  0  0  0  0  0  0  0
   39.6760   23.7710   43.2550 O   0  0  0  0  0  0  0  0  0  0  0  0
   39.8250   24.5430   43.8460 H   0  0  0  0  0  0  0  0  0  0  0  0
   38.0960   22.8000   41.2280 O   0  0  0  0  0  0  0  0  0  0  0  0
   37.1180   22.7170   41.2930 H   0  0  0  0  0  0  0  0  0  0  0  0
  1  5  2  0  0  0  0
  2  3  2  0  0  0  0
  2  1  1  0  0  0  0
  3  4  1  0  0  0  0
  4  5  1  0  0  0  0
  4 17  1  0  0  0  0
  6  2  1  0  0  0  0
  7  3  1  0  0  0  0
  8 14  1  0  0  0  0
  8 13  1  0  0  0  0
  9  8  2  0  0  0  0
 10 11  2  0  0  0  0
 10  9  1  0  0  0  0
 11 12  1  0  0  0  0
 12  1  1  0  0  0  0
 12 13  2  0  0  0  0
 15  9  1  0  0  0  0
 16 10  1  0  0  0  0
 17 18  1  0  0  0  0
 19 17  1  0  0  0  0
 20 17  1  0  0  0  0
 20 22  1  0  0  0  0
 21 20  1  0  0  0  0
 23 20  1  0  0  0  0
 24 25  2  0  0  0  0
 25 23  1  0  0  0  0
 25 26  1  0  0  0  0
 26 27  1  0  0  0  0
 28 29  1  0  0  0  0
 28 25  1  0  0  0  0
M  END
>  <minimizedAffinity>
-4.83186579

$$$$

 OpenBabel03252506233D

 29 30  0  0  0  0  0  0  0  0999 V2000
   37.2170   30.2910   40.4760 C   0  0  0  0  0  0  0  0  0  0  0  0
   37.0240   30.2410   39.0830 C   0  0  0  0  0  0  0  0  0  0  0  0
   37.0780   31.4950   38.5900 C   0  0  0  0  0  0  0  0  0  0  0  0
   37.2990   32.3000   39.6480 N   0  0  0  0  0  0  0  0  0  0  0  0
   37.3820   31.5710   40.7780 N   0  0  0  0  0  0  0  0  0  0  0  0
   36.8600   29.3230   38.5230 H   0  0  0  0  0  0  0  0  0  0  0  0
   36.9700   31.8200   37.5570 H   0  0  0  0  0  0  0  0  0  0  0  0
   37.3930   28.2500   43.5160 C   0  0  0  0  0  0  0  0  0  0  0  0
   37.2270   26.9410   43.0050 C   0  0  0  0  0  0  0  0  0  0  0  0
   37.0580   26.7870   41.6260 C   0  0  0  0  0  0  0  0  0  0  0  0
   37.0630   27.8960   40.8550 N   0  0  0  0  0  0  0  0  0  0  0  0
   37.2240   29.1360   41.3670 C   0  0  0  0  0  0  0  0  0  0  0  0
   37.3890   29.3170   42.6900 N   0  0  0  0  0  0  0  0  0  0  0  0
   37.5190   28.3290   44.5740 H   0  0  0  0  0  0  0  0  0  0  0  0
   37.2260   26.0790   43.6270 H   0  0  0  0  0  0  0  0  0  0  0  0
   36.9250   25.8260   41.1450 H   0  0  0  0  0  0  0  0  0  0  0  0
   37.4260   33.7500   39.5650 C   0  0  0  0  0  0  0  0  0  0  0  0
   37.6140   34.0540   38.5400 H   0  0  0  0  0  0  0  0  0  0  0  0
   36.4560   34.1550   39.9060 H   0  0  0  0  0  0  0  0  0  0  0  0
   38.5750   34.1610   40.4380 C   0  0  0  0  0  0  0  0  0  0  0  0
   38.4690   35.2430   40.6660 H   0  0  0  0  0  0  0  0  0  0  0  0
   38.6560   33.5390   41.3510 H   0  0  0  0  0  0  0  0  0  0  0  0
   39.7490   33.9340   39.6930 O   0  0  0  0  0  0  0  0  0  0  0  0
   41.6890   32.2420   39.6220 O   0  0  0  0  0  0  0  0  0  0  0  0
   40.8930   33.0820   40.5900 P   0  0  0  0  0  0  0  0  0  0  0  0
   41.9750   34.1450   41.3610 O   0  0  0  0  0  0  0  0  0  0  0  0
   42.2330   34.8920   40.7770 H   0  0  0  0  0  0  0  0  0  0  0  0
   40.1050   32.1690   41.7430 O   0  0  0  0  0  0  0  0  0  0  0  0
   39.1410   32.3430   41.8350 H   0  0  0  0  0  0  0  0  0  0  0  0
  1  5  2  0  0  0  0
  1 12  1  0  0  0  0
  2  1  1  0  0  0  0
  3  2  2  0  0  0  0
  3  4  1  0  0  0  0
  4  5  1  0  0  0  0
  6  2  1  0  0  0  0
  7  3  1  0  0  0  0
  8 14  1  0  0  0  0
  9  8  1  0  0  0  0
  9 15  1  0  0  0  0
 10  9  2  0  0  0  0
 11 12  2  0  0  0  0
 11 10  1  0  0  0  0
 12 13  1  0  0  0  0
 13  8  2  0  0  0  0
 16 10  1  0  0  0  0
 17  4  1  0  0  0  0
 17 19  1  0  0  0  0
 17 20  1  0  0  0  0
 18 17  1  0  0  0  0
 20 21  1  0  0  0  0
 20 22  1  0  0  0  0
 23 20  1  0  0  0  0
 23 25  1  0  0  0  0
 24 25  2  0  0  0  0
 25 26  1  0  0  0  0
 25 28  1  0  0  0  0
 27 26  1  0  0  0  0
 28 29  1  0  0  0  0
M  END
>  <minimizedAffinity>
-4.54149723

$$$$

 OpenBabel03252506233D

 29 30  0  0  0  0  0  0  0  0999 V2000
   37.4010   27.0370   41.3980 C   0  0  0  0  0  0  0  0  0  0  0  0
   37.6060   27.5680   42.6850 C   0  0  0  0  0  0  0  0  0  0  0  0
   37.1670   28.8430   42.7060 C   0  0  0  0  0  0  0  0  0  0  0  0
   36.7040   29.0960   41.4650 N   0  0  0  0  0  0  0  0  0  0  0  0
   36.8460   28.0070   40.6850 N   0  0  0  0  0  0  0  0  0  0  0  0
   38.0490   27.0140   43.5100 H   0  0  0  0  0  0  0  0  0  0  0  0
   37.1740   29.5460   43.5370 H   0  0  0  0  0  0  0  0  0  0  0  0
   37.1530   23.4500   40.6840 C   0  0  0  0  0  0  0  0  0  0  0  0
   38.4430   23.1570   40.1820 C   0  0  0  0  0  0  0  0  0  0  0  0
   39.3710   24.1980   40.0990 C   0  0  0  0  0  0  0  0  0  0  0  0
   38.9870   25.4290   40.5040 N   0  0  0  0  0  0  0  0  0  0  0  0
   37.7490   25.6830   40.9800 C   0  0  0  0  0  0  0  0  0  0  0  0
   36.8330   24.7020   41.0720 N   0  0  0  0  0  0  0  0  0  0  0  0
   36.4700   22.6290   40.7330 H   0  0  0  0  0  0  0  0  0  0  0  0
   38.7270   22.1820   39.8680 H   0  0  0  0  0  0  0  0  0  0  0  0
   40.3800   24.0700   39.7290 H   0  0  0  0  0  0  0  0  0  0  0  0
   36.1340   30.3690   41.0460 C   0  0  0  0  0  0  0  0  0  0  0  0
   35.1500   30.2180   40.6110 H   0  0  0  0  0  0  0  0  0  0  0  0
   36.0490   30.9770   41.9650 H   0  0  0  0  0  0  0  0  0  0  0  0
   37.0550   30.9710   40.0260 C   0  0  0  0  0  0  0  0  0  0  0  0
   37.4710   30.1500   39.4040 H   0  0  0  0  0  0  0  0  0  0  0  0
   36.5610   31.7560   39.4200 H   0  0  0  0  0  0  0  0  0  0  0  0
   38.0880   31.6080   40.7420 O   0  0  0  0  0  0  0  0  0  0  0  0
   39.4890   33.0590   39.1410 O   0  0  0  0  0  0  0  0  0  0  0  0
   38.3770   33.1620   40.1550 P   0  0  0  0  0  0  0  0  0  0  0  0
   37.0060   33.7750   39.3570 O   0  0  0  0  0  0  0  0  0  0  0  0
   36.5670   33.0910   38.8050 H   0  0  0  0  0  0  0  0  0  0  0  0
   38.7600   34.1610   41.4360 O   0  0  0  0  0  0  0  0  0  0  0  0
   38.6380   33.7690   42.3300 H   0  0  0  0  0  0  0  0  0  0  0  0
  1  2  1  0  0  0  0
  2  3  2  0  0  0  0
  2  6  1  0  0  0  0
  3  7  1  0  0  0  0
  4  3  1  0  0  0  0
  5  1  2  0  0  0  0
  5  4  1  0  0  0  0
  8 14  1  0  0  0  0
  8 13  1  0  0  0  0
  9  8  2  0  0  0  0
 10  9  1  0  0  0  0
 10 11  2  0  0  0  0
 11 12  1  0  0  0  0
 12 13  2  0  0  0  0
 12  1  1  0  0  0  0
 15  9  1  0  0  0  0
 16 10  1  0  0  0  0
 17  4  1  0  0  0  0
 17 19  1  0  0  0  0
 18 17  1  0  0  0  0
 20 23  1  0  0  0  0
 20 17  1  0  0  0  0
 21 20  1  0  0  0  0
 22 20  1  0  0  0  0
 24 25  2  0  0  0  0
 25 23  1  0  0  0  0
 25 28  1  0  0  0  0
 26 25  1  0  0  0  0
 27 26  1  0  0  0  0
 28 29  1  0  0  0  0
M  END
>  <minimizedAffinity>
-4.53650522

$$$$

 OpenBabel03252506233D

 29 30  0  0  0  0  0  0  0  0999 V2000
   37.1080   28.2010   41.0940 C   0  0  0  0  0  0  0  0  0  0  0  0
   36.0730   29.1470   40.9820 C   0  0  0  0  0  0  0  0  0  0  0  0
   36.5980   30.3840   41.0980 C   0  0  0  0  0  0  0  0  0  0  0  0
   37.9220   30.2090   41.2780 N   0  0  0  0  0  0  0  0  0  0  0  0
   38.2230   28.8950   41.2740 N   0  0  0  0  0  0  0  0  0  0  0  0
   35.0270   28.8920   40.8260 H   0  0  0  0  0  0  0  0  0  0  0  0
   36.0840   31.3430   41.0580 H   0  0  0  0  0  0  0  0  0  0  0  0
   36.9810   24.6660   42.0580 C   0  0  0  0  0  0  0  0  0  0  0  0
   36.6020   24.0410   40.8470 C   0  0  0  0  0  0  0  0  0  0  0  0
   36.3980   24.8480   39.7230 C   0  0  0  0  0  0  0  0  0  0  0  0
   36.5750   26.1810   39.8540 N   0  0  0  0  0  0  0  0  0  0  0  0
   36.9370   26.7540   41.0230 C   0  0  0  0  0  0  0  0  0  0  0  0
   37.1400   26.0050   42.1220 N   0  0  0  0  0  0  0  0  0  0  0  0
   37.1270   24.0180   42.8960 H   0  0  0  0  0  0  0  0  0  0  0  0
   36.4680   22.9900   40.7620 H   0  0  0  0  0  0  0  0  0  0  0  0
   36.1080   24.4600   38.7560 H   0  0  0  0  0  0  0  0  0  0  0  0
   38.8780   31.2950   41.4510 C   0  0  0  0  0  0  0  0  0  0  0  0
   38.6050   31.9060   42.3060 H   0  0  0  0  0  0  0  0  0  0  0  0
   39.8540   30.8090   41.6330 H   0  0  0  0  0  0  0  0  0  0  0  0
   38.8600   32.1260   40.2020 C   0  0  0  0  0  0  0  0  0  0  0  0
   37.8040   32.2360   39.8730 H   0  0  0  0  0  0  0  0  0  0  0  0
   39.3680   33.1010   40.3360 H   0  0  0  0  0  0  0  0  0  0  0  0
   39.5990   31.4180   39.2350 O   0  0  0  0  0  0  0  0  0  0  0  0
   37.4370   31.9840   37.9550 O   0  0  0  0  0  0  0  0  0  0  0  0
   38.8180   31.4160   37.7420 P   0  0  0  0  0  0  0  0  0  0  0  0
   39.6240   32.4240   36.6330 O   0  0  0  0  0  0  0  0  0  0  0  0
   39.9290   33.2590   37.0530 H   0  0  0  0  0  0  0  0  0  0  0  0
   38.7920   29.8570   37.1470 O   0  0  0  0  0  0  0  0  0  0  0  0
   39.3270   29.2030   37.6510 H   0  0  0  0  0  0  0  0  0  0  0  0
  1  5  2  0  0  0  0
  2  1  1  0  0  0  0
  2  3  2  0  0  0  0
  3  4  1  0  0  0  0
  4 17  1  0  0  0  0
  5  4  1  0  0  0  0
  6  2  1  0  0  0  0
  7  3  1  0  0  0  0
  8 13  1  0  0  0  0
  8 14  1  0  0  0  0
  9  8  2  0  0  0  0
 10 11  2  0  0  0  0
 10  9  1  0  0  0  0
 11 12  1  0  0  0  0
 12  1  1  0  0  0  0
 12 13  2  0  0  0  0
 15  9  1  0  0  0  0
 16 10  1  0  0  0  0
 17 19  1  0  0  0  0
 17 18  1  0  0  0  0
 20 22  1  0  0  0  0
 20 17  1  0  0  0  0
 21 20  1  0  0  0  0
 23 20  1  0  0  0  0
 25 24  2  0  0  0  0
 25 23  1  0  0  0  0
 26 27  1  0  0  0  0
 26 25  1  0  0  0  0
 28 29  1  0  0  0  0
 28 25  1  0  0  0  0
M  END
>  <minimizedAffinity>
-4.52934933

$$$$

 OpenBabel03252506233D

 29 30  0  0  0  0  0  0  0  0999 V2000
   37.5130   28.1000   41.5350 C   0  0  0  0  0  0  0  0  0  0  0  0
   36.3710   27.9010   40.7380 C   0  0  0  0  0  0  0  0  0  0  0  0
   35.8990   29.1030   40.3440 C   0  0  0  0  0  0  0  0  0  0  0  0
   36.7270   30.0200   40.8840 N   0  0  0  0  0  0  0  0  0  0  0  0
   37.6940   29.4120   41.5980 N   0  0  0  0  0  0  0  0  0  0  0  0
   35.9590   26.9240   40.4940 H   0  0  0  0  0  0  0  0  0  0  0  0
   35.0340   29.3180   39.7210 H   0  0  0  0  0  0  0  0  0  0  0  0
   38.8290   24.7790   42.3570 C   0  0  0  0  0  0  0  0  0  0  0  0
   39.8140   25.0810   43.3270 C   0  0  0  0  0  0  0  0  0  0  0  0
   40.0050   26.4210   43.6790 C   0  0  0  0  0  0  0  0  0  0  0  0
   39.2390   27.3550   43.0740 N   0  0  0  0  0  0  0  0  0  0  0  0
   38.3050   27.0400   42.1510 C   0  0  0  0  0  0  0  0  0  0  0  0
   38.0970   25.7610   41.7910 N   0  0  0  0  0  0  0  0  0  0  0  0
   38.7110   23.7450   42.1130 H   0  0  0  0  0  0  0  0  0  0  0  0
   40.4080   24.3330   43.7930 H   0  0  0  0  0  0  0  0  0  0  0  0
   40.7340   26.7470   44.4100 H   0  0  0  0  0  0  0  0  0  0  0  0
   36.5810   31.4600   40.7110 C   0  0  0  0  0  0  0  0  0  0  0  0
   35.6740   31.6840   40.1570 H   0  0  0  0  0  0  0  0  0  0  0  0
   36.5110   31.8780   41.7320 H   0  0  0  0  0  0  0  0  0  0  0  0
   37.7770   31.9550   39.9530 C   0  0  0  0  0  0  0  0  0  0  0  0
   38.0890   32.9270   40.3920 H   0  0  0  0  0  0  0  0  0  0  0  0
   38.6000   31.2140   39.9320 H   0  0  0  0  0  0  0  0  0  0  0  0
   37.3630   32.1340   38.6190 O   0  0  0  0  0  0  0  0  0  0  0  0
   39.0690   30.2240   38.3510 O   0  0  0  0  0  0  0  0  0  0  0  0
   38.3400   31.2730   37.5490 P   0  0  0  0  0  0  0  0  0  0  0  0
   37.4010   30.4690   36.3810 O   0  0  0  0  0  0  0  0  0  0  0  0
   36.5920   30.0700   36.7730 H   0  0  0  0  0  0  0  0  0  0  0  0
   39.3740   32.3370   36.7850 O   0  0  0  0  0  0  0  0  0  0  0  0
   39.1950   33.2910   36.9460 H   0  0  0  0  0  0  0  0  0  0  0  0
  1  5  2  0  0  0  0
  1 12  1  0  0  0  0
  2  1  1  0  0  0  0
  3  2  2  0  0  0  0
  3  4  1  0  0  0  0
  4  5  1  0  0  0  0
  6  2  1  0  0  0  0
  7  3  1  0  0  0  0
  8  9  1  0  0  0  0
  9 10  2  0  0  0  0
  9 15  1  0  0  0  0
 10 16  1  0  0  0  0
 11 10  1  0  0  0  0
 12 11  2  0  0  0  0
 13 12  1  0  0  0  0
 13  8  2  0  0  0  0
 14  8  1  0  0  0  0
 17  4  1  0  0  0  0
 17 19  1  0  0  0  0
 18 17  1  0  0  0  0
 20 21  1  0  0  0  0
 20 17  1  0  0  0  0
 22 20  1  0  0  0  0
 23 20  1  0  0  0  0
 25 24  2  0  0  0  0
 25 23  1  0  0  0  0
 26 27  1  0  0  0  0
 26 25  1  0  0  0  0
 28 29  1  0  0  0  0
 28 25  1  0  0  0  0
M  END
>  <minimizedAffinity>
-4.51511288

$$$$

 OpenBabel03252506233D

 29 30  0  0  0  0  0  0  0  0999 V2000
   38.3330   26.5060   41.8520 C   0  0  0  0  0  0  0  0  0  0  0  0
   39.3130   26.4010   42.8560 C   0  0  0  0  0  0  0  0  0  0  0  0
   39.6190   27.6390   43.2990 C   0  0  0  0  0  0  0  0  0  0  0  0
   38.8490   28.4870   42.5870 N   0  0  0  0  0  0  0  0  0  0  0  0
   38.0780   27.8000   41.7210 N   0  0  0  0  0  0  0  0  0  0  0  0
   39.7370   25.4600   43.2000 H   0  0  0  0  0  0  0  0  0  0  0  0
   40.3330   27.9250   44.0680 H   0  0  0  0  0  0  0  0  0  0  0  0
   36.2130   24.5680   39.5750 C   0  0  0  0  0  0  0  0  0  0  0  0
   36.6770   23.2480   39.7870 C   0  0  0  0  0  0  0  0  0  0  0  0
   37.7100   23.0520   40.7090 C   0  0  0  0  0  0  0  0  0  0  0  0
   38.2080   24.1330   41.3480 N   0  0  0  0  0  0  0  0  0  0  0  0
   37.7470   25.3830   41.1280 C   0  0  0  0  0  0  0  0  0  0  0  0
   36.7550   25.6050   40.2470 N   0  0  0  0  0  0  0  0  0  0  0  0
   35.4240   24.6800   38.8630 H   0  0  0  0  0  0  0  0  0  0  0  0
   36.2730   22.4100   39.2750 H   0  0  0  0  0  0  0  0  0  0  0  0
   38.1290   22.0800   40.9370 H   0  0  0  0  0  0  0  0  0  0  0  0
   38.8610   29.9350   42.7440 C   0  0  0  0  0  0  0  0  0  0  0  0
   38.2460   30.2290   43.5900 H   0  0  0  0  0  0  0  0  0  0  0  0
   39.9150   30.2070   42.9340 H   0  0  0  0  0  0  0  0  0  0  0  0
   38.3150   30.5390   41.4840 C   0  0  0  0  0  0  0  0  0  0  0  0
   38.2860   29.7480   40.7040 H   0  0  0  0  0  0  0  0  0  0  0  0
   37.3310   31.0230   41.6380 H   0  0  0  0  0  0  0  0  0  0  0  0
   39.2090   31.5600   41.1060 O   0  0  0  0  0  0  0  0  0  0  0  0
   38.8920   34.1120   40.9570 O   0  0  0  0  0  0  0  0  0  0  0  0
   38.4080   32.8270   40.3350 P   0  0  0  0  0  0  0  0  0  0  0  0
   38.8010   32.8760   38.6800 O   0  0  0  0  0  0  0  0  0  0  0  0
   39.7550   32.7020   38.5250 H   0  0  0  0  0  0  0  0  0  0  0  0
   36.7620   32.6060   40.5020 O   0  0  0  0  0  0  0  0  0  0  0  0
   36.4870   31.7440   40.8870 H   0  0  0  0  0  0  0  0  0  0  0  0
  1  2  1  0  0  0  0
  2  6  1  0  0  0  0
  2  3  2  0  0  0  0
  3  7  1  0  0  0  0
  4 17  1  0  0  0  0
  4  3  1  0  0  0  0
  5  1  2  0  0  0  0
  5  4  1  0  0  0  0
  8  9  2  0  0  0  0
  8 13  1  0  0  0  0
  9 10  1  0  0  0  0
 10 16  1  0  0  0  0
 10 11  2  0  0  0  0
 12 11  1  0  0  0  0
 12  1  1  0  0  0  0
 13 12  2  0  0  0  0
 14  8  1  0  0  0  0
 15  9  1  0  0  0  0
 17 19  1  0  0  0  0
 17 18  1  0  0  0  0
 20 22  1  0  0  0  0
 20 17  1  0  0  0  0
 21 20  1  0  0  0  0
 23 20  1  0  0  0  0
 25 28  1  0  0  0  0
 25 24  2  0  0  0  0
 25 23  1  0  0  0  0
 26 25  1  0  0  0  0
 27 26  1  0  0  0  0
 28 29  1  0  0  0  0
M  END
>  <minimizedAffinity>
-4.37809467

$$$$

 OpenBabel03252506233D

 29 30  0  0  0  0  0  0  0  0999 V2000
   38.8290   28.7170   41.6900 C   0  0  0  0  0  0  0  0  0  0  0  0
   38.8630   29.3980   42.9210 C   0  0  0  0  0  0  0  0  0  0  0  0
   39.4940   30.5790   42.7490 C   0  0  0  0  0  0  0  0  0  0  0  0
   39.8410   30.6260   41.4460 N   0  0  0  0  0  0  0  0  0  0  0  0
   39.4380   29.5060   40.8160 N   0  0  0  0  0  0  0  0  0  0  0  0
   38.4400   29.0110   43.8450 H   0  0  0  0  0  0  0  0  0  0  0  0
   39.6950   31.3520   43.4880 H   0  0  0  0  0  0  0  0  0  0  0  0
   36.7930   26.0200   40.2680 C   0  0  0  0  0  0  0  0  0  0  0  0
   37.1360   24.9230   41.0930 C   0  0  0  0  0  0  0  0  0  0  0  0
   38.0590   25.1320   42.1210 C   0  0  0  0  0  0  0  0  0  0  0  0
   38.5750   26.3720   42.2730 N   0  0  0  0  0  0  0  0  0  0  0  0
   38.2310   27.4040   41.4710 C   0  0  0  0  0  0  0  0  0  0  0  0
   37.3460   27.2340   40.4730 N   0  0  0  0  0  0  0  0  0  0  0  0
   36.0850   25.8220   39.4920 H   0  0  0  0  0  0  0  0  0  0  0  0
   36.7200   23.9540   40.9590 H   0  0  0  0  0  0  0  0  0  0  0  0
   38.3810   24.3550   42.8010 H   0  0  0  0  0  0  0  0  0  0  0  0
   40.5510   31.7380   40.8260 C   0  0  0  0  0  0  0  0  0  0  0  0
   41.3890   32.0430   41.4450 H   0  0  0  0  0  0  0  0  0  0  0  0
   40.9170   31.3550   39.8570 H   0  0  0  0  0  0  0  0  0  0  0  0
   39.5840   32.8760   40.6810 C   0  0  0  0  0  0  0  0  0  0  0  0
   38.7550   32.7240   41.4050 H   0  0  0  0  0  0  0  0  0  0  0  0
   40.0730   33.8630   40.7950 H   0  0  0  0  0  0  0  0  0  0  0  0
   39.0920   32.8210   39.3620 O   0  0  0  0  0  0  0  0  0  0  0  0
   37.0710   31.6170   38.3150 O   0  0  0  0  0  0  0  0  0  0  0  0
   37.4130   32.6720   39.3360 P   0  0  0  0  0  0  0  0  0  0  0  0
   36.8270   32.1410   40.8420 O   0  0  0  0  0  0  0  0  0  0  0  0
   37.3990   31.4440   41.2320 H   0  0  0  0  0  0  0  0  0  0  0  0
   36.7440   34.1590   38.9800 O   0  0  0  0  0  0  0  0  0  0  0  0
   37.3730   34.9150   38.9690 H   0  0  0  0  0  0  0  0  0  0  0  0
  1  2  1  0  0  0  0
  2  6  1  0  0  0  0
  3  2  2  0  0  0  0
  3  7  1  0  0  0  0
  4  3  1  0  0  0  0
  5  4  1  0  0  0  0
  5  1  2  0  0  0  0
  8 13  2  0  0  0  0
  8  9  1  0  0  0  0
  9 10  2  0  0  0  0
 10 11  1  0  0  0  0
 10 16  1  0  0  0  0
 12  1  1  0  0  0  0
 12 11  2  0  0  0  0
 13 12  1  0  0  0  0
 14  8  1  0  0  0  0
 15  9  1  0  0  0  0
 17 18  1  0  0  0  0
 17  4  1  0  0  0  0
 19 17  1  0  0  0  0
 20 22  1  0  0  0  0
 20 17  1  0  0  0  0
 20 21  1  0  0  0  0
 23 20  1  0  0  0  0
 24 25  2  0  0  0  0
 25 23  1  0  0  0  0
 25 26  1  0  0  0  0
 26 27  1  0  0  0  0
 28 25  1  0  0  0  0
 29 28  1  0  0  0  0
M  END
>  <minimizedAffinity>
-4.3342762

$$$$
