
 OpenBabel03252507513D

 29 30  0  0  1  0  0  0  0  0999 V2000
   45.8480   32.4990   45.4800 C   0  0  2  0  0  0  0  0  0  0  0  0
   47.2280   32.6170   44.9140 C   0  0  0  0  0  0  0  0  0  0  0  0
   46.9520   33.5320   43.7230 C   0  0  0  0  0  0  0  0  0  0  0  0
   45.7710   34.3830   44.1240 C   0  0  2  0  0  0  0  0  0  0  0  0
   45.4710   33.9850   45.5700 C   0  0  0  0  0  0  0  0  0  0  0  0
   45.1700   32.0370   44.7480 H   0  0  0  0  0  0  0  0  0  0  0  0
   47.9250   33.0810   45.6360 H   0  0  0  0  0  0  0  0  0  0  0  0
   47.6290   31.6410   44.5640 H   0  0  0  0  0  0  0  0  0  0  0  0
   47.8510   34.2040   43.6630 H   0  0  0  0  0  0  0  0  0  0  0  0
   46.7970   32.9700   42.7910 H   0  0  0  0  0  0  0  0  0  0  0  0
   45.9980   35.4480   44.0610 H   0  0  0  0  0  0  0  0  0  0  0  0
   44.4350   34.1480   45.8550 H   0  0  0  0  0  0  0  0  0  0  0  0
   46.1820   34.5060   46.2110 H   0  0  0  0  0  0  0  0  0  0  0  0
   45.5020   29.9490   48.2410 C   0  0  0  0  0  0  0  0  0  0  0  0
   45.5760   30.4540   46.9240 C   0  0  0  0  0  0  0  0  0  0  0  0
   45.7450   31.8280   46.7820 C   0  0  0  0  0  0  0  0  0  0  0  0
   45.8290   32.6170   47.9140 N   0  0  0  0  0  0  0  0  0  0  0  0
   45.7520   32.0790   49.1460 C   0  0  0  0  0  0  0  0  0  0  0  0
   45.5910   30.7660   49.3200 N   0  0  0  0  0  0  0  0  0  0  0  0
   45.3700   28.8690   48.2470 H   0  0  0  0  0  0  0  0  0  0  0  0
   45.5090   29.8340   46.0520 H   0  0  0  0  0  0  0  0  0  0  0  0
   45.8170   32.6870   50.0400 H   0  0  0  0  0  0  0  0  0  0  0  0
   44.6590   33.9770   43.3940 O   0  0  0  0  0  0  0  0  0  0  0  0
   42.7530   35.0090   41.8800 O   0  0  0  0  0  0  0  0  0  0  0  0
   44.2300   35.1310   42.2370 P   0  0  0  0  0  0  0  0  0  0  0  0
   44.6480   36.6620   42.7760 O   0  0  0  0  0  0  0  0  0  0  0  0
   44.2460   36.8840   43.6510 H   0  0  0  0  0  0  0  0  0  0  0  0
   45.0750   34.8570   40.7760 O   0  0  0  0  0  0  0  0  0  0  0  0
   44.5850   35.2370   40.0150 H   0  0  0  0  0  0  0  0  0  0  0  0
  1  6  1  6  0  0  0
  1  5  1  0  0  0  0
  1 16  1  0  0  0  0
  2  1  1  0  0  0  0
  2  7  1  0  0  0  0
  3  4  1  0  0  0  0
  3  2  1  0  0  0  0
  4 11  1  6  0  0  0
  4  5  1  0  0  0  0
  5 12  1  0  0  0  0
  5 13  1  0  0  0  0
  8  2  1  0  0  0  0
  9  3  1  0  0  0  0
 10  3  1  0  0  0  0
 14 20  1  0  0  0  0
 14 19  1  0  0  0  0
 15 14  2  0  0  0  0
 16 15  1  0  0  0  0
 16 17  2  0  0  0  0
 17 18  1  0  0  0  0
 18 19  2  0  0  0  0
 18 22  1  0  0  0  0
 21 15  1  0  0  0  0
 23  4  1  0  0  0  0
 24 25  2  0  0  0  0
 25 26  1  0  0  0  0
 25 23  1  0  0  0  0
 26 27  1  0  0  0  0
 28 25  1  0  0  0  0
 29 28  1  0  0  0  0
M  END
>  <minimizedAffinity>
-4.62768841

>  <minimizedRMSD>
5.63835478

$$$$
