
 OpenBabel03252508503D

 26 27  0  0  0  0  0  0  0  0999 V2000
   45.9960   34.1470   41.1610 C   0  0  0  0  0  0  0  0  0  0  0  0
   46.5540   34.8360   42.2330 C   0  0  0  0  0  0  0  0  0  0  0  0
   47.8740   35.2800   42.0920 C   0  0  0  0  0  0  0  0  0  0  0  0
   48.5180   35.0120   40.9270 N   0  0  0  0  0  0  0  0  0  0  0  0
   47.9480   34.3470   39.9180 C   0  0  0  0  0  0  0  0  0  0  0  0
   46.6740   33.9110   40.0390 N   0  0  0  0  0  0  0  0  0  0  0  0
   48.3370   35.8230   42.9140 H   0  0  0  0  0  0  0  0  0  0  0  0
   48.5660   34.2020   39.0550 H   0  0  0  0  0  0  0  0  0  0  0  0
   45.7670   35.0700   43.4430 C   0  0  0  0  0  0  0  0  0  0  0  0
   45.0550   36.2250   43.6720 C   0  0  0  0  0  0  0  0  0  0  0  0
   44.4810   36.0110   44.9070 C   0  0  0  0  0  0  0  0  0  0  0  0
   44.8240   34.7970   45.4040 N   0  0  0  0  0  0  0  0  0  0  0  0
   45.6000   34.2530   44.4980 N   0  0  0  0  0  0  0  0  0  0  0  0
   44.9230   37.1140   43.0940 H   0  0  0  0  0  0  0  0  0  0  0  0
   43.8240   36.6370   45.5230 H   0  0  0  0  0  0  0  0  0  0  0  0
   44.6120   34.2770   46.2670 H   0  0  0  0  0  0  0  0  0  0  0  0
   44.6920   33.7020   41.2870 O   0  0  0  0  0  0  0  0  0  0  0  0
   43.5820   34.3050   40.7600 C   0  0  0  0  0  0  0  0  0  0  0  0
   43.2670   35.5380   40.7830 O   0  0  0  0  0  0  0  0  0  0  0  0
   42.4650   33.8000   40.0520 O   0  0  0  0  0  0  0  0  0  0  0  0
   43.4700   32.7640   37.8750 O   0  0  0  0  0  0  0  0  0  0  0  0
   42.4590   33.7930   38.3390 P   0  0  0  0  0  0  0  0  0  0  0  0
   40.9380   33.2990   37.8080 O   0  0  0  0  0  0  0  0  0  0  0  0
   40.8870   32.2940   37.8550 H   0  0  0  0  0  0  0  0  0  0  0  0
   42.8980   35.2850   37.6790 O   0  0  0  0  0  0  0  0  0  0  0  0
   42.2410   35.6460   37.0350 H   0  0  0  0  0  0  0  0  0  0  0  0
  1 17  1  0  0  0  0
  1  2  1  0  0  0  0
  2  9  1  0  0  0  0
  3  2  2  0  0  0  0
  3  7  1  0  0  0  0
  4  3  1  0  0  0  0
  5  6  1  0  0  0  0
  5  4  2  0  0  0  0
  6  1  2  0  0  0  0
  8  5  1  0  0  0  0
  9 10  1  0  0  0  0
  9 13  2  0  0  0  0
 10 11  2  0  0  0  0
 11 12  1  0  0  0  0
 11 15  1  0  0  0  0
 12 16  1  0  0  0  0
 13 12  1  0  0  0  0
 14 10  1  0  0  0  0
 18 19  2  0  0  0  0
 18 17  1  0  0  0  0
 20 18  1  0  0  0  0
 21 22  2  0  0  0  0
 22 20  1  0  0  0  0
 23 24  1  0  0  0  0
 23 22  1  0  0  0  0
 25 22  1  0  0  0  0
 26 25  1  0  0  0  0
M  END
>  <minimizedAffinity>
-5.04765415

>  <minimizedRMSD>
0.532310426

$$$$
