
 OpenBabel03242521443D

 36 37  0  0  1  0  0  0  0  0999 V2000
   45.2460   35.8770   44.0850 C   0  0  0  0  0  0  0  0  0  0  0  0
   46.0690   34.7930   43.7340 C   0  0  0  0  0  0  0  0  0  0  0  0
   46.1670   33.6980   44.5970 C   0  0  0  0  0  0  0  0  0  0  0  0
   45.4590   33.7460   45.7250 N   0  0  0  0  0  0  0  0  0  0  0  0
   44.6710   34.7950   46.0500 C   0  0  0  0  0  0  0  0  0  0  0  0
   44.5600   35.8670   45.2320 N   0  0  0  0  0  0  0  0  0  0  0  0
   46.5940   34.8710   42.7900 H   0  0  0  0  0  0  0  0  0  0  0  0
   44.1240   34.7660   46.9840 H   0  0  0  0  0  0  0  0  0  0  0  0
   48.0020   32.9520   43.0970 C   0  0  2  0  0  0  0  0  0  0  0  0
   47.0320   32.6140   44.1730 C   0  0  2  0  0  0  0  0  0  0  0  0
   46.3480   31.5110   43.5820 O   0  0  0  0  0  0  0  0  0  0  0  0
   47.3840   30.7020   43.1630 C   0  0  0  0  0  0  0  0  0  0  0  0
   48.5940   31.5440   42.8800 C   0  0  1  0  0  0  0  0  0  0  0  0
   47.4890   33.1630   42.1150 H   0  0  0  0  0  0  0  0  0  0  0  0
   47.6080   32.2310   45.0610 H   0  0  0  0  0  0  0  0  0  0  0  0
   47.6250   29.9520   43.9420 H   0  0  0  0  0  0  0  0  0  0  0  0
   47.1030   30.1760   42.2370 H   0  0  0  0  0  0  0  0  0  0  0  0
   49.4030   31.4170   43.6090 H   0  0  0  0  0  0  0  0  0  0  0  0
   48.9280   33.8940   43.4260 O   0  0  0  0  0  0  0  0  0  0  0  0
   48.9510   34.6620   42.8010 H   0  0  0  0  0  0  0  0  0  0  0  0
   49.0430   31.4500   41.5640 O   0  0  0  0  0  0  0  0  0  0  0  0
   49.7010   32.1790   41.4440 H   0  0  0  0  0  0  0  0  0  0  0  0
   45.1690   37.0480   43.1420 C   0  0  0  0  0  0  0  0  0  0  0  0
   44.3740   36.8330   42.4140 H   0  0  0  0  0  0  0  0  0  0  0  0
   46.1430   37.2030   42.6710 H   0  0  0  0  0  0  0  0  0  0  0  0
   45.2240   39.5270   43.8130 C   0  0  0  0  0  0  0  0  0  0  0  0
   46.0550   39.7460   42.8870 O   0  0  0  0  0  0  0  0  0  0  0  0
   44.7640   38.1880   43.9520 N   0  0  0  0  0  0  0  0  0  0  0  0
   44.0560   38.0100   44.7230 H   0  0  0  0  0  0  0  0  0  0  0  0
   44.7670   40.5250   44.6660 O   0  0  0  0  0  0  0  0  0  0  0  0
   44.3660   39.1870   46.9380 O   0  0  0  0  0  0  0  0  0  0  0  0
   45.1060   40.3960   46.3600 P   0  0  0  0  0  0  0  0  0  0  0  0
   44.6790   41.8120   47.1460 O   0  0  0  0  0  0  0  0  0  0  0  0
   44.1470   41.5410   47.9540 H   0  0  0  0  0  0  0  0  0  0  0  0
   46.7460   40.0490   46.5110 O   0  0  0  0  0  0  0  0  0  0  0  0
   46.9230   39.0590   46.5770 H   0  0  0  0  0  0  0  0  0  0  0  0
  1  6  1  0  0  0  0
  2  1  2  0  0  0  0
  2  3  1  0  0  0  0
  3  4  2  0  0  0  0
  4  5  1  0  0  0  0
  5  8  1  0  0  0  0
  6  5  2  0  0  0  0
  7  2  1  0  0  0  0
  9 14  1  6  0  0  0
  9 19  1  0  0  0  0
  9 10  1  0  0  0  0
 10  3  1  0  0  0  0
 10 15  1  1  0  0  0
 11 10  1  0  0  0  0
 12 11  1  0  0  0  0
 12 16  1  0  0  0  0
 13  9  1  0  0  0  0
 13 12  1  0  0  0  0
 13 18  1  1  0  0  0
 17 12  1  0  0  0  0
 20 19  1  0  0  0  0
 21 13  1  0  0  0  0
 22 21  1  0  0  0  0
 23 28  1  0  0  0  0
 23  1  1  0  0  0  0
 24 23  1  0  0  0  0
 25 23  1  0  0  0  0
 26 28  1  0  0  0  0
 26 30  1  0  0  0  0
 27 26  2  0  0  0  0
 28 29  1  0  0  0  0
 30 32  1  0  0  0  0
 32 35  1  0  0  0  0
 32 31  2  0  0  0  0
 32 33  1  0  0  0  0
 33 34  1  0  0  0  0
 35 36  1  0  0  0  0
M  END
>  <minimizedAffinity>
-2.35280085

>  <minimizedRMSD>
1.44284344

$$$$
