
 OpenBabel03252507523D

 29 30  0  0  1  0  0  0  0  0999 V2000
   38.3700   27.2590   41.7670 C   0  0  2  0  0  0  0  0  0  0  0  0
   38.6260   27.4750   43.2260 C   0  0  0  0  0  0  0  0  0  0  0  0
   38.4020   28.9820   43.3180 C   0  0  0  0  0  0  0  0  0  0  0  0
   37.3960   29.3140   42.2410 C   0  0  2  0  0  0  0  0  0  0  0  0
   37.0140   27.9640   41.6300 C   0  0  0  0  0  0  0  0  0  0  0  0
   39.0930   27.8250   41.1620 H   0  0  0  0  0  0  0  0  0  0  0  0
   37.9080   26.9130   43.8510 H   0  0  0  0  0  0  0  0  0  0  0  0
   39.6690   27.2230   43.5160 H   0  0  0  0  0  0  0  0  0  0  0  0
   37.8990   29.1370   44.3110 H   0  0  0  0  0  0  0  0  0  0  0  0
   39.3390   29.5510   43.2390 H   0  0  0  0  0  0  0  0  0  0  0  0
   36.5150   29.8120   42.6470 H   0  0  0  0  0  0  0  0  0  0  0  0
   36.6720   28.0400   40.6010 H   0  0  0  0  0  0  0  0  0  0  0  0
   36.2870   27.4950   42.2930 H   0  0  0  0  0  0  0  0  0  0  0  0
   37.3600   23.6660   41.2030 C   0  0  0  0  0  0  0  0  0  0  0  0
   37.2960   24.9820   41.7120 C   0  0  0  0  0  0  0  0  0  0  0  0
   38.3060   25.8590   41.3280 C   0  0  0  0  0  0  0  0  0  0  0  0
   39.3040   25.4100   40.4840 N   0  0  0  0  0  0  0  0  0  0  0  0
   39.3130   24.1430   40.0280 C   0  0  0  0  0  0  0  0  0  0  0  0
   38.3620   23.2750   40.3750 N   0  0  0  0  0  0  0  0  0  0  0  0
   36.5310   23.0600   41.5590 H   0  0  0  0  0  0  0  0  0  0  0  0
   36.5180   25.3210   42.3680 H   0  0  0  0  0  0  0  0  0  0  0  0
   40.0900   23.7790   39.3660 H   0  0  0  0  0  0  0  0  0  0  0  0
   38.0430   30.0060   41.2230 O   0  0  0  0  0  0  0  0  0  0  0  0
   36.9230   30.9440   39.0190 O   0  0  0  0  0  0  0  0  0  0  0  0
   37.0270   31.1610   40.5250 P   0  0  0  0  0  0  0  0  0  0  0  0
   35.5370   31.1490   41.2920 O   0  0  0  0  0  0  0  0  0  0  0  0
   35.1070   30.2590   41.2810 H   0  0  0  0  0  0  0  0  0  0  0  0
   37.6840   32.7290   40.7130 O   0  0  0  0  0  0  0  0  0  0  0  0
   37.3430   33.3340   40.0180 H   0  0  0  0  0  0  0  0  0  0  0  0
  1  6  1  6  0  0  0
  1  2  1  0  0  0  0
  2  3  1  0  0  0  0
  2  8  1  0  0  0  0
  2  7  1  0  0  0  0
  3  9  1  0  0  0  0
  4 11  1  1  0  0  0
  4  3  1  0  0  0  0
  5  1  1  0  0  0  0
  5  4  1  0  0  0  0
  5 13  1  0  0  0  0
 10  3  1  0  0  0  0
 12  5  1  0  0  0  0
 14 20  1  0  0  0  0
 14 15  1  0  0  0  0
 15 21  1  0  0  0  0
 16 15  2  0  0  0  0
 16  1  1  0  0  0  0
 17 16  1  0  0  0  0
 18 19  1  0  0  0  0
 18 17  2  0  0  0  0
 19 14  2  0  0  0  0
 22 18  1  0  0  0  0
 23  4  1  0  0  0  0
 24 25  2  0  0  0  0
 25 28  1  0  0  0  0
 25 23  1  0  0  0  0
 25 26  1  0  0  0  0
 27 26  1  0  0  0  0
 29 28  1  0  0  0  0
M  END
>  <minimizedAffinity>
-4.97247219

$$$$

 OpenBabel03252507523D

 29 30  0  0  1  0  0  0  0  0999 V2000
   37.4000   28.9350   41.5990 C   0  0  2  0  0  0  0  0  0  0  0  0
   36.0920   28.6530   40.9300 C   0  0  0  0  0  0  0  0  0  0  0  0
   35.8120   30.0170   40.3030 C   0  0  0  0  0  0  0  0  0  0  0  0
   37.1660   30.6260   40.0240 C   0  0  2  0  0  0  0  0  0  0  0  0
   38.1730   29.5450   40.4210 C   0  0  0  0  0  0  0  0  0  0  0  0
   37.2850   29.7250   42.3550 H   0  0  0  0  0  0  0  0  0  0  0  0
   36.1890   27.8610   40.1660 H   0  0  0  0  0  0  0  0  0  0  0  0
   35.2910   28.3930   41.6560 H   0  0  0  0  0  0  0  0  0  0  0  0
   35.3340   29.7840   39.3130 H   0  0  0  0  0  0  0  0  0  0  0  0
   35.1660   30.6440   40.9340 H   0  0  0  0  0  0  0  0  0  0  0  0
   37.2830   30.8890   38.9720 H   0  0  0  0  0  0  0  0  0  0  0  0
   39.1430   29.9460   40.7060 H   0  0  0  0  0  0  0  0  0  0  0  0
   38.2260   28.8260   39.6040 H   0  0  0  0  0  0  0  0  0  0  0  0
   39.5660   26.6480   43.6800 C   0  0  0  0  0  0  0  0  0  0  0  0
   38.9790   27.8540   43.2370 C   0  0  0  0  0  0  0  0  0  0  0  0
   38.0950   27.7710   42.1650 C   0  0  0  0  0  0  0  0  0  0  0  0
   37.8400   26.5380   41.5960 N   0  0  0  0  0  0  0  0  0  0  0  0
   38.4290   25.4200   42.0610 C   0  0  0  0  0  0  0  0  0  0  0  0
   39.2810   25.4610   43.0860 N   0  0  0  0  0  0  0  0  0  0  0  0
   40.2390   26.8160   44.5180 H   0  0  0  0  0  0  0  0  0  0  0  0
   39.1840   28.8070   43.6840 H   0  0  0  0  0  0  0  0  0  0  0  0
   38.2360   24.4480   41.6240 H   0  0  0  0  0  0  0  0  0  0  0  0
   37.3780   31.6700   40.9170 O   0  0  0  0  0  0  0  0  0  0  0  0
   39.2200   32.5650   39.2440 O   0  0  0  0  0  0  0  0  0  0  0  0
   38.0730   33.0040   40.1470 P   0  0  0  0  0  0  0  0  0  0  0  0
   36.8920   33.8690   39.3300 O   0  0  0  0  0  0  0  0  0  0  0  0
   36.3910   33.3170   38.6810 H   0  0  0  0  0  0  0  0  0  0  0  0
   38.7760   34.0600   41.2940 O   0  0  0  0  0  0  0  0  0  0  0  0
   39.4850   34.5990   40.8810 H   0  0  0  0  0  0  0  0  0  0  0  0
  1 16  1  0  0  0  0
  1  6  1  1  0  0  0
  2  1  1  0  0  0  0
  2  8  1  0  0  0  0
  3  2  1  0  0  0  0
  3 10  1  0  0  0  0
  4 11  1  6  0  0  0
  4  3  1  0  0  0  0
  4  5  1  0  0  0  0
  4 23  1  0  0  0  0
  5 12  1  0  0  0  0
  5  1  1  0  0  0  0
  7  2  1  0  0  0  0
  9  3  1  0  0  0  0
 13  5  1  0  0  0  0
 14 20  1  0  0  0  0
 15 14  1  0  0  0  0
 15 21  1  0  0  0  0
 16 15  2  0  0  0  0
 17 18  2  0  0  0  0
 17 16  1  0  0  0  0
 18 19  1  0  0  0  0
 19 14  2  0  0  0  0
 22 18  1  0  0  0  0
 24 25  2  0  0  0  0
 25 23  1  0  0  0  0
 25 28  1  0  0  0  0
 26 25  1  0  0  0  0
 27 26  1  0  0  0  0
 29 28  1  0  0  0  0
M  END
>  <minimizedAffinity>
-4.87155867

$$$$

 OpenBabel03252507523D

 29 30  0  0  1  0  0  0  0  0999 V2000
   37.9410   27.8900   41.5150 C   0  0  2  0  0  0  0  0  0  0  0  0
   38.3690   28.1510   42.9250 C   0  0  0  0  0  0  0  0  0  0  0  0
   38.6340   29.6530   42.8500 C   0  0  0  0  0  0  0  0  0  0  0  0
   37.6980   30.1830   41.7900 C   0  0  2  0  0  0  0  0  0  0  0  0
   36.8650   28.9740   41.3600 C   0  0  0  0  0  0  0  0  0  0  0  0
   38.7520   28.1350   40.8140 H   0  0  0  0  0  0  0  0  0  0  0  0
   37.5660   27.9110   43.6440 H   0  0  0  0  0  0  0  0  0  0  0  0
   39.3020   27.6090   43.1930 H   0  0  0  0  0  0  0  0  0  0  0  0
   38.2880   30.0550   43.8420 H   0  0  0  0  0  0  0  0  0  0  0  0
   39.6930   29.8820   42.6610 H   0  0  0  0  0  0  0  0  0  0  0  0
   37.0530   30.9730   42.1770 H   0  0  0  0  0  0  0  0  0  0  0  0
   36.4810   29.0560   40.3460 H   0  0  0  0  0  0  0  0  0  0  0  0
   36.0850   28.8270   42.1070 H   0  0  0  0  0  0  0  0  0  0  0  0
   36.7810   24.3100   41.8080 C   0  0  0  0  0  0  0  0  0  0  0  0
   37.3250   25.5490   42.2110 C   0  0  0  0  0  0  0  0  0  0  0  0
   37.4080   26.5480   41.2450 C   0  0  0  0  0  0  0  0  0  0  0  0
   36.9630   26.2850   39.9640 N   0  0  0  0  0  0  0  0  0  0  0  0
   36.4520   25.0830   39.6370 C   0  0  0  0  0  0  0  0  0  0  0  0
   36.3570   24.1020   40.5350 N   0  0  0  0  0  0  0  0  0  0  0  0
   36.7590   23.5970   42.6290 H   0  0  0  0  0  0  0  0  0  0  0  0
   37.6690   25.7440   43.2080 H   0  0  0  0  0  0  0  0  0  0  0  0
   36.1000   24.8640   38.6360 H   0  0  0  0  0  0  0  0  0  0  0  0
   38.4430   30.5320   40.6700 O   0  0  0  0  0  0  0  0  0  0  0  0
   38.9650   32.5180   39.0040 O   0  0  0  0  0  0  0  0  0  0  0  0
   38.3350   32.1880   40.3530 P   0  0  0  0  0  0  0  0  0  0  0  0
   36.7400   32.6890   40.4700 O   0  0  0  0  0  0  0  0  0  0  0  0
   36.1340   32.1830   39.8750 H   0  0  0  0  0  0  0  0  0  0  0  0
   39.2340   33.0780   41.5040 O   0  0  0  0  0  0  0  0  0  0  0  0
   39.5010   33.9490   41.1370 H   0  0  0  0  0  0  0  0  0  0  0  0
  1  6  1  6  0  0  0
  1  2  1  0  0  0  0
  2  8  1  0  0  0  0
  2  7  1  0  0  0  0
  3  2  1  0  0  0  0
  3  9  1  0  0  0  0
  4 11  1  1  0  0  0
  4  3  1  0  0  0  0
  5  1  1  0  0  0  0
  5  4  1  0  0  0  0
  5 13  1  0  0  0  0
 10  3  1  0  0  0  0
 12  5  1  0  0  0  0
 14 15  1  0  0  0  0
 14 20  1  0  0  0  0
 15 21  1  0  0  0  0
 16  1  1  0  0  0  0
 16 15  2  0  0  0  0
 17 16  1  0  0  0  0
 18 17  2  0  0  0  0
 18 19  1  0  0  0  0
 19 14  2  0  0  0  0
 22 18  1  0  0  0  0
 23  4  1  0  0  0  0
 24 25  2  0  0  0  0
 25 26  1  0  0  0  0
 25 23  1  0  0  0  0
 25 28  1  0  0  0  0
 27 26  1  0  0  0  0
 29 28  1  0  0  0  0
M  END
>  <minimizedAffinity>
-4.74928331

$$$$

 OpenBabel03252507523D

 29 30  0  0  1  0  0  0  0  0999 V2000
   37.9960   30.5430   40.9760 C   0  0  2  0  0  0  0  0  0  0  0  0
   36.6840   31.2190   40.7300 C   0  0  0  0  0  0  0  0  0  0  0  0
   37.0910   32.2060   39.6390 C   0  0  0  0  0  0  0  0  0  0  0  0
   38.2310   31.5500   38.8960 C   0  0  2  0  0  0  0  0  0  0  0  0
   38.3740   30.1680   39.5360 C   0  0  0  0  0  0  0  0  0  0  0  0
   38.7430   31.2690   41.3280 H   0  0  0  0  0  0  0  0  0  0  0  0
   35.9190   30.5040   40.3740 H   0  0  0  0  0  0  0  0  0  0  0  0
   36.3130   31.7660   41.6240 H   0  0  0  0  0  0  0  0  0  0  0  0
   36.2090   32.2440   38.9420 H   0  0  0  0  0  0  0  0  0  0  0  0
   37.3380   33.1980   40.0420 H   0  0  0  0  0  0  0  0  0  0  0  0
   38.0210   31.4570   37.8300 H   0  0  0  0  0  0  0  0  0  0  0  0
   39.3770   29.7560   39.4490 H   0  0  0  0  0  0  0  0  0  0  0  0
   37.6050   29.5240   39.1100 H   0  0  0  0  0  0  0  0  0  0  0  0
   38.8730   27.7660   43.3770 C   0  0  0  0  0  0  0  0  0  0  0  0
   39.0620   28.9040   42.5630 C   0  0  0  0  0  0  0  0  0  0  0  0
   37.9570   29.3680   41.8550 C   0  0  0  0  0  0  0  0  0  0  0  0
   36.7510   28.7050   41.9810 N   0  0  0  0  0  0  0  0  0  0  0  0
   36.6280   27.6240   42.7740 C   0  0  0  0  0  0  0  0  0  0  0  0
   37.6660   27.1520   43.4660 N   0  0  0  0  0  0  0  0  0  0  0  0
   39.7900   27.4820   43.8860 H   0  0  0  0  0  0  0  0  0  0  0  0
   40.0030   29.4110   42.4710 H   0  0  0  0  0  0  0  0  0  0  0  0
   35.6880   27.0970   42.8800 H   0  0  0  0  0  0  0  0  0  0  0  0
   39.4090   32.2210   39.2040 O   0  0  0  0  0  0  0  0  0  0  0  0
   41.4670   31.2050   37.8920 O   0  0  0  0  0  0  0  0  0  0  0  0
   40.4280   32.3200   37.8600 P   0  0  0  0  0  0  0  0  0  0  0  0
   39.5180   32.3270   36.4540 O   0  0  0  0  0  0  0  0  0  0  0  0
   38.9220   31.5420   36.3780 H   0  0  0  0  0  0  0  0  0  0  0  0
   41.3240   33.7760   37.8940 O   0  0  0  0  0  0  0  0  0  0  0  0
   42.1560   33.6840   37.3790 H   0  0  0  0  0  0  0  0  0  0  0  0
  1  6  1  1  0  0  0
  1 16  1  0  0  0  0
  2  1  1  0  0  0  0
  2  8  1  0  0  0  0
  3 10  1  0  0  0  0
  3  2  1  0  0  0  0
  4 11  1  6  0  0  0
  4 23  1  0  0  0  0
  4  5  1  0  0  0  0
  4  3  1  0  0  0  0
  5  1  1  0  0  0  0
  7  2  1  0  0  0  0
  9  3  1  0  0  0  0
 12  5  1  0  0  0  0
 13  5  1  0  0  0  0
 14 19  1  0  0  0  0
 14 20  1  0  0  0  0
 15 14  2  0  0  0  0
 16 17  2  0  0  0  0
 16 15  1  0  0  0  0
 17 18  1  0  0  0  0
 18 22  1  0  0  0  0
 18 19  2  0  0  0  0
 21 15  1  0  0  0  0
 25 24  2  0  0  0  0
 25 28  1  0  0  0  0
 25 23  1  0  0  0  0
 26 25  1  0  0  0  0
 27 26  1  0  0  0  0
 29 28  1  0  0  0  0
M  END
>  <minimizedAffinity>
-4.72875404

$$$$

 OpenBabel03252507523D

 29 30  0  0  1  0  0  0  0  0999 V2000
   38.0770   27.9550   41.4080 C   0  0  2  0  0  0  0  0  0  0  0  0
   38.5450   28.2750   42.7920 C   0  0  0  0  0  0  0  0  0  0  0  0
   38.7480   29.7820   42.6660 C   0  0  0  0  0  0  0  0  0  0  0  0
   37.7540   30.2450   41.6270 C   0  0  2  0  0  0  0  0  0  0  0  0
   36.9550   28.9930   41.2630 C   0  0  0  0  0  0  0  0  0  0  0  0
   38.8520   28.2110   40.6700 H   0  0  0  0  0  0  0  0  0  0  0  0
   37.7790   28.0250   43.5480 H   0  0  0  0  0  0  0  0  0  0  0  0
   39.5080   27.7770   43.0410 H   0  0  0  0  0  0  0  0  0  0  0  0
   38.4230   30.2000   43.6580 H   0  0  0  0  0  0  0  0  0  0  0  0
   39.7900   30.0470   42.4320 H   0  0  0  0  0  0  0  0  0  0  0  0
   37.0930   31.0210   42.0160 H   0  0  0  0  0  0  0  0  0  0  0  0
   36.5310   29.0300   40.2620 H   0  0  0  0  0  0  0  0  0  0  0  0
   36.2080   28.8380   42.0420 H   0  0  0  0  0  0  0  0  0  0  0  0
   36.4880   24.8400   39.9890 C   0  0  0  0  0  0  0  0  0  0  0  0
   36.8880   26.1920   40.0590 C   0  0  0  0  0  0  0  0  0  0  0  0
   37.5880   26.5870   41.1960 C   0  0  0  0  0  0  0  0  0  0  0  0
   37.8520   25.6560   42.1810 N   0  0  0  0  0  0  0  0  0  0  0  0
   37.4450   24.3780   42.0600 C   0  0  0  0  0  0  0  0  0  0  0  0
   36.7730   23.9640   40.9850 N   0  0  0  0  0  0  0  0  0  0  0  0
   35.9500   24.6300   39.0670 H   0  0  0  0  0  0  0  0  0  0  0  0
   36.6770   26.9080   39.2890 H   0  0  0  0  0  0  0  0  0  0  0  0
   37.6460   23.6390   42.8260 H   0  0  0  0  0  0  0  0  0  0  0  0
   38.4440   30.5890   40.4710 O   0  0  0  0  0  0  0  0  0  0  0  0
   39.1420   33.0510   41.1350 O   0  0  0  0  0  0  0  0  0  0  0  0
   38.3110   32.2420   40.1450 P   0  0  0  0  0  0  0  0  0  0  0  0
   38.7180   32.5430   38.5480 O   0  0  0  0  0  0  0  0  0  0  0  0
   39.6220   32.2170   38.3140 H   0  0  0  0  0  0  0  0  0  0  0  0
   36.6990   32.7680   40.3680 O   0  0  0  0  0  0  0  0  0  0  0  0
   36.6720   33.7300   40.5640 H   0  0  0  0  0  0  0  0  0  0  0  0
  1  6  1  6  0  0  0
  1  2  1  0  0  0  0
  2  8  1  0  0  0  0
  2  7  1  0  0  0  0
  3  2  1  0  0  0  0
  3  9  1  0  0  0  0
  4 11  1  1  0  0  0
  4  3  1  0  0  0  0
  5  1  1  0  0  0  0
  5  4  1  0  0  0  0
  5 13  1  0  0  0  0
 10  3  1  0  0  0  0
 12  5  1  0  0  0  0
 14 15  2  0  0  0  0
 14 19  1  0  0  0  0
 15 16  1  0  0  0  0
 16  1  1  0  0  0  0
 16 17  2  0  0  0  0
 18 17  1  0  0  0  0
 18 22  1  0  0  0  0
 19 18  2  0  0  0  0
 20 14  1  0  0  0  0
 21 15  1  0  0  0  0
 23  4  1  0  0  0  0
 25 28  1  0  0  0  0
 25 23  1  0  0  0  0
 25 24  2  0  0  0  0
 26 25  1  0  0  0  0
 27 26  1  0  0  0  0
 28 29  1  0  0  0  0
M  END
>  <minimizedAffinity>
-4.6094408

$$$$

 OpenBabel03252507523D

 29 30  0  0  1  0  0  0  0  0999 V2000
   36.6460   30.2210   38.9940 C   0  0  2  0  0  0  0  0  0  0  0  0
   35.7170   30.0320   40.1520 C   0  0  0  0  0  0  0  0  0  0  0  0
   36.4810   30.7910   41.2340 C   0  0  0  0  0  0  0  0  0  0  0  0
   37.2520   31.8700   40.5130 C   0  0  2  0  0  0  0  0  0  0  0  0
   36.8290   31.7440   39.0480 C   0  0  0  0  0  0  0  0  0  0  0  0
   37.6250   29.7690   39.2070 H   0  0  0  0  0  0  0  0  0  0  0  0
   34.7270   30.4800   39.9560 H   0  0  0  0  0  0  0  0  0  0  0  0
   35.6070   28.9630   40.4380 H   0  0  0  0  0  0  0  0  0  0  0  0
   35.6840   31.2950   41.8480 H   0  0  0  0  0  0  0  0  0  0  0  0
   37.1110   30.1290   41.8450 H   0  0  0  0  0  0  0  0  0  0  0  0
   37.0140   32.8640   40.8950 H   0  0  0  0  0  0  0  0  0  0  0  0
   37.5780   32.1110   38.3510 H   0  0  0  0  0  0  0  0  0  0  0  0
   35.8610   32.2340   38.9400 H   0  0  0  0  0  0  0  0  0  0  0  0
   34.5780   28.7360   36.2080 C   0  0  0  0  0  0  0  0  0  0  0  0
   34.9400   29.0920   37.5250 C   0  0  0  0  0  0  0  0  0  0  0  0
   36.1410   29.7770   37.6880 C   0  0  0  0  0  0  0  0  0  0  0  0
   36.9060   30.0690   36.5760 N   0  0  0  0  0  0  0  0  0  0  0  0
   36.5090   29.7050   35.3420 C   0  0  0  0  0  0  0  0  0  0  0  0
   35.3650   29.0480   35.1470 N   0  0  0  0  0  0  0  0  0  0  0  0
   33.6280   28.2060   36.1840 H   0  0  0  0  0  0  0  0  0  0  0  0
   34.3400   28.8590   38.3830 H   0  0  0  0  0  0  0  0  0  0  0  0
   37.1000   29.9290   34.4620 H   0  0  0  0  0  0  0  0  0  0  0  0
   38.6030   31.5430   40.5330 O   0  0  0  0  0  0  0  0  0  0  0  0
   40.0750   33.3230   39.2440 O   0  0  0  0  0  0  0  0  0  0  0  0
   39.5680   32.9270   40.6270 P   0  0  0  0  0  0  0  0  0  0  0  0
   38.7270   34.1580   41.3920 O   0  0  0  0  0  0  0  0  0  0  0  0
   37.8660   34.3660   40.9520 H   0  0  0  0  0  0  0  0  0  0  0  0
   40.9720   32.6170   41.5530 O   0  0  0  0  0  0  0  0  0  0  0  0
   41.6930   33.2370   41.3080 H   0  0  0  0  0  0  0  0  0  0  0  0
  1  5  1  0  0  0  0
  1  6  1  1  0  0  0
  1  2  1  0  0  0  0
  2  8  1  0  0  0  0
  2  3  1  0  0  0  0
  3 10  1  0  0  0  0
  3  9  1  0  0  0  0
  4 23  1  0  0  0  0
  4 11  1  1  0  0  0
  4  3  1  0  0  0  0
  5  4  1  0  0  0  0
  7  2  1  0  0  0  0
 12  5  1  0  0  0  0
 13  5  1  0  0  0  0
 14 15  1  0  0  0  0
 15 16  2  0  0  0  0
 15 21  1  0  0  0  0
 16  1  1  0  0  0  0
 17 16  1  0  0  0  0
 18 17  2  0  0  0  0
 19 18  1  0  0  0  0
 19 14  2  0  0  0  0
 20 14  1  0  0  0  0
 22 18  1  0  0  0  0
 23 25  1  0  0  0  0
 24 25  2  0  0  0  0
 25 26  1  0  0  0  0
 25 28  1  0  0  0  0
 27 26  1  0  0  0  0
 29 28  1  0  0  0  0
M  END
>  <minimizedAffinity>
-4.55985594

$$$$

 OpenBabel03252507523D

 29 30  0  0  1  0  0  0  0  0999 V2000
   37.4610   30.4430   40.0570 C   0  0  2  0  0  0  0  0  0  0  0  0
   36.2060   30.3320   39.2500 C   0  0  0  0  0  0  0  0  0  0  0  0
   35.6980   28.9750   39.7280 C   0  0  0  0  0  0  0  0  0  0  0  0
   36.1990   28.8230   41.1450 C   0  0  2  0  0  0  0  0  0  0  0  0
   36.9020   30.1460   41.4560 C   0  0  0  0  0  0  0  0  0  0  0  0
   38.1540   29.6260   39.8060 H   0  0  0  0  0  0  0  0  0  0  0  0
   35.4960   31.1450   39.4900 H   0  0  0  0  0  0  0  0  0  0  0  0
   36.4050   30.3050   38.1570 H   0  0  0  0  0  0  0  0  0  0  0  0
   34.5800   29.0860   39.7730 H   0  0  0  0  0  0  0  0  0  0  0  0
   36.0020   28.1550   39.0610 H   0  0  0  0  0  0  0  0  0  0  0  0
   35.3840   28.6500   41.8480 H   0  0  0  0  0  0  0  0  0  0  0  0
   37.6740   30.0540   42.2160 H   0  0  0  0  0  0  0  0  0  0  0  0
   36.1340   30.8780   41.7080 H   0  0  0  0  0  0  0  0  0  0  0  0
   38.2640   34.1290   39.9640 C   0  0  0  0  0  0  0  0  0  0  0  0
   37.4730   32.9600   40.0080 C   0  0  0  0  0  0  0  0  0  0  0  0
   38.1450   31.7410   40.0050 C   0  0  0  0  0  0  0  0  0  0  0  0
   39.5260   31.7330   39.9590 N   0  0  0  0  0  0  0  0  0  0  0  0
   40.2290   32.8810   39.9180 C   0  0  0  0  0  0  0  0  0  0  0  0
   39.6190   34.0670   39.9200 N   0  0  0  0  0  0  0  0  0  0  0  0
   37.6510   35.0270   39.9700 H   0  0  0  0  0  0  0  0  0  0  0  0
   36.4010   32.9770   40.0430 H   0  0  0  0  0  0  0  0  0  0  0  0
   41.3110   32.8870   39.8820 H   0  0  0  0  0  0  0  0  0  0  0  0
   37.2030   27.8620   41.1640 O   0  0  0  0  0  0  0  0  0  0  0  0
   36.9440   25.5590   42.4360 O   0  0  0  0  0  0  0  0  0  0  0  0
   37.2380   27.0410   42.6390 P   0  0  0  0  0  0  0  0  0  0  0  0
   38.6990   27.3170   43.4120 O   0  0  0  0  0  0  0  0  0  0  0  0
   39.4790   27.0670   42.8590 H   0  0  0  0  0  0  0  0  0  0  0  0
   36.0000   27.6120   43.6720 O   0  0  0  0  0  0  0  0  0  0  0  0
   35.7570   26.9280   44.3340 H   0  0  0  0  0  0  0  0  0  0  0  0
  1  6  1  6  0  0  0
  1  5  1  0  0  0  0
  2  7  1  0  0  0  0
  2  3  1  0  0  0  0
  2  1  1  0  0  0  0
  3  9  1  0  0  0  0
  3  4  1  0  0  0  0
  4 23  1  0  0  0  0
  4  5  1  0  0  0  0
  4 11  1  1  0  0  0
  5 13  1  0  0  0  0
  5 12  1  0  0  0  0
  8  2  1  0  0  0  0
 10  3  1  0  0  0  0
 14 20  1  0  0  0  0
 14 15  1  0  0  0  0
 15 21  1  0  0  0  0
 16 15  2  0  0  0  0
 16  1  1  0  0  0  0
 17 16  1  0  0  0  0
 18 19  1  0  0  0  0
 18 17  2  0  0  0  0
 19 14  2  0  0  0  0
 22 18  1  0  0  0  0
 23 25  1  0  0  0  0
 24 25  2  0  0  0  0
 25 26  1  0  0  0  0
 25 28  1  0  0  0  0
 27 26  1  0  0  0  0
 28 29  1  0  0  0  0
M  END
>  <minimizedAffinity>
-4.54393244

$$$$

 OpenBabel03252507523D

 29 30  0  0  1  0  0  0  0  0999 V2000
   37.5160   29.0160   42.0030 C   0  0  2  0  0  0  0  0  0  0  0  0
   37.7640   28.9370   43.4770 C   0  0  0  0  0  0  0  0  0  0  0  0
   37.6990   27.4260   43.6800 C   0  0  0  0  0  0  0  0  0  0  0  0
   38.1610   26.8160   42.3770 C   0  0  2  0  0  0  0  0  0  0  0  0
   38.5620   28.0080   41.5060 C   0  0  0  0  0  0  0  0  0  0  0  0
   36.5270   28.6050   41.7560 H   0  0  0  0  0  0  0  0  0  0  0  0
   38.7550   29.3460   43.7450 H   0  0  0  0  0  0  0  0  0  0  0  0
   36.9680   29.4390   44.0690 H   0  0  0  0  0  0  0  0  0  0  0  0
   38.4820   27.2060   44.4550 H   0  0  0  0  0  0  0  0  0  0  0  0
   36.7010   27.0880   43.9970 H   0  0  0  0  0  0  0  0  0  0  0  0
   39.0100   26.1470   42.5220 H   0  0  0  0  0  0  0  0  0  0  0  0
   38.4880   27.8050   40.4400 H   0  0  0  0  0  0  0  0  0  0  0  0
   39.5570   28.3270   41.8170 H   0  0  0  0  0  0  0  0  0  0  0  0
   37.0330   32.2470   40.1130 C   0  0  0  0  0  0  0  0  0  0  0  0
   36.7200   30.9710   40.6300 C   0  0  0  0  0  0  0  0  0  0  0  0
   37.6980   30.3390   41.3920 C   0  0  0  0  0  0  0  0  0  0  0  0
   38.9050   30.9780   41.6020 N   0  0  0  0  0  0  0  0  0  0  0  0
   39.1480   32.1970   41.0840 C   0  0  0  0  0  0  0  0  0  0  0  0
   38.2340   32.8320   40.3490 N   0  0  0  0  0  0  0  0  0  0  0  0
   36.2080   32.6570   39.5340 H   0  0  0  0  0  0  0  0  0  0  0  0
   35.7800   30.4820   40.4610 H   0  0  0  0  0  0  0  0  0  0  0  0
   40.0900   32.7080   41.2420 H   0  0  0  0  0  0  0  0  0  0  0  0
   37.0670   26.2450   41.7370 O   0  0  0  0  0  0  0  0  0  0  0  0
   36.1330   23.9290   40.8700 O   0  0  0  0  0  0  0  0  0  0  0  0
   37.4160   24.6810   41.2050 P   0  0  0  0  0  0  0  0  0  0  0  0
   38.4930   24.7410   39.9230 O   0  0  0  0  0  0  0  0  0  0  0  0
   38.1670   25.2960   39.1730 H   0  0  0  0  0  0  0  0  0  0  0  0
   38.1590   23.7760   42.4520 O   0  0  0  0  0  0  0  0  0  0  0  0
   38.0180   22.8130   42.3140 H   0  0  0  0  0  0  0  0  0  0  0  0
  1  6  1  6  0  0  0
  1  2  1  0  0  0  0
  2  3  1  0  0  0  0
  2  7  1  0  0  0  0
  2  8  1  0  0  0  0
  3 10  1  0  0  0  0
  3  9  1  0  0  0  0
  4 11  1  1  0  0  0
  4  3  1  0  0  0  0
  5 13  1  0  0  0  0
  5  1  1  0  0  0  0
  5  4  1  0  0  0  0
 12  5  1  0  0  0  0
 14 19  2  0  0  0  0
 14 15  1  0  0  0  0
 15 16  2  0  0  0  0
 16 17  1  0  0  0  0
 16  1  1  0  0  0  0
 18 22  1  0  0  0  0
 18 17  2  0  0  0  0
 19 18  1  0  0  0  0
 20 14  1  0  0  0  0
 21 15  1  0  0  0  0
 23  4  1  0  0  0  0
 24 25  2  0  0  0  0
 25 23  1  0  0  0  0
 25 28  1  0  0  0  0
 26 25  1  0  0  0  0
 27 26  1  0  0  0  0
 29 28  1  0  0  0  0
M  END
>  <minimizedAffinity>
-4.50707722

$$$$

 OpenBabel03252507523D

 29 30  0  0  1  0  0  0  0  0999 V2000
   39.1850   29.7120   41.3960 C   0  0  2  0  0  0  0  0  0  0  0  0
   40.0100   30.5040   42.3610 C   0  0  0  0  0  0  0  0  0  0  0  0
   40.5600   31.5770   41.4260 C   0  0  0  0  0  0  0  0  0  0  0  0
   39.5160   31.7600   40.3500 C   0  0  2  0  0  0  0  0  0  0  0  0
   38.3630   30.8430   40.7620 C   0  0  0  0  0  0  0  0  0  0  0  0
   39.8190   29.2890   40.6030 H   0  0  0  0  0  0  0  0  0  0  0  0
   39.3890   30.9380   43.1660 H   0  0  0  0  0  0  0  0  0  0  0  0
   40.8430   29.9090   42.7950 H   0  0  0  0  0  0  0  0  0  0  0  0
   40.5770   32.5160   42.0450 H   0  0  0  0  0  0  0  0  0  0  0  0
   41.5570   31.3240   41.0370 H   0  0  0  0  0  0  0  0  0  0  0  0
   39.1770   32.7940   40.2840 H   0  0  0  0  0  0  0  0  0  0  0  0
   37.7550   30.5130   39.9230 H   0  0  0  0  0  0  0  0  0  0  0  0
   37.7900   31.3580   41.5340 H   0  0  0  0  0  0  0  0  0  0  0  0
   36.8500   27.7590   43.6270 C   0  0  0  0  0  0  0  0  0  0  0  0
   37.6460   28.8390   43.1880 C   0  0  0  0  0  0  0  0  0  0  0  0
   38.3270   28.6760   41.9850 C   0  0  0  0  0  0  0  0  0  0  0  0
   38.1950   27.4880   41.2920 N   0  0  0  0  0  0  0  0  0  0  0  0
   37.4210   26.4900   41.7600 C   0  0  0  0  0  0  0  0  0  0  0  0
   36.7540   26.6110   42.9080 N   0  0  0  0  0  0  0  0  0  0  0  0
   36.3610   27.9810   44.5720 H   0  0  0  0  0  0  0  0  0  0  0  0
   37.7430   29.7570   43.7330 H   0  0  0  0  0  0  0  0  0  0  0  0
   37.3090   25.5550   41.2260 H   0  0  0  0  0  0  0  0  0  0  0  0
   40.0010   31.2250   39.1610 O   0  0  0  0  0  0  0  0  0  0  0  0
   42.1730   32.2660   38.0710 O   0  0  0  0  0  0  0  0  0  0  0  0
   40.6600   32.4260   38.1730 P   0  0  0  0  0  0  0  0  0  0  0  0
   39.8990   32.4190   36.6810 O   0  0  0  0  0  0  0  0  0  0  0  0
   39.9430   31.5390   36.2310 H   0  0  0  0  0  0  0  0  0  0  0  0
   40.4130   33.9720   38.8630 O   0  0  0  0  0  0  0  0  0  0  0  0
   41.0870   34.6090   38.5380 H   0  0  0  0  0  0  0  0  0  0  0  0
  1  6  1  6  0  0  0
  1 16  1  0  0  0  0
  1  2  1  0  0  0  0
  2  8  1  0  0  0  0
  2  7  1  0  0  0  0
  3  9  1  0  0  0  0
  3  2  1  0  0  0  0
  4 11  1  6  0  0  0
  4  5  1  0  0  0  0
  4  3  1  0  0  0  0
  5  1  1  0  0  0  0
  5 13  1  0  0  0  0
 10  3  1  0  0  0  0
 12  5  1  0  0  0  0
 14 20  1  0  0  0  0
 15 14  1  0  0  0  0
 15 21  1  0  0  0  0
 16 15  2  0  0  0  0
 17 18  2  0  0  0  0
 17 16  1  0  0  0  0
 18 19  1  0  0  0  0
 19 14  2  0  0  0  0
 22 18  1  0  0  0  0
 23  4  1  0  0  0  0
 24 25  2  0  0  0  0
 25 28  1  0  0  0  0
 25 23  1  0  0  0  0
 26 25  1  0  0  0  0
 27 26  1  0  0  0  0
 29 28  1  0  0  0  0
M  END
>  <minimizedAffinity>
-4.45497704

$$$$
