
 OpenBabel03252508513D

 26 27  0  0  0  0  0  0  0  0999 V2000
   45.9800   34.1270   41.1160 C   0  0  0  0  0  0  0  0  0  0  0  0
   46.5430   34.8150   42.1850 C   0  0  0  0  0  0  0  0  0  0  0  0
   47.8670   35.2480   42.0430 C   0  0  0  0  0  0  0  0  0  0  0  0
   48.5090   34.9710   40.8800 N   0  0  0  0  0  0  0  0  0  0  0  0
   47.9330   34.3070   39.8720 C   0  0  0  0  0  0  0  0  0  0  0  0
   46.6560   33.8820   39.9940 N   0  0  0  0  0  0  0  0  0  0  0  0
   48.3330   35.7890   42.8640 H   0  0  0  0  0  0  0  0  0  0  0  0
   48.5510   34.1550   39.0100 H   0  0  0  0  0  0  0  0  0  0  0  0
   45.7580   35.0580   43.3950 C   0  0  0  0  0  0  0  0  0  0  0  0
   45.0360   36.2100   43.6100 C   0  0  0  0  0  0  0  0  0  0  0  0
   44.4680   36.0080   44.8500 C   0  0  0  0  0  0  0  0  0  0  0  0
   44.8240   34.8050   45.3620 N   0  0  0  0  0  0  0  0  0  0  0  0
   45.6020   34.2550   44.4610 N   0  0  0  0  0  0  0  0  0  0  0  0
   44.8940   37.0900   43.0200 H   0  0  0  0  0  0  0  0  0  0  0  0
   43.8080   36.6370   45.4590 H   0  0  0  0  0  0  0  0  0  0  0  0
   44.6180   34.2940   46.2340 H   0  0  0  0  0  0  0  0  0  0  0  0
   44.6720   33.6930   41.2430 O   0  0  0  0  0  0  0  0  0  0  0  0
   43.5740   34.2700   40.6650 C   0  0  0  0  0  0  0  0  0  0  0  0
   43.3020   35.5080   40.5460 O   0  0  0  0  0  0  0  0  0  0  0  0
   42.4260   33.7260   40.0390 O   0  0  0  0  0  0  0  0  0  0  0  0
   42.1620   32.1840   37.9480 O   0  0  0  0  0  0  0  0  0  0  0  0
   42.3310   33.6400   38.3310 P   0  0  0  0  0  0  0  0  0  0  0  0
   40.9560   34.4710   37.8250 O   0  0  0  0  0  0  0  0  0  0  0  0
   40.1530   33.8720   37.9430 H   0  0  0  0  0  0  0  0  0  0  0  0
   43.7250   34.2170   37.5710 O   0  0  0  0  0  0  0  0  0  0  0  0
   43.5520   34.9200   36.8980 H   0  0  0  0  0  0  0  0  0  0  0  0
  1 17  1  0  0  0  0
  1  2  1  0  0  0  0
  2  9  1  0  0  0  0
  3  2  2  0  0  0  0
  3  7  1  0  0  0  0
  4  3  1  0  0  0  0
  5  6  1  0  0  0  0
  5  4  2  0  0  0  0
  6  1  2  0  0  0  0
  8  5  1  0  0  0  0
  9 10  1  0  0  0  0
  9 13  2  0  0  0  0
 10 11  2  0  0  0  0
 11 12  1  0  0  0  0
 11 15  1  0  0  0  0
 12 16  1  0  0  0  0
 13 12  1  0  0  0  0
 14 10  1  0  0  0  0
 18 17  1  0  0  0  0
 19 18  2  0  0  0  0
 20 18  1  0  0  0  0
 21 22  2  0  0  0  0
 22 20  1  0  0  0  0
 23 24  1  0  0  0  0
 23 22  1  0  0  0  0
 25 22  1  0  0  0  0
 26 25  1  0  0  0  0
M  END
>  <minimizedAffinity>
-5.10033321

>  <minimizedRMSD>
0.720914841

$$$$
