
 OpenBabel03252509223D

 25 26  0  0  1  0  0  0  0  0999 V2000
   46.2730   35.0140   42.0640 C   0  0  1  0  0  0  0  0  0  0  0  0
   47.7770   35.3120   41.8370 C   0  0  0  0  0  0  0  0  0  0  0  0
   47.0200   34.1200   41.2560 C   0  0  2  0  0  0  0  0  0  0  0  0
   45.6060   35.8040   41.6790 H   0  0  0  0  0  0  0  0  0  0  0  0
   47.9400   36.2020   41.2460 H   0  0  0  0  0  0  0  0  0  0  0  0
   48.4870   35.1610   42.6460 H   0  0  0  0  0  0  0  0  0  0  0  0
   47.3620   33.1590   41.6960 H   0  0  0  0  0  0  0  0  0  0  0  0
   44.8480   34.9120   45.5290 C   0  0  0  0  0  0  0  0  0  0  0  0
   45.0770   35.3800   44.1910 C   0  0  0  0  0  0  0  0  0  0  0  0
   46.0210   34.6530   43.5150 C   0  0  0  0  0  0  0  0  0  0  0  0
   46.6780   33.5790   44.0810 N   0  0  0  0  0  0  0  0  0  0  0  0
   46.4160   33.1940   45.3380 C   0  0  0  0  0  0  0  0  0  0  0  0
   45.4930   33.8670   46.0670 N   0  0  0  0  0  0  0  0  0  0  0  0
   44.1130   35.4480   46.1140 H   0  0  0  0  0  0  0  0  0  0  0  0
   47.0210   32.3430   45.6050 H   0  0  0  0  0  0  0  0  0  0  0  0
   44.4100   36.4970   43.6340 N   0  0  0  0  0  0  0  0  0  0  0  0
   44.9070   37.3250   44.0310 H   0  0  0  0  0  0  0  0  0  0  0  0
   43.5990   36.5480   42.9720 H   0  0  0  0  0  0  0  0  0  0  0  0
   46.7470   34.0200   39.9270 O   0  0  0  0  0  0  0  0  0  0  0  0
   48.4940   34.6750   38.0300 O   0  0  0  0  0  0  0  0  0  0  0  0
   47.9770   33.6050   38.9140 P   0  0  0  0  0  0  0  0  0  0  0  0
   49.2920   33.0490   39.8460 O   0  0  0  0  0  0  0  0  0  0  0  0
   50.0610   32.8080   39.2720 H   0  0  0  0  0  0  0  0  0  0  0  0
   47.4820   32.2210   38.0450 O   0  0  0  0  0  0  0  0  0  0  0  0
   46.8570   31.6760   38.5410 H   0  0  0  0  0  0  0  0  0  0  0  0
  1  4  1  6  0  0  0
  1 10  1  0  0  0  0
  2  1  1  0  0  0  0
  2  6  1  0  0  0  0
  3  7  1  1  0  0  0
  3  2  1  0  0  0  0
  3  1  1  0  0  0  0
  5  2  1  0  0  0  0
  8 13  1  0  0  0  0
  8 14  1  0  0  0  0
  9  8  2  0  0  0  0
 10 11  2  0  0  0  0
 10  9  1  0  0  0  0
 11 12  1  0  0  0  0
 12 15  1  0  0  0  0
 12 13  2  0  0  0  0
 16 17  1  0  0  0  0
 16  9  1  0  0  0  0
 18 16  1  0  0  0  0
 19  3  1  0  0  0  0
 20 21  2  0  0  0  0
 21 22  1  0  0  0  0
 21 19  1  0  0  0  0
 23 22  1  0  0  0  0
 24 25  1  0  0  0  0
 24 21  1  0  0  0  0
M  END
>  <minimizedAffinity>
-4.65279865

>  <minimizedRMSD>
0.846794248

$$$$
