
 OpenBabel03252508513D

 26 27  0  0  0  0  0  0  0  0999 V2000
   45.9570   34.1840   41.0270 C   0  0  0  0  0  0  0  0  0  0  0  0
   46.5410   34.8120   42.1230 C   0  0  0  0  0  0  0  0  0  0  0  0
   47.8860   35.1830   42.0070 C   0  0  0  0  0  0  0  0  0  0  0  0
   48.5280   34.9100   40.8430 N   0  0  0  0  0  0  0  0  0  0  0  0
   47.9320   34.3050   39.8100 C   0  0  0  0  0  0  0  0  0  0  0  0
   46.6340   33.9400   39.9060 N   0  0  0  0  0  0  0  0  0  0  0  0
   48.3690   35.6760   42.8490 H   0  0  0  0  0  0  0  0  0  0  0  0
   48.5510   34.1480   38.9500 H   0  0  0  0  0  0  0  0  0  0  0  0
   45.7550   35.0580   43.3310 C   0  0  0  0  0  0  0  0  0  0  0  0
   45.0590   36.2230   43.5570 C   0  0  0  0  0  0  0  0  0  0  0  0
   44.4790   36.0190   44.7910 C   0  0  0  0  0  0  0  0  0  0  0  0
   44.8030   34.8010   45.2890 N   0  0  0  0  0  0  0  0  0  0  0  0
   45.5730   34.2450   44.3860 N   0  0  0  0  0  0  0  0  0  0  0  0
   44.9410   37.1140   42.9780 H   0  0  0  0  0  0  0  0  0  0  0  0
   43.8300   36.6550   45.4040 H   0  0  0  0  0  0  0  0  0  0  0  0
   44.5800   34.2840   46.1530 H   0  0  0  0  0  0  0  0  0  0  0  0
   44.6290   33.8120   41.1280 O   0  0  0  0  0  0  0  0  0  0  0  0
   43.5720   34.4290   40.5150 C   0  0  0  0  0  0  0  0  0  0  0  0
   43.1450   35.6160   40.6820 O   0  0  0  0  0  0  0  0  0  0  0  0
   42.6410   33.9890   39.5430 O   0  0  0  0  0  0  0  0  0  0  0  0
   40.3460   35.0890   38.9590 O   0  0  0  0  0  0  0  0  0  0  0  0
   40.9600   34.0440   39.8670 P   0  0  0  0  0  0  0  0  0  0  0  0
   40.2850   32.5520   39.4700 O   0  0  0  0  0  0  0  0  0  0  0  0
   40.1360   32.5180   38.4740 H   0  0  0  0  0  0  0  0  0  0  0  0
   40.6190   34.4800   41.4640 O   0  0  0  0  0  0  0  0  0  0  0  0
   40.0310   33.8400   41.9360 H   0  0  0  0  0  0  0  0  0  0  0  0
  1 17  1  0  0  0  0
  1  2  1  0  0  0  0
  2  9  1  0  0  0  0
  3  2  2  0  0  0  0
  3  7  1  0  0  0  0
  4  3  1  0  0  0  0
  5  6  1  0  0  0  0
  5  4  2  0  0  0  0
  6  1  2  0  0  0  0
  8  5  1  0  0  0  0
  9 10  1  0  0  0  0
  9 13  2  0  0  0  0
 10 11  2  0  0  0  0
 11 12  1  0  0  0  0
 11 15  1  0  0  0  0
 12 16  1  0  0  0  0
 13 12  1  0  0  0  0
 14 10  1  0  0  0  0
 18 19  2  0  0  0  0
 18 17  1  0  0  0  0
 20 22  1  0  0  0  0
 20 18  1  0  0  0  0
 21 22  2  0  0  0  0
 22 25  1  0  0  0  0
 23 22  1  0  0  0  0
 24 23  1  0  0  0  0
 25 26  1  0  0  0  0
M  END
>  <minimizedAffinity>
-4.93261242

>  <minimizedRMSD>
0.605161071

$$$$
