
 OpenBabel03242521443D

 36 37  0  0  1  0  0  0  0  0999 V2000
   45.2330   36.2100   43.9680 C   0  0  0  0  0  0  0  0  0  0  0  0
   46.0400   35.3510   43.2020 C   0  0  0  0  0  0  0  0  0  0  0  0
   46.2850   34.0520   43.6590 C   0  0  0  0  0  0  0  0  0  0  0  0
   45.7260   33.6970   44.8150 N   0  0  0  0  0  0  0  0  0  0  0  0
   44.9520   34.5340   45.5400 C   0  0  0  0  0  0  0  0  0  0  0  0
   44.7000   35.7960   45.1220 N   0  0  0  0  0  0  0  0  0  0  0  0
   46.4360   35.7550   42.2790 H   0  0  0  0  0  0  0  0  0  0  0  0
   44.5300   34.1780   46.4730 H   0  0  0  0  0  0  0  0  0  0  0  0
   48.3530   33.8710   42.2930 C   0  0  2  0  0  0  0  0  0  0  0  0
   47.1240   33.2190   42.8200 C   0  0  2  0  0  0  0  0  0  0  0  0
   46.5050   32.7900   41.6080 O   0  0  0  0  0  0  0  0  0  0  0  0
   47.5340   32.1410   40.9570 C   0  0  0  0  0  0  0  0  0  0  0  0
   48.8480   32.7200   41.3930 C   0  0  1  0  0  0  0  0  0  0  0  0
   48.1140   34.6850   41.5500 H   0  0  0  0  0  0  0  0  0  0  0  0
   47.4300   32.3020   43.3970 H   0  0  0  0  0  0  0  0  0  0  0  0
   47.5090   31.0570   41.1850 H   0  0  0  0  0  0  0  0  0  0  0  0
   47.4390   32.2770   39.8680 H   0  0  0  0  0  0  0  0  0  0  0  0
   49.4410   32.0480   42.0250 H   0  0  0  0  0  0  0  0  0  0  0  0
   49.2540   34.2590   43.2370 O   0  0  0  0  0  0  0  0  0  0  0  0
   49.4980   35.2170   43.1810 H   0  0  0  0  0  0  0  0  0  0  0  0
   49.5920   33.2630   40.3480 O   0  0  0  0  0  0  0  0  0  0  0  0
   50.3240   33.7800   40.7690 H   0  0  0  0  0  0  0  0  0  0  0  0
   44.9950   37.6070   43.4570 C   0  0  0  0  0  0  0  0  0  0  0  0
   44.0300   37.6070   42.9330 H   0  0  0  0  0  0  0  0  0  0  0  0
   45.8260   37.9070   42.8140 H   0  0  0  0  0  0  0  0  0  0  0  0
   45.1630   39.8440   44.7090 C   0  0  0  0  0  0  0  0  0  0  0  0
   45.5280   40.4020   43.6360 O   0  0  0  0  0  0  0  0  0  0  0  0
   44.8850   38.4510   44.6390 N   0  0  0  0  0  0  0  0  0  0  0  0
   44.5660   37.9870   45.5390 H   0  0  0  0  0  0  0  0  0  0  0  0
   45.0310   40.5330   45.9080 O   0  0  0  0  0  0  0  0  0  0  0  0
   44.5690   42.7740   44.5370 O   0  0  0  0  0  0  0  0  0  0  0  0
   44.3130   42.1100   45.8920 P   0  0  0  0  0  0  0  0  0  0  0  0
   44.9130   43.0340   47.1540 O   0  0  0  0  0  0  0  0  0  0  0  0
   45.1680   43.9220   46.7620 H   0  0  0  0  0  0  0  0  0  0  0  0
   42.6470   41.8950   45.9930 O   0  0  0  0  0  0  0  0  0  0  0  0
   42.2080   41.8750   45.0850 H   0  0  0  0  0  0  0  0  0  0  0  0
  1  6  1  0  0  0  0
  2  3  1  0  0  0  0
  2  1  2  0  0  0  0
  3  4  2  0  0  0  0
  4  5  1  0  0  0  0
  5  8  1  0  0  0  0
  6  5  2  0  0  0  0
  7  2  1  0  0  0  0
  9 14  1  6  0  0  0
  9 10  1  0  0  0  0
  9 19  1  0  0  0  0
 10 15  1  1  0  0  0
 10  3  1  0  0  0  0
 11 10  1  0  0  0  0
 12 16  1  0  0  0  0
 12 13  1  0  0  0  0
 12 11  1  0  0  0  0
 13 18  1  1  0  0  0
 13  9  1  0  0  0  0
 17 12  1  0  0  0  0
 20 19  1  0  0  0  0
 21 22  1  0  0  0  0
 21 13  1  0  0  0  0
 23  1  1  0  0  0  0
 23 28  1  0  0  0  0
 24 23  1  0  0  0  0
 25 23  1  0  0  0  0
 26 30  1  0  0  0  0
 27 26  2  0  0  0  0
 28 26  1  0  0  0  0
 28 29  1  0  0  0  0
 31 32  2  0  0  0  0
 32 30  1  0  0  0  0
 32 35  1  0  0  0  0
 32 33  1  0  0  0  0
 34 33  1  0  0  0  0
 36 35  1  0  0  0  0
M  END
>  <minimizedAffinity>
-5.12362719

>  <minimizedRMSD>
0.724469841

$$$$
