
 OpenBabel03252508523D

 26 27  0  0  0  0  0  0  0  0999 V2000
   36.2470   27.2850   39.5350 C   0  0  0  0  0  0  0  0  0  0  0  0
   36.9880   26.8080   40.6120 C   0  0  0  0  0  0  0  0  0  0  0  0
   37.4170   25.4760   40.5550 C   0  0  0  0  0  0  0  0  0  0  0  0
   37.0860   24.7430   39.4620 N   0  0  0  0  0  0  0  0  0  0  0  0
   36.3720   25.2380   38.4450 C   0  0  0  0  0  0  0  0  0  0  0  0
   35.9500   26.5210   38.4850 N   0  0  0  0  0  0  0  0  0  0  0  0
   37.9980   25.0760   41.3840 H   0  0  0  0  0  0  0  0  0  0  0  0
   36.1790   24.5530   37.6430 H   0  0  0  0  0  0  0  0  0  0  0  0
   37.2880   27.6870   41.7420 C   0  0  0  0  0  0  0  0  0  0  0  0
   38.5670   28.0380   42.1090 C   0  0  0  0  0  0  0  0  0  0  0  0
   38.3760   28.8600   43.1990 C   0  0  0  0  0  0  0  0  0  0  0  0
   37.0580   29.0010   43.4810 N   0  0  0  0  0  0  0  0  0  0  0  0
   36.4270   28.2820   42.5840 N   0  0  0  0  0  0  0  0  0  0  0  0
   39.5250   27.7850   41.7070 H   0  0  0  0  0  0  0  0  0  0  0  0
   39.0860   29.3910   43.8430 H   0  0  0  0  0  0  0  0  0  0  0  0
   36.5160   29.5140   44.1920 H   0  0  0  0  0  0  0  0  0  0  0  0
   35.8170   28.5990   39.5780 O   0  0  0  0  0  0  0  0  0  0  0  0
   36.1280   29.5770   38.6730 C   0  0  0  0  0  0  0  0  0  0  0  0
   35.8670   29.6130   37.4270 O   0  0  0  0  0  0  0  0  0  0  0  0
   36.8080   30.8120   38.7970 O   0  0  0  0  0  0  0  0  0  0  0  0
   38.3060   31.3100   40.8770 O   0  0  0  0  0  0  0  0  0  0  0  0
   36.9250   31.5870   40.3200 P   0  0  0  0  0  0  0  0  0  0  0  0
   36.7850   33.2510   40.0900 O   0  0  0  0  0  0  0  0  0  0  0  0
   37.6750   33.6130   39.7890 H   0  0  0  0  0  0  0  0  0  0  0  0
   35.7920   31.0110   41.4320 O   0  0  0  0  0  0  0  0  0  0  0  0
   35.2360   31.7190   41.8400 H   0  0  0  0  0  0  0  0  0  0  0  0
  1 17  1  0  0  0  0
  1  2  1  0  0  0  0
  2  9  1  0  0  0  0
  3  2  2  0  0  0  0
  3  7  1  0  0  0  0
  4  3  1  0  0  0  0
  5  6  1  0  0  0  0
  5  4  2  0  0  0  0
  6  1  2  0  0  0  0
  8  5  1  0  0  0  0
  9 10  1  0  0  0  0
  9 13  2  0  0  0  0
 10 11  2  0  0  0  0
 11 12  1  0  0  0  0
 11 15  1  0  0  0  0
 12 16  1  0  0  0  0
 13 12  1  0  0  0  0
 14 10  1  0  0  0  0
 18 20  1  0  0  0  0
 18 17  1  0  0  0  0
 19 18  2  0  0  0  0
 20 22  1  0  0  0  0
 22 21  2  0  0  0  0
 22 25  1  0  0  0  0
 23 22  1  0  0  0  0
 24 23  1  0  0  0  0
 25 26  1  0  0  0  0
M  END
>  <minimizedAffinity>
-5.16973639

$$$$

 OpenBabel03252508523D

 26 27  0  0  0  0  0  0  0  0999 V2000
   39.4010   28.4610   41.3520 C   0  0  0  0  0  0  0  0  0  0  0  0
   38.1960   28.4140   42.0450 C   0  0  0  0  0  0  0  0  0  0  0  0
   38.1820   27.7180   43.2600 C   0  0  0  0  0  0  0  0  0  0  0  0
   39.3370   27.1400   43.6800 N   0  0  0  0  0  0  0  0  0  0  0  0
   40.4770   27.2080   42.9850 C   0  0  0  0  0  0  0  0  0  0  0  0
   40.5060   27.8750   41.8100 N   0  0  0  0  0  0  0  0  0  0  0  0
   37.2530   27.6650   43.8250 H   0  0  0  0  0  0  0  0  0  0  0  0
   41.3160   26.7080   43.4280 H   0  0  0  0  0  0  0  0  0  0  0  0
   37.0100   29.0740   41.5000 C   0  0  0  0  0  0  0  0  0  0  0  0
   36.0810   28.4320   40.7140 C   0  0  0  0  0  0  0  0  0  0  0  0
   35.1570   29.4170   40.4360 C   0  0  0  0  0  0  0  0  0  0  0  0
   35.5030   30.5910   41.0180 N   0  0  0  0  0  0  0  0  0  0  0  0
   36.6250   30.3520   41.6540 N   0  0  0  0  0  0  0  0  0  0  0  0
   36.0120   27.4260   40.3580 H   0  0  0  0  0  0  0  0  0  0  0  0
   34.2330   29.4030   39.8470 H   0  0  0  0  0  0  0  0  0  0  0  0
   35.0930   31.5360   41.0530 H   0  0  0  0  0  0  0  0  0  0  0  0
   39.4280   29.1450   40.1500 O   0  0  0  0  0  0  0  0  0  0  0  0
   39.8960   30.4170   39.9590 C   0  0  0  0  0  0  0  0  0  0  0  0
   40.7510   30.8260   39.1100 O   0  0  0  0  0  0  0  0  0  0  0  0
   39.6100   31.6470   40.6000 O   0  0  0  0  0  0  0  0  0  0  0  0
   39.4610   34.1590   39.9040 O   0  0  0  0  0  0  0  0  0  0  0  0
   38.7010   32.8530   39.7930 P   0  0  0  0  0  0  0  0  0  0  0  0
   38.6020   32.4510   38.1590 O   0  0  0  0  0  0  0  0  0  0  0  0
   39.4560   32.7290   37.7040 H   0  0  0  0  0  0  0  0  0  0  0  0
   37.1730   33.0830   40.4750 O   0  0  0  0  0  0  0  0  0  0  0  0
   36.4300   33.0060   39.8270 H   0  0  0  0  0  0  0  0  0  0  0  0
  1  6  2  0  0  0  0
  1  2  1  0  0  0  0
  2  3  2  0  0  0  0
  3  4  1  0  0  0  0
  3  7  1  0  0  0  0
  5  8  1  0  0  0  0
  5  4  2  0  0  0  0
  6  5  1  0  0  0  0
  9 13  2  0  0  0  0
  9  2  1  0  0  0  0
 10  9  1  0  0  0  0
 11 10  2  0  0  0  0
 11 12  1  0  0  0  0
 12 16  1  0  0  0  0
 12 13  1  0  0  0  0
 14 10  1  0  0  0  0
 15 11  1  0  0  0  0
 17  1  1  0  0  0  0
 18 17  1  0  0  0  0
 18 20  1  0  0  0  0
 19 18  2  0  0  0  0
 22 21  2  0  0  0  0
 22 25  1  0  0  0  0
 22 20  1  0  0  0  0
 23 22  1  0  0  0  0
 24 23  1  0  0  0  0
 26 25  1  0  0  0  0
M  END
>  <minimizedAffinity>
-4.94790792

$$$$

 OpenBabel03252508523D

 26 27  0  0  0  0  0  0  0  0999 V2000
   36.8680   26.3330   39.9210 C   0  0  0  0  0  0  0  0  0  0  0  0
   37.0480   26.1600   41.2890 C   0  0  0  0  0  0  0  0  0  0  0  0
   36.8960   24.8630   41.7970 C   0  0  0  0  0  0  0  0  0  0  0  0
   36.5870   23.8680   40.9270 N   0  0  0  0  0  0  0  0  0  0  0  0
   36.4220   24.0740   39.6160 C   0  0  0  0  0  0  0  0  0  0  0  0
   36.5650   25.3200   39.1110 N   0  0  0  0  0  0  0  0  0  0  0  0
   37.0320   24.6980   42.8640 H   0  0  0  0  0  0  0  0  0  0  0  0
   36.1800   23.2030   39.0410 H   0  0  0  0  0  0  0  0  0  0  0  0
   37.3800   27.3050   42.1360 C   0  0  0  0  0  0  0  0  0  0  0  0
   38.6380   27.5290   42.6470 C   0  0  0  0  0  0  0  0  0  0  0  0
   38.4910   28.6950   43.3670 C   0  0  0  0  0  0  0  0  0  0  0  0
   37.2180   29.1550   43.3010 N   0  0  0  0  0  0  0  0  0  0  0  0
   36.5720   28.2960   42.5500 N   0  0  0  0  0  0  0  0  0  0  0  0
   39.5560   26.9880   42.5590 H   0  0  0  0  0  0  0  0  0  0  0  0
   39.2050   29.2810   43.9580 H   0  0  0  0  0  0  0  0  0  0  0  0
   36.7160   29.9680   43.6870 H   0  0  0  0  0  0  0  0  0  0  0  0
   37.0140   27.6090   39.4060 O   0  0  0  0  0  0  0  0  0  0  0  0
   36.0110   28.3960   38.9100 C   0  0  0  0  0  0  0  0  0  0  0  0
   34.9380   28.0350   38.3260 O   0  0  0  0  0  0  0  0  0  0  0  0
   35.8270   29.7990   38.8720 O   0  0  0  0  0  0  0  0  0  0  0  0
   36.8160   32.1690   39.3480 O   0  0  0  0  0  0  0  0  0  0  0  0
   36.6400   30.8090   39.9920 P   0  0  0  0  0  0  0  0  0  0  0  0
   35.6630   31.0040   41.3510 O   0  0  0  0  0  0  0  0  0  0  0  0
   34.9690   31.7070   41.1540 H   0  0  0  0  0  0  0  0  0  0  0  0
   38.1710   30.2270   40.4000 O   0  0  0  0  0  0  0  0  0  0  0  0
   38.3150   30.1280   41.3730 H   0  0  0  0  0  0  0  0  0  0  0  0
  1  2  1  0  0  0  0
  2  3  2  0  0  0  0
  2  9  1  0  0  0  0
  3  7  1  0  0  0  0
  4  3  1  0  0  0  0
  5  4  2  0  0  0  0
  6  5  1  0  0  0  0
  6  1  2  0  0  0  0
  8  5  1  0  0  0  0
  9 13  2  0  0  0  0
  9 10  1  0  0  0  0
 10 11  2  0  0  0  0
 11 15  1  0  0  0  0
 12 11  1  0  0  0  0
 12 16  1  0  0  0  0
 13 12  1  0  0  0  0
 14 10  1  0  0  0  0
 17  1  1  0  0  0  0
 18 17  1  0  0  0  0
 19 18  2  0  0  0  0
 20 18  1  0  0  0  0
 20 22  1  0  0  0  0
 21 22  2  0  0  0  0
 22 25  1  0  0  0  0
 22 23  1  0  0  0  0
 24 23  1  0  0  0  0
 25 26  1  0  0  0  0
M  END
>  <minimizedAffinity>
-4.88768005

$$$$

 OpenBabel03252508523D

 26 27  0  0  0  0  0  0  0  0999 V2000
   37.9160   30.0200   38.8030 C   0  0  0  0  0  0  0  0  0  0  0  0
   36.9080   29.3350   39.4740 C   0  0  0  0  0  0  0  0  0  0  0  0
   35.7910   28.9440   38.7250 C   0  0  0  0  0  0  0  0  0  0  0  0
   35.7650   29.2550   37.4040 N   0  0  0  0  0  0  0  0  0  0  0  0
   36.7550   29.9150   36.7940 C   0  0  0  0  0  0  0  0  0  0  0  0
   37.8400   30.2990   37.5030 N   0  0  0  0  0  0  0  0  0  0  0  0
   34.9870   28.4060   39.2240 H   0  0  0  0  0  0  0  0  0  0  0  0
   36.6100   30.0970   35.7480 H   0  0  0  0  0  0  0  0  0  0  0  0
   37.0390   29.0510   40.9020 C   0  0  0  0  0  0  0  0  0  0  0  0
   37.3260   27.8020   41.4030 C   0  0  0  0  0  0  0  0  0  0  0  0
   37.3540   27.9990   42.7670 C   0  0  0  0  0  0  0  0  0  0  0  0
   37.0990   29.2930   43.0800 N   0  0  0  0  0  0  0  0  0  0  0  0
   36.9130   29.9030   41.9340 N   0  0  0  0  0  0  0  0  0  0  0  0
   37.4990   26.8600   40.9280 H   0  0  0  0  0  0  0  0  0  0  0  0
   37.5410   27.3100   43.5990 H   0  0  0  0  0  0  0  0  0  0  0  0
   37.0310   29.8310   43.9570 H   0  0  0  0  0  0  0  0  0  0  0  0
   39.0250   30.4120   39.5310 O   0  0  0  0  0  0  0  0  0  0  0  0
   39.5420   31.6780   39.5890 C   0  0  0  0  0  0  0  0  0  0  0  0
   39.0560   32.7040   40.1640 O   0  0  0  0  0  0  0  0  0  0  0  0
   40.7240   32.2530   39.0610 O   0  0  0  0  0  0  0  0  0  0  0  0
   41.6010   30.8730   37.0250 O   0  0  0  0  0  0  0  0  0  0  0  0
   41.0200   32.2280   37.3740 P   0  0  0  0  0  0  0  0  0  0  0  0
   39.5490   32.3820   36.5660 O   0  0  0  0  0  0  0  0  0  0  0  0
   39.0950   31.4830   36.5440 H   0  0  0  0  0  0  0  0  0  0  0  0
   42.1260   33.4080   36.8900 O   0  0  0  0  0  0  0  0  0  0  0  0
   41.7950   33.9950   36.1680 H   0  0  0  0  0  0  0  0  0  0  0  0
  1  2  1  0  0  0  0
  1 17  1  0  0  0  0
  2  9  1  0  0  0  0
  3  7  1  0  0  0  0
  3  2  2  0  0  0  0
  4  3  1  0  0  0  0
  5  4  2  0  0  0  0
  5  6  1  0  0  0  0
  6  1  2  0  0  0  0
  8  5  1  0  0  0  0
  9 10  1  0  0  0  0
  9 13  2  0  0  0  0
 10 11  2  0  0  0  0
 11 12  1  0  0  0  0
 11 15  1  0  0  0  0
 12 16  1  0  0  0  0
 13 12  1  0  0  0  0
 14 10  1  0  0  0  0
 17 18  1  0  0  0  0
 18 19  2  0  0  0  0
 20 18  1  0  0  0  0
 21 22  2  0  0  0  0
 22 20  1  0  0  0  0
 23 22  1  0  0  0  0
 24 23  1  0  0  0  0
 25 22  1  0  0  0  0
 26 25  1  0  0  0  0
M  END
>  <minimizedAffinity>
-4.88468838

$$$$

 OpenBabel03252508523D

 26 27  0  0  0  0  0  0  0  0999 V2000
   36.9810   27.4150   40.6890 C   0  0  0  0  0  0  0  0  0  0  0  0
   37.6510   26.2170   40.4640 C   0  0  0  0  0  0  0  0  0  0  0  0
   37.3300   25.5130   39.2970 C   0  0  0  0  0  0  0  0  0  0  0  0
   36.3940   26.0410   38.4680 N   0  0  0  0  0  0  0  0  0  0  0  0
   35.7710   27.1980   38.7190 C   0  0  0  0  0  0  0  0  0  0  0  0
   36.0700   27.8890   39.8410 N   0  0  0  0  0  0  0  0  0  0  0  0
   37.8380   24.5720   39.0940 H   0  0  0  0  0  0  0  0  0  0  0  0
   35.0530   27.5020   37.9830 H   0  0  0  0  0  0  0  0  0  0  0  0
   38.6440   25.7400   41.4250 C   0  0  0  0  0  0  0  0  0  0  0  0
   38.3830   24.7690   42.3650 C   0  0  0  0  0  0  0  0  0  0  0  0
   39.5790   24.6400   43.0370 C   0  0  0  0  0  0  0  0  0  0  0  0
   40.5150   25.4840   42.5380 N   0  0  0  0  0  0  0  0  0  0  0  0
   39.9210   26.1340   41.5670 N   0  0  0  0  0  0  0  0  0  0  0  0
   37.5040   24.2030   42.5880 H   0  0  0  0  0  0  0  0  0  0  0  0
   39.8790   23.9950   43.8720 H   0  0  0  0  0  0  0  0  0  0  0  0
   41.5020   25.6880   42.7550 H   0  0  0  0  0  0  0  0  0  0  0  0
   37.2890   28.1210   41.8380 O   0  0  0  0  0  0  0  0  0  0  0  0
   37.9720   29.3050   41.8960 C   0  0  0  0  0  0  0  0  0  0  0  0
   38.6170   29.7980   42.8760 O   0  0  0  0  0  0  0  0  0  0  0  0
   38.1860   30.3330   40.9460 O   0  0  0  0  0  0  0  0  0  0  0  0
   36.6870   31.0450   38.9290 O   0  0  0  0  0  0  0  0  0  0  0  0
   36.8790   31.3010   40.4100 P   0  0  0  0  0  0  0  0  0  0  0  0
   35.4790   30.8060   41.2060 O   0  0  0  0  0  0  0  0  0  0  0  0
   35.1170   29.9860   40.7450 H   0  0  0  0  0  0  0  0  0  0  0  0
   37.1650   32.9530   40.6170 O   0  0  0  0  0  0  0  0  0  0  0  0
   36.4580   33.4210   41.1250 H   0  0  0  0  0  0  0  0  0  0  0  0
  1 17  1  0  0  0  0
  2  1  1  0  0  0  0
  2  9  1  0  0  0  0
  3  2  2  0  0  0  0
  4  5  2  0  0  0  0
  4  3  1  0  0  0  0
  5  6  1  0  0  0  0
  6  1  2  0  0  0  0
  7  3  1  0  0  0  0
  8  5  1  0  0  0  0
  9 13  2  0  0  0  0
  9 10  1  0  0  0  0
 10 14  1  0  0  0  0
 10 11  2  0  0  0  0
 11 15  1  0  0  0  0
 12 16  1  0  0  0  0
 12 11  1  0  0  0  0
 13 12  1  0  0  0  0
 17 18  1  0  0  0  0
 18 19  2  0  0  0  0
 20 18  1  0  0  0  0
 21 22  2  0  0  0  0
 22 25  1  0  0  0  0
 22 20  1  0  0  0  0
 22 23  1  0  0  0  0
 24 23  1  0  0  0  0
 25 26  1  0  0  0  0
M  END
>  <minimizedAffinity>
-4.74307871

$$$$

 OpenBabel03252508523D

 26 27  0  0  0  0  0  0  0  0999 V2000
   40.7390   30.6320   39.3780 C   0  0  0  0  0  0  0  0  0  0  0  0
   40.2850   31.7760   38.7300 C   0  0  0  0  0  0  0  0  0  0  0  0
   40.8500   32.0750   37.4840 C   0  0  0  0  0  0  0  0  0  0  0  0
   41.7970   31.2350   36.9940 N   0  0  0  0  0  0  0  0  0  0  0  0
   42.2080   30.1420   37.6470 C   0  0  0  0  0  0  0  0  0  0  0  0
   41.6710   29.8410   38.8500 N   0  0  0  0  0  0  0  0  0  0  0  0
   40.5140   32.9640   36.9550 H   0  0  0  0  0  0  0  0  0  0  0  0
   42.9610   29.5650   37.1490 H   0  0  0  0  0  0  0  0  0  0  0  0
   39.2580   32.6120   39.3510 C   0  0  0  0  0  0  0  0  0  0  0  0
   39.5440   33.6770   40.1750 C   0  0  0  0  0  0  0  0  0  0  0  0
   38.3010   34.1610   40.5210 C   0  0  0  0  0  0  0  0  0  0  0  0
   37.3140   33.4340   39.9440 N   0  0  0  0  0  0  0  0  0  0  0  0
   37.9220   32.5070   39.2440 N   0  0  0  0  0  0  0  0  0  0  0  0
   40.4680   34.0950   40.5140 H   0  0  0  0  0  0  0  0  0  0  0  0
   37.9980   35.0000   41.1590 H   0  0  0  0  0  0  0  0  0  0  0  0
   36.2840   33.4690   39.9490 H   0  0  0  0  0  0  0  0  0  0  0  0
   40.1880   30.3250   40.6090 O   0  0  0  0  0  0  0  0  0  0  0  0
   39.1720   29.4360   40.8370 C   0  0  0  0  0  0  0  0  0  0  0  0
   39.1740   28.4110   41.5920 O   0  0  0  0  0  0  0  0  0  0  0  0
   37.8480   29.3510   40.3430 O   0  0  0  0  0  0  0  0  0  0  0  0
   35.4470   28.6420   41.0880 O   0  0  0  0  0  0  0  0  0  0  0  0
   36.5180   29.6770   41.3720 P   0  0  0  0  0  0  0  0  0  0  0  0
   37.0120   29.4820   42.9710 O   0  0  0  0  0  0  0  0  0  0  0  0
   37.0020   28.5010   43.1970 H   0  0  0  0  0  0  0  0  0  0  0  0
   35.8470   31.2030   41.1050 O   0  0  0  0  0  0  0  0  0  0  0  0
   35.7820   31.7600   41.9200 H   0  0  0  0  0  0  0  0  0  0  0  0
  1 17  1  0  0  0  0
  2  9  1  0  0  0  0
  2  1  2  0  0  0  0
  3  2  1  0  0  0  0
  4  3  2  0  0  0  0
  4  5  1  0  0  0  0
  5  6  2  0  0  0  0
  6  1  1  0  0  0  0
  7  3  1  0  0  0  0
  8  5  1  0  0  0  0
  9 10  1  0  0  0  0
 10 14  1  0  0  0  0
 10 11  2  0  0  0  0
 11 15  1  0  0  0  0
 12 16  1  0  0  0  0
 12 11  1  0  0  0  0
 13  9  2  0  0  0  0
 13 12  1  0  0  0  0
 17 18  1  0  0  0  0
 18 19  2  0  0  0  0
 20 18  1  0  0  0  0
 20 22  1  0  0  0  0
 21 22  2  0  0  0  0
 22 23  1  0  0  0  0
 23 24  1  0  0  0  0
 25 22  1  0  0  0  0
 25 26  1  0  0  0  0
M  END
>  <minimizedAffinity>
-4.68223

$$$$

 OpenBabel03252508523D

 26 27  0  0  0  0  0  0  0  0999 V2000
   37.7670   26.8590   39.4450 C   0  0  0  0  0  0  0  0  0  0  0  0
   37.3480   26.3930   40.6870 C   0  0  0  0  0  0  0  0  0  0  0  0
   36.9290   25.0590   40.7630 C   0  0  0  0  0  0  0  0  0  0  0  0
   36.9590   24.3130   39.6300 N   0  0  0  0  0  0  0  0  0  0  0  0
   37.3700   24.7960   38.4520 C   0  0  0  0  0  0  0  0  0  0  0  0
   37.7770   26.0820   38.3620 N   0  0  0  0  0  0  0  0  0  0  0  0
   36.5960   24.6670   41.7220 H   0  0  0  0  0  0  0  0  0  0  0  0
   37.3440   24.1020   37.6360 H   0  0  0  0  0  0  0  0  0  0  0  0
   37.3560   27.2850   41.8450 C   0  0  0  0  0  0  0  0  0  0  0  0
   38.3610   27.2960   42.7860 C   0  0  0  0  0  0  0  0  0  0  0  0
   37.9610   28.2720   43.6740 C   0  0  0  0  0  0  0  0  0  0  0  0
   36.7810   28.8230   43.2980 N   0  0  0  0  0  0  0  0  0  0  0  0
   36.4410   28.2080   42.1910 N   0  0  0  0  0  0  0  0  0  0  0  0
   39.2610   26.7280   42.8820 H   0  0  0  0  0  0  0  0  0  0  0  0
   38.4230   28.6530   44.5920 H   0  0  0  0  0  0  0  0  0  0  0  0
   36.1660   29.5580   43.6780 H   0  0  0  0  0  0  0  0  0  0  0  0
   38.1830   28.1750   39.3550 O   0  0  0  0  0  0  0  0  0  0  0  0
   37.5620   29.1690   38.6490 C   0  0  0  0  0  0  0  0  0  0  0  0
   37.6740   29.4480   37.4120 O   0  0  0  0  0  0  0  0  0  0  0  0
   36.6360   30.1720   39.0240 O   0  0  0  0  0  0  0  0  0  0  0  0
   37.0980   32.5730   39.9430 O   0  0  0  0  0  0  0  0  0  0  0  0
   36.9230   31.1410   40.4070 P   0  0  0  0  0  0  0  0  0  0  0  0
   35.5620   31.0830   41.3990 O   0  0  0  0  0  0  0  0  0  0  0  0
   34.8720   31.7230   41.0400 H   0  0  0  0  0  0  0  0  0  0  0  0
   38.3230   30.6910   41.2380 O   0  0  0  0  0  0  0  0  0  0  0  0
   38.1760   30.5060   42.1980 H   0  0  0  0  0  0  0  0  0  0  0  0
  1  2  1  0  0  0  0
  2  3  2  0  0  0  0
  2  9  1  0  0  0  0
  3  7  1  0  0  0  0
  4  3  1  0  0  0  0
  5  4  2  0  0  0  0
  6  5  1  0  0  0  0
  6  1  2  0  0  0  0
  8  5  1  0  0  0  0
  9 13  2  0  0  0  0
  9 10  1  0  0  0  0
 10 14  1  0  0  0  0
 10 11  2  0  0  0  0
 11 15  1  0  0  0  0
 12 11  1  0  0  0  0
 12 16  1  0  0  0  0
 13 12  1  0  0  0  0
 17  1  1  0  0  0  0
 18 20  1  0  0  0  0
 18 17  1  0  0  0  0
 19 18  2  0  0  0  0
 20 22  1  0  0  0  0
 21 22  2  0  0  0  0
 22 25  1  0  0  0  0
 22 23  1  0  0  0  0
 24 23  1  0  0  0  0
 25 26  1  0  0  0  0
M  END
>  <minimizedAffinity>
-4.62317753

$$$$

 OpenBabel03252508523D

 26 27  0  0  0  0  0  0  0  0999 V2000
   35.9190   29.0950   39.6130 C   0  0  0  0  0  0  0  0  0  0  0  0
   36.5120   28.0130   40.2550 C   0  0  0  0  0  0  0  0  0  0  0  0
   36.4490   26.7710   39.6110 C   0  0  0  0  0  0  0  0  0  0  0  0
   35.8190   26.7050   38.4100 N   0  0  0  0  0  0  0  0  0  0  0  0
   35.2600   27.7690   37.8230 C   0  0  0  0  0  0  0  0  0  0  0  0
   35.3130   28.9740   38.4330 N   0  0  0  0  0  0  0  0  0  0  0  0
   36.9040   25.9070   40.0900 H   0  0  0  0  0  0  0  0  0  0  0  0
   34.7940   27.5800   36.8770 H   0  0  0  0  0  0  0  0  0  0  0  0
   37.1660   28.1970   41.5500 C   0  0  0  0  0  0  0  0  0  0  0  0
   36.6200   27.7780   42.7420 C   0  0  0  0  0  0  0  0  0  0  0  0
   37.5610   28.1510   43.6770 C   0  0  0  0  0  0  0  0  0  0  0  0
   38.6190   28.7620   43.0920 N   0  0  0  0  0  0  0  0  0  0  0  0
   38.3530   28.7750   41.8080 N   0  0  0  0  0  0  0  0  0  0  0  0
   35.7030   27.2820   42.9760 H   0  0  0  0  0  0  0  0  0  0  0  0
   37.5870   28.0380   44.7680 H   0  0  0  0  0  0  0  0  0  0  0  0
   39.5020   29.1740   43.4300 H   0  0  0  0  0  0  0  0  0  0  0  0
   35.9740   30.3270   40.2390 O   0  0  0  0  0  0  0  0  0  0  0  0
   36.7340   31.3960   39.8450 C   0  0  0  0  0  0  0  0  0  0  0  0
   37.3030   32.2710   40.5730 O   0  0  0  0  0  0  0  0  0  0  0  0
   37.1240   31.8730   38.5710 O   0  0  0  0  0  0  0  0  0  0  0  0
   38.7520   30.0300   37.6910 O   0  0  0  0  0  0  0  0  0  0  0  0
   38.6840   31.5200   37.9560 P   0  0  0  0  0  0  0  0  0  0  0  0
   38.8750   32.3150   36.4820 O   0  0  0  0  0  0  0  0  0  0  0  0
   38.4210   31.7760   35.7610 H   0  0  0  0  0  0  0  0  0  0  0  0
   39.9160   31.9110   39.0420 O   0  0  0  0  0  0  0  0  0  0  0  0
   40.6100   32.5050   38.6630 H   0  0  0  0  0  0  0  0  0  0  0  0
  1 17  1  0  0  0  0
  1  2  1  0  0  0  0
  2  9  1  0  0  0  0
  3  7  1  0  0  0  0
  3  2  2  0  0  0  0
  4  3  1  0  0  0  0
  5  4  2  0  0  0  0
  5  6  1  0  0  0  0
  6  1  2  0  0  0  0
  8  5  1  0  0  0  0
  9 13  2  0  0  0  0
  9 10  1  0  0  0  0
 10 14  1  0  0  0  0
 10 11  2  0  0  0  0
 11 15  1  0  0  0  0
 12 16  1  0  0  0  0
 12 11  1  0  0  0  0
 13 12  1  0  0  0  0
 18 17  1  0  0  0  0
 18 19  2  0  0  0  0
 20 18  1  0  0  0  0
 21 22  2  0  0  0  0
 22 20  1  0  0  0  0
 22 25  1  0  0  0  0
 23 22  1  0  0  0  0
 24 23  1  0  0  0  0
 26 25  1  0  0  0  0
M  END
>  <minimizedAffinity>
-4.57784653

$$$$

 OpenBabel03252508523D

 26 27  0  0  0  0  0  0  0  0999 V2000
   37.4890   31.2360   38.6440 C   0  0  0  0  0  0  0  0  0  0  0  0
   36.8150   30.0690   38.3010 C   0  0  0  0  0  0  0  0  0  0  0  0
   35.9570   29.5180   39.2620 C   0  0  0  0  0  0  0  0  0  0  0  0
   35.8400   30.1550   40.4550 N   0  0  0  0  0  0  0  0  0  0  0  0
   36.5040   31.2780   40.7480 C   0  0  0  0  0  0  0  0  0  0  0  0
   37.3360   31.8210   39.8310 N   0  0  0  0  0  0  0  0  0  0  0  0
   35.4170   28.6050   39.0210 H   0  0  0  0  0  0  0  0  0  0  0  0
   36.3220   31.6780   41.7250 H   0  0  0  0  0  0  0  0  0  0  0  0
   37.0160   29.4660   36.9840 C   0  0  0  0  0  0  0  0  0  0  0  0
   36.1390   29.6260   35.9360 C   0  0  0  0  0  0  0  0  0  0  0  0
   36.7170   28.9000   34.9170 C   0  0  0  0  0  0  0  0  0  0  0  0
   37.8790   28.3290   35.3200 N   0  0  0  0  0  0  0  0  0  0  0  0
   38.0330   28.6890   36.5720 N   0  0  0  0  0  0  0  0  0  0  0  0
   35.2180   30.1600   35.8450 H   0  0  0  0  0  0  0  0  0  0  0  0
   36.4020   28.7180   33.8830 H   0  0  0  0  0  0  0  0  0  0  0  0
   38.5890   27.7300   34.8750 H   0  0  0  0  0  0  0  0  0  0  0  0
   38.3390   31.7910   37.7050 O   0  0  0  0  0  0  0  0  0  0  0  0
   39.6730   32.0450   37.8780 C   0  0  0  0  0  0  0  0  0  0  0  0
   40.2220   32.8850   38.6620 O   0  0  0  0  0  0  0  0  0  0  0  0
   40.8350   31.4990   37.2830 O   0  0  0  0  0  0  0  0  0  0  0  0
   43.3410   31.5680   36.5500 O   0  0  0  0  0  0  0  0  0  0  0  0
   42.3330   32.3230   37.3930 P   0  0  0  0  0  0  0  0  0  0  0  0
   42.1530   33.8610   36.7290 O   0  0  0  0  0  0  0  0  0  0  0  0
   42.2160   33.7910   35.7260 H   0  0  0  0  0  0  0  0  0  0  0  0
   42.9250   32.3890   38.9730 O   0  0  0  0  0  0  0  0  0  0  0  0
   43.1380   33.3030   39.2830 H   0  0  0  0  0  0  0  0  0  0  0  0
  1  6  1  0  0  0  0
  2  1  2  0  0  0  0
  2  3  1  0  0  0  0
  3  4  2  0  0  0  0
  4  5  1  0  0  0  0
  5  8  1  0  0  0  0
  6  5  2  0  0  0  0
  7  3  1  0  0  0  0
  9  2  1  0  0  0  0
 10  9  1  0  0  0  0
 11 12  1  0  0  0  0
 11 10  2  0  0  0  0
 12 13  1  0  0  0  0
 13  9  2  0  0  0  0
 14 10  1  0  0  0  0
 15 11  1  0  0  0  0
 16 12  1  0  0  0  0
 17 18  1  0  0  0  0
 17  1  1  0  0  0  0
 18 19  2  0  0  0  0
 20 22  1  0  0  0  0
 20 18  1  0  0  0  0
 21 22  2  0  0  0  0
 22 25  1  0  0  0  0
 23 22  1  0  0  0  0
 24 23  1  0  0  0  0
 25 26  1  0  0  0  0
M  END
>  <minimizedAffinity>
-4.56583834

$$$$
