
 OpenBabel03252504133D

 30 31  0  0  0  0  0  0  0  0999 V2000
   46.7810   34.1230   42.9650 C   0  0  0  0  0  0  0  0  0  0  0  0
   45.6500   33.6800   42.3060 C   0  0  0  0  0  0  0  0  0  0  0  0
   44.9200   32.6350   42.9170 C   0  0  0  0  0  0  0  0  0  0  0  0
   45.3570   32.1280   44.1000 N   0  0  0  0  0  0  0  0  0  0  0  0
   46.4740   32.6020   44.7020 C   0  0  0  0  0  0  0  0  0  0  0  0
   47.1780   33.5920   44.1350 N   0  0  0  0  0  0  0  0  0  0  0  0
   44.0190   32.2610   42.4210 H   0  0  0  0  0  0  0  0  0  0  0  0
   47.7690   30.0890   44.9150 F   0  0  0  0  0  0  0  0  0  0  0  0
   47.5750   30.8420   46.0560 C   0  0  0  0  0  0  0  0  0  0  0  0
   46.9470   32.0660   45.9650 C   0  0  0  0  0  0  0  0  0  0  0  0
   46.7920   32.7640   47.1610 C   0  0  0  0  0  0  0  0  0  0  0  0
   47.2490   32.2370   48.3610 C   0  0  0  0  0  0  0  0  0  0  0  0
   47.8750   30.9930   48.3750 C   0  0  0  0  0  0  0  0  0  0  0  0
   48.0530   30.2650   47.2110 C   0  0  0  0  0  0  0  0  0  0  0  0
   46.3050   33.7310   47.1540 H   0  0  0  0  0  0  0  0  0  0  0  0
   47.1410   32.7530   49.2920 H   0  0  0  0  0  0  0  0  0  0  0  0
   48.2240   30.6020   49.3200 H   0  0  0  0  0  0  0  0  0  0  0  0
   48.7200   28.9330   47.2130 C   0  0  0  0  0  0  0  0  0  0  0  0
   49.8480   28.9840   46.4170 F   0  0  0  0  0  0  0  0  0  0  0  0
   47.8190   27.9920   46.7610 F   0  0  0  0  0  0  0  0  0  0  0  0
   49.0320   28.6780   48.5380 F   0  0  0  0  0  0  0  0  0  0  0  0
   45.2460   34.2800   41.0330 C   0  0  0  0  0  0  0  0  0  0  0  0
   44.9280   35.6130   41.2250 F   0  0  0  0  0  0  0  0  0  0  0  0
   46.3390   34.2570   40.1830 F   0  0  0  0  0  0  0  0  0  0  0  0
   44.1950   33.6790   40.4150 F   0  0  0  0  0  0  0  0  0  0  0  0
   47.4870   35.1310   42.3750 O   0  0  0  0  0  0  0  0  0  0  0  0
   48.8020   35.0690   41.8950 C   0  0  0  0  0  0  0  0  0  0  0  0
   49.6480   35.3340   42.9760 F   0  0  0  0  0  0  0  0  0  0  0  0
   49.0300   33.8500   41.3140 F   0  0  0  0  0  0  0  0  0  0  0  0
   49.0180   36.1180   41.0200 F   0  0  0  0  0  0  0  0  0  0  0  0
  1  6  1  0  0  0  0
  2  3  1  0  0  0  0
  2  1  2  0  0  0  0
  3  4  2  0  0  0  0
  4  5  1  0  0  0  0
  5 10  1  0  0  0  0
  6  5  2  0  0  0  0
  7  3  1  0  0  0  0
  8  9  1  0  0  0  0
  9 14  1  0  0  0  0
 10  9  2  0  0  0  0
 10 11  1  0  0  0  0
 11 12  2  0  0  0  0
 12 13  1  0  0  0  0
 12 16  1  0  0  0  0
 13 17  1  0  0  0  0
 14 18  1  0  0  0  0
 14 13  2  0  0  0  0
 15 11  1  0  0  0  0
 18 21  1  0  0  0  0
 19 18  1  0  0  0  0
 20 18  1  0  0  0  0
 22 23  1  0  0  0  0
 22  2  1  0  0  0  0
 24 22  1  0  0  0  0
 25 22  1  0  0  0  0
 26  1  1  0  0  0  0
 27 26  1  0  0  0  0
 27 28  1  0  0  0  0
 29 27  1  0  0  0  0
 30 27  1  0  0  0  0
M  END
>  <minimizedAffinity>
-5.51514912

>  <minimizedRMSD>
0.520429671

$$$$
