
 OpenBabel03252500593D

 33 34  0  0  0  0  0  0  0  0999 V2000
   36.2550   28.6980   40.6760 O   0  0  0  0  0  0  0  0  0  0  0  0
   36.8940   30.0230   41.0760 P   0  0  1  0  0  0  0  0  0  0  0  0
   35.6740   31.1700   41.3250 O   0  0  0  0  0  0  0  0  0  0  0  0
   35.9690   31.9000   41.9340 H   0  0  0  0  0  0  0  0  0  0  0  0
   37.7300   29.8290   42.5290 O   0  0  0  0  0  0  0  0  0  0  0  0
   38.4620   27.7370   43.3400 C   0  0  0  0  0  0  0  0  0  0  0  0
   38.7850   28.9530   42.7610 C   0  0  0  0  0  0  0  0  0  0  0  0
   40.1430   29.1980   42.4590 C   0  0  0  0  0  0  0  0  0  0  0  0
   41.0290   28.2310   42.7550 N   0  0  0  0  0  0  0  0  0  0  0  0
   40.6990   27.0660   43.3130 C   0  0  0  0  0  0  0  0  0  0  0  0
   39.4020   26.8260   43.6030 N   0  0  0  0  0  0  0  0  0  0  0  0
   40.3480   30.1430   42.0160 H   0  0  0  0  0  0  0  0  0  0  0  0
   41.4140   26.2910   43.5490 H   0  0  0  0  0  0  0  0  0  0  0  0
   37.0800   27.4130   43.6790 C   0  0  0  0  0  0  0  0  0  0  0  0
   36.8810   27.3470   44.7540 H   0  0  0  0  0  0  0  0  0  0  0  0
   36.4100   28.2420   43.3070 H   0  0  0  0  0  0  0  0  0  0  0  0
   36.6730   26.1680   42.9230 C   0  0  0  0  0  0  0  0  0  0  0  0
   37.5940   25.5320   42.8240 H   0  0  0  0  0  0  0  0  0  0  0  0
   35.9790   25.5930   43.5710 H   0  0  0  0  0  0  0  0  0  0  0  0
   36.2200   26.3750   41.9340 H   0  0  0  0  0  0  0  0  0  0  0  0
   37.8770   30.6110   39.8240 O   0  0  0  0  0  0  0  0  0  0  0  0
   38.6180   31.7560   40.0410 C   0  0  0  0  0  0  0  0  0  0  0  0
   37.9610   32.9760   40.1310 C   0  0  0  0  0  0  0  0  0  0  0  0
   38.6390   34.1600   40.3470 C   0  0  0  0  0  0  0  0  0  0  0  0
   39.9920   34.1110   40.4720 N   0  0  0  0  0  0  0  0  0  0  0  0
   40.6370   32.9310   40.3860 C   0  0  0  0  0  0  0  0  0  0  0  0
   39.9560   31.7970   40.1770 N   0  0  0  0  0  0  0  0  0  0  0  0
   36.8830   32.9990   40.0280 H   0  0  0  0  0  0  0  0  0  0  0  0
   38.0410   35.0690   40.4030 H   0  0  0  0  0  0  0  0  0  0  0  0
   42.1150   32.9590   40.5350 C   0  0  0  0  0  0  0  0  0  0  0  0
   42.7340   33.6450   39.5310 F   0  0  0  0  0  0  0  0  0  0  0  0
   42.6680   31.6800   40.5630 F   0  0  0  0  0  0  0  0  0  0  0  0
   42.4480   33.5860   41.7410 F   0  0  0  0  0  0  0  0  0  0  0  0
  2  1  2  6  0  0  0
  2  3  1  0  0  0  0
  2  5  1  0  0  0  0
  3  4  1  0  0  0  0
  5  7  1  0  0  0  0
  6 11  1  0  0  0  0
  6 14  1  0  0  0  0
  7  6  2  0  0  0  0
  8  9  2  0  0  0  0
  8  7  1  0  0  0  0
  9 10  1  0  0  0  0
 10 13  1  0  0  0  0
 10 11  2  0  0  0  0
 12  8  1  0  0  0  0
 14 15  1  0  0  0  0
 16 14  1  0  0  0  0
 17 19  1  0  0  0  0
 17 14  1  0  0  0  0
 18 17  1  0  0  0  0
 20 17  1  0  0  0  0
 21 22  1  0  0  0  0
 21  2  1  0  0  0  0
 22 23  2  0  0  0  0
 22 27  1  0  0  0  0
 23 24  1  0  0  0  0
 24 29  1  0  0  0  0
 24 25  2  0  0  0  0
 26 25  1  0  0  0  0
 26 30  1  0  0  0  0
 27 26  2  0  0  0  0
 28 23  1  0  0  0  0
 30 32  1  0  0  0  0
 30 33  1  0  0  0  0
 31 30  1  0  0  0  0
M  END
>  <minimizedAffinity>
-5.31355476

$$$$

 OpenBabel03252500593D

 33 34  0  0  0  0  0  0  0  0999 V2000
   34.1090   29.0760   39.8700 O   0  0  0  0  0  0  0  0  0  0  0  0
   35.5220   29.3480   40.3720 P   0  0  1  0  0  0  0  0  0  0  0  0
   35.5840   30.9080   41.0250 O   0  0  0  0  0  0  0  0  0  0  0  0
   36.3200   31.0050   41.6890 H   0  0  0  0  0  0  0  0  0  0  0  0
   35.9040   28.2550   41.6000 O   0  0  0  0  0  0  0  0  0  0  0  0
   37.7220   26.7700   41.8430 C   0  0  0  0  0  0  0  0  0  0  0  0
   37.1710   28.0100   42.1180 C   0  0  0  0  0  0  0  0  0  0  0  0
   37.9340   28.9100   42.8950 C   0  0  0  0  0  0  0  0  0  0  0  0
   39.1440   28.4990   43.3120 N   0  0  0  0  0  0  0  0  0  0  0  0
   39.6580   27.3000   43.0370 C   0  0  0  0  0  0  0  0  0  0  0  0
   38.9330   26.4350   42.2940 N   0  0  0  0  0  0  0  0  0  0  0  0
   37.4750   29.8510   43.0840 H   0  0  0  0  0  0  0  0  0  0  0  0
   40.6310   26.9740   43.3730 H   0  0  0  0  0  0  0  0  0  0  0  0
   36.9930   25.7870   41.0460 C   0  0  0  0  0  0  0  0  0  0  0  0
   36.0010   26.1150   40.7170 H   0  0  0  0  0  0  0  0  0  0  0  0
   37.5680   25.5930   40.0940 H   0  0  0  0  0  0  0  0  0  0  0  0
   36.9650   24.4750   41.7990 C   0  0  0  0  0  0  0  0  0  0  0  0
   36.9370   24.7290   42.8930 H   0  0  0  0  0  0  0  0  0  0  0  0
   35.9950   23.9820   41.5780 H   0  0  0  0  0  0  0  0  0  0  0  0
   37.8170   23.8080   41.5630 H   0  0  0  0  0  0  0  0  0  0  0  0
   36.6280   29.3070   39.0860 O   0  0  0  0  0  0  0  0  0  0  0  0
   37.5550   30.3250   38.9720 C   0  0  0  0  0  0  0  0  0  0  0  0
   37.9290   30.7560   37.7060 C   0  0  0  0  0  0  0  0  0  0  0  0
   38.8490   31.7690   37.5180 C   0  0  0  0  0  0  0  0  0  0  0  0
   39.3970   32.3500   38.6180 N   0  0  0  0  0  0  0  0  0  0  0  0
   39.0400   31.9370   39.8500 C   0  0  0  0  0  0  0  0  0  0  0  0
   38.1450   30.9530   40.0050 N   0  0  0  0  0  0  0  0  0  0  0  0
   37.4830   30.2830   36.8390 H   0  0  0  0  0  0  0  0  0  0  0  0
   39.0820   32.0410   36.4890 H   0  0  0  0  0  0  0  0  0  0  0  0
   39.6820   32.6210   41.0030 C   0  0  0  0  0  0  0  0  0  0  0  0
   39.0330   33.7640   41.3670 F   0  0  0  0  0  0  0  0  0  0  0  0
   41.0080   32.9630   40.7420 F   0  0  0  0  0  0  0  0  0  0  0  0
   39.6800   31.7640   42.1090 F   0  0  0  0  0  0  0  0  0  0  0  0
  2  1  2  6  0  0  0
  2  3  1  0  0  0  0
  2  5  1  0  0  0  0
  3  4  1  0  0  0  0
  5  7  1  0  0  0  0
  6  7  2  0  0  0  0
  6 11  1  0  0  0  0
  7  8  1  0  0  0  0
  8 12  1  0  0  0  0
  8  9  2  0  0  0  0
 10  9  1  0  0  0  0
 10 13  1  0  0  0  0
 11 10  2  0  0  0  0
 14 17  1  0  0  0  0
 14  6  1  0  0  0  0
 15 14  1  0  0  0  0
 16 14  1  0  0  0  0
 17 18  1  0  0  0  0
 19 17  1  0  0  0  0
 20 17  1  0  0  0  0
 21  2  1  0  0  0  0
 22 21  1  0  0  0  0
 22 27  1  0  0  0  0
 23 22  2  0  0  0  0
 24 23  1  0  0  0  0
 24 25  2  0  0  0  0
 25 26  1  0  0  0  0
 26 27  2  0  0  0  0
 26 30  1  0  0  0  0
 28 23  1  0  0  0  0
 29 24  1  0  0  0  0
 30 31  1  0  0  0  0
 30 33  1  0  0  0  0
 32 30  1  0  0  0  0
M  END
>  <minimizedAffinity>
-5.29955339

$$$$

 OpenBabel03252500593D

 33 34  0  0  0  0  0  0  0  0999 V2000
   34.5430   29.3370   39.6630 O   0  0  0  0  0  0  0  0  0  0  0  0
   35.8240   29.6610   40.4220 P   0  0  1  0  0  0  0  0  0  0  0  0
   35.5560   31.0130   41.4030 O   0  0  0  0  0  0  0  0  0  0  0  0
   36.1820   31.0430   42.1770 H   0  0  0  0  0  0  0  0  0  0  0  0
   36.2270   28.3640   41.4240 O   0  0  0  0  0  0  0  0  0  0  0  0
   37.9540   26.7920   41.7650 C   0  0  0  0  0  0  0  0  0  0  0  0
   37.4880   28.0840   41.9400 C   0  0  0  0  0  0  0  0  0  0  0  0
   38.3230   28.9970   42.6210 C   0  0  0  0  0  0  0  0  0  0  0  0
   39.5150   28.5470   43.0530 N   0  0  0  0  0  0  0  0  0  0  0  0
   39.9460   27.2980   42.8740 C   0  0  0  0  0  0  0  0  0  0  0  0
   39.1520   26.4200   42.2230 N   0  0  0  0  0  0  0  0  0  0  0  0
   37.9280   29.9780   42.7350 H   0  0  0  0  0  0  0  0  0  0  0  0
   40.9040   26.9400   43.2210 H   0  0  0  0  0  0  0  0  0  0  0  0
   37.1470   25.7930   41.0700 C   0  0  0  0  0  0  0  0  0  0  0  0
   36.2210   26.1810   40.6340 H   0  0  0  0  0  0  0  0  0  0  0  0
   37.7380   25.3940   40.1950 H   0  0  0  0  0  0  0  0  0  0  0  0
   36.9210   24.6200   41.9980 C   0  0  0  0  0  0  0  0  0  0  0  0
   36.8730   25.0350   43.0410 H   0  0  0  0  0  0  0  0  0  0  0  0
   35.9090   24.2150   41.7870 H   0  0  0  0  0  0  0  0  0  0  0  0
   37.6940   23.8300   41.9150 H   0  0  0  0  0  0  0  0  0  0  0  0
   37.0680   30.0710   39.3430 O   0  0  0  0  0  0  0  0  0  0  0  0
   37.1060   29.4570   38.1060 C   0  0  0  0  0  0  0  0  0  0  0  0
   37.5950   28.1610   38.0130 C   0  0  0  0  0  0  0  0  0  0  0  0
   37.6610   27.4870   36.8090 C   0  0  0  0  0  0  0  0  0  0  0  0
   37.2310   28.1280   35.6900 N   0  0  0  0  0  0  0  0  0  0  0  0
   36.7550   29.3860   35.7720 C   0  0  0  0  0  0  0  0  0  0  0  0
   36.7010   30.0170   36.9520 N   0  0  0  0  0  0  0  0  0  0  0  0
   37.9340   27.6630   38.9130 H   0  0  0  0  0  0  0  0  0  0  0  0
   38.0600   26.4730   36.8310 H   0  0  0  0  0  0  0  0  0  0  0  0
   36.3030   30.0200   34.5060 C   0  0  0  0  0  0  0  0  0  0  0  0
   36.8400   29.4310   33.4000 F   0  0  0  0  0  0  0  0  0  0  0  0
   36.6220   31.3760   34.4500 F   0  0  0  0  0  0  0  0  0  0  0  0
   34.9110   29.9130   34.4070 F   0  0  0  0  0  0  0  0  0  0  0  0
  2  1  2  6  0  0  0
  2  3  1  0  0  0  0
  2  5  1  0  0  0  0
  3  4  1  0  0  0  0
  5  7  1  0  0  0  0
  6  7  2  0  0  0  0
  6 11  1  0  0  0  0
  7  8  1  0  0  0  0
  8 12  1  0  0  0  0
  8  9  2  0  0  0  0
 10  9  1  0  0  0  0
 10 13  1  0  0  0  0
 11 10  2  0  0  0  0
 14  6  1  0  0  0  0
 14 17  1  0  0  0  0
 15 14  1  0  0  0  0
 16 14  1  0  0  0  0
 17 18  1  0  0  0  0
 19 17  1  0  0  0  0
 20 17  1  0  0  0  0
 21  2  1  0  0  0  0
 22 21  1  0  0  0  0
 23 22  1  0  0  0  0
 23 28  1  0  0  0  0
 24 29  1  0  0  0  0
 24 23  2  0  0  0  0
 25 26  2  0  0  0  0
 25 24  1  0  0  0  0
 26 27  1  0  0  0  0
 27 22  2  0  0  0  0
 30 26  1  0  0  0  0
 31 30  1  0  0  0  0
 32 30  1  0  0  0  0
 33 30  1  0  0  0  0
M  END
>  <minimizedAffinity>
-5.23751354

$$$$

 OpenBabel03252500593D

 33 34  0  0  0  0  0  0  0  0999 V2000
   36.4990   31.2720   38.8730 O   0  0  0  0  0  0  0  0  0  0  0  0
   36.7010   30.4860   40.1640 P   0  0  1  0  0  0  0  0  0  0  0  0
   35.6470   31.0870   41.3440 O   0  0  0  0  0  0  0  0  0  0  0  0
   35.4500   30.4090   42.0470 H   0  0  0  0  0  0  0  0  0  0  0  0
   36.3160   28.8650   39.9010 O   0  0  0  0  0  0  0  0  0  0  0  0
   36.8480   26.5790   40.1510 C   0  0  0  0  0  0  0  0  0  0  0  0
   36.6040   27.8020   40.7520 C   0  0  0  0  0  0  0  0  0  0  0  0
   36.6660   27.8670   42.1610 C   0  0  0  0  0  0  0  0  0  0  0  0
   36.9580   26.7340   42.8230 N   0  0  0  0  0  0  0  0  0  0  0  0
   37.1910   25.5640   42.2270 C   0  0  0  0  0  0  0  0  0  0  0  0
   37.1340   25.4960   40.8790 N   0  0  0  0  0  0  0  0  0  0  0  0
   36.4710   28.8240   42.5820 H   0  0  0  0  0  0  0  0  0  0  0  0
   37.4270   24.6560   42.7610 H   0  0  0  0  0  0  0  0  0  0  0  0
   36.8030   26.4340   38.6990 C   0  0  0  0  0  0  0  0  0  0  0  0
   36.5790   27.3600   38.1580 H   0  0  0  0  0  0  0  0  0  0  0  0
   37.8240   26.1210   38.3330 H   0  0  0  0  0  0  0  0  0  0  0  0
   35.8620   25.3020   38.3530 C   0  0  0  0  0  0  0  0  0  0  0  0
   35.0570   25.2960   39.1360 H   0  0  0  0  0  0  0  0  0  0  0  0
   35.3550   25.5660   37.4010 H   0  0  0  0  0  0  0  0  0  0  0  0
   36.3600   24.3150   38.2810 H   0  0  0  0  0  0  0  0  0  0  0  0
   38.2770   30.7030   40.7520 O   0  0  0  0  0  0  0  0  0  0  0  0
   39.0140   31.7820   40.3020 C   0  0  0  0  0  0  0  0  0  0  0  0
   38.8440   33.0150   40.9160 C   0  0  0  0  0  0  0  0  0  0  0  0
   39.5470   34.1360   40.5180 C   0  0  0  0  0  0  0  0  0  0  0  0
   40.4270   34.0090   39.4900 N   0  0  0  0  0  0  0  0  0  0  0  0
   40.5970   32.8160   38.8880 C   0  0  0  0  0  0  0  0  0  0  0  0
   39.9030   31.7440   39.2940 N   0  0  0  0  0  0  0  0  0  0  0  0
   38.1390   33.1010   41.7340 H   0  0  0  0  0  0  0  0  0  0  0  0
   39.3490   35.0620   41.0580 H   0  0  0  0  0  0  0  0  0  0  0  0
   41.5770   32.7570   37.7720 C   0  0  0  0  0  0  0  0  0  0  0  0
   41.1070   32.0690   36.6920 F   0  0  0  0  0  0  0  0  0  0  0  0
   42.7770   32.1590   38.1540 F   0  0  0  0  0  0  0  0  0  0  0  0
   41.8740   34.0570   37.3480 F   0  0  0  0  0  0  0  0  0  0  0  0
  2  1  2  6  0  0  0
  2 21  1  0  0  0  0
  2  3  1  0  0  0  0
  3  4  1  0  0  0  0
  5  2  1  0  0  0  0
  5  7  1  0  0  0  0
  6  7  2  0  0  0  0
  6 11  1  0  0  0  0
  7  8  1  0  0  0  0
  8 12  1  0  0  0  0
  8  9  2  0  0  0  0
 10 13  1  0  0  0  0
 10  9  1  0  0  0  0
 11 10  2  0  0  0  0
 14  6  1  0  0  0  0
 15 14  1  0  0  0  0
 16 14  1  0  0  0  0
 17 14  1  0  0  0  0
 17 18  1  0  0  0  0
 19 17  1  0  0  0  0
 20 17  1  0  0  0  0
 22 21  1  0  0  0  0
 22 23  1  0  0  0  0
 23 28  1  0  0  0  0
 24 23  2  0  0  0  0
 24 29  1  0  0  0  0
 25 24  1  0  0  0  0
 26 27  1  0  0  0  0
 26 25  2  0  0  0  0
 27 22  2  0  0  0  0
 30 32  1  0  0  0  0
 30 26  1  0  0  0  0
 31 30  1  0  0  0  0
 33 30  1  0  0  0  0
M  END
>  <minimizedAffinity>
-5.21075201

$$$$

 OpenBabel03252500593D

 33 34  0  0  0  0  0  0  0  0999 V2000
   41.7870   28.5750   42.7590 O   0  0  0  0  0  0  0  0  0  0  0  0
   40.3410   28.9430   42.4480 P   0  0  1  0  0  0  0  0  0  0  0  0
   40.0470   28.6750   40.8030 O   0  0  0  0  0  0  0  0  0  0  0  0
   39.0810   28.5230   40.6170 H   0  0  0  0  0  0  0  0  0  0  0  0
   39.3050   27.9450   43.3300 O   0  0  0  0  0  0  0  0  0  0  0  0
   37.5070   26.5830   42.6360 C   0  0  0  0  0  0  0  0  0  0  0  0
   38.8520   26.6860   42.9480 C   0  0  0  0  0  0  0  0  0  0  0  0
   39.6410   25.5190   42.8540 C   0  0  0  0  0  0  0  0  0  0  0  0
   39.0300   24.3850   42.4670 N   0  0  0  0  0  0  0  0  0  0  0  0
   37.7320   24.3050   42.1710 C   0  0  0  0  0  0  0  0  0  0  0  0
   36.9730   25.4180   42.2590 N   0  0  0  0  0  0  0  0  0  0  0  0
   40.6680   25.6420   43.1020 H   0  0  0  0  0  0  0  0  0  0  0  0
   37.2440   23.3930   41.8590 H   0  0  0  0  0  0  0  0  0  0  0  0
   36.6280   27.7460   42.7100 C   0  0  0  0  0  0  0  0  0  0  0  0
   35.7110   27.5860   43.2870 H   0  0  0  0  0  0  0  0  0  0  0  0
   37.1710   28.5770   43.2480 H   0  0  0  0  0  0  0  0  0  0  0  0
   36.3680   28.2490   41.3070 C   0  0  0  0  0  0  0  0  0  0  0  0
   36.3730   27.3500   40.6330 H   0  0  0  0  0  0  0  0  0  0  0  0
   35.3300   28.6420   41.2790 H   0  0  0  0  0  0  0  0  0  0  0  0
   37.0950   29.0110   40.9650 H   0  0  0  0  0  0  0  0  0  0  0  0
   40.0710   30.5930   42.7360 O   0  0  0  0  0  0  0  0  0  0  0  0
   39.8760   31.4340   41.6580 C   0  0  0  0  0  0  0  0  0  0  0  0
   40.9310   32.2240   41.2220 C   0  0  0  0  0  0  0  0  0  0  0  0
   40.8060   33.0870   40.1500 C   0  0  0  0  0  0  0  0  0  0  0  0
   39.6060   33.1530   39.5150 N   0  0  0  0  0  0  0  0  0  0  0  0
   38.5780   32.3890   39.9320 C   0  0  0  0  0  0  0  0  0  0  0  0
   38.7250   31.5600   40.9740 N   0  0  0  0  0  0  0  0  0  0  0  0
   41.8810   32.1620   41.7380 H   0  0  0  0  0  0  0  0  0  0  0  0
   41.6870   33.6690   39.8790 H   0  0  0  0  0  0  0  0  0  0  0  0
   37.2980   32.5160   39.1870 C   0  0  0  0  0  0  0  0  0  0  0  0
   36.3290   31.6780   39.6550 F   0  0  0  0  0  0  0  0  0  0  0  0
   37.4510   32.2530   37.8260 F   0  0  0  0  0  0  0  0  0  0  0  0
   36.8190   33.8250   39.3100 F   0  0  0  0  0  0  0  0  0  0  0  0
  2 21  1  0  0  0  0
  2  1  2  1  0  0  0
  2  5  1  0  0  0  0
  3  2  1  0  0  0  0
  4  3  1  0  0  0  0
  6 14  1  0  0  0  0
  6  7  1  0  0  0  0
  7  5  1  0  0  0  0
  8  7  2  0  0  0  0
  8 12  1  0  0  0  0
  9  8  1  0  0  0  0
 10 11  1  0  0  0  0
 10  9  2  0  0  0  0
 11  6  2  0  0  0  0
 13 10  1  0  0  0  0
 14 16  1  0  0  0  0
 14 15  1  0  0  0  0
 17 14  1  0  0  0  0
 18 17  1  0  0  0  0
 19 17  1  0  0  0  0
 20 17  1  0  0  0  0
 22 21  1  0  0  0  0
 23 22  1  0  0  0  0
 23 28  1  0  0  0  0
 24 23  2  0  0  0  0
 25 26  2  0  0  0  0
 25 24  1  0  0  0  0
 26 27  1  0  0  0  0
 27 22  2  0  0  0  0
 29 24  1  0  0  0  0
 30 33  1  0  0  0  0
 30 31  1  0  0  0  0
 30 26  1  0  0  0  0
 32 30  1  0  0  0  0
M  END
>  <minimizedAffinity>
-5.14497185

$$$$

 OpenBabel03252500593D

 33 34  0  0  0  0  0  0  0  0999 V2000
   34.5440   28.5220   38.3970 O   0  0  0  0  0  0  0  0  0  0  0  0
   35.6380   28.9940   39.3480 P   0  0  1  0  0  0  0  0  0  0  0  0
   34.9790   29.1760   40.8970 O   0  0  0  0  0  0  0  0  0  0  0  0
   35.6720   29.1020   41.6080 H   0  0  0  0  0  0  0  0  0  0  0  0
   36.8510   27.8250   39.4350 O   0  0  0  0  0  0  0  0  0  0  0  0
   37.0840   26.1450   41.0750 C   0  0  0  0  0  0  0  0  0  0  0  0
   36.6850   26.4920   39.7960 C   0  0  0  0  0  0  0  0  0  0  0  0
   36.1500   25.4750   38.9750 C   0  0  0  0  0  0  0  0  0  0  0  0
   36.0650   24.2370   39.4940 N   0  0  0  0  0  0  0  0  0  0  0  0
   36.4550   23.9220   40.7300 C   0  0  0  0  0  0  0  0  0  0  0  0
   36.9670   24.8900   41.5200 N   0  0  0  0  0  0  0  0  0  0  0  0
   35.8560   25.7830   38.0000 H   0  0  0  0  0  0  0  0  0  0  0  0
   36.3850   22.9270   41.1450 H   0  0  0  0  0  0  0  0  0  0  0  0
   37.6460   27.1420   41.9810 C   0  0  0  0  0  0  0  0  0  0  0  0
   38.7020   26.9880   42.2270 H   0  0  0  0  0  0  0  0  0  0  0  0
   37.6060   28.1520   41.4800 H   0  0  0  0  0  0  0  0  0  0  0  0
   36.7610   27.2410   43.2040 C   0  0  0  0  0  0  0  0  0  0  0  0
   36.3340   26.2170   43.3810 H   0  0  0  0  0  0  0  0  0  0  0  0
   37.4150   27.4510   44.0760 H   0  0  0  0  0  0  0  0  0  0  0  0
   35.9590   28.0000   43.1130 H   0  0  0  0  0  0  0  0  0  0  0  0
   36.2210   30.5160   38.8770 O   0  0  0  0  0  0  0  0  0  0  0  0
   37.1550   31.1470   39.6750 C   0  0  0  0  0  0  0  0  0  0  0  0
   37.3930   32.5020   39.4880 C   0  0  0  0  0  0  0  0  0  0  0  0
   38.3130   33.1970   40.2500 C   0  0  0  0  0  0  0  0  0  0  0  0
   38.9970   32.5170   41.2080 N   0  0  0  0  0  0  0  0  0  0  0  0
   38.7710   31.2020   41.3950 C   0  0  0  0  0  0  0  0  0  0  0  0
   37.8740   30.5520   40.6430 N   0  0  0  0  0  0  0  0  0  0  0  0
   36.8400   33.0300   38.7210 H   0  0  0  0  0  0  0  0  0  0  0  0
   38.4340   34.2580   40.0330 H   0  0  0  0  0  0  0  0  0  0  0  0
   39.5570   30.5290   42.4620 C   0  0  0  0  0  0  0  0  0  0  0  0
   40.4210   31.3740   43.0950 F   0  0  0  0  0  0  0  0  0  0  0  0
   40.3080   29.4620   41.9710 F   0  0  0  0  0  0  0  0  0  0  0  0
   38.6840   30.0160   43.4270 F   0  0  0  0  0  0  0  0  0  0  0  0
  2  1  2  6  0  0  0
  2  5  1  0  0  0  0
  2  3  1  0  0  0  0
  3  4  1  0  0  0  0
  5  7  1  0  0  0  0
  6 11  1  0  0  0  0
  6 14  1  0  0  0  0
  7  6  2  0  0  0  0
  8  9  2  0  0  0  0
  8  7  1  0  0  0  0
  9 10  1  0  0  0  0
 10 13  1  0  0  0  0
 10 11  2  0  0  0  0
 12  8  1  0  0  0  0
 14 15  1  0  0  0  0
 14 17  1  0  0  0  0
 16 14  1  0  0  0  0
 17 18  1  0  0  0  0
 17 19  1  0  0  0  0
 20 17  1  0  0  0  0
 21  2  1  0  0  0  0
 21 22  1  0  0  0  0
 22 27  1  0  0  0  0
 23 22  2  0  0  0  0
 23 24  1  0  0  0  0
 24 25  2  0  0  0  0
 25 26  1  0  0  0  0
 26 30  1  0  0  0  0
 27 26  2  0  0  0  0
 28 23  1  0  0  0  0
 29 24  1  0  0  0  0
 30 31  1  0  0  0  0
 30 33  1  0  0  0  0
 32 30  1  0  0  0  0
M  END
>  <minimizedAffinity>
-5.12976551

$$$$

 OpenBabel03252500593D

 33 34  0  0  0  0  0  0  0  0999 V2000
   35.0200   29.4340   39.3930 O   0  0  0  0  0  0  0  0  0  0  0  0
   36.1990   30.2390   39.9270 P   0  0  1  0  0  0  0  0  0  0  0  0
   35.7760   30.9080   41.4230 O   0  0  0  0  0  0  0  0  0  0  0  0
   36.5760   31.1030   41.9830 H   0  0  0  0  0  0  0  0  0  0  0  0
   37.5160   29.2130   40.1710 O   0  0  0  0  0  0  0  0  0  0  0  0
   39.0050   28.8740   41.9700 C   0  0  0  0  0  0  0  0  0  0  0  0
   37.8200   28.5280   41.3430 C   0  0  0  0  0  0  0  0  0  0  0  0
   37.0300   27.5210   41.9390 C   0  0  0  0  0  0  0  0  0  0  0  0
   37.4850   26.9670   43.0770 N   0  0  0  0  0  0  0  0  0  0  0  0
   38.6290   27.3130   43.6660 C   0  0  0  0  0  0  0  0  0  0  0  0
   39.3890   28.2760   43.1010 N   0  0  0  0  0  0  0  0  0  0  0  0
   36.1290   27.2850   41.4260 H   0  0  0  0  0  0  0  0  0  0  0  0
   38.9910   26.8670   44.5810 H   0  0  0  0  0  0  0  0  0  0  0  0
   39.8740   29.9060   41.4130 C   0  0  0  0  0  0  0  0  0  0  0  0
   40.9140   29.5940   41.2690 H   0  0  0  0  0  0  0  0  0  0  0  0
   39.5040   30.1760   40.3810 H   0  0  0  0  0  0  0  0  0  0  0  0
   39.7410   31.1580   42.2510 C   0  0  0  0  0  0  0  0  0  0  0  0
   39.5480   30.8240   43.3070 H   0  0  0  0  0  0  0  0  0  0  0  0
   40.7320   31.6570   42.2700 H   0  0  0  0  0  0  0  0  0  0  0  0
   38.9500   31.8490   41.8980 H   0  0  0  0  0  0  0  0  0  0  0  0
   36.5550   31.5330   38.8890 O   0  0  0  0  0  0  0  0  0  0  0  0
   37.7110   32.2590   39.1030 C   0  0  0  0  0  0  0  0  0  0  0  0
   37.6580   33.3850   39.9120 C   0  0  0  0  0  0  0  0  0  0  0  0
   38.7740   34.1570   40.1690 C   0  0  0  0  0  0  0  0  0  0  0  0
   39.9530   33.7890   39.6010 N   0  0  0  0  0  0  0  0  0  0  0  0
   40.0130   32.6970   38.8140 C   0  0  0  0  0  0  0  0  0  0  0  0
   38.9150   31.9660   38.5810 N   0  0  0  0  0  0  0  0  0  0  0  0
   36.7110   33.6660   40.3580 H   0  0  0  0  0  0  0  0  0  0  0  0
   38.6380   35.0240   40.8160 H   0  0  0  0  0  0  0  0  0  0  0  0
   41.3370   32.3590   38.2300 C   0  0  0  0  0  0  0  0  0  0  0  0
   41.3400   31.1540   37.5900 F   0  0  0  0  0  0  0  0  0  0  0  0
   42.3440   32.3180   39.1940 F   0  0  0  0  0  0  0  0  0  0  0  0
   41.6930   33.3360   37.2930 F   0  0  0  0  0  0  0  0  0  0  0  0
  2  1  2  6  0  0  0
  2  5  1  0  0  0  0
  2  3  1  0  0  0  0
  3  4  1  0  0  0  0
  5  7  1  0  0  0  0
  6 11  1  0  0  0  0
  7  8  1  0  0  0  0
  7  6  2  0  0  0  0
  8  9  2  0  0  0  0
  9 10  1  0  0  0  0
 10 13  1  0  0  0  0
 11 10  2  0  0  0  0
 12  8  1  0  0  0  0
 14  6  1  0  0  0  0
 14 17  1  0  0  0  0
 15 14  1  0  0  0  0
 16 14  1  0  0  0  0
 17 19  1  0  0  0  0
 17 18  1  0  0  0  0
 20 17  1  0  0  0  0
 21 22  1  0  0  0  0
 21  2  1  0  0  0  0
 22 23  1  0  0  0  0
 23 24  2  0  0  0  0
 23 28  1  0  0  0  0
 24 29  1  0  0  0  0
 25 24  1  0  0  0  0
 26 25  2  0  0  0  0
 27 26  1  0  0  0  0
 27 22  2  0  0  0  0
 30 26  1  0  0  0  0
 30 32  1  0  0  0  0
 31 30  1  0  0  0  0
 33 30  1  0  0  0  0
M  END
>  <minimizedAffinity>
-5.10814953

$$$$

 OpenBabel03252500593D

 33 34  0  0  0  0  0  0  0  0999 V2000
   37.3960   31.9580   37.9970 O   0  0  0  0  0  0  0  0  0  0  0  0
   37.9550   31.8440   39.4110 P   0  0  1  0  0  0  0  0  0  0  0  0
   36.8340   32.4940   40.5000 O   0  0  0  0  0  0  0  0  0  0  0  0
   36.9450   32.1200   41.4160 H   0  0  0  0  0  0  0  0  0  0  0  0
   38.1740   30.2170   39.8000 O   0  0  0  0  0  0  0  0  0  0  0  0
   36.9010   28.7290   41.1170 C   0  0  0  0  0  0  0  0  0  0  0  0
   37.9500   29.6310   41.0410 C   0  0  0  0  0  0  0  0  0  0  0  0
   38.6930   29.8750   42.2170 C   0  0  0  0  0  0  0  0  0  0  0  0
   38.3310   29.2140   43.3300 N   0  0  0  0  0  0  0  0  0  0  0  0
   37.3180   28.3490   43.3840 C   0  0  0  0  0  0  0  0  0  0  0  0
   36.6030   28.1110   42.2630 N   0  0  0  0  0  0  0  0  0  0  0  0
   39.4890   30.5740   42.1160 H   0  0  0  0  0  0  0  0  0  0  0  0
   37.0290   27.8190   44.2800 H   0  0  0  0  0  0  0  0  0  0  0  0
   36.0880   28.4250   39.9440 C   0  0  0  0  0  0  0  0  0  0  0  0
   36.6060   28.5550   38.9870 H   0  0  0  0  0  0  0  0  0  0  0  0
   35.8010   27.3330   39.9740 H   0  0  0  0  0  0  0  0  0  0  0  0
   34.7960   29.2060   40.0320 C   0  0  0  0  0  0  0  0  0  0  0  0
   35.0350   30.1720   40.5530 H   0  0  0  0  0  0  0  0  0  0  0  0
   34.5020   29.4860   38.9980 H   0  0  0  0  0  0  0  0  0  0  0  0
   33.9810   28.6620   40.5480 H   0  0  0  0  0  0  0  0  0  0  0  0
   39.3780   32.7560   39.5630 O   0  0  0  0  0  0  0  0  0  0  0  0
   40.4230   32.5100   38.6920 C   0  0  0  0  0  0  0  0  0  0  0  0
   41.2360   33.5650   38.3030 C   0  0  0  0  0  0  0  0  0  0  0  0
   42.2980   33.3920   37.4360 C   0  0  0  0  0  0  0  0  0  0  0  0
   42.5380   32.1430   36.9580 N   0  0  0  0  0  0  0  0  0  0  0  0
   41.7520   31.1130   37.3300 C   0  0  0  0  0  0  0  0  0  0  0  0
   40.7290   31.3080   38.1730 N   0  0  0  0  0  0  0  0  0  0  0  0
   41.0320   34.5550   38.6930 H   0  0  0  0  0  0  0  0  0  0  0  0
   42.8820   34.2770   37.1860 H   0  0  0  0  0  0  0  0  0  0  0  0
   42.0780   29.7780   36.7660 C   0  0  0  0  0  0  0  0  0  0  0  0
   42.7160   29.8540   35.5620 F   0  0  0  0  0  0  0  0  0  0  0  0
   40.9430   28.9890   36.5830 F   0  0  0  0  0  0  0  0  0  0  0  0
   42.9240   29.0960   37.6480 F   0  0  0  0  0  0  0  0  0  0  0  0
  2  1  2  6  0  0  0
  2 21  1  0  0  0  0
  2  5  1  0  0  0  0
  2  3  1  0  0  0  0
  3  4  1  0  0  0  0
  5  7  1  0  0  0  0
  6 11  1  0  0  0  0
  7  6  2  0  0  0  0
  7  8  1  0  0  0  0
  8  9  2  0  0  0  0
  9 10  1  0  0  0  0
 10 13  1  0  0  0  0
 11 10  2  0  0  0  0
 12  8  1  0  0  0  0
 14 16  1  0  0  0  0
 14 17  1  0  0  0  0
 14  6  1  0  0  0  0
 15 14  1  0  0  0  0
 17 20  1  0  0  0  0
 17 18  1  0  0  0  0
 19 17  1  0  0  0  0
 22 21  1  0  0  0  0
 23 22  1  0  0  0  0
 23 28  1  0  0  0  0
 24 23  2  0  0  0  0
 25 26  2  0  0  0  0
 25 24  1  0  0  0  0
 26 27  1  0  0  0  0
 27 22  2  0  0  0  0
 29 24  1  0  0  0  0
 30 26  1  0  0  0  0
 30 33  1  0  0  0  0
 31 30  1  0  0  0  0
 32 30  1  0  0  0  0
M  END
>  <minimizedAffinity>
-5.10777426

$$$$

 OpenBabel03252500593D

 33 34  0  0  0  0  0  0  0  0999 V2000
   37.7310   30.1500   40.1900 O   0  0  0  0  0  0  0  0  0  0  0  0
   36.6490   29.6970   41.1640 P   0  0  1  0  0  0  0  0  0  0  0  0
   35.5720   30.9770   41.4240 O   0  0  0  0  0  0  0  0  0  0  0  0
   34.6760   30.6560   41.7160 H   0  0  0  0  0  0  0  0  0  0  0  0
   35.7820   28.4180   40.4860 O   0  0  0  0  0  0  0  0  0  0  0  0
   36.1620   27.0540   38.5990 C   0  0  0  0  0  0  0  0  0  0  0  0
   35.5760   28.1910   39.1300 C   0  0  0  0  0  0  0  0  0  0  0  0
   34.8290   29.0140   38.2590 C   0  0  0  0  0  0  0  0  0  0  0  0
   34.7370   28.6350   36.9720 N   0  0  0  0  0  0  0  0  0  0  0  0
   35.3080   27.5360   36.4780 C   0  0  0  0  0  0  0  0  0  0  0  0
   36.0240   26.7450   37.3060 N   0  0  0  0  0  0  0  0  0  0  0  0
   34.3960   29.8760   38.7060 H   0  0  0  0  0  0  0  0  0  0  0  0
   35.2320   27.2340   35.4440 H   0  0  0  0  0  0  0  0  0  0  0  0
   36.9490   26.1550   39.4370 C   0  0  0  0  0  0  0  0  0  0  0  0
   38.0050   26.0810   39.1560 H   0  0  0  0  0  0  0  0  0  0  0  0
   36.9550   26.5550   40.4930 H   0  0  0  0  0  0  0  0  0  0  0  0
   36.2540   24.8130   39.4960 C   0  0  0  0  0  0  0  0  0  0  0  0
   35.7440   24.6660   38.5060 H   0  0  0  0  0  0  0  0  0  0  0  0
   37.0400   24.0300   39.5490 H   0  0  0  0  0  0  0  0  0  0  0  0
   35.5370   24.7190   40.3350 H   0  0  0  0  0  0  0  0  0  0  0  0
   37.3280   29.3090   42.6690 O   0  0  0  0  0  0  0  0  0  0  0  0
   38.3220   28.3500   42.7240 C   0  0  0  0  0  0  0  0  0  0  0  0
   39.6360   28.7530   42.9170 C   0  0  0  0  0  0  0  0  0  0  0  0
   40.6780   27.8490   42.9820 C   0  0  0  0  0  0  0  0  0  0  0  0
   40.3900   26.5270   42.8510 N   0  0  0  0  0  0  0  0  0  0  0  0
   39.1170   26.1280   42.6640 C   0  0  0  0  0  0  0  0  0  0  0  0
   38.1240   27.0250   42.6050 N   0  0  0  0  0  0  0  0  0  0  0  0
   39.8500   29.8110   43.0190 H   0  0  0  0  0  0  0  0  0  0  0  0
   41.6770   28.2570   43.1350 H   0  0  0  0  0  0  0  0  0  0  0  0
   38.8810   24.6670   42.5310 C   0  0  0  0  0  0  0  0  0  0  0  0
   37.5590   24.3370   42.5870 F   0  0  0  0  0  0  0  0  0  0  0  0
   39.5330   23.9340   43.5220 F   0  0  0  0  0  0  0  0  0  0  0  0
   39.3730   24.2300   41.2950 F   0  0  0  0  0  0  0  0  0  0  0  0
  2  1  2  6  0  0  0
  2  3  1  0  0  0  0
  2 21  1  0  0  0  0
  3  4  1  0  0  0  0
  5  2  1  0  0  0  0
  6  7  1  0  0  0  0
  6 14  1  0  0  0  0
  7  5  1  0  0  0  0
  8 12  1  0  0  0  0
  8  7  2  0  0  0  0
  9  8  1  0  0  0  0
 10  9  2  0  0  0  0
 10 11  1  0  0  0  0
 11  6  2  0  0  0  0
 13 10  1  0  0  0  0
 14 17  1  0  0  0  0
 14 16  1  0  0  0  0
 15 14  1  0  0  0  0
 17 19  1  0  0  0  0
 17 20  1  0  0  0  0
 18 17  1  0  0  0  0
 21 22  1  0  0  0  0
 22 23  1  0  0  0  0
 23 24  2  0  0  0  0
 23 28  1  0  0  0  0
 24 29  1  0  0  0  0
 25 24  1  0  0  0  0
 26 25  2  0  0  0  0
 27 26  1  0  0  0  0
 27 22  2  0  0  0  0
 30 31  1  0  0  0  0
 30 26  1  0  0  0  0
 30 32  1  0  0  0  0
 33 30  1  0  0  0  0
M  END
>  <minimizedAffinity>
-5.06260443

$$$$
