
 OpenBabel03252501143D

 20 21  0  0  0  0  0  0  0  0999 V2000
   37.6060   28.3620   42.3520 C   0  0  0  0  0  0  0  0  0  0  0  0
   36.8250   29.1500   41.4910 C   0  0  0  0  0  0  0  0  0  0  0  0
   37.3550   30.3990   41.1990 C   0  0  0  0  0  0  0  0  0  0  0  0
   38.5580   30.7890   41.7380 N   0  0  0  0  0  0  0  0  0  0  0  0
   39.2680   29.9780   42.5660 C   0  0  0  0  0  0  0  0  0  0  0  0
   38.7790   28.7550   42.8690 N   0  0  0  0  0  0  0  0  0  0  0  0
   35.8830   28.8240   41.0790 H   0  0  0  0  0  0  0  0  0  0  0  0
   40.1820   30.4600   42.8830 H   0  0  0  0  0  0  0  0  0  0  0  0
   36.6370   31.3440   40.2760 C   0  0  0  0  0  0  0  0  0  0  0  0
   37.4340   32.5980   39.9860 C   0  0  0  0  0  0  0  0  0  0  0  0
   37.1340   31.5080   38.9180 C   0  0  0  0  0  0  0  0  0  0  0  0
   35.5460   31.4910   40.4930 H   0  0  0  0  0  0  0  0  0  0  0  0
   36.8260   33.5100   39.8260 H   0  0  0  0  0  0  0  0  0  0  0  0
   38.4490   32.6700   40.3770 H   0  0  0  0  0  0  0  0  0  0  0  0
   36.5220   31.7900   38.0570 H   0  0  0  0  0  0  0  0  0  0  0  0
   38.0650   30.9290   38.6460 H   0  0  0  0  0  0  0  0  0  0  0  0
   37.0830   27.0110   42.6990 C   0  0  0  0  0  0  0  0  0  0  0  0
   38.1430   26.2850   43.2530 F   0  0  0  0  0  0  0  0  0  0  0  0
   36.6850   26.3920   41.5580 F   0  0  0  0  0  0  0  0  0  0  0  0
   36.1110   27.0910   43.6790 F   0  0  0  0  0  0  0  0  0  0  0  0
  1 17  1  0  0  0  0
  1  6  1  0  0  0  0
  2  1  2  0  0  0  0
  3  2  1  0  0  0  0
  3  4  2  0  0  0  0
  4  5  1  0  0  0  0
  5  6  2  0  0  0  0
  5  8  1  0  0  0  0
  7  2  1  0  0  0  0
  9 12  1  0  0  0  0
  9  3  1  0  0  0  0
 10  9  1  0  0  0  0
 10 14  1  0  0  0  0
 11 10  1  0  0  0  0
 11  9  1  0  0  0  0
 13 10  1  0  0  0  0
 15 11  1  0  0  0  0
 16 11  1  0  0  0  0
 17 18  1  0  0  0  0
 17 20  1  0  0  0  0
 19 17  1  0  0  0  0
M  END
>  <minimizedAffinity>
-4.30029058

$$$$

 OpenBabel03252501143D

 20 21  0  0  0  0  0  0  0  0999 V2000
   36.8140   29.0220   41.5750 C   0  0  0  0  0  0  0  0  0  0  0  0
   36.4890   27.6580   41.4980 C   0  0  0  0  0  0  0  0  0  0  0  0
   37.2350   26.8310   42.3250 C   0  0  0  0  0  0  0  0  0  0  0  0
   38.2100   27.3560   43.1410 N   0  0  0  0  0  0  0  0  0  0  0  0
   38.4770   28.6890   43.1700 C   0  0  0  0  0  0  0  0  0  0  0  0
   37.7680   29.5200   42.3760 N   0  0  0  0  0  0  0  0  0  0  0  0
   35.7200   27.2660   40.8520 H   0  0  0  0  0  0  0  0  0  0  0  0
   39.2720   28.9040   43.8700 H   0  0  0  0  0  0  0  0  0  0  0  0
   36.9850   25.3490   42.3630 C   0  0  0  0  0  0  0  0  0  0  0  0
   36.9150   24.7310   40.9830 C   0  0  0  0  0  0  0  0  0  0  0  0
   38.0640   24.4460   41.9920 C   0  0  0  0  0  0  0  0  0  0  0  0
   36.2030   25.0130   43.0950 H   0  0  0  0  0  0  0  0  0  0  0  0
   36.2240   23.8700   40.8930 H   0  0  0  0  0  0  0  0  0  0  0  0
   37.1310   25.3610   40.1210 H   0  0  0  0  0  0  0  0  0  0  0  0
   38.1800   23.4240   42.3600 H   0  0  0  0  0  0  0  0  0  0  0  0
   39.0320   24.9250   41.6600 H   0  0  0  0  0  0  0  0  0  0  0  0
   36.0430   29.9550   40.7060 C   0  0  0  0  0  0  0  0  0  0  0  0
   35.9300   31.1660   41.3960 F   0  0  0  0  0  0  0  0  0  0  0  0
   34.7990   29.4460   40.5180 F   0  0  0  0  0  0  0  0  0  0  0  0
   36.7330   30.2340   39.5410 F   0  0  0  0  0  0  0  0  0  0  0  0
  1  6  1  0  0  0  0
  2  1  2  0  0  0  0
  2  3  1  0  0  0  0
  3  9  1  0  0  0  0
  3  4  2  0  0  0  0
  4  5  1  0  0  0  0
  5  8  1  0  0  0  0
  6  5  2  0  0  0  0
  7  2  1  0  0  0  0
  9 12  1  0  0  0  0
 10 11  1  0  0  0  0
 10  9  1  0  0  0  0
 11 15  1  0  0  0  0
 11  9  1  0  0  0  0
 13 10  1  0  0  0  0
 14 10  1  0  0  0  0
 16 11  1  0  0  0  0
 17 18  1  0  0  0  0
 17  1  1  0  0  0  0
 19 17  1  0  0  0  0
 20 17  1  0  0  0  0
M  END
>  <minimizedAffinity>
-4.25753927

$$$$

 OpenBabel03252501143D

 20 21  0  0  0  0  0  0  0  0999 V2000
   37.2520   26.8570   41.9520 C   0  0  0  0  0  0  0  0  0  0  0  0
   36.5520   27.7320   41.1050 C   0  0  0  0  0  0  0  0  0  0  0  0
   36.6420   29.0740   41.4470 C   0  0  0  0  0  0  0  0  0  0  0  0
   37.3740   29.4670   42.5430 N   0  0  0  0  0  0  0  0  0  0  0  0
   38.0310   28.5690   43.3240 C   0  0  0  0  0  0  0  0  0  0  0  0
   37.9620   27.2550   43.0180 N   0  0  0  0  0  0  0  0  0  0  0  0
   35.9840   27.4030   40.2500 H   0  0  0  0  0  0  0  0  0  0  0  0
   38.5460   29.0690   44.1320 H   0  0  0  0  0  0  0  0  0  0  0  0
   35.9600   30.1280   40.6200 C   0  0  0  0  0  0  0  0  0  0  0  0
   36.7420   31.4230   40.5600 C   0  0  0  0  0  0  0  0  0  0  0  0
   36.5360   30.4890   39.3330 C   0  0  0  0  0  0  0  0  0  0  0  0
   34.8540   30.2250   40.7840 H   0  0  0  0  0  0  0  0  0  0  0  0
   36.1220   32.3380   40.4900 H   0  0  0  0  0  0  0  0  0  0  0  0
   37.7280   31.4560   41.0230 H   0  0  0  0  0  0  0  0  0  0  0  0
   35.9720   30.8800   38.4830 H   0  0  0  0  0  0  0  0  0  0  0  0
   37.4960   29.9700   39.0450 H   0  0  0  0  0  0  0  0  0  0  0  0
   37.1880   25.4040   41.6310 C   0  0  0  0  0  0  0  0  0  0  0  0
   36.4370   24.7890   42.6380 F   0  0  0  0  0  0  0  0  0  0  0  0
   38.4470   24.8960   41.6580 F   0  0  0  0  0  0  0  0  0  0  0  0
   36.5060   25.1850   40.4480 F   0  0  0  0  0  0  0  0  0  0  0  0
  1  6  1  0  0  0  0
  2  3  1  0  0  0  0
  2  1  2  0  0  0  0
  3  4  2  0  0  0  0
  4  5  1  0  0  0  0
  5  8  1  0  0  0  0
  6  5  2  0  0  0  0
  7  2  1  0  0  0  0
  9 12  1  0  0  0  0
  9  3  1  0  0  0  0
 10  9  1  0  0  0  0
 10 14  1  0  0  0  0
 11 10  1  0  0  0  0
 11  9  1  0  0  0  0
 13 10  1  0  0  0  0
 15 11  1  0  0  0  0
 16 11  1  0  0  0  0
 17 19  1  0  0  0  0
 17  1  1  0  0  0  0
 17 18  1  0  0  0  0
 20 17  1  0  0  0  0
M  END
>  <minimizedAffinity>
-4.21178722

$$$$

 OpenBabel03252501143D

 20 21  0  0  0  0  0  0  0  0999 V2000
   36.0140   29.4580   40.0080 C   0  0  0  0  0  0  0  0  0  0  0  0
   36.1930   28.8110   41.2420 C   0  0  0  0  0  0  0  0  0  0  0  0
   37.2190   29.3210   42.0260 C   0  0  0  0  0  0  0  0  0  0  0  0
   37.9760   30.3790   41.5820 N   0  0  0  0  0  0  0  0  0  0  0  0
   37.7520   30.9630   40.3740 C   0  0  0  0  0  0  0  0  0  0  0  0
   36.7600   30.4900   39.5880 N   0  0  0  0  0  0  0  0  0  0  0  0
   35.5870   27.9820   41.5720 H   0  0  0  0  0  0  0  0  0  0  0  0
   38.4460   31.7740   40.2070 H   0  0  0  0  0  0  0  0  0  0  0  0
   37.5140   28.7410   43.3810 C   0  0  0  0  0  0  0  0  0  0  0  0
   36.6960   27.5030   43.6800 C   0  0  0  0  0  0  0  0  0  0  0  0
   38.2360   27.4800   43.4620 C   0  0  0  0  0  0  0  0  0  0  0  0
   37.6000   29.4890   44.2140 H   0  0  0  0  0  0  0  0  0  0  0  0
   36.4290   27.3670   44.7460 H   0  0  0  0  0  0  0  0  0  0  0  0
   36.0590   27.0990   42.8930 H   0  0  0  0  0  0  0  0  0  0  0  0
   38.8670   27.1720   44.2990 H   0  0  0  0  0  0  0  0  0  0  0  0
   38.5070   26.9890   42.4810 H   0  0  0  0  0  0  0  0  0  0  0  0
   34.9260   28.9500   39.1260 C   0  0  0  0  0  0  0  0  0  0  0  0
   34.9930   29.6690   37.9280 F   0  0  0  0  0  0  0  0  0  0  0  0
   33.7310   29.2050   39.7180 F   0  0  0  0  0  0  0  0  0  0  0  0
   35.1320   27.6230   38.7960 F   0  0  0  0  0  0  0  0  0  0  0  0
  1  2  1  0  0  0  0
  2  7  1  0  0  0  0
  2  3  2  0  0  0  0
  3  9  1  0  0  0  0
  4  3  1  0  0  0  0
  5  4  2  0  0  0  0
  6  1  2  0  0  0  0
  6  5  1  0  0  0  0
  8  5  1  0  0  0  0
  9 11  1  0  0  0  0
  9 10  1  0  0  0  0
  9 12  1  0  0  0  0
 10 13  1  0  0  0  0
 11 10  1  0  0  0  0
 11 15  1  0  0  0  0
 14 10  1  0  0  0  0
 16 11  1  0  0  0  0
 17 19  1  0  0  0  0
 17  1  1  0  0  0  0
 18 17  1  0  0  0  0
 20 17  1  0  0  0  0
M  END
>  <minimizedAffinity>
-4.19664145

$$$$

 OpenBabel03252501143D

 20 21  0  0  0  0  0  0  0  0999 V2000
   37.7390   30.7090   41.0700 C   0  0  0  0  0  0  0  0  0  0  0  0
   37.3610   29.5240   41.7230 C   0  0  0  0  0  0  0  0  0  0  0  0
   38.2620   29.0670   42.6740 C   0  0  0  0  0  0  0  0  0  0  0  0
   39.4250   29.7580   42.9220 N   0  0  0  0  0  0  0  0  0  0  0  0
   39.7330   30.9020   42.2550 C   0  0  0  0  0  0  0  0  0  0  0  0
   38.8760   31.3730   41.3220 N   0  0  0  0  0  0  0  0  0  0  0  0
   36.4430   28.9970   41.5140 H   0  0  0  0  0  0  0  0  0  0  0  0
   40.6830   31.2950   42.5890 H   0  0  0  0  0  0  0  0  0  0  0  0
   37.9810   27.8210   43.4670 C   0  0  0  0  0  0  0  0  0  0  0  0
   36.5080   27.4760   43.5150 C   0  0  0  0  0  0  0  0  0  0  0  0
   37.5640   26.6200   42.7580 C   0  0  0  0  0  0  0  0  0  0  0  0
   38.5410   27.7320   44.4350 H   0  0  0  0  0  0  0  0  0  0  0  0
   36.1740   26.9870   44.4500 H   0  0  0  0  0  0  0  0  0  0  0  0
   35.8150   28.0770   42.9260 H   0  0  0  0  0  0  0  0  0  0  0  0
   37.7350   25.5980   43.1040 H   0  0  0  0  0  0  0  0  0  0  0  0
   37.4420   26.7090   41.6390 H   0  0  0  0  0  0  0  0  0  0  0  0
   36.8070   31.2430   40.0380 C   0  0  0  0  0  0  0  0  0  0  0  0
   36.8370   32.6380   40.1340 F   0  0  0  0  0  0  0  0  0  0  0  0
   35.5490   30.8170   40.3240 F   0  0  0  0  0  0  0  0  0  0  0  0
   37.2440   30.9300   38.7640 F   0  0  0  0  0  0  0  0  0  0  0  0
  1  6  2  0  0  0  0
  1  2  1  0  0  0  0
  2  3  2  0  0  0  0
  3  4  1  0  0  0  0
  3  9  1  0  0  0  0
  5  8  1  0  0  0  0
  5  4  2  0  0  0  0
  6  5  1  0  0  0  0
  7  2  1  0  0  0  0
  9 10  1  0  0  0  0
  9 12  1  0  0  0  0
 10 13  1  0  0  0  0
 11 15  1  0  0  0  0
 11  9  1  0  0  0  0
 11 10  1  0  0  0  0
 14 10  1  0  0  0  0
 16 11  1  0  0  0  0
 17 18  1  0  0  0  0
 17 19  1  0  0  0  0
 17  1  1  0  0  0  0
 20 17  1  0  0  0  0
M  END
>  <minimizedAffinity>
-4.15950489

$$$$

 OpenBabel03252501143D

 20 21  0  0  0  0  0  0  0  0999 V2000
   37.2400   31.3490   40.4880 C   0  0  0  0  0  0  0  0  0  0  0  0
   37.8380   30.7630   41.6150 C   0  0  0  0  0  0  0  0  0  0  0  0
   37.2530   29.5760   42.0360 C   0  0  0  0  0  0  0  0  0  0  0  0
   36.1710   29.0560   41.3660 N   0  0  0  0  0  0  0  0  0  0  0  0
   35.6390   29.6740   40.2780 C   0  0  0  0  0  0  0  0  0  0  0  0
   36.1850   30.8300   39.8430 N   0  0  0  0  0  0  0  0  0  0  0  0
   38.6870   31.1870   42.1260 H   0  0  0  0  0  0  0  0  0  0  0  0
   34.7990   29.1130   39.8930 H   0  0  0  0  0  0  0  0  0  0  0  0
   37.7980   28.8260   43.2180 C   0  0  0  0  0  0  0  0  0  0  0  0
   36.8820   27.7120   43.6790 C   0  0  0  0  0  0  0  0  0  0  0  0
   38.2720   27.4630   43.0250 C   0  0  0  0  0  0  0  0  0  0  0  0
   38.2460   29.4620   44.0270 H   0  0  0  0  0  0  0  0  0  0  0  0
   36.8990   27.5150   44.7690 H   0  0  0  0  0  0  0  0  0  0  0  0
   35.9900   27.4970   43.0900 H   0  0  0  0  0  0  0  0  0  0  0  0
   39.0400   26.9750   43.6290 H   0  0  0  0  0  0  0  0  0  0  0  0
   38.1670   27.0340   41.9860 H   0  0  0  0  0  0  0  0  0  0  0  0
   37.8290   32.6260   39.9940 C   0  0  0  0  0  0  0  0  0  0  0  0
   38.8080   32.2950   39.0520 F   0  0  0  0  0  0  0  0  0  0  0  0
   38.4260   33.2620   41.0350 F   0  0  0  0  0  0  0  0  0  0  0  0
   36.8840   33.3830   39.3240 F   0  0  0  0  0  0  0  0  0  0  0  0
  1  2  1  0  0  0  0
  2  3  2  0  0  0  0
  2  7  1  0  0  0  0
  3  9  1  0  0  0  0
  4  3  1  0  0  0  0
  5  4  2  0  0  0  0
  6  5  1  0  0  0  0
  6  1  2  0  0  0  0
  8  5  1  0  0  0  0
  9 10  1  0  0  0  0
  9 12  1  0  0  0  0
 10 13  1  0  0  0  0
 11  9  1  0  0  0  0
 11 15  1  0  0  0  0
 11 10  1  0  0  0  0
 14 10  1  0  0  0  0
 16 11  1  0  0  0  0
 17  1  1  0  0  0  0
 17 19  1  0  0  0  0
 18 17  1  0  0  0  0
 20 17  1  0  0  0  0
M  END
>  <minimizedAffinity>
-4.12289619

$$$$

 OpenBabel03252501143D

 20 21  0  0  0  0  0  0  0  0999 V2000
   36.7740   28.7130   41.8140 C   0  0  0  0  0  0  0  0  0  0  0  0
   35.9650   28.2080   40.7830 C   0  0  0  0  0  0  0  0  0  0  0  0
   35.5780   29.1420   39.8320 C   0  0  0  0  0  0  0  0  0  0  0  0
   35.9840   30.4520   39.9360 N   0  0  0  0  0  0  0  0  0  0  0  0
   36.7690   30.8780   40.9610 C   0  0  0  0  0  0  0  0  0  0  0  0
   37.1620   29.9930   41.9030 N   0  0  0  0  0  0  0  0  0  0  0  0
   35.6590   27.1760   40.7190 H   0  0  0  0  0  0  0  0  0  0  0  0
   36.9790   31.9350   40.8670 H   0  0  0  0  0  0  0  0  0  0  0  0
   34.7270   28.7420   38.6600 C   0  0  0  0  0  0  0  0  0  0  0  0
   35.2470   29.2820   37.3450 C   0  0  0  0  0  0  0  0  0  0  0  0
   35.2520   27.7700   37.7120 C   0  0  0  0  0  0  0  0  0  0  0  0
   33.6190   28.8210   38.8230 H   0  0  0  0  0  0  0  0  0  0  0  0
   34.4660   29.5220   36.5990 H   0  0  0  0  0  0  0  0  0  0  0  0
   36.1980   29.8150   37.3430 H   0  0  0  0  0  0  0  0  0  0  0  0
   34.6440   27.0960   37.1050 H   0  0  0  0  0  0  0  0  0  0  0  0
   36.3000   27.3950   37.9010 H   0  0  0  0  0  0  0  0  0  0  0  0
   37.2170   27.7520   42.8630 C   0  0  0  0  0  0  0  0  0  0  0  0
   38.1340   28.4230   43.6800 F   0  0  0  0  0  0  0  0  0  0  0  0
   37.8530   26.7130   42.2610 F   0  0  0  0  0  0  0  0  0  0  0  0
   36.1630   27.3850   43.6790 F   0  0  0  0  0  0  0  0  0  0  0  0
  1  6  1  0  0  0  0
  1 17  1  0  0  0  0
  2  1  2  0  0  0  0
  3  4  2  0  0  0  0
  3  2  1  0  0  0  0
  4  5  1  0  0  0  0
  5  6  2  0  0  0  0
  7  2  1  0  0  0  0
  8  5  1  0  0  0  0
  9 12  1  0  0  0  0
  9  3  1  0  0  0  0
 10 11  1  0  0  0  0
 10  9  1  0  0  0  0
 11 16  1  0  0  0  0
 11  9  1  0  0  0  0
 13 10  1  0  0  0  0
 14 10  1  0  0  0  0
 15 11  1  0  0  0  0
 17 20  1  0  0  0  0
 17 18  1  0  0  0  0
 19 17  1  0  0  0  0
M  END
>  <minimizedAffinity>
-4.02572727

$$$$

 OpenBabel03252501143D

 20 21  0  0  0  0  0  0  0  0999 V2000
   36.8050   27.6470   41.5890 C   0  0  0  0  0  0  0  0  0  0  0  0
   36.4080   28.7830   40.8650 C   0  0  0  0  0  0  0  0  0  0  0  0
   36.2650   28.5850   39.4990 C   0  0  0  0  0  0  0  0  0  0  0  0
   36.5060   27.3510   38.9440 N   0  0  0  0  0  0  0  0  0  0  0  0
   36.8890   26.2880   39.7010 C   0  0  0  0  0  0  0  0  0  0  0  0
   37.0370   26.4490   41.0340 N   0  0  0  0  0  0  0  0  0  0  0  0
   36.2230   29.7430   41.3210 H   0  0  0  0  0  0  0  0  0  0  0  0
   37.0290   25.4110   39.0850 H   0  0  0  0  0  0  0  0  0  0  0  0
   35.8260   29.7070   38.6000 C   0  0  0  0  0  0  0  0  0  0  0  0
   36.8400   30.8290   38.5250 C   0  0  0  0  0  0  0  0  0  0  0  0
   36.5090   29.8930   37.3280 C   0  0  0  0  0  0  0  0  0  0  0  0
   34.7530   30.0180   38.7080 H   0  0  0  0  0  0  0  0  0  0  0  0
   36.4070   31.8400   38.3900 H   0  0  0  0  0  0  0  0  0  0  0  0
   37.7960   30.7000   39.0320 H   0  0  0  0  0  0  0  0  0  0  0  0
   36.0620   30.3410   36.4370 H   0  0  0  0  0  0  0  0  0  0  0  0
   37.3640   29.1900   37.1060 H   0  0  0  0  0  0  0  0  0  0  0  0
   36.9740   27.8040   43.0610 C   0  0  0  0  0  0  0  0  0  0  0  0
   38.0570   27.0030   43.4420 F   0  0  0  0  0  0  0  0  0  0  0  0
   35.8560   27.3440   43.6800 F   0  0  0  0  0  0  0  0  0  0  0  0
   37.3180   29.1030   43.3870 F   0  0  0  0  0  0  0  0  0  0  0  0
  1 17  1  0  0  0  0
  2  7  1  0  0  0  0
  2  1  2  0  0  0  0
  3  2  1  0  0  0  0
  4  3  2  0  0  0  0
  4  5  1  0  0  0  0
  5  6  2  0  0  0  0
  6  1  1  0  0  0  0
  8  5  1  0  0  0  0
  9 12  1  0  0  0  0
  9  3  1  0  0  0  0
 10  9  1  0  0  0  0
 10 14  1  0  0  0  0
 11 10  1  0  0  0  0
 11  9  1  0  0  0  0
 13 10  1  0  0  0  0
 15 11  1  0  0  0  0
 16 11  1  0  0  0  0
 17 20  1  0  0  0  0
 17 18  1  0  0  0  0
 17 19  1  0  0  0  0
M  END
>  <minimizedAffinity>
-3.99085021

$$$$

 OpenBabel03252501143D

 20 21  0  0  0  0  0  0  0  0999 V2000
   36.2700   28.3680   40.6300 C   0  0  0  0  0  0  0  0  0  0  0  0
   37.0020   28.5690   41.8110 C   0  0  0  0  0  0  0  0  0  0  0  0
   37.7800   27.4900   42.2070 C   0  0  0  0  0  0  0  0  0  0  0  0
   37.7980   26.3330   41.4650 N   0  0  0  0  0  0  0  0  0  0  0  0
   37.0640   26.2010   40.3280 C   0  0  0  0  0  0  0  0  0  0  0  0
   36.2960   27.2340   39.9160 N   0  0  0  0  0  0  0  0  0  0  0  0
   36.9760   29.4850   42.3790 H   0  0  0  0  0  0  0  0  0  0  0  0
   37.2110   25.2240   39.8900 H   0  0  0  0  0  0  0  0  0  0  0  0
   38.6340   27.5670   43.4420 C   0  0  0  0  0  0  0  0  0  0  0  0
   39.5160   26.3510   43.6220 C   0  0  0  0  0  0  0  0  0  0  0  0
   40.0680   27.7670   43.2920 C   0  0  0  0  0  0  0  0  0  0  0  0
   38.1120   27.9390   44.3640 H   0  0  0  0  0  0  0  0  0  0  0  0
   39.7110   26.0680   44.6750 H   0  0  0  0  0  0  0  0  0  0  0  0
   39.5280   25.5970   42.8350 H   0  0  0  0  0  0  0  0  0  0  0  0
   40.7140   28.2490   44.0290 H   0  0  0  0  0  0  0  0  0  0  0  0
   40.4620   27.8200   42.2350 H   0  0  0  0  0  0  0  0  0  0  0  0
   35.4170   29.4950   40.1600 C   0  0  0  0  0  0  0  0  0  0  0  0
   35.6730   30.5870   40.9960 F   0  0  0  0  0  0  0  0  0  0  0  0
   34.1130   29.1410   40.2970 F   0  0  0  0  0  0  0  0  0  0  0  0
   35.7730   29.8900   38.8830 F   0  0  0  0  0  0  0  0  0  0  0  0
  1  2  1  0  0  0  0
  2  3  2  0  0  0  0
  2  7  1  0  0  0  0
  3  9  1  0  0  0  0
  4  3  1  0  0  0  0
  5  4  2  0  0  0  0
  6  5  1  0  0  0  0
  6  1  2  0  0  0  0
  8  5  1  0  0  0  0
  9 10  1  0  0  0  0
  9 12  1  0  0  0  0
 10 13  1  0  0  0  0
 11  9  1  0  0  0  0
 11 10  1  0  0  0  0
 11 15  1  0  0  0  0
 14 10  1  0  0  0  0
 16 11  1  0  0  0  0
 17 19  1  0  0  0  0
 17  1  1  0  0  0  0
 17 18  1  0  0  0  0
 20 17  1  0  0  0  0
M  END
>  <minimizedAffinity>
-3.97651982

$$$$
