
 OpenBabel03242518583D

 20 21  0  0  1  0  0  0  0  0999 V2000
   36.9150   29.3760   41.8310 C   0  0  1  0  0  0  0  0  0  0  0  0
   35.8540   28.5160   41.1010 C   0  0  0  0  0  0  0  0  0  0  0  0
   37.0990   27.9500   41.6850 C   0  0  2  0  0  0  0  0  0  0  0  0
   36.5950   29.7880   42.8130 H   0  0  0  0  0  0  0  0  0  0  0  0
   34.9240   28.3570   41.6840 H   0  0  0  0  0  0  0  0  0  0  0  0
   35.7480   28.6530   40.0180 H   0  0  0  0  0  0  0  0  0  0  0  0
   37.7940   27.5400   40.8980 H   0  0  0  0  0  0  0  0  0  0  0  0
   37.5810   30.3590   40.9220 C   0  0  0  0  0  0  0  0  0  0  0  0
   36.8980   31.5830   40.6280 C   0  0  0  0  0  0  0  0  0  0  0  0
   37.5470   32.4860   39.7940 C   0  0  0  0  0  0  0  0  0  0  0  0
   38.7950   32.1580   39.3020 N   0  0  0  0  0  0  0  0  0  0  0  0
   39.3870   30.9770   39.6220 C   0  0  0  0  0  0  0  0  0  0  0  0
   38.8040   30.0800   40.4170 N   0  0  0  0  0  0  0  0  0  0  0  0
   35.9340   31.7150   41.0740 H   0  0  0  0  0  0  0  0  0  0  0  0
   37.0460   33.4010   39.5690 H   0  0  0  0  0  0  0  0  0  0  0  0
   40.3720   30.8360   39.1700 H   0  0  0  0  0  0  0  0  0  0  0  0
   37.0290   27.0550   42.8890 C   0  0  0  0  0  0  0  0  0  0  0  0
   36.9310   25.7190   42.5450 F   0  0  0  0  0  0  0  0  0  0  0  0
   38.1630   27.1980   43.6770 F   0  0  0  0  0  0  0  0  0  0  0  0
   35.9390   27.4540   43.6370 F   0  0  0  0  0  0  0  0  0  0  0  0
  1  4  1  1  0  0  0
  2  5  1  0  0  0  0
  2  3  1  0  0  0  0
  2  1  1  0  0  0  0
  3  7  1  6  0  0  0
  3  1  1  0  0  0  0
  3 17  1  0  0  0  0
  6  2  1  0  0  0  0
  8  1  1  0  0  0  0
  9  8  1  0  0  0  0
  9 14  1  0  0  0  0
 10  9  2  0  0  0  0
 11 12  2  0  0  0  0
 11 10  1  0  0  0  0
 12 13  1  0  0  0  0
 13  8  2  0  0  0  0
 15 10  1  0  0  0  0
 16 12  1  0  0  0  0
 17 20  1  0  0  0  0
 17 19  1  0  0  0  0
 18 17  1  0  0  0  0
M  END
>  <minimizedAffinity>
-4.14553213

$$$$

 OpenBabel03242518583D

 20 21  0  0  1  0  0  0  0  0999 V2000
   36.8340   29.4620   41.8780 C   0  0  1  0  0  0  0  0  0  0  0  0
   35.8660   28.5490   41.0860 C   0  0  0  0  0  0  0  0  0  0  0  0
   37.1080   28.0500   41.7330 C   0  0  2  0  0  0  0  0  0  0  0  0
   36.4380   29.8450   42.8440 H   0  0  0  0  0  0  0  0  0  0  0  0
   34.9160   28.3310   41.6160 H   0  0  0  0  0  0  0  0  0  0  0  0
   35.8100   28.6910   39.9990 H   0  0  0  0  0  0  0  0  0  0  0  0
   37.8670   27.6890   40.9820 H   0  0  0  0  0  0  0  0  0  0  0  0
   37.4900   30.4910   41.0130 C   0  0  0  0  0  0  0  0  0  0  0  0
   38.8010   30.2150   40.5090 C   0  0  0  0  0  0  0  0  0  0  0  0
   39.3820   31.1810   39.6940 C   0  0  0  0  0  0  0  0  0  0  0  0
   38.6730   32.3340   39.4210 N   0  0  0  0  0  0  0  0  0  0  0  0
   37.4310   32.5310   39.9340 C   0  0  0  0  0  0  0  0  0  0  0  0
   36.8330   31.6350   40.7200 N   0  0  0  0  0  0  0  0  0  0  0  0
   39.2420   29.2820   40.7950 H   0  0  0  0  0  0  0  0  0  0  0  0
   40.3600   30.9850   39.3130 H   0  0  0  0  0  0  0  0  0  0  0  0
   36.9750   33.4820   39.6450 H   0  0  0  0  0  0  0  0  0  0  0  0
   37.0260   27.1410   42.9250 C   0  0  0  0  0  0  0  0  0  0  0  0
   35.8870   27.3650   43.6790 F   0  0  0  0  0  0  0  0  0  0  0  0
   37.0070   25.8100   42.5310 F   0  0  0  0  0  0  0  0  0  0  0  0
   38.1640   27.3440   43.6800 F   0  0  0  0  0  0  0  0  0  0  0  0
  1  4  1  1  0  0  0
  2  5  1  0  0  0  0
  2  3  1  0  0  0  0
  2  1  1  0  0  0  0
  3  7  1  6  0  0  0
  3  1  1  0  0  0  0
  3 17  1  0  0  0  0
  6  2  1  0  0  0  0
  8  1  1  0  0  0  0
  9 14  1  0  0  0  0
  9  8  2  0  0  0  0
 10  9  1  0  0  0  0
 11 10  2  0  0  0  0
 11 12  1  0  0  0  0
 12 13  2  0  0  0  0
 13  8  1  0  0  0  0
 15 10  1  0  0  0  0
 16 12  1  0  0  0  0
 17 18  1  0  0  0  0
 17 20  1  0  0  0  0
 19 17  1  0  0  0  0
M  END
>  <minimizedAffinity>
-4.14291954

$$$$

 OpenBabel03242518583D

 20 21  0  0  1  0  0  0  0  0999 V2000
   38.0750   28.2560   42.2780 C   0  0  1  0  0  0  0  0  0  0  0  0
   37.3030   28.0330   43.6020 C   0  0  0  0  0  0  0  0  0  0  0  0
   37.0140   27.2770   42.3550 C   0  0  2  0  0  0  0  0  0  0  0  0
   39.1330   27.9150   42.2850 H   0  0  0  0  0  0  0  0  0  0  0  0
   37.8850   27.4950   44.3780 H   0  0  0  0  0  0  0  0  0  0  0  0
   36.6400   28.8380   43.9440 H   0  0  0  0  0  0  0  0  0  0  0  0
   35.9910   27.5070   41.9410 H   0  0  0  0  0  0  0  0  0  0  0  0
   37.8550   29.6210   41.7070 C   0  0  0  0  0  0  0  0  0  0  0  0
   38.9520   30.5410   41.7090 C   0  0  0  0  0  0  0  0  0  0  0  0
   38.7250   31.7970   41.1580 C   0  0  0  0  0  0  0  0  0  0  0  0
   37.4740   32.0830   40.6470 N   0  0  0  0  0  0  0  0  0  0  0  0
   36.4770   31.1610   40.6780 C   0  0  0  0  0  0  0  0  0  0  0  0
   36.6460   29.9450   41.1960 N   0  0  0  0  0  0  0  0  0  0  0  0
   39.8710   30.1950   42.1360 H   0  0  0  0  0  0  0  0  0  0  0  0
   39.5370   32.4900   41.1550 H   0  0  0  0  0  0  0  0  0  0  0  0
   35.5360   31.5080   40.2430 H   0  0  0  0  0  0  0  0  0  0  0  0
   37.3330   25.8120   42.2690 C   0  0  0  0  0  0  0  0  0  0  0  0
   36.3430   25.0250   42.8300 F   0  0  0  0  0  0  0  0  0  0  0  0
   37.4800   25.4150   40.9470 F   0  0  0  0  0  0  0  0  0  0  0  0
   38.5410   25.6150   42.9080 F   0  0  0  0  0  0  0  0  0  0  0  0
  1  4  1  6  0  0  0
  1  3  1  0  0  0  0
  1  2  1  0  0  0  0
  2  6  1  0  0  0  0
  2  5  1  0  0  0  0
  3  7  1  6  0  0  0
  3  2  1  0  0  0  0
  8  9  1  0  0  0  0
  8  1  1  0  0  0  0
  9 14  1  0  0  0  0
 10  9  2  0  0  0  0
 11 12  2  0  0  0  0
 11 10  1  0  0  0  0
 12 13  1  0  0  0  0
 13  8  2  0  0  0  0
 15 10  1  0  0  0  0
 16 12  1  0  0  0  0
 17  3  1  0  0  0  0
 17 18  1  0  0  0  0
 17 20  1  0  0  0  0
 19 17  1  0  0  0  0
M  END
>  <minimizedAffinity>
-4.13322449

$$$$

 OpenBabel03242518583D

 20 21  0  0  1  0  0  0  0  0999 V2000
   38.1830   27.7410   41.8680 C   0  0  1  0  0  0  0  0  0  0  0  0
   37.9680   27.5010   43.3830 C   0  0  0  0  0  0  0  0  0  0  0  0
   37.2270   26.7590   42.3280 C   0  0  2  0  0  0  0  0  0  0  0  0
   39.1640   27.4020   41.4710 H   0  0  0  0  0  0  0  0  0  0  0  0
   38.7980   26.9550   43.8750 H   0  0  0  0  0  0  0  0  0  0  0  0
   37.4850   28.3000   43.9590 H   0  0  0  0  0  0  0  0  0  0  0  0
   36.1250   26.9920   42.3350 H   0  0  0  0  0  0  0  0  0  0  0  0
   37.7670   29.1120   41.4390 C   0  0  0  0  0  0  0  0  0  0  0  0
   36.3890   29.3330   41.1190 C   0  0  0  0  0  0  0  0  0  0  0  0
   36.0270   30.6200   40.7380 C   0  0  0  0  0  0  0  0  0  0  0  0
   37.0010   31.5990   40.6910 N   0  0  0  0  0  0  0  0  0  0  0  0
   38.2920   31.3190   41.0080 C   0  0  0  0  0  0  0  0  0  0  0  0
   38.6870   30.1010   41.3780 N   0  0  0  0  0  0  0  0  0  0  0  0
   35.7350   28.4900   41.1960 H   0  0  0  0  0  0  0  0  0  0  0  0
   35.0020   30.7960   40.4970 H   0  0  0  0  0  0  0  0  0  0  0  0
   38.9650   32.1770   40.9320 H   0  0  0  0  0  0  0  0  0  0  0  0
   37.4870   25.2960   42.1110 C   0  0  0  0  0  0  0  0  0  0  0  0
   37.7200   24.9950   40.7810 F   0  0  0  0  0  0  0  0  0  0  0  0
   38.5990   24.8800   42.8310 F   0  0  0  0  0  0  0  0  0  0  0  0
   36.3900   24.6060   42.5880 F   0  0  0  0  0  0  0  0  0  0  0  0
  1  4  1  6  0  0  0
  1  3  1  0  0  0  0
  1  2  1  0  0  0  0
  2  5  1  0  0  0  0
  2  6  1  0  0  0  0
  3  7  1  6  0  0  0
  3  2  1  0  0  0  0
  8  1  1  0  0  0  0
  9 14  1  0  0  0  0
  9  8  2  0  0  0  0
 10  9  1  0  0  0  0
 11 10  2  0  0  0  0
 11 12  1  0  0  0  0
 12 13  2  0  0  0  0
 13  8  1  0  0  0  0
 15 10  1  0  0  0  0
 16 12  1  0  0  0  0
 17  3  1  0  0  0  0
 17 20  1  0  0  0  0
 17 19  1  0  0  0  0
 18 17  1  0  0  0  0
M  END
>  <minimizedAffinity>
-3.99604201

$$$$

 OpenBabel03242518583D

 20 21  0  0  1  0  0  0  0  0999 V2000
   38.1070   30.0890   40.8910 C   0  0  1  0  0  0  0  0  0  0  0  0
   38.2140   29.7650   42.4010 C   0  0  0  0  0  0  0  0  0  0  0  0
   36.9280   29.7540   41.6560 C   0  0  2  0  0  0  0  0  0  0  0  0
   38.5520   29.3280   40.2130 H   0  0  0  0  0  0  0  0  0  0  0  0
   38.6630   28.7750   42.6200 H   0  0  0  0  0  0  0  0  0  0  0  0
   38.4690   30.5890   43.0790 H   0  0  0  0  0  0  0  0  0  0  0  0
   36.2230   30.5610   42.0050 H   0  0  0  0  0  0  0  0  0  0  0  0
   38.4750   31.5040   40.5790 C   0  0  0  0  0  0  0  0  0  0  0  0
   37.4360   32.4000   40.1700 C   0  0  0  0  0  0  0  0  0  0  0  0
   37.8020   33.7140   39.9020 C   0  0  0  0  0  0  0  0  0  0  0  0
   39.1280   34.0770   40.0420 N   0  0  0  0  0  0  0  0  0  0  0  0
   40.0640   33.1730   40.4340 C   0  0  0  0  0  0  0  0  0  0  0  0
   39.7610   31.9030   40.7020 N   0  0  0  0  0  0  0  0  0  0  0  0
   36.4480   31.9930   40.1010 H   0  0  0  0  0  0  0  0  0  0  0  0
   37.0350   34.3900   39.5960 H   0  0  0  0  0  0  0  0  0  0  0  0
   41.0750   33.5830   40.5070 H   0  0  0  0  0  0  0  0  0  0  0  0
   36.2110   28.4580   41.4070 C   0  0  0  0  0  0  0  0  0  0  0  0
   36.8990   27.6370   40.5310 F   0  0  0  0  0  0  0  0  0  0  0  0
   36.0410   27.7520   42.5900 F   0  0  0  0  0  0  0  0  0  0  0  0
   34.9590   28.7660   40.9130 F   0  0  0  0  0  0  0  0  0  0  0  0
  1  4  1  6  0  0  0
  1  3  1  0  0  0  0
  1  2  1  0  0  0  0
  2  5  1  0  0  0  0
  2  6  1  0  0  0  0
  3  7  1  1  0  0  0
  3  2  1  0  0  0  0
  8 13  1  0  0  0  0
  8  1  1  0  0  0  0
  9  8  2  0  0  0  0
 10 11  2  0  0  0  0
 10  9  1  0  0  0  0
 11 12  1  0  0  0  0
 12 16  1  0  0  0  0
 12 13  2  0  0  0  0
 14  9  1  0  0  0  0
 15 10  1  0  0  0  0
 17  3  1  0  0  0  0
 17 19  1  0  0  0  0
 18 17  1  0  0  0  0
 20 17  1  0  0  0  0
M  END
>  <minimizedAffinity>
-3.96961689

$$$$

 OpenBabel03242518583D

 20 21  0  0  1  0  0  0  0  0999 V2000
   37.5410   30.2420   40.3450 C   0  0  1  0  0  0  0  0  0  0  0  0
   36.1560   30.7420   39.8650 C   0  0  0  0  0  0  0  0  0  0  0  0
   37.1140   31.5960   40.6160 C   0  0  2  0  0  0  0  0  0  0  0  0
   38.2810   30.0550   39.5360 H   0  0  0  0  0  0  0  0  0  0  0  0
   36.0940   30.9190   38.7730 H   0  0  0  0  0  0  0  0  0  0  0  0
   35.2680   30.3210   40.3550 H   0  0  0  0  0  0  0  0  0  0  0  0
   36.7270   31.8810   41.6360 H   0  0  0  0  0  0  0  0  0  0  0  0
   37.4380   29.1570   41.3690 C   0  0  0  0  0  0  0  0  0  0  0  0
   37.2270   27.8160   40.9160 C   0  0  0  0  0  0  0  0  0  0  0  0
   37.1510   26.8240   41.8880 C   0  0  0  0  0  0  0  0  0  0  0  0
   37.2810   27.1830   43.2150 N   0  0  0  0  0  0  0  0  0  0  0  0
   37.4800   28.4780   43.5750 C   0  0  0  0  0  0  0  0  0  0  0  0
   37.5590   29.4630   42.6810 N   0  0  0  0  0  0  0  0  0  0  0  0
   37.1430   27.6710   39.8590 H   0  0  0  0  0  0  0  0  0  0  0  0
   36.9940   25.8210   41.5610 H   0  0  0  0  0  0  0  0  0  0  0  0
   37.5670   28.6320   44.6540 H   0  0  0  0  0  0  0  0  0  0  0  0
   37.7910   32.7500   39.9340 C   0  0  0  0  0  0  0  0  0  0  0  0
   38.7050   32.3350   38.9820 F   0  0  0  0  0  0  0  0  0  0  0  0
   36.8620   33.5580   39.2930 F   0  0  0  0  0  0  0  0  0  0  0  0
   38.4070   33.5050   40.9130 F   0  0  0  0  0  0  0  0  0  0  0  0
  1  4  1  6  0  0  0
  1  3  1  0  0  0  0
  1  8  1  0  0  0  0
  2  1  1  0  0  0  0
  2  6  1  0  0  0  0
  2  3  1  0  0  0  0
  3  7  1  1  0  0  0
  5  2  1  0  0  0  0
  8 13  1  0  0  0  0
  9  8  2  0  0  0  0
  9 10  1  0  0  0  0
 10 11  2  0  0  0  0
 11 12  1  0  0  0  0
 12 16  1  0  0  0  0
 13 12  2  0  0  0  0
 14  9  1  0  0  0  0
 15 10  1  0  0  0  0
 17  3  1  0  0  0  0
 17 20  1  0  0  0  0
 18 17  1  0  0  0  0
 19 17  1  0  0  0  0
M  END
>  <minimizedAffinity>
-3.92396522

$$$$

 OpenBabel03242518583D

 20 21  0  0  1  0  0  0  0  0999 V2000
   36.4170   30.9900   40.0950 C   0  0  1  0  0  0  0  0  0  0  0  0
   36.4800   30.3010   38.7090 C   0  0  0  0  0  0  0  0  0  0  0  0
   36.7170   29.5800   39.9880 C   0  0  2  0  0  0  0  0  0  0  0  0
   35.4020   31.3080   40.4180 H   0  0  0  0  0  0  0  0  0  0  0  0
   35.4890   30.1470   38.2370 H   0  0  0  0  0  0  0  0  0  0  0  0
   37.3130   30.5690   38.0470 H   0  0  0  0  0  0  0  0  0  0  0  0
   37.7780   29.2110   40.0820 H   0  0  0  0  0  0  0  0  0  0  0  0
   37.4890   32.0170   40.2750 C   0  0  0  0  0  0  0  0  0  0  0  0
   38.6900   31.6320   40.9510 C   0  0  0  0  0  0  0  0  0  0  0  0
   39.6770   32.6020   41.0900 C   0  0  0  0  0  0  0  0  0  0  0  0
   39.4460   33.8630   40.5780 N   0  0  0  0  0  0  0  0  0  0  0  0
   38.2800   34.1610   39.9470 C   0  0  0  0  0  0  0  0  0  0  0  0
   37.3060   33.2660   39.7890 N   0  0  0  0  0  0  0  0  0  0  0  0
   38.7440   30.6220   41.3010 H   0  0  0  0  0  0  0  0  0  0  0  0
   40.5760   32.3250   41.5930 H   0  0  0  0  0  0  0  0  0  0  0  0
   38.2190   35.1910   39.5860 H   0  0  0  0  0  0  0  0  0  0  0  0
   35.7270   28.5600   40.4740 C   0  0  0  0  0  0  0  0  0  0  0  0
   36.0200   28.1100   41.7490 F   0  0  0  0  0  0  0  0  0  0  0  0
   34.4460   29.0930   40.5070 F   0  0  0  0  0  0  0  0  0  0  0  0
   35.7310   27.5170   39.5690 F   0  0  0  0  0  0  0  0  0  0  0  0
  1  8  1  0  0  0  0
  1  4  1  1  0  0  0
  2  3  1  0  0  0  0
  2  1  1  0  0  0  0
  3  7  1  1  0  0  0
  3  1  1  0  0  0  0
  3 17  1  0  0  0  0
  5  2  1  0  0  0  0
  6  2  1  0  0  0  0
  8  9  1  0  0  0  0
  9 10  2  0  0  0  0
  9 14  1  0  0  0  0
 10 15  1  0  0  0  0
 11 10  1  0  0  0  0
 12 11  2  0  0  0  0
 13 12  1  0  0  0  0
 13  8  2  0  0  0  0
 16 12  1  0  0  0  0
 17 19  1  0  0  0  0
 17 18  1  0  0  0  0
 20 17  1  0  0  0  0
M  END
>  <minimizedAffinity>
-3.923599

$$$$

 OpenBabel03242518583D

 20 21  0  0  1  0  0  0  0  0999 V2000
   36.7900   29.5110   41.1410 C   0  0  1  0  0  0  0  0  0  0  0  0
   35.4680   28.7420   40.9040 C   0  0  0  0  0  0  0  0  0  0  0  0
   36.7610   28.0670   41.1910 C   0  0  2  0  0  0  0  0  0  0  0  0
   36.8360   30.0890   42.0910 H   0  0  0  0  0  0  0  0  0  0  0  0
   34.7510   28.8060   41.7470 H   0  0  0  0  0  0  0  0  0  0  0  0
   35.0490   28.7560   39.8900 H   0  0  0  0  0  0  0  0  0  0  0  0
   37.1300   27.4570   40.3180 H   0  0  0  0  0  0  0  0  0  0  0  0
   37.2490   30.2550   39.9280 C   0  0  0  0  0  0  0  0  0  0  0  0
   36.8990   31.6380   39.8080 C   0  0  0  0  0  0  0  0  0  0  0  0
   37.3520   32.3090   38.6780 C   0  0  0  0  0  0  0  0  0  0  0  0
   38.1030   31.6160   37.7480 N   0  0  0  0  0  0  0  0  0  0  0  0
   38.3990   30.3020   37.9260 C   0  0  0  0  0  0  0  0  0  0  0  0
   37.9870   29.6160   38.9920 N   0  0  0  0  0  0  0  0  0  0  0  0
   36.3120   32.0570   40.5980 H   0  0  0  0  0  0  0  0  0  0  0  0
   37.0960   33.3410   38.5780 H   0  0  0  0  0  0  0  0  0  0  0  0
   38.9990   29.8680   37.1220 H   0  0  0  0  0  0  0  0  0  0  0  0
   36.9670   27.3540   42.4960 C   0  0  0  0  0  0  0  0  0  0  0  0
   35.9160   27.5500   43.3730 F   0  0  0  0  0  0  0  0  0  0  0  0
   37.0910   25.9850   42.2970 F   0  0  0  0  0  0  0  0  0  0  0  0
   38.1520   27.8130   43.0350 F   0  0  0  0  0  0  0  0  0  0  0  0
  1  3  1  0  0  0  0
  1  4  1  1  0  0  0
  2  1  1  0  0  0  0
  2  3  1  0  0  0  0
  2  5  1  0  0  0  0
  3  7  1  6  0  0  0
  3 17  1  0  0  0  0
  6  2  1  0  0  0  0
  8  1  1  0  0  0  0
  9  8  1  0  0  0  0
  9 14  1  0  0  0  0
 10  9  2  0  0  0  0
 11 12  2  0  0  0  0
 11 10  1  0  0  0  0
 12 13  1  0  0  0  0
 13  8  2  0  0  0  0
 15 10  1  0  0  0  0
 16 12  1  0  0  0  0
 17 20  1  0  0  0  0
 17 18  1  0  0  0  0
 19 17  1  0  0  0  0
M  END
>  <minimizedAffinity>
-3.92280316

$$$$

 OpenBabel03242518583D

 20 21  0  0  1  0  0  0  0  0999 V2000
   38.3520   29.1300   41.5300 C   0  0  1  0  0  0  0  0  0  0  0  0
   38.7850   29.2390   43.0130 C   0  0  0  0  0  0  0  0  0  0  0  0
   37.4240   28.8140   42.5920 C   0  0  2  0  0  0  0  0  0  0  0  0
   38.8280   28.3040   40.9590 H   0  0  0  0  0  0  0  0  0  0  0  0
   39.4700   28.4320   43.3430 H   0  0  0  0  0  0  0  0  0  0  0  0
   38.9660   30.2430   43.4160 H   0  0  0  0  0  0  0  0  0  0  0  0
   36.6300   29.5540   42.8980 H   0  0  0  0  0  0  0  0  0  0  0  0
   38.3420   30.4540   40.8360 C   0  0  0  0  0  0  0  0  0  0  0  0
   39.5590   30.9150   40.2380 C   0  0  0  0  0  0  0  0  0  0  0  0
   39.5180   32.1410   39.5850 C   0  0  0  0  0  0  0  0  0  0  0  0
   38.3250   32.8360   39.5480 N   0  0  0  0  0  0  0  0  0  0  0  0
   37.2060   32.3390   40.1380 C   0  0  0  0  0  0  0  0  0  0  0  0
   37.1960   31.1690   40.7760 N   0  0  0  0  0  0  0  0  0  0  0  0
   40.4150   30.2800   40.3380 H   0  0  0  0  0  0  0  0  0  0  0  0
   40.4200   32.4940   39.1360 H   0  0  0  0  0  0  0  0  0  0  0  0
   36.3270   32.9820   40.0390 H   0  0  0  0  0  0  0  0  0  0  0  0
   36.9760   27.3960   42.8050 C   0  0  0  0  0  0  0  0  0  0  0  0
   36.6340   26.7700   41.6190 F   0  0  0  0  0  0  0  0  0  0  0  0
   37.9820   26.6450   43.3960 F   0  0  0  0  0  0  0  0  0  0  0  0
   35.9020   27.4280   43.6730 F   0  0  0  0  0  0  0  0  0  0  0  0
  1  4  1  6  0  0  0
  1  3  1  0  0  0  0
  1  2  1  0  0  0  0
  2  5  1  0  0  0  0
  2  6  1  0  0  0  0
  3 17  1  0  0  0  0
  3  7  1  1  0  0  0
  3  2  1  0  0  0  0
  8  1  1  0  0  0  0
  9 14  1  0  0  0  0
  9  8  2  0  0  0  0
 10  9  1  0  0  0  0
 11 10  2  0  0  0  0
 11 12  1  0  0  0  0
 12 13  2  0  0  0  0
 13  8  1  0  0  0  0
 15 10  1  0  0  0  0
 16 12  1  0  0  0  0
 17 19  1  0  0  0  0
 17 20  1  0  0  0  0
 18 17  1  0  0  0  0
M  END
>  <minimizedAffinity>
-3.92181349

$$$$
