
 OpenBabel03252507523D

 26 27  0  0  1  0  0  0  0  0999 V2000
   37.2990   29.3400   42.3730 C   0  0  2  0  0  0  0  0  0  0  0  0
   38.5020   28.8110   43.0830 C   0  0  0  0  0  0  0  0  0  0  0  0
   37.9160   27.5300   43.6800 C   0  0  0  0  0  0  0  0  0  0  0  0
   36.8660   27.0730   42.6930 C   0  0  1  0  0  0  0  0  0  0  0  0
   36.8750   28.0990   41.5860 C   0  0  0  0  0  0  0  0  0  0  0  0
   36.4910   29.6090   43.0520 H   0  0  0  0  0  0  0  0  0  0  0  0
   38.7160   29.4940   43.9270 H   0  0  0  0  0  0  0  0  0  0  0  0
   39.3430   28.6380   42.4150 H   0  0  0  0  0  0  0  0  0  0  0  0
   38.7740   26.8050   43.7410 H   0  0  0  0  0  0  0  0  0  0  0  0
   37.5100   27.6710   44.6780 H   0  0  0  0  0  0  0  0  0  0  0  0
   35.9030   27.0450   43.2120 H   0  0  0  0  0  0  0  0  0  0  0  0
   37.6130   27.8640   40.7950 H   0  0  0  0  0  0  0  0  0  0  0  0
   35.8340   28.1980   41.2210 H   0  0  0  0  0  0  0  0  0  0  0  0
   36.9700   32.1120   39.8250 C   0  0  0  0  0  0  0  0  0  0  0  0
   36.5840   31.0230   40.6300 C   0  0  0  0  0  0  0  0  0  0  0  0
   37.5740   30.4810   41.4730 C   0  0  0  0  0  0  0  0  0  0  0  0
   38.8430   31.0310   41.4680 N   0  0  0  0  0  0  0  0  0  0  0  0
   39.1310   32.0720   40.6680 C   0  0  0  0  0  0  0  0  0  0  0  0
   38.2140   32.6130   39.8530 N   0  0  0  0  0  0  0  0  0  0  0  0
   36.1930   32.5110   39.1870 H   0  0  0  0  0  0  0  0  0  0  0  0
   35.5910   30.5980   40.6300 H   0  0  0  0  0  0  0  0  0  0  0  0
   40.1330   32.4760   40.6900 H   0  0  0  0  0  0  0  0  0  0  0  0
   37.2770   25.7030   42.1890 C   0  0  0  0  0  0  0  0  0  0  0  0
   37.3010   25.7570   40.7930 F   0  0  0  0  0  0  0  0  0  0  0  0
   36.3860   24.7260   42.5880 F   0  0  0  0  0  0  0  0  0  0  0  0
   38.5390   25.4250   42.6760 F   0  0  0  0  0  0  0  0  0  0  0  0
  1  6  1  1  0  0  0
  1  2  1  0  0  0  0
  2  3  1  0  0  0  0
  2  7  1  0  0  0  0
  3  9  1  0  0  0  0
  3 10  1  0  0  0  0
  4 11  1  1  0  0  0
  4  3  1  0  0  0  0
  5  1  1  0  0  0  0
  5  4  1  0  0  0  0
  8  2  1  0  0  0  0
 12  5  1  0  0  0  0
 13  5  1  0  0  0  0
 14 19  2  0  0  0  0
 14 15  1  0  0  0  0
 15 21  1  0  0  0  0
 15 16  2  0  0  0  0
 16  1  1  0  0  0  0
 17 16  1  0  0  0  0
 18 22  1  0  0  0  0
 18 17  2  0  0  0  0
 19 18  1  0  0  0  0
 20 14  1  0  0  0  0
 23 25  1  0  0  0  0
 23 26  1  0  0  0  0
 23  4  1  0  0  0  0
 24 23  1  0  0  0  0
M  END
>  <minimizedAffinity>
-4.94635916

$$$$

 OpenBabel03252507523D

 26 27  0  0  1  0  0  0  0  0999 V2000
   36.7980   29.6940   41.5750 C   0  0  2  0  0  0  0  0  0  0  0  0
   38.0020   29.5680   42.4500 C   0  0  0  0  0  0  0  0  0  0  0  0
   37.5590   28.4130   43.3480 C   0  0  0  0  0  0  0  0  0  0  0  0
   36.6680   27.5520   42.4820 C   0  0  1  0  0  0  0  0  0  0  0  0
   36.6210   28.2380   41.1380 C   0  0  0  0  0  0  0  0  0  0  0  0
   35.9070   29.9990   42.1220 H   0  0  0  0  0  0  0  0  0  0  0  0
   38.0480   30.4740   43.0840 H   0  0  0  0  0  0  0  0  0  0  0  0
   38.9110   29.3630   41.8880 H   0  0  0  0  0  0  0  0  0  0  0  0
   38.5030   27.8750   43.6390 H   0  0  0  0  0  0  0  0  0  0  0  0
   37.0570   28.7440   44.2530 H   0  0  0  0  0  0  0  0  0  0  0  0
   35.6800   27.5080   42.9500 H   0  0  0  0  0  0  0  0  0  0  0  0
   37.4470   27.9250   40.4710 H   0  0  0  0  0  0  0  0  0  0  0  0
   35.6100   28.0710   40.7190 H   0  0  0  0  0  0  0  0  0  0  0  0
   37.3470   32.7150   39.3700 C   0  0  0  0  0  0  0  0  0  0  0  0
   37.1820   31.9730   40.5560 C   0  0  0  0  0  0  0  0  0  0  0  0
   36.9800   30.5870   40.4100 C   0  0  0  0  0  0  0  0  0  0  0  0
   36.9530   30.0370   39.1420 N   0  0  0  0  0  0  0  0  0  0  0  0
   37.1190   30.8140   38.0570 C   0  0  0  0  0  0  0  0  0  0  0  0
   37.3140   32.1360   38.1590 N   0  0  0  0  0  0  0  0  0  0  0  0
   37.5020   33.7760   39.5080 H   0  0  0  0  0  0  0  0  0  0  0  0
   37.2040   32.4090   41.5450 H   0  0  0  0  0  0  0  0  0  0  0  0
   37.0930   30.3490   37.0820 H   0  0  0  0  0  0  0  0  0  0  0  0
   37.3100   26.1810   42.3860 C   0  0  0  0  0  0  0  0  0  0  0  0
   37.6730   25.9770   41.0530 F   0  0  0  0  0  0  0  0  0  0  0  0
   36.4380   25.1830   42.7740 F   0  0  0  0  0  0  0  0  0  0  0  0
   38.4310   26.1730   43.1920 F   0  0  0  0  0  0  0  0  0  0  0  0
  1  6  1  1  0  0  0
  1  2  1  0  0  0  0
  2  7  1  0  0  0  0
  2  3  1  0  0  0  0
  3  9  1  0  0  0  0
  3 10  1  0  0  0  0
  4 11  1  1  0  0  0
  4  3  1  0  0  0  0
  5  1  1  0  0  0  0
  5  4  1  0  0  0  0
  8  2  1  0  0  0  0
 12  5  1  0  0  0  0
 13  5  1  0  0  0  0
 14 20  1  0  0  0  0
 14 15  1  0  0  0  0
 15 21  1  0  0  0  0
 16 15  2  0  0  0  0
 16  1  1  0  0  0  0
 17 16  1  0  0  0  0
 18 19  1  0  0  0  0
 18 17  2  0  0  0  0
 19 14  2  0  0  0  0
 22 18  1  0  0  0  0
 23  4  1  0  0  0  0
 23 25  1  0  0  0  0
 23 26  1  0  0  0  0
 24 23  1  0  0  0  0
M  END
>  <minimizedAffinity>
-4.79383039

$$$$

 OpenBabel03252507523D

 26 27  0  0  1  0  0  0  0  0999 V2000
   39.1860   30.1380   42.5590 C   0  0  2  0  0  0  0  0  0  0  0  0
   39.9300   28.8790   42.2580 C   0  0  0  0  0  0  0  0  0  0  0  0
   39.2400   27.9230   43.2320 C   0  0  0  0  0  0  0  0  0  0  0  0
   37.8190   28.4220   43.3430 C   0  0  1  0  0  0  0  0  0  0  0  0
   37.7430   29.6390   42.4520 C   0  0  0  0  0  0  0  0  0  0  0  0
   39.3510   30.4950   43.5750 H   0  0  0  0  0  0  0  0  0  0  0  0
   40.9690   29.0140   42.6150 H   0  0  0  0  0  0  0  0  0  0  0  0
   39.8450   28.5790   41.2150 H   0  0  0  0  0  0  0  0  0  0  0  0
   39.2890   26.9090   42.7470 H   0  0  0  0  0  0  0  0  0  0  0  0
   39.7350   27.8680   44.1980 H   0  0  0  0  0  0  0  0  0  0  0  0
   37.6290   28.6750   44.3910 H   0  0  0  0  0  0  0  0  0  0  0  0
   37.4930   29.3830   41.4050 H   0  0  0  0  0  0  0  0  0  0  0  0
   37.0410   30.3510   42.9270 H   0  0  0  0  0  0  0  0  0  0  0  0
   40.8650   32.7260   40.3740 C   0  0  0  0  0  0  0  0  0  0  0  0
   40.7500   31.6670   41.2960 C   0  0  0  0  0  0  0  0  0  0  0  0
   39.4450   31.2430   41.6100 C   0  0  0  0  0  0  0  0  0  0  0  0
   38.3670   31.8720   41.0140 N   0  0  0  0  0  0  0  0  0  0  0  0
   38.5610   32.8770   40.1430 C   0  0  0  0  0  0  0  0  0  0  0  0
   39.7890   33.3060   39.8200 N   0  0  0  0  0  0  0  0  0  0  0  0
   41.8770   33.0330   40.1490 H   0  0  0  0  0  0  0  0  0  0  0  0
   41.5970   31.1790   41.7590 H   0  0  0  0  0  0  0  0  0  0  0  0
   37.6950   33.3450   39.6960 H   0  0  0  0  0  0  0  0  0  0  0  0
   36.9040   27.3150   42.8540 C   0  0  0  0  0  0  0  0  0  0  0  0
   37.6130   26.1150   42.9380 F   0  0  0  0  0  0  0  0  0  0  0  0
   36.5140   27.5190   41.5450 F   0  0  0  0  0  0  0  0  0  0  0  0
   35.7990   27.2740   43.6800 F   0  0  0  0  0  0  0  0  0  0  0  0
  1  6  1  1  0  0  0
  2  1  1  0  0  0  0
  2  7  1  0  0  0  0
  2  3  1  0  0  0  0
  3  4  1  0  0  0  0
  3 10  1  0  0  0  0
  4 11  1  1  0  0  0
  5  1  1  0  0  0  0
  5 13  1  0  0  0  0
  5  4  1  0  0  0  0
  8  2  1  0  0  0  0
  9  3  1  0  0  0  0
 12  5  1  0  0  0  0
 14 15  1  0  0  0  0
 15 16  2  0  0  0  0
 15 21  1  0  0  0  0
 16  1  1  0  0  0  0
 17 16  1  0  0  0  0
 18 17  2  0  0  0  0
 19 18  1  0  0  0  0
 19 14  2  0  0  0  0
 20 14  1  0  0  0  0
 22 18  1  0  0  0  0
 23 24  1  0  0  0  0
 23  4  1  0  0  0  0
 23 26  1  0  0  0  0
 25 23  1  0  0  0  0
M  END
>  <minimizedAffinity>
-4.74014711

$$$$

 OpenBabel03252507523D

 26 27  0  0  1  0  0  0  0  0999 V2000
   37.3350   29.9270   40.4280 C   0  0  2  0  0  0  0  0  0  0  0  0
   35.9120   29.6680   40.8020 C   0  0  0  0  0  0  0  0  0  0  0  0
   35.9710   28.1600   41.0450 C   0  0  0  0  0  0  0  0  0  0  0  0
   37.3660   27.8910   41.5620 C   0  0  1  0  0  0  0  0  0  0  0  0
   38.0560   29.2340   41.5860 C   0  0  0  0  0  0  0  0  0  0  0  0
   37.6250   29.4340   39.5000 H   0  0  0  0  0  0  0  0  0  0  0  0
   35.2970   29.8280   39.8970 H   0  0  0  0  0  0  0  0  0  0  0  0
   35.5960   30.2400   41.6720 H   0  0  0  0  0  0  0  0  0  0  0  0
   35.1900   27.9470   41.8260 H   0  0  0  0  0  0  0  0  0  0  0  0
   35.7410   27.5750   40.1580 H   0  0  0  0  0  0  0  0  0  0  0  0
   37.8550   27.1960   40.8730 H   0  0  0  0  0  0  0  0  0  0  0  0
   37.8890   29.7800   42.5350 H   0  0  0  0  0  0  0  0  0  0  0  0
   39.1220   29.0600   41.3430 H   0  0  0  0  0  0  0  0  0  0  0  0
   37.4190   33.6040   39.5570 C   0  0  0  0  0  0  0  0  0  0  0  0
   36.9800   32.2660   39.5440 C   0  0  0  0  0  0  0  0  0  0  0  0
   37.6960   31.3580   40.3480 C   0  0  0  0  0  0  0  0  0  0  0  0
   38.7680   31.8150   41.0930 N   0  0  0  0  0  0  0  0  0  0  0  0
   39.1250   33.1100   41.0510 C   0  0  0  0  0  0  0  0  0  0  0  0
   38.4660   34.0010   40.2970 N   0  0  0  0  0  0  0  0  0  0  0  0
   36.8530   34.2810   38.9330 H   0  0  0  0  0  0  0  0  0  0  0  0
   36.1410   31.9150   38.9590 H   0  0  0  0  0  0  0  0  0  0  0  0
   39.9680   33.4310   41.6460 H   0  0  0  0  0  0  0  0  0  0  0  0
   37.2330   27.3070   42.9550 C   0  0  0  0  0  0  0  0  0  0  0  0
   36.9670   25.9430   42.8170 F   0  0  0  0  0  0  0  0  0  0  0  0
   36.2030   27.8990   43.6590 F   0  0  0  0  0  0  0  0  0  0  0  0
   38.4300   27.4940   43.6170 F   0  0  0  0  0  0  0  0  0  0  0  0
  1  6  1  6  0  0  0
  1  2  1  0  0  0  0
  1  5  1  0  0  0  0
  2  3  1  0  0  0  0
  2  8  1  0  0  0  0
  3  4  1  0  0  0  0
  3  9  1  0  0  0  0
  4 11  1  6  0  0  0
  4  5  1  0  0  0  0
  4 23  1  0  0  0  0
  5 12  1  0  0  0  0
  7  2  1  0  0  0  0
 10  3  1  0  0  0  0
 13  5  1  0  0  0  0
 14 19  1  0  0  0  0
 15 14  2  0  0  0  0
 15 16  1  0  0  0  0
 16  1  1  0  0  0  0
 16 17  2  0  0  0  0
 18 17  1  0  0  0  0
 18 22  1  0  0  0  0
 19 18  2  0  0  0  0
 20 14  1  0  0  0  0
 21 15  1  0  0  0  0
 23 26  1  0  0  0  0
 23 25  1  0  0  0  0
 24 23  1  0  0  0  0
M  END
>  <minimizedAffinity>
-4.67147541

$$$$

 OpenBabel03252507523D

 26 27  0  0  1  0  0  0  0  0999 V2000
   36.8690   28.6410   41.9610 C   0  0  2  0  0  0  0  0  0  0  0  0
   36.1950   28.3800   40.6530 C   0  0  0  0  0  0  0  0  0  0  0  0
   35.6010   29.7620   40.3800 C   0  0  0  0  0  0  0  0  0  0  0  0
   36.5660   30.7430   41.0040 C   0  0  1  0  0  0  0  0  0  0  0  0
   37.6610   29.9030   41.6160 C   0  0  0  0  0  0  0  0  0  0  0  0
   36.1670   28.8830   42.7580 H   0  0  0  0  0  0  0  0  0  0  0  0
   35.3480   27.6940   40.8470 H   0  0  0  0  0  0  0  0  0  0  0  0
   36.8860   28.0400   39.8850 H   0  0  0  0  0  0  0  0  0  0  0  0
   35.5700   29.8630   39.2600 H   0  0  0  0  0  0  0  0  0  0  0  0
   34.5910   29.8770   40.7660 H   0  0  0  0  0  0  0  0  0  0  0  0
   36.0240   31.3180   41.7610 H   0  0  0  0  0  0  0  0  0  0  0  0
   38.4730   29.6740   40.8990 H   0  0  0  0  0  0  0  0  0  0  0  0
   37.9990   30.4220   42.5340 H   0  0  0  0  0  0  0  0  0  0  0  0
   38.4850   25.2710   42.5240 C   0  0  0  0  0  0  0  0  0  0  0  0
   37.5640   26.2140   42.0270 C   0  0  0  0  0  0  0  0  0  0  0  0
   37.7600   27.5530   42.4160 C   0  0  0  0  0  0  0  0  0  0  0  0
   38.8200   27.8670   43.2470 N   0  0  0  0  0  0  0  0  0  0  0  0
   39.6570   26.9080   43.6790 C   0  0  0  0  0  0  0  0  0  0  0  0
   39.5000   25.6240   43.3280 N   0  0  0  0  0  0  0  0  0  0  0  0
   38.3140   24.2500   42.2100 H   0  0  0  0  0  0  0  0  0  0  0  0
   36.7380   25.9610   41.3780 H   0  0  0  0  0  0  0  0  0  0  0  0
   40.4740   27.1910   44.3270 H   0  0  0  0  0  0  0  0  0  0  0  0
   37.0980   31.6300   39.8940 C   0  0  0  0  0  0  0  0  0  0  0  0
   38.4740   31.4100   39.8000 F   0  0  0  0  0  0  0  0  0  0  0  0
   36.8720   32.9670   40.1590 F   0  0  0  0  0  0  0  0  0  0  0  0
   36.4770   31.2660   38.7160 F   0  0  0  0  0  0  0  0  0  0  0  0
  1 16  1  0  0  0  0
  1  6  1  1  0  0  0
  2  7  1  0  0  0  0
  2  1  1  0  0  0  0
  3  2  1  0  0  0  0
  3 10  1  0  0  0  0
  3  4  1  0  0  0  0
  4  5  1  0  0  0  0
  4 11  1  1  0  0  0
  5  1  1  0  0  0  0
  5 13  1  0  0  0  0
  8  2  1  0  0  0  0
  9  3  1  0  0  0  0
 12  5  1  0  0  0  0
 14 19  1  0  0  0  0
 15 16  1  0  0  0  0
 15 14  2  0  0  0  0
 16 17  2  0  0  0  0
 17 18  1  0  0  0  0
 18 22  1  0  0  0  0
 19 18  2  0  0  0  0
 20 14  1  0  0  0  0
 21 15  1  0  0  0  0
 23 25  1  0  0  0  0
 23  4  1  0  0  0  0
 24 23  1  0  0  0  0
 26 23  1  0  0  0  0
M  END
>  <minimizedAffinity>
-4.5588994

$$$$

 OpenBabel03252507523D

 26 27  0  0  1  0  0  0  0  0999 V2000
   36.7280   29.5900   40.4540 C   0  0  2  0  0  0  0  0  0  0  0  0
   37.3890   29.6550   39.1160 C   0  0  0  0  0  0  0  0  0  0  0  0
   36.9440   31.0470   38.6670 C   0  0  0  0  0  0  0  0  0  0  0  0
   36.8300   31.8590   39.9360 C   0  0  1  0  0  0  0  0  0  0  0  0
   37.1950   30.9170   41.0570 C   0  0  0  0  0  0  0  0  0  0  0  0
   35.6410   29.6060   40.3910 H   0  0  0  0  0  0  0  0  0  0  0  0
   36.8810   28.9230   38.4590 H   0  0  0  0  0  0  0  0  0  0  0  0
   38.4690   29.5370   39.1740 H   0  0  0  0  0  0  0  0  0  0  0  0
   37.7670   31.4280   38.0010 H   0  0  0  0  0  0  0  0  0  0  0  0
   36.0170   31.0370   38.1000 H   0  0  0  0  0  0  0  0  0  0  0  0
   35.7970   32.2110   40.0220 H   0  0  0  0  0  0  0  0  0  0  0  0
   38.2840   30.8960   41.2570 H   0  0  0  0  0  0  0  0  0  0  0  0
   36.5780   31.1930   41.9340 H   0  0  0  0  0  0  0  0  0  0  0  0
   37.4020   26.1060   41.7560 C   0  0  0  0  0  0  0  0  0  0  0  0
   36.9550   27.1100   40.8750 C   0  0  0  0  0  0  0  0  0  0  0  0
   37.1470   28.4430   41.2880 C   0  0  0  0  0  0  0  0  0  0  0  0
   37.7480   28.6930   42.5080 N   0  0  0  0  0  0  0  0  0  0  0  0
   38.1480   27.6770   43.2930 C   0  0  0  0  0  0  0  0  0  0  0  0
   37.9810   26.3980   42.9310 N   0  0  0  0  0  0  0  0  0  0  0  0
   37.2450   25.0920   41.4170 H   0  0  0  0  0  0  0  0  0  0  0  0
   36.4860   26.9080   39.9230 H   0  0  0  0  0  0  0  0  0  0  0  0
   38.6140   27.9110   44.2390 H   0  0  0  0  0  0  0  0  0  0  0  0
   37.8120   33.0110   39.8330 C   0  0  0  0  0  0  0  0  0  0  0  0
   37.0830   34.1610   39.5240 F   0  0  0  0  0  0  0  0  0  0  0  0
   38.7500   32.7910   38.8440 F   0  0  0  0  0  0  0  0  0  0  0  0
   38.4350   33.1570   41.0560 F   0  0  0  0  0  0  0  0  0  0  0  0
  1  6  1  6  0  0  0
  1  5  1  0  0  0  0
  1 16  1  0  0  0  0
  2  8  1  0  0  0  0
  2  1  1  0  0  0  0
  3  2  1  0  0  0  0
  3  4  1  0  0  0  0
  4 11  1  1  0  0  0
  4  5  1  0  0  0  0
  5 12  1  0  0  0  0
  5 13  1  0  0  0  0
  7  2  1  0  0  0  0
  9  3  1  0  0  0  0
 10  3  1  0  0  0  0
 14 19  1  0  0  0  0
 15 16  1  0  0  0  0
 15 14  2  0  0  0  0
 16 17  2  0  0  0  0
 17 18  1  0  0  0  0
 18 22  1  0  0  0  0
 19 18  2  0  0  0  0
 20 14  1  0  0  0  0
 21 15  1  0  0  0  0
 23  4  1  0  0  0  0
 23 26  1  0  0  0  0
 24 23  1  0  0  0  0
 25 23  1  0  0  0  0
M  END
>  <minimizedAffinity>
-4.35235405

$$$$

 OpenBabel03252507523D

 26 27  0  0  1  0  0  0  0  0999 V2000
   37.8080   29.2420   40.0610 C   0  0  2  0  0  0  0  0  0  0  0  0
   36.3790   28.8160   39.9780 C   0  0  0  0  0  0  0  0  0  0  0  0
   36.5150   27.3490   40.3870 C   0  0  0  0  0  0  0  0  0  0  0  0
   37.6750   27.3090   41.3540 C   0  0  1  0  0  0  0  0  0  0  0  0
   38.1680   28.7320   41.4570 C   0  0  0  0  0  0  0  0  0  0  0  0
   38.4430   28.7350   39.3360 H   0  0  0  0  0  0  0  0  0  0  0  0
   36.0890   28.8310   38.9100 H   0  0  0  0  0  0  0  0  0  0  0  0
   35.7290   29.3940   40.6310 H   0  0  0  0  0  0  0  0  0  0  0  0
   35.5440   27.0830   40.8900 H   0  0  0  0  0  0  0  0  0  0  0  0
   36.6600   26.6820   39.5410 H   0  0  0  0  0  0  0  0  0  0  0  0
   38.4400   26.6440   40.9390 H   0  0  0  0  0  0  0  0  0  0  0  0
   37.6350   29.3110   42.2360 H   0  0  0  0  0  0  0  0  0  0  0  0
   39.2660   28.6910   41.5930 H   0  0  0  0  0  0  0  0  0  0  0  0
   37.2740   32.9690   39.7190 C   0  0  0  0  0  0  0  0  0  0  0  0
   36.9440   31.6030   39.8100 C   0  0  0  0  0  0  0  0  0  0  0  0
   38.0170   30.7020   39.9500 C   0  0  0  0  0  0  0  0  0  0  0  0
   39.3100   31.1920   39.9890 N   0  0  0  0  0  0  0  0  0  0  0  0
   39.5430   32.5120   39.8960 C   0  0  0  0  0  0  0  0  0  0  0  0
   38.5450   33.3970   39.7630 N   0  0  0  0  0  0  0  0  0  0  0  0
   36.4330   33.6400   39.6140 H   0  0  0  0  0  0  0  0  0  0  0  0
   35.9310   31.2260   39.7790 H   0  0  0  0  0  0  0  0  0  0  0  0
   40.5660   32.8580   39.9310 H   0  0  0  0  0  0  0  0  0  0  0  0
   37.1470   26.8030   42.6830 C   0  0  0  0  0  0  0  0  0  0  0  0
   36.0450   27.5890   43.0250 F   0  0  0  0  0  0  0  0  0  0  0  0
   38.0990   26.9010   43.6790 F   0  0  0  0  0  0  0  0  0  0  0  0
   36.7610   25.4880   42.5210 F   0  0  0  0  0  0  0  0  0  0  0  0
  1  6  1  6  0  0  0
  1  5  1  0  0  0  0
  2  1  1  0  0  0  0
  2  3  1  0  0  0  0
  2  8  1  0  0  0  0
  3  9  1  0  0  0  0
  3  4  1  0  0  0  0
  4 11  1  6  0  0  0
  4  5  1  0  0  0  0
  4 23  1  0  0  0  0
  5 13  1  0  0  0  0
  5 12  1  0  0  0  0
  7  2  1  0  0  0  0
 10  3  1  0  0  0  0
 14 19  2  0  0  0  0
 14 15  1  0  0  0  0
 15 16  2  0  0  0  0
 16 17  1  0  0  0  0
 16  1  1  0  0  0  0
 18 22  1  0  0  0  0
 18 17  2  0  0  0  0
 19 18  1  0  0  0  0
 20 14  1  0  0  0  0
 21 15  1  0  0  0  0
 23 24  1  0  0  0  0
 23 25  1  0  0  0  0
 26 23  1  0  0  0  0
M  END
>  <minimizedAffinity>
-4.34084511

$$$$

 OpenBabel03252507523D

 26 27  0  0  1  0  0  0  0  0999 V2000
   37.4130   27.5690   39.7630 C   0  0  2  0  0  0  0  0  0  0  0  0
   36.2790   26.7810   39.1930 C   0  0  0  0  0  0  0  0  0  0  0  0
   36.7750   25.3620   39.4690 C   0  0  0  0  0  0  0  0  0  0  0  0
   37.5840   25.4610   40.7420 C   0  0  1  0  0  0  0  0  0  0  0  0
   37.5360   26.9160   41.1420 C   0  0  0  0  0  0  0  0  0  0  0  0
   38.3470   27.4140   39.2260 H   0  0  0  0  0  0  0  0  0  0  0  0
   36.2950   26.9240   38.0950 H   0  0  0  0  0  0  0  0  0  0  0  0
   35.3270   27.0120   39.6650 H   0  0  0  0  0  0  0  0  0  0  0  0
   35.8490   24.7390   39.6120 H   0  0  0  0  0  0  0  0  0  0  0  0
   37.3500   24.9430   38.6480 H   0  0  0  0  0  0  0  0  0  0  0  0
   38.6050   25.1340   40.5220 H   0  0  0  0  0  0  0  0  0  0  0  0
   36.6560   27.1560   41.7700 H   0  0  0  0  0  0  0  0  0  0  0  0
   38.5090   27.1600   41.6100 H   0  0  0  0  0  0  0  0  0  0  0  0
   36.3310   30.9760   40.9890 C   0  0  0  0  0  0  0  0  0  0  0  0
   36.5160   29.5800   41.0000 C   0  0  0  0  0  0  0  0  0  0  0  0
   37.1530   29.0200   39.8760 C   0  0  0  0  0  0  0  0  0  0  0  0
   37.5560   29.8480   38.8440 N   0  0  0  0  0  0  0  0  0  0  0  0
   37.3430   31.1730   38.9100 C   0  0  0  0  0  0  0  0  0  0  0  0
   36.7390   31.7400   39.9640 N   0  0  0  0  0  0  0  0  0  0  0  0
   35.8410   31.3830   41.8630 H   0  0  0  0  0  0  0  0  0  0  0  0
   36.1990   28.9390   41.8100 H   0  0  0  0  0  0  0  0  0  0  0  0
   37.6710   31.7890   38.0840 H   0  0  0  0  0  0  0  0  0  0  0  0
   36.9180   24.5750   41.7780 C   0  0  0  0  0  0  0  0  0  0  0  0
   37.8920   23.7130   42.2850 F   0  0  0  0  0  0  0  0  0  0  0  0
   35.8950   23.8280   41.2260 F   0  0  0  0  0  0  0  0  0  0  0  0
   36.4270   25.3840   42.7840 F   0  0  0  0  0  0  0  0  0  0  0  0
  1  6  1  6  0  0  0
  1 16  1  0  0  0  0
  1  5  1  0  0  0  0
  2  3  1  0  0  0  0
  2  8  1  0  0  0  0
  2  1  1  0  0  0  0
  3  9  1  0  0  0  0
  3  4  1  0  0  0  0
  4 11  1  6  0  0  0
  4  5  1  0  0  0  0
  4 23  1  0  0  0  0
  5 13  1  0  0  0  0
  5 12  1  0  0  0  0
  7  2  1  0  0  0  0
 10  3  1  0  0  0  0
 14 15  1  0  0  0  0
 14 20  1  0  0  0  0
 15 21  1  0  0  0  0
 16 15  2  0  0  0  0
 17 18  2  0  0  0  0
 17 16  1  0  0  0  0
 18 19  1  0  0  0  0
 19 14  2  0  0  0  0
 22 18  1  0  0  0  0
 23 24  1  0  0  0  0
 23 26  1  0  0  0  0
 25 23  1  0  0  0  0
M  END
>  <minimizedAffinity>
-4.25801802

$$$$

 OpenBabel03252507523D

 26 27  0  0  1  0  0  0  0  0999 V2000
   37.2240   30.2250   38.7790 C   0  0  2  0  0  0  0  0  0  0  0  0
   36.9390   30.4170   37.3260 C   0  0  0  0  0  0  0  0  0  0  0  0
   36.2130   29.1060   37.0210 C   0  0  0  0  0  0  0  0  0  0  0  0
   35.4920   28.7410   38.2980 C   0  0  1  0  0  0  0  0  0  0  0  0
   35.8330   29.8330   39.2840 C   0  0  0  0  0  0  0  0  0  0  0  0
   37.9040   29.3960   38.9710 H   0  0  0  0  0  0  0  0  0  0  0  0
   37.9070   30.3850   36.7910 H   0  0  0  0  0  0  0  0  0  0  0  0
   36.3420   31.3040   37.1280 H   0  0  0  0  0  0  0  0  0  0  0  0
   35.4930   29.3430   36.1900 H   0  0  0  0  0  0  0  0  0  0  0  0
   36.8800   28.3160   36.6850 H   0  0  0  0  0  0  0  0  0  0  0  0
   35.8620   27.7660   38.6300 H   0  0  0  0  0  0  0  0  0  0  0  0
   35.1370   30.6920   39.2240 H   0  0  0  0  0  0  0  0  0  0  0  0
   35.8920   29.3660   40.2850 H   0  0  0  0  0  0  0  0  0  0  0  0
   37.8110   33.7910   39.8840 C   0  0  0  0  0  0  0  0  0  0  0  0
   37.2580   32.7220   39.1530 C   0  0  0  0  0  0  0  0  0  0  0  0
   37.7260   31.4320   39.4690 C   0  0  0  0  0  0  0  0  0  0  0  0
   38.6830   31.2830   40.4560 N   0  0  0  0  0  0  0  0  0  0  0  0
   39.1620   32.3560   41.1090 C   0  0  0  0  0  0  0  0  0  0  0  0
   38.7390   33.5970   40.8340 N   0  0  0  0  0  0  0  0  0  0  0  0
   37.4350   34.7710   39.6240 H   0  0  0  0  0  0  0  0  0  0  0  0
   36.5100   32.8450   38.3820 H   0  0  0  0  0  0  0  0  0  0  0  0
   39.9090   32.2010   41.8740 H   0  0  0  0  0  0  0  0  0  0  0  0
   34.0070   28.7100   37.9930 C   0  0  0  0  0  0  0  0  0  0  0  0
   33.6730   27.3960   37.6570 F   0  0  0  0  0  0  0  0  0  0  0  0
   33.6870   29.5400   36.9360 F   0  0  0  0  0  0  0  0  0  0  0  0
   33.3250   29.0990   39.1280 F   0  0  0  0  0  0  0  0  0  0  0  0
  1  6  1  1  0  0  0
  1  5  1  0  0  0  0
  1 16  1  0  0  0  0
  2  1  1  0  0  0  0
  3  2  1  0  0  0  0
  3  4  1  0  0  0  0
  4 11  1  1  0  0  0
  4  5  1  0  0  0  0
  5 13  1  0  0  0  0
  7  2  1  0  0  0  0
  8  2  1  0  0  0  0
  9  3  1  0  0  0  0
 10  3  1  0  0  0  0
 12  5  1  0  0  0  0
 14 19  1  0  0  0  0
 15 16  1  0  0  0  0
 15 14  2  0  0  0  0
 16 17  2  0  0  0  0
 17 18  1  0  0  0  0
 18 22  1  0  0  0  0
 19 18  2  0  0  0  0
 20 14  1  0  0  0  0
 21 15  1  0  0  0  0
 23  4  1  0  0  0  0
 23 26  1  0  0  0  0
 24 23  1  0  0  0  0
 25 23  1  0  0  0  0
M  END
>  <minimizedAffinity>
-4.21192932

$$$$
