
 OpenBabel03252508233D

 43 45  0  0  0  0  0  0  0  0999 V2000
   45.0060   34.1110   40.7770 C   0  0  0  0  0  0  0  0  0  0  0  0
   46.0880   34.4070   41.5780 C   0  0  0  0  0  0  0  0  0  0  0  0
   46.0540   35.2800   42.6390 C   0  0  0  0  0  0  0  0  0  0  0  0
   44.8150   35.8860   42.8860 C   0  0  0  0  0  0  0  0  0  0  0  0
   43.7140   35.6260   42.1220 C   0  0  0  0  0  0  0  0  0  0  0  0
   43.7950   34.7520   41.0780 C   0  0  0  0  0  0  0  0  0  0  0  0
   47.0680   33.9750   41.4610 H   0  0  0  0  0  0  0  0  0  0  0  0
   46.8720   35.5320   43.2800 H   0  0  0  0  0  0  0  0  0  0  0  0
   44.7270   36.5950   43.7210 H   0  0  0  0  0  0  0  0  0  0  0  0
   42.7870   36.1420   42.3820 H   0  0  0  0  0  0  0  0  0  0  0  0
   42.5980   34.5450   40.3560 N   0  0  0  0  0  0  0  0  0  0  0  0
   42.2480   35.2410   39.1510 C   0  0  0  0  0  0  0  0  0  0  0  0
   41.1890   34.4900   38.3740 C   0  0  0  0  0  0  0  0  0  0  0  0
   41.3480   33.0770   38.3950 N   0  0  0  0  0  0  0  0  0  0  0  0
   41.4300   32.5030   39.6810 C   0  0  0  0  0  0  0  0  0  0  0  0
   41.5400   33.5930   40.7270 C   0  0  0  0  0  0  0  0  0  0  0  0
   43.0650   35.6200   38.5410 H   0  0  0  0  0  0  0  0  0  0  0  0
   41.7240   36.1800   39.5070 H   0  0  0  0  0  0  0  0  0  0  0  0
   41.2420   34.8340   37.3270 H   0  0  0  0  0  0  0  0  0  0  0  0
   40.1760   34.7080   38.7830 H   0  0  0  0  0  0  0  0  0  0  0  0
   40.8340   32.6090   37.6610 H   0  0  0  0  0  0  0  0  0  0  0  0
   40.5030   31.9300   39.9020 H   0  0  0  0  0  0  0  0  0  0  0  0
   42.2690   31.7960   39.7930 H   0  0  0  0  0  0  0  0  0  0  0  0
   40.5730   34.1400   40.8220 H   0  0  0  0  0  0  0  0  0  0  0  0
   41.8490   33.1040   41.6800 H   0  0  0  0  0  0  0  0  0  0  0  0
   45.0510   33.1850   39.6460 C   0  0  0  0  0  0  0  0  0  0  0  0
   44.8440   33.6280   38.6740 H   0  0  0  0  0  0  0  0  0  0  0  0
   44.2110   32.4510   39.8200 H   0  0  0  0  0  0  0  0  0  0  0  0
   46.3540   32.4150   39.6010 C   0  0  0  0  0  0  0  0  0  0  0  0
   46.1460   31.3130   39.4450 H   0  0  0  0  0  0  0  0  0  0  0  0
   47.0020   32.5350   40.4550 H   0  0  0  0  0  0  0  0  0  0  0  0
   48.6950   34.2750   37.2960 C   0  0  0  0  0  0  0  0  0  0  0  0
   47.9730   33.9090   38.4570 C   0  0  0  0  0  0  0  0  0  0  0  0
   47.1160   32.8180   38.3960 C   0  0  0  0  0  0  0  0  0  0  0  0
   47.0200   32.1550   37.2030 N   0  0  0  0  0  0  0  0  0  0  0  0
   47.7080   32.5150   36.1210 C   0  0  0  0  0  0  0  0  0  0  0  0
   48.5450   33.5720   36.1610 N   0  0  0  0  0  0  0  0  0  0  0  0
   49.3660   35.1390   37.3650 H   0  0  0  0  0  0  0  0  0  0  0  0
   48.0850   34.4640   39.3690 H   0  0  0  0  0  0  0  0  0  0  0  0
   47.5040   31.6980   34.8830 C   0  0  0  0  0  0  0  0  0  0  0  0
   46.8260   30.5060   35.1570 F   0  0  0  0  0  0  0  0  0  0  0  0
   48.7120   31.3190   34.3200 F   0  0  0  0  0  0  0  0  0  0  0  0
   46.7410   32.3540   33.9340 F   0  0  0  0  0  0  0  0  0  0  0  0
  1  6  2  0  0  0  0
  1  2  1  0  0  0  0
  2  3  2  0  0  0  0
  3  4  1  0  0  0  0
  3  8  1  0  0  0  0
  4  9  1  0  0  0  0
  5 10  1  0  0  0  0
  5  4  2  0  0  0  0
  6  5  1  0  0  0  0
  7  2  1  0  0  0  0
 11 16  1  0  0  0  0
 11  6  1  0  0  0  0
 12 18  1  0  0  0  0
 12 11  1  0  0  0  0
 13 14  1  0  0  0  0
 13 20  1  0  0  0  0
 13 12  1  0  0  0  0
 14 15  1  0  0  0  0
 15 23  1  0  0  0  0
 15 22  1  0  0  0  0
 15 16  1  0  0  0  0
 16 24  1  0  0  0  0
 16 25  1  0  0  0  0
 17 12  1  0  0  0  0
 19 13  1  0  0  0  0
 21 14  1  0  0  0  0
 26 28  1  0  0  0  0
 26  1  1  0  0  0  0
 27 26  1  0  0  0  0
 29 26  1  0  0  0  0
 29 31  1  0  0  0  0
 30 29  1  0  0  0  0
 32 38  1  0  0  0  0
 32 33  1  0  0  0  0
 33 39  1  0  0  0  0
 34 33  2  0  0  0  0
 34 29  1  0  0  0  0
 35 34  1  0  0  0  0
 36 37  1  0  0  0  0
 36 35  2  0  0  0  0
 37 32  2  0  0  0  0
 40 41  1  0  0  0  0
 40 36  1  0  0  0  0
 42 40  1  0  0  0  0
 43 40  1  0  0  0  0
M  END
>  <minimizedAffinity>
-5.02498722

>  <minimizedRMSD>
7.29475451

$$$$
