
 OpenBabel03252509183D

 36 38  0  0  1  0  0  0  0  0999 V2000
   48.5220   29.1030   46.4460 C   0  0  1  0  0  0  0  0  0  0  0  0
   49.5910   29.5780   47.3690 C   0  0  0  0  0  0  0  0  0  0  0  0
   49.5760   28.9520   48.7280 C   0  0  0  0  0  0  0  0  0  0  0  0
   49.3350   27.4610   48.6820 C   0  0  0  0  0  0  0  0  0  0  0  0
   48.2150   27.0820   47.7500 C   0  0  0  0  0  0  0  0  0  0  0  0
   47.4720   28.3450   47.2860 C   0  0  2  0  0  0  0  0  0  0  0  0
   48.9440   28.3210   45.7860 H   0  0  0  0  0  0  0  0  0  0  0  0
   49.4210   30.6840   47.5200 H   0  0  0  0  0  0  0  0  0  0  0  0
   50.6010   29.5290   46.8910 H   0  0  0  0  0  0  0  0  0  0  0  0
   48.8550   29.4430   49.4090 H   0  0  0  0  0  0  0  0  0  0  0  0
   50.5930   29.0820   49.1760 H   0  0  0  0  0  0  0  0  0  0  0  0
   50.2630   26.9320   48.3420 H   0  0  0  0  0  0  0  0  0  0  0  0
   49.1610   27.1250   49.7220 H   0  0  0  0  0  0  0  0  0  0  0  0
   47.5010   26.4270   48.2970 H   0  0  0  0  0  0  0  0  0  0  0  0
   48.5680   26.5600   46.8590 H   0  0  0  0  0  0  0  0  0  0  0  0
   47.1040   28.9330   48.1260 H   0  0  0  0  0  0  0  0  0  0  0  0
   46.7470   32.4290   44.8480 C   0  0  0  0  0  0  0  0  0  0  0  0
   47.2340   31.5590   43.8580 C   0  0  0  0  0  0  0  0  0  0  0  0
   47.8360   30.4190   44.2640 C   0  0  0  0  0  0  0  0  0  0  0  0
   47.9600   30.1360   45.6390 C   0  0  0  0  0  0  0  0  0  0  0  0
   47.1680   31.5830   46.4090 S   0  0  0  0  0  0  0  0  0  0  0  0
   47.1430   31.7700   42.8030 H   0  0  0  0  0  0  0  0  0  0  0  0
   48.2690   29.6320   43.6670 H   0  0  0  0  0  0  0  0  0  0  0  0
   45.4410   35.5610   43.3210 C   0  0  0  0  0  0  0  0  0  0  0  0
   44.6600   36.0450   44.4010 C   0  0  0  0  0  0  0  0  0  0  0  0
   44.6160   35.2830   45.5970 C   0  0  0  0  0  0  0  0  0  0  0  0
   45.3400   34.1260   45.6130 N   0  0  0  0  0  0  0  0  0  0  0  0
   46.0700   33.6990   44.5660 C   0  0  0  0  0  0  0  0  0  0  0  0
   46.1110   34.4220   43.4330 N   0  0  0  0  0  0  0  0  0  0  0  0
   45.4950   36.1200   42.3940 H   0  0  0  0  0  0  0  0  0  0  0  0
   44.1140   36.9630   44.3260 H   0  0  0  0  0  0  0  0  0  0  0  0
   44.0360   35.6080   46.4500 H   0  0  0  0  0  0  0  0  0  0  0  0
   46.3520   27.8550   46.3830 C   0  0  0  0  0  0  0  0  0  0  0  0
   45.7140   26.7580   46.9290 F   0  0  0  0  0  0  0  0  0  0  0  0
   45.4710   28.8850   46.1470 F   0  0  0  0  0  0  0  0  0  0  0  0
   46.9190   27.4830   45.1940 F   0  0  0  0  0  0  0  0  0  0  0  0
  1  7  1  6  0  0  0
  1  6  1  0  0  0  0
  1  2  1  0  0  0  0
  2  8  1  0  0  0  0
  2  3  1  0  0  0  0
  3 11  1  0  0  0  0
  3 10  1  0  0  0  0
  4  3  1  0  0  0  0
  4 13  1  0  0  0  0
  5 14  1  0  0  0  0
  5  4  1  0  0  0  0
  6  5  1  0  0  0  0
  6 16  1  1  0  0  0
  9  2  1  0  0  0  0
 12  4  1  0  0  0  0
 15  5  1  0  0  0  0
 17 21  1  0  0  0  0
 18 19  1  0  0  0  0
 18 17  2  0  0  0  0
 19 20  2  0  0  0  0
 20 21  1  0  0  0  0
 20  1  1  0  0  0  0
 22 18  1  0  0  0  0
 23 19  1  0  0  0  0
 24 29  2  0  0  0  0
 24 25  1  0  0  0  0
 25 26  2  0  0  0  0
 26 27  1  0  0  0  0
 26 32  1  0  0  0  0
 28 17  1  0  0  0  0
 28 27  2  0  0  0  0
 29 28  1  0  0  0  0
 30 24  1  0  0  0  0
 31 25  1  0  0  0  0
 33 34  1  0  0  0  0
 33  6  1  0  0  0  0
 35 33  1  0  0  0  0
 36 33  1  0  0  0  0
M  END
>  <minimizedAffinity>
-4.08222103

>  <minimizedRMSD>
4.058918

$$$$
