
 OpenBabel03242519133D

 29 30  0  0  0  0  0  0  0  0999 V2000
   46.5600   33.9950   40.6480 C   0  0  0  0  0  0  0  0  0  0  0  0
   46.3560   32.9650   40.2860 H   0  0  0  0  0  0  0  0  0  0  0  0
   45.6900   34.6230   40.2930 H   0  0  0  0  0  0  0  0  0  0  0  0
   44.6460   35.9080   41.8900 Cl  0  0  0  0  0  0  0  0  0  0  0  0
   45.6080   34.7800   42.8220 C   0  0  0  0  0  0  0  0  0  0  0  0
   46.4550   33.9510   42.1370 C   0  0  0  0  0  0  0  0  0  0  0  0
   47.2160   33.0620   42.8720 C   0  0  0  0  0  0  0  0  0  0  0  0
   47.1210   33.0140   44.2540 C   0  0  0  0  0  0  0  0  0  0  0  0
   46.2520   33.8670   44.9340 C   0  0  0  0  0  0  0  0  0  0  0  0
   45.4880   34.7600   44.1900 C   0  0  0  0  0  0  0  0  0  0  0  0
   47.8970   32.3910   42.3660 H   0  0  0  0  0  0  0  0  0  0  0  0
   47.7030   32.3300   44.8580 H   0  0  0  0  0  0  0  0  0  0  0  0
   46.1460   33.8620   46.0170 H   0  0  0  0  0  0  0  0  0  0  0  0
   44.5360   35.7060   44.8310 C   0  0  0  0  0  0  0  0  0  0  0  0
   44.9870   36.9940   44.5940 F   0  0  0  0  0  0  0  0  0  0  0  0
   44.3550   35.4390   46.1620 F   0  0  0  0  0  0  0  0  0  0  0  0
   43.2840   35.6340   44.2100 F   0  0  0  0  0  0  0  0  0  0  0  0
   47.8600   34.5520   40.1650 C   0  0  0  0  0  0  0  0  0  0  0  0
   48.6110   34.5860   40.9760 H   0  0  0  0  0  0  0  0  0  0  0  0
   47.6820   35.6360   39.9010 H   0  0  0  0  0  0  0  0  0  0  0  0
   48.3450   33.8060   39.0180 C   0  0  0  0  0  0  0  0  0  0  0  0
   48.2110   34.2940   37.7390 C   0  0  0  0  0  0  0  0  0  0  0  0
   48.6720   33.5860   36.6240 C   0  0  0  0  0  0  0  0  0  0  0  0
   49.2590   32.3830   36.9020 N   0  0  0  0  0  0  0  0  0  0  0  0
   49.3890   31.9080   38.1520 C   0  0  0  0  0  0  0  0  0  0  0  0
   48.9340   32.6190   39.1950 N   0  0  0  0  0  0  0  0  0  0  0  0
   47.7620   35.2280   37.4890 H   0  0  0  0  0  0  0  0  0  0  0  0
   48.5710   33.9610   35.6150 H   0  0  0  0  0  0  0  0  0  0  0  0
   49.8710   30.9430   38.2550 H   0  0  0  0  0  0  0  0  0  0  0  0
  1  6  1  0  0  0  0
  2  1  1  0  0  0  0
  3  1  1  0  0  0  0
  4  5  1  0  0  0  0
  5 10  1  0  0  0  0
  6  5  2  0  0  0  0
  6  7  1  0  0  0  0
  7  8  2  0  0  0  0
  8 12  1  0  0  0  0
  8  9  1  0  0  0  0
  9 13  1  0  0  0  0
 10 14  1  0  0  0  0
 10  9  2  0  0  0  0
 11  7  1  0  0  0  0
 14 16  1  0  0  0  0
 15 14  1  0  0  0  0
 17 14  1  0  0  0  0
 18  1  1  0  0  0  0
 18 19  1  0  0  0  0
 20 18  1  0  0  0  0
 21 26  1  0  0  0  0
 21 18  1  0  0  0  0
 22 21  2  0  0  0  0
 23 24  2  0  0  0  0
 23 22  1  0  0  0  0
 24 25  1  0  0  0  0
 25 29  1  0  0  0  0
 25 26  2  0  0  0  0
 27 22  1  0  0  0  0
 28 23  1  0  0  0  0
M  END
>  <minimizedAffinity>
-5.05496883

>  <minimizedRMSD>
2.53098154

$$$$
