
 OpenBabel03252507253D

 22 23  0  0  0  0  0  0  0  0999 V2000
   45.6130   33.9700   45.4840 C   0  0  0  0  0  0  0  0  0  0  0  0
   44.6900   35.0130   45.7190 C   0  0  0  0  0  0  0  0  0  0  0  0
   44.5010   35.9510   44.7030 C   0  0  0  0  0  0  0  0  0  0  0  0
   45.2190   35.8090   43.5420 N   0  0  0  0  0  0  0  0  0  0  0  0
   46.0880   34.7960   43.3640 C   0  0  0  0  0  0  0  0  0  0  0  0
   46.2880   33.8880   44.3140 N   0  0  0  0  0  0  0  0  0  0  0  0
   44.1590   35.0690   46.6490 H   0  0  0  0  0  0  0  0  0  0  0  0
   43.8010   36.7630   44.8510 H   0  0  0  0  0  0  0  0  0  0  0  0
   46.8140   34.7090   42.1050 C   0  0  0  0  0  0  0  0  0  0  0  0
   47.9960   35.3780   41.9220 C   0  0  0  0  0  0  0  0  0  0  0  0
   48.7500   35.3550   40.7690 C   0  0  0  0  0  0  0  0  0  0  0  0
   48.2120   34.5690   39.7510 C   0  0  0  0  0  0  0  0  0  0  0  0
   47.0180   33.8810   39.9090 C   0  0  0  0  0  0  0  0  0  0  0  0
   46.3390   33.9630   41.0860 N   0  0  0  0  0  0  0  0  0  0  0  0
   48.3480   35.9710   42.7680 H   0  0  0  0  0  0  0  0  0  0  0  0
   49.6810   35.8980   40.6600 H   0  0  0  0  0  0  0  0  0  0  0  0
   48.7340   34.4950   38.8200 H   0  0  0  0  0  0  0  0  0  0  0  0
   46.6120   33.2720   39.1040 H   0  0  0  0  0  0  0  0  0  0  0  0
   45.8690   32.9240   46.5260 C   0  0  0  0  0  0  0  0  0  0  0  0
   45.7020   31.6740   46.0080 F   0  0  0  0  0  0  0  0  0  0  0  0
   44.9860   33.1740   47.5620 F   0  0  0  0  0  0  0  0  0  0  0  0
   47.1360   33.0540   47.0380 F   0  0  0  0  0  0  0  0  0  0  0  0
  1  2  1  0  0  0  0
  1 19  1  0  0  0  0
  2  7  1  0  0  0  0
  3  8  1  0  0  0  0
  3  2  2  0  0  0  0
  4  3  1  0  0  0  0
  5  4  2  0  0  0  0
  5  6  1  0  0  0  0
  6  1  2  0  0  0  0
  9  5  1  0  0  0  0
 10  9  1  0  0  0  0
 10 15  1  0  0  0  0
 11 10  2  0  0  0  0
 12 13  2  0  0  0  0
 12 11  1  0  0  0  0
 13 14  1  0  0  0  0
 14  9  2  0  0  0  0
 16 11  1  0  0  0  0
 17 12  1  0  0  0  0
 18 13  1  0  0  0  0
 19 22  1  0  0  0  0
 19 21  1  0  0  0  0
 20 19  1  0  0  0  0
M  END
>  <minimizedAffinity>
-5.69048405

>  <minimizedRMSD>
0.138402119

$$$$
