
 OpenBabel03252509213D

 20 21  0  0  0  0  0  0  0  0999 V2000
   39.5610   27.1870   43.6670 C   0  0  0  0  0  0  0  0  0  0  0  0
   38.3070   26.8940   43.0370 C   0  0  0  0  0  0  0  0  0  0  0  0
   38.2600   25.6460   42.4490 C   0  0  0  0  0  0  0  0  0  0  0  0
   39.3320   24.7720   42.4770 N   0  0  0  0  0  0  0  0  0  0  0  0
   40.4910   25.1120   43.0930 C   0  0  0  0  0  0  0  0  0  0  0  0
   40.5900   26.3150   43.6800 N   0  0  0  0  0  0  0  0  0  0  0  0
   39.7240   28.1190   44.1560 H   0  0  0  0  0  0  0  0  0  0  0  0
   41.1810   24.2890   42.9930 H   0  0  0  0  0  0  0  0  0  0  0  0
   36.9470   25.2150   41.8540 C   0  0  0  0  0  0  0  0  0  0  0  0
   36.9740   25.3360   40.3220 C   0  0  0  0  0  0  0  0  0  0  0  0
   36.9020   23.9930   41.1040 C   0  0  0  0  0  0  0  0  0  0  0  0
   36.0800   25.7550   42.2550 H   0  0  0  0  0  0  0  0  0  0  0  0
   37.9300   25.6100   39.8730 H   0  0  0  0  0  0  0  0  0  0  0  0
   36.0720   25.6240   39.7790 H   0  0  0  0  0  0  0  0  0  0  0  0
   35.9390   23.4210   40.9480 H   0  0  0  0  0  0  0  0  0  0  0  0
   37.8040   23.3540   40.8980 H   0  0  0  0  0  0  0  0  0  0  0  0
   37.2470   27.8940   43.0820 C   0  0  0  0  0  0  0  0  0  0  0  0
   37.6870   29.0610   43.6770 F   0  0  0  0  0  0  0  0  0  0  0  0
   36.1030   27.4130   43.6800 F   0  0  0  0  0  0  0  0  0  0  0  0
   36.8920   28.2380   41.7900 F   0  0  0  0  0  0  0  0  0  0  0  0
  1  6  1  0  0  0  0
  1  7  1  0  0  0  0
  2 17  1  0  0  0  0
  2  1  2  0  0  0  0
  3  4  2  0  0  0  0
  3  2  1  0  0  0  0
  4  5  1  0  0  0  0
  5  6  2  0  0  0  0
  8  5  1  0  0  0  0
  9 12  1  0  0  0  0
  9  3  1  0  0  0  0
 10 11  1  0  0  0  0
 10  9  1  0  0  0  0
 11  9  1  0  0  0  0
 13 10  1  0  0  0  0
 14 10  1  0  0  0  0
 15 11  1  0  0  0  0
 16 11  1  0  0  0  0
 17 18  1  0  0  0  0
 17 19  1  0  0  0  0
 20 17  1  0  0  0  0
M  END
>  <minimizedAffinity>
-4.29060698

$$$$

 OpenBabel03252509213D

 20 21  0  0  0  0  0  0  0  0999 V2000
   38.7910   29.2630   42.8020 C   0  0  0  0  0  0  0  0  0  0  0  0
   37.5860   28.6410   42.3380 C   0  0  0  0  0  0  0  0  0  0  0  0
   36.9050   29.3850   41.3940 C   0  0  0  0  0  0  0  0  0  0  0  0
   37.3610   30.6130   40.9490 N   0  0  0  0  0  0  0  0  0  0  0  0
   38.5120   31.1450   41.4290 C   0  0  0  0  0  0  0  0  0  0  0  0
   39.2110   30.4630   42.3500 N   0  0  0  0  0  0  0  0  0  0  0  0
   39.4050   28.7910   43.5320 H   0  0  0  0  0  0  0  0  0  0  0  0
   38.6720   32.0960   40.9470 H   0  0  0  0  0  0  0  0  0  0  0  0
   35.6840   28.7600   40.7760 C   0  0  0  0  0  0  0  0  0  0  0  0
   35.1470   29.6280   39.6260 C   0  0  0  0  0  0  0  0  0  0  0  0
   35.7860   28.2190   39.4520 C   0  0  0  0  0  0  0  0  0  0  0  0
   34.8800   28.5550   41.4940 H   0  0  0  0  0  0  0  0  0  0  0  0
   35.7510   30.4950   39.3500 H   0  0  0  0  0  0  0  0  0  0  0  0
   34.0740   29.6940   39.4440 H   0  0  0  0  0  0  0  0  0  0  0  0
   35.0680   27.4330   39.0690 H   0  0  0  0  0  0  0  0  0  0  0  0
   36.7200   28.2700   38.8270 H   0  0  0  0  0  0  0  0  0  0  0  0
   37.2140   27.3380   42.8760 C   0  0  0  0  0  0  0  0  0  0  0  0
   37.0670   26.4050   41.8680 F   0  0  0  0  0  0  0  0  0  0  0  0
   36.0970   27.4060   43.6790 F   0  0  0  0  0  0  0  0  0  0  0  0
   38.2390   26.8700   43.6800 F   0  0  0  0  0  0  0  0  0  0  0  0
  1  7  1  0  0  0  0
  2  1  2  0  0  0  0
  2 17  1  0  0  0  0
  3  2  1  0  0  0  0
  4  3  2  0  0  0  0
  4  5  1  0  0  0  0
  5  6  2  0  0  0  0
  6  1  1  0  0  0  0
  8  5  1  0  0  0  0
  9  3  1  0  0  0  0
  9 12  1  0  0  0  0
 10  9  1  0  0  0  0
 11 10  1  0  0  0  0
 11  9  1  0  0  0  0
 13 10  1  0  0  0  0
 14 10  1  0  0  0  0
 15 11  1  0  0  0  0
 16 11  1  0  0  0  0
 17 19  1  0  0  0  0
 17 20  1  0  0  0  0
 18 17  1  0  0  0  0
M  END
>  <minimizedAffinity>
-4.07861185

$$$$

 OpenBabel03252509213D

 20 21  0  0  0  0  0  0  0  0999 V2000
   39.1700   25.5010   42.9840 C   0  0  0  0  0  0  0  0  0  0  0  0
   38.3800   26.6950   42.9180 C   0  0  0  0  0  0  0  0  0  0  0  0
   39.1060   27.8540   43.1080 C   0  0  0  0  0  0  0  0  0  0  0  0
   40.4710   27.8430   43.3370 N   0  0  0  0  0  0  0  0  0  0  0  0
   41.1600   26.6770   43.3860 C   0  0  0  0  0  0  0  0  0  0  0  0
   40.5000   25.5220   43.2090 N   0  0  0  0  0  0  0  0  0  0  0  0
   38.7260   24.5430   42.8550 H   0  0  0  0  0  0  0  0  0  0  0  0
   42.1980   26.9050   43.5730 H   0  0  0  0  0  0  0  0  0  0  0  0
   38.3740   29.1590   42.9520 C   0  0  0  0  0  0  0  0  0  0  0  0
   39.3610   30.3240   42.7800 C   0  0  0  0  0  0  0  0  0  0  0  0
   38.3950   29.8080   41.6730 C   0  0  0  0  0  0  0  0  0  0  0  0
   37.6800   29.3770   43.7730 H   0  0  0  0  0  0  0  0  0  0  0  0
   40.4170   30.0570   42.6940 H   0  0  0  0  0  0  0  0  0  0  0  0
   39.1310   31.3040   43.1990 H   0  0  0  0  0  0  0  0  0  0  0  0
   37.6040   30.5570   41.3690 H   0  0  0  0  0  0  0  0  0  0  0  0
   38.9640   29.4190   40.7850 H   0  0  0  0  0  0  0  0  0  0  0  0
   36.9490   26.5780   42.6600 C   0  0  0  0  0  0  0  0  0  0  0  0
   36.6250   27.0680   41.4100 F   0  0  0  0  0  0  0  0  0  0  0  0
   36.1920   27.1610   43.6520 F   0  0  0  0  0  0  0  0  0  0  0  0
   36.5990   25.2400   42.6450 F   0  0  0  0  0  0  0  0  0  0  0  0
  1  6  1  0  0  0  0
  2  1  2  0  0  0  0
  2  3  1  0  0  0  0
  3  4  2  0  0  0  0
  4  5  1  0  0  0  0
  5  8  1  0  0  0  0
  6  5  2  0  0  0  0
  7  1  1  0  0  0  0
  9  3  1  0  0  0  0
  9 12  1  0  0  0  0
 10  9  1  0  0  0  0
 10 14  1  0  0  0  0
 11 10  1  0  0  0  0
 11  9  1  0  0  0  0
 13 10  1  0  0  0  0
 15 11  1  0  0  0  0
 16 11  1  0  0  0  0
 17  2  1  0  0  0  0
 17 19  1  0  0  0  0
 18 17  1  0  0  0  0
 20 17  1  0  0  0  0
M  END
>  <minimizedAffinity>
-4.07607746

$$$$

 OpenBabel03252509213D

 20 21  0  0  0  0  0  0  0  0999 V2000
   39.6400   24.4280   42.2200 C   0  0  0  0  0  0  0  0  0  0  0  0
   38.3780   25.1090   42.2160 C   0  0  0  0  0  0  0  0  0  0  0  0
   38.3650   26.2580   42.9820 C   0  0  0  0  0  0  0  0  0  0  0  0
   39.4760   26.6970   43.6790 N   0  0  0  0  0  0  0  0  0  0  0  0
   40.6420   26.0060   43.6380 C   0  0  0  0  0  0  0  0  0  0  0  0
   40.7080   24.8810   42.9100 N   0  0  0  0  0  0  0  0  0  0  0  0
   39.7780   23.5280   41.6690 H   0  0  0  0  0  0  0  0  0  0  0  0
   41.3650   26.5250   44.2480 H   0  0  0  0  0  0  0  0  0  0  0  0
   37.1110   27.0900   42.9520 C   0  0  0  0  0  0  0  0  0  0  0  0
   37.3240   28.4270   43.6800 C   0  0  0  0  0  0  0  0  0  0  0  0
   37.0960   28.2780   42.1470 C   0  0  0  0  0  0  0  0  0  0  0  0
   36.2310   26.5790   43.3600 H   0  0  0  0  0  0  0  0  0  0  0  0
   38.3390   28.6370   44.0220 H   0  0  0  0  0  0  0  0  0  0  0  0
   36.5080   28.8800   44.2440 H   0  0  0  0  0  0  0  0  0  0  0  0
   36.1320   28.7390   41.7790 H   0  0  0  0  0  0  0  0  0  0  0  0
   37.9850   28.6490   41.5660 H   0  0  0  0  0  0  0  0  0  0  0  0
   37.2810   24.5520   41.4330 C   0  0  0  0  0  0  0  0  0  0  0  0
   37.0430   25.3060   40.3010 F   0  0  0  0  0  0  0  0  0  0  0  0
   36.1400   24.3810   42.1850 F   0  0  0  0  0  0  0  0  0  0  0  0
   37.6380   23.2940   40.9830 F   0  0  0  0  0  0  0  0  0  0  0  0
  1  6  1  0  0  0  0
  2  1  2  0  0  0  0
  2  3  1  0  0  0  0
  3  4  2  0  0  0  0
  5  4  1  0  0  0  0
  5  8  1  0  0  0  0
  6  5  2  0  0  0  0
  7  1  1  0  0  0  0
  9  3  1  0  0  0  0
  9 12  1  0  0  0  0
  9 10  1  0  0  0  0
 10 13  1  0  0  0  0
 10 14  1  0  0  0  0
 11  9  1  0  0  0  0
 11 10  1  0  0  0  0
 15 11  1  0  0  0  0
 16 11  1  0  0  0  0
 17 19  1  0  0  0  0
 17  2  1  0  0  0  0
 18 17  1  0  0  0  0
 20 17  1  0  0  0  0
M  END
>  <minimizedAffinity>
-4.00354576

$$$$

 OpenBabel03252509213D

 20 21  0  0  0  0  0  0  0  0999 V2000
   37.6440   28.7740   40.7630 C   0  0  0  0  0  0  0  0  0  0  0  0
   37.3880   27.6720   41.6440 C   0  0  0  0  0  0  0  0  0  0  0  0
   37.1550   26.4790   40.9890 C   0  0  0  0  0  0  0  0  0  0  0  0
   37.1730   26.3760   39.6100 N   0  0  0  0  0  0  0  0  0  0  0  0
   37.4240   27.4580   38.8330 C   0  0  0  0  0  0  0  0  0  0  0  0
   37.6560   28.6420   39.4200 N   0  0  0  0  0  0  0  0  0  0  0  0
   37.8380   29.7480   41.1450 H   0  0  0  0  0  0  0  0  0  0  0  0
   37.3900   27.1480   37.8000 H   0  0  0  0  0  0  0  0  0  0  0  0
   36.9790   25.2500   41.8400 C   0  0  0  0  0  0  0  0  0  0  0  0
   36.5750   24.0430   40.9790 C   0  0  0  0  0  0  0  0  0  0  0  0
   37.9370   24.1900   41.7180 C   0  0  0  0  0  0  0  0  0  0  0  0
   36.2630   25.3790   42.6610 H   0  0  0  0  0  0  0  0  0  0  0  0
   36.5660   24.1970   39.8990 H   0  0  0  0  0  0  0  0  0  0  0  0
   35.8930   23.2900   41.3770 H   0  0  0  0  0  0  0  0  0  0  0  0
   38.0980   23.4310   42.5410 H   0  0  0  0  0  0  0  0  0  0  0  0
   38.7950   24.2050   40.9910 H   0  0  0  0  0  0  0  0  0  0  0  0
   37.4050   27.9060   43.0840 C   0  0  0  0  0  0  0  0  0  0  0  0
   38.4750   27.2670   43.6800 F   0  0  0  0  0  0  0  0  0  0  0  0
   36.2100   27.5690   43.6790 F   0  0  0  0  0  0  0  0  0  0  0  0
   37.5870   29.2560   43.3220 F   0  0  0  0  0  0  0  0  0  0  0  0
  1  7  1  0  0  0  0
  1  2  1  0  0  0  0
  2 17  1  0  0  0  0
  3  2  2  0  0  0  0
  3  9  1  0  0  0  0
  4  3  1  0  0  0  0
  5  6  1  0  0  0  0
  5  4  2  0  0  0  0
  6  1  2  0  0  0  0
  8  5  1  0  0  0  0
  9 12  1  0  0  0  0
 10 14  1  0  0  0  0
 10 11  1  0  0  0  0
 10  9  1  0  0  0  0
 11  9  1  0  0  0  0
 11 15  1  0  0  0  0
 13 10  1  0  0  0  0
 16 11  1  0  0  0  0
 17 20  1  0  0  0  0
 17 19  1  0  0  0  0
 17 18  1  0  0  0  0
M  END
>  <minimizedAffinity>
-3.99217367

$$$$

 OpenBabel03252509213D

 20 21  0  0  0  0  0  0  0  0999 V2000
   38.2210   30.9650   40.7890 C   0  0  0  0  0  0  0  0  0  0  0  0
   37.2870   29.8860   40.9190 C   0  0  0  0  0  0  0  0  0  0  0  0
   37.5120   29.0860   42.0230 C   0  0  0  0  0  0  0  0  0  0  0  0
   38.5460   29.3230   42.9100 N   0  0  0  0  0  0  0  0  0  0  0  0
   39.3950   30.3650   42.7300 C   0  0  0  0  0  0  0  0  0  0  0  0
   39.2210   31.1720   41.6710 N   0  0  0  0  0  0  0  0  0  0  0  0
   38.1550   31.6520   39.9790 H   0  0  0  0  0  0  0  0  0  0  0  0
   40.1150   30.3580   43.5330 H   0  0  0  0  0  0  0  0  0  0  0  0
   36.5160   27.9910   42.2930 C   0  0  0  0  0  0  0  0  0  0  0  0
   37.2230   26.6350   42.4470 C   0  0  0  0  0  0  0  0  0  0  0  0
   36.4940   27.3920   43.5960 C   0  0  0  0  0  0  0  0  0  0  0  0
   35.7250   27.9150   41.5370 H   0  0  0  0  0  0  0  0  0  0  0  0
   38.3150   26.6530   42.4430 H   0  0  0  0  0  0  0  0  0  0  0  0
   36.7420   25.7220   42.0930 H   0  0  0  0  0  0  0  0  0  0  0  0
   35.5810   26.8550   43.9930 H   0  0  0  0  0  0  0  0  0  0  0  0
   37.2090   27.6650   44.4210 H   0  0  0  0  0  0  0  0  0  0  0  0
   36.2320   29.7450   39.9230 C   0  0  0  0  0  0  0  0  0  0  0  0
   36.3090   30.7430   38.9700 F   0  0  0  0  0  0  0  0  0  0  0  0
   34.9810   29.6790   40.4950 F   0  0  0  0  0  0  0  0  0  0  0  0
   36.4070   28.5550   39.2400 F   0  0  0  0  0  0  0  0  0  0  0  0
  1  2  2  0  0  0  0
  1  6  1  0  0  0  0
  2  3  1  0  0  0  0
  3  9  1  0  0  0  0
  3  4  2  0  0  0  0
  5  4  1  0  0  0  0
  5  8  1  0  0  0  0
  6  5  2  0  0  0  0
  7  1  1  0  0  0  0
  9 10  1  0  0  0  0
  9 11  1  0  0  0  0
 10 11  1  0  0  0  0
 11 15  1  0  0  0  0
 11 16  1  0  0  0  0
 12  9  1  0  0  0  0
 13 10  1  0  0  0  0
 14 10  1  0  0  0  0
 17 19  1  0  0  0  0
 17  2  1  0  0  0  0
 18 17  1  0  0  0  0
 20 17  1  0  0  0  0
M  END
>  <minimizedAffinity>
-3.97862697

$$$$

 OpenBabel03252509213D

 20 21  0  0  0  0  0  0  0  0999 V2000
   38.9550   31.0220   41.7820 C   0  0  0  0  0  0  0  0  0  0  0  0
   38.0450   29.9160   41.8530 C   0  0  0  0  0  0  0  0  0  0  0  0
   36.8840   30.1040   41.1290 C   0  0  0  0  0  0  0  0  0  0  0  0
   36.6400   31.2590   40.4070 N   0  0  0  0  0  0  0  0  0  0  0  0
   37.5450   32.2680   40.3800 C   0  0  0  0  0  0  0  0  0  0  0  0
   38.6900   32.1360   41.0680 N   0  0  0  0  0  0  0  0  0  0  0  0
   39.8850   31.0000   42.2980 H   0  0  0  0  0  0  0  0  0  0  0  0
   37.1510   33.0600   39.7620 H   0  0  0  0  0  0  0  0  0  0  0  0
   35.9190   28.9510   41.0640 C   0  0  0  0  0  0  0  0  0  0  0  0
   34.7870   29.2410   40.0660 C   0  0  0  0  0  0  0  0  0  0  0  0
   35.8850   28.1530   39.8730 C   0  0  0  0  0  0  0  0  0  0  0  0
   35.4960   28.6730   42.0370 H   0  0  0  0  0  0  0  0  0  0  0  0
   34.8770   30.1590   39.4820 H   0  0  0  0  0  0  0  0  0  0  0  0
   33.7780   28.8750   40.2600 H   0  0  0  0  0  0  0  0  0  0  0  0
   35.4870   27.0940   39.8730 H   0  0  0  0  0  0  0  0  0  0  0  0
   36.5100   28.3630   38.9630 H   0  0  0  0  0  0  0  0  0  0  0  0
   38.4200   28.7480   42.6410 C   0  0  0  0  0  0  0  0  0  0  0  0
   39.6540   28.9220   43.2360 F   0  0  0  0  0  0  0  0  0  0  0  0
   38.3640   27.5850   41.9060 F   0  0  0  0  0  0  0  0  0  0  0  0
   37.5180   28.5920   43.6780 F   0  0  0  0  0  0  0  0  0  0  0  0
  1  2  1  0  0  0  0
  1  7  1  0  0  0  0
  2 17  1  0  0  0  0
  3  2  2  0  0  0  0
  4  3  1  0  0  0  0
  5  4  2  0  0  0  0
  5  6  1  0  0  0  0
  6  1  2  0  0  0  0
  8  5  1  0  0  0  0
  9  3  1  0  0  0  0
  9 12  1  0  0  0  0
 10 14  1  0  0  0  0
 10  9  1  0  0  0  0
 11 15  1  0  0  0  0
 11 10  1  0  0  0  0
 11  9  1  0  0  0  0
 13 10  1  0  0  0  0
 16 11  1  0  0  0  0
 17 18  1  0  0  0  0
 17 20  1  0  0  0  0
 19 17  1  0  0  0  0
M  END
>  <minimizedAffinity>
-3.92302179

$$$$

 OpenBabel03252509213D

 20 21  0  0  0  0  0  0  0  0999 V2000
   38.7130   26.6470   41.1180 C   0  0  0  0  0  0  0  0  0  0  0  0
   37.6180   27.4650   41.5510 C   0  0  0  0  0  0  0  0  0  0  0  0
   36.8490   27.9570   40.5150 C   0  0  0  0  0  0  0  0  0  0  0  0
   37.1230   27.6730   39.1890 N   0  0  0  0  0  0  0  0  0  0  0  0
   38.1750   26.8890   38.8480 C   0  0  0  0  0  0  0  0  0  0  0  0
   38.9550   26.3870   39.8170 N   0  0  0  0  0  0  0  0  0  0  0  0
   39.3810   26.2090   41.8220 H   0  0  0  0  0  0  0  0  0  0  0  0
   38.1970   26.8020   37.7730 H   0  0  0  0  0  0  0  0  0  0  0  0
   35.6190   28.7410   40.8840 C   0  0  0  0  0  0  0  0  0  0  0  0
   35.7840   30.2240   40.5160 C   0  0  0  0  0  0  0  0  0  0  0  0
   34.7860   29.2460   39.8310 C   0  0  0  0  0  0  0  0  0  0  0  0
   35.3350   28.6490   41.9400 H   0  0  0  0  0  0  0  0  0  0  0  0
   36.6900   30.4900   39.9670 H   0  0  0  0  0  0  0  0  0  0  0  0
   35.3420   30.9980   41.1460 H   0  0  0  0  0  0  0  0  0  0  0  0
   33.6990   29.5060   39.9990 H   0  0  0  0  0  0  0  0  0  0  0  0
   35.0220   29.1250   38.7370 H   0  0  0  0  0  0  0  0  0  0  0  0
   37.4270   27.6850   42.9800 C   0  0  0  0  0  0  0  0  0  0  0  0
   36.2330   27.1410   43.4130 F   0  0  0  0  0  0  0  0  0  0  0  0
   37.5390   29.0140   43.3220 F   0  0  0  0  0  0  0  0  0  0  0  0
   38.4200   27.0230   43.6780 F   0  0  0  0  0  0  0  0  0  0  0  0
  1  2  1  0  0  0  0
  1  7  1  0  0  0  0
  2 17  1  0  0  0  0
  3  9  1  0  0  0  0
  3  2  2  0  0  0  0
  4  3  1  0  0  0  0
  5  4  2  0  0  0  0
  5  6  1  0  0  0  0
  6  1  2  0  0  0  0
  8  5  1  0  0  0  0
  9 12  1  0  0  0  0
 10  9  1  0  0  0  0
 10 14  1  0  0  0  0
 11 15  1  0  0  0  0
 11 10  1  0  0  0  0
 11  9  1  0  0  0  0
 13 10  1  0  0  0  0
 16 11  1  0  0  0  0
 17 19  1  0  0  0  0
 17 18  1  0  0  0  0
 17 20  1  0  0  0  0
M  END
>  <minimizedAffinity>
-3.88933802

$$$$

 OpenBabel03252509213D

 20 21  0  0  0  0  0  0  0  0999 V2000
   36.5920   26.0760   39.5160 C   0  0  0  0  0  0  0  0  0  0  0  0
   36.9690   26.0110   40.8980 C   0  0  0  0  0  0  0  0  0  0  0  0
   36.9170   27.2300   41.5460 C   0  0  0  0  0  0  0  0  0  0  0  0
   36.5320   28.3940   40.9040 N   0  0  0  0  0  0  0  0  0  0  0  0
   36.1860   28.3860   39.5940 C   0  0  0  0  0  0  0  0  0  0  0  0
   36.2210   27.2270   38.9170 N   0  0  0  0  0  0  0  0  0  0  0  0
   36.5930   25.2040   38.9070 H   0  0  0  0  0  0  0  0  0  0  0  0
   35.9240   29.3920   39.3070 H   0  0  0  0  0  0  0  0  0  0  0  0
   37.1970   27.2360   43.0240 C   0  0  0  0  0  0  0  0  0  0  0  0
   38.6480   27.6560   43.3050 C   0  0  0  0  0  0  0  0  0  0  0  0
   37.3920   28.4960   43.6800 C   0  0  0  0  0  0  0  0  0  0  0  0
   36.9830   26.2800   43.5190 H   0  0  0  0  0  0  0  0  0  0  0  0
   39.2350   27.9800   42.4430 H   0  0  0  0  0  0  0  0  0  0  0  0
   39.1950   27.2130   44.1380 H   0  0  0  0  0  0  0  0  0  0  0  0
   37.2390   28.6230   44.7930 H   0  0  0  0  0  0  0  0  0  0  0  0
   37.3900   29.4850   43.1440 H   0  0  0  0  0  0  0  0  0  0  0  0
   37.3470   24.7210   41.4640 C   0  0  0  0  0  0  0  0  0  0  0  0
   36.5560   24.4020   42.5500 F   0  0  0  0  0  0  0  0  0  0  0  0
   38.6880   24.6610   41.7700 F   0  0  0  0  0  0  0  0  0  0  0  0
   37.1210   23.7310   40.5250 F   0  0  0  0  0  0  0  0  0  0  0  0
  1  2  1  0  0  0  0
  2 17  1  0  0  0  0
  2  3  2  0  0  0  0
  3  9  1  0  0  0  0
  4  3  1  0  0  0  0
  5  4  2  0  0  0  0
  6  1  2  0  0  0  0
  6  5  1  0  0  0  0
  7  1  1  0  0  0  0
  8  5  1  0  0  0  0
  9 10  1  0  0  0  0
  9 12  1  0  0  0  0
  9 11  1  0  0  0  0
 10 11  1  0  0  0  0
 10 14  1  0  0  0  0
 11 15  1  0  0  0  0
 13 10  1  0  0  0  0
 16 11  1  0  0  0  0
 17 19  1  0  0  0  0
 17 18  1  0  0  0  0
 20 17  1  0  0  0  0
M  END
>  <minimizedAffinity>
-3.88455749

$$$$
