
 OpenBabel03252509213D

 20 21  0  0  0  0  0  0  0  0999 V2000
   44.8540   35.2310   45.0120 C   0  0  0  0  0  0  0  0  0  0  0  0
   45.6260   34.8300   43.8730 C   0  0  0  0  0  0  0  0  0  0  0  0
   46.3530   33.6740   44.0750 C   0  0  0  0  0  0  0  0  0  0  0  0
   46.3250   32.9800   45.2710 N   0  0  0  0  0  0  0  0  0  0  0  0
   45.5700   33.4140   46.3110 C   0  0  0  0  0  0  0  0  0  0  0  0
   44.8450   34.5340   46.1670 N   0  0  0  0  0  0  0  0  0  0  0  0
   44.2510   36.1080   44.9840 H   0  0  0  0  0  0  0  0  0  0  0  0
   45.6980   32.7260   47.1320 H   0  0  0  0  0  0  0  0  0  0  0  0
   47.1120   33.1240   42.8970 C   0  0  0  0  0  0  0  0  0  0  0  0
   48.6190   33.3830   43.0470 C   0  0  0  0  0  0  0  0  0  0  0  0
   47.9510   31.9780   43.0970 C   0  0  0  0  0  0  0  0  0  0  0  0
   46.7630   33.5040   41.9290 H   0  0  0  0  0  0  0  0  0  0  0  0
   48.9440   33.8220   43.9920 H   0  0  0  0  0  0  0  0  0  0  0  0
   49.2290   33.5930   42.1680 H   0  0  0  0  0  0  0  0  0  0  0  0
   48.2480   31.2970   42.2440 H   0  0  0  0  0  0  0  0  0  0  0  0
   48.1090   31.4870   44.0970 H   0  0  0  0  0  0  0  0  0  0  0  0
   45.5660   35.6410   42.6620 C   0  0  0  0  0  0  0  0  0  0  0  0
   44.9830   36.8680   42.9130 F   0  0  0  0  0  0  0  0  0  0  0  0
   44.9460   34.9810   41.6250 F   0  0  0  0  0  0  0  0  0  0  0  0
   46.8510   35.9120   42.2330 F   0  0  0  0  0  0  0  0  0  0  0  0
  1  6  1  0  0  0  0
  2  3  1  0  0  0  0
  2  1  2  0  0  0  0
  3  4  2  0  0  0  0
  4  5  1  0  0  0  0
  5  8  1  0  0  0  0
  6  5  2  0  0  0  0
  7  1  1  0  0  0  0
  9 10  1  0  0  0  0
  9 11  1  0  0  0  0
  9  3  1  0  0  0  0
 10 11  1  0  0  0  0
 10 13  1  0  0  0  0
 11 16  1  0  0  0  0
 12  9  1  0  0  0  0
 14 10  1  0  0  0  0
 15 11  1  0  0  0  0
 17 18  1  0  0  0  0
 17  2  1  0  0  0  0
 19 17  1  0  0  0  0
 20 17  1  0  0  0  0
M  END
>  <minimizedAffinity>
-3.87447309

>  <minimizedRMSD>
1.66962194

$$$$
