
 OpenBabel03252509113D

 26 28  0  0  0  0  0  0  0  0999 V2000
   47.5590   32.2230   44.3510 C   0  0  0  0  0  0  0  0  0  0  0  0
   46.9390   33.3610   43.8340 C   0  0  0  0  0  0  0  0  0  0  0  0
   45.9850   34.0940   44.5280 C   0  0  0  0  0  0  0  0  0  0  0  0
   45.6230   33.6740   45.8150 C   0  0  0  0  0  0  0  0  0  0  0  0
   44.7650   34.0880   46.7670 N   0  0  0  0  0  0  0  0  0  0  0  0
   44.8340   33.2590   47.8340 C   0  0  0  0  0  0  0  0  0  0  0  0
   45.7500   32.3250   47.5250 N   0  0  0  0  0  0  0  0  0  0  0  0
   46.2570   32.5350   46.3070 C   0  0  0  0  0  0  0  0  0  0  0  0
   47.2110   31.7930   45.6270 C   0  0  0  0  0  0  0  0  0  0  0  0
   48.2900   31.6920   43.7770 H   0  0  0  0  0  0  0  0  0  0  0  0
   44.1330   34.8810   46.7620 H   0  0  0  0  0  0  0  0  0  0  0  0
   44.2640   33.3290   48.7620 H   0  0  0  0  0  0  0  0  0  0  0  0
   47.6480   30.9250   46.0910 H   0  0  0  0  0  0  0  0  0  0  0  0
   46.9240   33.8190   40.1870 C   0  0  0  0  0  0  0  0  0  0  0  0
   47.9980   34.6760   39.9770 C   0  0  0  0  0  0  0  0  0  0  0  0
   48.7250   35.0930   41.0970 C   0  0  0  0  0  0  0  0  0  0  0  0
   48.3520   34.6440   42.3380 N   0  0  0  0  0  0  0  0  0  0  0  0
   47.3070   33.8160   42.5100 C   0  0  0  0  0  0  0  0  0  0  0  0
   46.6310   33.4320   41.4360 N   0  0  0  0  0  0  0  0  0  0  0  0
   46.2880   33.4270   39.4200 H   0  0  0  0  0  0  0  0  0  0  0  0
   48.2240   34.9780   38.9810 H   0  0  0  0  0  0  0  0  0  0  0  0
   49.5640   35.7560   40.9690 H   0  0  0  0  0  0  0  0  0  0  0  0
   45.2620   35.2730   44.0460 C   0  0  0  0  0  0  0  0  0  0  0  0
   44.7540   35.9720   45.1160 F   0  0  0  0  0  0  0  0  0  0  0  0
   45.9050   36.0660   43.1620 F   0  0  0  0  0  0  0  0  0  0  0  0
   44.1730   34.7440   43.2960 F   0  0  0  0  0  0  0  0  0  0  0  0
  1  9  1  0  0  0  0
  2  1  2  0  0  0  0
  2  3  1  0  0  0  0
  3  4  2  0  0  0  0
  4  8  1  0  0  0  0
  4  5  1  0  0  0  0
  5  6  1  0  0  0  0
  6 12  1  0  0  0  0
  7  6  2  0  0  0  0
  8  7  1  0  0  0  0
  9 13  1  0  0  0  0
  9  8  2  0  0  0  0
 10  1  1  0  0  0  0
 11  5  1  0  0  0  0
 14 19  1  0  0  0  0
 15 14  2  0  0  0  0
 15 16  1  0  0  0  0
 16 17  2  0  0  0  0
 17 18  1  0  0  0  0
 18  2  1  0  0  0  0
 19 18  2  0  0  0  0
 20 14  1  0  0  0  0
 21 15  1  0  0  0  0
 22 16  1  0  0  0  0
 23  3  1  0  0  0  0
 23 24  1  0  0  0  0
 25 23  1  0  0  0  0
 26 23  1  0  0  0  0
M  END
>  <minimizedAffinity>
-5.50184679

>  <minimizedRMSD>
2.02771473

$$$$
