
 OpenBabel03242522043D

 30 31  0  0  1  0  0  0  0  0999 V2000
   39.5130   31.0330   40.6210 N   0  0  0  0  0  0  0  0  0  0  0  0
   40.2180   30.9800   39.3590 C   0  0  0  0  0  0  0  0  0  0  0  0
   40.6680   32.3320   38.9070 C   0  0  0  0  0  0  0  0  0  0  0  0
   39.6450   33.3030   38.9010 N   0  0  0  0  0  0  0  0  0  0  0  0
   38.6990   33.2560   39.9620 C   0  0  2  0  0  0  0  0  0  0  0  0
   38.9130   32.2640   41.0330 C   0  0  0  0  0  0  0  0  0  0  0  0
   39.4640   30.6310   38.6070 H   0  0  0  0  0  0  0  0  0  0  0  0
   41.0480   30.2660   39.3650 H   0  0  0  0  0  0  0  0  0  0  0  0
   41.5120   32.6400   39.5610 H   0  0  0  0  0  0  0  0  0  0  0  0
   41.0650   32.2190   37.8730 H   0  0  0  0  0  0  0  0  0  0  0  0
   39.9770   34.2250   38.6230 H   0  0  0  0  0  0  0  0  0  0  0  0
   38.6360   34.2740   40.4280 H   0  0  0  0  0  0  0  0  0  0  0  0
   39.5000   32.7430   41.8690 H   0  0  0  0  0  0  0  0  0  0  0  0
   37.9430   32.0060   41.5090 H   0  0  0  0  0  0  0  0  0  0  0  0
   40.2760   28.2090   42.9670 C   0  0  0  0  0  0  0  0  0  0  0  0
   40.4870   29.3490   42.1830 C   0  0  0  0  0  0  0  0  0  0  0  0
   39.4150   29.8860   41.4450 C   0  0  0  0  0  0  0  0  0  0  0  0
   38.2380   29.2360   41.5580 N   0  0  0  0  0  0  0  0  0  0  0  0
   38.0560   28.1390   42.3200 C   0  0  0  0  0  0  0  0  0  0  0  0
   39.0700   27.6220   43.0250 N   0  0  0  0  0  0  0  0  0  0  0  0
   41.1330   27.8370   43.5160 H   0  0  0  0  0  0  0  0  0  0  0  0
   41.4390   29.8520   42.1080 H   0  0  0  0  0  0  0  0  0  0  0  0
   36.7080   27.4890   42.3800 C   0  0  0  0  0  0  0  0  0  0  0  0
   36.2830   27.3860   43.6790 F   0  0  0  0  0  0  0  0  0  0  0  0
   35.8070   28.2910   41.6990 F   0  0  0  0  0  0  0  0  0  0  0  0
   36.8070   26.2220   41.8520 F   0  0  0  0  0  0  0  0  0  0  0  0
   37.3320   32.9720   39.3440 C   0  0  0  0  0  0  0  0  0  0  0  0
   36.6330   34.1610   39.1650 F   0  0  0  0  0  0  0  0  0  0  0  0
   36.6250   32.2620   40.3020 F   0  0  0  0  0  0  0  0  0  0  0  0
   37.4060   32.3340   38.1480 F   0  0  0  0  0  0  0  0  0  0  0  0
  1  6  1  0  0  0  0
  1 17  1  0  0  0  0
  2  8  1  0  0  0  0
  2  1  1  0  0  0  0
  3  2  1  0  0  0  0
  3  9  1  0  0  0  0
  4  3  1  0  0  0  0
  4  5  1  0  0  0  0
  5 12  1  1  0  0  0
  5  6  1  0  0  0  0
  6 14  1  0  0  0  0
  6 13  1  0  0  0  0
  7  2  1  0  0  0  0
 10  3  1  0  0  0  0
 11  4  1  0  0  0  0
 15 20  1  0  0  0  0
 15 21  1  0  0  0  0
 16 15  2  0  0  0  0
 17 18  2  0  0  0  0
 17 16  1  0  0  0  0
 18 19  1  0  0  0  0
 19 23  1  0  0  0  0
 19 20  2  0  0  0  0
 22 16  1  0  0  0  0
 23 24  1  0  0  0  0
 25 23  1  0  0  0  0
 26 23  1  0  0  0  0
 27  5  1  0  0  0  0
 27 29  1  0  0  0  0
 28 27  1  0  0  0  0
 30 27  1  0  0  0  0
M  END
>  <minimizedAffinity>
-5.6404233

$$$$

 OpenBabel03242522043D

 30 31  0  0  1  0  0  0  0  0999 V2000
   37.7610   30.0840   40.1440 N   0  0  0  0  0  0  0  0  0  0  0  0
   36.6200   30.3620   39.3000 C   0  0  0  0  0  0  0  0  0  0  0  0
   37.0210   30.9180   37.9730 C   0  0  0  0  0  0  0  0  0  0  0  0
   37.8970   32.0210   38.0550 N   0  0  0  0  0  0  0  0  0  0  0  0
   38.8920   31.9840   39.0710 C   0  0  2  0  0  0  0  0  0  0  0  0
   38.9950   30.7620   39.8910 C   0  0  0  0  0  0  0  0  0  0  0  0
   36.0480   31.1730   39.8230 H   0  0  0  0  0  0  0  0  0  0  0  0
   35.9570   29.4980   39.1850 H   0  0  0  0  0  0  0  0  0  0  0  0
   37.4710   30.0910   37.3840 H   0  0  0  0  0  0  0  0  0  0  0  0
   36.0890   31.2360   37.4530 H   0  0  0  0  0  0  0  0  0  0  0  0
   38.1860   32.3660   37.1420 H   0  0  0  0  0  0  0  0  0  0  0  0
   39.8910   32.1800   38.5980 H   0  0  0  0  0  0  0  0  0  0  0  0
   39.7530   30.0680   39.4260 H   0  0  0  0  0  0  0  0  0  0  0  0
   39.4360   31.0070   40.8810 H   0  0  0  0  0  0  0  0  0  0  0  0
   37.6480   28.4980   43.5400 C   0  0  0  0  0  0  0  0  0  0  0  0
   37.7540   29.5010   42.5690 C   0  0  0  0  0  0  0  0  0  0  0  0
   37.6680   29.1550   41.2070 C   0  0  0  0  0  0  0  0  0  0  0  0
   37.4850   27.8440   40.9430 N   0  0  0  0  0  0  0  0  0  0  0  0
   37.3850   26.8940   41.8950 C   0  0  0  0  0  0  0  0  0  0  0  0
   37.4660   27.2150   43.1920 N   0  0  0  0  0  0  0  0  0  0  0  0
   37.7210   28.8190   44.5730 H   0  0  0  0  0  0  0  0  0  0  0  0
   37.9010   30.5440   42.8050 H   0  0  0  0  0  0  0  0  0  0  0  0
   37.1810   25.4630   41.4990 C   0  0  0  0  0  0  0  0  0  0  0  0
   36.4390   25.3860   40.3480 F   0  0  0  0  0  0  0  0  0  0  0  0
   38.4210   24.9010   41.2450 F   0  0  0  0  0  0  0  0  0  0  0  0
   36.4940   24.8230   42.5040 F   0  0  0  0  0  0  0  0  0  0  0  0
   38.6210   33.1500   40.0200 C   0  0  0  0  0  0  0  0  0  0  0  0
   37.3430   33.6530   39.8040 F   0  0  0  0  0  0  0  0  0  0  0  0
   39.4910   34.1580   39.6360 F   0  0  0  0  0  0  0  0  0  0  0  0
   38.7340   32.8120   41.3290 F   0  0  0  0  0  0  0  0  0  0  0  0
  1 17  1  0  0  0  0
  2  7  1  0  0  0  0
  2  1  1  0  0  0  0
  3  4  1  0  0  0  0
  3  2  1  0  0  0  0
  4  5  1  0  0  0  0
  5 12  1  6  0  0  0
  5  6  1  0  0  0  0
  5 27  1  0  0  0  0
  6  1  1  0  0  0  0
  6 14  1  0  0  0  0
  8  2  1  0  0  0  0
  9  3  1  0  0  0  0
 10  3  1  0  0  0  0
 11  4  1  0  0  0  0
 13  6  1  0  0  0  0
 15 21  1  0  0  0  0
 16 22  1  0  0  0  0
 16 15  2  0  0  0  0
 17 16  1  0  0  0  0
 18 17  2  0  0  0  0
 18 19  1  0  0  0  0
 19 20  2  0  0  0  0
 20 15  1  0  0  0  0
 23 19  1  0  0  0  0
 23 26  1  0  0  0  0
 24 23  1  0  0  0  0
 25 23  1  0  0  0  0
 27 30  1  0  0  0  0
 28 27  1  0  0  0  0
 29 27  1  0  0  0  0
M  END
>  <minimizedAffinity>
-5.22867346

$$$$

 OpenBabel03242522043D

 30 31  0  0  1  0  0  0  0  0999 V2000
   38.4200   29.8190   40.3960 N   0  0  0  0  0  0  0  0  0  0  0  0
   38.3210   29.4460   39.0020 C   0  0  0  0  0  0  0  0  0  0  0  0
   39.2570   30.2310   38.1410 C   0  0  0  0  0  0  0  0  0  0  0  0
   39.1670   31.6270   38.3220 N   0  0  0  0  0  0  0  0  0  0  0  0
   38.9580   32.0970   39.6480 C   0  0  2  0  0  0  0  0  0  0  0  0
   38.9490   31.1030   40.7380 C   0  0  0  0  0  0  0  0  0  0  0  0
   37.2850   29.7330   38.6860 H   0  0  0  0  0  0  0  0  0  0  0  0
   38.4410   28.3700   38.8410 H   0  0  0  0  0  0  0  0  0  0  0  0
   40.2860   29.8640   38.3430 H   0  0  0  0  0  0  0  0  0  0  0  0
   39.0130   29.9880   37.0820 H   0  0  0  0  0  0  0  0  0  0  0  0
   39.8340   32.1440   37.7520 H   0  0  0  0  0  0  0  0  0  0  0  0
   39.7380   32.8700   39.8790 H   0  0  0  0  0  0  0  0  0  0  0  0
   39.9890   31.0140   41.1660 H   0  0  0  0  0  0  0  0  0  0  0  0
   38.3460   31.4820   41.5910 H   0  0  0  0  0  0  0  0  0  0  0  0
   37.3640   28.3470   43.6800 C   0  0  0  0  0  0  0  0  0  0  0  0
   37.7770   29.3110   42.7520 C   0  0  0  0  0  0  0  0  0  0  0  0
   38.0020   28.9300   41.4160 C   0  0  0  0  0  0  0  0  0  0  0  0
   37.7950   27.6270   41.1320 N   0  0  0  0  0  0  0  0  0  0  0  0
   37.3960   26.7150   42.0410 C   0  0  0  0  0  0  0  0  0  0  0  0
   37.1800   27.0690   43.3130 N   0  0  0  0  0  0  0  0  0  0  0  0
   37.2040   28.6920   44.6940 H   0  0  0  0  0  0  0  0  0  0  0  0
   37.9360   30.3480   43.0040 H   0  0  0  0  0  0  0  0  0  0  0  0
   37.1930   25.2900   41.6250 C   0  0  0  0  0  0  0  0  0  0  0  0
   36.4560   24.6170   42.5660 F   0  0  0  0  0  0  0  0  0  0  0  0
   36.4800   25.2800   40.4380 F   0  0  0  0  0  0  0  0  0  0  0  0
   38.4230   24.6830   41.5200 F   0  0  0  0  0  0  0  0  0  0  0  0
   37.6100   32.8140   39.6730 C   0  0  0  0  0  0  0  0  0  0  0  0
   36.9860   32.6990   38.4350 F   0  0  0  0  0  0  0  0  0  0  0  0
   37.9010   34.1610   39.8210 F   0  0  0  0  0  0  0  0  0  0  0  0
   36.7670   32.3380   40.6240 F   0  0  0  0  0  0  0  0  0  0  0  0
  1  6  1  0  0  0  0
  1 17  1  0  0  0  0
  2  1  1  0  0  0  0
  3  4  1  0  0  0  0
  3  9  1  0  0  0  0
  3  2  1  0  0  0  0
  4  5  1  0  0  0  0
  5 27  1  0  0  0  0
  5 12  1  1  0  0  0
  5  6  1  0  0  0  0
  6 13  1  0  0  0  0
  6 14  1  0  0  0  0
  7  2  1  0  0  0  0
  8  2  1  0  0  0  0
 10  3  1  0  0  0  0
 11  4  1  0  0  0  0
 15 21  1  0  0  0  0
 16 22  1  0  0  0  0
 16 15  2  0  0  0  0
 17 16  1  0  0  0  0
 18 17  2  0  0  0  0
 18 19  1  0  0  0  0
 19 20  2  0  0  0  0
 20 15  1  0  0  0  0
 23 19  1  0  0  0  0
 23 24  1  0  0  0  0
 25 23  1  0  0  0  0
 26 23  1  0  0  0  0
 27 29  1  0  0  0  0
 27 30  1  0  0  0  0
 28 27  1  0  0  0  0
M  END
>  <minimizedAffinity>
-5.22175455

$$$$

 OpenBabel03242522043D

 30 31  0  0  1  0  0  0  0  0999 V2000
   39.1910   26.8780   42.1850 N   0  0  0  0  0  0  0  0  0  0  0  0
   39.3820   26.1940   43.4460 C   0  0  0  0  0  0  0  0  0  0  0  0
   39.7920   24.7700   43.2580 C   0  0  0  0  0  0  0  0  0  0  0  0
   38.9560   24.0430   42.3840 N   0  0  0  0  0  0  0  0  0  0  0  0
   38.4570   24.7310   41.2430 C   0  0  2  0  0  0  0  0  0  0  0  0
   38.9270   26.1100   41.0090 C   0  0  0  0  0  0  0  0  0  0  0  0
   38.3720   26.1710   43.9320 H   0  0  0  0  0  0  0  0  0  0  0  0
   40.0700   26.7210   44.1150 H   0  0  0  0  0  0  0  0  0  0  0  0
   40.8440   24.7680   42.9020 H   0  0  0  0  0  0  0  0  0  0  0  0
   39.7730   24.2860   44.2600 H   0  0  0  0  0  0  0  0  0  0  0  0
   39.2690   23.0850   42.2420 H   0  0  0  0  0  0  0  0  0  0  0  0
   38.6850   24.1180   40.3310 H   0  0  0  0  0  0  0  0  0  0  0  0
   39.8270   26.0830   40.3290 H   0  0  0  0  0  0  0  0  0  0  0  0
   38.1710   26.6720   40.4200 H   0  0  0  0  0  0  0  0  0  0  0  0
   40.3110   30.4470   42.4640 C   0  0  0  0  0  0  0  0  0  0  0  0
   40.3430   29.0530   42.5940 C   0  0  0  0  0  0  0  0  0  0  0  0
   39.2640   28.2900   42.1080 C   0  0  0  0  0  0  0  0  0  0  0  0
   38.2570   28.9870   41.5420 N   0  0  0  0  0  0  0  0  0  0  0  0
   38.2470   30.3310   41.4260 C   0  0  0  0  0  0  0  0  0  0  0  0
   39.2690   31.0630   41.8850 N   0  0  0  0  0  0  0  0  0  0  0  0
   41.1660   30.9860   42.8540 H   0  0  0  0  0  0  0  0  0  0  0  0
   41.1600   28.5170   43.0520 H   0  0  0  0  0  0  0  0  0  0  0  0
   37.0800   31.0130   40.7790 C   0  0  0  0  0  0  0  0  0  0  0  0
   37.2980   32.3640   40.7020 F   0  0  0  0  0  0  0  0  0  0  0  0
   36.9530   30.5280   39.4880 F   0  0  0  0  0  0  0  0  0  0  0  0
   35.9610   30.7940   41.5490 F   0  0  0  0  0  0  0  0  0  0  0  0
   36.9360   24.7820   41.3680 C   0  0  0  0  0  0  0  0  0  0  0  0
   36.3640   23.7230   40.6690 F   0  0  0  0  0  0  0  0  0  0  0  0
   36.5410   25.9290   40.6980 F   0  0  0  0  0  0  0  0  0  0  0  0
   36.5010   24.7320   42.6520 F   0  0  0  0  0  0  0  0  0  0  0  0
  1  2  1  0  0  0  0
  2  7  1  0  0  0  0
  2  8  1  0  0  0  0
  3  2  1  0  0  0  0
  3 10  1  0  0  0  0
  4  3  1  0  0  0  0
  5 12  1  6  0  0  0
  5 27  1  0  0  0  0
  5  4  1  0  0  0  0
  6  5  1  0  0  0  0
  6  1  1  0  0  0  0
  9  3  1  0  0  0  0
 11  4  1  0  0  0  0
 13  6  1  0  0  0  0
 14  6  1  0  0  0  0
 15 16  1  0  0  0  0
 15 21  1  0  0  0  0
 16 22  1  0  0  0  0
 17  1  1  0  0  0  0
 17 16  2  0  0  0  0
 18 17  1  0  0  0  0
 19 18  2  0  0  0  0
 19 20  1  0  0  0  0
 20 15  2  0  0  0  0
 23 19  1  0  0  0  0
 23 26  1  0  0  0  0
 24 23  1  0  0  0  0
 25 23  1  0  0  0  0
 27 30  1  0  0  0  0
 28 27  1  0  0  0  0
 29 27  1  0  0  0  0
M  END
>  <minimizedAffinity>
-5.19534779

$$$$

 OpenBabel03242522043D

 30 31  0  0  1  0  0  0  0  0999 V2000
   39.3170   30.6440   39.2520 N   0  0  0  0  0  0  0  0  0  0  0  0
   38.1600   31.3840   38.8000 C   0  0  0  0  0  0  0  0  0  0  0  0
   38.2130   31.6750   37.3350 C   0  0  0  0  0  0  0  0  0  0  0  0
   39.4200   32.2730   36.9140 N   0  0  0  0  0  0  0  0  0  0  0  0
   40.6190   31.8160   37.5280 C   0  0  2  0  0  0  0  0  0  0  0  0
   40.5210   30.6940   38.4820 C   0  0  0  0  0  0  0  0  0  0  0  0
   38.2130   32.3750   39.3210 H   0  0  0  0  0  0  0  0  0  0  0  0
   37.2150   30.9050   39.0760 H   0  0  0  0  0  0  0  0  0  0  0  0
   38.0270   30.7220   36.7970 H   0  0  0  0  0  0  0  0  0  0  0  0
   37.3700   32.3650   37.1050 H   0  0  0  0  0  0  0  0  0  0  0  0
   39.4510   32.4330   35.9090 H   0  0  0  0  0  0  0  0  0  0  0  0
   41.3470   31.5360   36.7230 H   0  0  0  0  0  0  0  0  0  0  0  0
   40.6920   29.7250   37.9300 H   0  0  0  0  0  0  0  0  0  0  0  0
   41.3640   30.7370   39.2040 H   0  0  0  0  0  0  0  0  0  0  0  0
   40.0820   29.1390   42.6010 C   0  0  0  0  0  0  0  0  0  0  0  0
   40.2300   29.9450   41.4660 C   0  0  0  0  0  0  0  0  0  0  0  0
   39.2680   29.8760   40.4400 C   0  0  0  0  0  0  0  0  0  0  0  0
   38.2530   29.0100   40.6420 N   0  0  0  0  0  0  0  0  0  0  0  0
   38.1290   28.2420   41.7440 C   0  0  0  0  0  0  0  0  0  0  0  0
   39.0400   28.3030   42.7230 N   0  0  0  0  0  0  0  0  0  0  0  0
   40.8490   29.2310   43.3600 H   0  0  0  0  0  0  0  0  0  0  0  0
   41.0520   30.6310   41.3270 H   0  0  0  0  0  0  0  0  0  0  0  0
   36.9630   27.3110   41.8740 C   0  0  0  0  0  0  0  0  0  0  0  0
   36.1090   27.7480   42.8540 F   0  0  0  0  0  0  0  0  0  0  0  0
   36.2710   27.3090   40.6750 F   0  0  0  0  0  0  0  0  0  0  0  0
   37.4320   26.0670   42.2270 F   0  0  0  0  0  0  0  0  0  0  0  0
   41.2280   33.0000   38.2780 C   0  0  0  0  0  0  0  0  0  0  0  0
   40.2240   33.7510   38.8800 F   0  0  0  0  0  0  0  0  0  0  0  0
   41.7770   33.8200   37.3040 F   0  0  0  0  0  0  0  0  0  0  0  0
   42.1180   32.6290   39.2320 F   0  0  0  0  0  0  0  0  0  0  0  0
  1 17  1  0  0  0  0
  2  8  1  0  0  0  0
  2  1  1  0  0  0  0
  2  7  1  0  0  0  0
  3  2  1  0  0  0  0
  4  3  1  0  0  0  0
  4  5  1  0  0  0  0
  5 12  1  6  0  0  0
  5 27  1  0  0  0  0
  5  6  1  0  0  0  0
  6 14  1  0  0  0  0
  6  1  1  0  0  0  0
  9  3  1  0  0  0  0
 10  3  1  0  0  0  0
 11  4  1  0  0  0  0
 13  6  1  0  0  0  0
 15 20  1  0  0  0  0
 15 21  1  0  0  0  0
 16 15  2  0  0  0  0
 17 18  2  0  0  0  0
 17 16  1  0  0  0  0
 18 19  1  0  0  0  0
 19 23  1  0  0  0  0
 19 20  2  0  0  0  0
 22 16  1  0  0  0  0
 23 26  1  0  0  0  0
 23 24  1  0  0  0  0
 25 23  1  0  0  0  0
 27 28  1  0  0  0  0
 27 30  1  0  0  0  0
 29 27  1  0  0  0  0
M  END
>  <minimizedAffinity>
-4.98076868

$$$$

 OpenBabel03242522043D

 30 31  0  0  1  0  0  0  0  0999 V2000
   38.0430   27.7610   41.5470 N   0  0  0  0  0  0  0  0  0  0  0  0
   38.1850   27.6860   42.9850 C   0  0  0  0  0  0  0  0  0  0  0  0
   39.1930   26.6640   43.4000 C   0  0  0  0  0  0  0  0  0  0  0  0
   38.9890   25.3930   42.8230 N   0  0  0  0  0  0  0  0  0  0  0  0
   38.5480   25.3570   41.4710 C   0  0  2  0  0  0  0  0  0  0  0  0
   38.4310   26.6390   40.7500 C   0  0  0  0  0  0  0  0  0  0  0  0
   37.1940   27.3280   43.3680 H   0  0  0  0  0  0  0  0  0  0  0  0
   38.3950   28.6590   43.4420 H   0  0  0  0  0  0  0  0  0  0  0  0
   40.1980   27.0640   43.1490 H   0  0  0  0  0  0  0  0  0  0  0  0
   39.1310   26.5710   44.5080 H   0  0  0  0  0  0  0  0  0  0  0  0
   39.7040   24.7180   43.0900 H   0  0  0  0  0  0  0  0  0  0  0  0
   39.2330   24.6840   40.8910 H   0  0  0  0  0  0  0  0  0  0  0  0
   39.3960   26.8440   40.2010 H   0  0  0  0  0  0  0  0  0  0  0  0
   37.6810   26.5480   39.9350 H   0  0  0  0  0  0  0  0  0  0  0  0
   36.4880   31.1150   40.9150 C   0  0  0  0  0  0  0  0  0  0  0  0
   36.9680   30.0110   41.6300 C   0  0  0  0  0  0  0  0  0  0  0  0
   37.5270   28.9250   40.9290 C   0  0  0  0  0  0  0  0  0  0  0  0
   37.5550   29.0430   39.5850 N   0  0  0  0  0  0  0  0  0  0  0  0
   37.0870   30.1170   38.9160 C   0  0  0  0  0  0  0  0  0  0  0  0
   36.5530   31.1520   39.5760 N   0  0  0  0  0  0  0  0  0  0  0  0
   36.0680   31.9220   41.5030 H   0  0  0  0  0  0  0  0  0  0  0  0
   36.9350   29.9390   42.7060 H   0  0  0  0  0  0  0  0  0  0  0  0
   37.1630   30.1530   37.4200 C   0  0  0  0  0  0  0  0  0  0  0  0
   37.3680   31.4360   36.9820 F   0  0  0  0  0  0  0  0  0  0  0  0
   38.2470   29.3890   37.0210 F   0  0  0  0  0  0  0  0  0  0  0  0
   35.9680   29.7020   36.9080 F   0  0  0  0  0  0  0  0  0  0  0  0
   37.1710   24.6980   41.4560 C   0  0  0  0  0  0  0  0  0  0  0  0
   36.5200   24.9260   42.6650 F   0  0  0  0  0  0  0  0  0  0  0  0
   37.4060   23.3330   41.4090 F   0  0  0  0  0  0  0  0  0  0  0  0
   36.3740   25.1410   40.4510 F   0  0  0  0  0  0  0  0  0  0  0  0
  1  2  1  0  0  0  0
  2  7  1  0  0  0  0
  2  3  1  0  0  0  0
  2  8  1  0  0  0  0
  3 10  1  0  0  0  0
  4 11  1  0  0  0  0
  4  3  1  0  0  0  0
  5 12  1  6  0  0  0
  5  4  1  0  0  0  0
  6  5  1  0  0  0  0
  6  1  1  0  0  0  0
  9  3  1  0  0  0  0
 13  6  1  0  0  0  0
 14  6  1  0  0  0  0
 15 21  1  0  0  0  0
 15 16  1  0  0  0  0
 16 22  1  0  0  0  0
 17  1  1  0  0  0  0
 17 16  2  0  0  0  0
 18 17  1  0  0  0  0
 19 20  1  0  0  0  0
 19 18  2  0  0  0  0
 20 15  2  0  0  0  0
 23 19  1  0  0  0  0
 24 23  1  0  0  0  0
 25 23  1  0  0  0  0
 26 23  1  0  0  0  0
 27  5  1  0  0  0  0
 27 28  1  0  0  0  0
 29 27  1  0  0  0  0
 30 27  1  0  0  0  0
M  END
>  <minimizedAffinity>
-4.93077374

$$$$

 OpenBabel03242522043D

 30 31  0  0  1  0  0  0  0  0999 V2000
   35.8240   29.3710   36.9320 N   0  0  0  0  0  0  0  0  0  0  0  0
   34.5370   28.8620   36.5110 C   0  0  0  0  0  0  0  0  0  0  0  0
   34.6550   27.9050   35.3690 C   0  0  0  0  0  0  0  0  0  0  0  0
   35.4090   28.3980   34.2840 N   0  0  0  0  0  0  0  0  0  0  0  0
   36.5540   29.1830   34.5930 C   0  0  2  0  0  0  0  0  0  0  0  0
   36.9200   29.3390   36.0140 C   0  0  0  0  0  0  0  0  0  0  0  0
   33.9740   29.7500   36.1220 H   0  0  0  0  0  0  0  0  0  0  0  0
   33.9610   28.4290   37.3350 H   0  0  0  0  0  0  0  0  0  0  0  0
   35.0890   26.9620   35.7660 H   0  0  0  0  0  0  0  0  0  0  0  0
   33.6220   27.6810   35.0190 H   0  0  0  0  0  0  0  0  0  0  0  0
   35.5060   27.7210   33.5300 H   0  0  0  0  0  0  0  0  0  0  0  0
   37.4350   28.7580   34.0430 H   0  0  0  0  0  0  0  0  0  0  0  0
   37.6630   28.5370   36.2940 H   0  0  0  0  0  0  0  0  0  0  0  0
   37.4870   30.2830   36.1570 H   0  0  0  0  0  0  0  0  0  0  0  0
   35.7300   29.9070   40.6420 C   0  0  0  0  0  0  0  0  0  0  0  0
   35.4880   29.3030   39.4030 C   0  0  0  0  0  0  0  0  0  0  0  0
   36.0060   29.8940   38.2340 C   0  0  0  0  0  0  0  0  0  0  0  0
   36.7140   31.0290   38.4120 N   0  0  0  0  0  0  0  0  0  0  0  0
   36.9360   31.5940   39.6160 C   0  0  0  0  0  0  0  0  0  0  0  0
   36.4460   31.0390   40.7320 N   0  0  0  0  0  0  0  0  0  0  0  0
   35.3100   29.4120   41.5090 H   0  0  0  0  0  0  0  0  0  0  0  0
   34.9180   28.3940   39.2860 H   0  0  0  0  0  0  0  0  0  0  0  0
   37.7360   32.8580   39.7090 C   0  0  0  0  0  0  0  0  0  0  0  0
   38.8180   32.8020   38.8670 F   0  0  0  0  0  0  0  0  0  0  0  0
   36.9350   33.9120   39.3030 F   0  0  0  0  0  0  0  0  0  0  0  0
   38.1940   32.9940   40.9990 F   0  0  0  0  0  0  0  0  0  0  0  0
   36.3170   30.5810   34.0270 C   0  0  0  0  0  0  0  0  0  0  0  0
   34.9540   30.8080   33.8700 F   0  0  0  0  0  0  0  0  0  0  0  0
   36.8440   30.5630   32.7440 F   0  0  0  0  0  0  0  0  0  0  0  0
   36.8290   31.5690   34.8040 F   0  0  0  0  0  0  0  0  0  0  0  0
  1 17  1  0  0  0  0
  2  1  1  0  0  0  0
  2  8  1  0  0  0  0
  3  9  1  0  0  0  0
  3  2  1  0  0  0  0
  4  5  1  0  0  0  0
  4  3  1  0  0  0  0
  5 12  1  6  0  0  0
  5  6  1  0  0  0  0
  6 14  1  0  0  0  0
  6 13  1  0  0  0  0
  6  1  1  0  0  0  0
  7  2  1  0  0  0  0
 10  3  1  0  0  0  0
 11  4  1  0  0  0  0
 15 20  1  0  0  0  0
 15 21  1  0  0  0  0
 16 15  2  0  0  0  0
 17 18  2  0  0  0  0
 17 16  1  0  0  0  0
 18 19  1  0  0  0  0
 19 23  1  0  0  0  0
 19 20  2  0  0  0  0
 22 16  1  0  0  0  0
 23 26  1  0  0  0  0
 24 23  1  0  0  0  0
 25 23  1  0  0  0  0
 27  5  1  0  0  0  0
 27 30  1  0  0  0  0
 28 27  1  0  0  0  0
 29 27  1  0  0  0  0
M  END
>  <minimizedAffinity>
-4.92269611

$$$$

 OpenBabel03242522043D

 30 31  0  0  1  0  0  0  0  0999 V2000
   37.2360   29.0610   37.9480 N   0  0  0  0  0  0  0  0  0  0  0  0
   37.7730   27.7930   37.5060 C   0  0  0  0  0  0  0  0  0  0  0  0
   38.3730   27.8810   36.1400 C   0  0  0  0  0  0  0  0  0  0  0  0
   37.5200   28.4580   35.1760 N   0  0  0  0  0  0  0  0  0  0  0  0
   36.7070   29.5460   35.5980 C   0  0  2  0  0  0  0  0  0  0  0  0
   36.8860   30.0480   36.9740 C   0  0  0  0  0  0  0  0  0  0  0  0
   36.8920   27.1060   37.4210 H   0  0  0  0  0  0  0  0  0  0  0  0
   38.4780   27.3580   38.2220 H   0  0  0  0  0  0  0  0  0  0  0  0
   39.3240   28.4480   36.2270 H   0  0  0  0  0  0  0  0  0  0  0  0
   38.6250   26.8430   35.8240 H   0  0  0  0  0  0  0  0  0  0  0  0
   37.9570   28.5390   34.2600 H   0  0  0  0  0  0  0  0  0  0  0  0
   36.8570   30.3990   34.8850 H   0  0  0  0  0  0  0  0  0  0  0  0
   37.6330   30.8930   36.9640 H   0  0  0  0  0  0  0  0  0  0  0  0
   35.9490   30.5300   37.3250 H   0  0  0  0  0  0  0  0  0  0  0  0
   36.6540   30.7670   41.2370 C   0  0  0  0  0  0  0  0  0  0  0  0
   36.8180   30.6150   39.8550 C   0  0  0  0  0  0  0  0  0  0  0  0
   37.0560   29.3320   39.3260 C   0  0  0  0  0  0  0  0  0  0  0  0
   37.1070   28.3250   40.2230 N   0  0  0  0  0  0  0  0  0  0  0  0
   36.9450   28.4940   41.5510 C   0  0  0  0  0  0  0  0  0  0  0  0
   36.7200   29.7110   42.0620 N   0  0  0  0  0  0  0  0  0  0  0  0
   36.4730   31.7750   41.5920 H   0  0  0  0  0  0  0  0  0  0  0  0
   36.7730   31.4370   39.1570 H   0  0  0  0  0  0  0  0  0  0  0  0
   37.0200   27.3100   42.4660 C   0  0  0  0  0  0  0  0  0  0  0  0
   36.8310   26.1480   41.7630 F   0  0  0  0  0  0  0  0  0  0  0  0
   38.2880   27.2690   43.0230 F   0  0  0  0  0  0  0  0  0  0  0  0
   36.0220   27.4180   43.4070 F   0  0  0  0  0  0  0  0  0  0  0  0
   35.2500   29.1100   35.4570 C   0  0  0  0  0  0  0  0  0  0  0  0
   35.1850   27.7550   35.1500 F   0  0  0  0  0  0  0  0  0  0  0  0
   34.7640   29.7710   34.3400 F   0  0  0  0  0  0  0  0  0  0  0  0
   34.5140   29.3310   36.5750 F   0  0  0  0  0  0  0  0  0  0  0  0
  1 17  1  0  0  0  0
  2  1  1  0  0  0  0
  2  8  1  0  0  0  0
  3  9  1  0  0  0  0
  3  2  1  0  0  0  0
  4  5  1  0  0  0  0
  4  3  1  0  0  0  0
  5 12  1  6  0  0  0
  5  6  1  0  0  0  0
  6 14  1  0  0  0  0
  6  1  1  0  0  0  0
  7  2  1  0  0  0  0
 10  3  1  0  0  0  0
 11  4  1  0  0  0  0
 13  6  1  0  0  0  0
 15 21  1  0  0  0  0
 15 20  1  0  0  0  0
 16 15  2  0  0  0  0
 17 16  1  0  0  0  0
 17 18  2  0  0  0  0
 18 19  1  0  0  0  0
 19 20  2  0  0  0  0
 19 23  1  0  0  0  0
 22 16  1  0  0  0  0
 23 25  1  0  0  0  0
 23 26  1  0  0  0  0
 24 23  1  0  0  0  0
 27  5  1  0  0  0  0
 27 30  1  0  0  0  0
 28 27  1  0  0  0  0
 29 27  1  0  0  0  0
M  END
>  <minimizedAffinity>
-4.90080643

$$$$

 OpenBabel03242522043D

 30 31  0  0  1  0  0  0  0  0999 V2000
   37.8590   29.4910   40.5550 N   0  0  0  0  0  0  0  0  0  0  0  0
   39.2670   29.7940   40.6830 C   0  0  0  0  0  0  0  0  0  0  0  0
   39.5090   31.0230   41.4980 C   0  0  0  0  0  0  0  0  0  0  0  0
   38.7640   32.1450   41.0770 N   0  0  0  0  0  0  0  0  0  0  0  0
   37.4320   31.9100   40.6360 C   0  0  2  0  0  0  0  0  0  0  0  0
   36.9020   30.5380   40.7430 C   0  0  0  0  0  0  0  0  0  0  0  0
   39.6210   30.0280   39.6450 H   0  0  0  0  0  0  0  0  0  0  0  0
   39.8510   28.9470   41.0580 H   0  0  0  0  0  0  0  0  0  0  0  0
   39.2920   30.7700   42.5580 H   0  0  0  0  0  0  0  0  0  0  0  0
   40.5940   31.2610   41.4220 H   0  0  0  0  0  0  0  0  0  0  0  0
   38.9160   32.9630   41.6640 H   0  0  0  0  0  0  0  0  0  0  0  0
   36.7460   32.6010   41.1940 H   0  0  0  0  0  0  0  0  0  0  0  0
   36.3640   30.4250   41.7280 H   0  0  0  0  0  0  0  0  0  0  0  0
   36.1020   30.3820   39.9880 H   0  0  0  0  0  0  0  0  0  0  0  0
   36.4290   26.4810   38.8340 C   0  0  0  0  0  0  0  0  0  0  0  0
   36.8220   27.8110   39.0310 C   0  0  0  0  0  0  0  0  0  0  0  0
   37.4230   28.1800   40.2490 C   0  0  0  0  0  0  0  0  0  0  0  0
   37.5750   27.1910   41.1540 N   0  0  0  0  0  0  0  0  0  0  0  0
   37.1900   25.9150   40.9440 C   0  0  0  0  0  0  0  0  0  0  0  0
   36.6170   25.5570   39.7890 N   0  0  0  0  0  0  0  0  0  0  0  0
   35.9720   26.2510   37.8800 H   0  0  0  0  0  0  0  0  0  0  0  0
   36.6890   28.5850   38.2910 H   0  0  0  0  0  0  0  0  0  0  0  0
   37.4030   24.8880   42.0140 C   0  0  0  0  0  0  0  0  0  0  0  0
   37.5920   23.6490   41.4570 F   0  0  0  0  0  0  0  0  0  0  0  0
   38.5510   25.2200   42.7140 F   0  0  0  0  0  0  0  0  0  0  0  0
   36.2810   24.8430   42.8090 F   0  0  0  0  0  0  0  0  0  0  0  0
   37.3590   32.3140   39.1650 C   0  0  0  0  0  0  0  0  0  0  0  0
   38.6390   32.3770   38.6240 F   0  0  0  0  0  0  0  0  0  0  0  0
   36.8840   33.6170   39.1550 F   0  0  0  0  0  0  0  0  0  0  0  0
   36.6170   31.4650   38.4120 F   0  0  0  0  0  0  0  0  0  0  0  0
  1  2  1  0  0  0  0
  1  6  1  0  0  0  0
  2  8  1  0  0  0  0
  2  3  1  0  0  0  0
  3  9  1  0  0  0  0
  4  3  1  0  0  0  0
  4 11  1  0  0  0  0
  5  6  1  0  0  0  0
  5  4  1  0  0  0  0
  5 12  1  1  0  0  0
  6 13  1  0  0  0  0
  7  2  1  0  0  0  0
 10  3  1  0  0  0  0
 14  6  1  0  0  0  0
 15 16  2  0  0  0  0
 15 20  1  0  0  0  0
 16 17  1  0  0  0  0
 17  1  1  0  0  0  0
 17 18  2  0  0  0  0
 19 18  1  0  0  0  0
 19 23  1  0  0  0  0
 20 19  2  0  0  0  0
 21 15  1  0  0  0  0
 22 16  1  0  0  0  0
 23 25  1  0  0  0  0
 23 26  1  0  0  0  0
 24 23  1  0  0  0  0
 27  5  1  0  0  0  0
 28 27  1  0  0  0  0
 29 27  1  0  0  0  0
 30 27  1  0  0  0  0
M  END
>  <minimizedAffinity>
-4.88317633

$$$$
