
 OpenBabel03242518523D

 34 35  0  0  1  0  0  0  0  0999 V2000
   38.3700   27.9180   41.2110 C   0  0  2  0  0  0  0  0  0  0  0  0
   39.4600   27.5180   42.1550 C   0  0  0  0  0  0  0  0  0  0  0  0
   38.8630   27.4450   43.5130 C   0  0  0  0  0  0  0  0  0  0  0  0
   37.4790   27.8610   43.6790 C   0  0  0  0  0  0  0  0  0  0  0  0
   36.5020   27.5460   42.6250 C   0  0  0  0  0  0  0  0  0  0  0  0
   37.2010   27.0680   41.3500 C   0  0  2  0  0  0  0  0  0  0  0  0
   38.1030   28.9670   41.5930 H   0  0  0  0  0  0  0  0  0  0  0  0
   40.0170   26.6090   41.8390 H   0  0  0  0  0  0  0  0  0  0  0  0
   40.2130   28.3270   42.0570 H   0  0  0  0  0  0  0  0  0  0  0  0
   39.2290   26.5750   44.1450 H   0  0  0  0  0  0  0  0  0  0  0  0
   39.4740   28.2480   44.1090 H   0  0  0  0  0  0  0  0  0  0  0  0
   37.1000   27.3660   44.6320 H   0  0  0  0  0  0  0  0  0  0  0  0
   37.4460   28.9520   43.9950 H   0  0  0  0  0  0  0  0  0  0  0  0
   35.9080   28.5010   42.5110 H   0  0  0  0  0  0  0  0  0  0  0  0
   35.7230   26.8000   42.9680 H   0  0  0  0  0  0  0  0  0  0  0  0
   36.2590   27.3020   40.8670 H   0  0  0  0  0  0  0  0  0  0  0  0
   37.2780   25.5990   41.4780 C   0  0  0  0  0  0  0  0  0  0  0  0
   36.7050   25.0300   42.5970 F   0  0  0  0  0  0  0  0  0  0  0  0
   38.5090   25.0050   41.2920 F   0  0  0  0  0  0  0  0  0  0  0  0
   36.5090   24.9260   40.5000 F   0  0  0  0  0  0  0  0  0  0  0  0
   38.8430   28.2210   39.8580 C   0  0  0  0  0  0  0  0  0  0  0  0
   39.6190   27.5010   39.1790 O   0  0  0  0  0  0  0  0  0  0  0  0
   37.3430   30.5880   37.5160 C   0  0  0  0  0  0  0  0  0  0  0  0
   37.5500   31.8520   38.1120 C   0  0  0  0  0  0  0  0  0  0  0  0
   38.2020   31.8490   39.3450 C   0  0  0  0  0  0  0  0  0  0  0  0
   38.5500   30.6420   39.8110 N   0  0  0  0  0  0  0  0  0  0  0  0
   38.3640   29.4710   39.2660 C   0  0  0  0  0  0  0  0  0  0  0  0
   37.7310   29.4520   38.0650 N   0  0  0  0  0  0  0  0  0  0  0  0
   36.8370   30.5290   36.5500 H   0  0  0  0  0  0  0  0  0  0  0  0
   37.2340   32.7590   37.6600 H   0  0  0  0  0  0  0  0  0  0  0  0
   38.4420   33.1530   39.9700 C   0  0  0  0  0  0  0  0  0  0  0  0
   38.6260   33.0110   41.3270 F   0  0  0  0  0  0  0  0  0  0  0  0
   37.2710   33.8540   39.8210 F   0  0  0  0  0  0  0  0  0  0  0  0
   39.5290   33.8060   39.4350 F   0  0  0  0  0  0  0  0  0  0  0  0
  1  6  1  0  0  0  0
  1  7  1  1  0  0  0
  1  2  1  0  0  0  0
  2  3  1  0  0  0  0
  3  4  1  0  0  0  0
  3 11  1  0  0  0  0
  3 10  1  0  0  0  0
  4 13  1  0  0  0  0
  4 12  1  0  0  0  0
  5 15  1  0  0  0  0
  5  4  1  0  0  0  0
  6 16  1  6  0  0  0
  6 17  1  0  0  0  0
  6  5  1  0  0  0  0
  8  2  1  0  0  0  0
  9  2  1  0  0  0  0
 14  5  1  0  0  0  0
 17 18  1  0  0  0  0
 19 17  1  0  0  0  0
 20 17  1  0  0  0  0
 21  1  1  0  0  0  0
 22 21  2  0  0  0  0
 23 28  2  0  0  0  0
 23 24  1  0  0  0  0
 24 25  2  0  0  0  0
 25 26  1  0  0  0  0
 25 31  1  0  0  0  0
 27 26  2  0  0  0  0
 27 21  1  0  0  0  0
 28 27  1  0  0  0  0
 29 23  1  0  0  0  0
 30 24  1  0  0  0  0
 31 32  1  0  0  0  0
 33 31  1  0  0  0  0
 34 31  1  0  0  0  0
M  END
>  <minimizedAffinity>
-5.57307673

$$$$

 OpenBabel03242518523D

 34 35  0  0  1  0  0  0  0  0999 V2000
   39.0560   30.8210   40.1990 C   0  0  2  0  0  0  0  0  0  0  0  0
   39.5450   30.9330   38.7890 C   0  0  0  0  0  0  0  0  0  0  0  0
   38.3560   31.1580   37.9270 C   0  0  0  0  0  0  0  0  0  0  0  0
   37.0400   31.1070   38.5440 C   0  0  0  0  0  0  0  0  0  0  0  0
   36.8570   31.6580   39.8960 C   0  0  0  0  0  0  0  0  0  0  0  0
   38.2060   31.9400   40.5640 C   0  0  2  0  0  0  0  0  0  0  0  0
   38.4090   29.8750   40.1480 H   0  0  0  0  0  0  0  0  0  0  0  0
   40.3660   31.6700   38.6550 H   0  0  0  0  0  0  0  0  0  0  0  0
   40.0410   29.9590   38.5960 H   0  0  0  0  0  0  0  0  0  0  0  0
   38.5140   31.9080   37.0880 H   0  0  0  0  0  0  0  0  0  0  0  0
   38.3710   30.2270   37.2150 H   0  0  0  0  0  0  0  0  0  0  0  0
   36.3350   31.6850   37.8610 H   0  0  0  0  0  0  0  0  0  0  0  0
   36.6100   30.0610   38.4360 H   0  0  0  0  0  0  0  0  0  0  0  0
   36.2210   30.8840   40.4210 H   0  0  0  0  0  0  0  0  0  0  0  0
   36.1980   32.5780   39.9020 H   0  0  0  0  0  0  0  0  0  0  0  0
   37.6340   31.9510   41.4840 H   0  0  0  0  0  0  0  0  0  0  0  0
   38.5210   33.3420   40.2220 C   0  0  0  0  0  0  0  0  0  0  0  0
   37.5330   34.0800   39.6020 F   0  0  0  0  0  0  0  0  0  0  0  0
   39.7040   33.5870   39.5560 F   0  0  0  0  0  0  0  0  0  0  0  0
   38.6870   34.1570   41.3660 F   0  0  0  0  0  0  0  0  0  0  0  0
   40.0910   30.4050   41.1500 C   0  0  0  0  0  0  0  0  0  0  0  0
   41.2010   30.9720   41.3140 O   0  0  0  0  0  0  0  0  0  0  0  0
   40.4960   27.5730   43.4200 C   0  0  0  0  0  0  0  0  0  0  0  0
   39.2310   26.9420   43.4260 C   0  0  0  0  0  0  0  0  0  0  0  0
   38.2460   27.5400   42.6400 C   0  0  0  0  0  0  0  0  0  0  0  0
   38.6240   28.6410   41.9770 N   0  0  0  0  0  0  0  0  0  0  0  0
   39.7890   29.2270   41.9650 C   0  0  0  0  0  0  0  0  0  0  0  0
   40.7630   28.6620   42.7230 N   0  0  0  0  0  0  0  0  0  0  0  0
   41.3060   27.1490   44.0170 H   0  0  0  0  0  0  0  0  0  0  0  0
   39.0280   26.0670   43.9900 H   0  0  0  0  0  0  0  0  0  0  0  0
   36.9310   26.8900   42.6190 C   0  0  0  0  0  0  0  0  0  0  0  0
   37.0690   25.5200   42.6340 F   0  0  0  0  0  0  0  0  0  0  0  0
   36.3870   27.2000   41.3970 F   0  0  0  0  0  0  0  0  0  0  0  0
   36.1340   27.2730   43.6740 F   0  0  0  0  0  0  0  0  0  0  0  0
  1  7  1  6  0  0  0
  1  6  1  0  0  0  0
  1 21  1  0  0  0  0
  2  1  1  0  0  0  0
  3  4  1  0  0  0  0
  3  2  1  0  0  0  0
  4  5  1  0  0  0  0
  5 15  1  0  0  0  0
  5 14  1  0  0  0  0
  5  6  1  0  0  0  0
  6 16  1  1  0  0  0
  8  2  1  0  0  0  0
  9  2  1  0  0  0  0
 10  3  1  0  0  0  0
 11  3  1  0  0  0  0
 12  4  1  0  0  0  0
 13  4  1  0  0  0  0
 17  6  1  0  0  0  0
 17 20  1  0  0  0  0
 18 17  1  0  0  0  0
 19 17  1  0  0  0  0
 21 22  2  0  0  0  0
 21 27  1  0  0  0  0
 23 24  1  0  0  0  0
 23 29  1  0  0  0  0
 24 30  1  0  0  0  0
 25 24  2  0  0  0  0
 26 25  1  0  0  0  0
 27 26  2  0  0  0  0
 27 28  1  0  0  0  0
 28 23  2  0  0  0  0
 31 32  1  0  0  0  0
 31 25  1  0  0  0  0
 31 34  1  0  0  0  0
 33 31  1  0  0  0  0
M  END
>  <minimizedAffinity>
-5.57080793

$$$$

 OpenBabel03242518523D

 34 35  0  0  1  0  0  0  0  0999 V2000
   37.5880   31.1160   40.3360 C   0  0  2  0  0  0  0  0  0  0  0  0
   36.9880   32.4500   40.0170 C   0  0  0  0  0  0  0  0  0  0  0  0
   38.1040   33.4250   39.9240 C   0  0  0  0  0  0  0  0  0  0  0  0
   39.4450   32.9690   40.2540 C   0  0  0  0  0  0  0  0  0  0  0  0
   39.8600   31.6120   39.8650 C   0  0  0  0  0  0  0  0  0  0  0  0
   38.6590   30.7750   39.4170 C   0  0  2  0  0  0  0  0  0  0  0  0
   38.0460   31.3080   41.3710 H   0  0  0  0  0  0  0  0  0  0  0  0
   36.3040   32.4370   39.1410 H   0  0  0  0  0  0  0  0  0  0  0  0
   36.3080   32.6510   40.8700 H   0  0  0  0  0  0  0  0  0  0  0  0
   38.0000   34.1860   39.0860 H   0  0  0  0  0  0  0  0  0  0  0  0
   37.8500   34.1930   40.7710 H   0  0  0  0  0  0  0  0  0  0  0  0
   40.1700   33.6870   39.7480 H   0  0  0  0  0  0  0  0  0  0  0  0
   39.6660   33.1980   41.3450 H   0  0  0  0  0  0  0  0  0  0  0  0
   40.3960   31.2180   40.7800 H   0  0  0  0  0  0  0  0  0  0  0  0
   40.6710   31.6180   39.0760 H   0  0  0  0  0  0  0  0  0  0  0  0
   39.3130   29.9290   39.5850 H   0  0  0  0  0  0  0  0  0  0  0  0
   38.5680   30.9800   37.9570 C   0  0  0  0  0  0  0  0  0  0  0  0
   39.4720   31.8520   37.3820 F   0  0  0  0  0  0  0  0  0  0  0  0
   37.3260   31.2580   37.4260 F   0  0  0  0  0  0  0  0  0  0  0  0
   38.9180   29.8230   37.2220 F   0  0  0  0  0  0  0  0  0  0  0  0
   36.5970   30.0840   40.6510 C   0  0  0  0  0  0  0  0  0  0  0  0
   35.4210   30.0420   40.2080 O   0  0  0  0  0  0  0  0  0  0  0  0
   38.0670   28.3820   43.5290 C   0  0  0  0  0  0  0  0  0  0  0  0
   37.9340   27.0070   43.2300 C   0  0  0  0  0  0  0  0  0  0  0  0
   37.3090   26.7000   42.0210 C   0  0  0  0  0  0  0  0  0  0  0  0
   36.9110   27.7530   41.2930 N   0  0  0  0  0  0  0  0  0  0  0  0
   37.0310   29.0230   41.5620 C   0  0  0  0  0  0  0  0  0  0  0  0
   37.6360   29.3440   42.7340 N   0  0  0  0  0  0  0  0  0  0  0  0
   38.5480   28.6810   44.4620 H   0  0  0  0  0  0  0  0  0  0  0  0
   38.2840   26.2420   43.8770 H   0  0  0  0  0  0  0  0  0  0  0  0
   37.1790   25.2790   41.6850 C   0  0  0  0  0  0  0  0  0  0  0  0
   36.4700   25.1220   40.5160 F   0  0  0  0  0  0  0  0  0  0  0  0
   36.3970   24.7370   42.6750 F   0  0  0  0  0  0  0  0  0  0  0  0
   38.3980   24.6500   41.5600 F   0  0  0  0  0  0  0  0  0  0  0  0
  1 21  1  0  0  0  0
  1  7  1  1  0  0  0
  2  1  1  0  0  0  0
  2  9  1  0  0  0  0
  3  2  1  0  0  0  0
  3  4  1  0  0  0  0
  3 11  1  0  0  0  0
  4 13  1  0  0  0  0
  5  4  1  0  0  0  0
  5 14  1  0  0  0  0
  6 16  1  1  0  0  0
  6  5  1  0  0  0  0
  6  1  1  0  0  0  0
  8  2  1  0  0  0  0
 10  3  1  0  0  0  0
 12  4  1  0  0  0  0
 15  5  1  0  0  0  0
 17  6  1  0  0  0  0
 18 17  1  0  0  0  0
 19 17  1  0  0  0  0
 20 17  1  0  0  0  0
 21 27  1  0  0  0  0
 22 21  2  0  0  0  0
 23 29  1  0  0  0  0
 24 23  1  0  0  0  0
 24 30  1  0  0  0  0
 25 24  2  0  0  0  0
 26 27  2  0  0  0  0
 26 25  1  0  0  0  0
 27 28  1  0  0  0  0
 28 23  2  0  0  0  0
 31 25  1  0  0  0  0
 31 33  1  0  0  0  0
 32 31  1  0  0  0  0
 34 31  1  0  0  0  0
M  END
>  <minimizedAffinity>
-5.45063496

$$$$

 OpenBabel03242518523D

 34 35  0  0  1  0  0  0  0  0999 V2000
   39.3680   27.3610   41.7470 C   0  0  2  0  0  0  0  0  0  0  0  0
   39.1250   26.9030   40.3420 C   0  0  0  0  0  0  0  0  0  0  0  0
   39.2390   25.4230   40.3360 C   0  0  0  0  0  0  0  0  0  0  0  0
   39.6530   24.7590   41.5620 C   0  0  0  0  0  0  0  0  0  0  0  0
   39.1740   25.2730   42.8550 C   0  0  0  0  0  0  0  0  0  0  0  0
   38.5290   26.6520   42.6960 C   0  0  2  0  0  0  0  0  0  0  0  0
   40.4560   27.0380   41.9130 H   0  0  0  0  0  0  0  0  0  0  0  0
   38.1890   27.3030   39.8950 H   0  0  0  0  0  0  0  0  0  0  0  0
   39.9230   27.4020   39.7540 H   0  0  0  0  0  0  0  0  0  0  0  0
   38.4750   24.8920   39.6840 H   0  0  0  0  0  0  0  0  0  0  0  0
   40.1290   25.2340   39.5970 H   0  0  0  0  0  0  0  0  0  0  0  0
   39.2940   23.6800   41.4890 H   0  0  0  0  0  0  0  0  0  0  0  0
   40.7770   24.5970   41.5450 H   0  0  0  0  0  0  0  0  0  0  0  0
   40.0940   25.2530   43.5130 H   0  0  0  0  0  0  0  0  0  0  0  0
   38.4730   24.5510   43.3730 H   0  0  0  0  0  0  0  0  0  0  0  0
   38.6760   26.7330   43.7660 H   0  0  0  0  0  0  0  0  0  0  0  0
   37.0940   26.3840   42.4660 C   0  0  0  0  0  0  0  0  0  0  0  0
   36.6740   25.0720   42.5520 F   0  0  0  0  0  0  0  0  0  0  0  0
   36.5130   26.9350   41.3440 F   0  0  0  0  0  0  0  0  0  0  0  0
   36.2710   26.9210   43.4830 F   0  0  0  0  0  0  0  0  0  0  0  0
   39.4800   28.8160   41.8810 C   0  0  0  0  0  0  0  0  0  0  0  0
   40.3800   29.4230   42.5150 O   0  0  0  0  0  0  0  0  0  0  0  0
   36.3460   30.5820   41.2500 C   0  0  0  0  0  0  0  0  0  0  0  0
   36.4580   31.0320   39.9150 C   0  0  0  0  0  0  0  0  0  0  0  0
   37.6500   30.7200   39.2620 C   0  0  0  0  0  0  0  0  0  0  0  0
   38.5430   30.0310   39.9860 N   0  0  0  0  0  0  0  0  0  0  0  0
   38.4460   29.6110   41.2160 C   0  0  0  0  0  0  0  0  0  0  0  0
   37.2930   29.9040   41.8720 N   0  0  0  0  0  0  0  0  0  0  0  0
   35.4350   30.7980   41.8110 H   0  0  0  0  0  0  0  0  0  0  0  0
   35.6900   31.5760   39.4260 H   0  0  0  0  0  0  0  0  0  0  0  0
   37.7780   31.1630   37.8700 C   0  0  0  0  0  0  0  0  0  0  0  0
   39.1030   31.2430   37.5080 F   0  0  0  0  0  0  0  0  0  0  0  0
   37.3040   32.4510   37.8490 F   0  0  0  0  0  0  0  0  0  0  0  0
   37.1190   30.3350   36.9880 F   0  0  0  0  0  0  0  0  0  0  0  0
  1 21  1  0  0  0  0
  1  7  1  1  0  0  0
  1  6  1  0  0  0  0
  2  1  1  0  0  0  0
  3  2  1  0  0  0  0
  3  4  1  0  0  0  0
  4  5  1  0  0  0  0
  5 15  1  0  0  0  0
  5 14  1  0  0  0  0
  6  5  1  0  0  0  0
  6 16  1  1  0  0  0
  8  2  1  0  0  0  0
  9  2  1  0  0  0  0
 10  3  1  0  0  0  0
 11  3  1  0  0  0  0
 12  4  1  0  0  0  0
 13  4  1  0  0  0  0
 17 18  1  0  0  0  0
 17  6  1  0  0  0  0
 17 20  1  0  0  0  0
 19 17  1  0  0  0  0
 21 22  2  0  0  0  0
 23 29  1  0  0  0  0
 23 28  1  0  0  0  0
 24 23  2  0  0  0  0
 25 24  1  0  0  0  0
 25 26  2  0  0  0  0
 26 27  1  0  0  0  0
 27 28  2  0  0  0  0
 27 21  1  0  0  0  0
 30 24  1  0  0  0  0
 31 25  1  0  0  0  0
 32 31  1  0  0  0  0
 33 31  1  0  0  0  0
 34 31  1  0  0  0  0
M  END
>  <minimizedAffinity>
-5.39043474

$$$$

 OpenBabel03242518523D

 34 35  0  0  1  0  0  0  0  0999 V2000
   36.6120   30.0080   39.2520 C   0  0  2  0  0  0  0  0  0  0  0  0
   37.5310   29.0780   38.5240 C   0  0  0  0  0  0  0  0  0  0  0  0
   38.1300   29.8400   37.3990 C   0  0  0  0  0  0  0  0  0  0  0  0
   37.6590   31.1960   37.1590 C   0  0  0  0  0  0  0  0  0  0  0  0
   37.3370   32.0590   38.3060 C   0  0  0  0  0  0  0  0  0  0  0  0
   37.2740   31.2510   39.6050 C   0  0  2  0  0  0  0  0  0  0  0  0
   35.8230   30.2330   38.4490 H   0  0  0  0  0  0  0  0  0  0  0  0
   38.2630   28.5630   39.1830 H   0  0  0  0  0  0  0  0  0  0  0  0
   36.8690   28.2550   38.1840 H   0  0  0  0  0  0  0  0  0  0  0  0
   39.2310   29.6270   37.2150 H   0  0  0  0  0  0  0  0  0  0  0  0
   37.7680   29.2440   36.4580 H   0  0  0  0  0  0  0  0  0  0  0  0
   38.4770   31.7280   36.5720 H   0  0  0  0  0  0  0  0  0  0  0  0
   36.8330   31.1780   36.3790 H   0  0  0  0  0  0  0  0  0  0  0  0
   36.3650   32.5550   38.0090 H   0  0  0  0  0  0  0  0  0  0  0  0
   38.0510   32.9320   38.4020 H   0  0  0  0  0  0  0  0  0  0  0  0
   36.7290   32.1040   39.9910 H   0  0  0  0  0  0  0  0  0  0  0  0
   38.6400   31.3100   40.1640 C   0  0  0  0  0  0  0  0  0  0  0  0
   39.5600   32.1020   39.5060 F   0  0  0  0  0  0  0  0  0  0  0  0
   39.2600   30.1150   40.4660 F   0  0  0  0  0  0  0  0  0  0  0  0
   38.6870   31.9580   41.4200 F   0  0  0  0  0  0  0  0  0  0  0  0
   35.7960   29.3490   40.2750 C   0  0  0  0  0  0  0  0  0  0  0  0
   34.5390   29.3340   40.3070 O   0  0  0  0  0  0  0  0  0  0  0  0
   37.6910   28.7410   43.3370 C   0  0  0  0  0  0  0  0  0  0  0  0
   37.9830   27.3590   43.3020 C   0  0  0  0  0  0  0  0  0  0  0  0
   37.4890   26.6560   42.2030 C   0  0  0  0  0  0  0  0  0  0  0  0
   36.7960   27.3840   41.3160 N   0  0  0  0  0  0  0  0  0  0  0  0
   36.5230   28.6590   41.3410 C   0  0  0  0  0  0  0  0  0  0  0  0
   36.9950   29.3620   42.4020 N   0  0  0  0  0  0  0  0  0  0  0  0
   38.0520   29.3410   44.1740 H   0  0  0  0  0  0  0  0  0  0  0  0
   38.5430   26.8700   44.0590 H   0  0  0  0  0  0  0  0  0  0  0  0
   37.7970   25.2240   42.1390 C   0  0  0  0  0  0  0  0  0  0  0  0
   38.8580   24.9210   42.9620 F   0  0  0  0  0  0  0  0  0  0  0  0
   38.2380   25.0000   40.8580 F   0  0  0  0  0  0  0  0  0  0  0  0
   36.7220   24.4350   42.4820 F   0  0  0  0  0  0  0  0  0  0  0  0
  1  7  1  6  0  0  0
  1  6  1  0  0  0  0
  1 21  1  0  0  0  0
  2  8  1  0  0  0  0
  2  1  1  0  0  0  0
  3  2  1  0  0  0  0
  4  3  1  0  0  0  0
  4  5  1  0  0  0  0
  5 15  1  0  0  0  0
  5  6  1  0  0  0  0
  6 16  1  1  0  0  0
  6 17  1  0  0  0  0
  9  2  1  0  0  0  0
 10  3  1  0  0  0  0
 11  3  1  0  0  0  0
 12  4  1  0  0  0  0
 13  4  1  0  0  0  0
 14  5  1  0  0  0  0
 17 19  1  0  0  0  0
 17 20  1  0  0  0  0
 18 17  1  0  0  0  0
 21 22  2  0  0  0  0
 21 27  1  0  0  0  0
 23 29  1  0  0  0  0
 24 23  1  0  0  0  0
 24 30  1  0  0  0  0
 25 24  2  0  0  0  0
 26 27  2  0  0  0  0
 26 25  1  0  0  0  0
 27 28  1  0  0  0  0
 28 23  2  0  0  0  0
 31 25  1  0  0  0  0
 31 34  1  0  0  0  0
 31 32  1  0  0  0  0
 33 31  1  0  0  0  0
M  END
>  <minimizedAffinity>
-5.38191414

$$$$

 OpenBabel03242518523D

 34 35  0  0  1  0  0  0  0  0999 V2000
   37.6620   27.2020   41.8430 C   0  0  2  0  0  0  0  0  0  0  0  0
   36.9630   26.2890   42.8020 C   0  0  0  0  0  0  0  0  0  0  0  0
   36.9460   24.9370   42.1900 C   0  0  0  0  0  0  0  0  0  0  0  0
   37.4550   24.7880   40.8350 C   0  0  0  0  0  0  0  0  0  0  0  0
   38.6290   25.5710   40.4180 C   0  0  0  0  0  0  0  0  0  0  0  0
   38.9490   26.6700   41.4350 C   0  0  2  0  0  0  0  0  0  0  0  0
   36.9550   27.1760   40.9390 H   0  0  0  0  0  0  0  0  0  0  0  0
   37.3680   26.3300   43.8370 H   0  0  0  0  0  0  0  0  0  0  0  0
   35.9500   26.7310   42.9060 H   0  0  0  0  0  0  0  0  0  0  0  0
   37.1340   24.0850   42.9180 H   0  0  0  0  0  0  0  0  0  0  0  0
   35.8000   24.7120   42.0880 H   0  0  0  0  0  0  0  0  0  0  0  0
   37.7350   23.6910   40.7090 H   0  0  0  0  0  0  0  0  0  0  0  0
   36.5950   24.8610   40.0970 H   0  0  0  0  0  0  0  0  0  0  0  0
   38.3530   25.9450   39.3870 H   0  0  0  0  0  0  0  0  0  0  0  0
   39.5330   24.9200   40.2210 H   0  0  0  0  0  0  0  0  0  0  0  0
   39.5230   27.1090   40.6280 H   0  0  0  0  0  0  0  0  0  0  0  0
   39.9080   26.0570   42.3770 C   0  0  0  0  0  0  0  0  0  0  0  0
   39.9630   24.6780   42.4170 F   0  0  0  0  0  0  0  0  0  0  0  0
   39.9030   26.5120   43.6800 F   0  0  0  0  0  0  0  0  0  0  0  0
   41.2540   26.2970   42.0170 F   0  0  0  0  0  0  0  0  0  0  0  0
   37.5900   28.6170   42.2180 C   0  0  0  0  0  0  0  0  0  0  0  0
   37.7420   29.0720   43.3800 O   0  0  0  0  0  0  0  0  0  0  0  0
   36.3920   30.0090   39.0610 C   0  0  0  0  0  0  0  0  0  0  0  0
   36.8890   31.3320   39.0490 C   0  0  0  0  0  0  0  0  0  0  0  0
   37.6260   31.7200   40.1670 C   0  0  0  0  0  0  0  0  0  0  0  0
   37.7710   30.7850   41.1170 N   0  0  0  0  0  0  0  0  0  0  0  0
   37.3160   29.5630   41.1350 C   0  0  0  0  0  0  0  0  0  0  0  0
   36.5950   29.1650   40.0560 N   0  0  0  0  0  0  0  0  0  0  0  0
   35.8070   29.6510   38.2120 H   0  0  0  0  0  0  0  0  0  0  0  0
   36.7190   32.0020   38.2430 H   0  0  0  0  0  0  0  0  0  0  0  0
   38.1660   33.0830   40.1640 C   0  0  0  0  0  0  0  0  0  0  0  0
   37.1830   33.9910   39.8420 F   0  0  0  0  0  0  0  0  0  0  0  0
   39.0660   33.1200   39.1280 F   0  0  0  0  0  0  0  0  0  0  0  0
   38.7250   33.4340   41.3720 F   0  0  0  0  0  0  0  0  0  0  0  0
  1  7  1  6  0  0  0
  1 21  1  0  0  0  0
  1  2  1  0  0  0  0
  2  9  1  0  0  0  0
  2  8  1  0  0  0  0
  3  2  1  0  0  0  0
  3 10  1  0  0  0  0
  4  3  1  0  0  0  0
  5  4  1  0  0  0  0
  5  6  1  0  0  0  0
  6 16  1  6  0  0  0
  6  1  1  0  0  0  0
  6 17  1  0  0  0  0
 11  3  1  0  0  0  0
 12  4  1  0  0  0  0
 13  4  1  0  0  0  0
 14  5  1  0  0  0  0
 15  5  1  0  0  0  0
 17 18  1  0  0  0  0
 17 19  1  0  0  0  0
 20 17  1  0  0  0  0
 21 22  2  0  0  0  0
 23 28  1  0  0  0  0
 24 23  2  0  0  0  0
 24 25  1  0  0  0  0
 25 26  2  0  0  0  0
 26 27  1  0  0  0  0
 27 21  1  0  0  0  0
 28 27  2  0  0  0  0
 29 23  1  0  0  0  0
 30 24  1  0  0  0  0
 31 25  1  0  0  0  0
 31 34  1  0  0  0  0
 32 31  1  0  0  0  0
 33 31  1  0  0  0  0
M  END
>  <minimizedAffinity>
-5.35990429

$$$$

 OpenBabel03242518523D

 34 35  0  0  1  0  0  0  0  0999 V2000
   38.7690   30.7750   40.0450 C   0  0  2  0  0  0  0  0  0  0  0  0
   38.7240   30.7190   38.5500 C   0  0  0  0  0  0  0  0  0  0  0  0
   37.8580   31.8360   38.0930 C   0  0  0  0  0  0  0  0  0  0  0  0
   37.1740   32.6320   39.1000 C   0  0  0  0  0  0  0  0  0  0  0  0
   37.8640   32.9450   40.3610 C   0  0  0  0  0  0  0  0  0  0  0  0
   39.1290   32.0980   40.5220 C   0  0  2  0  0  0  0  0  0  0  0  0
   37.6730   30.5770   40.3200 H   0  0  0  0  0  0  0  0  0  0  0  0
   39.7260   30.6780   38.0710 H   0  0  0  0  0  0  0  0  0  0  0  0
   38.2930   29.7200   38.3300 H   0  0  0  0  0  0  0  0  0  0  0  0
   38.2290   32.3730   37.1620 H   0  0  0  0  0  0  0  0  0  0  0  0
   36.9910   31.2810   37.5330 H   0  0  0  0  0  0  0  0  0  0  0  0
   36.9200   33.6300   38.6120 H   0  0  0  0  0  0  0  0  0  0  0  0
   36.1280   32.2190   39.2640 H   0  0  0  0  0  0  0  0  0  0  0  0
   37.0750   32.7740   41.1530 H   0  0  0  0  0  0  0  0  0  0  0  0
   38.0950   34.0480   40.4640 H   0  0  0  0  0  0  0  0  0  0  0  0
   39.0570   32.3720   41.5680 H   0  0  0  0  0  0  0  0  0  0  0  0
   40.2140   32.9060   39.9280 C   0  0  0  0  0  0  0  0  0  0  0  0
   39.8730   34.1390   39.4080 F   0  0  0  0  0  0  0  0  0  0  0  0
   41.0490   32.2870   39.0210 F   0  0  0  0  0  0  0  0  0  0  0  0
   41.1500   33.3510   40.8900 F   0  0  0  0  0  0  0  0  0  0  0  0
   39.4290   29.6200   40.6580 C   0  0  0  0  0  0  0  0  0  0  0  0
   40.6200   29.2700   40.4590 O   0  0  0  0  0  0  0  0  0  0  0  0
   37.4960   28.6100   43.5870 C   0  0  0  0  0  0  0  0  0  0  0  0
   37.1630   27.2590   43.3410 C   0  0  0  0  0  0  0  0  0  0  0  0
   37.6120   26.7280   42.1320 C   0  0  0  0  0  0  0  0  0  0  0  0
   38.3040   27.5700   41.3530 N   0  0  0  0  0  0  0  0  0  0  0  0
   38.6160   28.8170   41.5740 C   0  0  0  0  0  0  0  0  0  0  0  0
   38.1890   29.3540   42.7450 N   0  0  0  0  0  0  0  0  0  0  0  0
   37.1700   29.0790   44.5180 H   0  0  0  0  0  0  0  0  0  0  0  0
   36.6050   26.6700   44.0260 H   0  0  0  0  0  0  0  0  0  0  0  0
   37.2920   25.3220   41.8670 C   0  0  0  0  0  0  0  0  0  0  0  0
   36.7270   25.1820   40.6190 F   0  0  0  0  0  0  0  0  0  0  0  0
   36.3070   24.9930   42.7650 F   0  0  0  0  0  0  0  0  0  0  0  0
   38.3940   24.5020   41.9560 F   0  0  0  0  0  0  0  0  0  0  0  0
  1  7  1  1  0  0  0
  1  6  1  0  0  0  0
  1 21  1  0  0  0  0
  2  1  1  0  0  0  0
  3  2  1  0  0  0  0
  3  4  1  0  0  0  0
  4 13  1  0  0  0  0
  4  5  1  0  0  0  0
  5 15  1  0  0  0  0
  5  6  1  0  0  0  0
  5 14  1  0  0  0  0
  6 16  1  1  0  0  0
  8  2  1  0  0  0  0
  9  2  1  0  0  0  0
 10  3  1  0  0  0  0
 11  3  1  0  0  0  0
 12  4  1  0  0  0  0
 17  6  1  0  0  0  0
 17 20  1  0  0  0  0
 18 17  1  0  0  0  0
 19 17  1  0  0  0  0
 21 27  1  0  0  0  0
 22 21  2  0  0  0  0
 23 29  1  0  0  0  0
 24 23  1  0  0  0  0
 24 30  1  0  0  0  0
 25 24  2  0  0  0  0
 26 27  2  0  0  0  0
 26 25  1  0  0  0  0
 27 28  1  0  0  0  0
 28 23  2  0  0  0  0
 31 34  1  0  0  0  0
 31 25  1  0  0  0  0
 31 33  1  0  0  0  0
 32 31  1  0  0  0  0
M  END
>  <minimizedAffinity>
-5.34654617

$$$$

 OpenBabel03242518523D

 34 35  0  0  1  0  0  0  0  0999 V2000
   38.3400   29.3690   41.5600 C   0  0  2  0  0  0  0  0  0  0  0  0
   38.6530   28.5290   40.3610 C   0  0  0  0  0  0  0  0  0  0  0  0
   39.6170   27.4860   40.7920 C   0  0  0  0  0  0  0  0  0  0  0  0
   40.1310   27.5440   42.1520 C   0  0  0  0  0  0  0  0  0  0  0  0
   39.2330   27.9560   43.2430 C   0  0  0  0  0  0  0  0  0  0  0  0
   37.9370   28.5570   42.6940 C   0  0  2  0  0  0  0  0  0  0  0  0
   39.3630   29.8340   41.7920 H   0  0  0  0  0  0  0  0  0  0  0  0
   37.7520   28.1450   39.8340 H   0  0  0  0  0  0  0  0  0  0  0  0
   39.0880   29.2470   39.6350 H   0  0  0  0  0  0  0  0  0  0  0  0
   39.4350   26.4580   40.3440 H   0  0  0  0  0  0  0  0  0  0  0  0
   40.5550   27.7070   40.1260 H   0  0  0  0  0  0  0  0  0  0  0  0
   40.4950   26.4960   42.4100 H   0  0  0  0  0  0  0  0  0  0  0  0
   41.1180   28.1070   42.1610 H   0  0  0  0  0  0  0  0  0  0  0  0
   39.8620   28.6670   43.8580 H   0  0  0  0  0  0  0  0  0  0  0  0
   39.0190   27.1120   43.9660 H   0  0  0  0  0  0  0  0  0  0  0  0
   37.8270   28.9720   43.6880 H   0  0  0  0  0  0  0  0  0  0  0  0
   37.0000   27.4200   42.5840 C   0  0  0  0  0  0  0  0  0  0  0  0
   37.4930   26.1630   42.8710 F   0  0  0  0  0  0  0  0  0  0  0  0
   36.2490   27.3200   41.4310 F   0  0  0  0  0  0  0  0  0  0  0  0
   35.9800   27.4590   43.5630 F   0  0  0  0  0  0  0  0  0  0  0  0
   37.5480   30.5630   41.2530 C   0  0  0  0  0  0  0  0  0  0  0  0
   36.2930   30.6310   41.2730 O   0  0  0  0  0  0  0  0  0  0  0  0
   38.3330   33.9200   40.0480 C   0  0  0  0  0  0  0  0  0  0  0  0
   39.7420   34.0010   40.1230 C   0  0  0  0  0  0  0  0  0  0  0  0
   40.3950   32.8710   40.6170 C   0  0  0  0  0  0  0  0  0  0  0  0
   39.6000   31.8480   40.9600 N   0  0  0  0  0  0  0  0  0  0  0  0
   38.3000   31.7660   40.8930 C   0  0  0  0  0  0  0  0  0  0  0  0
   37.6450   32.8550   40.4140 N   0  0  0  0  0  0  0  0  0  0  0  0
   37.7700   34.7750   39.6690 H   0  0  0  0  0  0  0  0  0  0  0  0
   40.2860   34.8620   39.8250 H   0  0  0  0  0  0  0  0  0  0  0  0
   41.8580   32.9290   40.6850 C   0  0  0  0  0  0  0  0  0  0  0  0
   42.4170   31.9110   39.9460 F   0  0  0  0  0  0  0  0  0  0  0  0
   42.1760   32.6620   41.9940 F   0  0  0  0  0  0  0  0  0  0  0  0
   42.3620   34.1330   40.2460 F   0  0  0  0  0  0  0  0  0  0  0  0
  1  7  1  1  0  0  0
  1  6  1  0  0  0  0
  2  3  1  0  0  0  0
  2  1  1  0  0  0  0
  3  4  1  0  0  0  0
  4 13  1  0  0  0  0
  4 12  1  0  0  0  0
  4  5  1  0  0  0  0
  5 14  1  0  0  0  0
  5 15  1  0  0  0  0
  6  5  1  0  0  0  0
  6 16  1  1  0  0  0
  8  2  1  0  0  0  0
  9  2  1  0  0  0  0
 10  3  1  0  0  0  0
 11  3  1  0  0  0  0
 17  6  1  0  0  0  0
 17 18  1  0  0  0  0
 17 20  1  0  0  0  0
 19 17  1  0  0  0  0
 21 22  2  0  0  0  0
 21  1  1  0  0  0  0
 23 24  2  0  0  0  0
 23 28  1  0  0  0  0
 24 25  1  0  0  0  0
 25 31  1  0  0  0  0
 25 26  2  0  0  0  0
 27 26  1  0  0  0  0
 27 21  1  0  0  0  0
 28 27  2  0  0  0  0
 29 23  1  0  0  0  0
 30 24  1  0  0  0  0
 31 33  1  0  0  0  0
 32 31  1  0  0  0  0
 34 31  1  0  0  0  0
M  END
>  <minimizedAffinity>
-5.34518147

$$$$

 OpenBabel03242518523D

 34 35  0  0  1  0  0  0  0  0999 V2000
   38.4100   30.2240   39.6060 C   0  0  2  0  0  0  0  0  0  0  0  0
   37.9280   31.6050   39.9270 C   0  0  0  0  0  0  0  0  0  0  0  0
   37.3590   32.1740   38.6790 C   0  0  0  0  0  0  0  0  0  0  0  0
   37.4780   31.3990   37.4530 C   0  0  0  0  0  0  0  0  0  0  0  0
   37.3370   29.9360   37.5110 C   0  0  0  0  0  0  0  0  0  0  0  0
   37.3800   29.4340   38.9560 C   0  0  2  0  0  0  0  0  0  0  0  0
   39.2390   30.4370   38.8440 H   0  0  0  0  0  0  0  0  0  0  0  0
   37.2570   31.6530   40.8120 H   0  0  0  0  0  0  0  0  0  0  0  0
   38.8400   32.1360   40.2680 H   0  0  0  0  0  0  0  0  0  0  0  0
   36.4110   32.7830   38.8250 H   0  0  0  0  0  0  0  0  0  0  0  0
   38.0360   33.1110   38.4880 H   0  0  0  0  0  0  0  0  0  0  0  0
   36.6670   31.7760   36.7480 H   0  0  0  0  0  0  0  0  0  0  0  0
   38.4050   31.7280   36.8850 H   0  0  0  0  0  0  0  0  0  0  0  0
   38.1740   29.5560   36.8520 H   0  0  0  0  0  0  0  0  0  0  0  0
   36.4070   29.5710   36.9790 H   0  0  0  0  0  0  0  0  0  0  0  0
   37.5910   28.4700   38.5090 H   0  0  0  0  0  0  0  0  0  0  0  0
   35.9710   29.4140   39.4010 C   0  0  0  0  0  0  0  0  0  0  0  0
   35.0010   29.6090   38.4390 F   0  0  0  0  0  0  0  0  0  0  0  0
   35.6360   30.1860   40.4940 F   0  0  0  0  0  0  0  0  0  0  0  0
   35.5570   28.1360   39.8410 F   0  0  0  0  0  0  0  0  0  0  0  0
   39.1730   29.6000   40.6900 C   0  0  0  0  0  0  0  0  0  0  0  0
   40.4080   29.7380   40.8860 O   0  0  0  0  0  0  0  0  0  0  0  0
   37.1830   28.5120   43.5520 C   0  0  0  0  0  0  0  0  0  0  0  0
   37.0760   27.1110   43.3950 C   0  0  0  0  0  0  0  0  0  0  0  0
   37.6960   26.5730   42.2670 C   0  0  0  0  0  0  0  0  0  0  0  0
   38.3150   27.4550   41.4710 N   0  0  0  0  0  0  0  0  0  0  0  0
   38.4180   28.7480   41.6100 C   0  0  0  0  0  0  0  0  0  0  0  0
   37.8220   29.2930   42.7010 N   0  0  0  0  0  0  0  0  0  0  0  0
   36.7160   28.9880   44.4160 H   0  0  0  0  0  0  0  0  0  0  0  0
   36.5590   26.4930   44.0850 H   0  0  0  0  0  0  0  0  0  0  0  0
   37.6120   25.1190   42.0960 C   0  0  0  0  0  0  0  0  0  0  0  0
   37.6050   24.7890   40.7600 F   0  0  0  0  0  0  0  0  0  0  0  0
   36.3770   24.7620   42.5790 F   0  0  0  0  0  0  0  0  0  0  0  0
   38.6440   24.4520   42.7180 F   0  0  0  0  0  0  0  0  0  0  0  0
  1  7  1  6  0  0  0
  1  2  1  0  0  0  0
  1 21  1  0  0  0  0
  2  9  1  0  0  0  0
  2  8  1  0  0  0  0
  3 10  1  0  0  0  0
  3  2  1  0  0  0  0
  4  5  1  0  0  0  0
  4  3  1  0  0  0  0
  5  6  1  0  0  0  0
  6 16  1  6  0  0  0
  6 17  1  0  0  0  0
  6  1  1  0  0  0  0
 11  3  1  0  0  0  0
 12  4  1  0  0  0  0
 13  4  1  0  0  0  0
 14  5  1  0  0  0  0
 15  5  1  0  0  0  0
 17 20  1  0  0  0  0
 17 19  1  0  0  0  0
 18 17  1  0  0  0  0
 21 22  2  0  0  0  0
 21 27  1  0  0  0  0
 23 29  1  0  0  0  0
 24 23  1  0  0  0  0
 24 30  1  0  0  0  0
 25 24  2  0  0  0  0
 26 27  2  0  0  0  0
 26 25  1  0  0  0  0
 27 28  1  0  0  0  0
 28 23  2  0  0  0  0
 31 25  1  0  0  0  0
 31 33  1  0  0  0  0
 31 34  1  0  0  0  0
 32 31  1  0  0  0  0
M  END
>  <minimizedAffinity>
-5.33524513

$$$$
