
 OpenBabel03242523193D

 32 34  0  0  0  0  0  0  0  0999 V2000
   47.3820   32.8100   44.0180 C   0  0  0  0  0  0  0  0  0  0  0  0
   48.2380   33.3100   43.1140 C   0  0  0  0  0  0  0  0  0  0  0  0
   49.0770   32.3820   42.5390 C   0  0  0  0  0  0  0  0  0  0  0  0
   48.9710   31.0370   42.9370 N   0  0  0  0  0  0  0  0  0  0  0  0
   48.1060   30.6220   43.8340 C   0  0  0  0  0  0  0  0  0  0  0  0
   47.2510   31.5190   44.4270 N   0  0  0  0  0  0  0  0  0  0  0  0
   49.8300   32.5760   41.7960 H   0  0  0  0  0  0  0  0  0  0  0  0
   48.1390   29.5550   44.0420 H   0  0  0  0  0  0  0  0  0  0  0  0
   48.4220   34.6850   42.7980 C   0  0  0  0  0  0  0  0  0  0  0  0
   49.4520   35.2690   42.1320 C   0  0  0  0  0  0  0  0  0  0  0  0
   48.2240   35.0980   41.2760 C   0  0  0  0  0  0  0  0  0  0  0  0
   47.9510   35.3720   43.5230 H   0  0  0  0  0  0  0  0  0  0  0  0
   49.7920   36.3300   42.1410 H   0  0  0  0  0  0  0  0  0  0  0  0
   50.3520   34.6420   41.8440 H   0  0  0  0  0  0  0  0  0  0  0  0
   48.2330   34.2370   40.6100 H   0  0  0  0  0  0  0  0  0  0  0  0
   47.5270   35.9360   41.1320 H   0  0  0  0  0  0  0  0  0  0  0  0
   46.3140   33.5440   44.7110 C   0  0  0  0  0  0  0  0  0  0  0  0
   45.7410   33.9280   45.6970 O   0  0  0  0  0  0  0  0  0  0  0  0
   44.5440   31.7610   42.9230 Cl  0  0  0  0  0  0  0  0  0  0  0  0
   44.5690   33.5130   42.7800 C   0  0  0  0  0  0  0  0  0  0  0  0
   45.4290   34.1780   43.6820 C   0  0  0  0  0  0  0  0  0  0  0  0
   45.3800   35.5500   43.4970 C   0  0  0  0  0  0  0  0  0  0  0  0
   44.6650   36.2710   42.6220 C   0  0  0  0  0  0  0  0  0  0  0  0
   43.8580   35.5550   41.7820 C   0  0  0  0  0  0  0  0  0  0  0  0
   43.8010   34.2080   41.8490 C   0  0  0  0  0  0  0  0  0  0  0  0
   45.9730   36.2260   44.1510 H   0  0  0  0  0  0  0  0  0  0  0  0
   44.6580   37.3380   42.5100 H   0  0  0  0  0  0  0  0  0  0  0  0
   43.2160   35.9680   41.0180 H   0  0  0  0  0  0  0  0  0  0  0  0
   42.9540   33.3030   40.9840 C   0  0  0  0  0  0  0  0  0  0  0  0
   43.7670   32.5300   40.2130 F   0  0  0  0  0  0  0  0  0  0  0  0
   42.2230   34.1090   40.1020 F   0  0  0  0  0  0  0  0  0  0  0  0
   42.0420   32.6010   41.7260 F   0  0  0  0  0  0  0  0  0  0  0  0
  1  6  1  0  0  0  0
  1 17  1  0  0  0  0
  2  1  2  0  0  0  0
  3  4  2  0  0  0  0
  3  2  1  0  0  0  0
  4  5  1  0  0  0  0
  5  8  1  0  0  0  0
  5  6  2  0  0  0  0
  7  3  1  0  0  0  0
  9  2  1  0  0  0  0
  9 12  1  0  0  0  0
 10 13  1  0  0  0  0
 10  9  1  0  0  0  0
 11 10  1  0  0  0  0
 11  9  1  0  0  0  0
 14 10  1  0  0  0  0
 15 11  1  0  0  0  0
 16 11  1  0  0  0  0
 17 18  2  0  0  0  0
 20 19  1  0  0  0  0
 20 21  1  0  0  0  0
 21 17  1  0  0  0  0
 22 21  2  0  0  0  0
 22 26  1  0  0  0  0
 23 22  1  0  0  0  0
 24 25  1  0  0  0  0
 24 23  2  0  0  0  0
 25 20  2  0  0  0  0
 27 23  1  0  0  0  0
 28 24  1  0  0  0  0
 29 32  1  0  0  0  0
 29 25  1  0  0  0  0
 30 29  1  0  0  0  0
 31 29  1  0  0  0  0
M  END
>  <minimizedAffinity>
-5.23136473

>  <minimizedRMSD>
0.33399418

$$$$
