
 OpenBabel03252505353D

 25 26  0  0  0  0  0  0  0  0999 V2000
   38.1930   29.4130   41.6850 C   0  0  0  0  0  0  0  0  0  0  0  0
   39.0760   28.7740   42.5440 C   0  0  0  0  0  0  0  0  0  0  0  0
   38.6750   27.6930   43.3410 C   0  0  0  0  0  0  0  0  0  0  0  0
   37.3730   27.2500   43.2760 C   0  0  0  0  0  0  0  0  0  0  0  0
   36.5150   27.8910   42.4250 C   0  0  0  0  0  0  0  0  0  0  0  0
   36.9030   28.9630   41.6310 C   0  0  0  0  0  0  0  0  0  0  0  0
   40.0980   29.1050   42.6090 H   0  0  0  0  0  0  0  0  0  0  0  0
   39.4040   27.2280   43.9950 H   0  0  0  0  0  0  0  0  0  0  0  0
   37.0660   26.4120   43.8950 H   0  0  0  0  0  0  0  0  0  0  0  0
   35.4800   27.5890   42.3300 H   0  0  0  0  0  0  0  0  0  0  0  0
   39.7990   31.5360   39.0280 C   0  0  0  0  0  0  0  0  0  0  0  0
   39.3420   30.3620   39.6800 C   0  0  0  0  0  0  0  0  0  0  0  0
   38.7070   30.5160   40.9090 C   0  0  0  0  0  0  0  0  0  0  0  0
   38.5600   31.7650   41.4100 N   0  0  0  0  0  0  0  0  0  0  0  0
   39.0140   32.8610   40.7510 C   0  0  0  0  0  0  0  0  0  0  0  0
   39.6300   32.7420   39.5640 N   0  0  0  0  0  0  0  0  0  0  0  0
   38.8700   34.1610   41.3000 N   0  0  0  0  0  0  0  0  0  0  0  0
   40.2830   31.4080   38.0890 H   0  0  0  0  0  0  0  0  0  0  0  0
   39.4540   29.3610   39.2870 H   0  0  0  0  0  0  0  0  0  0  0  0
   38.0170   34.7090   41.4790 H   0  0  0  0  0  0  0  0  0  0  0  0
   39.7870   34.6080   41.5530 H   0  0  0  0  0  0  0  0  0  0  0  0
   35.9600   29.6420   40.7180 C   0  0  0  0  0  0  0  0  0  0  0  0
   35.7810   30.9420   41.1830 F   0  0  0  0  0  0  0  0  0  0  0  0
   34.7480   28.9530   40.7380 F   0  0  0  0  0  0  0  0  0  0  0  0
   36.3700   29.6870   39.4160 F   0  0  0  0  0  0  0  0  0  0  0  0
  1  2  1  0  0  0  0
  2  7  1  0  0  0  0
  2  3  2  0  0  0  0
  3  8  1  0  0  0  0
  4  3  1  0  0  0  0
  4  9  1  0  0  0  0
  5  4  2  0  0  0  0
  6  1  2  0  0  0  0
  6  5  1  0  0  0  0
 10  5  1  0  0  0  0
 11 16  2  0  0  0  0
 11 12  1  0  0  0  0
 12 13  2  0  0  0  0
 13 14  1  0  0  0  0
 13  1  1  0  0  0  0
 15 17  1  0  0  0  0
 15 14  2  0  0  0  0
 16 15  1  0  0  0  0
 17 20  1  0  0  0  0
 17 21  1  0  0  0  0
 18 11  1  0  0  0  0
 19 12  1  0  0  0  0
 22 24  1  0  0  0  0
 22 23  1  0  0  0  0
 22  6  1  0  0  0  0
 25 22  1  0  0  0  0
M  END
>  <minimizedAffinity>
-5.44193029

$$$$

 OpenBabel03252505353D

 25 26  0  0  0  0  0  0  0  0999 V2000
   38.8420   28.6660   41.6980 C   0  0  0  0  0  0  0  0  0  0  0  0
   40.1990   28.8950   41.8840 C   0  0  0  0  0  0  0  0  0  0  0  0
   40.9330   28.2110   42.8620 C   0  0  0  0  0  0  0  0  0  0  0  0
   40.2990   27.2870   43.6630 C   0  0  0  0  0  0  0  0  0  0  0  0
   38.9620   27.0730   43.4680 C   0  0  0  0  0  0  0  0  0  0  0  0
   38.2250   27.7470   42.5000 C   0  0  0  0  0  0  0  0  0  0  0  0
   40.7130   29.6120   41.2680 H   0  0  0  0  0  0  0  0  0  0  0  0
   41.9910   28.4260   42.9660 H   0  0  0  0  0  0  0  0  0  0  0  0
   40.8710   26.7590   44.4190 H   0  0  0  0  0  0  0  0  0  0  0  0
   38.4090   26.3610   44.0650 H   0  0  0  0  0  0  0  0  0  0  0  0
   37.2490   29.7790   38.4780 C   0  0  0  0  0  0  0  0  0  0  0  0
   37.9060   28.9200   39.3960 C   0  0  0  0  0  0  0  0  0  0  0  0
   38.1790   29.4240   40.6640 C   0  0  0  0  0  0  0  0  0  0  0  0
   37.8070   30.6940   40.9500 N   0  0  0  0  0  0  0  0  0  0  0  0
   37.1810   31.4810   40.0400 C   0  0  0  0  0  0  0  0  0  0  0  0
   36.9040   31.0200   38.8090 N   0  0  0  0  0  0  0  0  0  0  0  0
   36.8160   32.8160   40.3500 N   0  0  0  0  0  0  0  0  0  0  0  0
   37.0440   29.3840   37.5110 H   0  0  0  0  0  0  0  0  0  0  0  0
   38.2070   27.9050   39.1760 H   0  0  0  0  0  0  0  0  0  0  0  0
   36.1230   33.1680   41.0250 H   0  0  0  0  0  0  0  0  0  0  0  0
   37.3460   33.5310   39.7910 H   0  0  0  0  0  0  0  0  0  0  0  0
   36.7810   27.5010   42.3050 C   0  0  0  0  0  0  0  0  0  0  0  0
   36.2910   26.9090   43.4660 F   0  0  0  0  0  0  0  0  0  0  0  0
   36.6200   26.6400   41.2210 F   0  0  0  0  0  0  0  0  0  0  0  0
   36.0510   28.6230   42.0330 F   0  0  0  0  0  0  0  0  0  0  0  0
  1  2  2  0  0  0  0
  1  6  1  0  0  0  0
  2  3  1  0  0  0  0
  3  8  1  0  0  0  0
  3  4  2  0  0  0  0
  4  9  1  0  0  0  0
  5  4  1  0  0  0  0
  5 10  1  0  0  0  0
  6  5  2  0  0  0  0
  7  2  1  0  0  0  0
 11 16  2  0  0  0  0
 11 12  1  0  0  0  0
 12 13  2  0  0  0  0
 13 14  1  0  0  0  0
 13  1  1  0  0  0  0
 15 17  1  0  0  0  0
 15 14  2  0  0  0  0
 16 15  1  0  0  0  0
 17 20  1  0  0  0  0
 18 11  1  0  0  0  0
 19 12  1  0  0  0  0
 21 17  1  0  0  0  0
 22  6  1  0  0  0  0
 22 23  1  0  0  0  0
 24 22  1  0  0  0  0
 25 22  1  0  0  0  0
M  END
>  <minimizedAffinity>
-5.30335712

$$$$

 OpenBabel03252505353D

 25 26  0  0  0  0  0  0  0  0999 V2000
   37.1110   26.5210   40.5370 C   0  0  0  0  0  0  0  0  0  0  0  0
   36.4510   25.7860   39.5610 C   0  0  0  0  0  0  0  0  0  0  0  0
   36.2180   24.4120   39.7070 C   0  0  0  0  0  0  0  0  0  0  0  0
   36.6520   23.7680   40.8450 C   0  0  0  0  0  0  0  0  0  0  0  0
   37.3010   24.5060   41.7960 C   0  0  0  0  0  0  0  0  0  0  0  0
   37.5370   25.8690   41.6610 C   0  0  0  0  0  0  0  0  0  0  0  0
   36.1040   26.2700   38.6660 H   0  0  0  0  0  0  0  0  0  0  0  0
   35.6980   23.8840   38.9160 H   0  0  0  0  0  0  0  0  0  0  0  0
   36.4690   22.7040   40.9550 H   0  0  0  0  0  0  0  0  0  0  0  0
   37.6650   24.0580   42.7110 H   0  0  0  0  0  0  0  0  0  0  0  0
   38.3850   29.8480   39.3300 C   0  0  0  0  0  0  0  0  0  0  0  0
   38.3170   28.4400   39.4840 C   0  0  0  0  0  0  0  0  0  0  0  0
   37.3010   27.9300   40.2880 C   0  0  0  0  0  0  0  0  0  0  0  0
   36.4410   28.7970   40.8730 N   0  0  0  0  0  0  0  0  0  0  0  0
   36.5450   30.1390   40.6970 C   0  0  0  0  0  0  0  0  0  0  0  0
   37.5140   30.6580   39.9260 N   0  0  0  0  0  0  0  0  0  0  0  0
   35.6480   31.0340   41.3330 N   0  0  0  0  0  0  0  0  0  0  0  0
   39.1650   30.2270   38.7130 H   0  0  0  0  0  0  0  0  0  0  0  0
   38.9990   27.7400   39.0210 H   0  0  0  0  0  0  0  0  0  0  0  0
   34.6360   31.1650   41.1900 H   0  0  0  0  0  0  0  0  0  0  0  0
   36.1110   31.6440   42.0520 H   0  0  0  0  0  0  0  0  0  0  0  0
   38.2400   26.6490   42.7010 C   0  0  0  0  0  0  0  0  0  0  0  0
   38.9270   25.7510   43.5130 F   0  0  0  0  0  0  0  0  0  0  0  0
   37.2930   27.3470   43.4490 F   0  0  0  0  0  0  0  0  0  0  0  0
   39.1210   27.5720   42.2130 F   0  0  0  0  0  0  0  0  0  0  0  0
  1  6  1  0  0  0  0
  2  3  1  0  0  0  0
  2  1  2  0  0  0  0
  3  4  2  0  0  0  0
  4  9  1  0  0  0  0
  4  5  1  0  0  0  0
  5 10  1  0  0  0  0
  6  5  2  0  0  0  0
  6 22  1  0  0  0  0
  7  2  1  0  0  0  0
  8  3  1  0  0  0  0
 11 12  2  0  0  0  0
 11 16  1  0  0  0  0
 12 13  1  0  0  0  0
 13  1  1  0  0  0  0
 13 14  2  0  0  0  0
 15 14  1  0  0  0  0
 15 17  1  0  0  0  0
 16 15  2  0  0  0  0
 17 21  1  0  0  0  0
 18 11  1  0  0  0  0
 19 12  1  0  0  0  0
 20 17  1  0  0  0  0
 22 24  1  0  0  0  0
 22 23  1  0  0  0  0
 25 22  1  0  0  0  0
M  END
>  <minimizedAffinity>
-5.14263391

$$$$

 OpenBabel03252505353D

 25 26  0  0  0  0  0  0  0  0999 V2000
   37.6870   29.2850   41.4810 C   0  0  0  0  0  0  0  0  0  0  0  0
   36.5730   28.5120   41.7800 C   0  0  0  0  0  0  0  0  0  0  0  0
   36.5570   27.6360   42.8730 C   0  0  0  0  0  0  0  0  0  0  0  0
   37.6710   27.5340   43.6760 C   0  0  0  0  0  0  0  0  0  0  0  0
   38.7610   28.3030   43.3690 C   0  0  0  0  0  0  0  0  0  0  0  0
   38.7860   29.1740   42.2870 C   0  0  0  0  0  0  0  0  0  0  0  0
   35.6930   28.5770   41.1650 H   0  0  0  0  0  0  0  0  0  0  0  0
   35.6620   27.0540   43.0630 H   0  0  0  0  0  0  0  0  0  0  0  0
   37.6550   26.8550   44.5230 H   0  0  0  0  0  0  0  0  0  0  0  0
   39.6650   28.2670   43.9620 H   0  0  0  0  0  0  0  0  0  0  0  0
   37.6930   30.6910   37.9930 C   0  0  0  0  0  0  0  0  0  0  0  0
   37.8100   29.7260   39.0250 C   0  0  0  0  0  0  0  0  0  0  0  0
   37.6000   30.1550   40.3320 C   0  0  0  0  0  0  0  0  0  0  0  0
   37.2970   31.4570   40.5460 N   0  0  0  0  0  0  0  0  0  0  0  0
   37.1960   32.3470   39.5270 C   0  0  0  0  0  0  0  0  0  0  0  0
   37.3940   31.9610   38.2560 N   0  0  0  0  0  0  0  0  0  0  0  0
   36.8990   33.7120   39.7700 N   0  0  0  0  0  0  0  0  0  0  0  0
   37.8560   30.3530   36.9970 H   0  0  0  0  0  0  0  0  0  0  0  0
   38.0510   28.6840   38.8640 H   0  0  0  0  0  0  0  0  0  0  0  0
   36.0390   34.1430   40.1370 H   0  0  0  0  0  0  0  0  0  0  0  0
   37.6920   34.3580   39.5300 H   0  0  0  0  0  0  0  0  0  0  0  0
   39.9730   29.9960   41.9710 C   0  0  0  0  0  0  0  0  0  0  0  0
   40.4210   29.6260   40.7060 F   0  0  0  0  0  0  0  0  0  0  0  0
   40.9570   29.7390   42.9240 F   0  0  0  0  0  0  0  0  0  0  0  0
   39.7460   31.3430   41.9870 F   0  0  0  0  0  0  0  0  0  0  0  0
  1  2  2  0  0  0  0
  1  6  1  0  0  0  0
  2  3  1  0  0  0  0
  3  8  1  0  0  0  0
  3  4  2  0  0  0  0
  4  9  1  0  0  0  0
  5  4  1  0  0  0  0
  5 10  1  0  0  0  0
  6  5  2  0  0  0  0
  7  2  1  0  0  0  0
 11 16  2  0  0  0  0
 11 12  1  0  0  0  0
 12 13  2  0  0  0  0
 13 14  1  0  0  0  0
 13  1  1  0  0  0  0
 15 17  1  0  0  0  0
 15 14  2  0  0  0  0
 16 15  1  0  0  0  0
 17 20  1  0  0  0  0
 18 11  1  0  0  0  0
 19 12  1  0  0  0  0
 21 17  1  0  0  0  0
 22 25  1  0  0  0  0
 22  6  1  0  0  0  0
 22 24  1  0  0  0  0
 23 22  1  0  0  0  0
M  END
>  <minimizedAffinity>
-5.10671711

$$$$

 OpenBabel03252505353D

 25 26  0  0  0  0  0  0  0  0999 V2000
   37.1180   30.8600   38.6260 C   0  0  0  0  0  0  0  0  0  0  0  0
   37.3390   30.8220   37.2550 C   0  0  0  0  0  0  0  0  0  0  0  0
   36.7520   29.8430   36.4420 C   0  0  0  0  0  0  0  0  0  0  0  0
   35.9350   28.8910   37.0100 C   0  0  0  0  0  0  0  0  0  0  0  0
   35.7280   28.9410   38.3610 C   0  0  0  0  0  0  0  0  0  0  0  0
   36.3050   29.9080   39.1760 C   0  0  0  0  0  0  0  0  0  0  0  0
   37.9730   31.5570   36.7920 H   0  0  0  0  0  0  0  0  0  0  0  0
   36.9570   29.8580   35.3780 H   0  0  0  0  0  0  0  0  0  0  0  0
   35.4830   28.1340   36.3770 H   0  0  0  0  0  0  0  0  0  0  0  0
   35.0970   28.2220   38.8650 H   0  0  0  0  0  0  0  0  0  0  0  0
   38.0810   34.1600   40.1510 C   0  0  0  0  0  0  0  0  0  0  0  0
   37.3420   33.2340   39.3710 C   0  0  0  0  0  0  0  0  0  0  0  0
   37.7690   31.9090   39.3720 C   0  0  0  0  0  0  0  0  0  0  0  0
   38.8560   31.5800   40.1100 N   0  0  0  0  0  0  0  0  0  0  0  0
   39.5330   32.5000   40.8410 C   0  0  0  0  0  0  0  0  0  0  0  0
   39.1430   33.7850   40.8590 N   0  0  0  0  0  0  0  0  0  0  0  0
   40.6820   32.1420   41.5920 N   0  0  0  0  0  0  0  0  0  0  0  0
   37.7460   35.1700   40.1440 H   0  0  0  0  0  0  0  0  0  0  0  0
   36.4740   33.4880   38.7800 H   0  0  0  0  0  0  0  0  0  0  0  0
   40.7640   31.5300   42.4160 H   0  0  0  0  0  0  0  0  0  0  0  0
   41.5660   32.5810   41.2320 H   0  0  0  0  0  0  0  0  0  0  0  0
   36.0680   29.9460   40.6350 C   0  0  0  0  0  0  0  0  0  0  0  0
   37.1940   29.4200   41.2610 F   0  0  0  0  0  0  0  0  0  0  0  0
   34.9490   29.1660   40.9230 F   0  0  0  0  0  0  0  0  0  0  0  0
   35.8210   31.1930   41.1330 F   0  0  0  0  0  0  0  0  0  0  0  0
  1  6  1  0  0  0  0
  1 13  1  0  0  0  0
  2  1  2  0  0  0  0
  3  4  2  0  0  0  0
  3  2  1  0  0  0  0
  4  5  1  0  0  0  0
  5 10  1  0  0  0  0
  5  6  2  0  0  0  0
  6 22  1  0  0  0  0
  7  2  1  0  0  0  0
  8  3  1  0  0  0  0
  9  4  1  0  0  0  0
 11 16  1  0  0  0  0
 12 13  1  0  0  0  0
 12 11  2  0  0  0  0
 13 14  2  0  0  0  0
 14 15  1  0  0  0  0
 15 16  2  0  0  0  0
 15 17  1  0  0  0  0
 17 20  1  0  0  0  0
 18 11  1  0  0  0  0
 19 12  1  0  0  0  0
 21 17  1  0  0  0  0
 22 24  1  0  0  0  0
 22 25  1  0  0  0  0
 22 23  1  0  0  0  0
M  END
>  <minimizedAffinity>
-5.07310104

$$$$

 OpenBabel03252505353D

 25 26  0  0  0  0  0  0  0  0999 V2000
   37.7690   29.3250   41.5230 C   0  0  0  0  0  0  0  0  0  0  0  0
   37.9990   29.2790   42.8910 C   0  0  0  0  0  0  0  0  0  0  0  0
   37.5380   28.2160   43.6800 C   0  0  0  0  0  0  0  0  0  0  0  0
   36.8370   27.1880   43.0890 C   0  0  0  0  0  0  0  0  0  0  0  0
   36.6190   27.2480   41.7390 C   0  0  0  0  0  0  0  0  0  0  0  0
   37.0720   28.2980   40.9490 C   0  0  0  0  0  0  0  0  0  0  0  0
   38.5440   30.0720   43.3720 H   0  0  0  0  0  0  0  0  0  0  0  0
   37.7440   28.2280   44.7440 H   0  0  0  0  0  0  0  0  0  0  0  0
   36.4820   26.3660   43.7020 H   0  0  0  0  0  0  0  0  0  0  0  0
   36.0760   26.4720   41.2180 H   0  0  0  0  0  0  0  0  0  0  0  0
   39.9500   31.7090   39.5980 C   0  0  0  0  0  0  0  0  0  0  0  0
   39.5750   30.5240   40.2810 C   0  0  0  0  0  0  0  0  0  0  0  0
   38.2860   30.4640   40.8030 C   0  0  0  0  0  0  0  0  0  0  0  0
   37.4680   31.5290   40.6320 N   0  0  0  0  0  0  0  0  0  0  0  0
   37.8690   32.6430   39.9700 C   0  0  0  0  0  0  0  0  0  0  0  0
   39.1070   32.7290   39.4560 N   0  0  0  0  0  0  0  0  0  0  0  0
   37.0050   33.7580   39.8170 N   0  0  0  0  0  0  0  0  0  0  0  0
   40.9370   31.7450   39.2020 H   0  0  0  0  0  0  0  0  0  0  0  0
   40.2220   29.6690   40.4230 H   0  0  0  0  0  0  0  0  0  0  0  0
   36.1290   33.8420   39.2830 H   0  0  0  0  0  0  0  0  0  0  0  0
   37.3340   34.6110   40.3350 H   0  0  0  0  0  0  0  0  0  0  0  0
   36.8260   28.3440   39.4930 C   0  0  0  0  0  0  0  0  0  0  0  0
   36.0130   27.2630   39.1650 F   0  0  0  0  0  0  0  0  0  0  0  0
   38.0490   28.2430   38.8320 F   0  0  0  0  0  0  0  0  0  0  0  0
   36.2330   29.4950   39.0580 F   0  0  0  0  0  0  0  0  0  0  0  0
  1  2  1  0  0  0  0
  2  7  1  0  0  0  0
  2  3  2  0  0  0  0
  3  8  1  0  0  0  0
  4  3  1  0  0  0  0
  4  9  1  0  0  0  0
  5  4  2  0  0  0  0
  6  1  2  0  0  0  0
  6  5  1  0  0  0  0
 10  5  1  0  0  0  0
 11 12  1  0  0  0  0
 12 19  1  0  0  0  0
 12 13  2  0  0  0  0
 13  1  1  0  0  0  0
 14 13  1  0  0  0  0
 15 14  2  0  0  0  0
 16 11  2  0  0  0  0
 16 15  1  0  0  0  0
 17 15  1  0  0  0  0
 17 21  1  0  0  0  0
 18 11  1  0  0  0  0
 20 17  1  0  0  0  0
 22  6  1  0  0  0  0
 23 22  1  0  0  0  0
 24 22  1  0  0  0  0
 25 22  1  0  0  0  0
M  END
>  <minimizedAffinity>
-5.06967688

$$$$

 OpenBabel03252505353D

 25 26  0  0  0  0  0  0  0  0999 V2000
   38.3350   29.4740   41.6020 C   0  0  0  0  0  0  0  0  0  0  0  0
   39.2460   28.8190   42.4200 C   0  0  0  0  0  0  0  0  0  0  0  0
   38.8530   27.7790   43.2730 C   0  0  0  0  0  0  0  0  0  0  0  0
   37.5320   27.3910   43.3060 C   0  0  0  0  0  0  0  0  0  0  0  0
   36.6470   28.0460   42.4940 C   0  0  0  0  0  0  0  0  0  0  0  0
   37.0260   29.0790   41.6450 C   0  0  0  0  0  0  0  0  0  0  0  0
   40.2820   29.1070   42.4090 H   0  0  0  0  0  0  0  0  0  0  0  0
   39.6040   27.3000   43.8910 H   0  0  0  0  0  0  0  0  0  0  0  0
   37.2320   26.5840   43.9670 H   0  0  0  0  0  0  0  0  0  0  0  0
   35.5970   27.7870   42.4750 H   0  0  0  0  0  0  0  0  0  0  0  0
   39.4240   32.8000   40.2260 C   0  0  0  0  0  0  0  0  0  0  0  0
   38.9020   31.8660   41.1570 C   0  0  0  0  0  0  0  0  0  0  0  0
   38.8420   30.5320   40.7620 C   0  0  0  0  0  0  0  0  0  0  0  0
   39.2790   30.2030   39.5240 N   0  0  0  0  0  0  0  0  0  0  0  0
   39.7700   31.1310   38.6660 C   0  0  0  0  0  0  0  0  0  0  0  0
   39.8410   32.4250   39.0190 N   0  0  0  0  0  0  0  0  0  0  0  0
   40.2060   30.7720   37.3640 N   0  0  0  0  0  0  0  0  0  0  0  0
   39.4660   33.8170   40.5370 H   0  0  0  0  0  0  0  0  0  0  0  0
   38.5510   32.1200   42.1470 H   0  0  0  0  0  0  0  0  0  0  0  0
   41.0020   30.1870   37.0760 H   0  0  0  0  0  0  0  0  0  0  0  0
   39.6090   31.1780   36.6010 H   0  0  0  0  0  0  0  0  0  0  0  0
   36.0540   29.7750   40.7760 C   0  0  0  0  0  0  0  0  0  0  0  0
   35.8860   31.0630   41.2740 F   0  0  0  0  0  0  0  0  0  0  0  0
   34.8460   29.0810   40.8180 F   0  0  0  0  0  0  0  0  0  0  0  0
   36.4250   29.8490   39.4640 F   0  0  0  0  0  0  0  0  0  0  0  0
  1  6  2  0  0  0  0
  1  2  1  0  0  0  0
  2  3  2  0  0  0  0
  3  4  1  0  0  0  0
  3  8  1  0  0  0  0
  4  9  1  0  0  0  0
  5  4  2  0  0  0  0
  6  5  1  0  0  0  0
  7  2  1  0  0  0  0
 10  5  1  0  0  0  0
 11 18  1  0  0  0  0
 11 12  1  0  0  0  0
 12 19  1  0  0  0  0
 13 12  2  0  0  0  0
 13  1  1  0  0  0  0
 14 13  1  0  0  0  0
 15 16  1  0  0  0  0
 15 14  2  0  0  0  0
 16 11  2  0  0  0  0
 17 15  1  0  0  0  0
 20 17  1  0  0  0  0
 21 17  1  0  0  0  0
 22 24  1  0  0  0  0
 22 23  1  0  0  0  0
 22  6  1  0  0  0  0
 25 22  1  0  0  0  0
M  END
>  <minimizedAffinity>
-4.98369789

$$$$

 OpenBabel03252505353D

 25 26  0  0  0  0  0  0  0  0999 V2000
   37.6140   29.3980   41.5040 C   0  0  0  0  0  0  0  0  0  0  0  0
   36.5230   28.5630   41.7070 C   0  0  0  0  0  0  0  0  0  0  0  0
   36.5030   27.6150   42.7380 C   0  0  0  0  0  0  0  0  0  0  0  0
   37.5910   27.5010   43.5750 C   0  0  0  0  0  0  0  0  0  0  0  0
   38.6580   28.3300   43.3620 C   0  0  0  0  0  0  0  0  0  0  0  0
   38.6870   29.2740   42.3420 C   0  0  0  0  0  0  0  0  0  0  0  0
   35.6630   28.6370   41.0640 H   0  0  0  0  0  0  0  0  0  0  0  0
   35.6260   26.9880   42.8530 H   0  0  0  0  0  0  0  0  0  0  0  0
   37.5720   26.7650   44.3730 H   0  0  0  0  0  0  0  0  0  0  0  0
   39.5410   28.2890   43.9850 H   0  0  0  0  0  0  0  0  0  0  0  0
   37.1130   32.4810   39.4090 C   0  0  0  0  0  0  0  0  0  0  0  0
   37.1500   31.6690   40.5710 C   0  0  0  0  0  0  0  0  0  0  0  0
   37.5330   30.3400   40.4140 C   0  0  0  0  0  0  0  0  0  0  0  0
   37.8460   29.8990   39.1720 N   0  0  0  0  0  0  0  0  0  0  0  0
   37.7970   30.7130   38.0880 C   0  0  0  0  0  0  0  0  0  0  0  0
   37.4310   31.9990   38.2110 N   0  0  0  0  0  0  0  0  0  0  0  0
   38.1090   30.2300   36.7920 N   0  0  0  0  0  0  0  0  0  0  0  0
   36.8200   33.4960   39.5410 H   0  0  0  0  0  0  0  0  0  0  0  0
   36.9010   32.0120   41.5660 H   0  0  0  0  0  0  0  0  0  0  0  0
   39.0070   29.8970   36.4120 H   0  0  0  0  0  0  0  0  0  0  0  0
   37.2830   30.2220   36.1420 H   0  0  0  0  0  0  0  0  0  0  0  0
   39.8500   30.1610   42.1290 C   0  0  0  0  0  0  0  0  0  0  0  0
   40.9070   29.6630   42.8860 F   0  0  0  0  0  0  0  0  0  0  0  0
   39.5150   31.4440   42.5570 F   0  0  0  0  0  0  0  0  0  0  0  0
   40.2460   30.2670   40.8260 F   0  0  0  0  0  0  0  0  0  0  0  0
  1  2  2  0  0  0  0
  1  6  1  0  0  0  0
  2  3  1  0  0  0  0
  3  8  1  0  0  0  0
  3  4  2  0  0  0  0
  4  9  1  0  0  0  0
  5  4  1  0  0  0  0
  5 10  1  0  0  0  0
  6  5  2  0  0  0  0
  7  2  1  0  0  0  0
 11 18  1  0  0  0  0
 11 12  1  0  0  0  0
 12 19  1  0  0  0  0
 13 12  2  0  0  0  0
 13  1  1  0  0  0  0
 14 13  1  0  0  0  0
 15 16  1  0  0  0  0
 15 14  2  0  0  0  0
 16 11  2  0  0  0  0
 17 15  1  0  0  0  0
 20 17  1  0  0  0  0
 21 17  1  0  0  0  0
 22  6  1  0  0  0  0
 22 24  1  0  0  0  0
 22 23  1  0  0  0  0
 25 22  1  0  0  0  0
M  END
>  <minimizedAffinity>
-4.92661572

$$$$

 OpenBabel03252505353D

 25 26  0  0  0  0  0  0  0  0999 V2000
   38.9170   27.7970   42.2660 C   0  0  0  0  0  0  0  0  0  0  0  0
   40.2310   28.1550   42.5370 C   0  0  0  0  0  0  0  0  0  0  0  0
   41.0970   27.3010   43.2330 C   0  0  0  0  0  0  0  0  0  0  0  0
   40.6400   26.0750   43.6630 C   0  0  0  0  0  0  0  0  0  0  0  0
   39.3430   25.7370   43.3880 C   0  0  0  0  0  0  0  0  0  0  0  0
   38.4760   26.5770   42.6980 C   0  0  0  0  0  0  0  0  0  0  0  0
   40.6070   29.1080   42.2100 H   0  0  0  0  0  0  0  0  0  0  0  0
   42.1140   27.6280   43.4190 H   0  0  0  0  0  0  0  0  0  0  0  0
   41.3140   25.4160   44.2010 H   0  0  0  0  0  0  0  0  0  0  0  0
   38.9260   24.7890   43.6990 H   0  0  0  0  0  0  0  0  0  0  0  0
   36.4900   30.5100   41.3210 C   0  0  0  0  0  0  0  0  0  0  0  0
   37.2230   29.6300   42.1580 C   0  0  0  0  0  0  0  0  0  0  0  0
   38.1080   28.7490   41.5430 C   0  0  0  0  0  0  0  0  0  0  0  0
   38.2210   28.7800   40.1940 N   0  0  0  0  0  0  0  0  0  0  0  0
   37.4980   29.6400   39.4330 C   0  0  0  0  0  0  0  0  0  0  0  0
   36.6370   30.5010   39.9990 N   0  0  0  0  0  0  0  0  0  0  0  0
   37.6140   29.6450   38.0190 N   0  0  0  0  0  0  0  0  0  0  0  0
   35.8160   31.1810   41.8010 H   0  0  0  0  0  0  0  0  0  0  0  0
   37.1390   29.5980   43.2350 H   0  0  0  0  0  0  0  0  0  0  0  0
   38.4150   29.9030   37.4260 H   0  0  0  0  0  0  0  0  0  0  0  0
   36.7360   29.3350   37.5310 H   0  0  0  0  0  0  0  0  0  0  0  0
   37.0780   26.1930   42.4120 C   0  0  0  0  0  0  0  0  0  0  0  0
   36.2600   26.8630   43.3170 F   0  0  0  0  0  0  0  0  0  0  0  0
   36.9520   24.8150   42.5790 F   0  0  0  0  0  0  0  0  0  0  0  0
   36.6650   26.4790   41.1420 F   0  0  0  0  0  0  0  0  0  0  0  0
  1  2  2  0  0  0  0
  1  6  1  0  0  0  0
  2  3  1  0  0  0  0
  3  8  1  0  0  0  0
  3  4  2  0  0  0  0
  4  9  1  0  0  0  0
  5  4  1  0  0  0  0
  5 10  1  0  0  0  0
  6  5  2  0  0  0  0
  7  2  1  0  0  0  0
 11 18  1  0  0  0  0
 11 12  1  0  0  0  0
 12 19  1  0  0  0  0
 13 12  2  0  0  0  0
 13  1  1  0  0  0  0
 14 13  1  0  0  0  0
 15 16  1  0  0  0  0
 15 14  2  0  0  0  0
 16 11  2  0  0  0  0
 17 15  1  0  0  0  0
 20 17  1  0  0  0  0
 21 17  1  0  0  0  0
 22 24  1  0  0  0  0
 22  6  1  0  0  0  0
 22 23  1  0  0  0  0
 25 22  1  0  0  0  0
M  END
>  <minimizedAffinity>
-4.85957336

$$$$
