
 OpenBabel03242521213D

 31 33  0  0  0  0  0  0  0  0999 V2000
   44.5590   32.5610   37.8950 C   0  0  0  0  0  0  0  0  0  0  0  0
   44.0960   31.7290   36.9210 C   0  0  0  0  0  0  0  0  0  0  0  0
   42.8000   31.2530   36.8670 C   0  0  0  0  0  0  0  0  0  0  0  0
   41.9890   31.6730   37.8660 N   0  0  0  0  0  0  0  0  0  0  0  0
   42.4450   32.4920   38.8260 C   0  0  0  0  0  0  0  0  0  0  0  0
   43.7180   32.9600   38.8790 N   0  0  0  0  0  0  0  0  0  0  0  0
   44.7520   31.3980   36.1260 H   0  0  0  0  0  0  0  0  0  0  0  0
   42.4250   30.6000   36.1080 H   0  0  0  0  0  0  0  0  0  0  0  0
   41.5260   32.9330   39.9070 C   0  0  0  0  0  0  0  0  0  0  0  0
   41.1770   32.0410   40.9030 C   0  0  0  0  0  0  0  0  0  0  0  0
   40.3360   32.3430   41.9500 C   0  0  0  0  0  0  0  0  0  0  0  0
   39.8130   33.6440   41.9840 C   0  0  0  0  0  0  0  0  0  0  0  0
   40.1600   34.5210   40.9980 C   0  0  0  0  0  0  0  0  0  0  0  0
   41.0020   34.2010   39.9600 C   0  0  0  0  0  0  0  0  0  0  0  0
   41.5970   31.0440   40.8530 H   0  0  0  0  0  0  0  0  0  0  0  0
   40.1020   31.5960   42.7010 H   0  0  0  0  0  0  0  0  0  0  0  0
   39.1490   33.9020   42.7970 H   0  0  0  0  0  0  0  0  0  0  0  0
   39.7360   35.5150   41.0580 H   0  0  0  0  0  0  0  0  0  0  0  0
   41.3660   35.1740   38.8980 C   0  0  0  0  0  0  0  0  0  0  0  0
   42.7110   35.5120   39.0940 F   0  0  0  0  0  0  0  0  0  0  0  0
   41.2500   34.6920   37.6310 F   0  0  0  0  0  0  0  0  0  0  0  0
   40.6500   36.3470   39.1160 F   0  0  0  0  0  0  0  0  0  0  0  0
   47.9020   33.5280   36.7420 C   0  0  0  0  0  0  0  0  0  0  0  0
   48.5200   33.9220   37.9220 C   0  0  0  0  0  0  0  0  0  0  0  0
   47.8040   33.8610   39.1060 C   0  0  0  0  0  0  0  0  0  0  0  0
   46.5080   33.4110   39.0640 N   0  0  0  0  0  0  0  0  0  0  0  0
   45.9350   33.0340   37.9080 C   0  0  0  0  0  0  0  0  0  0  0  0
   46.6200   33.0920   36.7660 N   0  0  0  0  0  0  0  0  0  0  0  0
   48.5010   33.5940   35.8450 H   0  0  0  0  0  0  0  0  0  0  0  0
   49.5130   34.2830   38.0480 H   0  0  0  0  0  0  0  0  0  0  0  0
   48.0960   34.1180   40.1150 H   0  0  0  0  0  0  0  0  0  0  0  0
  1 27  1  0  0  0  0
  1  6  1  0  0  0  0
  2  1  2  0  0  0  0
  3  2  1  0  0  0  0
  3  4  2  0  0  0  0
  4  5  1  0  0  0  0
  5  6  2  0  0  0  0
  5  9  1  0  0  0  0
  7  2  1  0  0  0  0
  8  3  1  0  0  0  0
  9 14  2  0  0  0  0
  9 10  1  0  0  0  0
 10 11  2  0  0  0  0
 11 12  1  0  0  0  0
 11 16  1  0  0  0  0
 12 17  1  0  0  0  0
 13 18  1  0  0  0  0
 13 12  2  0  0  0  0
 14 13  1  0  0  0  0
 15 10  1  0  0  0  0
 19 20  1  0  0  0  0
 19 22  1  0  0  0  0
 19 14  1  0  0  0  0
 21 19  1  0  0  0  0
 23 28  2  0  0  0  0
 23 24  1  0  0  0  0
 24 30  1  0  0  0  0
 24 25  2  0  0  0  0
 25 31  1  0  0  0  0
 26 25  1  0  0  0  0
 27 26  2  0  0  0  0
 28 27  1  0  0  0  0
 29 23  1  0  0  0  0
M  END
>  <minimizedAffinity>
-4.63795471

>  <minimizedRMSD>
8.54258537

$$$$
