
 OpenBabel03242516493D

 38 40  0  0  1  0  0  0  0  0999 V2000
   47.8800   32.9550   41.9320 C   0  0  1  0  0  0  0  0  0  0  0  0
   47.6220   32.2680   40.6500 C   0  0  0  0  0  0  0  0  0  0  0  0
   48.6810   32.7940   39.6740 C   0  0  0  0  0  0  0  0  0  0  0  0
   48.3160   34.2400   39.3950 C   0  0  0  0  0  0  0  0  0  0  0  0
   48.1810   35.0850   40.6210 C   0  0  0  0  0  0  0  0  0  0  0  0
   47.6450   34.4480   41.8370 C   0  0  1  0  0  0  0  0  0  0  0  0
   48.9880   32.8830   42.1560 H   0  0  0  0  0  0  0  0  0  0  0  0
   46.6270   32.4570   40.2220 H   0  0  0  0  0  0  0  0  0  0  0  0
   47.8130   31.1860   40.7480 H   0  0  0  0  0  0  0  0  0  0  0  0
   48.5530   32.2490   38.7110 H   0  0  0  0  0  0  0  0  0  0  0  0
   49.6810   32.7020   40.0950 H   0  0  0  0  0  0  0  0  0  0  0  0
   47.4170   34.3000   38.7800 H   0  0  0  0  0  0  0  0  0  0  0  0
   49.1500   34.6280   38.7490 H   0  0  0  0  0  0  0  0  0  0  0  0
   47.5270   35.9460   40.3610 H   0  0  0  0  0  0  0  0  0  0  0  0
   49.1930   35.5470   40.8100 H   0  0  0  0  0  0  0  0  0  0  0  0
   48.1970   34.8790   42.7280 H   0  0  0  0  0  0  0  0  0  0  0  0
   45.4480   30.9670   44.0250 C   0  0  0  0  0  0  0  0  0  0  0  0
   46.1450   31.5140   42.9490 C   0  0  0  0  0  0  0  0  0  0  0  0
   47.1950   32.4100   43.0970 C   0  0  0  0  0  0  0  0  0  0  0  0
   47.5200   32.7380   44.3590 N   0  0  0  0  0  0  0  0  0  0  0  0
   46.8480   32.2120   45.4160 C   0  0  0  0  0  0  0  0  0  0  0  0
   45.8460   31.3570   45.2740 N   0  0  0  0  0  0  0  0  0  0  0  0
   44.6430   30.2760   43.8250 H   0  0  0  0  0  0  0  0  0  0  0  0
   45.8400   31.2140   41.9530 H   0  0  0  0  0  0  0  0  0  0  0  0
   47.1180   32.4840   46.4370 H   0  0  0  0  0  0  0  0  0  0  0  0
   46.2380   34.7890   42.0970 C   0  0  0  0  0  0  0  0  0  0  0  0
   45.7340   35.3940   43.2600 C   0  0  0  0  0  0  0  0  0  0  0  0
   44.3510   35.6370   43.2480 C   0  0  0  0  0  0  0  0  0  0  0  0
   43.6170   35.2720   42.1270 C   0  0  0  0  0  0  0  0  0  0  0  0
   44.1460   34.6840   41.0150 C   0  0  0  0  0  0  0  0  0  0  0  0
   45.4840   34.4420   41.0120 N   0  0  0  0  0  0  0  0  0  0  0  0
   46.4390   35.6040   44.0180 H   0  0  0  0  0  0  0  0  0  0  0  0
   43.9690   36.1010   44.1390 H   0  0  0  0  0  0  0  0  0  0  0  0
   42.5510   35.4880   42.1820 H   0  0  0  0  0  0  0  0  0  0  0  0
   43.2320   34.3490   39.8910 C   0  0  0  0  0  0  0  0  0  0  0  0
   42.2440   33.5320   40.3980 F   0  0  0  0  0  0  0  0  0  0  0  0
   42.6700   35.5520   39.4530 F   0  0  0  0  0  0  0  0  0  0  0  0
   43.9600   33.7600   38.8880 F   0  0  0  0  0  0  0  0  0  0  0  0
  1  7  1  1  0  0  0
  1 19  1  0  0  0  0
  2  9  1  0  0  0  0
  2  1  1  0  0  0  0
  3 11  1  0  0  0  0
  3  2  1  0  0  0  0
  4  3  1  0  0  0  0
  4  5  1  0  0  0  0
  5 15  1  0  0  0  0
  5  6  1  0  0  0  0
  6  1  1  0  0  0  0
  6 26  1  0  0  0  0
  6 16  1  1  0  0  0
  8  2  1  0  0  0  0
 10  3  1  0  0  0  0
 12  4  1  0  0  0  0
 13  4  1  0  0  0  0
 14  5  1  0  0  0  0
 17 22  1  0  0  0  0
 18 19  1  0  0  0  0
 18 17  2  0  0  0  0
 19 20  2  0  0  0  0
 20 21  1  0  0  0  0
 21 25  1  0  0  0  0
 22 21  2  0  0  0  0
 23 17  1  0  0  0  0
 24 18  1  0  0  0  0
 26 27  1  0  0  0  0
 27 32  1  0  0  0  0
 28 27  2  0  0  0  0
 28 33  1  0  0  0  0
 29 34  1  0  0  0  0
 29 28  1  0  0  0  0
 30 29  2  0  0  0  0
 31 30  1  0  0  0  0
 31 26  2  0  0  0  0
 35 36  1  0  0  0  0
 35 30  1  0  0  0  0
 37 35  1  0  0  0  0
 38 35  1  0  0  0  0
M  END
>  <minimizedAffinity>
-5.18977785

>  <minimizedRMSD>
0.0871853977

$$$$
