
 OpenBabel03252509183D

 36 38  0  0  1  0  0  0  0  0999 V2000
   48.5210   29.0640   46.4700 C   0  0  1  0  0  0  0  0  0  0  0  0
   49.6030   29.5380   47.3800 C   0  0  0  0  0  0  0  0  0  0  0  0
   49.6110   28.9020   48.7350 C   0  0  0  0  0  0  0  0  0  0  0  0
   49.3750   27.4110   48.6820 C   0  0  0  0  0  0  0  0  0  0  0  0
   48.2420   27.0340   47.7660 C   0  0  0  0  0  0  0  0  0  0  0  0
   47.4880   28.2970   47.3210 C   0  0  2  0  0  0  0  0  0  0  0  0
   48.9360   28.2890   45.7990 H   0  0  0  0  0  0  0  0  0  0  0  0
   49.4310   30.6420   47.5420 H   0  0  0  0  0  0  0  0  0  0  0  0
   50.6060   29.4960   46.8870 H   0  0  0  0  0  0  0  0  0  0  0  0
   48.8990   29.3860   49.4300 H   0  0  0  0  0  0  0  0  0  0  0  0
   50.6340   29.0330   49.1680 H   0  0  0  0  0  0  0  0  0  0  0  0
   50.2990   26.8880   48.3240 H   0  0  0  0  0  0  0  0  0  0  0  0
   49.2180   27.0670   49.7230 H   0  0  0  0  0  0  0  0  0  0  0  0
   47.5390   26.3720   48.3180 H   0  0  0  0  0  0  0  0  0  0  0  0
   48.5840   26.5190   46.8660 H   0  0  0  0  0  0  0  0  0  0  0  0
   47.1300   28.8780   48.1710 H   0  0  0  0  0  0  0  0  0  0  0  0
   46.7070   32.3930   44.9220 C   0  0  0  0  0  0  0  0  0  0  0  0
   47.1850   31.5340   43.9190 C   0  0  0  0  0  0  0  0  0  0  0  0
   47.7990   30.3930   44.3080 C   0  0  0  0  0  0  0  0  0  0  0  0
   47.9430   30.1010   45.6790 C   0  0  0  0  0  0  0  0  0  0  0  0
   47.1540   31.5370   46.4710 S   0  0  0  0  0  0  0  0  0  0  0  0
   47.0790   31.7520   42.8680 H   0  0  0  0  0  0  0  0  0  0  0  0
   48.2280   29.6140   43.6990 H   0  0  0  0  0  0  0  0  0  0  0  0
   45.3560   35.5240   43.4340 C   0  0  0  0  0  0  0  0  0  0  0  0
   44.5990   36.0040   44.5340 C   0  0  0  0  0  0  0  0  0  0  0  0
   44.5850   35.2380   45.7280 C   0  0  0  0  0  0  0  0  0  0  0  0
   45.3130   34.0840   45.7250 N   0  0  0  0  0  0  0  0  0  0  0  0
   46.0200   33.6620   44.6600 C   0  0  0  0  0  0  0  0  0  0  0  0
   46.0320   34.3870   43.5270 N   0  0  0  0  0  0  0  0  0  0  0  0
   45.3860   36.0860   42.5080 H   0  0  0  0  0  0  0  0  0  0  0  0
   44.0480   36.9200   44.4730 H   0  0  0  0  0  0  0  0  0  0  0  0
   44.0240   35.5600   46.5960 H   0  0  0  0  0  0  0  0  0  0  0  0
   46.3560   27.8080   46.4320 C   0  0  0  0  0  0  0  0  0  0  0  0
   45.4040   28.7930   46.2490 F   0  0  0  0  0  0  0  0  0  0  0  0
   46.8710   27.3770   45.2310 F   0  0  0  0  0  0  0  0  0  0  0  0
   45.7690   26.7460   47.0640 F   0  0  0  0  0  0  0  0  0  0  0  0
  1  7  1  6  0  0  0
  1  6  1  0  0  0  0
  1  2  1  0  0  0  0
  2  8  1  0  0  0  0
  2  3  1  0  0  0  0
  3 11  1  0  0  0  0
  3 10  1  0  0  0  0
  4  3  1  0  0  0  0
  4 13  1  0  0  0  0
  5 14  1  0  0  0  0
  5  4  1  0  0  0  0
  6  5  1  0  0  0  0
  6 16  1  1  0  0  0
  9  2  1  0  0  0  0
 12  4  1  0  0  0  0
 15  5  1  0  0  0  0
 17 21  1  0  0  0  0
 18 19  1  0  0  0  0
 18 17  2  0  0  0  0
 19 20  2  0  0  0  0
 20  1  1  0  0  0  0
 20 21  1  0  0  0  0
 22 18  1  0  0  0  0
 23 19  1  0  0  0  0
 24 29  2  0  0  0  0
 24 25  1  0  0  0  0
 25 26  2  0  0  0  0
 26 32  1  0  0  0  0
 27 26  1  0  0  0  0
 28 17  1  0  0  0  0
 28 27  2  0  0  0  0
 29 28  1  0  0  0  0
 30 24  1  0  0  0  0
 31 25  1  0  0  0  0
 33 36  1  0  0  0  0
 33  6  1  0  0  0  0
 34 33  1  0  0  0  0
 35 33  1  0  0  0  0
M  END
>  <minimizedAffinity>
-4.09415627

>  <minimizedRMSD>
4.04920006

$$$$
