
 OpenBabel03252509213D

 20 21  0  0  0  0  0  0  0  0999 V2000
   44.8050   35.3150   45.0260 C   0  0  0  0  0  0  0  0  0  0  0  0
   45.5680   34.8250   43.9150 C   0  0  0  0  0  0  0  0  0  0  0  0
   46.2360   33.6460   44.1770 C   0  0  0  0  0  0  0  0  0  0  0  0
   46.1620   33.0090   45.4030 N   0  0  0  0  0  0  0  0  0  0  0  0
   45.4200   33.5260   46.4130 C   0  0  0  0  0  0  0  0  0  0  0  0
   44.7520   34.6720   46.2110 N   0  0  0  0  0  0  0  0  0  0  0  0
   44.2460   36.2180   44.9510 H   0  0  0  0  0  0  0  0  0  0  0  0
   45.5060   32.8710   47.2660 H   0  0  0  0  0  0  0  0  0  0  0  0
   46.9780   33.0070   43.0340 C   0  0  0  0  0  0  0  0  0  0  0  0
   48.4880   33.2680   43.1480 C   0  0  0  0  0  0  0  0  0  0  0  0
   47.8130   31.8740   43.3080 C   0  0  0  0  0  0  0  0  0  0  0  0
   46.6190   33.3170   42.0450 H   0  0  0  0  0  0  0  0  0  0  0  0
   48.8270   33.7730   44.0550 H   0  0  0  0  0  0  0  0  0  0  0  0
   49.0890   33.4090   42.2490 H   0  0  0  0  0  0  0  0  0  0  0  0
   48.0970   31.1310   42.5040 H   0  0  0  0  0  0  0  0  0  0  0  0
   47.9810   31.4570   44.3390 H   0  0  0  0  0  0  0  0  0  0  0  0
   45.5600   35.5830   42.6690 C   0  0  0  0  0  0  0  0  0  0  0  0
   44.8190   34.9360   41.6970 F   0  0  0  0  0  0  0  0  0  0  0  0
   46.8310   35.8790   42.2320 F   0  0  0  0  0  0  0  0  0  0  0  0
   44.9320   36.7970   42.8790 F   0  0  0  0  0  0  0  0  0  0  0  0
  1  6  1  0  0  0  0
  2  3  1  0  0  0  0
  2  1  2  0  0  0  0
  3  4  2  0  0  0  0
  4  5  1  0  0  0  0
  5  8  1  0  0  0  0
  6  5  2  0  0  0  0
  7  1  1  0  0  0  0
  9 10  1  0  0  0  0
  9 11  1  0  0  0  0
  9  3  1  0  0  0  0
 10 11  1  0  0  0  0
 10 13  1  0  0  0  0
 11 16  1  0  0  0  0
 12  9  1  0  0  0  0
 14 10  1  0  0  0  0
 15 11  1  0  0  0  0
 17 20  1  0  0  0  0
 17  2  1  0  0  0  0
 18 17  1  0  0  0  0
 19 17  1  0  0  0  0
M  END
>  <minimizedAffinity>
-3.82233357

>  <minimizedRMSD>
1.75929475

$$$$
