
 OpenBabel03252508323D

 27 28  0  0  1  0  0  0  0  0999 V2000
   45.4650   34.4090   42.1980 N   0  0  0  0  0  0  0  0  0  0  0  0
   46.6610   33.9670   41.5750 C   0  0  1  0  0  0  0  0  0  0  0  0
   46.6040   33.8260   40.0900 C   0  0  0  0  0  0  0  0  0  0  0  0
   45.3720   33.5890   39.4730 N   0  0  0  0  0  0  0  0  0  0  0  0
   44.2150   34.0200   40.1380 C   0  0  0  0  0  0  0  0  0  0  0  0
   44.5220   34.9500   41.2720 C   0  0  0  0  0  0  0  0  0  0  0  0
   46.9810   32.9970   42.0060 H   0  0  0  0  0  0  0  0  0  0  0  0
   47.0200   34.7810   39.6380 H   0  0  0  0  0  0  0  0  0  0  0  0
   47.3060   33.0030   39.7930 H   0  0  0  0  0  0  0  0  0  0  0  0
   45.3720   33.9470   38.4980 H   0  0  0  0  0  0  0  0  0  0  0  0
   43.7600   33.1070   40.6260 H   0  0  0  0  0  0  0  0  0  0  0  0
   43.4110   34.4270   39.5120 H   0  0  0  0  0  0  0  0  0  0  0  0
   43.6170   35.4120   41.7000 H   0  0  0  0  0  0  0  0  0  0  0  0
   45.0480   35.8310   40.7900 H   0  0  0  0  0  0  0  0  0  0  0  0
   44.6840   35.3770   44.2270 C   0  0  0  0  0  0  0  0  0  0  0  0
   45.3390   34.2970   43.5970 C   0  0  0  0  0  0  0  0  0  0  0  0
   45.8220   33.2680   44.3800 C   0  0  0  0  0  0  0  0  0  0  0  0
   45.6780   33.2840   45.7310 N   0  0  0  0  0  0  0  0  0  0  0  0
   45.0400   34.3410   46.3290 C   0  0  0  0  0  0  0  0  0  0  0  0
   44.5560   35.3600   45.5880 N   0  0  0  0  0  0  0  0  0  0  0  0
   44.2440   36.2570   43.8090 H   0  0  0  0  0  0  0  0  0  0  0  0
   46.3000   32.4390   43.9300 H   0  0  0  0  0  0  0  0  0  0  0  0
   44.9240   34.3560   47.4110 H   0  0  0  0  0  0  0  0  0  0  0  0
   47.8190   34.9630   41.8200 C   0  0  0  0  0  0  0  0  0  0  0  0
   48.7120   34.5580   42.7450 F   0  0  0  0  0  0  0  0  0  0  0  0
   47.2660   36.1490   42.3230 F   0  0  0  0  0  0  0  0  0  0  0  0
   48.3810   35.3260   40.6110 F   0  0  0  0  0  0  0  0  0  0  0  0
  1 16  1  0  0  0  0
  2 24  1  0  0  0  0
  2  7  1  1  0  0  0
  2  1  1  0  0  0  0
  3  2  1  0  0  0  0
  4  3  1  0  0  0  0
  4  5  1  0  0  0  0
  5 11  1  0  0  0  0
  5  6  1  0  0  0  0
  6 13  1  0  0  0  0
  6  1  1  0  0  0  0
  8  3  1  0  0  0  0
  9  3  1  0  0  0  0
 10  4  1  0  0  0  0
 12  5  1  0  0  0  0
 14  6  1  0  0  0  0
 15 20  1  0  0  0  0
 16 15  2  0  0  0  0
 16 17  1  0  0  0  0
 17 18  2  0  0  0  0
 18 19  1  0  0  0  0
 19 23  1  0  0  0  0
 20 19  2  0  0  0  0
 21 15  1  0  0  0  0
 22 17  1  0  0  0  0
 24 26  1  0  0  0  0
 24 25  1  0  0  0  0
 27 24  1  0  0  0  0
M  END
>  <minimizedAffinity>
-4.55848074

>  <minimizedRMSD>
2.00702262

$$$$
