
 OpenBabel03242519133D

 29 30  0  0  0  0  0  0  0  0999 V2000
   38.4770   29.1800   43.1500 C   0  0  0  0  0  0  0  0  0  0  0  0
   37.4520   29.2710   42.7310 H   0  0  0  0  0  0  0  0  0  0  0  0
   38.3800   29.4290   44.2490 H   0  0  0  0  0  0  0  0  0  0  0  0
   36.5730   27.4140   41.6930 Cl  0  0  0  0  0  0  0  0  0  0  0  0
   38.0420   26.8230   42.4430 C   0  0  0  0  0  0  0  0  0  0  0  0
   38.8360   27.7330   43.0860 C   0  0  0  0  0  0  0  0  0  0  0  0
   39.9950   27.2660   43.6790 C   0  0  0  0  0  0  0  0  0  0  0  0
   40.3360   25.9240   43.6210 C   0  0  0  0  0  0  0  0  0  0  0  0
   39.5130   25.0130   42.9590 C   0  0  0  0  0  0  0  0  0  0  0  0
   38.3490   25.4870   42.3650 C   0  0  0  0  0  0  0  0  0  0  0  0
   40.6480   27.9550   44.1980 H   0  0  0  0  0  0  0  0  0  0  0  0
   41.2350   25.5290   44.0740 H   0  0  0  0  0  0  0  0  0  0  0  0
   39.7430   23.9520   42.8900 H   0  0  0  0  0  0  0  0  0  0  0  0
   37.4130   24.5860   41.6390 C   0  0  0  0  0  0  0  0  0  0  0  0
   37.3120   25.0380   40.3330 F   0  0  0  0  0  0  0  0  0  0  0  0
   36.2000   24.4840   42.2640 F   0  0  0  0  0  0  0  0  0  0  0  0
   37.9510   23.2990   41.5420 F   0  0  0  0  0  0  0  0  0  0  0  0
   39.4770   30.0670   42.4830 C   0  0  0  0  0  0  0  0  0  0  0  0
   40.2210   29.4790   41.9140 H   0  0  0  0  0  0  0  0  0  0  0  0
   40.0770   30.5680   43.2980 H   0  0  0  0  0  0  0  0  0  0  0  0
   38.8150   31.0470   41.6420 C   0  0  0  0  0  0  0  0  0  0  0  0
   37.6020   30.7800   41.0500 C   0  0  0  0  0  0  0  0  0  0  0  0
   36.9520   31.7130   40.2350 C   0  0  0  0  0  0  0  0  0  0  0  0
   37.6110   32.9000   40.0740 N   0  0  0  0  0  0  0  0  0  0  0  0
   38.7960   33.1600   40.6520 C   0  0  0  0  0  0  0  0  0  0  0  0
   39.3860   32.2380   41.4280 N   0  0  0  0  0  0  0  0  0  0  0  0
   37.0620   29.8660   41.1590 H   0  0  0  0  0  0  0  0  0  0  0  0
   35.9990   31.5110   39.7660 H   0  0  0  0  0  0  0  0  0  0  0  0
   39.2260   34.1350   40.4560 H   0  0  0  0  0  0  0  0  0  0  0  0
  1  3  1  0  0  0  0
  2  1  1  0  0  0  0
  4  5  1  0  0  0  0
  5  6  1  0  0  0  0
  6  1  1  0  0  0  0
  6  7  2  0  0  0  0
  7 11  1  0  0  0  0
  8  7  1  0  0  0  0
  8 12  1  0  0  0  0
  9  8  2  0  0  0  0
 10  5  2  0  0  0  0
 10  9  1  0  0  0  0
 13  9  1  0  0  0  0
 14 16  1  0  0  0  0
 14 10  1  0  0  0  0
 15 14  1  0  0  0  0
 17 14  1  0  0  0  0
 18  1  1  0  0  0  0
 18 20  1  0  0  0  0
 19 18  1  0  0  0  0
 21 18  1  0  0  0  0
 22 27  1  0  0  0  0
 22 21  2  0  0  0  0
 23 22  1  0  0  0  0
 24 23  2  0  0  0  0
 24 25  1  0  0  0  0
 25 26  2  0  0  0  0
 26 21  1  0  0  0  0
 28 23  1  0  0  0  0
 29 25  1  0  0  0  0
M  END
>  <minimizedAffinity>
-5.37281752

$$$$

 OpenBabel03242519133D

 29 30  0  0  0  0  0  0  0  0999 V2000
   35.8270   28.4360   40.6180 C   0  0  0  0  0  0  0  0  0  0  0  0
   36.1320   27.9810   39.6520 H   0  0  0  0  0  0  0  0  0  0  0  0
   34.8440   27.9490   40.8890 H   0  0  0  0  0  0  0  0  0  0  0  0
   36.7530   25.6180   40.3620 Cl  0  0  0  0  0  0  0  0  0  0  0  0
   37.3130   26.6960   41.6240 C   0  0  0  0  0  0  0  0  0  0  0  0
   36.8120   27.9700   41.6380 C   0  0  0  0  0  0  0  0  0  0  0  0
   37.2530   28.8200   42.6340 C   0  0  0  0  0  0  0  0  0  0  0  0
   38.1690   28.3950   43.5830 C   0  0  0  0  0  0  0  0  0  0  0  0
   38.6680   27.0930   43.5510 C   0  0  0  0  0  0  0  0  0  0  0  0
   38.2210   26.2410   42.5470 C   0  0  0  0  0  0  0  0  0  0  0  0
   36.8790   29.8350   42.6790 H   0  0  0  0  0  0  0  0  0  0  0  0
   38.5330   29.0370   44.3750 H   0  0  0  0  0  0  0  0  0  0  0  0
   39.3880   26.7190   44.2760 H   0  0  0  0  0  0  0  0  0  0  0  0
   38.7000   24.8360   42.4370 C   0  0  0  0  0  0  0  0  0  0  0  0
   39.4640   24.7340   41.2850 F   0  0  0  0  0  0  0  0  0  0  0  0
   37.6730   23.9320   42.4790 F   0  0  0  0  0  0  0  0  0  0  0  0
   39.5750   24.5350   43.4860 F   0  0  0  0  0  0  0  0  0  0  0  0
   35.6940   29.9240   40.5620 C   0  0  0  0  0  0  0  0  0  0  0  0
   36.0530   30.3950   41.4960 H   0  0  0  0  0  0  0  0  0  0  0  0
   34.5910   30.1600   40.5330 H   0  0  0  0  0  0  0  0  0  0  0  0
   36.3760   30.4580   39.3970 C   0  0  0  0  0  0  0  0  0  0  0  0
   36.5350   29.7080   38.2550 C   0  0  0  0  0  0  0  0  0  0  0  0
   37.1920   30.2070   37.1250 C   0  0  0  0  0  0  0  0  0  0  0  0
   37.6580   31.4870   37.2440 N   0  0  0  0  0  0  0  0  0  0  0  0
   37.5020   32.2180   38.3600 C   0  0  0  0  0  0  0  0  0  0  0  0
   36.8660   31.7020   39.4230 N   0  0  0  0  0  0  0  0  0  0  0  0
   36.1800   28.7090   38.1300 H   0  0  0  0  0  0  0  0  0  0  0  0
   37.3210   29.6250   36.2230 H   0  0  0  0  0  0  0  0  0  0  0  0
   37.9120   33.2210   38.3420 H   0  0  0  0  0  0  0  0  0  0  0  0
  1  3  1  0  0  0  0
  1  6  1  0  0  0  0
  2  1  1  0  0  0  0
  4  5  1  0  0  0  0
  5  6  2  0  0  0  0
  5 10  1  0  0  0  0
  6  7  1  0  0  0  0
  7 11  1  0  0  0  0
  7  8  2  0  0  0  0
  8 12  1  0  0  0  0
  9  8  1  0  0  0  0
  9 13  1  0  0  0  0
 10  9  2  0  0  0  0
 14 16  1  0  0  0  0
 14 10  1  0  0  0  0
 14 17  1  0  0  0  0
 15 14  1  0  0  0  0
 18  1  1  0  0  0  0
 18 19  1  0  0  0  0
 20 18  1  0  0  0  0
 21 26  1  0  0  0  0
 21 18  1  0  0  0  0
 22 21  2  0  0  0  0
 23 24  2  0  0  0  0
 23 22  1  0  0  0  0
 24 25  1  0  0  0  0
 25 26  2  0  0  0  0
 27 22  1  0  0  0  0
 28 23  1  0  0  0  0
 29 25  1  0  0  0  0
M  END
>  <minimizedAffinity>
-5.33835459

$$$$

 OpenBabel03242519133D

 29 30  0  0  0  0  0  0  0  0999 V2000
   38.8150   28.9790   42.8840 C   0  0  0  0  0  0  0  0  0  0  0  0
   39.6730   28.5860   42.2990 H   0  0  0  0  0  0  0  0  0  0  0  0
   39.2590   29.7060   43.6270 H   0  0  0  0  0  0  0  0  0  0  0  0
   40.0490   31.5210   41.9450 Cl  0  0  0  0  0  0  0  0  0  0  0  0
   38.4580   30.9890   41.4410 C   0  0  0  0  0  0  0  0  0  0  0  0
   37.9980   29.8010   41.9430 C   0  0  0  0  0  0  0  0  0  0  0  0
   36.7430   29.3820   41.5460 C   0  0  0  0  0  0  0  0  0  0  0  0
   35.9800   30.1400   40.6710 C   0  0  0  0  0  0  0  0  0  0  0  0
   36.4680   31.3460   40.1700 C   0  0  0  0  0  0  0  0  0  0  0  0
   37.7320   31.7640   40.5720 C   0  0  0  0  0  0  0  0  0  0  0  0
   36.3440   28.4490   41.9220 H   0  0  0  0  0  0  0  0  0  0  0  0
   34.9940   29.8380   40.3420 H   0  0  0  0  0  0  0  0  0  0  0  0
   35.9030   31.9710   39.4810 H   0  0  0  0  0  0  0  0  0  0  0  0
   38.3300   33.0380   40.0880 C   0  0  0  0  0  0  0  0  0  0  0  0
   37.3460   33.7450   39.4170 F   0  0  0  0  0  0  0  0  0  0  0  0
   39.4500   32.8300   39.3290 F   0  0  0  0  0  0  0  0  0  0  0  0
   38.6940   33.8480   41.1680 F   0  0  0  0  0  0  0  0  0  0  0  0
   38.0250   27.9150   43.5760 C   0  0  0  0  0  0  0  0  0  0  0  0
   36.9390   28.0560   43.4230 H   0  0  0  0  0  0  0  0  0  0  0  0
   38.1740   28.0580   44.6860 H   0  0  0  0  0  0  0  0  0  0  0  0
   38.4580   26.5970   43.1530 C   0  0  0  0  0  0  0  0  0  0  0  0
   37.6890   25.8260   42.3120 C   0  0  0  0  0  0  0  0  0  0  0  0
   38.0910   24.5520   41.8980 C   0  0  0  0  0  0  0  0  0  0  0  0
   39.2970   24.1360   42.3890 N   0  0  0  0  0  0  0  0  0  0  0  0
   40.0480   24.8900   43.2100 C   0  0  0  0  0  0  0  0  0  0  0  0
   39.6260   26.1070   43.5840 N   0  0  0  0  0  0  0  0  0  0  0  0
   36.7460   26.1230   41.9100 H   0  0  0  0  0  0  0  0  0  0  0  0
   37.4920   23.9400   41.2370 H   0  0  0  0  0  0  0  0  0  0  0  0
   40.9860   24.4590   43.5380 H   0  0  0  0  0  0  0  0  0  0  0  0
  1 18  1  0  0  0  0
  1  3  1  0  0  0  0
  2  1  1  0  0  0  0
  5  6  1  0  0  0  0
  5  4  1  0  0  0  0
  6  1  1  0  0  0  0
  7 11  1  0  0  0  0
  7  6  2  0  0  0  0
  8  7  1  0  0  0  0
  9 10  1  0  0  0  0
  9  8  2  0  0  0  0
 10  5  2  0  0  0  0
 12  8  1  0  0  0  0
 13  9  1  0  0  0  0
 14 10  1  0  0  0  0
 14 17  1  0  0  0  0
 15 14  1  0  0  0  0
 16 14  1  0  0  0  0
 18 20  1  0  0  0  0
 19 18  1  0  0  0  0
 21 18  1  0  0  0  0
 21 26  1  0  0  0  0
 22 21  2  0  0  0  0
 23 22  1  0  0  0  0
 23 24  2  0  0  0  0
 24 25  1  0  0  0  0
 25 29  1  0  0  0  0
 25 26  2  0  0  0  0
 27 22  1  0  0  0  0
 28 23  1  0  0  0  0
M  END
>  <minimizedAffinity>
-5.26181078

$$$$

 OpenBabel03242519133D

 29 30  0  0  0  0  0  0  0  0999 V2000
   36.8270   28.5050   42.1510 C   0  0  0  0  0  0  0  0  0  0  0  0
   35.8200   28.9540   42.2840 H   0  0  0  0  0  0  0  0  0  0  0  0
   36.7880   27.9520   41.1660 H   0  0  0  0  0  0  0  0  0  0  0  0
   36.1830   30.3800   39.9300 Cl  0  0  0  0  0  0  0  0  0  0  0  0
   37.5850   30.5690   40.9620 C   0  0  0  0  0  0  0  0  0  0  0  0
   37.7760   29.6390   41.9490 C   0  0  0  0  0  0  0  0  0  0  0  0
   38.8830   29.7870   42.7630 C   0  0  0  0  0  0  0  0  0  0  0  0
   39.7670   30.8390   42.5820 C   0  0  0  0  0  0  0  0  0  0  0  0
   39.5540   31.7760   41.5710 C   0  0  0  0  0  0  0  0  0  0  0  0
   38.4390   31.6240   40.7550 C   0  0  0  0  0  0  0  0  0  0  0  0
   39.0680   29.0720   43.5530 H   0  0  0  0  0  0  0  0  0  0  0  0
   40.6420   30.9820   43.2020 H   0  0  0  0  0  0  0  0  0  0  0  0
   40.2220   32.6160   41.3950 H   0  0  0  0  0  0  0  0  0  0  0  0
   38.1350   32.5750   39.6520 C   0  0  0  0  0  0  0  0  0  0  0  0
   36.9870   33.2720   39.9930 F   0  0  0  0  0  0  0  0  0  0  0  0
   38.0400   31.9500   38.4380 F   0  0  0  0  0  0  0  0  0  0  0  0
   39.1380   33.5450   39.5530 F   0  0  0  0  0  0  0  0  0  0  0  0
   37.2260   27.5930   43.2650 C   0  0  0  0  0  0  0  0  0  0  0  0
   36.3850   27.4130   43.9600 H   0  0  0  0  0  0  0  0  0  0  0  0
   37.9930   28.1400   43.8880 H   0  0  0  0  0  0  0  0  0  0  0  0
   37.7630   26.3490   42.7450 C   0  0  0  0  0  0  0  0  0  0  0  0
   36.9480   25.4040   42.1660 C   0  0  0  0  0  0  0  0  0  0  0  0
   37.4510   24.2000   41.6610 C   0  0  0  0  0  0  0  0  0  0  0  0
   38.8020   24.0370   41.7880 N   0  0  0  0  0  0  0  0  0  0  0  0
   39.5970   24.9610   42.3540 C   0  0  0  0  0  0  0  0  0  0  0  0
   39.0750   26.1030   42.8260 N   0  0  0  0  0  0  0  0  0  0  0  0
   35.8930   25.5030   42.0490 H   0  0  0  0  0  0  0  0  0  0  0  0
   36.8170   23.4520   41.2040 H   0  0  0  0  0  0  0  0  0  0  0  0
   40.6540   24.7250   42.4010 H   0  0  0  0  0  0  0  0  0  0  0  0
  1  2  1  0  0  0  0
  1 18  1  0  0  0  0
  3  1  1  0  0  0  0
  4  5  1  0  0  0  0
  5  6  1  0  0  0  0
  6  1  1  0  0  0  0
  6  7  2  0  0  0  0
  7 11  1  0  0  0  0
  8  7  1  0  0  0  0
  8 12  1  0  0  0  0
  9  8  2  0  0  0  0
 10  5  2  0  0  0  0
 10  9  1  0  0  0  0
 13  9  1  0  0  0  0
 14 15  1  0  0  0  0
 14 10  1  0  0  0  0
 16 14  1  0  0  0  0
 17 14  1  0  0  0  0
 18 20  1  0  0  0  0
 18 19  1  0  0  0  0
 21 26  1  0  0  0  0
 21 18  1  0  0  0  0
 22 21  2  0  0  0  0
 23 24  2  0  0  0  0
 23 22  1  0  0  0  0
 24 25  1  0  0  0  0
 25 29  1  0  0  0  0
 25 26  2  0  0  0  0
 27 22  1  0  0  0  0
 28 23  1  0  0  0  0
M  END
>  <minimizedAffinity>
-5.08954382

$$$$

 OpenBabel03242519133D

 29 30  0  0  0  0  0  0  0  0999 V2000
   36.5170   29.6660   41.4400 C   0  0  0  0  0  0  0  0  0  0  0  0
   35.7700   29.5790   42.2580 H   0  0  0  0  0  0  0  0  0  0  0  0
   37.5190   29.7700   41.9510 H   0  0  0  0  0  0  0  0  0  0  0  0
   37.2540   27.3160   43.1130 Cl  0  0  0  0  0  0  0  0  0  0  0  0
   36.8650   27.1910   41.4090 C   0  0  0  0  0  0  0  0  0  0  0  0
   36.5430   28.3440   40.7470 C   0  0  0  0  0  0  0  0  0  0  0  0
   36.2380   28.2460   39.4020 C   0  0  0  0  0  0  0  0  0  0  0  0
   36.2590   27.0220   38.7520 C   0  0  0  0  0  0  0  0  0  0  0  0
   36.5890   25.8580   39.4470 C   0  0  0  0  0  0  0  0  0  0  0  0
   36.8960   25.9620   40.7990 C   0  0  0  0  0  0  0  0  0  0  0  0
   35.9800   29.1360   38.8440 H   0  0  0  0  0  0  0  0  0  0  0  0
   36.0250   26.9130   37.7010 H   0  0  0  0  0  0  0  0  0  0  0  0
   36.6170   24.8780   38.9760 H   0  0  0  0  0  0  0  0  0  0  0  0
   37.2590   24.7730   41.6170 C   0  0  0  0  0  0  0  0  0  0  0  0
   37.2970   23.6720   40.7760 F   0  0  0  0  0  0  0  0  0  0  0  0
   36.4200   24.6010   42.6850 F   0  0  0  0  0  0  0  0  0  0  0  0
   38.5600   24.9010   42.1140 F   0  0  0  0  0  0  0  0  0  0  0  0
   36.2610   30.8120   40.5160 C   0  0  0  0  0  0  0  0  0  0  0  0
   35.3090   31.3210   40.7590 H   0  0  0  0  0  0  0  0  0  0  0  0
   36.0940   30.3810   39.4860 H   0  0  0  0  0  0  0  0  0  0  0  0
   37.3780   31.7380   40.5230 C   0  0  0  0  0  0  0  0  0  0  0  0
   38.5870   31.3960   41.0840 C   0  0  0  0  0  0  0  0  0  0  0  0
   39.6730   32.2770   41.1010 C   0  0  0  0  0  0  0  0  0  0  0  0
   39.4420   33.4940   40.5220 N   0  0  0  0  0  0  0  0  0  0  0  0
   38.2600   33.8270   39.9750 C   0  0  0  0  0  0  0  0  0  0  0  0
   37.2430   32.9520   39.9790 N   0  0  0  0  0  0  0  0  0  0  0  0
   38.8010   30.4550   41.5390 H   0  0  0  0  0  0  0  0  0  0  0  0
   40.6270   32.0170   41.5390 H   0  0  0  0  0  0  0  0  0  0  0  0
   38.1890   34.8190   39.5440 H   0  0  0  0  0  0  0  0  0  0  0  0
  1  3  1  0  0  0  0
  1  2  1  0  0  0  0
  5  4  1  0  0  0  0
  6  5  2  0  0  0  0
  6  1  1  0  0  0  0
  7  6  1  0  0  0  0
  8  7  2  0  0  0  0
  8  9  1  0  0  0  0
  9 10  2  0  0  0  0
 10  5  1  0  0  0  0
 10 14  1  0  0  0  0
 11  7  1  0  0  0  0
 12  8  1  0  0  0  0
 13  9  1  0  0  0  0
 14 17  1  0  0  0  0
 14 16  1  0  0  0  0
 15 14  1  0  0  0  0
 18 21  1  0  0  0  0
 18 19  1  0  0  0  0
 18  1  1  0  0  0  0
 20 18  1  0  0  0  0
 21 22  1  0  0  0  0
 22 23  2  0  0  0  0
 22 27  1  0  0  0  0
 23 28  1  0  0  0  0
 24 23  1  0  0  0  0
 25 26  1  0  0  0  0
 25 24  2  0  0  0  0
 26 21  2  0  0  0  0
 29 25  1  0  0  0  0
M  END
>  <minimizedAffinity>
-5.04902458

$$$$

 OpenBabel03242519133D

 29 30  0  0  0  0  0  0  0  0999 V2000
   37.1770   29.0620   42.5740 C   0  0  0  0  0  0  0  0  0  0  0  0
   38.2690   29.2410   42.6630 H   0  0  0  0  0  0  0  0  0  0  0  0
   36.6840   29.8490   43.2190 H   0  0  0  0  0  0  0  0  0  0  0  0
   38.6350   31.3380   41.3260 Cl  0  0  0  0  0  0  0  0  0  0  0  0
   37.4070   30.4150   40.4850 C   0  0  0  0  0  0  0  0  0  0  0  0
   36.8050   29.3920   41.1660 C   0  0  0  0  0  0  0  0  0  0  0  0
   35.8350   28.6640   40.5030 C   0  0  0  0  0  0  0  0  0  0  0  0
   35.4860   28.9640   39.1960 C   0  0  0  0  0  0  0  0  0  0  0  0
   36.1120   30.0100   38.5190 C   0  0  0  0  0  0  0  0  0  0  0  0
   37.0870   30.7400   39.1900 C   0  0  0  0  0  0  0  0  0  0  0  0
   35.3360   27.8480   41.0090 H   0  0  0  0  0  0  0  0  0  0  0  0
   34.7310   28.4130   38.6500 H   0  0  0  0  0  0  0  0  0  0  0  0
   35.8690   30.2780   37.4930 H   0  0  0  0  0  0  0  0  0  0  0  0
   37.8060   31.8720   38.5450 C   0  0  0  0  0  0  0  0  0  0  0  0
   37.3170   32.0100   37.2560 F   0  0  0  0  0  0  0  0  0  0  0  0
   39.1650   31.7170   38.5870 F   0  0  0  0  0  0  0  0  0  0  0  0
   37.4950   33.0760   39.1860 F   0  0  0  0  0  0  0  0  0  0  0  0
   36.7610   27.6880   42.9880 C   0  0  0  0  0  0  0  0  0  0  0  0
   35.9170   27.3200   42.3750 H   0  0  0  0  0  0  0  0  0  0  0  0
   36.3370   27.7670   44.0310 H   0  0  0  0  0  0  0  0  0  0  0  0
   37.8880   26.7750   42.9470 C   0  0  0  0  0  0  0  0  0  0  0  0
   39.0280   27.0120   43.6800 C   0  0  0  0  0  0  0  0  0  0  0  0
   40.1240   26.1430   43.6490 C   0  0  0  0  0  0  0  0  0  0  0  0
   39.9750   25.0500   42.8420 N   0  0  0  0  0  0  0  0  0  0  0  0
   38.8610   24.8190   42.1270 C   0  0  0  0  0  0  0  0  0  0  0  0
   37.8310   25.6780   42.1840 N   0  0  0  0  0  0  0  0  0  0  0  0
   39.1740   27.8530   44.3200 H   0  0  0  0  0  0  0  0  0  0  0  0
   41.0230   26.3210   44.2220 H   0  0  0  0  0  0  0  0  0  0  0  0
   38.8520   23.9200   41.5220 H   0  0  0  0  0  0  0  0  0  0  0  0
  1  2  1  0  0  0  0
  1 18  1  0  0  0  0
  1  3  1  0  0  0  0
  5  6  1  0  0  0  0
  5  4  1  0  0  0  0
  6  1  1  0  0  0  0
  7 11  1  0  0  0  0
  7  6  2  0  0  0  0
  8  7  1  0  0  0  0
  9 10  1  0  0  0  0
  9  8  2  0  0  0  0
 10  5  2  0  0  0  0
 12  8  1  0  0  0  0
 13  9  1  0  0  0  0
 14 16  1  0  0  0  0
 14 17  1  0  0  0  0
 14 10  1  0  0  0  0
 15 14  1  0  0  0  0
 18 20  1  0  0  0  0
 19 18  1  0  0  0  0
 21 18  1  0  0  0  0
 21 22  1  0  0  0  0
 22 27  1  0  0  0  0
 23 22  2  0  0  0  0
 23 28  1  0  0  0  0
 24 23  1  0  0  0  0
 25 26  1  0  0  0  0
 25 24  2  0  0  0  0
 26 21  2  0  0  0  0
 29 25  1  0  0  0  0
M  END
>  <minimizedAffinity>
-5.04119062

$$$$

 OpenBabel03242519133D

 29 30  0  0  0  0  0  0  0  0999 V2000
   39.6100   29.4320   40.5360 C   0  0  0  0  0  0  0  0  0  0  0  0
   40.1850   30.1520   41.1560 H   0  0  0  0  0  0  0  0  0  0  0  0
   40.3650   28.6790   40.1630 H   0  0  0  0  0  0  0  0  0  0  0  0
   38.9400   26.6350   39.7670 Cl  0  0  0  0  0  0  0  0  0  0  0  0
   38.3360   27.3950   41.2250 C   0  0  0  0  0  0  0  0  0  0  0  0
   38.7130   28.6880   41.4690 C   0  0  0  0  0  0  0  0  0  0  0  0
   38.2350   29.2880   42.6180 C   0  0  0  0  0  0  0  0  0  0  0  0
   37.4040   28.6030   43.4900 C   0  0  0  0  0  0  0  0  0  0  0  0
   37.0320   27.2850   43.2230 C   0  0  0  0  0  0  0  0  0  0  0  0
   37.5150   26.6850   42.0650 C   0  0  0  0  0  0  0  0  0  0  0  0
   38.5110   30.3100   42.8450 H   0  0  0  0  0  0  0  0  0  0  0  0
   37.0140   29.0450   44.3970 H   0  0  0  0  0  0  0  0  0  0  0  0
   36.3820   26.7110   43.8800 H   0  0  0  0  0  0  0  0  0  0  0  0
   37.1690   25.2840   41.7020 C   0  0  0  0  0  0  0  0  0  0  0  0
   38.3390   24.5420   41.7010 F   0  0  0  0  0  0  0  0  0  0  0  0
   36.4860   25.2070   40.5190 F   0  0  0  0  0  0  0  0  0  0  0  0
   36.3680   24.7060   42.6930 F   0  0  0  0  0  0  0  0  0  0  0  0
   38.8800   30.0720   39.4000 C   0  0  0  0  0  0  0  0  0  0  0  0
   37.9390   29.5370   39.1730 H   0  0  0  0  0  0  0  0  0  0  0  0
   39.5120   29.9320   38.4750 H   0  0  0  0  0  0  0  0  0  0  0  0
   38.6440   31.4780   39.6660 C   0  0  0  0  0  0  0  0  0  0  0  0
   37.4870   32.1000   39.2560 C   0  0  0  0  0  0  0  0  0  0  0  0
   37.2460   33.4560   39.5030 C   0  0  0  0  0  0  0  0  0  0  0  0
   38.2390   34.1080   40.1790 N   0  0  0  0  0  0  0  0  0  0  0  0
   39.3680   33.4990   40.5800 C   0  0  0  0  0  0  0  0  0  0  0  0
   39.5610   32.1970   40.3220 N   0  0  0  0  0  0  0  0  0  0  0  0
   36.6930   31.6190   38.7310 H   0  0  0  0  0  0  0  0  0  0  0  0
   36.3400   33.9520   39.1840 H   0  0  0  0  0  0  0  0  0  0  0  0
   40.0870   34.1140   41.1080 H   0  0  0  0  0  0  0  0  0  0  0  0
  1  2  1  0  0  0  0
  1  6  1  0  0  0  0
  3  1  1  0  0  0  0
  4  5  1  0  0  0  0
  5  6  2  0  0  0  0
  5 10  1  0  0  0  0
  6  7  1  0  0  0  0
  7 11  1  0  0  0  0
  7  8  2  0  0  0  0
  8 12  1  0  0  0  0
  9  8  1  0  0  0  0
  9 13  1  0  0  0  0
 10  9  2  0  0  0  0
 14 10  1  0  0  0  0
 14 17  1  0  0  0  0
 15 14  1  0  0  0  0
 16 14  1  0  0  0  0
 18 21  1  0  0  0  0
 18  1  1  0  0  0  0
 19 18  1  0  0  0  0
 20 18  1  0  0  0  0
 21 26  1  0  0  0  0
 22 23  1  0  0  0  0
 22 21  2  0  0  0  0
 23 24  2  0  0  0  0
 24 25  1  0  0  0  0
 25 29  1  0  0  0  0
 26 25  2  0  0  0  0
 27 22  1  0  0  0  0
 28 23  1  0  0  0  0
M  END
>  <minimizedAffinity>
-5.02277231

$$$$

 OpenBabel03242519133D

 29 30  0  0  0  0  0  0  0  0999 V2000
   35.6530   29.5880   38.8980 C   0  0  0  0  0  0  0  0  0  0  0  0
   34.6350   29.3780   38.5080 H   0  0  0  0  0  0  0  0  0  0  0  0
   35.5120   30.3250   39.7430 H   0  0  0  0  0  0  0  0  0  0  0  0
   36.5890   29.7990   41.7170 Cl  0  0  0  0  0  0  0  0  0  0  0  0
   36.5880   28.2930   40.8210 C   0  0  0  0  0  0  0  0  0  0  0  0
   36.1350   28.3240   39.5300 C   0  0  0  0  0  0  0  0  0  0  0  0
   36.1360   27.1370   38.8230 C   0  0  0  0  0  0  0  0  0  0  0  0
   36.5800   25.9600   39.4040 C   0  0  0  0  0  0  0  0  0  0  0  0
   37.0370   25.9500   40.7220 C   0  0  0  0  0  0  0  0  0  0  0  0
   37.0340   27.1470   41.4300 C   0  0  0  0  0  0  0  0  0  0  0  0
   35.7870   27.1210   37.7990 H   0  0  0  0  0  0  0  0  0  0  0  0
   36.5930   25.0140   38.8770 H   0  0  0  0  0  0  0  0  0  0  0  0
   37.3930   25.0480   41.2160 H   0  0  0  0  0  0  0  0  0  0  0  0
   37.5040   27.2280   42.8390 C   0  0  0  0  0  0  0  0  0  0  0  0
   36.3900   27.3550   43.6540 F   0  0  0  0  0  0  0  0  0  0  0  0
   38.4180   28.2300   43.0250 F   0  0  0  0  0  0  0  0  0  0  0  0
   38.1060   26.0260   43.2240 F   0  0  0  0  0  0  0  0  0  0  0  0
   36.5900   30.1260   37.8650 C   0  0  0  0  0  0  0  0  0  0  0  0
   36.0400   30.5490   37.0040 H   0  0  0  0  0  0  0  0  0  0  0  0
   37.1540   29.2470   37.4340 H   0  0  0  0  0  0  0  0  0  0  0  0
   37.4970   31.0960   38.4480 C   0  0  0  0  0  0  0  0  0  0  0  0
   37.0270   32.1970   39.1280 C   0  0  0  0  0  0  0  0  0  0  0  0
   37.8880   33.1430   39.6940 C   0  0  0  0  0  0  0  0  0  0  0  0
   39.2210   32.8910   39.5210 N   0  0  0  0  0  0  0  0  0  0  0  0
   39.6790   31.8150   38.8570 C   0  0  0  0  0  0  0  0  0  0  0  0
   38.8180   30.9310   38.3290 N   0  0  0  0  0  0  0  0  0  0  0  0
   35.9950   32.4190   39.2820 H   0  0  0  0  0  0  0  0  0  0  0  0
   37.5280   34.0100   40.2290 H   0  0  0  0  0  0  0  0  0  0  0  0
   40.7550   31.7160   38.7820 H   0  0  0  0  0  0  0  0  0  0  0  0
  1  6  1  0  0  0  0
  1  3  1  0  0  0  0
  2  1  1  0  0  0  0
  5 10  1  0  0  0  0
  5  4  1  0  0  0  0
  6  5  2  0  0  0  0
  7  8  2  0  0  0  0
  7  6  1  0  0  0  0
  8  9  1  0  0  0  0
  9 13  1  0  0  0  0
  9 10  2  0  0  0  0
 10 14  1  0  0  0  0
 11  7  1  0  0  0  0
 12  8  1  0  0  0  0
 14 16  1  0  0  0  0
 14 17  1  0  0  0  0
 14 15  1  0  0  0  0
 18 21  1  0  0  0  0
 18  1  1  0  0  0  0
 19 18  1  0  0  0  0
 20 18  1  0  0  0  0
 21 22  1  0  0  0  0
 22 27  1  0  0  0  0
 22 23  2  0  0  0  0
 23 28  1  0  0  0  0
 24 23  1  0  0  0  0
 25 24  2  0  0  0  0
 26 21  2  0  0  0  0
 26 25  1  0  0  0  0
 29 25  1  0  0  0  0
M  END
>  <minimizedAffinity>
-4.89657974

$$$$

 OpenBabel03242519133D

 29 30  0  0  0  0  0  0  0  0999 V2000
   36.7790   30.4860   39.8700 C   0  0  0  0  0  0  0  0  0  0  0  0
   37.8240   30.1330   39.7360 H   0  0  0  0  0  0  0  0  0  0  0  0
   36.7970   31.5900   39.6260 H   0  0  0  0  0  0  0  0  0  0  0  0
   37.8880   30.6510   37.1110 Cl  0  0  0  0  0  0  0  0  0  0  0  0
   36.3770   29.8480   37.4860 C   0  0  0  0  0  0  0  0  0  0  0  0
   35.9710   29.8410   38.7940 C   0  0  0  0  0  0  0  0  0  0  0  0
   34.7780   29.2080   39.0900 C   0  0  0  0  0  0  0  0  0  0  0  0
   34.0240   28.6050   38.0960 C   0  0  0  0  0  0  0  0  0  0  0  0
   34.4560   28.6230   36.7710 C   0  0  0  0  0  0  0  0  0  0  0  0
   35.6560   29.2600   36.4770 C   0  0  0  0  0  0  0  0  0  0  0  0
   34.4230   29.1820   40.1120 H   0  0  0  0  0  0  0  0  0  0  0  0
   33.0860   28.1020   38.2970 H   0  0  0  0  0  0  0  0  0  0  0  0
   33.8950   28.1610   35.9610 H   0  0  0  0  0  0  0  0  0  0  0  0
   36.1930   29.3280   35.0910 C   0  0  0  0  0  0  0  0  0  0  0  0
   36.4480   30.6580   34.7960 F   0  0  0  0  0  0  0  0  0  0  0  0
   35.3630   28.7290   34.1820 F   0  0  0  0  0  0  0  0  0  0  0  0
   37.4350   28.6900   35.0160 F   0  0  0  0  0  0  0  0  0  0  0  0
   36.2370   30.2460   41.2410 C   0  0  0  0  0  0  0  0  0  0  0  0
   35.1710   29.9520   41.2070 H   0  0  0  0  0  0  0  0  0  0  0  0
   36.2380   31.2380   41.7800 H   0  0  0  0  0  0  0  0  0  0  0  0
   37.0390   29.2640   41.9470 C   0  0  0  0  0  0  0  0  0  0  0  0
   36.5670   27.9950   42.1890 C   0  0  0  0  0  0  0  0  0  0  0  0
   37.3270   27.0380   42.8700 C   0  0  0  0  0  0  0  0  0  0  0  0
   38.5640   27.4580   43.2720 N   0  0  0  0  0  0  0  0  0  0  0  0
   39.0250   28.6990   43.0340 C   0  0  0  0  0  0  0  0  0  0  0  0
   38.2630   29.5870   42.3770 N   0  0  0  0  0  0  0  0  0  0  0  0
   35.6090   27.6350   41.8870 H   0  0  0  0  0  0  0  0  0  0  0  0
   36.9640   26.0380   43.0650 H   0  0  0  0  0  0  0  0  0  0  0  0
   40.0200   28.9220   43.3970 H   0  0  0  0  0  0  0  0  0  0  0  0
  1 18  1  0  0  0  0
  2  1  1  0  0  0  0
  3  1  1  0  0  0  0
  4  5  1  0  0  0  0
  5  6  1  0  0  0  0
  6  7  2  0  0  0  0
  6  1  1  0  0  0  0
  7 11  1  0  0  0  0
  8 12  1  0  0  0  0
  8  7  1  0  0  0  0
  9  8  2  0  0  0  0
 10  9  1  0  0  0  0
 10  5  2  0  0  0  0
 13  9  1  0  0  0  0
 14 10  1  0  0  0  0
 15 14  1  0  0  0  0
 16 14  1  0  0  0  0
 17 14  1  0  0  0  0
 18 20  1  0  0  0  0
 18 21  1  0  0  0  0
 19 18  1  0  0  0  0
 21 22  2  0  0  0  0
 21 26  1  0  0  0  0
 22 23  1  0  0  0  0
 23 28  1  0  0  0  0
 23 24  2  0  0  0  0
 25 24  1  0  0  0  0
 25 29  1  0  0  0  0
 26 25  2  0  0  0  0
 27 22  1  0  0  0  0
M  END
>  <minimizedAffinity>
-4.77890778

$$$$
