
 OpenBabel03252508233D

 43 45  0  0  0  0  0  0  0  0999 V2000
   44.9390   34.0850   40.6810 C   0  0  0  0  0  0  0  0  0  0  0  0
   45.9900   34.3610   41.5280 C   0  0  0  0  0  0  0  0  0  0  0  0
   45.9230   35.2280   42.5920 C   0  0  0  0  0  0  0  0  0  0  0  0
   44.6830   35.8490   42.7920 C   0  0  0  0  0  0  0  0  0  0  0  0
   43.6110   35.6070   41.9810 C   0  0  0  0  0  0  0  0  0  0  0  0
   43.7240   34.7390   40.9360 C   0  0  0  0  0  0  0  0  0  0  0  0
   46.9690   33.9170   41.4480 H   0  0  0  0  0  0  0  0  0  0  0  0
   46.7170   35.4660   43.2680 H   0  0  0  0  0  0  0  0  0  0  0  0
   44.5690   36.5530   43.6270 H   0  0  0  0  0  0  0  0  0  0  0  0
   42.6810   36.1330   42.2070 H   0  0  0  0  0  0  0  0  0  0  0  0
   42.5550   34.5510   40.1640 N   0  0  0  0  0  0  0  0  0  0  0  0
   42.2000   35.3500   39.0270 C   0  0  0  0  0  0  0  0  0  0  0  0
   41.1970   34.6340   38.1480 C   0  0  0  0  0  0  0  0  0  0  0  0
   41.4240   33.2360   38.0300 N   0  0  0  0  0  0  0  0  0  0  0  0
   41.5050   32.5370   39.2530 C   0  0  0  0  0  0  0  0  0  0  0  0
   41.5370   33.5180   40.4070 C   0  0  0  0  0  0  0  0  0  0  0  0
   43.0110   35.8270   38.4810 H   0  0  0  0  0  0  0  0  0  0  0  0
   41.6230   36.2220   39.4610 H   0  0  0  0  0  0  0  0  0  0  0  0
   41.2570   35.0870   37.1440 H   0  0  0  0  0  0  0  0  0  0  0  0
   40.1650   34.7630   38.5490 H   0  0  0  0  0  0  0  0  0  0  0  0
   40.9500   32.8220   37.2390 H   0  0  0  0  0  0  0  0  0  0  0  0
   40.6020   31.9020   39.3900 H   0  0  0  0  0  0  0  0  0  0  0  0
   42.3740   31.8620   39.3170 H   0  0  0  0  0  0  0  0  0  0  0  0
   40.5430   34.0080   40.5300 H   0  0  0  0  0  0  0  0  0  0  0  0
   41.8480   32.9490   41.3140 H   0  0  0  0  0  0  0  0  0  0  0  0
   45.0190   33.1650   39.5470 C   0  0  0  0  0  0  0  0  0  0  0  0
   44.8350   33.6120   38.5720 H   0  0  0  0  0  0  0  0  0  0  0  0
   44.1790   32.4240   39.6950 H   0  0  0  0  0  0  0  0  0  0  0  0
   46.3270   32.4020   39.5310 C   0  0  0  0  0  0  0  0  0  0  0  0
   46.1290   31.3000   39.3710 H   0  0  0  0  0  0  0  0  0  0  0  0
   46.9550   32.5270   40.4000 H   0  0  0  0  0  0  0  0  0  0  0  0
   48.7210   34.2650   37.2830 C   0  0  0  0  0  0  0  0  0  0  0  0
   47.9750   33.8950   38.4290 C   0  0  0  0  0  0  0  0  0  0  0  0
   47.1140   32.8090   38.3440 C   0  0  0  0  0  0  0  0  0  0  0  0
   47.0360   32.1550   37.1450 N   0  0  0  0  0  0  0  0  0  0  0  0
   47.7460   32.5190   36.0780 C   0  0  0  0  0  0  0  0  0  0  0  0
   48.5880   33.5710   36.1410 N   0  0  0  0  0  0  0  0  0  0  0  0
   49.3950   35.1250   37.3710 H   0  0  0  0  0  0  0  0  0  0  0  0
   48.0730   34.4430   39.3460 H   0  0  0  0  0  0  0  0  0  0  0  0
   47.5610   31.7110   34.8310 C   0  0  0  0  0  0  0  0  0  0  0  0
   48.7790   31.4510   34.1970 F   0  0  0  0  0  0  0  0  0  0  0  0
   46.7910   32.3870   33.8980 F   0  0  0  0  0  0  0  0  0  0  0  0
   46.9960   30.4740   35.0810 F   0  0  0  0  0  0  0  0  0  0  0  0
  1  6  2  0  0  0  0
  1  2  1  0  0  0  0
  2  3  2  0  0  0  0
  3  4  1  0  0  0  0
  3  8  1  0  0  0  0
  4  9  1  0  0  0  0
  5 10  1  0  0  0  0
  5  4  2  0  0  0  0
  6  5  1  0  0  0  0
  7  2  1  0  0  0  0
 11 16  1  0  0  0  0
 11  6  1  0  0  0  0
 12 18  1  0  0  0  0
 12 11  1  0  0  0  0
 13 20  1  0  0  0  0
 13 12  1  0  0  0  0
 14 13  1  0  0  0  0
 14 15  1  0  0  0  0
 15 23  1  0  0  0  0
 15 22  1  0  0  0  0
 15 16  1  0  0  0  0
 16 24  1  0  0  0  0
 16 25  1  0  0  0  0
 17 12  1  0  0  0  0
 19 13  1  0  0  0  0
 21 14  1  0  0  0  0
 26 28  1  0  0  0  0
 26  1  1  0  0  0  0
 27 26  1  0  0  0  0
 29 26  1  0  0  0  0
 29 31  1  0  0  0  0
 30 29  1  0  0  0  0
 32 38  1  0  0  0  0
 32 33  1  0  0  0  0
 33 39  1  0  0  0  0
 34 33  2  0  0  0  0
 34 29  1  0  0  0  0
 35 34  1  0  0  0  0
 36 37  1  0  0  0  0
 36 35  2  0  0  0  0
 37 32  2  0  0  0  0
 40 43  1  0  0  0  0
 40 36  1  0  0  0  0
 41 40  1  0  0  0  0
 42 40  1  0  0  0  0
M  END
>  <minimizedAffinity>
-5.08008242

>  <minimizedRMSD>
7.38490438

$$$$
