
 OpenBabel03252501283D

 37 40  0  0  0  0  0  0  0  0999 V2000
   37.4860   30.1710   41.0690 C   0  0  0  0  0  0  0  0  0  0  0  0
   36.5180   30.6970   40.2140 C   0  0  0  0  0  0  0  0  0  0  0  0
   36.9840   31.8610   39.6960 C   0  0  0  0  0  0  0  0  0  0  0  0
   38.2120   32.0460   40.2220 N   0  0  0  0  0  0  0  0  0  0  0  0
   38.4950   31.0290   41.0390 N   0  0  0  0  0  0  0  0  0  0  0  0
   35.5550   30.2290   40.0140 H   0  0  0  0  0  0  0  0  0  0  0  0
   36.5160   32.5480   38.9990 H   0  0  0  0  0  0  0  0  0  0  0  0
   40.7260   31.7890   38.9500 F   0  0  0  0  0  0  0  0  0  0  0  0
   40.3200   32.9750   39.3810 C   0  0  0  0  0  0  0  0  0  0  0  0
   39.1080   33.1090   39.9970 C   0  0  0  0  0  0  0  0  0  0  0  0
   38.6660   34.3520   40.4580 C   0  0  0  0  0  0  0  0  0  0  0  0
   39.4210   35.4730   40.3130 C   0  0  0  0  0  0  0  0  0  0  0  0
   40.6440   35.3340   39.6920 C   0  0  0  0  0  0  0  0  0  0  0  0
   41.0980   34.1090   39.2290 C   0  0  0  0  0  0  0  0  0  0  0  0
   37.7040   34.4760   40.9500 H   0  0  0  0  0  0  0  0  0  0  0  0
   39.0710   36.4380   40.6740 H   0  0  0  0  0  0  0  0  0  0  0  0
   41.2630   36.2290   39.5690 H   0  0  0  0  0  0  0  0  0  0  0  0
   42.4110   34.0700   38.5830 C   0  0  0  0  0  0  0  0  0  0  0  0
   42.7640   34.0880   37.2490 C   0  0  0  0  0  0  0  0  0  0  0  0
   44.1120   34.0350   37.1260 N   0  0  0  0  0  0  0  0  0  0  0  0
   44.5980   33.9840   38.3730 C   0  0  0  0  0  0  0  0  0  0  0  0
   43.5730   34.0050   39.2440 N   0  0  0  0  0  0  0  0  0  0  0  0
   42.0450   34.1380   36.4480 H   0  0  0  0  0  0  0  0  0  0  0  0
   44.6310   34.0350   36.2200 H   0  0  0  0  0  0  0  0  0  0  0  0
   45.6410   33.9340   38.6260 H   0  0  0  0  0  0  0  0  0  0  0  0
   37.2210   27.8070   43.8460 C   0  0  0  0  0  0  0  0  0  0  0  0
   37.0920   26.5680   43.1740 C   0  0  0  0  0  0  0  0  0  0  0  0
   37.1000   26.5600   41.7680 C   0  0  0  0  0  0  0  0  0  0  0  0
   37.2310   27.7750   41.1870 N   0  0  0  0  0  0  0  0  0  0  0  0
   37.3520   28.9390   41.8060 C   0  0  0  0  0  0  0  0  0  0  0  0
   37.3480   28.9740   43.1780 N   0  0  0  0  0  0  0  0  0  0  0  0
   37.2140   27.7940   44.9330 H   0  0  0  0  0  0  0  0  0  0  0  0
   36.9920   25.6390   43.7160 H   0  0  0  0  0  0  0  0  0  0  0  0
   36.9700   25.3130   40.9980 C   0  0  0  0  0  0  0  0  0  0  0  0
   36.2710   25.5370   39.8480 F   0  0  0  0  0  0  0  0  0  0  0  0
   38.2800   24.8980   40.7170 F   0  0  0  0  0  0  0  0  0  0  0  0
   36.3880   24.2970   41.7300 F   0  0  0  0  0  0  0  0  0  0  0  0
  1 30  1  0  0  0  0
  2  1  1  0  0  0  0
  3  2  2  0  0  0  0
  3  4  1  0  0  0  0
  4  5  1  0  0  0  0
  5  1  2  0  0  0  0
  6  2  1  0  0  0  0
  7  3  1  0  0  0  0
  8  9  1  0  0  0  0
  9 10  1  0  0  0  0
 10  4  1  0  0  0  0
 10 11  2  0  0  0  0
 11 15  1  0  0  0  0
 12 11  1  0  0  0  0
 12 16  1  0  0  0  0
 13 12  2  0  0  0  0
 14  9  2  0  0  0  0
 14 13  1  0  0  0  0
 17 13  1  0  0  0  0
 18 14  1  0  0  0  0
 18 22  1  0  0  0  0
 19 18  2  0  0  0  0
 20 19  1  0  0  0  0
 20 21  1  0  0  0  0
 21 25  1  0  0  0  0
 21 22  2  0  0  0  0
 23 19  1  0  0  0  0
 24 20  1  0  0  0  0
 26 32  1  0  0  0  0
 27 33  1  0  0  0  0
 27 26  2  0  0  0  0
 28 27  1  0  0  0  0
 29 28  2  0  0  0  0
 29 30  1  0  0  0  0
 30 31  2  0  0  0  0
 31 26  1  0  0  0  0
 34 37  1  0  0  0  0
 34 28  1  0  0  0  0
 35 34  1  0  0  0  0
 36 34  1  0  0  0  0
M  END
>  <minimizedAffinity>
-7.0921483

$$$$

 OpenBabel03252501283D

 37 40  0  0  0  0  0  0  0  0999 V2000
   38.2660   32.0750   40.4470 C   0  0  0  0  0  0  0  0  0  0  0  0
   36.9830   31.8950   39.9310 C   0  0  0  0  0  0  0  0  0  0  0  0
   36.4930   30.7170   40.3900 C   0  0  0  0  0  0  0  0  0  0  0  0
   37.4550   30.1840   41.1710 N   0  0  0  0  0  0  0  0  0  0  0  0
   38.5060   31.0070   41.1940 N   0  0  0  0  0  0  0  0  0  0  0  0
   36.4820   32.6010   39.2700 H   0  0  0  0  0  0  0  0  0  0  0  0
   35.5350   30.2430   40.2050 H   0  0  0  0  0  0  0  0  0  0  0  0
   37.5550   27.6240   39.9710 F   0  0  0  0  0  0  0  0  0  0  0  0
   37.4810   27.7350   41.2890 C   0  0  0  0  0  0  0  0  0  0  0  0
   37.4320   28.9670   41.8790 C   0  0  0  0  0  0  0  0  0  0  0  0
   37.3540   29.1000   43.2670 C   0  0  0  0  0  0  0  0  0  0  0  0
   37.3230   28.0140   44.0850 C   0  0  0  0  0  0  0  0  0  0  0  0
   37.3720   26.7730   43.4870 C   0  0  0  0  0  0  0  0  0  0  0  0
   37.4500   26.6230   42.1110 C   0  0  0  0  0  0  0  0  0  0  0  0
   37.3140   30.0720   43.7520 H   0  0  0  0  0  0  0  0  0  0  0  0
   37.2620   28.1250   45.1650 H   0  0  0  0  0  0  0  0  0  0  0  0
   37.3480   25.8900   44.1340 H   0  0  0  0  0  0  0  0  0  0  0  0
   37.4980   25.2600   41.5780 C   0  0  0  0  0  0  0  0  0  0  0  0
   38.3460   24.2090   41.8580 C   0  0  0  0  0  0  0  0  0  0  0  0
   38.0060   23.1290   41.1120 N   0  0  0  0  0  0  0  0  0  0  0  0
   36.9540   23.5030   40.3730 C   0  0  0  0  0  0  0  0  0  0  0  0
   36.6530   24.7830   40.6560 N   0  0  0  0  0  0  0  0  0  0  0  0
   39.1510   24.2720   42.5710 H   0  0  0  0  0  0  0  0  0  0  0  0
   38.4930   22.2060   41.1390 H   0  0  0  0  0  0  0  0  0  0  0  0
   36.4400   22.8730   39.6700 H   0  0  0  0  0  0  0  0  0  0  0  0
   39.6220   35.4710   40.5140 C   0  0  0  0  0  0  0  0  0  0  0  0
   40.7380   35.3660   39.6490 C   0  0  0  0  0  0  0  0  0  0  0  0
   41.0100   34.1230   39.0490 C   0  0  0  0  0  0  0  0  0  0  0  0
   40.1530   33.1290   39.3730 N   0  0  0  0  0  0  0  0  0  0  0  0
   39.1080   33.2160   40.1810 C   0  0  0  0  0  0  0  0  0  0  0  0
   38.8200   34.4170   40.7790 N   0  0  0  0  0  0  0  0  0  0  0  0
   39.4260   36.4390   40.9690 H   0  0  0  0  0  0  0  0  0  0  0  0
   41.3740   36.2140   39.4430 H   0  0  0  0  0  0  0  0  0  0  0  0
   42.1510   33.9350   38.1390 C   0  0  0  0  0  0  0  0  0  0  0  0
   41.7770   33.1860   37.0620 F   0  0  0  0  0  0  0  0  0  0  0  0
   42.5430   35.2220   37.7450 F   0  0  0  0  0  0  0  0  0  0  0  0
   43.2430   33.3700   38.7690 F   0  0  0  0  0  0  0  0  0  0  0  0
  1  5  2  0  0  0  0
  2  3  2  0  0  0  0
  2  1  1  0  0  0  0
  3  4  1  0  0  0  0
  4  5  1  0  0  0  0
  4 10  1  0  0  0  0
  6  2  1  0  0  0  0
  7  3  1  0  0  0  0
  8  9  1  0  0  0  0
  9 10  2  0  0  0  0
  9 14  1  0  0  0  0
 10 11  1  0  0  0  0
 11 15  1  0  0  0  0
 11 12  2  0  0  0  0
 12 16  1  0  0  0  0
 13 12  1  0  0  0  0
 13 17  1  0  0  0  0
 14 13  2  0  0  0  0
 18 19  2  0  0  0  0
 18 14  1  0  0  0  0
 19 23  1  0  0  0  0
 20 24  1  0  0  0  0
 20 19  1  0  0  0  0
 21 22  2  0  0  0  0
 21 20  1  0  0  0  0
 22 18  1  0  0  0  0
 25 21  1  0  0  0  0
 26 31  1  0  0  0  0
 26 32  1  0  0  0  0
 27 26  2  0  0  0  0
 28 29  2  0  0  0  0
 28 27  1  0  0  0  0
 29 30  1  0  0  0  0
 30  1  1  0  0  0  0
 30 31  2  0  0  0  0
 33 27  1  0  0  0  0
 34 37  1  0  0  0  0
 34 28  1  0  0  0  0
 35 34  1  0  0  0  0
 36 34  1  0  0  0  0
M  END
>  <minimizedAffinity>
-6.91868448

$$$$

 OpenBabel03252501283D

 37 40  0  0  0  0  0  0  0  0999 V2000
   37.5970   29.6590   40.9740 C   0  0  0  0  0  0  0  0  0  0  0  0
   36.3930   30.3550   40.8630 C   0  0  0  0  0  0  0  0  0  0  0  0
   36.6680   31.6690   40.6710 C   0  0  0  0  0  0  0  0  0  0  0  0
   38.0130   31.7790   40.6650 N   0  0  0  0  0  0  0  0  0  0  0  0
   38.5510   30.5700   40.8480 N   0  0  0  0  0  0  0  0  0  0  0  0
   35.4090   29.8930   40.9240 H   0  0  0  0  0  0  0  0  0  0  0  0
   35.9940   32.5090   40.5430 H   0  0  0  0  0  0  0  0  0  0  0  0
   40.8150   31.8950   41.0390 F   0  0  0  0  0  0  0  0  0  0  0  0
   40.1490   32.9840   40.6840 C   0  0  0  0  0  0  0  0  0  0  0  0
   38.7950   32.9380   40.5010 C   0  0  0  0  0  0  0  0  0  0  0  0
   38.0780   34.0770   40.1260 C   0  0  0  0  0  0  0  0  0  0  0  0
   38.6950   35.2730   39.9300 C   0  0  0  0  0  0  0  0  0  0  0  0
   40.0610   35.3160   40.1150 C   0  0  0  0  0  0  0  0  0  0  0  0
   40.7870   34.1950   40.4870 C   0  0  0  0  0  0  0  0  0  0  0  0
   37.0020   34.0580   39.9770 H   0  0  0  0  0  0  0  0  0  0  0  0
   38.1310   36.1560   39.6380 H   0  0  0  0  0  0  0  0  0  0  0  0
   40.5700   36.2720   39.9610 H   0  0  0  0  0  0  0  0  0  0  0  0
   42.2330   34.3480   40.6570 C   0  0  0  0  0  0  0  0  0  0  0  0
   42.9640   35.0390   41.6020 C   0  0  0  0  0  0  0  0  0  0  0  0
   44.2890   34.8940   41.3590 N   0  0  0  0  0  0  0  0  0  0  0  0
   44.3860   34.1180   40.2720 C   0  0  0  0  0  0  0  0  0  0  0  0
   43.1490   33.7930   39.8540 N   0  0  0  0  0  0  0  0  0  0  0  0
   42.5130   35.6020   42.4020 H   0  0  0  0  0  0  0  0  0  0  0  0
   45.0530   35.3190   41.9300 H   0  0  0  0  0  0  0  0  0  0  0  0
   45.3080   33.8110   39.8140 H   0  0  0  0  0  0  0  0  0  0  0  0
   37.0100   26.0600   40.7030 C   0  0  0  0  0  0  0  0  0  0  0  0
   37.9570   25.5320   41.6130 C   0  0  0  0  0  0  0  0  0  0  0  0
   38.7880   26.4250   42.3140 C   0  0  0  0  0  0  0  0  0  0  0  0
   38.5910   27.7330   42.0340 N   0  0  0  0  0  0  0  0  0  0  0  0
   37.7100   28.2370   41.1840 C   0  0  0  0  0  0  0  0  0  0  0  0
   36.8860   27.3880   40.4890 N   0  0  0  0  0  0  0  0  0  0  0  0
   36.3760   25.3560   40.1700 H   0  0  0  0  0  0  0  0  0  0  0  0
   38.0490   24.4680   41.7790 H   0  0  0  0  0  0  0  0  0  0  0  0
   39.7960   25.9530   43.2760 C   0  0  0  0  0  0  0  0  0  0  0  0
   41.0480   26.0850   42.7520 F   0  0  0  0  0  0  0  0  0  0  0  0
   39.6410   26.7530   44.4170 F   0  0  0  0  0  0  0  0  0  0  0  0
   39.5740   24.6500   43.6800 F   0  0  0  0  0  0  0  0  0  0  0  0
  1 30  1  0  0  0  0
  2  6  1  0  0  0  0
  2  1  1  0  0  0  0
  3  2  2  0  0  0  0
  4  3  1  0  0  0  0
  4  5  1  0  0  0  0
  5  1  2  0  0  0  0
  7  3  1  0  0  0  0
  9  8  1  0  0  0  0
 10  4  1  0  0  0  0
 10  9  1  0  0  0  0
 11 10  2  0  0  0  0
 12 13  2  0  0  0  0
 12 11  1  0  0  0  0
 13 14  1  0  0  0  0
 14 18  1  0  0  0  0
 14  9  2  0  0  0  0
 15 11  1  0  0  0  0
 16 12  1  0  0  0  0
 17 13  1  0  0  0  0
 18 19  2  0  0  0  0
 19 23  1  0  0  0  0
 20 19  1  0  0  0  0
 20 24  1  0  0  0  0
 21 20  1  0  0  0  0
 22 21  2  0  0  0  0
 22 18  1  0  0  0  0
 25 21  1  0  0  0  0
 26 27  1  0  0  0  0
 27 33  1  0  0  0  0
 27 28  2  0  0  0  0
 28 34  1  0  0  0  0
 29 28  1  0  0  0  0
 30 29  2  0  0  0  0
 31 26  2  0  0  0  0
 31 30  1  0  0  0  0
 32 26  1  0  0  0  0
 34 37  1  0  0  0  0
 34 36  1  0  0  0  0
 35 34  1  0  0  0  0
M  END
>  <minimizedAffinity>
-6.59045649

$$$$

 OpenBabel03252501283D

 37 40  0  0  0  0  0  0  0  0999 V2000
   37.0300   29.3850   38.1700 C   0  0  0  0  0  0  0  0  0  0  0  0
   37.0990   30.6340   38.7850 C   0  0  0  0  0  0  0  0  0  0  0  0
   37.4780   30.4610   40.0760 C   0  0  0  0  0  0  0  0  0  0  0  0
   37.6380   29.1330   40.2500 N   0  0  0  0  0  0  0  0  0  0  0  0
   37.3660   28.5060   39.1020 N   0  0  0  0  0  0  0  0  0  0  0  0
   36.8790   31.5780   38.2880 H   0  0  0  0  0  0  0  0  0  0  0  0
   37.6370   31.1950   40.8590 H   0  0  0  0  0  0  0  0  0  0  0  0
   40.0710   27.7190   40.5510 F   0  0  0  0  0  0  0  0  0  0  0  0
   39.2020   27.7640   41.5510 C   0  0  0  0  0  0  0  0  0  0  0  0
   38.0240   28.4430   41.4160 C   0  0  0  0  0  0  0  0  0  0  0  0
   37.0980   28.5000   42.4600 C   0  0  0  0  0  0  0  0  0  0  0  0
   37.3310   27.8820   43.6500 C   0  0  0  0  0  0  0  0  0  0  0  0
   38.5190   27.1970   43.7830 C   0  0  0  0  0  0  0  0  0  0  0  0
   39.4490   27.1320   42.7560 C   0  0  0  0  0  0  0  0  0  0  0  0
   36.1570   29.0360   42.3680 H   0  0  0  0  0  0  0  0  0  0  0  0
   36.6060   27.9300   44.4590 H   0  0  0  0  0  0  0  0  0  0  0  0
   38.7190   26.6960   44.7350 H   0  0  0  0  0  0  0  0  0  0  0  0
   40.6800   26.3780   43.0010 C   0  0  0  0  0  0  0  0  0  0  0  0
   41.0140   25.0730   42.7070 C   0  0  0  0  0  0  0  0  0  0  0  0
   42.2770   24.8120   43.1270 N   0  0  0  0  0  0  0  0  0  0  0  0
   42.7270   25.9460   43.6780 C   0  0  0  0  0  0  0  0  0  0  0  0
   41.7650   26.8840   43.6010 N   0  0  0  0  0  0  0  0  0  0  0  0
   40.3440   24.3880   42.2150 H   0  0  0  0  0  0  0  0  0  0  0  0
   42.7650   23.8960   43.0220 H   0  0  0  0  0  0  0  0  0  0  0  0
   43.7030   26.0760   44.1100 H   0  0  0  0  0  0  0  0  0  0  0  0
   35.9560   27.7240   35.0940 C   0  0  0  0  0  0  0  0  0  0  0  0
   35.9620   28.7880   34.1600 C   0  0  0  0  0  0  0  0  0  0  0  0
   36.3380   30.0690   34.6020 C   0  0  0  0  0  0  0  0  0  0  0  0
   36.6630   30.1530   35.9120 N   0  0  0  0  0  0  0  0  0  0  0  0
   36.6600   29.1650   36.7930 C   0  0  0  0  0  0  0  0  0  0  0  0
   36.2980   27.9050   36.3880 N   0  0  0  0  0  0  0  0  0  0  0  0
   35.6630   26.7410   34.7350 H   0  0  0  0  0  0  0  0  0  0  0  0
   35.6870   28.6340   33.1270 H   0  0  0  0  0  0  0  0  0  0  0  0
   36.3680   31.2250   33.6920 C   0  0  0  0  0  0  0  0  0  0  0  0
   35.0990   31.6180   33.3840 F   0  0  0  0  0  0  0  0  0  0  0  0
   37.0530   32.2370   34.3800 F   0  0  0  0  0  0  0  0  0  0  0  0
   37.0920   30.9750   32.5420 F   0  0  0  0  0  0  0  0  0  0  0  0
  1  2  1  0  0  0  0
  1  5  2  0  0  0  0
  2  3  2  0  0  0  0
  3  4  1  0  0  0  0
  3  7  1  0  0  0  0
  4 10  1  0  0  0  0
  5  4  1  0  0  0  0
  6  2  1  0  0  0  0
  8  9  1  0  0  0  0
  9 14  1  0  0  0  0
 10  9  2  0  0  0  0
 10 11  1  0  0  0  0
 11 12  2  0  0  0  0
 12 13  1  0  0  0  0
 12 16  1  0  0  0  0
 13 17  1  0  0  0  0
 14 18  1  0  0  0  0
 14 13  2  0  0  0  0
 15 11  1  0  0  0  0
 18 22  1  0  0  0  0
 19 18  2  0  0  0  0
 19 20  1  0  0  0  0
 20 21  1  0  0  0  0
 21 25  1  0  0  0  0
 22 21  2  0  0  0  0
 23 19  1  0  0  0  0
 24 20  1  0  0  0  0
 26 31  1  0  0  0  0
 27 28  1  0  0  0  0
 27 26  2  0  0  0  0
 28 29  2  0  0  0  0
 29 30  1  0  0  0  0
 30  1  1  0  0  0  0
 31 30  2  0  0  0  0
 32 26  1  0  0  0  0
 33 27  1  0  0  0  0
 34 36  1  0  0  0  0
 34 28  1  0  0  0  0
 35 34  1  0  0  0  0
 37 34  1  0  0  0  0
M  END
>  <minimizedAffinity>
-6.43395567

$$$$

 OpenBabel03252501283D

 37 40  0  0  0  0  0  0  0  0999 V2000
   37.3840   29.0160   38.9960 C   0  0  0  0  0  0  0  0  0  0  0  0
   36.4700   29.7270   38.2180 C   0  0  0  0  0  0  0  0  0  0  0  0
   36.8290   31.0350   38.2160 C   0  0  0  0  0  0  0  0  0  0  0  0
   37.9400   31.1250   38.9760 N   0  0  0  0  0  0  0  0  0  0  0  0
   38.2560   29.9120   39.4340 N   0  0  0  0  0  0  0  0  0  0  0  0
   35.6180   29.2790   37.7080 H   0  0  0  0  0  0  0  0  0  0  0  0
   36.3630   31.8830   37.7250 H   0  0  0  0  0  0  0  0  0  0  0  0
   40.6230   31.5420   38.1820 F   0  0  0  0  0  0  0  0  0  0  0  0
   39.9930   32.4640   38.8950 C   0  0  0  0  0  0  0  0  0  0  0  0
   38.6970   32.2720   39.2840 C   0  0  0  0  0  0  0  0  0  0  0  0
   38.0180   33.2340   40.0360 C   0  0  0  0  0  0  0  0  0  0  0  0
   38.6180   34.3950   40.4120 C   0  0  0  0  0  0  0  0  0  0  0  0
   39.9260   34.5850   40.0190 C   0  0  0  0  0  0  0  0  0  0  0  0
   40.6130   33.6410   39.2710 C   0  0  0  0  0  0  0  0  0  0  0  0
   36.9880   33.0970   40.3540 H   0  0  0  0  0  0  0  0  0  0  0  0
   38.0850   35.1400   40.9980 H   0  0  0  0  0  0  0  0  0  0  0  0
   40.4210   35.5160   40.3140 H   0  0  0  0  0  0  0  0  0  0  0  0
   41.9990   33.9410   38.9060 C   0  0  0  0  0  0  0  0  0  0  0  0
   42.5230   34.6000   37.8120 C   0  0  0  0  0  0  0  0  0  0  0  0
   43.8750   34.6390   37.9000 N   0  0  0  0  0  0  0  0  0  0  0  0
   44.1920   34.0100   39.0380 C   0  0  0  0  0  0  0  0  0  0  0  0
   43.0630   33.5930   39.6390 N   0  0  0  0  0  0  0  0  0  0  0  0
   41.9150   35.0110   37.0230 H   0  0  0  0  0  0  0  0  0  0  0  0
   44.5070   35.0820   37.1970 H   0  0  0  0  0  0  0  0  0  0  0  0
   45.1930   33.8670   39.4040 H   0  0  0  0  0  0  0  0  0  0  0  0
   37.1390   25.4130   38.4190 C   0  0  0  0  0  0  0  0  0  0  0  0
   37.2360   24.8920   39.7320 C   0  0  0  0  0  0  0  0  0  0  0  0
   37.3830   25.7900   40.8040 C   0  0  0  0  0  0  0  0  0  0  0  0
   37.4200   27.0960   40.4580 N   0  0  0  0  0  0  0  0  0  0  0  0
   37.3310   27.5940   39.2340 C   0  0  0  0  0  0  0  0  0  0  0  0
   37.1860   26.7400   38.1710 N   0  0  0  0  0  0  0  0  0  0  0  0
   37.0250   24.7040   37.6030 H   0  0  0  0  0  0  0  0  0  0  0  0
   37.1970   23.8280   39.9220 H   0  0  0  0  0  0  0  0  0  0  0  0
   37.4910   25.3250   42.1960 C   0  0  0  0  0  0  0  0  0  0  0  0
   38.5730   24.5060   42.3380 F   0  0  0  0  0  0  0  0  0  0  0  0
   37.6310   26.4810   42.9760 F   0  0  0  0  0  0  0  0  0  0  0  0
   36.3430   24.6940   42.6340 F   0  0  0  0  0  0  0  0  0  0  0  0
  1 30  1  0  0  0  0
  1  5  2  0  0  0  0
  2  1  1  0  0  0  0
  3  2  2  0  0  0  0
  3  4  1  0  0  0  0
  4 10  1  0  0  0  0
  4  5  1  0  0  0  0
  6  2  1  0  0  0  0
  7  3  1  0  0  0  0
  8  9  1  0  0  0  0
  9 14  2  0  0  0  0
  9 10  1  0  0  0  0
 10 11  2  0  0  0  0
 11 15  1  0  0  0  0
 11 12  1  0  0  0  0
 12 16  1  0  0  0  0
 13 17  1  0  0  0  0
 13 12  2  0  0  0  0
 14 13  1  0  0  0  0
 18 14  1  0  0  0  0
 18 22  1  0  0  0  0
 19 20  1  0  0  0  0
 19 18  2  0  0  0  0
 20 21  1  0  0  0  0
 21 25  1  0  0  0  0
 21 22  2  0  0  0  0
 23 19  1  0  0  0  0
 24 20  1  0  0  0  0
 26 27  1  0  0  0  0
 27 33  1  0  0  0  0
 27 28  2  0  0  0  0
 28 34  1  0  0  0  0
 29 28  1  0  0  0  0
 30 29  2  0  0  0  0
 31 26  2  0  0  0  0
 31 30  1  0  0  0  0
 32 26  1  0  0  0  0
 34 35  1  0  0  0  0
 34 37  1  0  0  0  0
 34 36  1  0  0  0  0
M  END
>  <minimizedAffinity>
-6.3005991

$$$$

 OpenBabel03252501283D

 37 40  0  0  0  0  0  0  0  0999 V2000
   35.5370   27.3210   38.3260 C   0  0  0  0  0  0  0  0  0  0  0  0
   35.8360   25.9620   38.2430 C   0  0  0  0  0  0  0  0  0  0  0  0
   36.5600   25.6090   39.3350 C   0  0  0  0  0  0  0  0  0  0  0  0
   36.7020   26.7290   40.0730 N   0  0  0  0  0  0  0  0  0  0  0  0
   36.0870   27.7410   39.4570 N   0  0  0  0  0  0  0  0  0  0  0  0
   35.5260   25.3140   37.4240 H   0  0  0  0  0  0  0  0  0  0  0  0
   36.9690   24.6440   39.6150 H   0  0  0  0  0  0  0  0  0  0  0  0
   39.3000   25.7500   40.6200 F   0  0  0  0  0  0  0  0  0  0  0  0
   38.6310   26.4100   41.5540 C   0  0  0  0  0  0  0  0  0  0  0  0
   37.3750   26.8870   41.3000 C   0  0  0  0  0  0  0  0  0  0  0  0
   36.6570   27.5840   42.2740 C   0  0  0  0  0  0  0  0  0  0  0  0
   37.1750   27.8160   43.5100 C   0  0  0  0  0  0  0  0  0  0  0  0
   38.4410   27.3340   43.7630 C   0  0  0  0  0  0  0  0  0  0  0  0
   39.1680   26.6400   42.8080 C   0  0  0  0  0  0  0  0  0  0  0  0
   35.6580   27.9690   42.0880 H   0  0  0  0  0  0  0  0  0  0  0  0
   36.6100   28.3600   44.2640 H   0  0  0  0  0  0  0  0  0  0  0  0
   38.8710   27.5130   44.7540 H   0  0  0  0  0  0  0  0  0  0  0  0
   40.5050   26.1710   43.1790 C   0  0  0  0  0  0  0  0  0  0  0  0
   41.1440   24.9740   42.9290 C   0  0  0  0  0  0  0  0  0  0  0  0
   42.3860   24.9900   43.4730 N   0  0  0  0  0  0  0  0  0  0  0  0
   42.5200   26.1880   44.0570 C   0  0  0  0  0  0  0  0  0  0  0  0
   41.3880   26.8930   43.8780 N   0  0  0  0  0  0  0  0  0  0  0  0
   40.6920   24.1660   42.3790 H   0  0  0  0  0  0  0  0  0  0  0  0
   43.0710   24.2040   43.4240 H   0  0  0  0  0  0  0  0  0  0  0  0
   43.3970   26.5220   44.5820 H   0  0  0  0  0  0  0  0  0  0  0  0
   34.5900   28.9680   35.2020 C   0  0  0  0  0  0  0  0  0  0  0  0
   33.3020   29.4720   35.5060 C   0  0  0  0  0  0  0  0  0  0  0  0
   32.7740   29.2390   36.7890 C   0  0  0  0  0  0  0  0  0  0  0  0
   33.5750   28.5350   37.6210 N   0  0  0  0  0  0  0  0  0  0  0  0
   34.7800   28.0600   37.3460 C   0  0  0  0  0  0  0  0  0  0  0  0
   35.3180   28.2740   36.1030 N   0  0  0  0  0  0  0  0  0  0  0  0
   34.9830   29.1580   34.2060 H   0  0  0  0  0  0  0  0  0  0  0  0
   32.7260   30.0270   34.7800 H   0  0  0  0  0  0  0  0  0  0  0  0
   31.4430   29.7290   37.1800 C   0  0  0  0  0  0  0  0  0  0  0  0
   31.3630   29.8480   38.5360 F   0  0  0  0  0  0  0  0  0  0  0  0
   31.2960   30.9770   36.5570 F   0  0  0  0  0  0  0  0  0  0  0  0
   30.4220   28.9310   36.7020 F   0  0  0  0  0  0  0  0  0  0  0  0
  1  5  2  0  0  0  0
  2  1  1  0  0  0  0
  2  3  2  0  0  0  0
  3  7  1  0  0  0  0
  3  4  1  0  0  0  0
  4 10  1  0  0  0  0
  5  4  1  0  0  0  0
  6  2  1  0  0  0  0
  8  9  1  0  0  0  0
  9 14  1  0  0  0  0
 10  9  2  0  0  0  0
 10 11  1  0  0  0  0
 11 12  2  0  0  0  0
 12 13  1  0  0  0  0
 12 16  1  0  0  0  0
 13 17  1  0  0  0  0
 14 18  1  0  0  0  0
 14 13  2  0  0  0  0
 15 11  1  0  0  0  0
 18 22  1  0  0  0  0
 19 18  2  0  0  0  0
 19 20  1  0  0  0  0
 20 21  1  0  0  0  0
 21 25  1  0  0  0  0
 22 21  2  0  0  0  0
 23 19  1  0  0  0  0
 24 20  1  0  0  0  0
 26 27  2  0  0  0  0
 26 31  1  0  0  0  0
 27 28  1  0  0  0  0
 28 34  1  0  0  0  0
 28 29  2  0  0  0  0
 30 29  1  0  0  0  0
 30  1  1  0  0  0  0
 31 30  2  0  0  0  0
 32 26  1  0  0  0  0
 33 27  1  0  0  0  0
 34 35  1  0  0  0  0
 36 34  1  0  0  0  0
 37 34  1  0  0  0  0
M  END
>  <minimizedAffinity>
-6.16403103

$$$$

 OpenBabel03252501283D

 37 40  0  0  0  0  0  0  0  0999 V2000
   40.6250   31.3100   41.3520 C   0  0  0  0  0  0  0  0  0  0  0  0
   41.5690   30.7220   42.1930 C   0  0  0  0  0  0  0  0  0  0  0  0
   41.0290   29.6020   42.7360 C   0  0  0  0  0  0  0  0  0  0  0  0
   39.7790   29.5050   42.2390 N   0  0  0  0  0  0  0  0  0  0  0  0
   39.5540   30.5320   41.4160 N   0  0  0  0  0  0  0  0  0  0  0  0
   42.5690   31.1180   42.3660 H   0  0  0  0  0  0  0  0  0  0  0  0
   41.4590   28.8900   43.4320 H   0  0  0  0  0  0  0  0  0  0  0  0
   39.7180   26.9550   41.0160 F   0  0  0  0  0  0  0  0  0  0  0  0
   38.7900   27.2860   41.9010 C   0  0  0  0  0  0  0  0  0  0  0  0
   38.8100   28.5160   42.4980 C   0  0  0  0  0  0  0  0  0  0  0  0
   37.8390   28.8810   43.4330 C   0  0  0  0  0  0  0  0  0  0  0  0
   36.8380   28.0310   43.7860 C   0  0  0  0  0  0  0  0  0  0  0  0
   36.8200   26.7920   43.1830 C   0  0  0  0  0  0  0  0  0  0  0  0
   37.7760   26.4140   42.2530 C   0  0  0  0  0  0  0  0  0  0  0  0
   37.8410   29.8540   43.9160 H   0  0  0  0  0  0  0  0  0  0  0  0
   36.0840   28.3220   44.5150 H   0  0  0  0  0  0  0  0  0  0  0  0
   36.0190   26.0980   43.4580 H   0  0  0  0  0  0  0  0  0  0  0  0
   37.6660   25.0750   41.6710 C   0  0  0  0  0  0  0  0  0  0  0  0
   38.4150   23.9350   41.8790 C   0  0  0  0  0  0  0  0  0  0  0  0
   37.9400   22.9230   41.1120 N   0  0  0  0  0  0  0  0  0  0  0  0
   36.9030   23.4270   40.4320 C   0  0  0  0  0  0  0  0  0  0  0  0
   36.7430   24.7190   40.7700 N   0  0  0  0  0  0  0  0  0  0  0  0
   39.2500   23.8910   42.5590 H   0  0  0  0  0  0  0  0  0  0  0  0
   38.3330   21.9560   41.0860 H   0  0  0  0  0  0  0  0  0  0  0  0
   36.3020   22.8780   39.7290 H   0  0  0  0  0  0  0  0  0  0  0  0
   40.1690   34.6830   40.0150 C   0  0  0  0  0  0  0  0  0  0  0  0
   41.2730   34.8090   39.1370 C   0  0  0  0  0  0  0  0  0  0  0  0
   42.1630   33.7270   39.0140 C   0  0  0  0  0  0  0  0  0  0  0  0
   41.8640   32.6480   39.7720 N   0  0  0  0  0  0  0  0  0  0  0  0
   40.8350   32.5200   40.5960 C   0  0  0  0  0  0  0  0  0  0  0  0
   39.9520   33.5600   40.7340 N   0  0  0  0  0  0  0  0  0  0  0  0
   39.4920   35.5290   40.0980 H   0  0  0  0  0  0  0  0  0  0  0  0
   41.4400   35.7110   38.5650 H   0  0  0  0  0  0  0  0  0  0  0  0
   43.3320   33.7820   38.1220 C   0  0  0  0  0  0  0  0  0  0  0  0
   43.7280   32.5220   37.7830 F   0  0  0  0  0  0  0  0  0  0  0  0
   42.9180   34.5000   36.9920 F   0  0  0  0  0  0  0  0  0  0  0  0
   44.3840   34.4900   38.6710 F   0  0  0  0  0  0  0  0  0  0  0  0
  1  5  2  0  0  0  0
  1  2  1  0  0  0  0
  2  6  1  0  0  0  0
  2  3  2  0  0  0  0
  3  7  1  0  0  0  0
  4 10  1  0  0  0  0
  4  3  1  0  0  0  0
  5  4  1  0  0  0  0
  8  9  1  0  0  0  0
  9 14  2  0  0  0  0
  9 10  1  0  0  0  0
 10 11  2  0  0  0  0
 11 12  1  0  0  0  0
 11 15  1  0  0  0  0
 12 16  1  0  0  0  0
 13 17  1  0  0  0  0
 13 12  2  0  0  0  0
 14 13  1  0  0  0  0
 18 19  2  0  0  0  0
 18 14  1  0  0  0  0
 19 23  1  0  0  0  0
 20 19  1  0  0  0  0
 21 22  2  0  0  0  0
 21 20  1  0  0  0  0
 22 18  1  0  0  0  0
 24 20  1  0  0  0  0
 25 21  1  0  0  0  0
 26 32  1  0  0  0  0
 26 31  1  0  0  0  0
 27 26  2  0  0  0  0
 28 27  1  0  0  0  0
 28 29  2  0  0  0  0
 29 30  1  0  0  0  0
 30 31  2  0  0  0  0
 30  1  1  0  0  0  0
 33 27  1  0  0  0  0
 34 37  1  0  0  0  0
 34 28  1  0  0  0  0
 35 34  1  0  0  0  0
 36 34  1  0  0  0  0
M  END
>  <minimizedAffinity>
-6.12580585

$$$$

 OpenBabel03252501283D

 37 40  0  0  0  0  0  0  0  0999 V2000
   37.9500   31.2560   40.8730 C   0  0  0  0  0  0  0  0  0  0  0  0
   36.5620   31.1180   40.8900 C   0  0  0  0  0  0  0  0  0  0  0  0
   36.2580   29.8190   41.1330 C   0  0  0  0  0  0  0  0  0  0  0  0
   37.4350   29.1720   41.2620 N   0  0  0  0  0  0  0  0  0  0  0  0
   38.4330   30.0440   41.1040 N   0  0  0  0  0  0  0  0  0  0  0  0
   35.8620   31.9370   40.7310 H   0  0  0  0  0  0  0  0  0  0  0  0
   35.2910   29.3350   41.2170 H   0  0  0  0  0  0  0  0  0  0  0  0
   36.4120   27.0520   39.6920 F   0  0  0  0  0  0  0  0  0  0  0  0
   37.1590   26.7880   40.7550 C   0  0  0  0  0  0  0  0  0  0  0  0
   37.6570   27.8050   41.5200 C   0  0  0  0  0  0  0  0  0  0  0  0
   38.4450   27.5440   42.6440 C   0  0  0  0  0  0  0  0  0  0  0  0
   38.7470   26.2730   43.0210 C   0  0  0  0  0  0  0  0  0  0  0  0
   38.2420   25.2490   42.2470 C   0  0  0  0  0  0  0  0  0  0  0  0
   37.4590   25.4910   41.1290 C   0  0  0  0  0  0  0  0  0  0  0  0
   38.8490   28.3410   43.2630 H   0  0  0  0  0  0  0  0  0  0  0  0
   39.3610   26.0760   43.8960 H   0  0  0  0  0  0  0  0  0  0  0  0
   38.4770   24.2210   42.5390 H   0  0  0  0  0  0  0  0  0  0  0  0
   36.9730   24.3330   40.3760 C   0  0  0  0  0  0  0  0  0  0  0  0
   37.4120   23.0250   40.3470 C   0  0  0  0  0  0  0  0  0  0  0  0
   36.6490   22.3000   39.4930 N   0  0  0  0  0  0  0  0  0  0  0  0
   35.7410   23.1480   38.9940 C   0  0  0  0  0  0  0  0  0  0  0  0
   35.9400   24.3670   39.5270 N   0  0  0  0  0  0  0  0  0  0  0  0
   38.2440   22.6670   40.9310 H   0  0  0  0  0  0  0  0  0  0  0  0
   36.7760   21.2830   39.2920 H   0  0  0  0  0  0  0  0  0  0  0  0
   34.9790   22.8860   38.2810 H   0  0  0  0  0  0  0  0  0  0  0  0
   38.6200   34.7640   40.0890 C   0  0  0  0  0  0  0  0  0  0  0  0
   40.0280   34.8360   40.2180 C   0  0  0  0  0  0  0  0  0  0  0  0
   40.7330   33.6720   40.5730 C   0  0  0  0  0  0  0  0  0  0  0  0
   39.9680   32.5730   40.7620 N   0  0  0  0  0  0  0  0  0  0  0  0
   38.6520   32.4950   40.6450 C   0  0  0  0  0  0  0  0  0  0  0  0
   37.9400   33.6160   40.2990 N   0  0  0  0  0  0  0  0  0  0  0  0
   38.0920   35.6730   39.8140 H   0  0  0  0  0  0  0  0  0  0  0  0
   40.5640   35.7590   40.0480 H   0  0  0  0  0  0  0  0  0  0  0  0
   42.1960   33.6680   40.7270 C   0  0  0  0  0  0  0  0  0  0  0  0
   42.7770   32.9810   39.7010 F   0  0  0  0  0  0  0  0  0  0  0  0
   42.5860   35.0150   40.7140 F   0  0  0  0  0  0  0  0  0  0  0  0
   42.6000   33.1560   41.9450 F   0  0  0  0  0  0  0  0  0  0  0  0
  1  2  1  0  0  0  0
  1  5  2  0  0  0  0
  2  3  2  0  0  0  0
  3  7  1  0  0  0  0
  3  4  1  0  0  0  0
  4 10  1  0  0  0  0
  5  4  1  0  0  0  0
  6  2  1  0  0  0  0
  8  9  1  0  0  0  0
  9 14  2  0  0  0  0
  9 10  1  0  0  0  0
 10 11  2  0  0  0  0
 11 12  1  0  0  0  0
 11 15  1  0  0  0  0
 12 16  1  0  0  0  0
 13 17  1  0  0  0  0
 13 12  2  0  0  0  0
 14 13  1  0  0  0  0
 18 14  1  0  0  0  0
 19 18  2  0  0  0  0
 19 23  1  0  0  0  0
 20 19  1  0  0  0  0
 21 20  1  0  0  0  0
 21 22  2  0  0  0  0
 22 18  1  0  0  0  0
 24 20  1  0  0  0  0
 25 21  1  0  0  0  0
 26 27  2  0  0  0  0
 26 31  1  0  0  0  0
 27 28  1  0  0  0  0
 28 34  1  0  0  0  0
 28 29  2  0  0  0  0
 30 29  1  0  0  0  0
 30  1  1  0  0  0  0
 31 30  2  0  0  0  0
 32 26  1  0  0  0  0
 33 27  1  0  0  0  0
 34 37  1  0  0  0  0
 35 34  1  0  0  0  0
 36 34  1  0  0  0  0
M  END
>  <minimizedAffinity>
-6.04229259

$$$$

 OpenBabel03252501283D

 37 40  0  0  0  0  0  0  0  0999 V2000
   38.1710   29.0050   40.9310 C   0  0  0  0  0  0  0  0  0  0  0  0
   38.4130   29.1360   42.2980 C   0  0  0  0  0  0  0  0  0  0  0  0
   39.0160   30.3300   42.5190 C   0  0  0  0  0  0  0  0  0  0  0  0
   39.1420   30.9210   41.3130 N   0  0  0  0  0  0  0  0  0  0  0  0
   38.6340   30.1160   40.3770 N   0  0  0  0  0  0  0  0  0  0  0  0
   38.1500   28.3860   43.0430 H   0  0  0  0  0  0  0  0  0  0  0  0
   39.3530   30.7780   43.4480 H   0  0  0  0  0  0  0  0  0  0  0  0
   41.9190   31.4400   41.1560 F   0  0  0  0  0  0  0  0  0  0  0  0
   41.0490   32.4150   40.9340 C   0  0  0  0  0  0  0  0  0  0  0  0
   39.7060   32.1750   41.0090 C   0  0  0  0  0  0  0  0  0  0  0  0
   38.7760   33.1920   40.7780 C   0  0  0  0  0  0  0  0  0  0  0  0
   39.1690   34.4580   40.4730 C   0  0  0  0  0  0  0  0  0  0  0  0
   40.5250   34.6970   40.4000 C   0  0  0  0  0  0  0  0  0  0  0  0
   41.4610   33.6990   40.6250 C   0  0  0  0  0  0  0  0  0  0  0  0
   37.7050   33.0180   40.8330 H   0  0  0  0  0  0  0  0  0  0  0  0
   38.4400   35.2460   40.2950 H   0  0  0  0  0  0  0  0  0  0  0  0
   40.8550   35.7120   40.1550 H   0  0  0  0  0  0  0  0  0  0  0  0
   42.8760   34.0590   40.5220 C   0  0  0  0  0  0  0  0  0  0  0  0
   43.7090   34.7150   41.4050 C   0  0  0  0  0  0  0  0  0  0  0  0
   44.9510   34.8240   40.8750 N   0  0  0  0  0  0  0  0  0  0  0  0
   44.8950   34.2400   39.6720 C   0  0  0  0  0  0  0  0  0  0  0  0
   43.6470   33.7820   39.4640 N   0  0  0  0  0  0  0  0  0  0  0  0
   43.3840   35.0750   42.3670 H   0  0  0  0  0  0  0  0  0  0  0  0
   45.7640   35.2800   41.3450 H   0  0  0  0  0  0  0  0  0  0  0  0
   45.7210   34.1560   38.9890 H   0  0  0  0  0  0  0  0  0  0  0  0
   36.4850   26.8920   38.4680 C   0  0  0  0  0  0  0  0  0  0  0  0
   36.3490   25.6680   39.1660 C   0  0  0  0  0  0  0  0  0  0  0  0
   36.8390   25.5850   40.4810 C   0  0  0  0  0  0  0  0  0  0  0  0
   37.4090   26.7160   40.9550 N   0  0  0  0  0  0  0  0  0  0  0  0
   37.5420   27.8650   40.3110 C   0  0  0  0  0  0  0  0  0  0  0  0
   37.0710   27.9730   39.0270 N   0  0  0  0  0  0  0  0  0  0  0  0
   36.1000   26.9390   37.4520 H   0  0  0  0  0  0  0  0  0  0  0  0
   35.8780   24.8080   38.7110 H   0  0  0  0  0  0  0  0  0  0  0  0
   36.7350   24.3470   41.2710 C   0  0  0  0  0  0  0  0  0  0  0  0
   36.4310   24.6390   42.5680 F   0  0  0  0  0  0  0  0  0  0  0  0
   35.7130   23.5960   40.6730 F   0  0  0  0  0  0  0  0  0  0  0  0
   37.8790   23.5760   41.2010 F   0  0  0  0  0  0  0  0  0  0  0  0
  1  2  1  0  0  0  0
  2  3  2  0  0  0  0
  2  6  1  0  0  0  0
  3  7  1  0  0  0  0
  4  3  1  0  0  0  0
  5  1  2  0  0  0  0
  5  4  1  0  0  0  0
  9 10  1  0  0  0  0
  9  8  1  0  0  0  0
 10  4  1  0  0  0  0
 11 15  1  0  0  0  0
 11 10  2  0  0  0  0
 12 11  1  0  0  0  0
 13 12  2  0  0  0  0
 13 14  1  0  0  0  0
 14  9  2  0  0  0  0
 16 12  1  0  0  0  0
 17 13  1  0  0  0  0
 18 14  1  0  0  0  0
 18 19  2  0  0  0  0
 19 23  1  0  0  0  0
 20 24  1  0  0  0  0
 20 19  1  0  0  0  0
 21 20  1  0  0  0  0
 22 21  2  0  0  0  0
 22 18  1  0  0  0  0
 25 21  1  0  0  0  0
 26 31  2  0  0  0  0
 26 27  1  0  0  0  0
 27 28  2  0  0  0  0
 28 29  1  0  0  0  0
 28 34  1  0  0  0  0
 30  1  1  0  0  0  0
 30 29  2  0  0  0  0
 31 30  1  0  0  0  0
 32 26  1  0  0  0  0
 33 27  1  0  0  0  0
 34 35  1  0  0  0  0
 36 34  1  0  0  0  0
 37 34  1  0  0  0  0
M  END
>  <minimizedAffinity>
-6.03411627

$$$$
