
 OpenBabel03252504413D

 40 42  0  0  0  0  0  0  0  0999 V2000
   46.3480   32.1960   48.0010 C   0  0  0  0  0  0  0  0  0  0  0  0
   45.9800   31.4870   49.1190 C   0  0  0  0  0  0  0  0  0  0  0  0
   47.1030   30.9840   49.6190 N   0  0  0  0  0  0  0  0  0  0  0  0
   48.1630   31.3250   48.8930 C   0  0  0  0  0  0  0  0  0  0  0  0
   47.6880   32.0870   47.8760 N   0  0  0  0  0  0  0  0  0  0  0  0
   49.5460   31.0280   49.0370 N   0  0  0  0  0  0  0  0  0  0  0  0
   50.3740   31.9500   49.8440 C   0  0  0  0  0  0  0  0  0  0  0  0
   50.5910   31.2130   51.1660 C   0  0  0  0  0  0  0  0  0  0  0  0
   51.0320   29.8000   50.9020 C   0  0  0  0  0  0  0  0  0  0  0  0
   51.5110   29.6700   49.4690 C   0  0  0  0  0  0  0  0  0  0  0  0
   50.3560   29.9580   48.5380 C   0  0  0  0  0  0  0  0  0  0  0  0
   44.9690   31.3760   49.4960 H   0  0  0  0  0  0  0  0  0  0  0  0
   47.1750   30.3830   50.4850 H   0  0  0  0  0  0  0  0  0  0  0  0
   49.8150   32.8790   50.0360 H   0  0  0  0  0  0  0  0  0  0  0  0
   51.3190   32.1960   49.3590 H   0  0  0  0  0  0  0  0  0  0  0  0
   51.2420   31.7740   51.8510 H   0  0  0  0  0  0  0  0  0  0  0  0
   49.5780   31.1440   51.6490 H   0  0  0  0  0  0  0  0  0  0  0  0
   51.9250   29.5940   51.5580 H   0  0  0  0  0  0  0  0  0  0  0  0
   50.2560   29.0520   51.0820 H   0  0  0  0  0  0  0  0  0  0  0  0
   52.3400   30.3660   49.2590 H   0  0  0  0  0  0  0  0  0  0  0  0
   51.8130   28.6160   49.3180 H   0  0  0  0  0  0  0  0  0  0  0  0
   50.8290   30.3330   47.5860 H   0  0  0  0  0  0  0  0  0  0  0  0
   49.8130   29.0520   48.2640 H   0  0  0  0  0  0  0  0  0  0  0  0
   45.4500   32.9530   47.0800 C   0  0  0  0  0  0  0  0  0  0  0  0
   45.0270   33.8050   47.6580 H   0  0  0  0  0  0  0  0  0  0  0  0
   44.5790   32.3250   46.7600 H   0  0  0  0  0  0  0  0  0  0  0  0
   46.2140   32.9180   44.7430 C   0  0  0  0  0  0  0  0  0  0  0  0
   46.1950   33.4930   45.9370 C   0  0  0  0  0  0  0  0  0  0  0  0
   46.9950   33.5550   43.6860 C   0  0  0  0  0  0  0  0  0  0  0  0
   46.5450   34.7020   42.9830 C   0  0  0  0  0  0  0  0  0  0  0  0
   47.3640   35.2250   41.9990 C   0  0  0  0  0  0  0  0  0  0  0  0
   48.5480   34.6390   41.7400 N   0  0  0  0  0  0  0  0  0  0  0  0
   48.9700   33.5440   42.4170 C   0  0  0  0  0  0  0  0  0  0  0  0
   48.2040   33.0180   43.3690 N   0  0  0  0  0  0  0  0  0  0  0  0
   45.5780   35.1070   43.2580 H   0  0  0  0  0  0  0  0  0  0  0  0
   47.0240   36.1000   41.4600 H   0  0  0  0  0  0  0  0  0  0  0  0
   50.2910   32.9270   42.0950 C   0  0  0  0  0  0  0  0  0  0  0  0
   51.2410   33.9070   42.3250 F   0  0  0  0  0  0  0  0  0  0  0  0
   50.5640   31.8050   42.8200 F   0  0  0  0  0  0  0  0  0  0  0  0
   50.3230   32.5930   40.7530 F   0  0  0  0  0  0  0  0  0  0  0  0
  1  2  2  0  0  0  0
  2 12  1  0  0  0  0
  2  3  1  0  0  0  0
  3 13  1  0  0  0  0
  4  6  1  0  0  0  0
  4  3  1  0  0  0  0
  5  1  1  0  0  0  0
  5  4  2  0  0  0  0
  6  7  1  0  0  0  0
  7 14  1  0  0  0  0
  7  8  1  0  0  0  0
  8 17  1  0  0  0  0
  8 16  1  0  0  0  0
  9 19  1  0  0  0  0
  9  8  1  0  0  0  0
  9 18  1  0  0  0  0
 10  9  1  0  0  0  0
 11  6  1  0  0  0  0
 11 10  1  0  0  0  0
 15  7  1  0  0  0  0
 20 10  1  0  0  0  0
 21 10  1  0  0  0  0
 22 11  1  0  0  0  0
 23 11  1  0  0  0  0
 24 25  1  0  0  0  0
 24  1  1  0  0  0  0
 26 24  1  0  0  0  0
 27 28  2  0  0  0  0
 28 24  1  0  0  0  0
 29 27  1  0  0  0  0
 30 35  1  0  0  0  0
 30 29  2  0  0  0  0
 31 30  1  0  0  0  0
 32 31  2  0  0  0  0
 32 33  1  0  0  0  0
 33 34  2  0  0  0  0
 34 29  1  0  0  0  0
 36 31  1  0  0  0  0
 37 38  1  0  0  0  0
 37 33  1  0  0  0  0
 37 39  1  0  0  0  0
 40 37  1  0  0  0  0
M  END
>  <minimizedAffinity>
-6.22094774

>  <minimizedRMSD>
0.833441019

$$$$
