
 OpenBabel03242511413D

 29 30  0  0  0  0  0  0  0  0999 V2000
   46.8500   32.7110   46.0990 C   0  0  0  0  0  0  0  0  0  0  0  0
   47.8900   32.4280   45.8450 H   0  0  0  0  0  0  0  0  0  0  0  0
   46.8910   33.7370   46.5080 H   0  0  0  0  0  0  0  0  0  0  0  0
   46.2760   31.8960   47.2140 C   0  0  0  0  0  0  0  0  0  0  0  0
   45.4920   32.3500   48.2880 C   0  0  0  0  0  0  0  0  0  0  0  0
   44.9220   31.5430   49.2370 C   0  0  0  0  0  0  0  0  0  0  0  0
   45.1710   30.2370   49.0630 C   0  0  0  0  0  0  0  0  0  0  0  0
   45.9330   29.7680   48.0330 C   0  0  0  0  0  0  0  0  0  0  0  0
   46.5370   30.5290   47.0520 C   0  0  0  0  0  0  0  0  0  0  0  0
   45.4470   33.4400   48.1920 H   0  0  0  0  0  0  0  0  0  0  0  0
   44.3930   32.1710   49.9180 H   0  0  0  0  0  0  0  0  0  0  0  0
   44.6870   29.6520   49.8420 H   0  0  0  0  0  0  0  0  0  0  0  0
   45.9740   28.6650   48.1240 H   0  0  0  0  0  0  0  0  0  0  0  0
   47.3450   29.6700   46.1630 C   0  0  0  0  0  0  0  0  0  0  0  0
   48.7240   29.8890   46.3520 F   0  0  0  0  0  0  0  0  0  0  0  0
   47.3970   28.3190   46.7360 F   0  0  0  0  0  0  0  0  0  0  0  0
   46.9400   29.3340   44.9450 F   0  0  0  0  0  0  0  0  0  0  0  0
   45.9670   32.6050   44.8780 C   0  0  0  0  0  0  0  0  0  0  0  0
   44.9520   32.3270   45.3100 H   0  0  0  0  0  0  0  0  0  0  0  0
   46.3210   32.0660   44.0390 H   0  0  0  0  0  0  0  0  0  0  0  0
   44.5690   35.9980   44.7860 C   0  0  0  0  0  0  0  0  0  0  0  0
   44.9870   36.4670   43.5160 C   0  0  0  0  0  0  0  0  0  0  0  0
   45.7520   35.6030   42.7560 C   0  0  0  0  0  0  0  0  0  0  0  0
   46.0590   34.3950   43.2320 N   0  0  0  0  0  0  0  0  0  0  0  0
   45.6320   33.9940   44.4550 C   0  0  0  0  0  0  0  0  0  0  0  0
   44.9040   34.7700   45.2230 N   0  0  0  0  0  0  0  0  0  0  0  0
   43.9730   36.6730   45.3780 H   0  0  0  0  0  0  0  0  0  0  0  0
   44.6880   37.4530   43.2230 H   0  0  0  0  0  0  0  0  0  0  0  0
   46.0760   35.9510   41.7880 H   0  0  0  0  0  0  0  0  0  0  0  0
  1  3  1  0  0  0  0
  1  4  1  0  0  0  0
  2  1  1  0  0  0  0
  4  5  1  0  0  0  0
  5  6  2  0  0  0  0
  6 11  1  0  0  0  0
  7  6  1  0  0  0  0
  7 12  1  0  0  0  0
  8 13  1  0  0  0  0
  8  7  2  0  0  0  0
  9  4  2  0  0  0  0
  9  8  1  0  0  0  0
 10  5  1  0  0  0  0
 14 15  1  0  0  0  0
 14 16  1  0  0  0  0
 14  9  1  0  0  0  0
 17 14  1  0  0  0  0
 18 19  1  0  0  0  0
 18  1  1  0  0  0  0
 20 18  1  0  0  0  0
 21 26  1  0  0  0  0
 21 27  1  0  0  0  0
 22 21  2  0  0  0  0
 23 24  2  0  0  0  0
 23 22  1  0  0  0  0
 24 25  1  0  0  0  0
 25 18  1  0  0  0  0
 25 26  2  0  0  0  0
 28 22  1  0  0  0  0
 29 23  1  0  0  0  0
M  END
>  <minimizedAffinity>
-4.73923063

>  <minimizedRMSD>
0.78221333

$$$$
