
 OpenBabel03242522103D

 15 15  0  0  0  0  0  0  0  0999 V2000
   44.5360   35.6560   45.0370 C   0  0  0  0  0  0  0  0  0  0  0  0
   45.1390   35.6790   43.7760 C   0  0  0  0  0  0  0  0  0  0  0  0
   46.0480   34.6660   43.4720 C   0  0  0  0  0  0  0  0  0  0  0  0
   46.2830   33.7310   44.4170 N   0  0  0  0  0  0  0  0  0  0  0  0
   45.6870   33.7360   45.6240 C   0  0  0  0  0  0  0  0  0  0  0  0
   44.8070   34.7010   45.9420 N   0  0  0  0  0  0  0  0  0  0  0  0
   43.8110   36.3900   45.3960 H   0  0  0  0  0  0  0  0  0  0  0  0
   46.0280   32.8840   46.2280 H   0  0  0  0  0  0  0  0  0  0  0  0
   46.6500   34.7340   42.1430 C   0  0  0  0  0  0  0  0  0  0  0  0
   47.4820   35.8320   42.0840 F   0  0  0  0  0  0  0  0  0  0  0  0
   45.6400   34.8090   41.1960 F   0  0  0  0  0  0  0  0  0  0  0  0
   47.4290   33.6430   41.8290 F   0  0  0  0  0  0  0  0  0  0  0  0
   44.7560   36.7540   42.9170 N   0  0  0  0  0  0  0  0  0  0  0  0
   43.7440   36.6690   42.6050 H   0  0  0  0  0  0  0  0  0  0  0  0
   45.4370   37.4980   42.6670 H   0  0  0  0  0  0  0  0  0  0  0  0
  1  7  1  0  0  0  0
  1  6  1  0  0  0  0
  2  1  2  0  0  0  0
  3  2  1  0  0  0  0
  3  4  2  0  0  0  0
  4  5  1  0  0  0  0
  5  6  2  0  0  0  0
  5  8  1  0  0  0  0
  9  3  1  0  0  0  0
 10  9  1  0  0  0  0
 11  9  1  0  0  0  0
 12  9  1  0  0  0  0
 13  2  1  0  0  0  0
 14 13  1  0  0  0  0
 15 13  1  0  0  0  0
M  END
>  <minimizedAffinity>
-4.06970787

>  <minimizedRMSD>
1.46134508

$$$$
