
 OpenBabel03242510153D

 13 13  0  0  0  0  0  0  0  0999 V2000
   44.9290   35.1010   44.9410 C   0  0  0  0  0  0  0  0  0  0  0  0
   45.8180   34.8020   43.8990 C   0  0  0  0  0  0  0  0  0  0  0  0
   46.6960   33.7380   44.0910 C   0  0  0  0  0  0  0  0  0  0  0  0
   46.6590   33.0430   45.2560 N   0  0  0  0  0  0  0  0  0  0  0  0
   45.7790   33.3670   46.2390 C   0  0  0  0  0  0  0  0  0  0  0  0
   44.9180   34.3880   46.0880 N   0  0  0  0  0  0  0  0  0  0  0  0
   44.2280   35.9270   44.8250 H   0  0  0  0  0  0  0  0  0  0  0  0
   47.3350   33.5750   43.2570 H   0  0  0  0  0  0  0  0  0  0  0  0
   45.8160   32.7550   47.1450 H   0  0  0  0  0  0  0  0  0  0  0  0
   45.7380   35.6530   42.6850 C   0  0  0  0  0  0  0  0  0  0  0  0
   45.2940   36.8940   43.1050 F   0  0  0  0  0  0  0  0  0  0  0  0
   44.8520   35.0910   41.8070 F   0  0  0  0  0  0  0  0  0  0  0  0
   47.0210   35.7170   42.1320 F   0  0  0  0  0  0  0  0  0  0  0  0
  1  6  1  0  0  0  0
  2  3  1  0  0  0  0
  2  1  2  0  0  0  0
  3  4  2  0  0  0  0
  4  5  1  0  0  0  0
  5  9  1  0  0  0  0
  6  5  2  0  0  0  0
  7  1  1  0  0  0  0
  8  3  1  0  0  0  0
 10 11  1  0  0  0  0
 10  2  1  0  0  0  0
 12 10  1  0  0  0  0
 13 10  1  0  0  0  0
M  END
>  <minimizedAffinity>
-3.55380392

>  <minimizedRMSD>
1.33704507

$$$$
