
 OpenBabel03252509213D

 20 21  0  0  0  0  0  0  0  0999 V2000
   45.4250   34.0200   44.7390 C   0  0  0  0  0  0  0  0  0  0  0  0
   45.7430   34.8490   43.6140 C   0  0  0  0  0  0  0  0  0  0  0  0
   46.9210   34.5010   42.9830 C   0  0  0  0  0  0  0  0  0  0  0  0
   47.7060   33.4450   43.4100 N   0  0  0  0  0  0  0  0  0  0  0  0
   47.3460   32.6980   44.4820 C   0  0  0  0  0  0  0  0  0  0  0  0
   46.2100   32.9950   45.1330 N   0  0  0  0  0  0  0  0  0  0  0  0
   44.5430   34.1870   45.3110 H   0  0  0  0  0  0  0  0  0  0  0  0
   48.0960   31.9370   44.6330 H   0  0  0  0  0  0  0  0  0  0  0  0
   47.2790   35.2540   41.7310 C   0  0  0  0  0  0  0  0  0  0  0  0
   48.7750   35.6060   41.7120 C   0  0  0  0  0  0  0  0  0  0  0  0
   48.0880   34.5980   40.7440 C   0  0  0  0  0  0  0  0  0  0  0  0
   46.6810   36.1600   41.5730 H   0  0  0  0  0  0  0  0  0  0  0  0
   49.3800   35.1960   42.5230 H   0  0  0  0  0  0  0  0  0  0  0  0
   49.1120   36.5440   41.2680 H   0  0  0  0  0  0  0  0  0  0  0  0
   48.0940   34.9240   39.6610 H   0  0  0  0  0  0  0  0  0  0  0  0
   48.5080   33.5630   40.8710 H   0  0  0  0  0  0  0  0  0  0  0  0
   44.8300   35.9280   43.2560 C   0  0  0  0  0  0  0  0  0  0  0  0
   44.2650   35.7120   42.0140 F   0  0  0  0  0  0  0  0  0  0  0  0
   45.4290   37.1660   43.3380 F   0  0  0  0  0  0  0  0  0  0  0  0
   43.7780   35.9490   44.1530 F   0  0  0  0  0  0  0  0  0  0  0  0
  1  6  1  0  0  0  0
  1  7  1  0  0  0  0
  2  1  2  0  0  0  0
  3  4  2  0  0  0  0
  3  2  1  0  0  0  0
  4  5  1  0  0  0  0
  5  8  1  0  0  0  0
  5  6  2  0  0  0  0
  9  3  1  0  0  0  0
 10  9  1  0  0  0  0
 10 13  1  0  0  0  0
 11 16  1  0  0  0  0
 11 10  1  0  0  0  0
 11  9  1  0  0  0  0
 12  9  1  0  0  0  0
 14 10  1  0  0  0  0
 15 11  1  0  0  0  0
 17 19  1  0  0  0  0
 17  2  1  0  0  0  0
 17 20  1  0  0  0  0
 18 17  1  0  0  0  0
M  END
>  <minimizedAffinity>
-4.58436298

>  <minimizedRMSD>
1.63859081

$$$$
