
 OpenBabel03252509183D

 36 38  0  0  1  0  0  0  0  0999 V2000
   48.5240   29.0710   46.4730 C   0  0  1  0  0  0  0  0  0  0  0  0
   49.6050   29.5450   47.3850 C   0  0  0  0  0  0  0  0  0  0  0  0
   49.6120   28.9080   48.7390 C   0  0  0  0  0  0  0  0  0  0  0  0
   49.3770   27.4170   48.6850 C   0  0  0  0  0  0  0  0  0  0  0  0
   48.2460   27.0390   47.7670 C   0  0  0  0  0  0  0  0  0  0  0  0
   47.4910   28.3020   47.3220 C   0  0  2  0  0  0  0  0  0  0  0  0
   48.9410   28.2960   45.8010 H   0  0  0  0  0  0  0  0  0  0  0  0
   49.4310   30.6490   47.5460 H   0  0  0  0  0  0  0  0  0  0  0  0
   50.6080   29.5040   46.8930 H   0  0  0  0  0  0  0  0  0  0  0  0
   48.8980   29.3910   49.4330 H   0  0  0  0  0  0  0  0  0  0  0  0
   50.6340   29.0410   49.1740 H   0  0  0  0  0  0  0  0  0  0  0  0
   50.3020   26.8960   48.3280 H   0  0  0  0  0  0  0  0  0  0  0  0
   49.2190   27.0720   49.7250 H   0  0  0  0  0  0  0  0  0  0  0  0
   47.5430   26.3760   48.3180 H   0  0  0  0  0  0  0  0  0  0  0  0
   48.5890   26.5250   46.8670 H   0  0  0  0  0  0  0  0  0  0  0  0
   47.1310   28.8820   48.1710 H   0  0  0  0  0  0  0  0  0  0  0  0
   46.7090   32.3980   44.9240 C   0  0  0  0  0  0  0  0  0  0  0  0
   47.1900   31.5400   43.9210 C   0  0  0  0  0  0  0  0  0  0  0  0
   47.8050   30.4000   44.3100 C   0  0  0  0  0  0  0  0  0  0  0  0
   47.9470   30.1070   45.6810 C   0  0  0  0  0  0  0  0  0  0  0  0
   47.1540   31.5410   46.4730 S   0  0  0  0  0  0  0  0  0  0  0  0
   47.0860   31.7590   42.8690 H   0  0  0  0  0  0  0  0  0  0  0  0
   48.2360   29.6220   43.7010 H   0  0  0  0  0  0  0  0  0  0  0  0
   45.3540   35.5270   43.4350 C   0  0  0  0  0  0  0  0  0  0  0  0
   44.5970   36.0060   44.5340 C   0  0  0  0  0  0  0  0  0  0  0  0
   44.5840   35.2410   45.7290 C   0  0  0  0  0  0  0  0  0  0  0  0
   45.3130   34.0880   45.7260 N   0  0  0  0  0  0  0  0  0  0  0  0
   46.0200   33.6660   44.6610 C   0  0  0  0  0  0  0  0  0  0  0  0
   46.0320   34.3910   43.5290 N   0  0  0  0  0  0  0  0  0  0  0  0
   45.3840   36.0890   42.5080 H   0  0  0  0  0  0  0  0  0  0  0  0
   44.0450   36.9210   44.4740 H   0  0  0  0  0  0  0  0  0  0  0  0
   44.0220   35.5620   46.5970 H   0  0  0  0  0  0  0  0  0  0  0  0
   46.3600   27.8120   46.4310 C   0  0  0  0  0  0  0  0  0  0  0  0
   45.7410   26.7040   46.9740 F   0  0  0  0  0  0  0  0  0  0  0  0
   45.4670   28.8380   46.2210 F   0  0  0  0  0  0  0  0  0  0  0  0
   46.9110   27.4600   45.2280 F   0  0  0  0  0  0  0  0  0  0  0  0
  1  7  1  6  0  0  0
  1  6  1  0  0  0  0
  1  2  1  0  0  0  0
  2  8  1  0  0  0  0
  2  3  1  0  0  0  0
  3 11  1  0  0  0  0
  3 10  1  0  0  0  0
  4  3  1  0  0  0  0
  4 13  1  0  0  0  0
  5 14  1  0  0  0  0
  5  4  1  0  0  0  0
  6  5  1  0  0  0  0
  6 16  1  1  0  0  0
  9  2  1  0  0  0  0
 12  4  1  0  0  0  0
 15  5  1  0  0  0  0
 17 21  1  0  0  0  0
 18 19  1  0  0  0  0
 18 17  2  0  0  0  0
 19 20  2  0  0  0  0
 20  1  1  0  0  0  0
 20 21  1  0  0  0  0
 22 18  1  0  0  0  0
 23 19  1  0  0  0  0
 24 29  2  0  0  0  0
 24 25  1  0  0  0  0
 25 26  2  0  0  0  0
 26 32  1  0  0  0  0
 27 26  1  0  0  0  0
 28 17  1  0  0  0  0
 28 27  2  0  0  0  0
 29 28  1  0  0  0  0
 30 24  1  0  0  0  0
 31 25  1  0  0  0  0
 33 34  1  0  0  0  0
 33  6  1  0  0  0  0
 35 33  1  0  0  0  0
 36 33  1  0  0  0  0
M  END
>  <minimizedAffinity>
-4.09200954

>  <minimizedRMSD>
4.04436779

$$$$
