
 OpenBabel03242517443D

 24 25  0  0  0  0  0  0  0  0999 V2000
   38.9970   27.5500   43.1720 C   0  0  0  0  0  0  0  0  0  0  0  0
   40.3660   27.5560   43.3980 C   0  0  0  0  0  0  0  0  0  0  0  0
   41.0720   26.3850   43.2780 C   0  0  0  0  0  0  0  0  0  0  0  0
   40.4530   25.1930   42.9390 C   0  0  0  0  0  0  0  0  0  0  0  0
   39.1000   25.1910   42.7150 C   0  0  0  0  0  0  0  0  0  0  0  0
   38.3650   26.3560   42.8290 C   0  0  0  0  0  0  0  0  0  0  0  0
   40.7770   28.5180   43.6580 H   0  0  0  0  0  0  0  0  0  0  0  0
   42.1410   26.4080   43.4590 H   0  0  0  0  0  0  0  0  0  0  0  0
   41.0630   24.2930   42.8580 H   0  0  0  0  0  0  0  0  0  0  0  0
   38.6480   24.2440   42.4510 H   0  0  0  0  0  0  0  0  0  0  0  0
   36.8910   26.2530   42.5650 C   0  0  0  0  0  0  0  0  0  0  0  0
   36.1450   26.8940   43.5300 F   0  0  0  0  0  0  0  0  0  0  0  0
   36.6510   26.7850   41.3010 F   0  0  0  0  0  0  0  0  0  0  0  0
   36.6100   24.8990   42.5340 F   0  0  0  0  0  0  0  0  0  0  0  0
   37.8960   28.9540   43.2720 S   0  0  0  0  0  0  0  0  0  0  0  0
   36.6280   30.4240   41.2980 C   0  0  0  0  0  0  0  0  0  0  0  0
   37.7910   29.7210   41.6740 C   0  0  0  0  0  0  0  0  0  0  0  0
   38.8160   29.6650   40.7490 C   0  0  0  0  0  0  0  0  0  0  0  0
   38.6640   30.2760   39.5420 N   0  0  0  0  0  0  0  0  0  0  0  0
   37.5360   30.9330   39.2350 C   0  0  0  0  0  0  0  0  0  0  0  0
   36.5120   31.0200   40.0870 N   0  0  0  0  0  0  0  0  0  0  0  0
   35.7980   30.4810   42.0170 H   0  0  0  0  0  0  0  0  0  0  0  0
   39.7030   29.1160   41.0620 H   0  0  0  0  0  0  0  0  0  0  0  0
   37.5560   31.3650   38.2510 H   0  0  0  0  0  0  0  0  0  0  0  0
  1 15  1  0  0  0  0
  1  2  1  0  0  0  0
  2  7  1  0  0  0  0
  3  2  2  0  0  0  0
  3  8  1  0  0  0  0
  4  3  1  0  0  0  0
  5  6  1  0  0  0  0
  5  4  2  0  0  0  0
  6  1  2  0  0  0  0
  9  4  1  0  0  0  0
 10  5  1  0  0  0  0
 11  6  1  0  0  0  0
 11 12  1  0  0  0  0
 13 11  1  0  0  0  0
 14 11  1  0  0  0  0
 16 17  1  0  0  0  0
 16 22  1  0  0  0  0
 17 15  1  0  0  0  0
 18 23  1  0  0  0  0
 18 17  2  0  0  0  0
 19 18  1  0  0  0  0
 20 19  2  0  0  0  0
 20 21  1  0  0  0  0
 21 16  2  0  0  0  0
 24 20  1  0  0  0  0
M  END
>  <minimizedAffinity>
-4.86774015

$$$$

 OpenBabel03242517443D

 24 25  0  0  0  0  0  0  0  0999 V2000
   36.6180   30.5980   39.3920 C   0  0  0  0  0  0  0  0  0  0  0  0
   36.0700   29.6420   38.5500 C   0  0  0  0  0  0  0  0  0  0  0  0
   36.3790   29.6680   37.2120 C   0  0  0  0  0  0  0  0  0  0  0  0
   37.2240   30.6280   36.6790 C   0  0  0  0  0  0  0  0  0  0  0  0
   37.7640   31.5710   37.5140 C   0  0  0  0  0  0  0  0  0  0  0  0
   37.4700   31.5680   38.8650 C   0  0  0  0  0  0  0  0  0  0  0  0
   35.4220   28.9300   39.0350 H   0  0  0  0  0  0  0  0  0  0  0  0
   35.9410   28.9140   36.5690 H   0  0  0  0  0  0  0  0  0  0  0  0
   37.4350   30.6010   35.6090 H   0  0  0  0  0  0  0  0  0  0  0  0
   38.4200   32.3060   37.0660 H   0  0  0  0  0  0  0  0  0  0  0  0
   38.1090   32.6400   39.6980 C   0  0  0  0  0  0  0  0  0  0  0  0
   38.5720   32.1560   40.9020 F   0  0  0  0  0  0  0  0  0  0  0  0
   39.1390   33.2000   38.9450 F   0  0  0  0  0  0  0  0  0  0  0  0
   37.1320   33.5990   39.8880 F   0  0  0  0  0  0  0  0  0  0  0  0
   36.3500   30.7450   41.1520 S   0  0  0  0  0  0  0  0  0  0  0  0
   36.4770   28.0840   41.9080 C   0  0  0  0  0  0  0  0  0  0  0  0
   37.0920   29.3510   41.9670 C   0  0  0  0  0  0  0  0  0  0  0  0
   38.2730   29.4430   42.6770 C   0  0  0  0  0  0  0  0  0  0  0  0
   38.7830   28.3310   43.2760 N   0  0  0  0  0  0  0  0  0  0  0  0
   38.1580   27.1480   43.1890 C   0  0  0  0  0  0  0  0  0  0  0  0
   37.0140   26.9990   42.5170 N   0  0  0  0  0  0  0  0  0  0  0  0
   35.5350   27.9860   41.3490 H   0  0  0  0  0  0  0  0  0  0  0  0
   38.7280   30.4310   42.7080 H   0  0  0  0  0  0  0  0  0  0  0  0
   38.6730   26.3620   43.7090 H   0  0  0  0  0  0  0  0  0  0  0  0
  1 15  1  0  0  0  0
  2  7  1  0  0  0  0
  2  1  2  0  0  0  0
  3  2  1  0  0  0  0
  4  3  2  0  0  0  0
  4  5  1  0  0  0  0
  5  6  2  0  0  0  0
  6  1  1  0  0  0  0
  6 11  1  0  0  0  0
  8  3  1  0  0  0  0
  9  4  1  0  0  0  0
 10  5  1  0  0  0  0
 11 14  1  0  0  0  0
 11 12  1  0  0  0  0
 13 11  1  0  0  0  0
 15 17  1  0  0  0  0
 16 17  2  0  0  0  0
 16 21  1  0  0  0  0
 17 18  1  0  0  0  0
 18 23  1  0  0  0  0
 18 19  2  0  0  0  0
 20 19  1  0  0  0  0
 20 24  1  0  0  0  0
 21 20  2  0  0  0  0
 22 16  1  0  0  0  0
M  END
>  <minimizedAffinity>
-4.82990265

$$$$

 OpenBabel03242517443D

 24 25  0  0  0  0  0  0  0  0999 V2000
   37.0190   29.3450   41.7870 C   0  0  0  0  0  0  0  0  0  0  0  0
   37.6910   29.2060   42.9920 C   0  0  0  0  0  0  0  0  0  0  0  0
   37.9830   27.9470   43.4580 C   0  0  0  0  0  0  0  0  0  0  0  0
   37.6210   26.8100   42.7560 C   0  0  0  0  0  0  0  0  0  0  0  0
   36.9570   26.9500   41.5650 C   0  0  0  0  0  0  0  0  0  0  0  0
   36.6510   28.2060   41.0730 C   0  0  0  0  0  0  0  0  0  0  0  0
   37.9390   30.1340   43.4820 H   0  0  0  0  0  0  0  0  0  0  0  0
   38.5080   27.8580   44.4020 H   0  0  0  0  0  0  0  0  0  0  0  0
   37.8780   25.8350   43.1730 H   0  0  0  0  0  0  0  0  0  0  0  0
   36.6900   26.0420   41.0410 H   0  0  0  0  0  0  0  0  0  0  0  0
   35.9230   28.2580   39.7620 C   0  0  0  0  0  0  0  0  0  0  0  0
   34.6720   28.8220   39.8850 F   0  0  0  0  0  0  0  0  0  0  0  0
   36.7170   28.9710   38.8670 F   0  0  0  0  0  0  0  0  0  0  0  0
   35.8390   26.9480   39.3270 F   0  0  0  0  0  0  0  0  0  0  0  0
   36.5450   30.8790   41.0050 S   0  0  0  0  0  0  0  0  0  0  0  0
   38.0410   33.1030   40.3090 C   0  0  0  0  0  0  0  0  0  0  0  0
   38.0040   31.6970   40.4070 C   0  0  0  0  0  0  0  0  0  0  0  0
   39.1390   31.0110   40.0190 C   0  0  0  0  0  0  0  0  0  0  0  0
   40.2210   31.7050   39.5700 N   0  0  0  0  0  0  0  0  0  0  0  0
   40.2040   33.0440   39.4970 C   0  0  0  0  0  0  0  0  0  0  0  0
   39.1360   33.7600   39.8570 N   0  0  0  0  0  0  0  0  0  0  0  0
   37.1490   33.6710   40.6110 H   0  0  0  0  0  0  0  0  0  0  0  0
   39.0860   29.9270   40.1030 H   0  0  0  0  0  0  0  0  0  0  0  0
   41.1240   33.4560   39.1250 H   0  0  0  0  0  0  0  0  0  0  0  0
  1  2  1  0  0  0  0
  2  3  2  0  0  0  0
  2  7  1  0  0  0  0
  3  8  1  0  0  0  0
  4  9  1  0  0  0  0
  4  3  1  0  0  0  0
  5  4  2  0  0  0  0
  6  5  1  0  0  0  0
  6  1  2  0  0  0  0
 10  5  1  0  0  0  0
 11 12  1  0  0  0  0
 11  6  1  0  0  0  0
 13 11  1  0  0  0  0
 14 11  1  0  0  0  0
 15  1  1  0  0  0  0
 16 17  1  0  0  0  0
 16 22  1  0  0  0  0
 17 15  1  0  0  0  0
 18 23  1  0  0  0  0
 18 17  2  0  0  0  0
 19 18  1  0  0  0  0
 20 19  2  0  0  0  0
 20 21  1  0  0  0  0
 21 16  2  0  0  0  0
 24 20  1  0  0  0  0
M  END
>  <minimizedAffinity>
-4.69897747

$$$$

 OpenBabel03242517443D

 24 25  0  0  0  0  0  0  0  0999 V2000
   38.4410   29.0250   42.2590 C   0  0  0  0  0  0  0  0  0  0  0  0
   39.6960   29.5860   42.4430 C   0  0  0  0  0  0  0  0  0  0  0  0
   40.7240   28.7980   42.9000 C   0  0  0  0  0  0  0  0  0  0  0  0
   40.5400   27.4550   43.1840 C   0  0  0  0  0  0  0  0  0  0  0  0
   39.2990   26.9030   43.0000 C   0  0  0  0  0  0  0  0  0  0  0  0
   38.2460   27.6740   42.5410 C   0  0  0  0  0  0  0  0  0  0  0  0
   39.7630   30.6350   42.2030 H   0  0  0  0  0  0  0  0  0  0  0  0
   41.6980   29.2530   43.0390 H   0  0  0  0  0  0  0  0  0  0  0  0
   41.3920   26.8760   43.5430 H   0  0  0  0  0  0  0  0  0  0  0  0
   39.1890   25.8520   43.2300 H   0  0  0  0  0  0  0  0  0  0  0  0
   36.9260   26.9810   42.3710 C   0  0  0  0  0  0  0  0  0  0  0  0
   36.3990   27.1700   41.1120 F   0  0  0  0  0  0  0  0  0  0  0  0
   37.1220   25.6300   42.6430 F   0  0  0  0  0  0  0  0  0  0  0  0
   36.0970   27.5100   43.3440 F   0  0  0  0  0  0  0  0  0  0  0  0
   36.9760   29.8660   41.6770 S   0  0  0  0  0  0  0  0  0  0  0  0
   37.8390   29.7150   39.0500 C   0  0  0  0  0  0  0  0  0  0  0  0
   37.2960   30.5330   40.0620 C   0  0  0  0  0  0  0  0  0  0  0  0
   37.0350   31.8490   39.7320 C   0  0  0  0  0  0  0  0  0  0  0  0
   37.3070   32.2910   38.4730 N   0  0  0  0  0  0  0  0  0  0  0  0
   37.8230   31.4710   37.5470 C   0  0  0  0  0  0  0  0  0  0  0  0
   38.0970   30.1900   37.8080 N   0  0  0  0  0  0  0  0  0  0  0  0
   38.0560   28.6640   39.2890 H   0  0  0  0  0  0  0  0  0  0  0  0
   36.6160   32.4600   40.5290 H   0  0  0  0  0  0  0  0  0  0  0  0
   37.9860   31.9540   36.6010 H   0  0  0  0  0  0  0  0  0  0  0  0
  1  2  2  0  0  0  0
  1  6  1  0  0  0  0
  2  3  1  0  0  0  0
  3  8  1  0  0  0  0
  3  4  2  0  0  0  0
  4  9  1  0  0  0  0
  5  4  1  0  0  0  0
  5 10  1  0  0  0  0
  6  5  2  0  0  0  0
  7  2  1  0  0  0  0
 11  6  1  0  0  0  0
 11 13  1  0  0  0  0
 11 14  1  0  0  0  0
 12 11  1  0  0  0  0
 15  1  1  0  0  0  0
 16 22  1  0  0  0  0
 16 17  1  0  0  0  0
 17 15  1  0  0  0  0
 18 17  2  0  0  0  0
 18 23  1  0  0  0  0
 19 18  1  0  0  0  0
 20 21  1  0  0  0  0
 20 19  2  0  0  0  0
 21 16  2  0  0  0  0
 24 20  1  0  0  0  0
M  END
>  <minimizedAffinity>
-4.68261337

$$$$

 OpenBabel03242517443D

 24 25  0  0  0  0  0  0  0  0999 V2000
   37.6910   28.8220   41.2920 C   0  0  0  0  0  0  0  0  0  0  0  0
   37.9330   29.4290   42.5150 C   0  0  0  0  0  0  0  0  0  0  0  0
   37.6180   28.7610   43.6720 C   0  0  0  0  0  0  0  0  0  0  0  0
   37.0610   27.4930   43.6510 C   0  0  0  0  0  0  0  0  0  0  0  0
   36.8230   26.8940   42.4410 C   0  0  0  0  0  0  0  0  0  0  0  0
   37.1310   27.5450   41.2600 C   0  0  0  0  0  0  0  0  0  0  0  0
   38.3660   30.4150   42.4520 H   0  0  0  0  0  0  0  0  0  0  0  0
   37.8140   29.2510   44.6190 H   0  0  0  0  0  0  0  0  0  0  0  0
   36.8310   27.0080   44.6010 H   0  0  0  0  0  0  0  0  0  0  0  0
   36.3880   25.9040   42.4600 H   0  0  0  0  0  0  0  0  0  0  0  0
   36.8340   26.8090   39.9870 C   0  0  0  0  0  0  0  0  0  0  0  0
   37.9300   26.7520   39.1530 F   0  0  0  0  0  0  0  0  0  0  0  0
   36.3910   25.5350   40.3310 F   0  0  0  0  0  0  0  0  0  0  0  0
   35.7900   27.4940   39.3930 F   0  0  0  0  0  0  0  0  0  0  0  0
   38.0240   29.5100   39.6770 S   0  0  0  0  0  0  0  0  0  0  0  0
   39.4110   31.8510   40.1910 C   0  0  0  0  0  0  0  0  0  0  0  0
   38.1780   31.2730   39.8220 C   0  0  0  0  0  0  0  0  0  0  0  0
   37.1260   32.1370   39.5880 C   0  0  0  0  0  0  0  0  0  0  0  0
   37.3180   33.4790   39.7190 N   0  0  0  0  0  0  0  0  0  0  0  0
   38.5120   33.9770   40.0720 C   0  0  0  0  0  0  0  0  0  0  0  0
   39.5650   33.1920   40.3120 N   0  0  0  0  0  0  0  0  0  0  0  0
   40.2630   31.1830   40.3840 H   0  0  0  0  0  0  0  0  0  0  0  0
   36.1850   31.6680   39.3050 H   0  0  0  0  0  0  0  0  0  0  0  0
   38.5180   35.0490   40.1370 H   0  0  0  0  0  0  0  0  0  0  0  0
  1  2  1  0  0  0  0
  2  3  2  0  0  0  0
  3  8  1  0  0  0  0
  4  3  1  0  0  0  0
  4  9  1  0  0  0  0
  5 10  1  0  0  0  0
  5  4  2  0  0  0  0
  6  1  2  0  0  0  0
  6  5  1  0  0  0  0
  7  2  1  0  0  0  0
 11 13  1  0  0  0  0
 11  6  1  0  0  0  0
 12 11  1  0  0  0  0
 14 11  1  0  0  0  0
 15 17  1  0  0  0  0
 15  1  1  0  0  0  0
 16 21  1  0  0  0  0
 16 22  1  0  0  0  0
 17 16  2  0  0  0  0
 18 19  2  0  0  0  0
 18 17  1  0  0  0  0
 19 20  1  0  0  0  0
 20 24  1  0  0  0  0
 20 21  2  0  0  0  0
 23 18  1  0  0  0  0
M  END
>  <minimizedAffinity>
-4.6566329

$$$$

 OpenBabel03242517443D

 24 25  0  0  0  0  0  0  0  0999 V2000
   35.8590   29.8900   39.4890 C   0  0  0  0  0  0  0  0  0  0  0  0
   34.9230   28.8760   39.3580 C   0  0  0  0  0  0  0  0  0  0  0  0
   34.6390   28.3800   38.1100 C   0  0  0  0  0  0  0  0  0  0  0  0
   35.2630   28.8680   36.9730 C   0  0  0  0  0  0  0  0  0  0  0  0
   36.1880   29.8710   37.1060 C   0  0  0  0  0  0  0  0  0  0  0  0
   36.4930   30.3880   38.3510 C   0  0  0  0  0  0  0  0  0  0  0  0
   34.4790   28.5470   40.2840 H   0  0  0  0  0  0  0  0  0  0  0  0
   33.9040   27.5870   38.0260 H   0  0  0  0  0  0  0  0  0  0  0  0
   34.9990   28.4380   36.0070 H   0  0  0  0  0  0  0  0  0  0  0  0
   36.6570   30.2300   36.1990 H   0  0  0  0  0  0  0  0  0  0  0  0
   37.5180   31.4830   38.3950 C   0  0  0  0  0  0  0  0  0  0  0  0
   37.0310   32.6280   38.9880 F   0  0  0  0  0  0  0  0  0  0  0  0
   38.6300   30.9930   39.0750 F   0  0  0  0  0  0  0  0  0  0  0  0
   37.8750   31.7160   37.0790 F   0  0  0  0  0  0  0  0  0  0  0  0
   36.3740   30.6730   41.0100 S   0  0  0  0  0  0  0  0  0  0  0  0
   36.8580   28.3330   42.4090 C   0  0  0  0  0  0  0  0  0  0  0  0
   37.3950   29.5430   41.9240 C   0  0  0  0  0  0  0  0  0  0  0  0
   38.7280   29.7900   42.1940 C   0  0  0  0  0  0  0  0  0  0  0  0
   39.4490   28.8780   42.9010 N   0  0  0  0  0  0  0  0  0  0  0  0
   38.8890   27.7410   43.3400 C   0  0  0  0  0  0  0  0  0  0  0  0
   37.6070   27.4480   43.1100 N   0  0  0  0  0  0  0  0  0  0  0  0
   35.8000   28.1140   42.2070 H   0  0  0  0  0  0  0  0  0  0  0  0
   39.1190   30.7300   41.8090 H   0  0  0  0  0  0  0  0  0  0  0  0
   39.5750   27.1170   43.8830 H   0  0  0  0  0  0  0  0  0  0  0  0
  1 15  1  0  0  0  0
  2  1  1  0  0  0  0
  2  7  1  0  0  0  0
  3  2  2  0  0  0  0
  4  5  2  0  0  0  0
  4  3  1  0  0  0  0
  5  6  1  0  0  0  0
  6 11  1  0  0  0  0
  6  1  2  0  0  0  0
  8  3  1  0  0  0  0
  9  4  1  0  0  0  0
 10  5  1  0  0  0  0
 11 12  1  0  0  0  0
 11 13  1  0  0  0  0
 14 11  1  0  0  0  0
 15 17  1  0  0  0  0
 16 21  1  0  0  0  0
 17 18  1  0  0  0  0
 17 16  2  0  0  0  0
 18 19  2  0  0  0  0
 19 20  1  0  0  0  0
 20 24  1  0  0  0  0
 21 20  2  0  0  0  0
 22 16  1  0  0  0  0
 23 18  1  0  0  0  0
M  END
>  <minimizedAffinity>
-4.61239004

$$$$

 OpenBabel03242517443D

 24 25  0  0  0  0  0  0  0  0999 V2000
   36.3490   30.4460   40.0010 C   0  0  0  0  0  0  0  0  0  0  0  0
   36.8360   31.4390   40.8370 C   0  0  0  0  0  0  0  0  0  0  0  0
   37.5010   32.5100   40.2940 C   0  0  0  0  0  0  0  0  0  0  0  0
   37.7020   32.6260   38.9280 C   0  0  0  0  0  0  0  0  0  0  0  0
   37.2190   31.6420   38.1040 C   0  0  0  0  0  0  0  0  0  0  0  0
   36.5460   30.5530   38.6250 C   0  0  0  0  0  0  0  0  0  0  0  0
   36.6430   31.2820   41.8860 H   0  0  0  0  0  0  0  0  0  0  0  0
   37.8750   33.2770   40.9630 H   0  0  0  0  0  0  0  0  0  0  0  0
   38.2370   33.4970   38.5510 H   0  0  0  0  0  0  0  0  0  0  0  0
   37.3920   31.7630   37.0420 H   0  0  0  0  0  0  0  0  0  0  0  0
   36.0560   29.5290   37.6430 C   0  0  0  0  0  0  0  0  0  0  0  0
   36.3420   29.8790   36.3410 F   0  0  0  0  0  0  0  0  0  0  0  0
   36.6370   28.3100   37.9810 F   0  0  0  0  0  0  0  0  0  0  0  0
   34.6910   29.4380   37.8460 F   0  0  0  0  0  0  0  0  0  0  0  0
   35.4610   28.9770   40.4970 S   0  0  0  0  0  0  0  0  0  0  0  0
   36.9500   26.6640   40.8090 C   0  0  0  0  0  0  0  0  0  0  0  0
   36.5700   27.9000   41.3710 C   0  0  0  0  0  0  0  0  0  0  0  0
   37.0970   28.2150   42.6090 C   0  0  0  0  0  0  0  0  0  0  0  0
   37.9420   27.3390   43.2210 N   0  0  0  0  0  0  0  0  0  0  0  0
   38.2720   26.1750   42.6420 C   0  0  0  0  0  0  0  0  0  0  0  0
   37.7930   25.8170   41.4480 N   0  0  0  0  0  0  0  0  0  0  0  0
   36.5430   26.3910   39.8250 H   0  0  0  0  0  0  0  0  0  0  0  0
   36.7890   29.1740   43.0220 H   0  0  0  0  0  0  0  0  0  0  0  0
   38.9440   25.5860   43.2370 H   0  0  0  0  0  0  0  0  0  0  0  0
  1 15  1  0  0  0  0
  1  2  1  0  0  0  0
  2  7  1  0  0  0  0
  3  2  2  0  0  0  0
  3  8  1  0  0  0  0
  4  3  1  0  0  0  0
  5  6  1  0  0  0  0
  5  4  2  0  0  0  0
  6  1  2  0  0  0  0
  9  4  1  0  0  0  0
 10  5  1  0  0  0  0
 11 14  1  0  0  0  0
 11 13  1  0  0  0  0
 11  6  1  0  0  0  0
 12 11  1  0  0  0  0
 15 17  1  0  0  0  0
 16 17  2  0  0  0  0
 16 21  1  0  0  0  0
 17 18  1  0  0  0  0
 18 23  1  0  0  0  0
 18 19  2  0  0  0  0
 20 19  1  0  0  0  0
 20 24  1  0  0  0  0
 21 20  2  0  0  0  0
 22 16  1  0  0  0  0
M  END
>  <minimizedAffinity>
-4.59334278

$$$$

 OpenBabel03242517443D

 24 25  0  0  0  0  0  0  0  0999 V2000
   38.2970   29.0770   41.0250 C   0  0  0  0  0  0  0  0  0  0  0  0
   39.2110   28.7290   42.0090 C   0  0  0  0  0  0  0  0  0  0  0  0
   38.7630   28.1320   43.1610 C   0  0  0  0  0  0  0  0  0  0  0  0
   37.4200   27.8680   43.3690 C   0  0  0  0  0  0  0  0  0  0  0  0
   36.5190   28.2120   42.3950 C   0  0  0  0  0  0  0  0  0  0  0  0
   36.9430   28.8140   41.2240 C   0  0  0  0  0  0  0  0  0  0  0  0
   40.2370   28.9660   41.7770 H   0  0  0  0  0  0  0  0  0  0  0  0
   39.4910   27.8680   43.9200 H   0  0  0  0  0  0  0  0  0  0  0  0
   37.1200   27.3920   44.3040 H   0  0  0  0  0  0  0  0  0  0  0  0
   35.4780   27.9910   42.5880 H   0  0  0  0  0  0  0  0  0  0  0  0
   35.8830   29.1530   40.2180 C   0  0  0  0  0  0  0  0  0  0  0  0
   35.9170   30.4820   39.8550 F   0  0  0  0  0  0  0  0  0  0  0  0
   36.0670   28.3210   39.1160 F   0  0  0  0  0  0  0  0  0  0  0  0
   34.6790   28.8300   40.8170 F   0  0  0  0  0  0  0  0  0  0  0  0
   38.6640   29.8570   39.4600 S   0  0  0  0  0  0  0  0  0  0  0  0
   40.0770   32.1820   38.9460 C   0  0  0  0  0  0  0  0  0  0  0  0
   39.1040   31.5530   39.7500 C   0  0  0  0  0  0  0  0  0  0  0  0
   38.5280   32.3140   40.7490 C   0  0  0  0  0  0  0  0  0  0  0  0
   38.9150   33.6090   40.9130 N   0  0  0  0  0  0  0  0  0  0  0  0
   39.8460   34.1600   40.1200 C   0  0  0  0  0  0  0  0  0  0  0  0
   40.4370   33.4740   39.1390 N   0  0  0  0  0  0  0  0  0  0  0  0
   40.5490   31.5970   38.1440 H   0  0  0  0  0  0  0  0  0  0  0  0
   37.7800   31.8060   41.3560 H   0  0  0  0  0  0  0  0  0  0  0  0
   40.0520   35.1860   40.3640 H   0  0  0  0  0  0  0  0  0  0  0  0
  1  6  2  0  0  0  0
  1  2  1  0  0  0  0
  2  3  2  0  0  0  0
  3  4  1  0  0  0  0
  3  8  1  0  0  0  0
  4  9  1  0  0  0  0
  5 10  1  0  0  0  0
  5  4  2  0  0  0  0
  6  5  1  0  0  0  0
  7  2  1  0  0  0  0
 11 14  1  0  0  0  0
 11  6  1  0  0  0  0
 12 11  1  0  0  0  0
 13 11  1  0  0  0  0
 15 17  1  0  0  0  0
 15  1  1  0  0  0  0
 16 21  2  0  0  0  0
 16 17  1  0  0  0  0
 17 18  2  0  0  0  0
 18 19  1  0  0  0  0
 18 23  1  0  0  0  0
 20 24  1  0  0  0  0
 20 19  2  0  0  0  0
 21 20  1  0  0  0  0
 22 16  1  0  0  0  0
M  END
>  <minimizedAffinity>
-4.508533

$$$$

 OpenBabel03242517443D

 24 25  0  0  0  0  0  0  0  0999 V2000
   39.1290   28.2410   41.3830 C   0  0  0  0  0  0  0  0  0  0  0  0
   40.5030   28.2740   41.5650 C   0  0  0  0  0  0  0  0  0  0  0  0
   41.0440   27.7290   42.7030 C   0  0  0  0  0  0  0  0  0  0  0  0
   40.2520   27.1460   43.6780 C   0  0  0  0  0  0  0  0  0  0  0  0
   38.8940   27.1140   43.4950 C   0  0  0  0  0  0  0  0  0  0  0  0
   38.3230   27.6560   42.3580 C   0  0  0  0  0  0  0  0  0  0  0  0
   41.0540   28.7440   40.7660 H   0  0  0  0  0  0  0  0  0  0  0  0
   42.1200   27.7640   42.8290 H   0  0  0  0  0  0  0  0  0  0  0  0
   40.7350   26.7280   44.5620 H   0  0  0  0  0  0  0  0  0  0  0  0
   38.3030   26.6510   44.2750 H   0  0  0  0  0  0  0  0  0  0  0  0
   36.8280   27.5740   42.2480 C   0  0  0  0  0  0  0  0  0  0  0  0
   36.2550   27.0210   43.3730 F   0  0  0  0  0  0  0  0  0  0  0  0
   36.3520   28.8610   42.0150 F   0  0  0  0  0  0  0  0  0  0  0  0
   36.5770   26.8020   41.1290 F   0  0  0  0  0  0  0  0  0  0  0  0
   38.2250   28.8890   39.9850 S   0  0  0  0  0  0  0  0  0  0  0  0
   37.3270   31.4900   40.2940 C   0  0  0  0  0  0  0  0  0  0  0  0
   38.4090   30.6550   39.9470 C   0  0  0  0  0  0  0  0  0  0  0  0
   39.5890   31.2760   39.5840 C   0  0  0  0  0  0  0  0  0  0  0  0
   39.6570   32.6360   39.5780 N   0  0  0  0  0  0  0  0  0  0  0  0
   38.5980   33.3840   39.9170 C   0  0  0  0  0  0  0  0  0  0  0  0
   37.4310   32.8410   40.2750 N   0  0  0  0  0  0  0  0  0  0  0  0
   36.3770   31.0200   40.5850 H   0  0  0  0  0  0  0  0  0  0  0  0
   40.4090   30.6110   39.3200 H   0  0  0  0  0  0  0  0  0  0  0  0
   38.7950   34.4390   39.8670 H   0  0  0  0  0  0  0  0  0  0  0  0
  1  2  2  0  0  0  0
  1  6  1  0  0  0  0
  2  3  1  0  0  0  0
  3  8  1  0  0  0  0
  3  4  2  0  0  0  0
  4  9  1  0  0  0  0
  5  4  1  0  0  0  0
  5 10  1  0  0  0  0
  6  5  2  0  0  0  0
  7  2  1  0  0  0  0
 11  6  1  0  0  0  0
 11 12  1  0  0  0  0
 13 11  1  0  0  0  0
 14 11  1  0  0  0  0
 15  1  1  0  0  0  0
 16 22  1  0  0  0  0
 17 15  1  0  0  0  0
 17 16  2  0  0  0  0
 18 17  1  0  0  0  0
 19 18  2  0  0  0  0
 19 20  1  0  0  0  0
 20 21  2  0  0  0  0
 21 16  1  0  0  0  0
 23 18  1  0  0  0  0
 24 20  1  0  0  0  0
M  END
>  <minimizedAffinity>
-4.47396326

$$$$
