
 OpenBabel03252505233D

 35 37  0  0  1  0  0  0  0  0999 V2000
   47.5110   33.2850   45.0270 F   0  0  0  0  0  0  0  0  0  0  0  0
   47.6020   32.0530   44.4860 C   0  0  0  0  0  0  0  0  0  0  0  0
   47.9180   31.9260   43.1520 C   0  0  0  0  0  0  0  0  0  0  0  0
   48.0110   30.6720   42.6210 C   0  0  0  0  0  0  0  0  0  0  0  0
   47.7850   29.5710   43.4330 C   0  0  0  0  0  0  0  0  0  0  0  0
   47.4710   29.6860   44.7550 C   0  0  0  0  0  0  0  0  0  0  0  0
   47.3790   30.9800   45.2890 C   0  0  0  0  0  0  0  0  0  0  0  0
   48.2600   30.6060   41.5690 H   0  0  0  0  0  0  0  0  0  0  0  0
   47.8850   28.6250   42.9000 H   0  0  0  0  0  0  0  0  0  0  0  0
   47.3310   28.7470   45.2340 H   0  0  0  0  0  0  0  0  0  0  0  0
   47.0510   31.0330   46.6740 N   0  0  0  0  0  0  0  0  0  0  0  0
   46.9270   29.9640   47.6460 C   0  0  0  0  0  0  0  0  0  0  0  0
   47.7040   30.5000   48.8330 C   0  0  0  0  0  0  0  0  0  0  0  0
   47.7760   31.9910   48.6060 C   0  0  0  0  0  0  0  0  0  0  0  0
   46.7590   32.1760   47.4990 C   0  0  2  0  0  0  0  0  0  0  0  0
   47.5310   29.0950   47.2590 H   0  0  0  0  0  0  0  0  0  0  0  0
   45.9170   29.6360   47.8620 H   0  0  0  0  0  0  0  0  0  0  0  0
   47.0450   30.3640   49.7290 H   0  0  0  0  0  0  0  0  0  0  0  0
   48.6840   30.0260   48.9580 H   0  0  0  0  0  0  0  0  0  0  0  0
   47.5550   32.5820   49.5060 H   0  0  0  0  0  0  0  0  0  0  0  0
   48.7750   32.2370   48.1780 H   0  0  0  0  0  0  0  0  0  0  0  0
   47.0720   33.0820   46.9400 H   0  0  0  0  0  0  0  0  0  0  0  0
   45.3640   32.2840   48.0030 C   0  0  0  0  0  0  0  0  0  0  0  0
   44.7230   33.4380   47.6090 F   0  0  0  0  0  0  0  0  0  0  0  0
   44.6290   31.1420   47.8360 F   0  0  0  0  0  0  0  0  0  0  0  0
   45.4760   32.4250   49.4020 F   0  0  0  0  0  0  0  0  0  0  0  0
   49.3070   35.1150   41.9790 C   0  0  0  0  0  0  0  0  0  0  0  0
   48.5270   35.3820   40.8100 C   0  0  0  0  0  0  0  0  0  0  0  0
   47.5330   34.4290   40.4680 C   0  0  0  0  0  0  0  0  0  0  0  0
   47.3820   33.3310   41.2640 N   0  0  0  0  0  0  0  0  0  0  0  0
   48.1440   33.1300   42.3530 C   0  0  0  0  0  0  0  0  0  0  0  0
   49.1000   34.0080   42.7140 N   0  0  0  0  0  0  0  0  0  0  0  0
   50.0780   35.7720   42.3160 H   0  0  0  0  0  0  0  0  0  0  0  0
   48.7190   36.2660   40.2530 H   0  0  0  0  0  0  0  0  0  0  0  0
   46.9380   34.6070   39.5990 H   0  0  0  0  0  0  0  0  0  0  0  0
  2  1  1  0  0  0  0
  2  7  1  0  0  0  0
  3  2  2  0  0  0  0
  4  3  1  0  0  0  0
  4  5  2  0  0  0  0
  5  6  1  0  0  0  0
  6 10  1  0  0  0  0
  6  7  2  0  0  0  0
  7 11  1  0  0  0  0
  8  4  1  0  0  0  0
  9  5  1  0  0  0  0
 11 15  1  0  0  0  0
 11 12  1  0  0  0  0
 12 17  1  0  0  0  0
 12 13  1  0  0  0  0
 13 19  1  0  0  0  0
 13 18  1  0  0  0  0
 14 13  1  0  0  0  0
 14 20  1  0  0  0  0
 15 22  1  6  0  0  0
 15 23  1  0  0  0  0
 15 14  1  0  0  0  0
 16 12  1  0  0  0  0
 21 14  1  0  0  0  0
 23 26  1  0  0  0  0
 24 23  1  0  0  0  0
 25 23  1  0  0  0  0
 27 33  1  0  0  0  0
 27 32  1  0  0  0  0
 28 27  2  0  0  0  0
 29 28  1  0  0  0  0
 29 30  2  0  0  0  0
 30 31  1  0  0  0  0
 31 32  2  0  0  0  0
 31  3  1  0  0  0  0
 34 28  1  0  0  0  0
 35 29  1  0  0  0  0
M  END
>  <minimizedAffinity>
-5.37898302

>  <minimizedRMSD>
1.3068136

$$$$
