
 OpenBabel03252506113D

 25 26  0  0  0  0  0  0  0  0999 V2000
   37.6940   29.6580   42.7840 F   0  0  0  0  0  0  0  0  0  0  0  0
   37.3900   28.9930   41.6690 C   0  0  0  0  0  0  0  0  0  0  0  0
   37.4680   29.6330   40.4420 C   0  0  0  0  0  0  0  0  0  0  0  0
   37.1670   29.0030   39.2470 C   0  0  0  0  0  0  0  0  0  0  0  0
   36.7690   27.6740   39.2350 C   0  0  0  0  0  0  0  0  0  0  0  0
   36.7040   27.0710   40.4810 C   0  0  0  0  0  0  0  0  0  0  0  0
   36.9960   27.6690   41.6800 C   0  0  0  0  0  0  0  0  0  0  0  0
   37.2460   29.5580   38.3140 H   0  0  0  0  0  0  0  0  0  0  0  0
   36.5260   27.1460   38.3240 H   0  0  0  0  0  0  0  0  0  0  0  0
   36.3950   26.0280   40.5120 H   0  0  0  0  0  0  0  0  0  0  0  0
   39.5300   32.6740   40.7640 C   0  0  0  0  0  0  0  0  0  0  0  0
   38.6430   33.6610   40.2630 C   0  0  0  0  0  0  0  0  0  0  0  0
   37.3640   33.2800   39.8260 C   0  0  0  0  0  0  0  0  0  0  0  0
   37.0430   31.9560   39.9100 N   0  0  0  0  0  0  0  0  0  0  0  0
   37.8850   31.0440   40.3810 C   0  0  0  0  0  0  0  0  0  0  0  0
   39.1070   31.4100   40.7990 N   0  0  0  0  0  0  0  0  0  0  0  0
   38.9890   34.6850   40.2370 H   0  0  0  0  0  0  0  0  0  0  0  0
   36.6890   34.0210   39.4470 H   0  0  0  0  0  0  0  0  0  0  0  0
   40.8120   33.0520   41.2030 N   0  0  0  0  0  0  0  0  0  0  0  0
   41.5470   32.4050   40.8000 H   0  0  0  0  0  0  0  0  0  0  0  0
   41.1190   33.8330   41.8310 H   0  0  0  0  0  0  0  0  0  0  0  0
   36.8970   26.9380   42.9610 C   0  0  0  0  0  0  0  0  0  0  0  0
   36.6120   25.6090   42.6640 F   0  0  0  0  0  0  0  0  0  0  0  0
   35.8260   27.4200   43.6780 F   0  0  0  0  0  0  0  0  0  0  0  0
   38.0640   27.0750   43.6790 F   0  0  0  0  0  0  0  0  0  0  0  0
  2  7  1  0  0  0  0
  2  1  1  0  0  0  0
  3  2  2  0  0  0  0
  4  3  1  0  0  0  0
  5  4  2  0  0  0  0
  5  6  1  0  0  0  0
  6 10  1  0  0  0  0
  6  7  2  0  0  0  0
  7 22  1  0  0  0  0
  8  4  1  0  0  0  0
  9  5  1  0  0  0  0
 11 16  1  0  0  0  0
 11 19  1  0  0  0  0
 12 11  2  0  0  0  0
 13 14  2  0  0  0  0
 13 12  1  0  0  0  0
 14 15  1  0  0  0  0
 15  3  1  0  0  0  0
 15 16  2  0  0  0  0
 17 12  1  0  0  0  0
 18 13  1  0  0  0  0
 19 21  1  0  0  0  0
 20 19  1  0  0  0  0
 22 24  1  0  0  0  0
 22 25  1  0  0  0  0
 23 22  1  0  0  0  0
M  END
>  <minimizedAffinity>
-5.57931232

$$$$

 OpenBabel03252506113D

 25 26  0  0  0  0  0  0  0  0999 V2000
   37.9440   28.3080   39.6580 F   0  0  0  0  0  0  0  0  0  0  0  0
   37.6400   28.0830   40.9360 C   0  0  0  0  0  0  0  0  0  0  0  0
   37.7920   29.0970   41.8690 C   0  0  0  0  0  0  0  0  0  0  0  0
   37.4940   28.9320   43.2110 C   0  0  0  0  0  0  0  0  0  0  0  0
   37.0200   27.7170   43.6800 C   0  0  0  0  0  0  0  0  0  0  0  0
   36.8820   26.7300   42.7160 C   0  0  0  0  0  0  0  0  0  0  0  0
   37.1680   26.8640   41.3820 C   0  0  0  0  0  0  0  0  0  0  0  0
   37.6350   29.7660   43.8960 H   0  0  0  0  0  0  0  0  0  0  0  0
   36.7770   27.5480   44.7190 H   0  0  0  0  0  0  0  0  0  0  0  0
   36.5130   25.7610   43.0470 H   0  0  0  0  0  0  0  0  0  0  0  0
   37.8610   32.5120   40.4790 C   0  0  0  0  0  0  0  0  0  0  0  0
   39.2290   32.8500   40.6470 C   0  0  0  0  0  0  0  0  0  0  0  0
   40.1010   31.9160   41.2270 C   0  0  0  0  0  0  0  0  0  0  0  0
   39.5730   30.7150   41.6030 N   0  0  0  0  0  0  0  0  0  0  0  0
   38.2910   30.4140   41.4380 C   0  0  0  0  0  0  0  0  0  0  0  0
   37.4560   31.3080   40.8830 N   0  0  0  0  0  0  0  0  0  0  0  0
   39.5510   33.8270   40.3170 H   0  0  0  0  0  0  0  0  0  0  0  0
   41.1360   32.1650   41.3570 H   0  0  0  0  0  0  0  0  0  0  0  0
   36.9830   33.4450   39.8970 N   0  0  0  0  0  0  0  0  0  0  0  0
   36.0960   33.5260   40.4700 H   0  0  0  0  0  0  0  0  0  0  0  0
   37.0790   34.0320   39.0340 H   0  0  0  0  0  0  0  0  0  0  0  0
   36.9870   25.7480   40.4290 C   0  0  0  0  0  0  0  0  0  0  0  0
   36.5080   24.6580   41.1480 F   0  0  0  0  0  0  0  0  0  0  0  0
   38.2110   25.3790   39.9220 F   0  0  0  0  0  0  0  0  0  0  0  0
   36.1320   26.1220   39.4150 F   0  0  0  0  0  0  0  0  0  0  0  0
  1  2  1  0  0  0  0
  2  7  2  0  0  0  0
  2  3  1  0  0  0  0
  3  4  2  0  0  0  0
  4  5  1  0  0  0  0
  4  8  1  0  0  0  0
  5  9  1  0  0  0  0
  6 10  1  0  0  0  0
  6  5  2  0  0  0  0
  7  6  1  0  0  0  0
 11 12  2  0  0  0  0
 11 16  1  0  0  0  0
 12 13  1  0  0  0  0
 13 18  1  0  0  0  0
 13 14  2  0  0  0  0
 15 14  1  0  0  0  0
 15  3  1  0  0  0  0
 16 15  2  0  0  0  0
 17 12  1  0  0  0  0
 19 20  1  0  0  0  0
 19 11  1  0  0  0  0
 21 19  1  0  0  0  0
 22 23  1  0  0  0  0
 22  7  1  0  0  0  0
 24 22  1  0  0  0  0
 25 22  1  0  0  0  0
M  END
>  <minimizedAffinity>
-5.55714989

$$$$

 OpenBabel03252506113D

 25 26  0  0  0  0  0  0  0  0999 V2000
   39.4590   29.2210   41.5930 F   0  0  0  0  0  0  0  0  0  0  0  0
   38.1670   29.2790   41.2710 C   0  0  0  0  0  0  0  0  0  0  0  0
   37.6980   30.3220   40.4880 C   0  0  0  0  0  0  0  0  0  0  0  0
   36.3700   30.4430   40.1160 C   0  0  0  0  0  0  0  0  0  0  0  0
   35.4390   29.5010   40.5250 C   0  0  0  0  0  0  0  0  0  0  0  0
   35.9470   28.4750   41.3060 C   0  0  0  0  0  0  0  0  0  0  0  0
   37.2540   28.3290   41.6890 C   0  0  0  0  0  0  0  0  0  0  0  0
   36.0620   31.2850   39.4990 H   0  0  0  0  0  0  0  0  0  0  0  0
   34.3930   29.5590   40.2570 H   0  0  0  0  0  0  0  0  0  0  0  0
   35.2450   27.7160   41.6470 H   0  0  0  0  0  0  0  0  0  0  0  0
   39.8530   32.3180   38.2570 C   0  0  0  0  0  0  0  0  0  0  0  0
   40.3660   33.2820   39.1630 C   0  0  0  0  0  0  0  0  0  0  0  0
   39.9750   33.2390   40.5090 C   0  0  0  0  0  0  0  0  0  0  0  0
   39.1050   32.2520   40.8770 N   0  0  0  0  0  0  0  0  0  0  0  0
   38.6340   31.3580   40.0180 C   0  0  0  0  0  0  0  0  0  0  0  0
   39.0090   31.4000   38.7290 N   0  0  0  0  0  0  0  0  0  0  0  0
   41.0510   34.0240   38.7750 H   0  0  0  0  0  0  0  0  0  0  0  0
   40.3590   33.9640   41.1990 H   0  0  0  0  0  0  0  0  0  0  0  0
   40.2440   32.3580   36.9060 N   0  0  0  0  0  0  0  0  0  0  0  0
   39.3990   32.2720   36.2740 H   0  0  0  0  0  0  0  0  0  0  0  0
   41.1910   32.4540   36.4690 H   0  0  0  0  0  0  0  0  0  0  0  0
   37.7010   27.1950   42.5270 C   0  0  0  0  0  0  0  0  0  0  0  0
   36.5670   26.4900   42.9150 F   0  0  0  0  0  0  0  0  0  0  0  0
   38.2760   27.6800   43.6790 F   0  0  0  0  0  0  0  0  0  0  0  0
   38.5930   26.4100   41.8300 F   0  0  0  0  0  0  0  0  0  0  0  0
  2  1  1  0  0  0  0
  2  7  1  0  0  0  0
  3  2  2  0  0  0  0
  4  3  1  0  0  0  0
  4  5  2  0  0  0  0
  5  6  1  0  0  0  0
  6 10  1  0  0  0  0
  6  7  2  0  0  0  0
  7 22  1  0  0  0  0
  8  4  1  0  0  0  0
  9  5  1  0  0  0  0
 11 16  2  0  0  0  0
 11 12  1  0  0  0  0
 12 13  2  0  0  0  0
 13 14  1  0  0  0  0
 13 18  1  0  0  0  0
 15  3  1  0  0  0  0
 15 14  2  0  0  0  0
 16 15  1  0  0  0  0
 17 12  1  0  0  0  0
 19 11  1  0  0  0  0
 20 19  1  0  0  0  0
 21 19  1  0  0  0  0
 22 23  1  0  0  0  0
 22 24  1  0  0  0  0
 25 22  1  0  0  0  0
M  END
>  <minimizedAffinity>
-5.46218491

$$$$

 OpenBabel03252506113D

 25 26  0  0  0  0  0  0  0  0999 V2000
   37.8530   28.2670   39.6410 F   0  0  0  0  0  0  0  0  0  0  0  0
   37.5730   28.0440   40.9250 C   0  0  0  0  0  0  0  0  0  0  0  0
   37.6300   29.0890   41.8340 C   0  0  0  0  0  0  0  0  0  0  0  0
   37.3510   28.9290   43.1810 C   0  0  0  0  0  0  0  0  0  0  0  0
   36.9950   27.6860   43.6800 C   0  0  0  0  0  0  0  0  0  0  0  0
   36.9490   26.6680   42.7400 C   0  0  0  0  0  0  0  0  0  0  0  0
   37.2190   26.7960   41.4020 C   0  0  0  0  0  0  0  0  0  0  0  0
   37.4140   29.7880   43.8460 H   0  0  0  0  0  0  0  0  0  0  0  0
   36.7700   27.5190   44.7240 H   0  0  0  0  0  0  0  0  0  0  0  0
   36.6730   25.6770   43.0950 H   0  0  0  0  0  0  0  0  0  0  0  0
   39.6190   32.1290   41.1940 C   0  0  0  0  0  0  0  0  0  0  0  0
   38.6740   32.9350   40.5090 C   0  0  0  0  0  0  0  0  0  0  0  0
   37.3830   32.4370   40.2770 C   0  0  0  0  0  0  0  0  0  0  0  0
   37.1060   31.1800   40.7320 N   0  0  0  0  0  0  0  0  0  0  0  0
   38.0010   30.4380   41.3710 C   0  0  0  0  0  0  0  0  0  0  0  0
   39.2360   30.9160   41.5930 N   0  0  0  0  0  0  0  0  0  0  0  0
   38.9890   33.9180   40.1880 H   0  0  0  0  0  0  0  0  0  0  0  0
   36.6650   33.0420   39.7600 H   0  0  0  0  0  0  0  0  0  0  0  0
   40.9140   32.6250   41.4290 N   0  0  0  0  0  0  0  0  0  0  0  0
   41.6410   31.9020   41.1650 H   0  0  0  0  0  0  0  0  0  0  0  0
   41.2370   33.5490   41.8040 H   0  0  0  0  0  0  0  0  0  0  0  0
   37.1420   25.6470   40.4760 C   0  0  0  0  0  0  0  0  0  0  0  0
   36.7230   24.5440   41.2130 F   0  0  0  0  0  0  0  0  0  0  0  0
   38.4030   25.3530   40.0100 F   0  0  0  0  0  0  0  0  0  0  0  0
   36.2910   25.9330   39.4310 F   0  0  0  0  0  0  0  0  0  0  0  0
  1  2  1  0  0  0  0
  2  7  2  0  0  0  0
  2  3  1  0  0  0  0
  3  4  2  0  0  0  0
  4  5  1  0  0  0  0
  4  8  1  0  0  0  0
  5  9  1  0  0  0  0
  6 10  1  0  0  0  0
  6  5  2  0  0  0  0
  7  6  1  0  0  0  0
 11 19  1  0  0  0  0
 11 16  1  0  0  0  0
 12 11  2  0  0  0  0
 13 12  1  0  0  0  0
 13 14  2  0  0  0  0
 14 15  1  0  0  0  0
 15 16  2  0  0  0  0
 15  3  1  0  0  0  0
 17 12  1  0  0  0  0
 18 13  1  0  0  0  0
 19 21  1  0  0  0  0
 20 19  1  0  0  0  0
 22 23  1  0  0  0  0
 22  7  1  0  0  0  0
 24 22  1  0  0  0  0
 25 22  1  0  0  0  0
M  END
>  <minimizedAffinity>
-5.23592901

$$$$

 OpenBabel03252506113D

 25 26  0  0  0  0  0  0  0  0999 V2000
   37.7300   28.7330   41.7630 F   0  0  0  0  0  0  0  0  0  0  0  0
   37.3690   27.8580   40.8240 C   0  0  0  0  0  0  0  0  0  0  0  0
   37.3390   28.2480   39.4940 C   0  0  0  0  0  0  0  0  0  0  0  0
   36.9750   27.3910   38.4690 C   0  0  0  0  0  0  0  0  0  0  0  0
   36.6180   26.0800   38.7450 C   0  0  0  0  0  0  0  0  0  0  0  0
   36.6600   25.7300   40.0850 C   0  0  0  0  0  0  0  0  0  0  0  0
   37.0170   26.5550   41.1200 C   0  0  0  0  0  0  0  0  0  0  0  0
   36.9710   27.7560   37.4440 H   0  0  0  0  0  0  0  0  0  0  0  0
   36.3280   25.3800   37.9730 H   0  0  0  0  0  0  0  0  0  0  0  0
   36.3870   24.7080   40.3400 H   0  0  0  0  0  0  0  0  0  0  0  0
   37.4350   31.9340   39.4610 C   0  0  0  0  0  0  0  0  0  0  0  0
   38.3980   32.1750   38.4480 C   0  0  0  0  0  0  0  0  0  0  0  0
   38.9970   31.0860   37.7950 C   0  0  0  0  0  0  0  0  0  0  0  0
   38.6100   29.8350   38.1810 N   0  0  0  0  0  0  0  0  0  0  0  0
   37.7070   29.6270   39.1310 C   0  0  0  0  0  0  0  0  0  0  0  0
   37.1350   30.6690   39.7540 N   0  0  0  0  0  0  0  0  0  0  0  0
   38.6380   33.2020   38.2120 H   0  0  0  0  0  0  0  0  0  0  0  0
   39.7260   31.2610   37.0290 H   0  0  0  0  0  0  0  0  0  0  0  0
   36.8320   33.0230   40.1160 N   0  0  0  0  0  0  0  0  0  0  0  0
   36.8400   32.8750   41.1650 H   0  0  0  0  0  0  0  0  0  0  0  0
   36.4040   33.9020   39.7370 H   0  0  0  0  0  0  0  0  0  0  0  0
   37.0320   26.0870   42.5220 C   0  0  0  0  0  0  0  0  0  0  0  0
   38.3590   26.0540   42.9390 F   0  0  0  0  0  0  0  0  0  0  0  0
   36.5710   24.7910   42.5750 F   0  0  0  0  0  0  0  0  0  0  0  0
   36.2570   26.9110   43.3080 F   0  0  0  0  0  0  0  0  0  0  0  0
  2  7  1  0  0  0  0
  2  1  1  0  0  0  0
  3  2  2  0  0  0  0
  4  5  2  0  0  0  0
  4  3  1  0  0  0  0
  5  6  1  0  0  0  0
  6 10  1  0  0  0  0
  6  7  2  0  0  0  0
  7 22  1  0  0  0  0
  8  4  1  0  0  0  0
  9  5  1  0  0  0  0
 11 16  1  0  0  0  0
 11 19  1  0  0  0  0
 12 11  2  0  0  0  0
 13 14  2  0  0  0  0
 13 12  1  0  0  0  0
 14 15  1  0  0  0  0
 15  3  1  0  0  0  0
 15 16  2  0  0  0  0
 17 12  1  0  0  0  0
 18 13  1  0  0  0  0
 19 20  1  0  0  0  0
 21 19  1  0  0  0  0
 22 24  1  0  0  0  0
 22 23  1  0  0  0  0
 22 25  1  0  0  0  0
M  END
>  <minimizedAffinity>
-5.05943537

$$$$

 OpenBabel03252506113D

 25 26  0  0  0  0  0  0  0  0999 V2000
   36.8260   26.9500   40.5250 F   0  0  0  0  0  0  0  0  0  0  0  0
   37.7890   27.1350   41.4290 C   0  0  0  0  0  0  0  0  0  0  0  0
   38.3710   28.3850   41.5700 C   0  0  0  0  0  0  0  0  0  0  0  0
   39.3740   28.6460   42.4880 C   0  0  0  0  0  0  0  0  0  0  0  0
   39.8420   27.6410   43.3200 C   0  0  0  0  0  0  0  0  0  0  0  0
   39.2350   26.4080   43.1480 C   0  0  0  0  0  0  0  0  0  0  0  0
   38.2410   26.1190   42.2500 C   0  0  0  0  0  0  0  0  0  0  0  0
   39.7920   29.6490   42.5520 H   0  0  0  0  0  0  0  0  0  0  0  0
   40.6230   27.8040   44.0500 H   0  0  0  0  0  0  0  0  0  0  0  0
   39.5770   25.5930   43.7840 H   0  0  0  0  0  0  0  0  0  0  0  0
   37.9810   30.5980   38.6460 C   0  0  0  0  0  0  0  0  0  0  0  0
   37.0770   31.5660   39.1530 C   0  0  0  0  0  0  0  0  0  0  0  0
   36.6170   31.4530   40.4730 C   0  0  0  0  0  0  0  0  0  0  0  0
   37.0740   30.3970   41.2070 N   0  0  0  0  0  0  0  0  0  0  0  0
   37.9200   29.4990   40.7180 C   0  0  0  0  0  0  0  0  0  0  0  0
   38.3600   29.6080   39.4540 N   0  0  0  0  0  0  0  0  0  0  0  0
   36.7730   32.3670   38.4930 H   0  0  0  0  0  0  0  0  0  0  0  0
   35.9330   32.1820   40.8630 H   0  0  0  0  0  0  0  0  0  0  0  0
   38.4460   30.7080   37.3220 N   0  0  0  0  0  0  0  0  0  0  0  0
   38.3730   29.7760   36.8250 H   0  0  0  0  0  0  0  0  0  0  0  0
   38.8270   31.5310   36.7960 H   0  0  0  0  0  0  0  0  0  0  0  0
   37.6540   24.7660   42.1410 C   0  0  0  0  0  0  0  0  0  0  0  0
   38.4510   23.9040   42.8860 F   0  0  0  0  0  0  0  0  0  0  0  0
   37.7290   24.3410   40.8350 F   0  0  0  0  0  0  0  0  0  0  0  0
   36.3470   24.7780   42.5750 F   0  0  0  0  0  0  0  0  0  0  0  0
  1  2  1  0  0  0  0
  2  3  2  0  0  0  0
  2  7  1  0  0  0  0
  3  4  1  0  0  0  0
  4  8  1  0  0  0  0
  4  5  2  0  0  0  0
  5  9  1  0  0  0  0
  6  5  1  0  0  0  0
  6 10  1  0  0  0  0
  7  6  2  0  0  0  0
 11 12  2  0  0  0  0
 11 16  1  0  0  0  0
 12 13  1  0  0  0  0
 13 18  1  0  0  0  0
 13 14  2  0  0  0  0
 15 14  1  0  0  0  0
 15  3  1  0  0  0  0
 16 15  2  0  0  0  0
 17 12  1  0  0  0  0
 19 11  1  0  0  0  0
 20 19  1  0  0  0  0
 21 19  1  0  0  0  0
 22  7  1  0  0  0  0
 22 25  1  0  0  0  0
 22 23  1  0  0  0  0
 24 22  1  0  0  0  0
M  END
>  <minimizedAffinity>
-5.04382324

$$$$

 OpenBabel03252506113D

 25 26  0  0  0  0  0  0  0  0999 V2000
   36.5560   26.7870   38.7270 F   0  0  0  0  0  0  0  0  0  0  0  0
   36.6690   25.9860   39.7860 C   0  0  0  0  0  0  0  0  0  0  0  0
   37.1010   26.5020   40.9980 C   0  0  0  0  0  0  0  0  0  0  0  0
   37.2410   25.7270   42.1360 C   0  0  0  0  0  0  0  0  0  0  0  0
   36.9440   24.3730   42.1040 C   0  0  0  0  0  0  0  0  0  0  0  0
   36.5160   23.8960   40.8750 C   0  0  0  0  0  0  0  0  0  0  0  0
   36.3670   24.6380   39.7320 C   0  0  0  0  0  0  0  0  0  0  0  0
   37.5850   26.1890   43.0590 H   0  0  0  0  0  0  0  0  0  0  0  0
   37.0400   23.7330   42.9700 H   0  0  0  0  0  0  0  0  0  0  0  0
   36.2740   22.8370   40.8100 H   0  0  0  0  0  0  0  0  0  0  0  0
   36.7080   30.1600   41.2480 C   0  0  0  0  0  0  0  0  0  0  0  0
   38.0620   30.5790   41.2990 C   0  0  0  0  0  0  0  0  0  0  0  0
   39.0830   29.6170   41.2470 C   0  0  0  0  0  0  0  0  0  0  0  0
   38.7040   28.3080   41.1500 N   0  0  0  0  0  0  0  0  0  0  0  0
   37.4330   27.9330   41.1030 C   0  0  0  0  0  0  0  0  0  0  0  0
   36.4570   28.8540   41.1520 N   0  0  0  0  0  0  0  0  0  0  0  0
   38.2600   31.6390   41.3750 H   0  0  0  0  0  0  0  0  0  0  0  0
   40.1080   29.9270   41.2850 H   0  0  0  0  0  0  0  0  0  0  0  0
   35.6820   31.1220   41.2990 N   0  0  0  0  0  0  0  0  0  0  0  0
   34.9400   30.8350   41.9980 H   0  0  0  0  0  0  0  0  0  0  0  0
   35.5590   32.0220   40.7760 H   0  0  0  0  0  0  0  0  0  0  0  0
   35.9020   24.0360   38.4650 C   0  0  0  0  0  0  0  0  0  0  0  0
   34.7090   24.6620   38.1180 F   0  0  0  0  0  0  0  0  0  0  0  0
   35.6040   22.7090   38.6730 F   0  0  0  0  0  0  0  0  0  0  0  0
   36.8660   24.1710   37.4900 F   0  0  0  0  0  0  0  0  0  0  0  0
  1  2  1  0  0  0  0
  2  3  1  0  0  0  0
  3 15  1  0  0  0  0
  3  4  2  0  0  0  0
  4  8  1  0  0  0  0
  5  4  1  0  0  0  0
  5  9  1  0  0  0  0
  6  5  2  0  0  0  0
  7  2  2  0  0  0  0
  7  6  1  0  0  0  0
 10  6  1  0  0  0  0
 11 12  1  0  0  0  0
 11 19  1  0  0  0  0
 12 17  1  0  0  0  0
 13 18  1  0  0  0  0
 13 12  2  0  0  0  0
 14 13  1  0  0  0  0
 15 14  2  0  0  0  0
 15 16  1  0  0  0  0
 16 11  2  0  0  0  0
 19 20  1  0  0  0  0
 21 19  1  0  0  0  0
 22 24  1  0  0  0  0
 22  7  1  0  0  0  0
 23 22  1  0  0  0  0
 25 22  1  0  0  0  0
M  END
>  <minimizedAffinity>
-5.03626394

$$$$

 OpenBabel03252506113D

 25 26  0  0  0  0  0  0  0  0999 V2000
   36.1870   27.2100   39.9640 F   0  0  0  0  0  0  0  0  0  0  0  0
   36.4420   28.4730   40.3060 C   0  0  0  0  0  0  0  0  0  0  0  0
   36.2860   29.4850   39.3720 C   0  0  0  0  0  0  0  0  0  0  0  0
   36.5330   30.8170   39.6600 C   0  0  0  0  0  0  0  0  0  0  0  0
   36.9560   31.1940   40.9250 C   0  0  0  0  0  0  0  0  0  0  0  0
   37.1000   30.1530   41.8290 C   0  0  0  0  0  0  0  0  0  0  0  0
   36.8630   28.8280   41.5740 C   0  0  0  0  0  0  0  0  0  0  0  0
   36.3930   31.5670   38.8840 H   0  0  0  0  0  0  0  0  0  0  0  0
   37.1600   32.2220   41.1900 H   0  0  0  0  0  0  0  0  0  0  0  0
   37.4310   30.4100   42.8340 H   0  0  0  0  0  0  0  0  0  0  0  0
   36.3700   28.7780   35.7530 C   0  0  0  0  0  0  0  0  0  0  0  0
   34.9960   28.5430   35.4880 C   0  0  0  0  0  0  0  0  0  0  0  0
   34.0680   28.6290   36.5370 C   0  0  0  0  0  0  0  0  0  0  0  0
   34.5500   28.9380   37.7760 N   0  0  0  0  0  0  0  0  0  0  0  0
   35.8390   29.1550   38.0080 C   0  0  0  0  0  0  0  0  0  0  0  0
   36.7260   29.0730   37.0030 N   0  0  0  0  0  0  0  0  0  0  0  0
   34.7120   28.3040   34.4730 H   0  0  0  0  0  0  0  0  0  0  0  0
   33.0280   28.4530   36.3430 H   0  0  0  0  0  0  0  0  0  0  0  0
   37.3030   28.6930   34.7040 N   0  0  0  0  0  0  0  0  0  0  0  0
   38.1380   28.1120   34.9980 H   0  0  0  0  0  0  0  0  0  0  0  0
   37.2870   29.0980   33.7370 H   0  0  0  0  0  0  0  0  0  0  0  0
   37.0450   27.7880   42.6080 C   0  0  0  0  0  0  0  0  0  0  0  0
   35.7840   27.4460   43.0860 F   0  0  0  0  0  0  0  0  0  0  0  0
   37.7370   28.3200   43.6720 F   0  0  0  0  0  0  0  0  0  0  0  0
   37.7170   26.7060   42.0830 F   0  0  0  0  0  0  0  0  0  0  0  0
  1  2  1  0  0  0  0
  2  7  1  0  0  0  0
  3  4  1  0  0  0  0
  3  2  2  0  0  0  0
  4  5  2  0  0  0  0
  5  9  1  0  0  0  0
  5  6  1  0  0  0  0
  6 10  1  0  0  0  0
  7  6  2  0  0  0  0
  7 22  1  0  0  0  0
  8  4  1  0  0  0  0
 11 16  1  0  0  0  0
 12 11  2  0  0  0  0
 12 13  1  0  0  0  0
 13 14  2  0  0  0  0
 14 15  1  0  0  0  0
 15  3  1  0  0  0  0
 16 15  2  0  0  0  0
 17 12  1  0  0  0  0
 18 13  1  0  0  0  0
 19 20  1  0  0  0  0
 19 11  1  0  0  0  0
 21 19  1  0  0  0  0
 22 23  1  0  0  0  0
 22 24  1  0  0  0  0
 25 22  1  0  0  0  0
M  END
>  <minimizedAffinity>
-5.0071249

$$$$

 OpenBabel03252506113D

 25 26  0  0  0  0  0  0  0  0999 V2000
   38.1220   27.2800   39.7410 F   0  0  0  0  0  0  0  0  0  0  0  0
   37.8410   27.5890   41.0070 C   0  0  0  0  0  0  0  0  0  0  0  0
   38.0570   28.8790   41.4660 C   0  0  0  0  0  0  0  0  0  0  0  0
   37.7880   29.2680   42.7670 C   0  0  0  0  0  0  0  0  0  0  0  0
   37.2780   28.3570   43.6790 C   0  0  0  0  0  0  0  0  0  0  0  0
   37.0770   27.0790   43.1820 C   0  0  0  0  0  0  0  0  0  0  0  0
   37.3330   26.6650   41.9010 C   0  0  0  0  0  0  0  0  0  0  0  0
   37.9790   30.2960   43.0680 H   0  0  0  0  0  0  0  0  0  0  0  0
   37.0540   28.6200   44.7040 H   0  0  0  0  0  0  0  0  0  0  0  0
   36.6780   26.3360   43.8700 H   0  0  0  0  0  0  0  0  0  0  0  0
   38.2190   31.7280   39.1290 C   0  0  0  0  0  0  0  0  0  0  0  0
   39.6090   31.7780   38.8530 C   0  0  0  0  0  0  0  0  0  0  0  0
   40.4660   30.8470   39.4610 C   0  0  0  0  0  0  0  0  0  0  0  0
   39.8990   29.9310   40.3000 N   0  0  0  0  0  0  0  0  0  0  0  0
   38.5970   29.8970   40.5480 C   0  0  0  0  0  0  0  0  0  0  0  0
   37.7780   30.7880   39.9660 N   0  0  0  0  0  0  0  0  0  0  0  0
   39.9620   32.5410   38.1730 H   0  0  0  0  0  0  0  0  0  0  0  0
   41.5170   30.8790   39.2560 H   0  0  0  0  0  0  0  0  0  0  0  0
   37.3570   32.6590   38.5210 N   0  0  0  0  0  0  0  0  0  0  0  0
   36.7010   33.0800   39.2380 H   0  0  0  0  0  0  0  0  0  0  0  0
   37.2800   32.9720   37.5240 H   0  0  0  0  0  0  0  0  0  0  0  0
   37.0840   25.2750   41.4640 C   0  0  0  0  0  0  0  0  0  0  0  0
   36.5660   24.5810   42.5530 F   0  0  0  0  0  0  0  0  0  0  0  0
   38.2810   24.6750   41.1490 F   0  0  0  0  0  0  0  0  0  0  0  0
   36.2320   25.2610   40.3820 F   0  0  0  0  0  0  0  0  0  0  0  0
  1  2  1  0  0  0  0
  2  3  2  0  0  0  0
  2  7  1  0  0  0  0
  3  4  1  0  0  0  0
  4  8  1  0  0  0  0
  4  5  2  0  0  0  0
  5  9  1  0  0  0  0
  6  5  1  0  0  0  0
  6 10  1  0  0  0  0
  7  6  2  0  0  0  0
 11 16  1  0  0  0  0
 12 11  2  0  0  0  0
 12 13  1  0  0  0  0
 13 14  2  0  0  0  0
 14 15  1  0  0  0  0
 15  3  1  0  0  0  0
 16 15  2  0  0  0  0
 17 12  1  0  0  0  0
 18 13  1  0  0  0  0
 19 11  1  0  0  0  0
 19 20  1  0  0  0  0
 21 19  1  0  0  0  0
 22  7  1  0  0  0  0
 22 23  1  0  0  0  0
 24 22  1  0  0  0  0
 25 22  1  0  0  0  0
M  END
>  <minimizedAffinity>
-4.98752737

$$$$
