
 OpenBabel03252502043D

 41 44  0  0  0  0  0  0  0  0999 V2000
   47.3700   32.0570   47.8710 C   0  0  0  0  0  0  0  0  0  0  0  0
   46.8870   30.7710   47.9010 C   0  0  0  0  0  0  0  0  0  0  0  0
   45.9450   30.4620   46.9790 C   0  0  0  0  0  0  0  0  0  0  0  0
   45.5440   31.3770   46.0940 N   0  0  0  0  0  0  0  0  0  0  0  0
   46.0190   32.6350   46.0400 C   0  0  0  0  0  0  0  0  0  0  0  0
   46.9410   32.9120   46.9870 N   0  0  0  0  0  0  0  0  0  0  0  0
   45.3290   29.2200   46.9390 N   0  0  0  0  0  0  0  0  0  0  0  0
   44.1140   28.8760   46.2020 C   0  0  0  0  0  0  0  0  0  0  0  0
   43.9860   27.3760   46.2780 C   0  0  0  0  0  0  0  0  0  0  0  0
   44.7100   27.0280   47.5390 C   0  0  0  0  0  0  0  0  0  0  0  0
   45.7890   28.0440   47.6570 C   0  0  0  0  0  0  0  0  0  0  0  0
   48.1280   32.3010   48.6370 H   0  0  0  0  0  0  0  0  0  0  0  0
   43.2550   29.4100   46.6390 H   0  0  0  0  0  0  0  0  0  0  0  0
   44.3150   29.1460   45.1400 H   0  0  0  0  0  0  0  0  0  0  0  0
   44.4240   26.8550   45.4030 H   0  0  0  0  0  0  0  0  0  0  0  0
   42.9140   27.0940   46.3510 H   0  0  0  0  0  0  0  0  0  0  0  0
   45.1110   25.9800   47.4300 H   0  0  0  0  0  0  0  0  0  0  0  0
   43.9770   26.9830   48.3450 H   0  0  0  0  0  0  0  0  0  0  0  0
   45.7930   28.2070   48.7800 H   0  0  0  0  0  0  0  0  0  0  0  0
   46.7290   27.6400   47.2760 H   0  0  0  0  0  0  0  0  0  0  0  0
   45.7480   33.7860   45.2200 C   0  0  0  0  0  0  0  0  0  0  0  0
   44.9040   34.7610   45.6270 N   0  0  0  0  0  0  0  0  0  0  0  0
   44.5600   35.8340   44.9050 C   0  0  0  0  0  0  0  0  0  0  0  0
   45.0820   35.9800   43.6610 N   0  0  0  0  0  0  0  0  0  0  0  0
   45.9240   35.0670   43.1760 C   0  0  0  0  0  0  0  0  0  0  0  0
   46.3650   35.1850   41.8780 C   0  0  0  0  0  0  0  0  0  0  0  0
   47.1500   34.1970   41.3350 C   0  0  0  0  0  0  0  0  0  0  0  0
   47.4740   33.1090   42.1370 C   0  0  0  0  0  0  0  0  0  0  0  0
   47.0230   33.0390   43.4110 C   0  0  0  0  0  0  0  0  0  0  0  0
   46.2420   33.9880   43.9670 C   0  0  0  0  0  0  0  0  0  0  0  0
   43.8810   36.4870   45.4080 H   0  0  0  0  0  0  0  0  0  0  0  0
   46.0600   36.0780   41.3380 H   0  0  0  0  0  0  0  0  0  0  0  0
   47.4280   34.4000   40.3080 H   0  0  0  0  0  0  0  0  0  0  0  0
   48.0950   32.4600   41.5030 H   0  0  0  0  0  0  0  0  0  0  0  0
   47.5800   31.8020   44.0030 C   0  0  0  0  0  0  0  0  0  0  0  0
   48.0010   30.8360   43.1730 F   0  0  0  0  0  0  0  0  0  0  0  0
   47.9390   31.8780   45.3060 F   0  0  0  0  0  0  0  0  0  0  0  0
   46.5150   30.9460   44.4150 F   0  0  0  0  0  0  0  0  0  0  0  0
   47.4660   29.8180   48.7440 N   0  0  0  0  0  0  0  0  0  0  0  0
   47.1370   29.9460   49.7410 H   0  0  0  0  0  0  0  0  0  0  0  0
   48.1320   29.0210   48.6470 H   0  0  0  0  0  0  0  0  0  0  0  0
  1  2  1  0  0  0  0
  1 12  1  0  0  0  0
  2 39  1  0  0  0  0
  3  2  2  0  0  0  0
  4  3  1  0  0  0  0
  5  4  2  0  0  0  0
  5  6  1  0  0  0  0
  6  1  2  0  0  0  0
  7  3  1  0  0  0  0
  7 11  1  0  0  0  0
  8  9  1  0  0  0  0
  8 13  1  0  0  0  0
  8  7  1  0  0  0  0
  9 16  1  0  0  0  0
  9 10  1  0  0  0  0
 10 11  1  0  0  0  0
 10 18  1  0  0  0  0
 11 19  1  0  0  0  0
 14  8  1  0  0  0  0
 15  9  1  0  0  0  0
 17 10  1  0  0  0  0
 20 11  1  0  0  0  0
 21 22  1  0  0  0  0
 21  5  1  0  0  0  0
 23 31  1  0  0  0  0
 23 22  2  0  0  0  0
 24 23  1  0  0  0  0
 25 24  2  0  0  0  0
 25 30  1  0  0  0  0
 26 25  1  0  0  0  0
 27 26  2  0  0  0  0
 27 28  1  0  0  0  0
 28 29  2  0  0  0  0
 29 30  1  0  0  0  0
 29 35  1  0  0  0  0
 30 21  2  0  0  0  0
 32 26  1  0  0  0  0
 33 27  1  0  0  0  0
 34 28  1  0  0  0  0
 35 38  1  0  0  0  0
 35 37  1  0  0  0  0
 36 35  1  0  0  0  0
 39 40  1  0  0  0  0
 41 39  1  0  0  0  0
M  END
>  <minimizedAffinity>
-6.34901428

>  <minimizedRMSD>
0.577029705

$$$$
