
 OpenBabel03242518273D

 40 43  0  0  1  0  0  0  0  0999 V2000
   35.4580   28.8340   40.5630 C   0  0  0  0  0  0  0  0  0  0  0  0
   36.2870   27.7140   40.4710 C   0  0  0  0  0  0  0  0  0  0  0  0
   36.2810   27.0330   39.2680 C   0  0  0  0  0  0  0  0  0  0  0  0
   35.5030   27.4460   38.2380 N   0  0  0  0  0  0  0  0  0  0  0  0
   34.7180   28.5310   38.3630 C   0  0  0  0  0  0  0  0  0  0  0  0
   34.6890   29.2340   39.5240 N   0  0  0  0  0  0  0  0  0  0  0  0
   35.4150   29.4120   41.4750 H   0  0  0  0  0  0  0  0  0  0  0  0
   36.9230   26.1660   39.2010 H   0  0  0  0  0  0  0  0  0  0  0  0
   37.0400   27.3930   41.6110 N   0  0  0  0  0  0  0  0  0  0  0  0
   38.3970   26.9550   41.3970 C   0  0  0  0  0  0  0  0  0  0  0  0
   39.1010   26.5180   42.6280 C   0  0  0  0  0  0  0  0  0  0  0  0
   38.9410   27.4490   43.7070 N   0  0  0  0  0  0  0  0  0  0  0  0
   37.6990   28.1020   43.8300 C   0  0  0  0  0  0  0  0  0  0  0  0
   36.6400   27.4420   42.9790 C   0  0  0  0  0  0  0  0  0  0  0  0
   38.3750   26.1470   40.6490 H   0  0  0  0  0  0  0  0  0  0  0  0
   38.9760   27.7950   40.9350 H   0  0  0  0  0  0  0  0  0  0  0  0
   40.1730   26.4060   42.4000 H   0  0  0  0  0  0  0  0  0  0  0  0
   38.7330   25.4980   42.9050 H   0  0  0  0  0  0  0  0  0  0  0  0
   39.2120   26.9430   44.5950 H   0  0  0  0  0  0  0  0  0  0  0  0
   37.3400   28.1990   44.8720 H   0  0  0  0  0  0  0  0  0  0  0  0
   37.7930   29.1590   43.4600 H   0  0  0  0  0  0  0  0  0  0  0  0
   36.5550   26.3840   43.3360 H   0  0  0  0  0  0  0  0  0  0  0  0
   35.6490   27.9140   43.1430 H   0  0  0  0  0  0  0  0  0  0  0  0
   34.4100   29.0280   35.9830 C   0  0  0  0  0  0  0  0  0  0  0  0
   33.8780   28.9710   37.2420 C   0  0  0  0  0  0  0  0  0  0  0  0
   32.5650   29.3300   37.4140 C   0  0  0  0  0  0  0  0  0  0  0  0
   31.8050   29.7390   36.3340 C   0  0  0  0  0  0  0  0  0  0  0  0
   32.3550   29.7930   35.0590 C   0  0  0  0  0  0  0  0  0  0  0  0
   33.6760   29.4330   34.8720 C   0  0  0  0  0  0  0  0  0  0  0  0
   31.3580   30.2350   34.1900 O   0  0  0  0  0  0  0  0  0  0  0  0
   30.2880   30.7320   34.9600 C   0  0  1  0  0  0  0  0  0  0  0  0
   30.4730   30.1520   36.2260 O   0  0  0  0  0  0  0  0  0  0  0  0
   35.4560   28.7380   35.8660 H   0  0  0  0  0  0  0  0  0  0  0  0
   32.1070   29.2970   38.4100 H   0  0  0  0  0  0  0  0  0  0  0  0
   34.1360   29.4610   33.9080 H   0  0  0  0  0  0  0  0  0  0  0  0
   29.3070   30.4430   34.5600 H   0  0  0  0  0  0  0  0  0  0  0  0
   30.4410   32.2460   35.0060 C   0  0  0  0  0  0  0  0  0  0  0  0
   30.4810   32.6430   36.3300 F   0  0  0  0  0  0  0  0  0  0  0  0
   31.6020   32.6130   34.3940 F   0  0  0  0  0  0  0  0  0  0  0  0
   29.3520   32.7640   34.3460 F   0  0  0  0  0  0  0  0  0  0  0  0
  1  7  1  0  0  0  0
  2  1  1  0  0  0  0
  2  9  1  0  0  0  0
  3  2  2  0  0  0  0
  4  5  2  0  0  0  0
  4  3  1  0  0  0  0
  5  6  1  0  0  0  0
  6  1  2  0  0  0  0
  8  3  1  0  0  0  0
  9 14  1  0  0  0  0
 10  9  1  0  0  0  0
 10 11  1  0  0  0  0
 11 18  1  0  0  0  0
 11 12  1  0  0  0  0
 12 13  1  0  0  0  0
 12 19  1  0  0  0  0
 13 20  1  0  0  0  0
 14 23  1  0  0  0  0
 14 22  1  0  0  0  0
 14 13  1  0  0  0  0
 15 10  1  0  0  0  0
 16 10  1  0  0  0  0
 17 11  1  0  0  0  0
 21 13  1  0  0  0  0
 24 25  1  0  0  0  0
 25 26  2  0  0  0  0
 25  5  1  0  0  0  0
 26 34  1  0  0  0  0
 27 26  1  0  0  0  0
 28 27  2  0  0  0  0
 29 28  1  0  0  0  0
 29 24  2  0  0  0  0
 30 31  1  0  0  0  0
 30 28  1  0  0  0  0
 31 36  1  6  0  0  0
 31 37  1  0  0  0  0
 31 32  1  0  0  0  0
 32 27  1  0  0  0  0
 33 24  1  0  0  0  0
 35 29  1  0  0  0  0
 37 38  1  0  0  0  0
 39 37  1  0  0  0  0
 40 37  1  0  0  0  0
M  END
>  <minimizedAffinity>
-5.92708921

$$$$

 OpenBabel03242518273D

 40 43  0  0  1  0  0  0  0  0999 V2000
   41.7020   30.8900   39.8510 C   0  0  0  0  0  0  0  0  0  0  0  0
   41.2960   32.1960   40.1270 C   0  0  0  0  0  0  0  0  0  0  0  0
   40.1180   32.3450   40.8370 C   0  0  0  0  0  0  0  0  0  0  0  0
   39.4070   31.2630   41.2380 N   0  0  0  0  0  0  0  0  0  0  0  0
   39.8310   30.0190   40.9550 C   0  0  0  0  0  0  0  0  0  0  0  0
   40.9800   29.8210   40.2610 N   0  0  0  0  0  0  0  0  0  0  0  0
   42.6130   30.7020   39.3000 H   0  0  0  0  0  0  0  0  0  0  0  0
   39.8070   33.3580   41.0480 H   0  0  0  0  0  0  0  0  0  0  0  0
   42.1230   33.2260   39.6530 N   0  0  0  0  0  0  0  0  0  0  0  0
   43.5440   32.9770   39.6510 C   0  0  0  0  0  0  0  0  0  0  0  0
   44.3700   34.1430   39.2520 C   0  0  0  0  0  0  0  0  0  0  0  0
   43.8780   34.7790   38.0650 N   0  0  0  0  0  0  0  0  0  0  0  0
   42.4820   34.8420   37.8870 C   0  0  0  0  0  0  0  0  0  0  0  0
   41.7450   34.5110   39.1630 C   0  0  0  0  0  0  0  0  0  0  0  0
   43.8230   32.6210   40.6550 H   0  0  0  0  0  0  0  0  0  0  0  0
   43.7580   32.1320   38.9480 H   0  0  0  0  0  0  0  0  0  0  0  0
   45.4030   33.8000   39.0800 H   0  0  0  0  0  0  0  0  0  0  0  0
   44.4170   34.8560   40.1130 H   0  0  0  0  0  0  0  0  0  0  0  0
   44.3270   35.7350   38.0170 H   0  0  0  0  0  0  0  0  0  0  0  0
   42.1200   35.8070   37.4820 H   0  0  0  0  0  0  0  0  0  0  0  0
   42.1650   34.0770   37.1270 H   0  0  0  0  0  0  0  0  0  0  0  0
   42.0700   35.2640   39.9250 H   0  0  0  0  0  0  0  0  0  0  0  0
   40.6500   34.6400   39.0330 H   0  0  0  0  0  0  0  0  0  0  0  0
   38.7800   28.6870   42.7240 C   0  0  0  0  0  0  0  0  0  0  0  0
   39.0540   28.8540   41.3940 C   0  0  0  0  0  0  0  0  0  0  0  0
   38.5860   27.9160   40.5090 C   0  0  0  0  0  0  0  0  0  0  0  0
   37.8560   26.8310   40.9590 C   0  0  0  0  0  0  0  0  0  0  0  0
   37.5830   26.6730   42.3120 C   0  0  0  0  0  0  0  0  0  0  0  0
   38.0490   27.6100   43.2150 C   0  0  0  0  0  0  0  0  0  0  0  0
   36.8390   25.5020   42.4570 O   0  0  0  0  0  0  0  0  0  0  0  0
   36.8990   24.7870   41.2440 C   0  0  1  0  0  0  0  0  0  0  0  0
   37.2710   25.7500   40.2910 O   0  0  0  0  0  0  0  0  0  0  0  0
   39.1600   29.4440   43.4140 H   0  0  0  0  0  0  0  0  0  0  0  0
   38.7870   28.0180   39.4350 H   0  0  0  0  0  0  0  0  0  0  0  0
   37.8610   27.5240   44.2640 H   0  0  0  0  0  0  0  0  0  0  0  0
   35.9340   24.3430   40.9640 H   0  0  0  0  0  0  0  0  0  0  0  0
   37.9700   23.7180   41.4130 C   0  0  0  0  0  0  0  0  0  0  0  0
   39.0570   24.0570   40.6270 F   0  0  0  0  0  0  0  0  0  0  0  0
   38.3630   23.6590   42.7170 F   0  0  0  0  0  0  0  0  0  0  0  0
   37.3990   22.5330   41.0170 F   0  0  0  0  0  0  0  0  0  0  0  0
  1  2  2  0  0  0  0
  1  6  1  0  0  0  0
  2  3  1  0  0  0  0
  3  8  1  0  0  0  0
  3  4  2  0  0  0  0
  5  4  1  0  0  0  0
  5 25  1  0  0  0  0
  6  5  2  0  0  0  0
  7  1  1  0  0  0  0
  9  2  1  0  0  0  0
 10  9  1  0  0  0  0
 10 15  1  0  0  0  0
 11 10  1  0  0  0  0
 11 18  1  0  0  0  0
 12 11  1  0  0  0  0
 13 12  1  0  0  0  0
 13 14  1  0  0  0  0
 14  9  1  0  0  0  0
 14 22  1  0  0  0  0
 16 10  1  0  0  0  0
 17 11  1  0  0  0  0
 19 12  1  0  0  0  0
 20 13  1  0  0  0  0
 21 13  1  0  0  0  0
 23 14  1  0  0  0  0
 24 29  1  0  0  0  0
 24 33  1  0  0  0  0
 25 24  2  0  0  0  0
 26 27  2  0  0  0  0
 26 25  1  0  0  0  0
 27 28  1  0  0  0  0
 28 30  1  0  0  0  0
 28 29  2  0  0  0  0
 29 35  1  0  0  0  0
 31 36  1  6  0  0  0
 31 37  1  0  0  0  0
 31 30  1  0  0  0  0
 32 27  1  0  0  0  0
 32 31  1  0  0  0  0
 34 26  1  0  0  0  0
 37 39  1  0  0  0  0
 38 37  1  0  0  0  0
 40 37  1  0  0  0  0
M  END
>  <minimizedAffinity>
-5.50946426

$$$$

 OpenBabel03242518273D

 40 43  0  0  1  0  0  0  0  0999 V2000
   37.8020   28.3680   39.7550 C   0  0  0  0  0  0  0  0  0  0  0  0
   37.3440   28.4470   41.0710 C   0  0  0  0  0  0  0  0  0  0  0  0
   35.9950   28.6970   41.2460 C   0  0  0  0  0  0  0  0  0  0  0  0
   35.1730   28.8550   40.1810 N   0  0  0  0  0  0  0  0  0  0  0  0
   35.6510   28.7710   38.9270 C   0  0  0  0  0  0  0  0  0  0  0  0
   36.9660   28.5270   38.7020 N   0  0  0  0  0  0  0  0  0  0  0  0
   38.8450   28.1750   39.5470 H   0  0  0  0  0  0  0  0  0  0  0  0
   35.6450   28.7580   42.2670 H   0  0  0  0  0  0  0  0  0  0  0  0
   38.3000   28.2660   42.0830 N   0  0  0  0  0  0  0  0  0  0  0  0
   38.4410   26.9350   42.6210 C   0  0  0  0  0  0  0  0  0  0  0  0
   39.3790   26.8330   43.7650 C   0  0  0  0  0  0  0  0  0  0  0  0
   40.6200   27.5060   43.5130 N   0  0  0  0  0  0  0  0  0  0  0  0
   40.5770   28.7040   42.7750 C   0  0  0  0  0  0  0  0  0  0  0  0
   39.1680   29.2360   42.6640 C   0  0  0  0  0  0  0  0  0  0  0  0
   37.4370   26.5790   42.9010 H   0  0  0  0  0  0  0  0  0  0  0  0
   38.7980   26.2560   41.8050 H   0  0  0  0  0  0  0  0  0  0  0  0
   39.5760   25.7670   43.9640 H   0  0  0  0  0  0  0  0  0  0  0  0
   38.8710   27.2320   44.6780 H   0  0  0  0  0  0  0  0  0  0  0  0
   41.0980   27.6340   44.4480 H   0  0  0  0  0  0  0  0  0  0  0  0
   41.2510   29.4960   43.1560 H   0  0  0  0  0  0  0  0  0  0  0  0
   40.9290   28.5110   41.7250 H   0  0  0  0  0  0  0  0  0  0  0  0
   38.8100   29.4160   43.7090 H   0  0  0  0  0  0  0  0  0  0  0  0
   39.1550   30.2190   42.1490 H   0  0  0  0  0  0  0  0  0  0  0  0
   35.2740   28.9860   36.5150 C   0  0  0  0  0  0  0  0  0  0  0  0
   34.7520   28.9430   37.7780 C   0  0  0  0  0  0  0  0  0  0  0  0
   33.3940   29.0630   37.9290 C   0  0  0  0  0  0  0  0  0  0  0  0
   32.5780   29.2240   36.8240 C   0  0  0  0  0  0  0  0  0  0  0  0
   33.1190   29.2650   35.5450 C   0  0  0  0  0  0  0  0  0  0  0  0
   34.4860   29.1450   35.3780 C   0  0  0  0  0  0  0  0  0  0  0  0
   32.0640   29.4320   34.6480 O   0  0  0  0  0  0  0  0  0  0  0  0
   30.9130   29.7860   35.3800 C   0  0  1  0  0  0  0  0  0  0  0  0
   31.1930   29.3680   36.6910 O   0  0  0  0  0  0  0  0  0  0  0  0
   36.3560   28.8880   36.4140 H   0  0  0  0  0  0  0  0  0  0  0  0
   32.9420   29.0340   38.9290 H   0  0  0  0  0  0  0  0  0  0  0  0
   34.9400   29.1720   34.4110 H   0  0  0  0  0  0  0  0  0  0  0  0
   30.0070   29.2830   35.0160 H   0  0  0  0  0  0  0  0  0  0  0  0
   30.7780   31.3000   35.2880 C   0  0  0  0  0  0  0  0  0  0  0  0
   29.5140   31.6000   34.8130 F   0  0  0  0  0  0  0  0  0  0  0  0
   30.9340   31.8540   36.5240 F   0  0  0  0  0  0  0  0  0  0  0  0
   31.7650   31.7240   34.4310 F   0  0  0  0  0  0  0  0  0  0  0  0
  1  2  1  0  0  0  0
  2  3  2  0  0  0  0
  2  9  1  0  0  0  0
  3  8  1  0  0  0  0
  4  3  1  0  0  0  0
  5  4  2  0  0  0  0
  6  5  1  0  0  0  0
  6  1  2  0  0  0  0
  7  1  1  0  0  0  0
  9 10  1  0  0  0  0
  9 14  1  0  0  0  0
 10 15  1  0  0  0  0
 10 11  1  0  0  0  0
 11 17  1  0  0  0  0
 11 18  1  0  0  0  0
 12 11  1  0  0  0  0
 12 19  1  0  0  0  0
 13 20  1  0  0  0  0
 13 12  1  0  0  0  0
 14 13  1  0  0  0  0
 14 22  1  0  0  0  0
 16 10  1  0  0  0  0
 21 13  1  0  0  0  0
 23 14  1  0  0  0  0
 24 25  1  0  0  0  0
 25 26  2  0  0  0  0
 25  5  1  0  0  0  0
 26 34  1  0  0  0  0
 27 26  1  0  0  0  0
 28 27  2  0  0  0  0
 29 28  1  0  0  0  0
 29 24  2  0  0  0  0
 30 31  1  0  0  0  0
 30 28  1  0  0  0  0
 31 36  1  6  0  0  0
 31 32  1  0  0  0  0
 32 27  1  0  0  0  0
 33 24  1  0  0  0  0
 35 29  1  0  0  0  0
 37 31  1  0  0  0  0
 37 39  1  0  0  0  0
 38 37  1  0  0  0  0
 40 37  1  0  0  0  0
M  END
>  <minimizedAffinity>
-5.49045181

$$$$

 OpenBabel03242518273D

 40 43  0  0  1  0  0  0  0  0999 V2000
   40.6080   30.8640   41.1220 C   0  0  0  0  0  0  0  0  0  0  0  0
   39.8300   32.0020   40.9140 C   0  0  0  0  0  0  0  0  0  0  0  0
   38.4600   31.8210   40.8700 C   0  0  0  0  0  0  0  0  0  0  0  0
   37.9170   30.5890   41.0260 N   0  0  0  0  0  0  0  0  0  0  0  0
   38.6990   29.5140   41.2260 C   0  0  0  0  0  0  0  0  0  0  0  0
   40.0490   29.6400   41.2770 N   0  0  0  0  0  0  0  0  0  0  0  0
   41.6860   30.9350   41.1680 H   0  0  0  0  0  0  0  0  0  0  0  0
   37.8600   32.7050   40.7080 H   0  0  0  0  0  0  0  0  0  0  0  0
   40.5180   33.2170   40.7670 N   0  0  0  0  0  0  0  0  0  0  0  0
   41.9410   33.1960   40.9970 C   0  0  0  0  0  0  0  0  0  0  0  0
   42.5910   34.5290   40.9440 C   0  0  0  0  0  0  0  0  0  0  0  0
   42.1870   35.2860   39.7950 N   0  0  0  0  0  0  0  0  0  0  0  0
   40.8500   35.1640   39.3670 C   0  0  0  0  0  0  0  0  0  0  0  0
   39.9920   34.4960   40.4150 C   0  0  0  0  0  0  0  0  0  0  0  0
   42.1170   32.7110   41.9700 H   0  0  0  0  0  0  0  0  0  0  0  0
   42.4190   32.5360   40.2280 H   0  0  0  0  0  0  0  0  0  0  0  0
   43.6830   34.3870   40.9210 H   0  0  0  0  0  0  0  0  0  0  0  0
   42.3670   35.0710   41.8970 H   0  0  0  0  0  0  0  0  0  0  0  0
   42.4530   36.2930   39.9800 H   0  0  0  0  0  0  0  0  0  0  0  0
   40.3870   36.1180   39.0520 H   0  0  0  0  0  0  0  0  0  0  0  0
   40.8070   34.5100   38.4550 H   0  0  0  0  0  0  0  0  0  0  0  0
   40.0450   35.1380   41.3310 H   0  0  0  0  0  0  0  0  0  0  0  0
   38.9280   34.4750   40.1010 H   0  0  0  0  0  0  0  0  0  0  0  0
   37.9820   27.6500   42.6470 C   0  0  0  0  0  0  0  0  0  0  0  0
   38.1020   28.1830   41.3930 C   0  0  0  0  0  0  0  0  0  0  0  0
   37.6530   27.4480   40.3250 C   0  0  0  0  0  0  0  0  0  0  0  0
   37.0950   26.1980   40.5210 C   0  0  0  0  0  0  0  0  0  0  0  0
   36.9780   25.6660   41.7990 C   0  0  0  0  0  0  0  0  0  0  0  0
   37.4250   26.3970   42.8840 C   0  0  0  0  0  0  0  0  0  0  0  0
   36.3840   24.4100   41.6790 O   0  0  0  0  0  0  0  0  0  0  0  0
   36.4020   24.0410   40.3200 C   0  0  1  0  0  0  0  0  0  0  0  0
   36.5700   25.2540   39.6320 O   0  0  0  0  0  0  0  0  0  0  0  0
   38.3440   28.2500   43.4850 H   0  0  0  0  0  0  0  0  0  0  0  0
   37.7340   27.8450   39.3050 H   0  0  0  0  0  0  0  0  0  0  0  0
   37.3530   26.0230   43.8830 H   0  0  0  0  0  0  0  0  0  0  0  0
   35.4680   23.5590   39.9990 H   0  0  0  0  0  0  0  0  0  0  0  0
   37.5950   23.1150   40.1280 C   0  0  0  0  0  0  0  0  0  0  0  0
   38.4510   23.6880   39.2040 F   0  0  0  0  0  0  0  0  0  0  0  0
   38.2540   22.9580   41.3110 F   0  0  0  0  0  0  0  0  0  0  0  0
   37.0870   21.9180   39.6850 F   0  0  0  0  0  0  0  0  0  0  0  0
  1  7  1  0  0  0  0
  1  6  1  0  0  0  0
  2  1  2  0  0  0  0
  3  2  1  0  0  0  0
  3  4  2  0  0  0  0
  4  5  1  0  0  0  0
  5  6  2  0  0  0  0
  5 25  1  0  0  0  0
  8  3  1  0  0  0  0
  9  2  1  0  0  0  0
  9 10  1  0  0  0  0
 10 15  1  0  0  0  0
 11 10  1  0  0  0  0
 11 18  1  0  0  0  0
 12 19  1  0  0  0  0
 12 11  1  0  0  0  0
 13 12  1  0  0  0  0
 13 14  1  0  0  0  0
 14  9  1  0  0  0  0
 14 22  1  0  0  0  0
 16 10  1  0  0  0  0
 17 11  1  0  0  0  0
 20 13  1  0  0  0  0
 21 13  1  0  0  0  0
 23 14  1  0  0  0  0
 24 29  1  0  0  0  0
 24 33  1  0  0  0  0
 25 24  2  0  0  0  0
 26 27  2  0  0  0  0
 26 25  1  0  0  0  0
 27 28  1  0  0  0  0
 28 29  2  0  0  0  0
 29 35  1  0  0  0  0
 30 28  1  0  0  0  0
 31 36  1  6  0  0  0
 31 30  1  0  0  0  0
 32 31  1  0  0  0  0
 32 27  1  0  0  0  0
 34 26  1  0  0  0  0
 37 31  1  0  0  0  0
 37 39  1  0  0  0  0
 38 37  1  0  0  0  0
 40 37  1  0  0  0  0
M  END
>  <minimizedAffinity>
-5.47326946

$$$$

 OpenBabel03242518273D

 40 43  0  0  1  0  0  0  0  0999 V2000
   33.3070   29.2200   35.2260 C   0  0  0  0  0  0  0  0  0  0  0  0
   32.0550   29.6040   35.7080 C   0  0  0  0  0  0  0  0  0  0  0  0
   31.8580   29.5120   37.0730 C   0  0  0  0  0  0  0  0  0  0  0  0
   32.8450   29.0680   37.8890 N   0  0  0  0  0  0  0  0  0  0  0  0
   34.0400   28.7080   37.3890 C   0  0  0  0  0  0  0  0  0  0  0  0
   34.2820   28.7800   36.0560 N   0  0  0  0  0  0  0  0  0  0  0  0
   33.5280   29.2680   34.1690 H   0  0  0  0  0  0  0  0  0  0  0  0
   30.8870   29.8100   37.4410 H   0  0  0  0  0  0  0  0  0  0  0  0
   31.1220   30.0430   34.7550 N   0  0  0  0  0  0  0  0  0  0  0  0
   31.2240   31.4150   34.3220 C   0  0  0  0  0  0  0  0  0  0  0  0
   30.1410   31.8520   33.4070 C   0  0  0  0  0  0  0  0  0  0  0  0
   29.9090   30.9110   32.3500 N   0  0  0  0  0  0  0  0  0  0  0  0
   30.0320   29.5410   32.6530 C   0  0  0  0  0  0  0  0  0  0  0  0
   30.0660   29.3050   34.1450 C   0  0  0  0  0  0  0  0  0  0  0  0
   31.2590   32.0490   35.2220 H   0  0  0  0  0  0  0  0  0  0  0  0
   32.2070   31.5550   33.8020 H   0  0  0  0  0  0  0  0  0  0  0  0
   30.4170   32.8260   32.9740 H   0  0  0  0  0  0  0  0  0  0  0  0
   29.2160   32.0300   34.0120 H   0  0  0  0  0  0  0  0  0  0  0  0
   28.9650   31.1420   31.9330 H   0  0  0  0  0  0  0  0  0  0  0  0
   29.2570   28.9030   32.1870 H   0  0  0  0  0  0  0  0  0  0  0  0
   31.0040   29.1530   32.2460 H   0  0  0  0  0  0  0  0  0  0  0  0
   29.1030   29.7050   34.5540 H   0  0  0  0  0  0  0  0  0  0  0  0
   30.0840   28.2200   34.3730 H   0  0  0  0  0  0  0  0  0  0  0  0
   35.7260   27.0420   38.0100 C   0  0  0  0  0  0  0  0  0  0  0  0
   35.1020   28.2290   38.2820 C   0  0  0  0  0  0  0  0  0  0  0  0
   35.4970   28.9370   39.3880 C   0  0  0  0  0  0  0  0  0  0  0  0
   36.5030   28.4540   40.2060 C   0  0  0  0  0  0  0  0  0  0  0  0
   37.1300   27.2480   39.9210 C   0  0  0  0  0  0  0  0  0  0  0  0
   36.7420   26.5240   38.8080 C   0  0  0  0  0  0  0  0  0  0  0  0
   38.0890   27.0280   40.9100 O   0  0  0  0  0  0  0  0  0  0  0  0
   37.8580   27.9400   41.9590 C   0  0  1  0  0  0  0  0  0  0  0  0
   37.0890   28.9580   41.3720 O   0  0  0  0  0  0  0  0  0  0  0  0
   35.3990   26.4930   37.1250 H   0  0  0  0  0  0  0  0  0  0  0  0
   35.0180   29.8920   39.6360 H   0  0  0  0  0  0  0  0  0  0  0  0
   37.2000   25.5920   38.5550 H   0  0  0  0  0  0  0  0  0  0  0  0
   38.7860   28.3640   42.3640 H   0  0  0  0  0  0  0  0  0  0  0  0
   37.0790   27.1930   43.0320 C   0  0  0  0  0  0  0  0  0  0  0  0
   35.7970   27.7130   43.0860 F   0  0  0  0  0  0  0  0  0  0  0  0
   37.0100   25.8680   42.7160 F   0  0  0  0  0  0  0  0  0  0  0  0
   37.7620   27.3840   44.2090 F   0  0  0  0  0  0  0  0  0  0  0  0
  1  2  2  0  0  0  0
  1  6  1  0  0  0  0
  2  3  1  0  0  0  0
  3  8  1  0  0  0  0
  3  4  2  0  0  0  0
  5  4  1  0  0  0  0
  5 25  1  0  0  0  0
  6  5  2  0  0  0  0
  7  1  1  0  0  0  0
  9  2  1  0  0  0  0
 10  9  1  0  0  0  0
 10 15  1  0  0  0  0
 11 18  1  0  0  0  0
 11 10  1  0  0  0  0
 12 13  1  0  0  0  0
 12 11  1  0  0  0  0
 13 14  1  0  0  0  0
 14 23  1  0  0  0  0
 14 22  1  0  0  0  0
 14  9  1  0  0  0  0
 16 10  1  0  0  0  0
 17 11  1  0  0  0  0
 19 12  1  0  0  0  0
 20 13  1  0  0  0  0
 21 13  1  0  0  0  0
 24 25  2  0  0  0  0
 24 29  1  0  0  0  0
 25 26  1  0  0  0  0
 26 34  1  0  0  0  0
 26 27  2  0  0  0  0
 27 32  1  0  0  0  0
 28 27  1  0  0  0  0
 28 30  1  0  0  0  0
 29 28  2  0  0  0  0
 30 31  1  0  0  0  0
 31 36  1  1  0  0  0
 31 37  1  0  0  0  0
 32 31  1  0  0  0  0
 33 24  1  0  0  0  0
 35 29  1  0  0  0  0
 37 38  1  0  0  0  0
 37 40  1  0  0  0  0
 39 37  1  0  0  0  0
M  END
>  <minimizedAffinity>
-5.34870052

$$$$

 OpenBabel03242518273D

 40 43  0  0  1  0  0  0  0  0999 V2000
   35.3120   27.7490   38.0940 C   0  0  0  0  0  0  0  0  0  0  0  0
   34.3310   28.7190   38.3050 C   0  0  0  0  0  0  0  0  0  0  0  0
   34.2880   29.2970   39.5610 C   0  0  0  0  0  0  0  0  0  0  0  0
   35.1640   28.9280   40.5260 N   0  0  0  0  0  0  0  0  0  0  0  0
   36.0960   27.9890   40.2850 C   0  0  0  0  0  0  0  0  0  0  0  0
   36.1790   27.3930   39.0690 N   0  0  0  0  0  0  0  0  0  0  0  0
   35.4010   27.2580   37.1350 H   0  0  0  0  0  0  0  0  0  0  0  0
   33.5270   30.0480   39.7200 H   0  0  0  0  0  0  0  0  0  0  0  0
   33.4870   29.0080   37.2210 N   0  0  0  0  0  0  0  0  0  0  0  0
   34.0620   28.9190   35.9010 C   0  0  0  0  0  0  0  0  0  0  0  0
   33.1560   29.3500   34.8080 C   0  0  0  0  0  0  0  0  0  0  0  0
   31.8480   28.7740   34.9260 N   0  0  0  0  0  0  0  0  0  0  0  0
   31.3190   28.6090   36.2210 C   0  0  0  0  0  0  0  0  0  0  0  0
   32.1120   29.3850   37.2460 C   0  0  0  0  0  0  0  0  0  0  0  0
   34.9900   29.5110   35.8990 H   0  0  0  0  0  0  0  0  0  0  0  0
   34.3660   27.8580   35.7140 H   0  0  0  0  0  0  0  0  0  0  0  0
   33.6000   29.0520   33.8450 H   0  0  0  0  0  0  0  0  0  0  0  0
   33.1160   30.4680   34.8000 H   0  0  0  0  0  0  0  0  0  0  0  0
   31.2040   29.3390   34.3050 H   0  0  0  0  0  0  0  0  0  0  0  0
   30.2440   28.8590   36.3070 H   0  0  0  0  0  0  0  0  0  0  0  0
   31.3860   27.5270   36.5180 H   0  0  0  0  0  0  0  0  0  0  0  0
   32.0590   30.4620   36.9440 H   0  0  0  0  0  0  0  0  0  0  0  0
   31.6420   29.3110   38.2490 H   0  0  0  0  0  0  0  0  0  0  0  0
   37.2340   28.4190   42.4130 C   0  0  0  0  0  0  0  0  0  0  0  0
   37.0410   27.5960   41.3380 C   0  0  0  0  0  0  0  0  0  0  0  0
   37.7430   26.4180   41.2820 C   0  0  0  0  0  0  0  0  0  0  0  0
   38.6230   26.0790   42.2930 C   0  0  0  0  0  0  0  0  0  0  0  0
   38.8110   26.9230   43.3810 C   0  0  0  0  0  0  0  0  0  0  0  0
   38.1100   28.1120   43.4500 C   0  0  0  0  0  0  0  0  0  0  0  0
   39.7460   26.3210   44.2230 O   0  0  0  0  0  0  0  0  0  0  0  0
   40.3500   25.2570   43.5250 C   0  0  1  0  0  0  0  0  0  0  0  0
   39.4500   24.9670   42.4860 O   0  0  0  0  0  0  0  0  0  0  0  0
   36.6660   29.3510   42.4410 H   0  0  0  0  0  0  0  0  0  0  0  0
   37.6120   25.7340   40.4340 H   0  0  0  0  0  0  0  0  0  0  0  0
   38.2270   28.7880   44.2690 H   0  0  0  0  0  0  0  0  0  0  0  0
   40.4940   24.3650   44.1500 H   0  0  0  0  0  0  0  0  0  0  0  0
   41.6780   25.7760   42.9900 C   0  0  0  0  0  0  0  0  0  0  0  0
   41.6440   25.7300   41.6080 F   0  0  0  0  0  0  0  0  0  0  0  0
   41.8650   27.0660   43.3900 F   0  0  0  0  0  0  0  0  0  0  0  0
   42.6500   24.9540   43.5080 F   0  0  0  0  0  0  0  0  0  0  0  0
  1  2  2  0  0  0  0
  1  6  1  0  0  0  0
  2  3  1  0  0  0  0
  3  8  1  0  0  0  0
  3  4  2  0  0  0  0
  5  4  1  0  0  0  0
  5 25  1  0  0  0  0
  6  5  2  0  0  0  0
  7  1  1  0  0  0  0
  9 14  1  0  0  0  0
  9  2  1  0  0  0  0
 10  9  1  0  0  0  0
 11 12  1  0  0  0  0
 11 10  1  0  0  0  0
 12 13  1  0  0  0  0
 13 20  1  0  0  0  0
 13 21  1  0  0  0  0
 13 14  1  0  0  0  0
 14 23  1  0  0  0  0
 15 10  1  0  0  0  0
 16 10  1  0  0  0  0
 17 11  1  0  0  0  0
 18 11  1  0  0  0  0
 19 12  1  0  0  0  0
 22 14  1  0  0  0  0
 24 33  1  0  0  0  0
 24 29  1  0  0  0  0
 25 24  2  0  0  0  0
 26 25  1  0  0  0  0
 26 27  2  0  0  0  0
 27 32  1  0  0  0  0
 27 28  1  0  0  0  0
 28 29  2  0  0  0  0
 28 30  1  0  0  0  0
 29 35  1  0  0  0  0
 31 36  1  1  0  0  0
 31 30  1  0  0  0  0
 32 31  1  0  0  0  0
 34 26  1  0  0  0  0
 37 39  1  0  0  0  0
 37 40  1  0  0  0  0
 37 31  1  0  0  0  0
 38 37  1  0  0  0  0
M  END
>  <minimizedAffinity>
-5.29490805

$$$$

 OpenBabel03242518273D

 40 43  0  0  1  0  0  0  0  0999 V2000
   37.9420   30.9430   39.5440 C   0  0  0  0  0  0  0  0  0  0  0  0
   39.1350   31.3660   40.1310 C   0  0  0  0  0  0  0  0  0  0  0  0
   39.8200   30.4350   40.8900 C   0  0  0  0  0  0  0  0  0  0  0  0
   39.3400   29.1770   41.0460 N   0  0  0  0  0  0  0  0  0  0  0  0
   38.1870   28.8050   40.4650 C   0  0  0  0  0  0  0  0  0  0  0  0
   37.4780   29.6820   39.7100 N   0  0  0  0  0  0  0  0  0  0  0  0
   37.3570   31.6200   38.9370 H   0  0  0  0  0  0  0  0  0  0  0  0
   40.7440   30.7670   41.3430 H   0  0  0  0  0  0  0  0  0  0  0  0
   39.5180   32.6950   39.8910 N   0  0  0  0  0  0  0  0  0  0  0  0
   38.8510   33.7180   40.6580 C   0  0  0  0  0  0  0  0  0  0  0  0
   39.2130   35.1050   40.2760 C   0  0  0  0  0  0  0  0  0  0  0  0
   40.6300   35.2840   40.1530 N   0  0  0  0  0  0  0  0  0  0  0  0
   41.3820   34.2160   39.6260 C   0  0  0  0  0  0  0  0  0  0  0  0
   40.4950   33.1830   38.9730 C   0  0  0  0  0  0  0  0  0  0  0  0
   37.7670   33.5530   40.5650 H   0  0  0  0  0  0  0  0  0  0  0  0
   39.0990   33.5710   41.7410 H   0  0  0  0  0  0  0  0  0  0  0  0
   38.8230   35.7940   41.0420 H   0  0  0  0  0  0  0  0  0  0  0  0
   38.6800   35.3620   39.3260 H   0  0  0  0  0  0  0  0  0  0  0  0
   40.7830   36.1800   39.6130 H   0  0  0  0  0  0  0  0  0  0  0  0
   42.1800   34.5270   38.9250 H   0  0  0  0  0  0  0  0  0  0  0  0
   41.9230   33.6910   40.4600 H   0  0  0  0  0  0  0  0  0  0  0  0
   39.9440   33.7070   38.1520 H   0  0  0  0  0  0  0  0  0  0  0  0
   41.1010   32.3870   38.4940 H   0  0  0  0  0  0  0  0  0  0  0  0
   37.6210   26.8960   41.8930 C   0  0  0  0  0  0  0  0  0  0  0  0
   37.6750   27.4400   40.6390 C   0  0  0  0  0  0  0  0  0  0  0  0
   37.2430   26.6840   39.5800 C   0  0  0  0  0  0  0  0  0  0  0  0
   36.7670   25.4020   39.7830 C   0  0  0  0  0  0  0  0  0  0  0  0
   36.7160   24.8590   41.0600 C   0  0  0  0  0  0  0  0  0  0  0  0
   37.1470   25.6100   42.1370 C   0  0  0  0  0  0  0  0  0  0  0  0
   36.1960   23.5690   40.9490 O   0  0  0  0  0  0  0  0  0  0  0  0
   36.1990   23.2080   39.5870 C   0  0  1  0  0  0  0  0  0  0  0  0
   36.2750   24.4320   38.9030 O   0  0  0  0  0  0  0  0  0  0  0  0
   37.9680   27.5130   42.7240 H   0  0  0  0  0  0  0  0  0  0  0  0
   37.2730   27.0890   38.5600 H   0  0  0  0  0  0  0  0  0  0  0  0
   37.1250   25.2280   43.1360 H   0  0  0  0  0  0  0  0  0  0  0  0
   35.2880   22.6720   39.2880 H   0  0  0  0  0  0  0  0  0  0  0  0
   37.4400   22.3560   39.3580 C   0  0  0  0  0  0  0  0  0  0  0  0
   38.3620   23.1050   38.6480 F   0  0  0  0  0  0  0  0  0  0  0  0
   37.9840   21.9990   40.5570 F   0  0  0  0  0  0  0  0  0  0  0  0
   37.0250   21.2500   38.6560 F   0  0  0  0  0  0  0  0  0  0  0  0
  1  6  2  0  0  0  0
  1  2  1  0  0  0  0
  2  3  2  0  0  0  0
  3  4  1  0  0  0  0
  3  8  1  0  0  0  0
  5 25  1  0  0  0  0
  5  4  2  0  0  0  0
  6  5  1  0  0  0  0
  7  1  1  0  0  0  0
  9  2  1  0  0  0  0
  9 10  1  0  0  0  0
 10 16  1  0  0  0  0
 11 10  1  0  0  0  0
 11 17  1  0  0  0  0
 12 11  1  0  0  0  0
 13 12  1  0  0  0  0
 13 21  1  0  0  0  0
 14 13  1  0  0  0  0
 14  9  1  0  0  0  0
 15 10  1  0  0  0  0
 18 11  1  0  0  0  0
 19 12  1  0  0  0  0
 20 13  1  0  0  0  0
 22 14  1  0  0  0  0
 23 14  1  0  0  0  0
 24 29  1  0  0  0  0
 24 33  1  0  0  0  0
 25 24  2  0  0  0  0
 26 27  2  0  0  0  0
 26 25  1  0  0  0  0
 27 28  1  0  0  0  0
 28 29  2  0  0  0  0
 29 35  1  0  0  0  0
 30 28  1  0  0  0  0
 31 36  1  6  0  0  0
 31 30  1  0  0  0  0
 32 31  1  0  0  0  0
 32 27  1  0  0  0  0
 34 26  1  0  0  0  0
 37 31  1  0  0  0  0
 37 39  1  0  0  0  0
 38 37  1  0  0  0  0
 40 37  1  0  0  0  0
M  END
>  <minimizedAffinity>
-5.12489319

$$$$

 OpenBabel03242518273D

 40 43  0  0  1  0  0  0  0  0999 V2000
   37.9310   26.3790   40.4910 C   0  0  0  0  0  0  0  0  0  0  0  0
   36.9620   25.7590   39.7010 C   0  0  0  0  0  0  0  0  0  0  0  0
   36.2000   26.5810   38.8910 C   0  0  0  0  0  0  0  0  0  0  0  0
   36.3990   27.9210   38.8770 N   0  0  0  0  0  0  0  0  0  0  0  0
   37.3440   28.4830   39.6520 C   0  0  0  0  0  0  0  0  0  0  0  0
   38.1170   27.7190   40.4640 N   0  0  0  0  0  0  0  0  0  0  0  0
   38.5620   25.7950   41.1470 H   0  0  0  0  0  0  0  0  0  0  0  0
   35.4510   26.0960   38.2810 H   0  0  0  0  0  0  0  0  0  0  0  0
   36.8590   24.3630   39.8110 N   0  0  0  0  0  0  0  0  0  0  0  0
   36.0960   23.6810   38.7950 C   0  0  0  0  0  0  0  0  0  0  0  0
   35.9240   22.2260   39.0310 C   0  0  0  0  0  0  0  0  0  0  0  0
   37.1560   21.5810   39.3810 N   0  0  0  0  0  0  0  0  0  0  0  0
   38.0640   22.2980   40.1850 C   0  0  0  0  0  0  0  0  0  0  0  0
   37.4150   23.5100   40.8090 C   0  0  0  0  0  0  0  0  0  0  0  0
   35.1200   24.1850   38.7130 H   0  0  0  0  0  0  0  0  0  0  0  0
   36.6060   23.8230   37.8080 H   0  0  0  0  0  0  0  0  0  0  0  0
   35.5200   21.7660   38.1150 H   0  0  0  0  0  0  0  0  0  0  0  0
   35.1440   22.0850   39.8210 H   0  0  0  0  0  0  0  0  0  0  0  0
   36.9060   20.6450   39.8040 H   0  0  0  0  0  0  0  0  0  0  0  0
   38.5550   21.6880   40.9670 H   0  0  0  0  0  0  0  0  0  0  0  0
   38.9080   22.6800   39.5480 H   0  0  0  0  0  0  0  0  0  0  0  0
   36.5650   23.1330   41.4330 H   0  0  0  0  0  0  0  0  0  0  0  0
   38.1150   24.0220   41.5010 H   0  0  0  0  0  0  0  0  0  0  0  0
   37.1610   30.6570   38.5360 C   0  0  0  0  0  0  0  0  0  0  0  0
   37.5520   29.9360   39.6310 C   0  0  0  0  0  0  0  0  0  0  0  0
   38.1290   30.6040   40.6810 C   0  0  0  0  0  0  0  0  0  0  0  0
   38.3080   31.9740   40.6260 C   0  0  0  0  0  0  0  0  0  0  0  0
   37.9070   32.6970   39.5090 C   0  0  0  0  0  0  0  0  0  0  0  0
   37.3240   32.0360   38.4440 C   0  0  0  0  0  0  0  0  0  0  0  0
   38.2130   34.0370   39.7440 O   0  0  0  0  0  0  0  0  0  0  0  0
   39.0600   34.1070   40.8670 C   0  0  1  0  0  0  0  0  0  0  0  0
   38.8570   32.8870   41.5330 O   0  0  0  0  0  0  0  0  0  0  0  0
   36.7040   30.1090   37.7100 H   0  0  0  0  0  0  0  0  0  0  0  0
   38.4540   30.0570   41.5750 H   0  0  0  0  0  0  0  0  0  0  0  0
   37.0030   32.5560   37.5670 H   0  0  0  0  0  0  0  0  0  0  0  0
   38.8100   34.9410   41.5370 H   0  0  0  0  0  0  0  0  0  0  0  0
   40.4840   34.2310   40.3410 C   0  0  0  0  0  0  0  0  0  0  0  0
   41.1080   35.2730   41.0040 F   0  0  0  0  0  0  0  0  0  0  0  0
   41.1680   33.0760   40.5800 F   0  0  0  0  0  0  0  0  0  0  0  0
   40.3770   34.4700   38.9920 F   0  0  0  0  0  0  0  0  0  0  0  0
  1  7  1  0  0  0  0
  2  9  1  0  0  0  0
  2  1  2  0  0  0  0
  3  2  1  0  0  0  0
  4  3  2  0  0  0  0
  4  5  1  0  0  0  0
  5  6  2  0  0  0  0
  6  1  1  0  0  0  0
  8  3  1  0  0  0  0
  9 14  1  0  0  0  0
 10 11  1  0  0  0  0
 10  9  1  0  0  0  0
 11 12  1  0  0  0  0
 11 18  1  0  0  0  0
 12 19  1  0  0  0  0
 12 13  1  0  0  0  0
 13 14  1  0  0  0  0
 13 20  1  0  0  0  0
 14 22  1  0  0  0  0
 14 23  1  0  0  0  0
 15 10  1  0  0  0  0
 16 10  1  0  0  0  0
 17 11  1  0  0  0  0
 21 13  1  0  0  0  0
 24 25  1  0  0  0  0
 25  5  1  0  0  0  0
 25 26  2  0  0  0  0
 26 34  1  0  0  0  0
 27 26  1  0  0  0  0
 27 32  1  0  0  0  0
 28 30  1  0  0  0  0
 28 27  2  0  0  0  0
 29 24  2  0  0  0  0
 29 28  1  0  0  0  0
 30 31  1  0  0  0  0
 31 32  1  0  0  0  0
 31 36  1  1  0  0  0
 33 24  1  0  0  0  0
 35 29  1  0  0  0  0
 37 39  1  0  0  0  0
 37 31  1  0  0  0  0
 37 38  1  0  0  0  0
 40 37  1  0  0  0  0
M  END
>  <minimizedAffinity>
-5.0884161

$$$$

 OpenBabel03242518273D

 40 43  0  0  1  0  0  0  0  0999 V2000
   39.7070   32.2700   38.6450 C   0  0  0  0  0  0  0  0  0  0  0  0
   40.2300   31.6220   39.7650 C   0  0  0  0  0  0  0  0  0  0  0  0
   39.6430   30.4220   40.1200 C   0  0  0  0  0  0  0  0  0  0  0  0
   38.6120   29.9130   39.4040 N   0  0  0  0  0  0  0  0  0  0  0  0
   38.1350   30.5660   38.3290 C   0  0  0  0  0  0  0  0  0  0  0  0
   38.6760   31.7470   37.9400 N   0  0  0  0  0  0  0  0  0  0  0  0
   40.1190   33.2120   38.3120 H   0  0  0  0  0  0  0  0  0  0  0  0
   40.0510   29.9240   40.9880 H   0  0  0  0  0  0  0  0  0  0  0  0
   41.2980   32.2580   40.4180 N   0  0  0  0  0  0  0  0  0  0  0  0
   41.2370   33.6940   40.5290 C   0  0  0  0  0  0  0  0  0  0  0  0
   42.4470   34.3160   41.1210 C   0  0  0  0  0  0  0  0  0  0  0  0
   42.8750   33.6450   42.3140 N   0  0  0  0  0  0  0  0  0  0  0  0
   42.7360   32.2450   42.3650 C   0  0  0  0  0  0  0  0  0  0  0  0
   42.4590   31.6660   40.9970 C   0  0  0  0  0  0  0  0  0  0  0  0
   41.0370   34.1000   39.5250 H   0  0  0  0  0  0  0  0  0  0  0  0
   40.3520   33.9670   41.1590 H   0  0  0  0  0  0  0  0  0  0  0  0
   42.2240   35.3690   41.3550 H   0  0  0  0  0  0  0  0  0  0  0  0
   43.2530   34.3320   40.3450 H   0  0  0  0  0  0  0  0  0  0  0  0
   43.8700   33.9520   42.5010 H   0  0  0  0  0  0  0  0  0  0  0  0
   43.5930   31.7210   42.8290 H   0  0  0  0  0  0  0  0  0  0  0  0
   41.8550   31.9780   43.0090 H   0  0  0  0  0  0  0  0  0  0  0  0
   43.3300   31.9430   40.3500 H   0  0  0  0  0  0  0  0  0  0  0  0
   42.4300   30.5580   41.0350 H   0  0  0  0  0  0  0  0  0  0  0  0
   36.9860   30.1670   36.2010 C   0  0  0  0  0  0  0  0  0  0  0  0
   37.0160   30.0070   37.5590 C   0  0  0  0  0  0  0  0  0  0  0  0
   35.9910   29.3210   38.1590 C   0  0  0  0  0  0  0  0  0  0  0  0
   34.9540   28.8070   37.4020 C   0  0  0  0  0  0  0  0  0  0  0  0
   34.9330   28.9760   36.0230 C   0  0  0  0  0  0  0  0  0  0  0  0
   35.9600   29.6650   35.4050 C   0  0  0  0  0  0  0  0  0  0  0  0
   33.7800   28.3570   35.5410 O   0  0  0  0  0  0  0  0  0  0  0  0
   32.9460   28.0630   36.6370 C   0  0  1  0  0  0  0  0  0  0  0  0
   33.8080   28.0840   37.7460 O   0  0  0  0  0  0  0  0  0  0  0  0
   37.8100   30.7160   35.7410 H   0  0  0  0  0  0  0  0  0  0  0  0
   35.9840   29.1730   39.2470 H   0  0  0  0  0  0  0  0  0  0  0  0
   35.9810   29.8170   34.3470 H   0  0  0  0  0  0  0  0  0  0  0  0
   32.4700   27.0760   36.5560 H   0  0  0  0  0  0  0  0  0  0  0  0
   31.9050   29.1720   36.7110 C   0  0  0  0  0  0  0  0  0  0  0  0
   30.6630   28.6280   36.4320 F   0  0  0  0  0  0  0  0  0  0  0  0
   31.8870   29.7060   37.9650 F   0  0  0  0  0  0  0  0  0  0  0  0
   32.2750   30.1120   35.7800 F   0  0  0  0  0  0  0  0  0  0  0  0
  1  2  1  0  0  0  0
  2  3  2  0  0  0  0
  2  9  1  0  0  0  0
  3  8  1  0  0  0  0
  4  3  1  0  0  0  0
  5  4  2  0  0  0  0
  6  5  1  0  0  0  0
  6  1  2  0  0  0  0
  7  1  1  0  0  0  0
  9 10  1  0  0  0  0
  9 14  1  0  0  0  0
 10 11  1  0  0  0  0
 10 16  1  0  0  0  0
 11 17  1  0  0  0  0
 11 12  1  0  0  0  0
 12 13  1  0  0  0  0
 12 19  1  0  0  0  0
 13 20  1  0  0  0  0
 13 21  1  0  0  0  0
 14 23  1  0  0  0  0
 14 13  1  0  0  0  0
 15 10  1  0  0  0  0
 18 11  1  0  0  0  0
 22 14  1  0  0  0  0
 24 25  1  0  0  0  0
 25 26  2  0  0  0  0
 25  5  1  0  0  0  0
 26 34  1  0  0  0  0
 27 32  1  0  0  0  0
 27 26  1  0  0  0  0
 28 27  2  0  0  0  0
 29 28  1  0  0  0  0
 29 24  2  0  0  0  0
 30 28  1  0  0  0  0
 30 31  1  0  0  0  0
 31 36  1  6  0  0  0
 31 37  1  0  0  0  0
 31 32  1  0  0  0  0
 33 24  1  0  0  0  0
 35 29  1  0  0  0  0
 37 39  1  0  0  0  0
 38 37  1  0  0  0  0
 40 37  1  0  0  0  0
M  END
>  <minimizedAffinity>
-5.02916765

$$$$
