
 OpenBabel03252508293D

 34 36  0  0  1  0  0  0  0  0999 V2000
   40.5090   32.5560   39.5890 N   0  0  0  0  0  0  0  0  0  0  0  0
   40.9240   32.5130   40.9940 C   0  0  2  0  0  0  0  0  0  0  0  0
   39.8620   32.9770   41.9220 C   0  0  0  0  0  0  0  0  0  0  0  0
   38.5750   33.1080   41.2640 N   0  0  0  0  0  0  0  0  0  0  0  0
   38.5920   33.8650   40.0640 C   0  0  0  0  0  0  0  0  0  0  0  0
   39.9560   33.9200   39.4210 C   0  0  2  0  0  0  0  0  0  0  0  0
   41.4050   32.4880   39.0330 H   0  0  0  0  0  0  0  0  0  0  0  0
   41.2120   31.4520   41.2030 H   0  0  0  0  0  0  0  0  0  0  0  0
   39.9700   33.9930   42.3410 H   0  0  0  0  0  0  0  0  0  0  0  0
   39.6900   32.2150   42.7330 H   0  0  0  0  0  0  0  0  0  0  0  0
   37.8810   33.3970   41.9790 H   0  0  0  0  0  0  0  0  0  0  0  0
   38.1850   34.8760   40.2720 H   0  0  0  0  0  0  0  0  0  0  0  0
   37.8880   33.3600   39.3420 H   0  0  0  0  0  0  0  0  0  0  0  0
   40.5840   34.6320   39.9730 H   0  0  0  0  0  0  0  0  0  0  0  0
   44.1370   34.1440   41.1610 C   0  0  0  0  0  0  0  0  0  0  0  0
   43.2330   35.1360   41.5590 C   0  0  0  0  0  0  0  0  0  0  0  0
   41.9450   34.6320   41.5460 C   0  0  0  0  0  0  0  0  0  0  0  0
   42.0880   33.3710   41.1450 N   0  0  0  0  0  0  0  0  0  0  0  0
   43.3640   33.0850   40.9220 N   0  0  0  0  0  0  0  0  0  0  0  0
   43.6310   36.1210   41.8140 H   0  0  0  0  0  0  0  0  0  0  0  0
   41.2390   35.3920   41.8600 H   0  0  0  0  0  0  0  0  0  0  0  0
   47.7420   34.1060   40.0900 C   0  0  0  0  0  0  0  0  0  0  0  0
   46.3330   33.8470   40.0270 C   0  0  0  0  0  0  0  0  0  0  0  0
   45.5870   34.3180   41.0770 C   0  0  0  0  0  0  0  0  0  0  0  0
   46.1950   34.9830   42.0920 N   0  0  0  0  0  0  0  0  0  0  0  0
   47.5260   35.2110   42.1200 C   0  0  0  0  0  0  0  0  0  0  0  0
   48.2690   34.7640   41.1130 N   0  0  0  0  0  0  0  0  0  0  0  0
   48.3080   33.7250   39.2480 H   0  0  0  0  0  0  0  0  0  0  0  0
   45.8450   33.3190   39.2240 H   0  0  0  0  0  0  0  0  0  0  0  0
   47.9080   35.7540   42.9820 H   0  0  0  0  0  0  0  0  0  0  0  0
   39.9030   34.2960   37.9660 C   0  0  0  0  0  0  0  0  0  0  0  0
   40.4180   33.2120   37.2580 F   0  0  0  0  0  0  0  0  0  0  0  0
   40.7900   35.3350   37.7820 F   0  0  0  0  0  0  0  0  0  0  0  0
   38.6440   34.5340   37.5130 F   0  0  0  0  0  0  0  0  0  0  0  0
  1  2  1  0  0  0  0
  2 18  1  0  0  0  0
  2  8  1  1  0  0  0
  2  3  1  0  0  0  0
  3  9  1  0  0  0  0
  3 10  1  0  0  0  0
  4  3  1  0  0  0  0
  4 11  1  0  0  0  0
  5 12  1  0  0  0  0
  5  4  1  0  0  0  0
  6  1  1  0  0  0  0
  6 14  1  1  0  0  0
  6  5  1  0  0  0  0
  7  1  1  0  0  0  0
 13  5  1  0  0  0  0
 15 16  1  0  0  0  0
 16 20  1  0  0  0  0
 17 16  2  0  0  0  0
 17 21  1  0  0  0  0
 18 17  1  0  0  0  0
 19 18  1  0  0  0  0
 19 15  2  0  0  0  0
 22 27  1  0  0  0  0
 23 22  2  0  0  0  0
 23 24  1  0  0  0  0
 24 15  1  0  0  0  0
 24 25  2  0  0  0  0
 25 26  1  0  0  0  0
 26 30  1  0  0  0  0
 27 26  2  0  0  0  0
 28 22  1  0  0  0  0
 29 23  1  0  0  0  0
 31  6  1  0  0  0  0
 32 31  1  0  0  0  0
 33 31  1  0  0  0  0
 34 31  1  0  0  0  0
M  END
>  <minimizedAffinity>
-5.73293638

>  <minimizedRMSD>
2.66377354

$$$$
