
 OpenBabel03252509183D

 36 38  0  0  1  0  0  0  0  0999 V2000
   51.2940   30.9840   42.1920 C   0  0  1  0  0  0  0  0  0  0  0  0
   51.3580   30.0690   43.3670 C   0  0  0  0  0  0  0  0  0  0  0  0
   51.3960   28.6110   43.0300 C   0  0  0  0  0  0  0  0  0  0  0  0
   52.3230   28.3010   41.8780 C   0  0  0  0  0  0  0  0  0  0  0  0
   52.1610   29.2570   40.7270 C   0  0  0  0  0  0  0  0  0  0  0  0
   50.9240   30.1410   40.9540 C   0  0  2  0  0  0  0  0  0  0  0  0
   52.3150   31.3460   41.9680 H   0  0  0  0  0  0  0  0  0  0  0  0
   50.4150   30.2390   43.9630 H   0  0  0  0  0  0  0  0  0  0  0  0
   52.1740   30.3610   44.0740 H   0  0  0  0  0  0  0  0  0  0  0  0
   50.3870   28.1980   42.8410 H   0  0  0  0  0  0  0  0  0  0  0  0
   51.8140   28.0660   43.9130 H   0  0  0  0  0  0  0  0  0  0  0  0
   53.3900   28.3490   42.2210 H   0  0  0  0  0  0  0  0  0  0  0  0
   52.1470   27.2470   41.5900 H   0  0  0  0  0  0  0  0  0  0  0  0
   52.0160   28.6720   39.7930 H   0  0  0  0  0  0  0  0  0  0  0  0
   53.0210   29.9180   40.6050 H   0  0  0  0  0  0  0  0  0  0  0  0
   50.0220   29.5490   41.1050 H   0  0  0  0  0  0  0  0  0  0  0  0
   48.2760   33.6440   42.9530 C   0  0  0  0  0  0  0  0  0  0  0  0
   49.4790   34.2880   42.6180 C   0  0  0  0  0  0  0  0  0  0  0  0
   50.5500   33.5110   42.3370 C   0  0  0  0  0  0  0  0  0  0  0  0
   50.4380   32.1080   42.3870 C   0  0  0  0  0  0  0  0  0  0  0  0
   48.6960   31.8710   42.8630 S   0  0  0  0  0  0  0  0  0  0  0  0
   49.5720   35.3620   42.5790 H   0  0  0  0  0  0  0  0  0  0  0  0
   51.5490   33.8100   42.0610 H   0  0  0  0  0  0  0  0  0  0  0  0
   45.3100   35.8910   43.0170 C   0  0  0  0  0  0  0  0  0  0  0  0
   44.6830   35.4250   44.2000 C   0  0  0  0  0  0  0  0  0  0  0  0
   45.2990   34.3680   44.9190 C   0  0  0  0  0  0  0  0  0  0  0  0
   46.4660   33.8780   44.4080 N   0  0  0  0  0  0  0  0  0  0  0  0
   47.0300   34.3470   43.2800 C   0  0  0  0  0  0  0  0  0  0  0  0
   46.4460   35.3480   42.5980 N   0  0  0  0  0  0  0  0  0  0  0  0
   44.8640   36.6960   42.4450 H   0  0  0  0  0  0  0  0  0  0  0  0
   43.7660   35.8530   44.5500 H   0  0  0  0  0  0  0  0  0  0  0  0
   44.8620   33.9760   45.8280 H   0  0  0  0  0  0  0  0  0  0  0  0
   50.8320   31.0410   39.7320 C   0  0  0  0  0  0  0  0  0  0  0  0
   51.8190   32.0090   39.7500 F   0  0  0  0  0  0  0  0  0  0  0  0
   50.8990   30.2740   38.5930 F   0  0  0  0  0  0  0  0  0  0  0  0
   49.6120   31.6610   39.7730 F   0  0  0  0  0  0  0  0  0  0  0  0
  1  7  1  6  0  0  0
  1 20  1  0  0  0  0
  1  2  1  0  0  0  0
  2  8  1  0  0  0  0
  2  9  1  0  0  0  0
  3  2  1  0  0  0  0
  3 11  1  0  0  0  0
  4 12  1  0  0  0  0
  4  3  1  0  0  0  0
  5  6  1  0  0  0  0
  5  4  1  0  0  0  0
  6 16  1  1  0  0  0
  6  1  1  0  0  0  0
 10  3  1  0  0  0  0
 13  4  1  0  0  0  0
 14  5  1  0  0  0  0
 15  5  1  0  0  0  0
 17 28  1  0  0  0  0
 18 17  2  0  0  0  0
 19 20  2  0  0  0  0
 19 18  1  0  0  0  0
 20 21  1  0  0  0  0
 21 17  1  0  0  0  0
 22 18  1  0  0  0  0
 23 19  1  0  0  0  0
 24 25  1  0  0  0  0
 25 31  1  0  0  0  0
 25 26  2  0  0  0  0
 26 32  1  0  0  0  0
 27 26  1  0  0  0  0
 28 27  2  0  0  0  0
 29 24  2  0  0  0  0
 29 28  1  0  0  0  0
 30 24  1  0  0  0  0
 33 34  1  0  0  0  0
 33 36  1  0  0  0  0
 33  6  1  0  0  0  0
 35 33  1  0  0  0  0
M  END
>  <minimizedAffinity>
-4.51517963

>  <minimizedRMSD>
7.22921276

$$$$
