
 OpenBabel03252509183D

 36 38  0  0  1  0  0  0  0  0999 V2000
   46.7630   30.9640   47.0110 C   0  0  1  0  0  0  0  0  0  0  0  0
   46.9830   32.0640   47.9930 C   0  0  0  0  0  0  0  0  0  0  0  0
   45.8690   32.2690   48.9710 C   0  0  0  0  0  0  0  0  0  0  0  0
   45.3250   30.9700   49.5190 C   0  0  0  0  0  0  0  0  0  0  0  0
   45.1030   29.9350   48.4490 C   0  0  0  0  0  0  0  0  0  0  0  0
   45.2700   30.5750   47.0610 C   0  0  2  0  0  0  0  0  0  0  0  0
   47.2830   30.0560   47.3710 H   0  0  0  0  0  0  0  0  0  0  0  0
   47.0710   33.0180   47.3970 H   0  0  0  0  0  0  0  0  0  0  0  0
   47.9780   31.9740   48.4970 H   0  0  0  0  0  0  0  0  0  0  0  0
   45.0530   32.8890   48.5530 H   0  0  0  0  0  0  0  0  0  0  0  0
   46.2840   32.8210   49.8510 H   0  0  0  0  0  0  0  0  0  0  0  0
   46.0370   30.5430   50.2720 H   0  0  0  0  0  0  0  0  0  0  0  0
   44.4030   31.2120   50.0810 H   0  0  0  0  0  0  0  0  0  0  0  0
   44.0660   29.5430   48.5400 H   0  0  0  0  0  0  0  0  0  0  0  0
   45.8070   29.1030   48.5160 H   0  0  0  0  0  0  0  0  0  0  0  0
   44.6100   31.4310   46.9250 H   0  0  0  0  0  0  0  0  0  0  0  0
   47.7390   32.5710   43.3740 C   0  0  0  0  0  0  0  0  0  0  0  0
   48.2460   31.2710   43.5330 C   0  0  0  0  0  0  0  0  0  0  0  0
   47.9810   30.6310   44.6940 C   0  0  0  0  0  0  0  0  0  0  0  0
   47.2230   31.2690   45.6960 C   0  0  0  0  0  0  0  0  0  0  0  0
   46.8570   32.8850   44.9410 S   0  0  0  0  0  0  0  0  0  0  0  0
   48.8280   30.7770   42.7700 H   0  0  0  0  0  0  0  0  0  0  0  0
   48.2760   29.6410   45.0040 H   0  0  0  0  0  0  0  0  0  0  0  0
   47.8400   33.9410   39.9160 C   0  0  0  0  0  0  0  0  0  0  0  0
   48.4720   35.1850   40.1700 C   0  0  0  0  0  0  0  0  0  0  0  0
   48.8320   35.4980   41.5060 C   0  0  0  0  0  0  0  0  0  0  0  0
   48.5390   34.5620   42.4550 N   0  0  0  0  0  0  0  0  0  0  0  0
   47.9380   33.3910   42.1740 C   0  0  0  0  0  0  0  0  0  0  0  0
   47.5960   33.0950   40.9070 N   0  0  0  0  0  0  0  0  0  0  0  0
   47.5520   33.6730   38.9050 H   0  0  0  0  0  0  0  0  0  0  0  0
   48.6750   35.8780   39.3800 H   0  0  0  0  0  0  0  0  0  0  0  0
   49.3160   36.4330   41.7540 H   0  0  0  0  0  0  0  0  0  0  0  0
   44.9980   29.4640   46.0600 C   0  0  0  0  0  0  0  0  0  0  0  0
   44.8590   29.9670   44.7810 F   0  0  0  0  0  0  0  0  0  0  0  0
   46.0060   28.5300   46.1270 F   0  0  0  0  0  0  0  0  0  0  0  0
   43.8210   28.8650   46.4240 F   0  0  0  0  0  0  0  0  0  0  0  0
  1  6  1  0  0  0  0
  1  7  1  1  0  0  0
  1  2  1  0  0  0  0
  2  9  1  0  0  0  0
  2  3  1  0  0  0  0
  3  4  1  0  0  0  0
  3 11  1  0  0  0  0
  4 13  1  0  0  0  0
  4 12  1  0  0  0  0
  5 15  1  0  0  0  0
  5 14  1  0  0  0  0
  5  4  1  0  0  0  0
  6 16  1  6  0  0  0
  6  5  1  0  0  0  0
  8  2  1  0  0  0  0
 10  3  1  0  0  0  0
 17 18  2  0  0  0  0
 17 21  1  0  0  0  0
 18 19  1  0  0  0  0
 19 23  1  0  0  0  0
 19 20  2  0  0  0  0
 20  1  1  0  0  0  0
 21 20  1  0  0  0  0
 22 18  1  0  0  0  0
 24 25  2  0  0  0  0
 24 29  1  0  0  0  0
 25 26  1  0  0  0  0
 26 32  1  0  0  0  0
 26 27  2  0  0  0  0
 28 27  1  0  0  0  0
 28 17  1  0  0  0  0
 29 28  2  0  0  0  0
 30 24  1  0  0  0  0
 31 25  1  0  0  0  0
 33 35  1  0  0  0  0
 33 36  1  0  0  0  0
 33  6  1  0  0  0  0
 34 33  1  0  0  0  0
M  END
>  <minimizedAffinity>
-5.26075172

>  <minimizedRMSD>
5.00555277

$$$$
