
 OpenBabel03242523193D

 32 34  0  0  0  0  0  0  0  0999 V2000
   47.3840   32.8100   44.0160 C   0  0  0  0  0  0  0  0  0  0  0  0
   48.2420   33.3110   43.1140 C   0  0  0  0  0  0  0  0  0  0  0  0
   49.0790   32.3840   42.5370 C   0  0  0  0  0  0  0  0  0  0  0  0
   48.9710   31.0380   42.9320 N   0  0  0  0  0  0  0  0  0  0  0  0
   48.1050   30.6210   43.8270 C   0  0  0  0  0  0  0  0  0  0  0  0
   47.2510   31.5180   44.4220 N   0  0  0  0  0  0  0  0  0  0  0  0
   49.8340   32.5780   41.7950 H   0  0  0  0  0  0  0  0  0  0  0  0
   48.1360   29.5540   44.0320 H   0  0  0  0  0  0  0  0  0  0  0  0
   48.4270   34.6860   42.8020 C   0  0  0  0  0  0  0  0  0  0  0  0
   49.4600   35.2710   42.1400 C   0  0  0  0  0  0  0  0  0  0  0  0
   48.2350   35.1030   41.2800 C   0  0  0  0  0  0  0  0  0  0  0  0
   47.9560   35.3730   43.5280 H   0  0  0  0  0  0  0  0  0  0  0  0
   49.8010   36.3320   42.1530 H   0  0  0  0  0  0  0  0  0  0  0  0
   50.3600   34.6430   41.8530 H   0  0  0  0  0  0  0  0  0  0  0  0
   48.2440   34.2440   40.6120 H   0  0  0  0  0  0  0  0  0  0  0  0
   47.5390   35.9420   41.1360 H   0  0  0  0  0  0  0  0  0  0  0  0
   46.3170   33.5440   44.7100 C   0  0  0  0  0  0  0  0  0  0  0  0
   45.7450   33.9270   45.6970 O   0  0  0  0  0  0  0  0  0  0  0  0
   44.5430   31.7610   42.9250 Cl  0  0  0  0  0  0  0  0  0  0  0  0
   44.5700   33.5130   42.7820 C   0  0  0  0  0  0  0  0  0  0  0  0
   45.4310   34.1770   43.6820 C   0  0  0  0  0  0  0  0  0  0  0  0
   45.3820   35.5500   43.4960 C   0  0  0  0  0  0  0  0  0  0  0  0
   44.6670   36.2710   42.6220 C   0  0  0  0  0  0  0  0  0  0  0  0
   43.8580   35.5550   41.7830 C   0  0  0  0  0  0  0  0  0  0  0  0
   43.8010   34.2080   41.8510 C   0  0  0  0  0  0  0  0  0  0  0  0
   45.9760   36.2250   44.1490 H   0  0  0  0  0  0  0  0  0  0  0  0
   44.6600   37.3380   42.5090 H   0  0  0  0  0  0  0  0  0  0  0  0
   43.2150   35.9680   41.0200 H   0  0  0  0  0  0  0  0  0  0  0  0
   42.9510   33.3030   40.9870 C   0  0  0  0  0  0  0  0  0  0  0  0
   42.1620   32.5330   41.7870 F   0  0  0  0  0  0  0  0  0  0  0  0
   43.8080   32.4210   40.3150 F   0  0  0  0  0  0  0  0  0  0  0  0
   42.2730   34.0050   40.0290 F   0  0  0  0  0  0  0  0  0  0  0  0
  1  6  1  0  0  0  0
  1 17  1  0  0  0  0
  2  1  2  0  0  0  0
  3  4  2  0  0  0  0
  3  2  1  0  0  0  0
  4  5  1  0  0  0  0
  5  8  1  0  0  0  0
  5  6  2  0  0  0  0
  7  3  1  0  0  0  0
  9  2  1  0  0  0  0
  9 12  1  0  0  0  0
 10 13  1  0  0  0  0
 10  9  1  0  0  0  0
 11 10  1  0  0  0  0
 11  9  1  0  0  0  0
 14 10  1  0  0  0  0
 15 11  1  0  0  0  0
 16 11  1  0  0  0  0
 17 18  2  0  0  0  0
 20 19  1  0  0  0  0
 20 21  1  0  0  0  0
 21 17  1  0  0  0  0
 22 21  2  0  0  0  0
 22 26  1  0  0  0  0
 23 22  1  0  0  0  0
 24 25  1  0  0  0  0
 24 23  2  0  0  0  0
 25 20  2  0  0  0  0
 27 23  1  0  0  0  0
 28 24  1  0  0  0  0
 29 30  1  0  0  0  0
 29 25  1  0  0  0  0
 31 29  1  0  0  0  0
 32 29  1  0  0  0  0
M  END
>  <minimizedAffinity>
-5.21684122

>  <minimizedRMSD>
0.425588101

$$$$
