
 OpenBabel03252502113D

 23 24  0  0  0  0  0  0  0  0999 V2000
   40.8240   29.4100   42.6280 Cl  0  0  0  0  0  0  0  0  0  0  0  0
   39.1630   28.9100   42.5050 C   0  0  0  0  0  0  0  0  0  0  0  0
   38.2800   29.5360   41.6690 C   0  0  0  0  0  0  0  0  0  0  0  0
   36.9890   29.0520   41.6570 C   0  0  0  0  0  0  0  0  0  0  0  0
   36.5970   28.0020   42.4330 C   0  0  0  0  0  0  0  0  0  0  0  0
   37.4730   27.3750   43.2670 C   0  0  0  0  0  0  0  0  0  0  0  0
   38.7740   27.8470   43.2930 C   0  0  0  0  0  0  0  0  0  0  0  0
   35.5530   27.6900   42.3550 H   0  0  0  0  0  0  0  0  0  0  0  0
   37.1780   26.5400   43.8890 H   0  0  0  0  0  0  0  0  0  0  0  0
   39.4680   27.3480   43.9560 H   0  0  0  0  0  0  0  0  0  0  0  0
   39.7630   31.5490   38.8340 C   0  0  0  0  0  0  0  0  0  0  0  0
   39.3090   30.4770   39.6020 C   0  0  0  0  0  0  0  0  0  0  0  0
   38.7530   30.6450   40.8700 C   0  0  0  0  0  0  0  0  0  0  0  0
   38.6870   31.9210   41.2990 N   0  0  0  0  0  0  0  0  0  0  0  0
   39.1230   32.9540   40.5650 C   0  0  0  0  0  0  0  0  0  0  0  0
   39.6550   32.7880   39.3480 N   0  0  0  0  0  0  0  0  0  0  0  0
   40.1820   31.3350   37.8590 H   0  0  0  0  0  0  0  0  0  0  0  0
   39.3860   29.4710   39.2040 H   0  0  0  0  0  0  0  0  0  0  0  0
   39.0670   33.9860   40.9180 H   0  0  0  0  0  0  0  0  0  0  0  0
   36.0200   29.7280   40.7500 C   0  0  0  0  0  0  0  0  0  0  0  0
   36.4150   29.6430   39.4360 F   0  0  0  0  0  0  0  0  0  0  0  0
   35.8240   31.0300   41.1220 F   0  0  0  0  0  0  0  0  0  0  0  0
   34.8390   28.9850   40.8440 F   0  0  0  0  0  0  0  0  0  0  0  0
  2  1  1  0  0  0  0
  2  7  1  0  0  0  0
  3  2  2  0  0  0  0
  4  3  1  0  0  0  0
  4  5  2  0  0  0  0
  5  6  1  0  0  0  0
  6  7  2  0  0  0  0
  6  9  1  0  0  0  0
  7 10  1  0  0  0  0
  8  5  1  0  0  0  0
 11 16  2  0  0  0  0
 11 12  1  0  0  0  0
 12 13  2  0  0  0  0
 13 14  1  0  0  0  0
 13  3  1  0  0  0  0
 15 19  1  0  0  0  0
 15 14  2  0  0  0  0
 16 15  1  0  0  0  0
 17 11  1  0  0  0  0
 18 12  1  0  0  0  0
 20 23  1  0  0  0  0
 20 22  1  0  0  0  0
 20  4  1  0  0  0  0
 21 20  1  0  0  0  0
M  END
>  <minimizedAffinity>
-4.88680935

$$$$

 OpenBabel03252502113D

 23 24  0  0  0  0  0  0  0  0999 V2000
   40.9180   29.8900   41.7850 Cl  0  0  0  0  0  0  0  0  0  0  0  0
   40.1480   28.4520   42.3910 C   0  0  0  0  0  0  0  0  0  0  0  0
   38.8360   28.1710   42.1290 C   0  0  0  0  0  0  0  0  0  0  0  0
   38.3350   27.0020   42.6630 C   0  0  0  0  0  0  0  0  0  0  0  0
   39.0970   26.1590   43.4160 C   0  0  0  0  0  0  0  0  0  0  0  0
   40.4050   26.4360   43.6780 C   0  0  0  0  0  0  0  0  0  0  0  0
   40.9260   27.6050   43.1510 C   0  0  0  0  0  0  0  0  0  0  0  0
   38.6110   25.2570   43.7950 H   0  0  0  0  0  0  0  0  0  0  0  0
   41.0230   25.7760   44.2740 H   0  0  0  0  0  0  0  0  0  0  0  0
   41.9650   27.8220   43.3620 H   0  0  0  0  0  0  0  0  0  0  0  0
   37.4380   30.0490   39.1610 C   0  0  0  0  0  0  0  0  0  0  0  0
   38.1720   29.1500   39.9340 C   0  0  0  0  0  0  0  0  0  0  0  0
   38.0770   29.1030   41.3250 C   0  0  0  0  0  0  0  0  0  0  0  0
   37.2230   29.9920   41.8680 N   0  0  0  0  0  0  0  0  0  0  0  0
   36.5150   30.8590   41.1300 C   0  0  0  0  0  0  0  0  0  0  0  0
   36.6100   30.9000   39.7960 N   0  0  0  0  0  0  0  0  0  0  0  0
   37.5680   30.0230   38.0880 H   0  0  0  0  0  0  0  0  0  0  0  0
   38.8450   28.4560   39.4410 H   0  0  0  0  0  0  0  0  0  0  0  0
   35.8240   31.5770   41.5760 H   0  0  0  0  0  0  0  0  0  0  0  0
   36.9070   26.6880   42.3830 C   0  0  0  0  0  0  0  0  0  0  0  0
   36.6300   26.7480   41.0380 F   0  0  0  0  0  0  0  0  0  0  0  0
   36.0740   27.5070   43.0940 F   0  0  0  0  0  0  0  0  0  0  0  0
   36.7400   25.3480   42.7480 F   0  0  0  0  0  0  0  0  0  0  0  0
  1  2  1  0  0  0  0
  2  7  1  0  0  0  0
  3  2  2  0  0  0  0
  3  4  1  0  0  0  0
  4  5  2  0  0  0  0
  5  6  1  0  0  0  0
  5  8  1  0  0  0  0
  6  9  1  0  0  0  0
  7 10  1  0  0  0  0
  7  6  2  0  0  0  0
 11 16  2  0  0  0  0
 11 12  1  0  0  0  0
 12 13  2  0  0  0  0
 13 14  1  0  0  0  0
 13  3  1  0  0  0  0
 15 19  1  0  0  0  0
 15 14  2  0  0  0  0
 16 15  1  0  0  0  0
 17 11  1  0  0  0  0
 18 12  1  0  0  0  0
 20  4  1  0  0  0  0
 20 23  1  0  0  0  0
 20 22  1  0  0  0  0
 21 20  1  0  0  0  0
M  END
>  <minimizedAffinity>
-4.80081081

$$$$

 OpenBabel03252502113D

 23 24  0  0  0  0  0  0  0  0999 V2000
   36.2340   26.2640   37.9130 Cl  0  0  0  0  0  0  0  0  0  0  0  0
   36.1380   27.3970   39.2280 C   0  0  0  0  0  0  0  0  0  0  0  0
   36.7280   27.1510   40.4370 C   0  0  0  0  0  0  0  0  0  0  0  0
   36.5850   28.1230   41.4050 C   0  0  0  0  0  0  0  0  0  0  0  0
   35.8930   29.2770   41.1830 C   0  0  0  0  0  0  0  0  0  0  0  0
   35.3050   29.5250   39.9800 C   0  0  0  0  0  0  0  0  0  0  0  0
   35.4380   28.5610   38.9960 C   0  0  0  0  0  0  0  0  0  0  0  0
   35.8350   29.9870   42.0110 H   0  0  0  0  0  0  0  0  0  0  0  0
   34.7530   30.4370   39.7870 H   0  0  0  0  0  0  0  0  0  0  0  0
   34.9690   28.7610   38.0410 H   0  0  0  0  0  0  0  0  0  0  0  0
   37.5450   23.5610   41.2920 C   0  0  0  0  0  0  0  0  0  0  0  0
   36.8490   24.7570   41.1230 C   0  0  0  0  0  0  0  0  0  0  0  0
   37.4480   25.9090   40.6150 C   0  0  0  0  0  0  0  0  0  0  0  0
   38.7520   25.7830   40.3000 N   0  0  0  0  0  0  0  0  0  0  0  0
   39.4270   24.6350   40.4620 C   0  0  0  0  0  0  0  0  0  0  0  0
   38.8460   23.5320   40.9490 N   0  0  0  0  0  0  0  0  0  0  0  0
   37.0080   22.7120   41.6920 H   0  0  0  0  0  0  0  0  0  0  0  0
   35.7990   24.8010   41.3930 H   0  0  0  0  0  0  0  0  0  0  0  0
   40.4830   24.5390   40.2050 H   0  0  0  0  0  0  0  0  0  0  0  0
   37.2230   27.8640   42.7250 C   0  0  0  0  0  0  0  0  0  0  0  0
   38.5560   27.5540   42.5890 F   0  0  0  0  0  0  0  0  0  0  0  0
   36.5580   26.8850   43.4110 F   0  0  0  0  0  0  0  0  0  0  0  0
   37.1830   29.0840   43.4070 F   0  0  0  0  0  0  0  0  0  0  0  0
  1  2  1  0  0  0  0
  2  3  1  0  0  0  0
  3 13  1  0  0  0  0
  3  4  2  0  0  0  0
  4 20  1  0  0  0  0
  5  4  1  0  0  0  0
  5  8  1  0  0  0  0
  6  5  2  0  0  0  0
  7  2  2  0  0  0  0
  7  6  1  0  0  0  0
  9  6  1  0  0  0  0
 10  7  1  0  0  0  0
 11 17  1  0  0  0  0
 12 11  1  0  0  0  0
 12 18  1  0  0  0  0
 13 12  2  0  0  0  0
 14 15  2  0  0  0  0
 14 13  1  0  0  0  0
 15 16  1  0  0  0  0
 16 11  2  0  0  0  0
 19 15  1  0  0  0  0
 20 23  1  0  0  0  0
 20 22  1  0  0  0  0
 21 20  1  0  0  0  0
M  END
>  <minimizedAffinity>
-4.77976322

$$$$

 OpenBabel03252502113D

 23 24  0  0  0  0  0  0  0  0999 V2000
   37.8580   26.6440   38.9020 Cl  0  0  0  0  0  0  0  0  0  0  0  0
   37.5360   28.3400   38.6870 C   0  0  0  0  0  0  0  0  0  0  0  0
   37.4250   29.1940   39.7480 C   0  0  0  0  0  0  0  0  0  0  0  0
   37.1670   30.5170   39.4540 C   0  0  0  0  0  0  0  0  0  0  0  0
   37.0280   30.9650   38.1740 C   0  0  0  0  0  0  0  0  0  0  0  0
   37.1380   30.1170   37.1140 C   0  0  0  0  0  0  0  0  0  0  0  0
   37.3970   28.7850   37.3890 C   0  0  0  0  0  0  0  0  0  0  0  0
   36.8250   32.0300   38.0410 H   0  0  0  0  0  0  0  0  0  0  0  0
   37.0310   30.4570   36.0920 H   0  0  0  0  0  0  0  0  0  0  0  0
   37.4840   28.1140   36.5450 H   0  0  0  0  0  0  0  0  0  0  0  0
   36.6700   27.6210   43.1010 C   0  0  0  0  0  0  0  0  0  0  0  0
   36.5150   28.1350   41.8140 C   0  0  0  0  0  0  0  0  0  0  0  0
   37.5810   28.6610   41.0840 C   0  0  0  0  0  0  0  0  0  0  0  0
   38.7710   28.6370   41.7140 N   0  0  0  0  0  0  0  0  0  0  0  0
   38.9250   28.1450   42.9520 C   0  0  0  0  0  0  0  0  0  0  0  0
   37.8990   27.6400   43.6480 N   0  0  0  0  0  0  0  0  0  0  0  0
   35.7930   27.2310   43.6020 H   0  0  0  0  0  0  0  0  0  0  0  0
   35.5320   28.1280   41.3560 H   0  0  0  0  0  0  0  0  0  0  0  0
   39.8930   28.1280   43.4570 H   0  0  0  0  0  0  0  0  0  0  0  0
   37.0440   31.4550   40.6040 C   0  0  0  0  0  0  0  0  0  0  0  0
   38.2000   31.4980   41.3460 F   0  0  0  0  0  0  0  0  0  0  0  0
   35.9680   31.1360   41.3870 F   0  0  0  0  0  0  0  0  0  0  0  0
   36.9050   32.7260   40.0370 F   0  0  0  0  0  0  0  0  0  0  0  0
  2  1  1  0  0  0  0
  2  3  1  0  0  0  0
  3 13  1  0  0  0  0
  4  3  2  0  0  0  0
  4 20  1  0  0  0  0
  5  4  1  0  0  0  0
  6  7  1  0  0  0  0
  6  5  2  0  0  0  0
  7  2  2  0  0  0  0
  8  5  1  0  0  0  0
  9  6  1  0  0  0  0
 10  7  1  0  0  0  0
 11 17  1  0  0  0  0
 11 16  1  0  0  0  0
 12 11  2  0  0  0  0
 13 14  2  0  0  0  0
 13 12  1  0  0  0  0
 14 15  1  0  0  0  0
 15 19  1  0  0  0  0
 15 16  2  0  0  0  0
 18 12  1  0  0  0  0
 20 21  1  0  0  0  0
 20 22  1  0  0  0  0
 23 20  1  0  0  0  0
M  END
>  <minimizedAffinity>
-4.64991474

$$$$

 OpenBabel03252502113D

 23 24  0  0  0  0  0  0  0  0999 V2000
   35.7620   26.2200   38.4050 Cl  0  0  0  0  0  0  0  0  0  0  0  0
   36.5620   25.7010   39.8590 C   0  0  0  0  0  0  0  0  0  0  0  0
   37.1100   26.5920   40.7390 C   0  0  0  0  0  0  0  0  0  0  0  0
   37.7190   26.0620   41.8580 C   0  0  0  0  0  0  0  0  0  0  0  0
   37.7790   24.7200   42.0890 C   0  0  0  0  0  0  0  0  0  0  0  0
   37.2340   23.8290   41.2140 C   0  0  0  0  0  0  0  0  0  0  0  0
   36.6180   24.3420   40.0860 C   0  0  0  0  0  0  0  0  0  0  0  0
   38.2830   24.3960   43.0020 H   0  0  0  0  0  0  0  0  0  0  0  0
   37.2730   22.7610   41.3830 H   0  0  0  0  0  0  0  0  0  0  0  0
   36.1860   23.6320   39.3920 H   0  0  0  0  0  0  0  0  0  0  0  0
   35.9270   30.1820   40.6790 C   0  0  0  0  0  0  0  0  0  0  0  0
   36.0140   28.8200   40.9670 C   0  0  0  0  0  0  0  0  0  0  0  0
   37.0160   28.0040   40.4420 C   0  0  0  0  0  0  0  0  0  0  0  0
   37.8950   28.6290   39.6330 N   0  0  0  0  0  0  0  0  0  0  0  0
   37.8150   29.9370   39.3520 C   0  0  0  0  0  0  0  0  0  0  0  0
   36.8520   30.7160   39.8600 N   0  0  0  0  0  0  0  0  0  0  0  0
   35.1200   30.7460   41.1260 H   0  0  0  0  0  0  0  0  0  0  0  0
   35.2790   28.3710   41.6260 H   0  0  0  0  0  0  0  0  0  0  0  0
   38.5300   30.4380   38.6970 H   0  0  0  0  0  0  0  0  0  0  0  0
   38.3190   27.0250   42.8220 C   0  0  0  0  0  0  0  0  0  0  0  0
   39.1980   26.4020   43.6760 F   0  0  0  0  0  0  0  0  0  0  0  0
   37.3510   27.6960   43.5170 F   0  0  0  0  0  0  0  0  0  0  0  0
   39.0920   27.8980   42.0490 F   0  0  0  0  0  0  0  0  0  0  0  0
  1  2  1  0  0  0  0
  2  7  2  0  0  0  0
  2  3  1  0  0  0  0
  3  4  2  0  0  0  0
  4  5  1  0  0  0  0
  4 20  1  0  0  0  0
  5  8  1  0  0  0  0
  6  9  1  0  0  0  0
  6  5  2  0  0  0  0
  7  6  1  0  0  0  0
 10  7  1  0  0  0  0
 11 12  1  0  0  0  0
 11 17  1  0  0  0  0
 12 18  1  0  0  0  0
 13  3  1  0  0  0  0
 13 12  2  0  0  0  0
 14 13  1  0  0  0  0
 15 14  2  0  0  0  0
 15 16  1  0  0  0  0
 16 11  2  0  0  0  0
 19 15  1  0  0  0  0
 20 22  1  0  0  0  0
 20 21  1  0  0  0  0
 23 20  1  0  0  0  0
M  END
>  <minimizedAffinity>
-4.60267782

$$$$

 OpenBabel03252502113D

 23 24  0  0  0  0  0  0  0  0999 V2000
   36.2550   28.8910   39.1420 Cl  0  0  0  0  0  0  0  0  0  0  0  0
   36.2530   27.1540   39.2270 C   0  0  0  0  0  0  0  0  0  0  0  0
   36.8160   26.4820   40.2760 C   0  0  0  0  0  0  0  0  0  0  0  0
   36.7540   25.1040   40.2340 C   0  0  0  0  0  0  0  0  0  0  0  0
   36.1640   24.4320   39.2040 C   0  0  0  0  0  0  0  0  0  0  0  0
   35.6020   25.0990   38.1580 C   0  0  0  0  0  0  0  0  0  0  0  0
   35.6540   26.4810   38.1830 C   0  0  0  0  0  0  0  0  0  0  0  0
   36.1640   23.3410   39.2600 H   0  0  0  0  0  0  0  0  0  0  0  0
   35.1290   24.5800   37.3340 H   0  0  0  0  0  0  0  0  0  0  0  0
   35.2070   27.0080   37.3500 H   0  0  0  0  0  0  0  0  0  0  0  0
   37.3290   28.3640   43.5140 C   0  0  0  0  0  0  0  0  0  0  0  0
   36.7360   27.6260   42.4900 C   0  0  0  0  0  0  0  0  0  0  0  0
   37.4280   27.2480   41.3390 C   0  0  0  0  0  0  0  0  0  0  0  0
   38.7130   27.6490   41.2890 N   0  0  0  0  0  0  0  0  0  0  0  0
   39.2880   28.3590   42.2700 C   0  0  0  0  0  0  0  0  0  0  0  0
   38.6200   28.7190   43.3730 N   0  0  0  0  0  0  0  0  0  0  0  0
   36.7240   28.6180   44.3740 H   0  0  0  0  0  0  0  0  0  0  0  0
   35.6970   27.3300   42.5850 H   0  0  0  0  0  0  0  0  0  0  0  0
   40.3300   28.6810   42.2240 H   0  0  0  0  0  0  0  0  0  0  0  0
   37.3650   24.3630   41.3720 C   0  0  0  0  0  0  0  0  0  0  0  0
   36.6360   24.5220   42.5270 F   0  0  0  0  0  0  0  0  0  0  0  0
   38.6680   24.7340   41.5580 F   0  0  0  0  0  0  0  0  0  0  0  0
   37.2610   23.0100   41.0370 F   0  0  0  0  0  0  0  0  0  0  0  0
  1  2  1  0  0  0  0
  2  3  1  0  0  0  0
  3 13  1  0  0  0  0
  4  3  2  0  0  0  0
  4 20  1  0  0  0  0
  5  8  1  0  0  0  0
  5  4  1  0  0  0  0
  6  7  1  0  0  0  0
  6  5  2  0  0  0  0
  7  2  2  0  0  0  0
  9  6  1  0  0  0  0
 10  7  1  0  0  0  0
 11 17  1  0  0  0  0
 12 18  1  0  0  0  0
 12 11  2  0  0  0  0
 13 12  1  0  0  0  0
 14 13  2  0  0  0  0
 14 15  1  0  0  0  0
 15 16  2  0  0  0  0
 16 11  1  0  0  0  0
 19 15  1  0  0  0  0
 20 22  1  0  0  0  0
 20 21  1  0  0  0  0
 23 20  1  0  0  0  0
M  END
>  <minimizedAffinity>
-4.60115147

$$$$

 OpenBabel03252502113D

 23 24  0  0  0  0  0  0  0  0999 V2000
   35.8510   27.2780   38.2810 Cl  0  0  0  0  0  0  0  0  0  0  0  0
   36.5400   26.5050   39.6790 C   0  0  0  0  0  0  0  0  0  0  0  0
   37.1290   27.2210   40.6830 C   0  0  0  0  0  0  0  0  0  0  0  0
   37.6410   26.4980   41.7400 C   0  0  0  0  0  0  0  0  0  0  0  0
   37.5700   25.1380   41.7960 C   0  0  0  0  0  0  0  0  0  0  0  0
   36.9830   24.4210   40.7970 C   0  0  0  0  0  0  0  0  0  0  0  0
   36.4640   25.1290   39.7280 C   0  0  0  0  0  0  0  0  0  0  0  0
   38.0040   24.6540   42.6740 H   0  0  0  0  0  0  0  0  0  0  0  0
   36.9180   23.3410   40.8270 H   0  0  0  0  0  0  0  0  0  0  0  0
   35.9980   24.5570   38.9350 H   0  0  0  0  0  0  0  0  0  0  0  0
   38.2390   30.7210   39.7850 C   0  0  0  0  0  0  0  0  0  0  0  0
   38.1970   29.3310   39.8940 C   0  0  0  0  0  0  0  0  0  0  0  0
   37.1760   28.6620   40.5690 C   0  0  0  0  0  0  0  0  0  0  0  0
   36.2330   29.4570   41.1090 N   0  0  0  0  0  0  0  0  0  0  0  0
   36.2690   30.7940   41.0070 C   0  0  0  0  0  0  0  0  0  0  0  0
   37.2510   31.4310   40.3580 N   0  0  0  0  0  0  0  0  0  0  0  0
   39.0650   31.1640   39.2450 H   0  0  0  0  0  0  0  0  0  0  0  0
   38.9850   28.7410   39.4380 H   0  0  0  0  0  0  0  0  0  0  0  0
   35.5010   31.4330   41.4470 H   0  0  0  0  0  0  0  0  0  0  0  0
   38.2860   27.2690   42.8390 C   0  0  0  0  0  0  0  0  0  0  0  0
   37.3560   27.9300   43.6060 F   0  0  0  0  0  0  0  0  0  0  0  0
   39.2230   28.1360   42.3480 F   0  0  0  0  0  0  0  0  0  0  0  0
   38.8640   26.3130   43.6790 F   0  0  0  0  0  0  0  0  0  0  0  0
  1  2  1  0  0  0  0
  2  7  2  0  0  0  0
  2  3  1  0  0  0  0
  3  4  2  0  0  0  0
  4  5  1  0  0  0  0
  4 20  1  0  0  0  0
  5  8  1  0  0  0  0
  6  9  1  0  0  0  0
  6  5  2  0  0  0  0
  7  6  1  0  0  0  0
 10  7  1  0  0  0  0
 11 12  2  0  0  0  0
 11 16  1  0  0  0  0
 12 13  1  0  0  0  0
 13  3  1  0  0  0  0
 13 14  2  0  0  0  0
 15 14  1  0  0  0  0
 15 19  1  0  0  0  0
 16 15  2  0  0  0  0
 17 11  1  0  0  0  0
 18 12  1  0  0  0  0
 20 21  1  0  0  0  0
 20 23  1  0  0  0  0
 22 20  1  0  0  0  0
M  END
>  <minimizedAffinity>
-4.59540606

$$$$

 OpenBabel03252502113D

 23 24  0  0  0  0  0  0  0  0999 V2000
   36.5440   25.0270   38.2360 Cl  0  0  0  0  0  0  0  0  0  0  0  0
   36.7320   25.5100   39.8970 C   0  0  0  0  0  0  0  0  0  0  0  0
   36.7950   26.8260   40.2630 C   0  0  0  0  0  0  0  0  0  0  0  0
   36.9450   27.0880   41.6080 C   0  0  0  0  0  0  0  0  0  0  0  0
   37.0270   26.0950   42.5400 C   0  0  0  0  0  0  0  0  0  0  0  0
   36.9640   24.7830   42.1780 C   0  0  0  0  0  0  0  0  0  0  0  0
   36.8140   24.5010   40.8320 C   0  0  0  0  0  0  0  0  0  0  0  0
   37.1450   26.4010   43.5810 H   0  0  0  0  0  0  0  0  0  0  0  0
   37.0270   23.9830   42.9050 H   0  0  0  0  0  0  0  0  0  0  0  0
   36.7650   23.4580   40.5480 H   0  0  0  0  0  0  0  0  0  0  0  0
   35.3980   29.2840   37.7540 C   0  0  0  0  0  0  0  0  0  0  0  0
   35.4830   28.3100   38.7480 C   0  0  0  0  0  0  0  0  0  0  0  0
   36.7030   27.8360   39.2310 C   0  0  0  0  0  0  0  0  0  0  0  0
   37.7940   28.3880   38.6660 N   0  0  0  0  0  0  0  0  0  0  0  0
   37.7170   29.3250   37.7100 C   0  0  0  0  0  0  0  0  0  0  0  0
   36.5440   29.7770   37.2500 N   0  0  0  0  0  0  0  0  0  0  0  0
   34.4140   29.5990   37.4330 H   0  0  0  0  0  0  0  0  0  0  0  0
   34.5700   27.9010   39.1670 H   0  0  0  0  0  0  0  0  0  0  0  0
   38.6050   29.7690   37.2560 H   0  0  0  0  0  0  0  0  0  0  0  0
   37.0150   28.5180   42.0170 C   0  0  0  0  0  0  0  0  0  0  0  0
   35.9070   29.2170   41.6010 F   0  0  0  0  0  0  0  0  0  0  0  0
   38.1650   29.1040   41.5630 F   0  0  0  0  0  0  0  0  0  0  0  0
   36.9610   28.5120   43.4140 F   0  0  0  0  0  0  0  0  0  0  0  0
  1  2  1  0  0  0  0
  2  3  2  0  0  0  0
  2  7  1  0  0  0  0
  3  4  1  0  0  0  0
  4 20  1  0  0  0  0
  4  5  2  0  0  0  0
  5  8  1  0  0  0  0
  6  5  1  0  0  0  0
  6  9  1  0  0  0  0
  7  6  2  0  0  0  0
 10  7  1  0  0  0  0
 11 12  1  0  0  0  0
 12 18  1  0  0  0  0
 12 13  2  0  0  0  0
 13  3  1  0  0  0  0
 14 13  1  0  0  0  0
 15 14  2  0  0  0  0
 16 15  1  0  0  0  0
 16 11  2  0  0  0  0
 17 11  1  0  0  0  0
 19 15  1  0  0  0  0
 20 23  1  0  0  0  0
 21 20  1  0  0  0  0
 22 20  1  0  0  0  0
M  END
>  <minimizedAffinity>
-4.52256918

$$$$

 OpenBabel03252502113D

 23 24  0  0  0  0  0  0  0  0999 V2000
   37.9390   27.6090   43.6220 Cl  0  0  0  0  0  0  0  0  0  0  0  0
   37.4070   26.6430   42.2770 C   0  0  0  0  0  0  0  0  0  0  0  0
   37.0710   27.2010   41.0750 C   0  0  0  0  0  0  0  0  0  0  0  0
   36.6630   26.3340   40.0830 C   0  0  0  0  0  0  0  0  0  0  0  0
   36.5930   24.9860   40.2750 C   0  0  0  0  0  0  0  0  0  0  0  0
   36.9280   24.4270   41.4710 C   0  0  0  0  0  0  0  0  0  0  0  0
   37.3400   25.2810   42.4800 C   0  0  0  0  0  0  0  0  0  0  0  0
   36.2590   24.3810   39.4300 H   0  0  0  0  0  0  0  0  0  0  0  0
   36.8800   23.3590   41.6400 H   0  0  0  0  0  0  0  0  0  0  0  0
   37.6050   24.8330   43.4290 H   0  0  0  0  0  0  0  0  0  0  0  0
   38.4150   30.6640   40.3760 C   0  0  0  0  0  0  0  0  0  0  0  0
   38.3300   29.2790   40.5160 C   0  0  0  0  0  0  0  0  0  0  0  0
   37.1630   28.6370   40.9300 C   0  0  0  0  0  0  0  0  0  0  0  0
   36.1230   29.4540   41.1870 N   0  0  0  0  0  0  0  0  0  0  0  0
   36.1990   30.7860   41.0550 C   0  0  0  0  0  0  0  0  0  0  0  0
   37.3210   31.3970   40.6560 N   0  0  0  0  0  0  0  0  0  0  0  0
   39.3560   31.0850   40.0490 H   0  0  0  0  0  0  0  0  0  0  0  0
   39.2000   28.6700   40.2940 H   0  0  0  0  0  0  0  0  0  0  0  0
   35.3530   31.4430   41.2640 H   0  0  0  0  0  0  0  0  0  0  0  0
   36.2930   26.9330   38.7710 C   0  0  0  0  0  0  0  0  0  0  0  0
   37.3790   27.5090   38.1550 F   0  0  0  0  0  0  0  0  0  0  0  0
   35.2720   27.8320   38.9090 F   0  0  0  0  0  0  0  0  0  0  0  0
   35.9200   25.8570   37.9590 F   0  0  0  0  0  0  0  0  0  0  0  0
  2  7  1  0  0  0  0
  2  1  1  0  0  0  0
  3  2  2  0  0  0  0
  4  5  2  0  0  0  0
  4  3  1  0  0  0  0
  5  6  1  0  0  0  0
  6  9  1  0  0  0  0
  6  7  2  0  0  0  0
  7 10  1  0  0  0  0
  8  5  1  0  0  0  0
 11 12  2  0  0  0  0
 11 16  1  0  0  0  0
 12 13  1  0  0  0  0
 13  3  1  0  0  0  0
 13 14  2  0  0  0  0
 15 14  1  0  0  0  0
 15 19  1  0  0  0  0
 16 15  2  0  0  0  0
 17 11  1  0  0  0  0
 18 12  1  0  0  0  0
 20 22  1  0  0  0  0
 20  4  1  0  0  0  0
 21 20  1  0  0  0  0
 23 20  1  0  0  0  0
M  END
>  <minimizedAffinity>
-4.51793242

$$$$
