
 OpenBabel03252509183D

 36 38  0  0  1  0  0  0  0  0999 V2000
   51.2320   28.1980   43.6480 C   0  0  1  0  0  0  0  0  0  0  0  0
   50.8210   27.9490   45.0590 C   0  0  0  0  0  0  0  0  0  0  0  0
   50.2500   26.5900   45.3200 C   0  0  0  0  0  0  0  0  0  0  0  0
   51.0260   25.4890   44.6370 C   0  0  0  0  0  0  0  0  0  0  0  0
   51.3650   25.8170   43.2070 C   0  0  0  0  0  0  0  0  0  0  0  0
   50.6160   27.0870   42.7720 C   0  0  2  0  0  0  0  0  0  0  0  0
   52.3220   28.0270   43.5600 H   0  0  0  0  0  0  0  0  0  0  0  0
   50.0050   28.6940   45.2960 H   0  0  0  0  0  0  0  0  0  0  0  0
   51.6350   28.2110   45.7790 H   0  0  0  0  0  0  0  0  0  0  0  0
   49.1760   26.5300   45.0610 H   0  0  0  0  0  0  0  0  0  0  0  0
   50.3350   26.3880   46.4170 H   0  0  0  0  0  0  0  0  0  0  0  0
   51.9850   25.2980   45.1850 H   0  0  0  0  0  0  0  0  0  0  0  0
   50.4330   24.5600   44.7360 H   0  0  0  0  0  0  0  0  0  0  0  0
   51.0430   24.9710   42.5600 H   0  0  0  0  0  0  0  0  0  0  0  0
   52.4310   25.9940   43.0580 H   0  0  0  0  0  0  0  0  0  0  0  0
   49.5390   26.9930   42.9100 H   0  0  0  0  0  0  0  0  0  0  0  0
   49.6140   31.8100   42.6010 C   0  0  0  0  0  0  0  0  0  0  0  0
   50.9880   31.7410   42.3160 C   0  0  0  0  0  0  0  0  0  0  0  0
   51.6340   30.5900   42.6110 C   0  0  0  0  0  0  0  0  0  0  0  0
   50.9310   29.5130   43.1860 C   0  0  0  0  0  0  0  0  0  0  0  0
   49.2390   30.1730   43.3160 S   0  0  0  0  0  0  0  0  0  0  0  0
   51.5320   32.5630   41.8760 H   0  0  0  0  0  0  0  0  0  0  0  0
   52.6740   30.3430   42.4700 H   0  0  0  0  0  0  0  0  0  0  0  0
   47.9770   34.8230   41.1550 C   0  0  0  0  0  0  0  0  0  0  0  0
   47.0470   35.1080   42.1870 C   0  0  0  0  0  0  0  0  0  0  0  0
   47.0210   34.2600   43.3250 C   0  0  0  0  0  0  0  0  0  0  0  0
   47.9090   33.2240   43.3370 N   0  0  0  0  0  0  0  0  0  0  0  0
   48.7770   32.9850   42.3360 C   0  0  0  0  0  0  0  0  0  0  0  0
   48.8000   33.7880   41.2580 N   0  0  0  0  0  0  0  0  0  0  0  0
   48.0200   35.4510   40.2730 H   0  0  0  0  0  0  0  0  0  0  0  0
   46.3760   35.9390   42.1180 H   0  0  0  0  0  0  0  0  0  0  0  0
   46.3310   34.4340   44.1400 H   0  0  0  0  0  0  0  0  0  0  0  0
   50.9990   27.3120   41.3180 C   0  0  0  0  0  0  0  0  0  0  0  0
   50.9350   26.1340   40.5970 F   0  0  0  0  0  0  0  0  0  0  0  0
   50.1850   28.2800   40.7750 F   0  0  0  0  0  0  0  0  0  0  0  0
   52.2900   27.7660   41.3000 F   0  0  0  0  0  0  0  0  0  0  0  0
  1  7  1  6  0  0  0
  1  2  1  0  0  0  0
  2  8  1  0  0  0  0
  2  3  1  0  0  0  0
  2  9  1  0  0  0  0
  3 11  1  0  0  0  0
  4 13  1  0  0  0  0
  4 12  1  0  0  0  0
  4  3  1  0  0  0  0
  5  4  1  0  0  0  0
  6 16  1  1  0  0  0
  6  5  1  0  0  0  0
  6  1  1  0  0  0  0
 10  3  1  0  0  0  0
 14  5  1  0  0  0  0
 15  5  1  0  0  0  0
 17 21  1  0  0  0  0
 18 17  2  0  0  0  0
 18 19  1  0  0  0  0
 19 20  2  0  0  0  0
 20 21  1  0  0  0  0
 20  1  1  0  0  0  0
 22 18  1  0  0  0  0
 23 19  1  0  0  0  0
 24 29  2  0  0  0  0
 24 25  1  0  0  0  0
 25 26  2  0  0  0  0
 26 27  1  0  0  0  0
 26 32  1  0  0  0  0
 28 17  1  0  0  0  0
 28 27  2  0  0  0  0
 29 28  1  0  0  0  0
 30 24  1  0  0  0  0
 31 25  1  0  0  0  0
 33  6  1  0  0  0  0
 34 33  1  0  0  0  0
 35 33  1  0  0  0  0
 36 33  1  0  0  0  0
M  END
>  <minimizedAffinity>
-2.50840306

>  <minimizedRMSD>
7.20336914

$$$$
