
 OpenBabel03252500533D

 19 19  0  0  0  0  0  0  0  0999 V2000
   38.1400   25.3950   42.5340 C   0  0  0  0  0  0  0  0  0  0  0  0
   38.0430   26.7190   42.9440 C   0  0  0  0  0  0  0  0  0  0  0  0
   39.2240   27.2360   43.5490 C   0  0  0  0  0  0  0  0  0  0  0  0
   40.3130   26.4390   43.6790 N   0  0  0  0  0  0  0  0  0  0  0  0
   40.3440   25.1640   43.2610 C   0  0  0  0  0  0  0  0  0  0  0  0
   39.2570   24.6570   42.6930 N   0  0  0  0  0  0  0  0  0  0  0  0
   39.3390   28.2370   43.9280 H   0  0  0  0  0  0  0  0  0  0  0  0
   41.1870   24.4960   43.3450 H   0  0  0  0  0  0  0  0  0  0  0  0
   36.9510   27.6800   42.8450 C   0  0  0  0  0  0  0  0  0  0  0  0
   35.8710   27.2770   43.6800 F   0  0  0  0  0  0  0  0  0  0  0  0
   36.4100   27.8950   41.6290 F   0  0  0  0  0  0  0  0  0  0  0  0
   37.2960   28.8760   43.5270 F   0  0  0  0  0  0  0  0  0  0  0  0
   36.9400   24.7980   41.9250 C   0  0  0  0  0  0  0  0  0  0  0  0
   36.3050   24.3510   42.7060 H   0  0  0  0  0  0  0  0  0  0  0  0
   36.2830   25.5470   41.4310 H   0  0  0  0  0  0  0  0  0  0  0  0
   37.3450   23.6880   40.9920 C   0  0  0  0  0  0  0  0  0  0  0  0
   38.3150   23.2370   41.2490 H   0  0  0  0  0  0  0  0  0  0  0  0
   36.6330   22.7870   41.1410 H   0  0  0  0  0  0  0  0  0  0  0  0
   37.1740   23.9360   39.9310 H   0  0  0  0  0  0  0  0  0  0  0  0
  1  6  2  0  0  0  0
  1  2  1  0  0  0  0
  2  3  2  0  0  0  0
  3  4  1  0  0  0  0
  3  7  1  0  0  0  0
  5  8  1  0  0  0  0
  5  4  2  0  0  0  0
  6  5  1  0  0  0  0
  9  2  1  0  0  0  0
  9 12  1  0  0  0  0
  9 10  1  0  0  0  0
 11  9  1  0  0  0  0
 13  1  1  0  0  0  0
 13 14  1  0  0  0  0
 15 13  1  0  0  0  0
 16 18  1  0  0  0  0
 16 17  1  0  0  0  0
 16 13  1  0  0  0  0
 19 16  1  0  0  0  0
M  END
>  <minimizedAffinity>
-4.12561893

$$$$

 OpenBabel03252500533D

 19 19  0  0  0  0  0  0  0  0999 V2000
   36.7810   29.4600   41.3600 C   0  0  0  0  0  0  0  0  0  0  0  0
   37.4200   28.6960   42.3280 C   0  0  0  0  0  0  0  0  0  0  0  0
   38.6510   29.2440   42.7920 C   0  0  0  0  0  0  0  0  0  0  0  0
   39.0960   30.4170   42.2800 N   0  0  0  0  0  0  0  0  0  0  0  0
   38.4300   31.1090   41.3420 C   0  0  0  0  0  0  0  0  0  0  0  0
   37.2800   30.6230   40.8930 N   0  0  0  0  0  0  0  0  0  0  0  0
   39.2860   28.7970   43.5370 H   0  0  0  0  0  0  0  0  0  0  0  0
   38.7470   32.0450   40.9080 H   0  0  0  0  0  0  0  0  0  0  0  0
   37.0420   27.4440   42.9710 C   0  0  0  0  0  0  0  0  0  0  0  0
   36.9130   26.4160   41.9950 F   0  0  0  0  0  0  0  0  0  0  0  0
   35.8950   27.4200   43.6790 F   0  0  0  0  0  0  0  0  0  0  0  0
   38.1510   26.9100   43.6790 F   0  0  0  0  0  0  0  0  0  0  0  0
   35.5160   28.9310   40.8240 C   0  0  0  0  0  0  0  0  0  0  0  0
   35.4210   27.8620   41.0730 H   0  0  0  0  0  0  0  0  0  0  0  0
   34.6180   29.4000   41.2820 H   0  0  0  0  0  0  0  0  0  0  0  0
   35.5160   29.0400   39.3220 C   0  0  0  0  0  0  0  0  0  0  0  0
   36.5280   29.0500   38.8890 H   0  0  0  0  0  0  0  0  0  0  0  0
   35.0880   28.0650   38.8700 H   0  0  0  0  0  0  0  0  0  0  0  0
   34.8040   29.7950   38.9480 H   0  0  0  0  0  0  0  0  0  0  0  0
  1  2  1  0  0  0  0
  2  3  2  0  0  0  0
  2  9  1  0  0  0  0
  3  7  1  0  0  0  0
  4  3  1  0  0  0  0
  5  4  2  0  0  0  0
  6  5  1  0  0  0  0
  6  1  2  0  0  0  0
  8  5  1  0  0  0  0
  9 12  1  0  0  0  0
  9 11  1  0  0  0  0
 10  9  1  0  0  0  0
 13 14  1  0  0  0  0
 13 15  1  0  0  0  0
 13  1  1  0  0  0  0
 16 13  1  0  0  0  0
 17 16  1  0  0  0  0
 18 16  1  0  0  0  0
 19 16  1  0  0  0  0
M  END
>  <minimizedAffinity>
-3.92924237

$$$$

 OpenBabel03252500533D

 19 19  0  0  0  0  0  0  0  0999 V2000
   39.1710   27.5990   43.2670 C   0  0  0  0  0  0  0  0  0  0  0  0
   38.4100   26.5000   42.8870 C   0  0  0  0  0  0  0  0  0  0  0  0
   39.1120   25.2610   42.9120 C   0  0  0  0  0  0  0  0  0  0  0  0
   40.4140   25.2380   43.2860 N   0  0  0  0  0  0  0  0  0  0  0  0
   41.0960   26.3380   43.6420 C   0  0  0  0  0  0  0  0  0  0  0  0
   40.4660   27.5050   43.6290 N   0  0  0  0  0  0  0  0  0  0  0  0
   38.6910   24.3050   42.6520 H   0  0  0  0  0  0  0  0  0  0  0  0
   42.1310   26.3640   43.9460 H   0  0  0  0  0  0  0  0  0  0  0  0
   37.0120   26.3890   42.4880 C   0  0  0  0  0  0  0  0  0  0  0  0
   36.6200   25.0210   42.4700 F   0  0  0  0  0  0  0  0  0  0  0  0
   36.6580   26.8860   41.2860 F   0  0  0  0  0  0  0  0  0  0  0  0
   36.1720   26.8240   43.5470 F   0  0  0  0  0  0  0  0  0  0  0  0
   38.5050   28.9110   43.2350 C   0  0  0  0  0  0  0  0  0  0  0  0
   37.5560   28.8380   42.6820 H   0  0  0  0  0  0  0  0  0  0  0  0
   38.2080   29.2750   44.2430 H   0  0  0  0  0  0  0  0  0  0  0  0
   39.3710   29.9010   42.5020 C   0  0  0  0  0  0  0  0  0  0  0  0
   40.0540   29.4290   41.7800 H   0  0  0  0  0  0  0  0  0  0  0  0
   38.7090   30.5390   41.8000 H   0  0  0  0  0  0  0  0  0  0  0  0
   39.8000   30.6700   43.1670 H   0  0  0  0  0  0  0  0  0  0  0  0
  1  6  1  0  0  0  0
  2  3  1  0  0  0  0
  2  1  2  0  0  0  0
  3  4  2  0  0  0  0
  4  5  1  0  0  0  0
  5  8  1  0  0  0  0
  6  5  2  0  0  0  0
  7  3  1  0  0  0  0
  9  2  1  0  0  0  0
  9 12  1  0  0  0  0
 10  9  1  0  0  0  0
 11  9  1  0  0  0  0
 13  1  1  0  0  0  0
 13 15  1  0  0  0  0
 14 13  1  0  0  0  0
 16 19  1  0  0  0  0
 16 13  1  0  0  0  0
 17 16  1  0  0  0  0
 18 16  1  0  0  0  0
M  END
>  <minimizedAffinity>
-3.91442394

$$$$

 OpenBabel03252500533D

 19 19  0  0  0  0  0  0  0  0999 V2000
   37.6810   29.6590   42.0350 C   0  0  0  0  0  0  0  0  0  0  0  0
   36.8840   28.5260   41.9190 C   0  0  0  0  0  0  0  0  0  0  0  0
   35.8250   28.6460   40.9750 C   0  0  0  0  0  0  0  0  0  0  0  0
   35.6710   29.8020   40.2850 N   0  0  0  0  0  0  0  0  0  0  0  0
   36.4760   30.8650   40.4440 C   0  0  0  0  0  0  0  0  0  0  0  0
   37.4720   30.7800   41.3160 N   0  0  0  0  0  0  0  0  0  0  0  0
   35.1070   27.8770   40.7480 H   0  0  0  0  0  0  0  0  0  0  0  0
   36.3900   31.8020   39.9170 H   0  0  0  0  0  0  0  0  0  0  0  0
   36.9550   27.2280   42.5780 C   0  0  0  0  0  0  0  0  0  0  0  0
   36.5730   26.2000   41.6700 F   0  0  0  0  0  0  0  0  0  0  0  0
   36.2010   27.0380   43.6800 F   0  0  0  0  0  0  0  0  0  0  0  0
   38.3120   26.8480   42.7520 F   0  0  0  0  0  0  0  0  0  0  0  0
   38.7770   29.6030   43.0160 C   0  0  0  0  0  0  0  0  0  0  0  0
   38.6760   30.4270   43.7390 H   0  0  0  0  0  0  0  0  0  0  0  0
   38.7560   28.6840   43.6420 H   0  0  0  0  0  0  0  0  0  0  0  0
   40.0950   29.7860   42.3130 C   0  0  0  0  0  0  0  0  0  0  0  0
   40.0090   30.3440   41.3690 H   0  0  0  0  0  0  0  0  0  0  0  0
   40.7620   30.4990   42.9350 H   0  0  0  0  0  0  0  0  0  0  0  0
   40.7040   28.8660   42.2970 H   0  0  0  0  0  0  0  0  0  0  0  0
  1 13  1  0  0  0  0
  2  1  1  0  0  0  0
  2  9  1  0  0  0  0
  3  2  2  0  0  0  0
  4  5  2  0  0  0  0
  4  3  1  0  0  0  0
  5  6  1  0  0  0  0
  6  1  2  0  0  0  0
  7  3  1  0  0  0  0
  8  5  1  0  0  0  0
  9 12  1  0  0  0  0
  9 11  1  0  0  0  0
 10  9  1  0  0  0  0
 13 15  1  0  0  0  0
 13 14  1  0  0  0  0
 16 18  1  0  0  0  0
 16 13  1  0  0  0  0
 17 16  1  0  0  0  0
 19 16  1  0  0  0  0
M  END
>  <minimizedAffinity>
-3.85669398

$$$$

 OpenBabel03252500533D

 19 19  0  0  0  0  0  0  0  0999 V2000
   39.0850   28.1720   42.9890 C   0  0  0  0  0  0  0  0  0  0  0  0
   37.8380   28.4620   42.4500 C   0  0  0  0  0  0  0  0  0  0  0  0
   37.7520   29.7350   41.8160 C   0  0  0  0  0  0  0  0  0  0  0  0
   38.8420   30.5410   41.7840 N   0  0  0  0  0  0  0  0  0  0  0  0
   40.0220   30.2020   42.3260 C   0  0  0  0  0  0  0  0  0  0  0  0
   40.1300   29.0210   42.9220 N   0  0  0  0  0  0  0  0  0  0  0  0
   36.8710   30.1340   41.3440 H   0  0  0  0  0  0  0  0  0  0  0  0
   40.9130   30.8110   42.3230 H   0  0  0  0  0  0  0  0  0  0  0  0
   36.6070   27.6840   42.3980 C   0  0  0  0  0  0  0  0  0  0  0  0
   35.6220   28.3800   41.6410 F   0  0  0  0  0  0  0  0  0  0  0  0
   36.0120   27.3680   43.5660 F   0  0  0  0  0  0  0  0  0  0  0  0
   36.7750   26.5710   41.5330 F   0  0  0  0  0  0  0  0  0  0  0  0
   39.2260   26.8800   43.6800 C   0  0  0  0  0  0  0  0  0  0  0  0
   39.0840   27.0160   44.7640 H   0  0  0  0  0  0  0  0  0  0  0  0
   38.4460   26.1420   43.3900 H   0  0  0  0  0  0  0  0  0  0  0  0
   40.6200   26.3470   43.4780 C   0  0  0  0  0  0  0  0  0  0  0  0
   41.3610   27.1360   43.2800 H   0  0  0  0  0  0  0  0  0  0  0  0
   41.0120   25.9180   44.4790 H   0  0  0  0  0  0  0  0  0  0  0  0
   40.6480   25.4580   42.8260 H   0  0  0  0  0  0  0  0  0  0  0  0
  1 13  1  0  0  0  0
  2  1  2  0  0  0  0
  3  2  1  0  0  0  0
  4  3  2  0  0  0  0
  4  5  1  0  0  0  0
  5  6  2  0  0  0  0
  6  1  1  0  0  0  0
  7  3  1  0  0  0  0
  8  5  1  0  0  0  0
  9  2  1  0  0  0  0
  9 11  1  0  0  0  0
 10  9  1  0  0  0  0
 12  9  1  0  0  0  0
 13 14  1  0  0  0  0
 15 13  1  0  0  0  0
 16 13  1  0  0  0  0
 16 18  1  0  0  0  0
 17 16  1  0  0  0  0
 19 16  1  0  0  0  0
M  END
>  <minimizedAffinity>
-3.74924088

$$$$

 OpenBabel03252500533D

 19 19  0  0  0  0  0  0  0  0999 V2000
   38.3770   29.4310   42.2420 C   0  0  0  0  0  0  0  0  0  0  0  0
   37.1100   29.1660   41.7350 C   0  0  0  0  0  0  0  0  0  0  0  0
   36.5320   27.9510   42.2030 C   0  0  0  0  0  0  0  0  0  0  0  0
   37.2240   27.1710   43.0700 N   0  0  0  0  0  0  0  0  0  0  0  0
   38.4480   27.4840   43.5230 C   0  0  0  0  0  0  0  0  0  0  0  0
   39.0100   28.6110   43.1040 N   0  0  0  0  0  0  0  0  0  0  0  0
   35.5620   27.5780   41.9230 H   0  0  0  0  0  0  0  0  0  0  0  0
   39.0330   26.8940   44.2110 H   0  0  0  0  0  0  0  0  0  0  0  0
   36.2590   29.9230   40.8260 C   0  0  0  0  0  0  0  0  0  0  0  0
   34.9700   29.3220   40.7530 F   0  0  0  0  0  0  0  0  0  0  0  0
   36.6680   30.0630   39.5500 F   0  0  0  0  0  0  0  0  0  0  0  0
   35.8740   31.1480   41.4320 F   0  0  0  0  0  0  0  0  0  0  0  0
   39.0350   30.6620   41.7730 C   0  0  0  0  0  0  0  0  0  0  0  0
   39.4320   30.5110   40.7560 H   0  0  0  0  0  0  0  0  0  0  0  0
   38.3350   31.5200   41.6710 H   0  0  0  0  0  0  0  0  0  0  0  0
   40.2060   30.9810   42.6640 C   0  0  0  0  0  0  0  0  0  0  0  0
   40.6210   30.0950   43.1670 H   0  0  0  0  0  0  0  0  0  0  0  0
   41.1030   31.3090   42.0110 H   0  0  0  0  0  0  0  0  0  0  0  0
   40.0400   31.8780   43.2850 H   0  0  0  0  0  0  0  0  0  0  0  0
  1  6  1  0  0  0  0
  2  3  1  0  0  0  0
  2  1  2  0  0  0  0
  3  4  2  0  0  0  0
  4  5  1  0  0  0  0
  5  8  1  0  0  0  0
  6  5  2  0  0  0  0
  7  3  1  0  0  0  0
  9 12  1  0  0  0  0
  9  2  1  0  0  0  0
 10  9  1  0  0  0  0
 11  9  1  0  0  0  0
 13  1  1  0  0  0  0
 13 16  1  0  0  0  0
 14 13  1  0  0  0  0
 15 13  1  0  0  0  0
 16 17  1  0  0  0  0
 16 19  1  0  0  0  0
 18 16  1  0  0  0  0
M  END
>  <minimizedAffinity>
-3.68830967

$$$$

 OpenBabel03252500533D

 19 19  0  0  0  0  0  0  0  0999 V2000
   37.5820   26.2100   42.5440 C   0  0  0  0  0  0  0  0  0  0  0  0
   38.9090   26.2150   42.9580 C   0  0  0  0  0  0  0  0  0  0  0  0
   39.4030   27.4960   43.3340 C   0  0  0  0  0  0  0  0  0  0  0  0
   38.5860   28.5760   43.2650 N   0  0  0  0  0  0  0  0  0  0  0  0
   37.3090   28.5050   42.8560 C   0  0  0  0  0  0  0  0  0  0  0  0
   36.8230   27.3230   42.5010 N   0  0  0  0  0  0  0  0  0  0  0  0
   40.4030   27.6990   43.6790 H   0  0  0  0  0  0  0  0  0  0  0  0
   36.6250   29.3360   42.7860 H   0  0  0  0  0  0  0  0  0  0  0  0
   39.8780   25.1350   43.0960 C   0  0  0  0  0  0  0  0  0  0  0  0
   40.3890   24.7730   41.8180 F   0  0  0  0  0  0  0  0  0  0  0  0
   39.4630   23.9840   43.6610 F   0  0  0  0  0  0  0  0  0  0  0  0
   41.0820   25.6360   43.6580 F   0  0  0  0  0  0  0  0  0  0  0  0
   37.0240   24.9160   42.1190 C   0  0  0  0  0  0  0  0  0  0  0  0
   37.6870   24.0970   42.4400 H   0  0  0  0  0  0  0  0  0  0  0  0
   36.0470   24.6830   42.5980 H   0  0  0  0  0  0  0  0  0  0  0  0
   36.9510   24.8660   40.6160 C   0  0  0  0  0  0  0  0  0  0  0  0
   37.6820   25.5250   40.1240 H   0  0  0  0  0  0  0  0  0  0  0  0
   37.3070   23.8260   40.2530 H   0  0  0  0  0  0  0  0  0  0  0  0
   35.9150   24.8940   40.2360 H   0  0  0  0  0  0  0  0  0  0  0  0
  1  2  1  0  0  0  0
  2  9  1  0  0  0  0
  2  3  2  0  0  0  0
  3  7  1  0  0  0  0
  4  3  1  0  0  0  0
  5  4  2  0  0  0  0
  6  1  2  0  0  0  0
  6  5  1  0  0  0  0
  8  5  1  0  0  0  0
  9 12  1  0  0  0  0
  9 11  1  0  0  0  0
 10  9  1  0  0  0  0
 13 14  1  0  0  0  0
 13  1  1  0  0  0  0
 13 15  1  0  0  0  0
 16 13  1  0  0  0  0
 17 16  1  0  0  0  0
 18 16  1  0  0  0  0
 19 16  1  0  0  0  0
M  END
>  <minimizedAffinity>
-3.68806076

$$$$

 OpenBabel03252500533D

 19 19  0  0  0  0  0  0  0  0999 V2000
   36.9490   25.9060   41.0430 C   0  0  0  0  0  0  0  0  0  0  0  0
   37.0760   27.1740   41.5970 C   0  0  0  0  0  0  0  0  0  0  0  0
   37.0680   28.2350   40.6470 C   0  0  0  0  0  0  0  0  0  0  0  0
   36.9440   27.9510   39.3270 N   0  0  0  0  0  0  0  0  0  0  0  0
   36.8250   26.7010   38.8530 C   0  0  0  0  0  0  0  0  0  0  0  0
   36.8280   25.6930   39.7170 N   0  0  0  0  0  0  0  0  0  0  0  0
   37.1560   29.2810   40.8850 H   0  0  0  0  0  0  0  0  0  0  0  0
   36.7240   26.4300   37.8140 H   0  0  0  0  0  0  0  0  0  0  0  0
   37.1940   27.6120   42.9820 C   0  0  0  0  0  0  0  0  0  0  0  0
   37.2010   29.0340   43.0440 F   0  0  0  0  0  0  0  0  0  0  0  0
   38.2760   27.2120   43.6800 F   0  0  0  0  0  0  0  0  0  0  0  0
   35.9690   27.3880   43.6650 F   0  0  0  0  0  0  0  0  0  0  0  0
   36.9760   24.7680   41.9750 C   0  0  0  0  0  0  0  0  0  0  0  0
   36.7590   25.1150   42.9980 H   0  0  0  0  0  0  0  0  0  0  0  0
   36.1850   24.0140   41.7670 H   0  0  0  0  0  0  0  0  0  0  0  0
   38.3540   24.1610   41.9940 C   0  0  0  0  0  0  0  0  0  0  0  0
   39.1440   24.8730   41.7110 H   0  0  0  0  0  0  0  0  0  0  0  0
   38.6490   23.9210   43.0870 H   0  0  0  0  0  0  0  0  0  0  0  0
   38.3890   23.1620   41.5270 H   0  0  0  0  0  0  0  0  0  0  0  0
  1  2  1  0  0  0  0
  1 13  1  0  0  0  0
  2  9  1  0  0  0  0
  3  7  1  0  0  0  0
  3  2  2  0  0  0  0
  4  3  1  0  0  0  0
  5  4  2  0  0  0  0
  5  6  1  0  0  0  0
  6  1  2  0  0  0  0
  8  5  1  0  0  0  0
  9 10  1  0  0  0  0
  9 12  1  0  0  0  0
  9 11  1  0  0  0  0
 13 16  1  0  0  0  0
 13 14  1  0  0  0  0
 15 13  1  0  0  0  0
 16 18  1  0  0  0  0
 17 16  1  0  0  0  0
 19 16  1  0  0  0  0
M  END
>  <minimizedAffinity>
-3.68651581

$$$$

 OpenBabel03252500533D

 19 19  0  0  0  0  0  0  0  0999 V2000
   37.3210   28.6670   42.4110 C   0  0  0  0  0  0  0  0  0  0  0  0
   36.9050   29.2520   41.2210 C   0  0  0  0  0  0  0  0  0  0  0  0
   37.6910   30.3650   40.8070 C   0  0  0  0  0  0  0  0  0  0  0  0
   38.7420   30.7610   41.5650 N   0  0  0  0  0  0  0  0  0  0  0  0
   39.0940   30.1520   42.7090 C   0  0  0  0  0  0  0  0  0  0  0  0
   38.3790   29.1120   43.1180 N   0  0  0  0  0  0  0  0  0  0  0  0
   37.5230   30.9450   39.9160 H   0  0  0  0  0  0  0  0  0  0  0  0
   39.9210   30.4340   43.3420 H   0  0  0  0  0  0  0  0  0  0  0  0
   35.8190   28.9140   40.3100 C   0  0  0  0  0  0  0  0  0  0  0  0
   35.8420   29.7810   39.1820 F   0  0  0  0  0  0  0  0  0  0  0  0
   34.5580   28.9680   40.7850 F   0  0  0  0  0  0  0  0  0  0  0  0
   36.1150   27.7000   39.6360 F   0  0  0  0  0  0  0  0  0  0  0  0
   36.5300   27.5260   42.9030 C   0  0  0  0  0  0  0  0  0  0  0  0
   36.5040   27.5350   44.0040 H   0  0  0  0  0  0  0  0  0  0  0  0
   35.4610   27.5750   42.6020 H   0  0  0  0  0  0  0  0  0  0  0  0
   37.1850   26.2370   42.4830 C   0  0  0  0  0  0  0  0  0  0  0  0
   38.2680   26.3360   42.3140 H   0  0  0  0  0  0  0  0  0  0  0  0
   37.1630   25.4940   43.3700 H   0  0  0  0  0  0  0  0  0  0  0  0
   36.6070   25.6920   41.7180 H   0  0  0  0  0  0  0  0  0  0  0  0
  1 13  1  0  0  0  0
  1  6  1  0  0  0  0
  2  1  2  0  0  0  0
  3  2  1  0  0  0  0
  3  4  2  0  0  0  0
  4  5  1  0  0  0  0
  5  6  2  0  0  0  0
  5  8  1  0  0  0  0
  7  3  1  0  0  0  0
  9 11  1  0  0  0  0
  9  2  1  0  0  0  0
 10  9  1  0  0  0  0
 12  9  1  0  0  0  0
 13 14  1  0  0  0  0
 15 13  1  0  0  0  0
 16 13  1  0  0  0  0
 16 18  1  0  0  0  0
 17 16  1  0  0  0  0
 19 16  1  0  0  0  0
M  END
>  <minimizedAffinity>
-3.67479992

$$$$
