
 OpenBabel03252508323D

 27 28  0  0  1  0  0  0  0  0999 V2000
   45.4380   34.3270   42.0690 N   0  0  0  0  0  0  0  0  0  0  0  0
   46.6080   33.8660   41.4120 C   0  0  1  0  0  0  0  0  0  0  0  0
   46.5060   33.7280   39.9290 C   0  0  0  0  0  0  0  0  0  0  0  0
   45.2530   33.5120   39.3470 N   0  0  0  0  0  0  0  0  0  0  0  0
   44.1220   33.9600   40.0460 C   0  0  0  0  0  0  0  0  0  0  0  0
   44.4770   34.8840   41.1710 C   0  0  0  0  0  0  0  0  0  0  0  0
   46.9250   32.8910   41.8330 H   0  0  0  0  0  0  0  0  0  0  0  0
   46.9230   34.6760   39.4660 H   0  0  0  0  0  0  0  0  0  0  0  0
   47.1850   32.8940   39.6120 H   0  0  0  0  0  0  0  0  0  0  0  0
   45.2300   33.8700   38.3740 H   0  0  0  0  0  0  0  0  0  0  0  0
   43.6680   33.0540   40.5470 H   0  0  0  0  0  0  0  0  0  0  0  0
   43.3080   34.3800   39.4450 H   0  0  0  0  0  0  0  0  0  0  0  0
   43.5920   35.3590   41.6260 H   0  0  0  0  0  0  0  0  0  0  0  0
   45.0030   35.7570   40.6750 H   0  0  0  0  0  0  0  0  0  0  0  0
   44.7280   35.3030   44.1210 C   0  0  0  0  0  0  0  0  0  0  0  0
   45.3500   34.2150   43.4710 C   0  0  0  0  0  0  0  0  0  0  0  0
   45.8410   33.1790   44.2400 C   0  0  0  0  0  0  0  0  0  0  0  0
   45.7370   33.1950   45.5950 N   0  0  0  0  0  0  0  0  0  0  0  0
   45.1310   34.2610   46.2110 C   0  0  0  0  0  0  0  0  0  0  0  0
   44.6400   35.2870   45.4850 N   0  0  0  0  0  0  0  0  0  0  0  0
   44.2880   36.1900   43.7160 H   0  0  0  0  0  0  0  0  0  0  0  0
   46.2950   32.3440   43.7760 H   0  0  0  0  0  0  0  0  0  0  0  0
   45.0460   34.2760   47.2960 H   0  0  0  0  0  0  0  0  0  0  0  0
   47.7880   34.8430   41.6240 C   0  0  0  0  0  0  0  0  0  0  0  0
   47.4460   36.0050   42.2170 F   0  0  0  0  0  0  0  0  0  0  0  0
   48.2840   35.1980   40.3610 F   0  0  0  0  0  0  0  0  0  0  0  0
   48.8350   34.1820   42.2360 F   0  0  0  0  0  0  0  0  0  0  0  0
  1 16  1  0  0  0  0
  2 24  1  0  0  0  0
  2  7  1  1  0  0  0
  2  1  1  0  0  0  0
  3  2  1  0  0  0  0
  4  3  1  0  0  0  0
  4  5  1  0  0  0  0
  5 11  1  0  0  0  0
  5  6  1  0  0  0  0
  6 13  1  0  0  0  0
  6  1  1  0  0  0  0
  8  3  1  0  0  0  0
  9  3  1  0  0  0  0
 10  4  1  0  0  0  0
 12  5  1  0  0  0  0
 14  6  1  0  0  0  0
 15 20  1  0  0  0  0
 16 15  2  0  0  0  0
 16 17  1  0  0  0  0
 17 18  2  0  0  0  0
 18 19  1  0  0  0  0
 19 23  1  0  0  0  0
 20 19  2  0  0  0  0
 21 15  1  0  0  0  0
 22 17  1  0  0  0  0
 24 25  1  0  0  0  0
 24 27  1  0  0  0  0
 26 24  1  0  0  0  0
M  END
>  <minimizedAffinity>
-4.54574442

>  <minimizedRMSD>
1.92206514

$$$$
