
 OpenBabel03252506513D

 26 28  0  0  0  0  0  0  0  0999 V2000
   47.2630   31.3930   45.1660 C   0  0  0  0  0  0  0  0  0  0  0  0
   46.8750   32.7070   45.1300 C   0  0  0  0  0  0  0  0  0  0  0  0
   46.2340   33.3310   46.1960 C   0  0  0  0  0  0  0  0  0  0  0  0
   45.9640   32.6130   47.3600 C   0  0  0  0  0  0  0  0  0  0  0  0
   45.3850   32.8580   48.5560 N   0  0  0  0  0  0  0  0  0  0  0  0
   45.4160   31.7290   49.3030 C   0  0  0  0  0  0  0  0  0  0  0  0
   46.0210   30.7870   48.5540 N   0  0  0  0  0  0  0  0  0  0  0  0
   46.3750   31.2820   47.3540 C   0  0  0  0  0  0  0  0  0  0  0  0
   47.0050   30.6590   46.3130 C   0  0  0  0  0  0  0  0  0  0  0  0
   47.7500   30.9560   44.3300 H   0  0  0  0  0  0  0  0  0  0  0  0
   45.9220   34.3730   46.1790 H   0  0  0  0  0  0  0  0  0  0  0  0
   44.9920   33.7910   48.8070 H   0  0  0  0  0  0  0  0  0  0  0  0
   45.0160   31.6440   50.3110 H   0  0  0  0  0  0  0  0  0  0  0  0
   46.4870   35.1940   42.4350 C   0  0  0  0  0  0  0  0  0  0  0  0
   47.6670   35.0260   41.7030 C   0  0  0  0  0  0  0  0  0  0  0  0
   48.5830   34.0600   42.1440 C   0  0  0  0  0  0  0  0  0  0  0  0
   48.2790   33.3310   43.2640 N   0  0  0  0  0  0  0  0  0  0  0  0
   47.1240   33.5250   43.9460 C   0  0  0  0  0  0  0  0  0  0  0  0
   46.2550   34.4420   43.5280 N   0  0  0  0  0  0  0  0  0  0  0  0
   45.7980   35.9460   42.0730 H   0  0  0  0  0  0  0  0  0  0  0  0
   47.9540   35.5640   40.8250 H   0  0  0  0  0  0  0  0  0  0  0  0
   49.5260   33.8420   41.6610 H   0  0  0  0  0  0  0  0  0  0  0  0
   47.3960   29.2220   46.4300 C   0  0  0  0  0  0  0  0  0  0  0  0
   46.2640   28.4730   46.6650 F   0  0  0  0  0  0  0  0  0  0  0  0
   48.0110   28.7940   45.2760 F   0  0  0  0  0  0  0  0  0  0  0  0
   48.2570   29.0380   47.4910 F   0  0  0  0  0  0  0  0  0  0  0  0
  1  9  1  0  0  0  0
  2  1  2  0  0  0  0
  2  3  1  0  0  0  0
  3  4  2  0  0  0  0
  4  5  1  0  0  0  0
  5 12  1  0  0  0  0
  5  6  1  0  0  0  0
  6 13  1  0  0  0  0
  7  6  2  0  0  0  0
  8  4  1  0  0  0  0
  8  7  1  0  0  0  0
  9 23  1  0  0  0  0
  9  8  2  0  0  0  0
 10  1  1  0  0  0  0
 11  3  1  0  0  0  0
 14 19  1  0  0  0  0
 15 16  1  0  0  0  0
 15 14  2  0  0  0  0
 16 17  2  0  0  0  0
 17 18  1  0  0  0  0
 18  2  1  0  0  0  0
 19 18  2  0  0  0  0
 20 14  1  0  0  0  0
 21 15  1  0  0  0  0
 22 16  1  0  0  0  0
 23 24  1  0  0  0  0
 23 26  1  0  0  0  0
 25 23  1  0  0  0  0
M  END
>  <minimizedAffinity>
-5.14266443

>  <minimizedRMSD>
0.178693041

$$$$
