
 OpenBabel03252509203D

 20 21  0  0  0  0  0  0  0  0999 V2000
   45.4530   33.9910   44.7590 C   0  0  0  0  0  0  0  0  0  0  0  0
   45.7550   34.8270   43.6350 C   0  0  0  0  0  0  0  0  0  0  0  0
   46.9260   34.4880   42.9880 C   0  0  0  0  0  0  0  0  0  0  0  0
   47.7210   33.4330   43.4000 N   0  0  0  0  0  0  0  0  0  0  0  0
   47.3760   32.6780   44.4720 C   0  0  0  0  0  0  0  0  0  0  0  0
   46.2470   32.9680   45.1370 N   0  0  0  0  0  0  0  0  0  0  0  0
   44.5770   34.1510   45.3420 H   0  0  0  0  0  0  0  0  0  0  0  0
   48.1320   31.9200   44.6100 H   0  0  0  0  0  0  0  0  0  0  0  0
   47.2670   35.2490   41.7350 C   0  0  0  0  0  0  0  0  0  0  0  0
   48.7600   35.6090   41.7020 C   0  0  0  0  0  0  0  0  0  0  0  0
   48.0680   34.6030   40.7370 C   0  0  0  0  0  0  0  0  0  0  0  0
   46.6620   36.1530   41.5890 H   0  0  0  0  0  0  0  0  0  0  0  0
   49.3770   35.1990   42.5040 H   0  0  0  0  0  0  0  0  0  0  0  0
   49.0880   36.5510   41.2600 H   0  0  0  0  0  0  0  0  0  0  0  0
   48.0610   34.9340   39.6560 H   0  0  0  0  0  0  0  0  0  0  0  0
   48.4950   33.5690   40.8530 H   0  0  0  0  0  0  0  0  0  0  0  0
   44.8330   35.9050   43.2930 C   0  0  0  0  0  0  0  0  0  0  0  0
   45.4890   37.1170   43.2150 F   0  0  0  0  0  0  0  0  0  0  0  0
   43.7560   35.9580   44.1520 F   0  0  0  0  0  0  0  0  0  0  0  0
   44.3110   35.6740   42.0340 F   0  0  0  0  0  0  0  0  0  0  0  0
  1  6  1  0  0  0  0
  1  7  1  0  0  0  0
  2  1  2  0  0  0  0
  3  4  2  0  0  0  0
  3  2  1  0  0  0  0
  4  5  1  0  0  0  0
  5  8  1  0  0  0  0
  5  6  2  0  0  0  0
  9  3  1  0  0  0  0
 10  9  1  0  0  0  0
 10 13  1  0  0  0  0
 11 16  1  0  0  0  0
 11 10  1  0  0  0  0
 11  9  1  0  0  0  0
 12  9  1  0  0  0  0
 14 10  1  0  0  0  0
 15 11  1  0  0  0  0
 17  2  1  0  0  0  0
 17 19  1  0  0  0  0
 18 17  1  0  0  0  0
 20 17  1  0  0  0  0
M  END
>  <minimizedAffinity>
-4.56495476

>  <minimizedRMSD>
1.66728055

$$$$
