
 OpenBabel03242522253D

 37 39  0  0  1  0  0  0  0  0999 V2000
   45.0620   34.6590   45.4220 C   0  0  0  0  0  0  0  0  0  0  0  0
   45.5980   34.9010   44.1500 C   0  0  0  0  0  0  0  0  0  0  0  0
   46.5170   34.0310   43.5800 C   0  0  0  0  0  0  0  0  0  0  0  0
   46.8800   32.9300   44.3060 N   0  0  0  0  0  0  0  0  0  0  0  0
   46.3560   32.7150   45.5220 C   0  0  0  0  0  0  0  0  0  0  0  0
   45.4690   33.5520   46.0740 N   0  0  0  0  0  0  0  0  0  0  0  0
   44.3590   35.3460   45.8310 H   0  0  0  0  0  0  0  0  0  0  0  0
   45.3070   35.7700   43.5850 H   0  0  0  0  0  0  0  0  0  0  0  0
   46.8160   31.4890   46.2430 C   0  0  2  0  0  0  0  0  0  0  0  0
   46.6570   30.2540   45.3780 C   0  0  0  0  0  0  0  0  0  0  0  0
   45.2920   29.6560   45.6860 C   0  0  0  0  0  0  0  0  0  0  0  0
   45.1970   29.1590   46.9610 O   0  0  0  0  0  0  0  0  0  0  0  0
   45.8290   29.9150   47.9160 C   0  0  0  0  0  0  0  0  0  0  0  0
   45.9210   31.3590   47.4520 C   0  0  1  0  0  0  0  0  0  0  0  0
   47.8910   31.5840   46.5050 H   0  0  0  0  0  0  0  0  0  0  0  0
   46.7260   30.4630   44.3050 H   0  0  0  0  0  0  0  0  0  0  0  0
   47.4060   29.5150   45.7330 H   0  0  0  0  0  0  0  0  0  0  0  0
   44.4720   30.3340   45.3940 H   0  0  0  0  0  0  0  0  0  0  0  0
   45.2040   28.7800   44.9950 H   0  0  0  0  0  0  0  0  0  0  0  0
   45.3940   29.8590   48.9150 H   0  0  0  0  0  0  0  0  0  0  0  0
   46.9010   29.5700   47.9860 H   0  0  0  0  0  0  0  0  0  0  0  0
   44.9390   31.8160   47.3100 H   0  0  0  0  0  0  0  0  0  0  0  0
   46.6290   32.0210   48.6450 C   0  0  0  0  0  0  0  0  0  0  0  0
   47.7810   32.6510   48.3170 F   0  0  0  0  0  0  0  0  0  0  0  0
   46.9360   31.0240   49.5590 F   0  0  0  0  0  0  0  0  0  0  0  0
   45.7340   32.8610   49.2970 F   0  0  0  0  0  0  0  0  0  0  0  0
   45.1100   32.5380   41.4650 Cl  0  0  0  0  0  0  0  0  0  0  0  0
   46.4890   33.6000   41.1770 C   0  0  0  0  0  0  0  0  0  0  0  0
   47.0880   34.2640   42.2460 C   0  0  0  0  0  0  0  0  0  0  0  0
   48.1530   35.0760   41.9740 C   0  0  0  0  0  0  0  0  0  0  0  0
   48.6210   35.2320   40.6760 C   0  0  0  0  0  0  0  0  0  0  0  0
   47.9860   34.5460   39.6540 C   0  0  0  0  0  0  0  0  0  0  0  0
   48.5870   34.7490   38.0240 Cl  0  0  0  0  0  0  0  0  0  0  0  0
   46.9160   33.7220   39.8750 C   0  0  0  0  0  0  0  0  0  0  0  0
   48.6140   35.5890   42.8080 H   0  0  0  0  0  0  0  0  0  0  0  0
   49.4540   35.8650   40.4580 H   0  0  0  0  0  0  0  0  0  0  0  0
   46.4240   33.1900   39.0780 H   0  0  0  0  0  0  0  0  0  0  0  0
  1  7  1  0  0  0  0
  1  6  1  0  0  0  0
  2  1  2  0  0  0  0
  3  2  1  0  0  0  0
  3  4  2  0  0  0  0
  4  5  1  0  0  0  0
  5  6  2  0  0  0  0
  5  9  1  0  0  0  0
  8  2  1  0  0  0  0
  9 15  1  1  0  0  0
  9 14  1  0  0  0  0
 10 11  1  0  0  0  0
 10 17  1  0  0  0  0
 10  9  1  0  0  0  0
 11 12  1  0  0  0  0
 12 13  1  0  0  0  0
 13 21  1  0  0  0  0
 13 20  1  0  0  0  0
 14 22  1  6  0  0  0
 14 13  1  0  0  0  0
 14 23  1  0  0  0  0
 16 10  1  0  0  0  0
 18 11  1  0  0  0  0
 19 11  1  0  0  0  0
 23 26  1  0  0  0  0
 23 25  1  0  0  0  0
 24 23  1  0  0  0  0
 28 27  1  0  0  0  0
 28 29  1  0  0  0  0
 29  3  1  0  0  0  0
 30 29  2  0  0  0  0
 30 35  1  0  0  0  0
 31 30  1  0  0  0  0
 32 34  1  0  0  0  0
 32 31  2  0  0  0  0
 33 32  1  0  0  0  0
 34 28  2  0  0  0  0
 36 31  1  0  0  0  0
 37 34  1  0  0  0  0
M  END
>  <minimizedAffinity>
-6.61039257

>  <minimizedRMSD>
1.29807079

$$$$
