
 OpenBabel03252502053D

 41 44  0  0  0  0  0  0  0  0999 V2000
   36.0350   30.8300   40.2370 C   0  0  0  0  0  0  0  0  0  0  0  0
   37.2060   31.5490   40.2940 C   0  0  0  0  0  0  0  0  0  0  0  0
   38.3420   30.8690   40.0100 C   0  0  0  0  0  0  0  0  0  0  0  0
   38.2880   29.5770   39.6790 N   0  0  0  0  0  0  0  0  0  0  0  0
   37.1490   28.8640   39.6010 C   0  0  0  0  0  0  0  0  0  0  0  0
   36.0400   29.5700   39.9110 N   0  0  0  0  0  0  0  0  0  0  0  0
   39.5950   31.4570   40.0920 N   0  0  0  0  0  0  0  0  0  0  0  0
   40.8810   30.7610   40.1030 C   0  0  0  0  0  0  0  0  0  0  0  0
   41.9370   31.8280   39.9620 C   0  0  0  0  0  0  0  0  0  0  0  0
   41.2770   33.0480   40.5230 C   0  0  0  0  0  0  0  0  0  0  0  0
   39.8340   32.8850   40.2070 C   0  0  0  0  0  0  0  0  0  0  0  0
   35.1170   31.3930   40.4830 H   0  0  0  0  0  0  0  0  0  0  0  0
   40.9750   30.1750   41.0310 H   0  0  0  0  0  0  0  0  0  0  0  0
   40.9010   30.1420   39.1780 H   0  0  0  0  0  0  0  0  0  0  0  0
   42.2600   31.9890   38.9130 H   0  0  0  0  0  0  0  0  0  0  0  0
   42.8300   31.5540   40.5630 H   0  0  0  0  0  0  0  0  0  0  0  0
   41.7330   33.9490   40.0210 H   0  0  0  0  0  0  0  0  0  0  0  0
   41.5510   33.1230   41.5750 H   0  0  0  0  0  0  0  0  0  0  0  0
   39.3700   33.3190   41.1460 H   0  0  0  0  0  0  0  0  0  0  0  0
   39.5820   33.4430   39.3020 H   0  0  0  0  0  0  0  0  0  0  0  0
   36.8300   27.4940   39.2950 C   0  0  0  0  0  0  0  0  0  0  0  0
   36.3520   27.1350   38.0810 N   0  0  0  0  0  0  0  0  0  0  0  0
   35.9820   25.8950   37.7350 C   0  0  0  0  0  0  0  0  0  0  0  0
   36.0820   24.9030   38.6540 N   0  0  0  0  0  0  0  0  0  0  0  0
   36.5420   25.1650   39.8780 C   0  0  0  0  0  0  0  0  0  0  0  0
   36.5440   24.1640   40.8220 C   0  0  0  0  0  0  0  0  0  0  0  0
   36.9210   24.4480   42.1120 C   0  0  0  0  0  0  0  0  0  0  0  0
   37.2950   25.7540   42.4080 C   0  0  0  0  0  0  0  0  0  0  0  0
   37.2840   26.7040   41.4450 C   0  0  0  0  0  0  0  0  0  0  0  0
   36.9100   26.4570   40.1730 C   0  0  0  0  0  0  0  0  0  0  0  0
   35.6330   25.8210   36.7290 H   0  0  0  0  0  0  0  0  0  0  0  0
   36.2400   23.1760   40.4870 H   0  0  0  0  0  0  0  0  0  0  0  0
   36.8750   23.5830   42.7620 H   0  0  0  0  0  0  0  0  0  0  0  0
   37.5480   25.7430   43.4780 H   0  0  0  0  0  0  0  0  0  0  0  0
   37.7800   27.9550   42.0620 C   0  0  0  0  0  0  0  0  0  0  0  0
   39.0530   28.3110   41.8370 F   0  0  0  0  0  0  0  0  0  0  0  0
   36.8320   28.8100   42.5130 F   0  0  0  0  0  0  0  0  0  0  0  0
   38.1180   27.7150   43.4280 F   0  0  0  0  0  0  0  0  0  0  0  0
   37.1770   32.9330   40.4840 N   0  0  0  0  0  0  0  0  0  0  0  0
   37.0020   33.1710   41.5000 H   0  0  0  0  0  0  0  0  0  0  0  0
   37.2810   33.7850   39.8910 H   0  0  0  0  0  0  0  0  0  0  0  0
  1  2  1  0  0  0  0
  1 12  1  0  0  0  0
  2 39  1  0  0  0  0
  3  7  1  0  0  0  0
  3  2  2  0  0  0  0
  4  3  1  0  0  0  0
  5  4  2  0  0  0  0
  5  6  1  0  0  0  0
  6  1  2  0  0  0  0
  7  8  1  0  0  0  0
  7 11  1  0  0  0  0
  8 13  1  0  0  0  0
  9  8  1  0  0  0  0
  9 10  1  0  0  0  0
  9 16  1  0  0  0  0
 10 18  1  0  0  0  0
 11 10  1  0  0  0  0
 11 19  1  0  0  0  0
 14  8  1  0  0  0  0
 15  9  1  0  0  0  0
 17 10  1  0  0  0  0
 20 11  1  0  0  0  0
 21  5  1  0  0  0  0
 21 30  1  0  0  0  0
 22 21  2  0  0  0  0
 23 22  1  0  0  0  0
 23 24  2  0  0  0  0
 24 25  1  0  0  0  0
 25 30  2  0  0  0  0
 25 26  1  0  0  0  0
 26 27  2  0  0  0  0
 27 28  1  0  0  0  0
 27 33  1  0  0  0  0
 28 34  1  0  0  0  0
 29 35  1  0  0  0  0
 29 28  2  0  0  0  0
 30 29  1  0  0  0  0
 31 23  1  0  0  0  0
 32 26  1  0  0  0  0
 35 37  1  0  0  0  0
 35 38  1  0  0  0  0
 36 35  1  0  0  0  0
 39 40  1  0  0  0  0
 41 39  1  0  0  0  0
M  END
>  <minimizedAffinity>
-6.56485987

$$$$

 OpenBabel03252502053D

 41 44  0  0  0  0  0  0  0  0999 V2000
   37.4030   32.2250   40.2670 C   0  0  0  0  0  0  0  0  0  0  0  0
   37.0770   31.0760   40.9460 C   0  0  0  0  0  0  0  0  0  0  0  0
   38.1130   30.3120   41.3660 C   0  0  0  0  0  0  0  0  0  0  0  0
   39.3690   30.6940   41.1310 N   0  0  0  0  0  0  0  0  0  0  0  0
   39.7070   31.8240   40.4830 C   0  0  0  0  0  0  0  0  0  0  0  0
   38.6470   32.5500   40.0620 N   0  0  0  0  0  0  0  0  0  0  0  0
   37.9220   29.0960   42.0070 N   0  0  0  0  0  0  0  0  0  0  0  0
   38.9350   28.0650   42.2300 C   0  0  0  0  0  0  0  0  0  0  0  0
   38.3100   27.0590   43.1640 C   0  0  0  0  0  0  0  0  0  0  0  0
   36.8450   27.2030   42.9020 C   0  0  0  0  0  0  0  0  0  0  0  0
   36.6560   28.6340   42.5470 C   0  0  0  0  0  0  0  0  0  0  0  0
   36.5490   32.8340   39.9190 H   0  0  0  0  0  0  0  0  0  0  0  0
   39.2390   27.6320   41.2640 H   0  0  0  0  0  0  0  0  0  0  0  0
   39.7640   28.5660   42.7780 H   0  0  0  0  0  0  0  0  0  0  0  0
   38.5510   27.2440   44.2310 H   0  0  0  0  0  0  0  0  0  0  0  0
   38.6570   26.0370   42.9010 H   0  0  0  0  0  0  0  0  0  0  0  0
   36.2960   26.9130   43.8440 H   0  0  0  0  0  0  0  0  0  0  0  0
   36.5640   26.4620   42.1540 H   0  0  0  0  0  0  0  0  0  0  0  0
   35.8610   28.5400   41.7430 H   0  0  0  0  0  0  0  0  0  0  0  0
   36.3230   29.1980   43.4210 H   0  0  0  0  0  0  0  0  0  0  0  0
   40.9490   32.4380   40.0950 C   0  0  0  0  0  0  0  0  0  0  0  0
   41.4520   33.5000   40.7640 N   0  0  0  0  0  0  0  0  0  0  0  0
   42.5700   34.1590   40.4350 C   0  0  0  0  0  0  0  0  0  0  0  0
   43.2740   33.7520   39.3490 N   0  0  0  0  0  0  0  0  0  0  0  0
   42.8530   32.7120   38.6290 C   0  0  0  0  0  0  0  0  0  0  0  0
   43.5280   32.3770   37.4770 C   0  0  0  0  0  0  0  0  0  0  0  0
   43.0450   31.3740   36.6740 C   0  0  0  0  0  0  0  0  0  0  0  0
   41.8800   30.7270   37.0700 C   0  0  0  0  0  0  0  0  0  0  0  0
   41.2530   31.0860   38.2140 C   0  0  0  0  0  0  0  0  0  0  0  0
   41.6990   32.0740   39.0170 C   0  0  0  0  0  0  0  0  0  0  0  0
   42.7950   34.9700   41.0930 H   0  0  0  0  0  0  0  0  0  0  0  0
   44.4330   32.9410   37.2600 H   0  0  0  0  0  0  0  0  0  0  0  0
   43.6580   31.2080   35.7970 H   0  0  0  0  0  0  0  0  0  0  0  0
   41.6870   29.9790   36.2880 H   0  0  0  0  0  0  0  0  0  0  0  0
   40.0910   30.1820   38.3760 C   0  0  0  0  0  0  0  0  0  0  0  0
   40.2070   29.1480   39.2210 F   0  0  0  0  0  0  0  0  0  0  0  0
   38.9040   30.6580   37.9320 F   0  0  0  0  0  0  0  0  0  0  0  0
   40.0500   29.2560   37.2910 F   0  0  0  0  0  0  0  0  0  0  0  0
   35.7500   30.8180   41.3030 N   0  0  0  0  0  0  0  0  0  0  0  0
   35.1980   30.4640   40.4720 H   0  0  0  0  0  0  0  0  0  0  0  0
   35.1670   30.8840   42.1660 H   0  0  0  0  0  0  0  0  0  0  0  0
  1  2  1  0  0  0  0
  2 39  1  0  0  0  0
  2  3  2  0  0  0  0
  3  7  1  0  0  0  0
  4  3  1  0  0  0  0
  5  4  2  0  0  0  0
  6  1  2  0  0  0  0
  6  5  1  0  0  0  0
  7  8  1  0  0  0  0
  7 11  1  0  0  0  0
  8 14  1  0  0  0  0
  8  9  1  0  0  0  0
  9 15  1  0  0  0  0
 10  9  1  0  0  0  0
 10 17  1  0  0  0  0
 11 10  1  0  0  0  0
 11 20  1  0  0  0  0
 12  1  1  0  0  0  0
 13  8  1  0  0  0  0
 16  9  1  0  0  0  0
 18 10  1  0  0  0  0
 19 11  1  0  0  0  0
 21  5  1  0  0  0  0
 21 22  1  0  0  0  0
 23 22  2  0  0  0  0
 23 31  1  0  0  0  0
 24 23  1  0  0  0  0
 25 30  1  0  0  0  0
 25 24  2  0  0  0  0
 26 25  1  0  0  0  0
 27 28  1  0  0  0  0
 27 26  2  0  0  0  0
 28 29  2  0  0  0  0
 29 35  1  0  0  0  0
 29 30  1  0  0  0  0
 30 21  2  0  0  0  0
 32 26  1  0  0  0  0
 33 27  1  0  0  0  0
 34 28  1  0  0  0  0
 35 36  1  0  0  0  0
 37 35  1  0  0  0  0
 38 35  1  0  0  0  0
 39 41  1  0  0  0  0
 40 39  1  0  0  0  0
M  END
>  <minimizedAffinity>
-6.3670125

$$$$

 OpenBabel03252502053D

 41 44  0  0  0  0  0  0  0  0999 V2000
   40.4550   32.9360   38.7240 C   0  0  0  0  0  0  0  0  0  0  0  0
   41.3500   32.3420   37.8660 C   0  0  0  0  0  0  0  0  0  0  0  0
   41.3620   30.9880   37.8550 C   0  0  0  0  0  0  0  0  0  0  0  0
   40.5250   30.3010   38.6340 N   0  0  0  0  0  0  0  0  0  0  0  0
   39.6310   30.8660   39.4660 C   0  0  0  0  0  0  0  0  0  0  0  0
   39.6620   32.2170   39.4650 N   0  0  0  0  0  0  0  0  0  0  0  0
   42.2580   30.2640   37.0830 N   0  0  0  0  0  0  0  0  0  0  0  0
   42.5620   28.8400   37.2130 C   0  0  0  0  0  0  0  0  0  0  0  0
   43.4010   28.4780   36.0130 C   0  0  0  0  0  0  0  0  0  0  0  0
   44.0550   29.7710   35.6430 C   0  0  0  0  0  0  0  0  0  0  0  0
   43.0730   30.8210   36.0170 C   0  0  0  0  0  0  0  0  0  0  0  0
   40.4640   34.0410   38.7340 H   0  0  0  0  0  0  0  0  0  0  0  0
   43.0730   28.6580   38.1720 H   0  0  0  0  0  0  0  0  0  0  0  0
   41.5880   28.3100   37.1160 H   0  0  0  0  0  0  0  0  0  0  0  0
   42.8070   28.0690   35.1710 H   0  0  0  0  0  0  0  0  0  0  0  0
   44.1620   27.7220   36.3010 H   0  0  0  0  0  0  0  0  0  0  0  0
   44.2650   29.7470   34.5350 H   0  0  0  0  0  0  0  0  0  0  0  0
   45.0300   29.8040   36.1290 H   0  0  0  0  0  0  0  0  0  0  0  0
   43.7730   31.6290   36.3960 H   0  0  0  0  0  0  0  0  0  0  0  0
   42.4960   31.1260   35.1410 H   0  0  0  0  0  0  0  0  0  0  0  0
   38.6560   30.3650   40.3990 C   0  0  0  0  0  0  0  0  0  0  0  0
   38.9600   30.1700   41.7020 N   0  0  0  0  0  0  0  0  0  0  0  0
   38.1290   29.6600   42.6200 C   0  0  0  0  0  0  0  0  0  0  0  0
   36.8780   29.3000   42.2390 N   0  0  0  0  0  0  0  0  0  0  0  0
   36.4900   29.4560   40.9730 C   0  0  0  0  0  0  0  0  0  0  0  0
   35.2520   28.9940   40.5900 C   0  0  0  0  0  0  0  0  0  0  0  0
   34.8830   29.0580   39.2680 C   0  0  0  0  0  0  0  0  0  0  0  0
   35.7900   29.6000   38.3650 C   0  0  0  0  0  0  0  0  0  0  0  0
   36.9940   30.0470   38.7890 C   0  0  0  0  0  0  0  0  0  0  0  0
   37.3870   29.9880   40.0780 C   0  0  0  0  0  0  0  0  0  0  0  0
   38.5620   29.5890   43.5930 H   0  0  0  0  0  0  0  0  0  0  0  0
   34.6150   28.5950   41.3750 H   0  0  0  0  0  0  0  0  0  0  0  0
   33.8910   28.6600   39.0900 H   0  0  0  0  0  0  0  0  0  0  0  0
   35.2880   29.5460   37.3880 H   0  0  0  0  0  0  0  0  0  0  0  0
   37.6920   30.6050   37.6080 C   0  0  0  0  0  0  0  0  0  0  0  0
   37.7120   31.9370   37.4560 F   0  0  0  0  0  0  0  0  0  0  0  0
   38.5390   29.7650   36.9690 F   0  0  0  0  0  0  0  0  0  0  0  0
   36.8440   30.5140   36.4630 F   0  0  0  0  0  0  0  0  0  0  0  0
   42.0800   33.1160   36.9600 N   0  0  0  0  0  0  0  0  0  0  0  0
   42.8890   33.5990   37.4410 H   0  0  0  0  0  0  0  0  0  0  0  0
   42.0350   33.3400   35.9420 H   0  0  0  0  0  0  0  0  0  0  0  0
  1 12  1  0  0  0  0
  1  6  1  0  0  0  0
  2  1  2  0  0  0  0
  3  2  1  0  0  0  0
  3  4  2  0  0  0  0
  4  5  1  0  0  0  0
  5 21  1  0  0  0  0
  6  5  2  0  0  0  0
  7  8  1  0  0  0  0
  7  3  1  0  0  0  0
  8 13  1  0  0  0  0
  9 16  1  0  0  0  0
  9  8  1  0  0  0  0
 10  9  1  0  0  0  0
 10 11  1  0  0  0  0
 10 18  1  0  0  0  0
 11 19  1  0  0  0  0
 11  7  1  0  0  0  0
 14  8  1  0  0  0  0
 15  9  1  0  0  0  0
 17 10  1  0  0  0  0
 20 11  1  0  0  0  0
 21 22  1  0  0  0  0
 22 23  2  0  0  0  0
 23 31  1  0  0  0  0
 24 23  1  0  0  0  0
 25 24  2  0  0  0  0
 26 25  1  0  0  0  0
 26 32  1  0  0  0  0
 27 26  2  0  0  0  0
 28 29  2  0  0  0  0
 28 27  1  0  0  0  0
 29 30  1  0  0  0  0
 30 21  2  0  0  0  0
 30 25  1  0  0  0  0
 33 27  1  0  0  0  0
 34 28  1  0  0  0  0
 35 29  1  0  0  0  0
 36 35  1  0  0  0  0
 37 35  1  0  0  0  0
 38 35  1  0  0  0  0
 39 40  1  0  0  0  0
 39  2  1  0  0  0  0
 41 39  1  0  0  0  0
M  END
>  <minimizedAffinity>
-6.20762777

$$$$

 OpenBabel03252502053D

 41 44  0  0  0  0  0  0  0  0999 V2000
   38.8560   31.7290   38.3800 C   0  0  0  0  0  0  0  0  0  0  0  0
   38.1600   31.2740   37.2860 C   0  0  0  0  0  0  0  0  0  0  0  0
   37.8510   29.9560   37.2760 C   0  0  0  0  0  0  0  0  0  0  0  0
   38.2050   29.1740   38.2980 N   0  0  0  0  0  0  0  0  0  0  0  0
   38.8710   29.6060   39.3850 C   0  0  0  0  0  0  0  0  0  0  0  0
   39.1790   30.9220   39.3490 N   0  0  0  0  0  0  0  0  0  0  0  0
   37.2070   29.3560   36.2040 N   0  0  0  0  0  0  0  0  0  0  0  0
   37.0930   27.9200   35.9530 C   0  0  0  0  0  0  0  0  0  0  0  0
   36.1130   27.7690   34.8180 C   0  0  0  0  0  0  0  0  0  0  0  0
   36.2280   29.0650   34.0820 C   0  0  0  0  0  0  0  0  0  0  0  0
   36.5500   30.0730   35.1260 C   0  0  0  0  0  0  0  0  0  0  0  0
   39.1140   32.8030   38.3710 H   0  0  0  0  0  0  0  0  0  0  0  0
   38.0890   27.5060   35.7270 H   0  0  0  0  0  0  0  0  0  0  0  0
   36.6240   27.4870   36.8660 H   0  0  0  0  0  0  0  0  0  0  0  0
   35.0730   27.5880   35.1590 H   0  0  0  0  0  0  0  0  0  0  0  0
   36.4180   26.9210   34.1690 H   0  0  0  0  0  0  0  0  0  0  0  0
   35.2400   29.2640   33.5760 H   0  0  0  0  0  0  0  0  0  0  0  0
   36.9520   28.9320   33.2790 H   0  0  0  0  0  0  0  0  0  0  0  0
   37.2720   30.7350   34.5540 H   0  0  0  0  0  0  0  0  0  0  0  0
   35.6420   30.5940   35.4380 H   0  0  0  0  0  0  0  0  0  0  0  0
   39.3730   28.9830   40.5800 C   0  0  0  0  0  0  0  0  0  0  0  0
   40.6940   28.7470   40.7530 N   0  0  0  0  0  0  0  0  0  0  0  0
   41.2340   28.1260   41.8090 C   0  0  0  0  0  0  0  0  0  0  0  0
   40.4150   27.6870   42.7980 N   0  0  0  0  0  0  0  0  0  0  0  0
   39.0990   27.8760   42.7130 C   0  0  0  0  0  0  0  0  0  0  0  0
   38.2800   27.3380   43.6800 C   0  0  0  0  0  0  0  0  0  0  0  0
   36.9170   27.4390   43.5480 C   0  0  0  0  0  0  0  0  0  0  0  0
   36.4180   28.0960   42.4290 C   0  0  0  0  0  0  0  0  0  0  0  0
   37.2610   28.6160   41.5080 C   0  0  0  0  0  0  0  0  0  0  0  0
   38.6030   28.5230   41.6050 C   0  0  0  0  0  0  0  0  0  0  0  0
   42.2970   28.0390   41.7550 H   0  0  0  0  0  0  0  0  0  0  0  0
   38.7700   26.8490   44.5180 H   0  0  0  0  0  0  0  0  0  0  0  0
   36.3810   26.9730   44.3660 H   0  0  0  0  0  0  0  0  0  0  0  0
   35.3240   28.0520   42.5360 H   0  0  0  0  0  0  0  0  0  0  0  0
   36.4280   29.2860   40.4840 C   0  0  0  0  0  0  0  0  0  0  0  0
   36.4380   30.6270   40.4390 F   0  0  0  0  0  0  0  0  0  0  0  0
   35.9980   28.5060   39.4650 F   0  0  0  0  0  0  0  0  0  0  0  0
   35.0720   29.3380   40.9280 F   0  0  0  0  0  0  0  0  0  0  0  0
   37.6770   32.1740   36.3310 N   0  0  0  0  0  0  0  0  0  0  0  0
   38.4530   32.4910   35.6850 H   0  0  0  0  0  0  0  0  0  0  0  0
   36.7610   32.6120   36.0930 H   0  0  0  0  0  0  0  0  0  0  0  0
  1  6  1  0  0  0  0
  2  1  2  0  0  0  0
  3  2  1  0  0  0  0
  3  4  2  0  0  0  0
  4  5  1  0  0  0  0
  5 21  1  0  0  0  0
  6  5  2  0  0  0  0
  7  3  1  0  0  0  0
  8  7  1  0  0  0  0
  8 14  1  0  0  0  0
  9 15  1  0  0  0  0
  9  8  1  0  0  0  0
 10  9  1  0  0  0  0
 10 11  1  0  0  0  0
 11 20  1  0  0  0  0
 11  7  1  0  0  0  0
 12  1  1  0  0  0  0
 13  8  1  0  0  0  0
 16  9  1  0  0  0  0
 17 10  1  0  0  0  0
 18 10  1  0  0  0  0
 19 11  1  0  0  0  0
 21 22  2  0  0  0  0
 21 30  1  0  0  0  0
 22 23  1  0  0  0  0
 23 24  2  0  0  0  0
 25 24  1  0  0  0  0
 25 26  1  0  0  0  0
 26 32  1  0  0  0  0
 27 26  2  0  0  0  0
 27 33  1  0  0  0  0
 28 34  1  0  0  0  0
 28 27  1  0  0  0  0
 29 30  1  0  0  0  0
 29 28  2  0  0  0  0
 30 25  2  0  0  0  0
 31 23  1  0  0  0  0
 35 38  1  0  0  0  0
 35 29  1  0  0  0  0
 36 35  1  0  0  0  0
 37 35  1  0  0  0  0
 39  2  1  0  0  0  0
 40 39  1  0  0  0  0
 41 39  1  0  0  0  0
M  END
>  <minimizedAffinity>
-6.17052937

$$$$

 OpenBabel03252502053D

 41 44  0  0  0  0  0  0  0  0999 V2000
   36.1680   30.7530   41.0900 C   0  0  0  0  0  0  0  0  0  0  0  0
   37.1800   31.5110   40.5510 C   0  0  0  0  0  0  0  0  0  0  0  0
   38.2460   30.8310   40.0670 C   0  0  0  0  0  0  0  0  0  0  0  0
   38.2710   29.4970   40.1110 N   0  0  0  0  0  0  0  0  0  0  0  0
   37.2820   28.7400   40.6190 C   0  0  0  0  0  0  0  0  0  0  0  0
   36.2450   29.4530   41.1110 N   0  0  0  0  0  0  0  0  0  0  0  0
   39.3620   31.4750   39.5540 N   0  0  0  0  0  0  0  0  0  0  0  0
   40.6670   30.8710   39.2870 C   0  0  0  0  0  0  0  0  0  0  0  0
   41.4580   31.9020   38.5220 C   0  0  0  0  0  0  0  0  0  0  0  0
   40.8510   33.1990   38.9540 C   0  0  0  0  0  0  0  0  0  0  0  0
   39.4220   32.8870   39.2150 C   0  0  0  0  0  0  0  0  0  0  0  0
   35.3100   31.3190   41.4940 H   0  0  0  0  0  0  0  0  0  0  0  0
   41.1380   30.5780   40.2390 H   0  0  0  0  0  0  0  0  0  0  0  0
   40.4730   30.0160   38.6010 H   0  0  0  0  0  0  0  0  0  0  0  0
   41.3980   31.7720   37.4220 H   0  0  0  0  0  0  0  0  0  0  0  0
   42.5270   31.8510   38.8200 H   0  0  0  0  0  0  0  0  0  0  0  0
   40.9870   33.9400   38.1150 H   0  0  0  0  0  0  0  0  0  0  0  0
   41.4380   33.5830   39.7880 H   0  0  0  0  0  0  0  0  0  0  0  0
   39.2310   33.5470   40.1170 H   0  0  0  0  0  0  0  0  0  0  0  0
   38.8140   33.1530   38.3480 H   0  0  0  0  0  0  0  0  0  0  0  0
   37.0770   27.3270   40.7980 C   0  0  0  0  0  0  0  0  0  0  0  0
   37.4020   26.7060   41.9550 N   0  0  0  0  0  0  0  0  0  0  0  0
   37.2920   25.3910   42.1820 C   0  0  0  0  0  0  0  0  0  0  0  0
   36.8220   24.5940   41.1900 N   0  0  0  0  0  0  0  0  0  0  0  0
   36.4760   25.1190   40.0140 C   0  0  0  0  0  0  0  0  0  0  0  0
   36.0930   24.2800   38.9920 C   0  0  0  0  0  0  0  0  0  0  0  0
   35.8330   24.8010   37.7490 C   0  0  0  0  0  0  0  0  0  0  0  0
   35.9640   26.1750   37.5770 C   0  0  0  0  0  0  0  0  0  0  0  0
   36.3360   26.9610   38.6130 C   0  0  0  0  0  0  0  0  0  0  0  0
   36.6080   26.4770   39.8420 C   0  0  0  0  0  0  0  0  0  0  0  0
   37.6020   25.1010   43.1620 H   0  0  0  0  0  0  0  0  0  0  0  0
   36.0150   23.2230   39.2320 H   0  0  0  0  0  0  0  0  0  0  0  0
   35.5480   24.0440   37.0290 H   0  0  0  0  0  0  0  0  0  0  0  0
   35.7120   26.3570   36.5230 H   0  0  0  0  0  0  0  0  0  0  0  0
   36.3300   28.3580   38.1230 C   0  0  0  0  0  0  0  0  0  0  0  0
   35.3190   29.1550   38.4960 F   0  0  0  0  0  0  0  0  0  0  0  0
   37.5040   28.8180   37.6300 F   0  0  0  0  0  0  0  0  0  0  0  0
   35.8310   28.3950   36.7860 F   0  0  0  0  0  0  0  0  0  0  0  0
   37.0190   32.8890   40.3860 N   0  0  0  0  0  0  0  0  0  0  0  0
   37.1510   33.3980   41.3040 H   0  0  0  0  0  0  0  0  0  0  0  0
   36.8040   33.5410   39.6000 H   0  0  0  0  0  0  0  0  0  0  0  0
  1  6  1  0  0  0  0
  1 12  1  0  0  0  0
  2  1  2  0  0  0  0
  3  4  2  0  0  0  0
  3  2  1  0  0  0  0
  4  5  1  0  0  0  0
  5 21  1  0  0  0  0
  5  6  2  0  0  0  0
  7  3  1  0  0  0  0
  8  7  1  0  0  0  0
  8 13  1  0  0  0  0
  9 16  1  0  0  0  0
  9 10  1  0  0  0  0
  9  8  1  0  0  0  0
 10 11  1  0  0  0  0
 10 18  1  0  0  0  0
 11  7  1  0  0  0  0
 11 19  1  0  0  0  0
 14  8  1  0  0  0  0
 15  9  1  0  0  0  0
 17 10  1  0  0  0  0
 20 11  1  0  0  0  0
 21 22  1  0  0  0  0
 22 23  2  0  0  0  0
 23 31  1  0  0  0  0
 24 23  1  0  0  0  0
 25 24  2  0  0  0  0
 26 32  1  0  0  0  0
 26 25  1  0  0  0  0
 27 26  2  0  0  0  0
 28 27  1  0  0  0  0
 28 29  2  0  0  0  0
 29 30  1  0  0  0  0
 30 25  1  0  0  0  0
 30 21  2  0  0  0  0
 33 27  1  0  0  0  0
 34 28  1  0  0  0  0
 35 36  1  0  0  0  0
 35 29  1  0  0  0  0
 37 35  1  0  0  0  0
 38 35  1  0  0  0  0
 39  2  1  0  0  0  0
 39 40  1  0  0  0  0
 41 39  1  0  0  0  0
M  END
>  <minimizedAffinity>
-6.09595156

$$$$

 OpenBabel03252502053D

 41 44  0  0  0  0  0  0  0  0999 V2000
   39.3810   33.1850   40.3250 C   0  0  0  0  0  0  0  0  0  0  0  0
   40.4560   33.0530   39.4790 C   0  0  0  0  0  0  0  0  0  0  0  0
   40.5830   31.8590   38.8510 C   0  0  0  0  0  0  0  0  0  0  0  0
   39.6850   30.8930   39.0550 N   0  0  0  0  0  0  0  0  0  0  0  0
   38.6180   31.0120   39.8660 C   0  0  0  0  0  0  0  0  0  0  0  0
   38.5360   32.2080   40.4890 N   0  0  0  0  0  0  0  0  0  0  0  0
   41.6550   31.5720   38.0200 N   0  0  0  0  0  0  0  0  0  0  0  0
   42.0510   30.2490   37.5400 C   0  0  0  0  0  0  0  0  0  0  0  0
   43.1090   30.4820   36.4920 C   0  0  0  0  0  0  0  0  0  0  0  0
   43.7070   31.7950   36.8860 C   0  0  0  0  0  0  0  0  0  0  0  0
   42.5910   32.5560   37.5040 C   0  0  0  0  0  0  0  0  0  0  0  0
   39.2950   34.1580   40.8410 H   0  0  0  0  0  0  0  0  0  0  0  0
   42.4030   29.6400   38.3870 H   0  0  0  0  0  0  0  0  0  0  0  0
   41.1550   29.8300   37.0280 H   0  0  0  0  0  0  0  0  0  0  0  0
   42.7040   30.5150   35.4600 H   0  0  0  0  0  0  0  0  0  0  0  0
   43.8710   29.6740   36.5410 H   0  0  0  0  0  0  0  0  0  0  0  0
   44.1040   32.2880   35.9520 H   0  0  0  0  0  0  0  0  0  0  0  0
   44.5780   31.5930   37.5090 H   0  0  0  0  0  0  0  0  0  0  0  0
   43.1460   33.0920   38.3360 H   0  0  0  0  0  0  0  0  0  0  0  0
   42.1480   33.2360   36.7730 H   0  0  0  0  0  0  0  0  0  0  0  0
   37.5440   30.1400   40.2620 C   0  0  0  0  0  0  0  0  0  0  0  0
   36.3420   30.1730   39.6420 N   0  0  0  0  0  0  0  0  0  0  0  0
   35.2780   29.4350   39.9830 C   0  0  0  0  0  0  0  0  0  0  0  0
   35.3850   28.5800   41.0300 N   0  0  0  0  0  0  0  0  0  0  0  0
   36.5320   28.4810   41.7020 C   0  0  0  0  0  0  0  0  0  0  0  0
   36.5880   27.6790   42.8190 C   0  0  0  0  0  0  0  0  0  0  0  0
   37.7340   27.6480   43.5760 C   0  0  0  0  0  0  0  0  0  0  0  0
   38.8050   28.4360   43.1680 C   0  0  0  0  0  0  0  0  0  0  0  0
   38.7060   29.2040   42.0590 C   0  0  0  0  0  0  0  0  0  0  0  0
   37.5910   29.2620   41.3020 C   0  0  0  0  0  0  0  0  0  0  0  0
   34.4240   29.6100   39.3660 H   0  0  0  0  0  0  0  0  0  0  0  0
   35.6990   27.0980   43.0480 H   0  0  0  0  0  0  0  0  0  0  0  0
   37.6540   26.9880   44.4300 H   0  0  0  0  0  0  0  0  0  0  0  0
   39.5930   28.2540   43.9120 H   0  0  0  0  0  0  0  0  0  0  0  0
   40.0160   29.8690   41.8710 C   0  0  0  0  0  0  0  0  0  0  0  0
   40.8210   29.4180   40.8980 F   0  0  0  0  0  0  0  0  0  0  0  0
   40.1540   31.0810   42.4570 F   0  0  0  0  0  0  0  0  0  0  0  0
   40.9470   29.3730   42.8330 F   0  0  0  0  0  0  0  0  0  0  0  0
   41.2630   34.1550   39.1840 N   0  0  0  0  0  0  0  0  0  0  0  0
   41.9340   34.3550   39.9770 H   0  0  0  0  0  0  0  0  0  0  0  0
   41.3740   34.8270   38.3940 H   0  0  0  0  0  0  0  0  0  0  0  0
  1  6  1  0  0  0  0
  1 12  1  0  0  0  0
  2  1  2  0  0  0  0
  3  4  2  0  0  0  0
  3  2  1  0  0  0  0
  4  5  1  0  0  0  0
  5 21  1  0  0  0  0
  5  6  2  0  0  0  0
  7  3  1  0  0  0  0
  8  7  1  0  0  0  0
  8 13  1  0  0  0  0
  9 16  1  0  0  0  0
  9 10  1  0  0  0  0
  9  8  1  0  0  0  0
 10 11  1  0  0  0  0
 10 18  1  0  0  0  0
 11  7  1  0  0  0  0
 11 19  1  0  0  0  0
 14  8  1  0  0  0  0
 15  9  1  0  0  0  0
 17 10  1  0  0  0  0
 20 11  1  0  0  0  0
 21 30  1  0  0  0  0
 22 23  1  0  0  0  0
 22 21  2  0  0  0  0
 23 24  2  0  0  0  0
 24 25  1  0  0  0  0
 25 26  1  0  0  0  0
 26 32  1  0  0  0  0
 26 27  2  0  0  0  0
 27 33  1  0  0  0  0
 28 27  1  0  0  0  0
 28 34  1  0  0  0  0
 29 28  2  0  0  0  0
 30 25  2  0  0  0  0
 30 29  1  0  0  0  0
 31 23  1  0  0  0  0
 35 29  1  0  0  0  0
 35 37  1  0  0  0  0
 35 38  1  0  0  0  0
 36 35  1  0  0  0  0
 39  2  1  0  0  0  0
 39 40  1  0  0  0  0
 41 39  1  0  0  0  0
M  END
>  <minimizedAffinity>
-6.04711723

$$$$

 OpenBabel03252502053D

 41 44  0  0  0  0  0  0  0  0999 V2000
   38.3630   31.0090   37.8510 C   0  0  0  0  0  0  0  0  0  0  0  0
   39.6710   31.4130   37.7350 C   0  0  0  0  0  0  0  0  0  0  0  0
   40.5990   30.6130   38.3130 C   0  0  0  0  0  0  0  0  0  0  0  0
   40.2280   29.4930   38.9360 N   0  0  0  0  0  0  0  0  0  0  0  0
   38.9530   29.0750   39.0440 C   0  0  0  0  0  0  0  0  0  0  0  0
   38.0550   29.9080   38.4730 N   0  0  0  0  0  0  0  0  0  0  0  0
   41.9480   30.9350   38.3240 N   0  0  0  0  0  0  0  0  0  0  0  0
   42.9800   30.3200   39.1580 C   0  0  0  0  0  0  0  0  0  0  0  0
   44.2990   30.8340   38.6400 C   0  0  0  0  0  0  0  0  0  0  0  0
   43.9430   32.1490   38.0240 C   0  0  0  0  0  0  0  0  0  0  0  0
   42.5590   31.9730   37.5130 C   0  0  0  0  0  0  0  0  0  0  0  0
   37.6140   31.6770   37.3870 H   0  0  0  0  0  0  0  0  0  0  0  0
   42.7990   30.5720   40.2150 H   0  0  0  0  0  0  0  0  0  0  0  0
   42.9350   29.2280   38.9430 H   0  0  0  0  0  0  0  0  0  0  0  0
   44.7740   30.1560   37.9020 H   0  0  0  0  0  0  0  0  0  0  0  0
   45.0050   30.9760   39.4860 H   0  0  0  0  0  0  0  0  0  0  0  0
   44.6870   32.3580   37.2010 H   0  0  0  0  0  0  0  0  0  0  0  0
   44.1030   32.9250   38.7730 H   0  0  0  0  0  0  0  0  0  0  0  0
   42.1270   32.9980   37.7380 H   0  0  0  0  0  0  0  0  0  0  0  0
   42.5790   31.7380   36.4460 H   0  0  0  0  0  0  0  0  0  0  0  0
   38.3040   27.9490   39.6620 C   0  0  0  0  0  0  0  0  0  0  0  0
   37.8740   26.8940   38.9340 N   0  0  0  0  0  0  0  0  0  0  0  0
   37.2170   25.8360   39.4240 C   0  0  0  0  0  0  0  0  0  0  0  0
   36.9450   25.7930   40.7520 N   0  0  0  0  0  0  0  0  0  0  0  0
   37.3310   26.7910   41.5480 C   0  0  0  0  0  0  0  0  0  0  0  0
   36.9600   26.7720   42.8740 C   0  0  0  0  0  0  0  0  0  0  0  0
   37.2650   27.8420   43.6790 C   0  0  0  0  0  0  0  0  0  0  0  0
   37.9500   28.9100   43.1100 C   0  0  0  0  0  0  0  0  0  0  0  0
   38.3000   28.8820   41.8040 C   0  0  0  0  0  0  0  0  0  0  0  0
   38.0050   27.8490   40.9870 C   0  0  0  0  0  0  0  0  0  0  0  0
   36.9660   25.1090   38.6830 H   0  0  0  0  0  0  0  0  0  0  0  0
   36.4330   25.8870   43.2210 H   0  0  0  0  0  0  0  0  0  0  0  0
   36.9170   27.7140   44.6960 H   0  0  0  0  0  0  0  0  0  0  0  0
   38.0780   29.6350   43.9270 H   0  0  0  0  0  0  0  0  0  0  0  0
   39.0530   30.1260   41.5270 C   0  0  0  0  0  0  0  0  0  0  0  0
   40.3890   30.0520   41.4420 F   0  0  0  0  0  0  0  0  0  0  0  0
   38.3280   31.1620   41.0440 F   0  0  0  0  0  0  0  0  0  0  0  0
   39.1980   30.8760   42.7330 F   0  0  0  0  0  0  0  0  0  0  0  0
   40.0060   32.5050   36.9290 N   0  0  0  0  0  0  0  0  0  0  0  0
   39.7860   33.4170   37.4190 H   0  0  0  0  0  0  0  0  0  0  0  0
   40.4110   32.6540   35.9800 H   0  0  0  0  0  0  0  0  0  0  0  0
  1  6  1  0  0  0  0
  2  1  2  0  0  0  0
  2  3  1  0  0  0  0
  3  7  1  0  0  0  0
  3  4  2  0  0  0  0
  4  5  1  0  0  0  0
  5 21  1  0  0  0  0
  6  5  2  0  0  0  0
  7  8  1  0  0  0  0
  8 13  1  0  0  0  0
  9  8  1  0  0  0  0
  9 16  1  0  0  0  0
 10  9  1  0  0  0  0
 10 18  1  0  0  0  0
 11 19  1  0  0  0  0
 11 10  1  0  0  0  0
 11  7  1  0  0  0  0
 12  1  1  0  0  0  0
 14  8  1  0  0  0  0
 15  9  1  0  0  0  0
 17 10  1  0  0  0  0
 20 11  1  0  0  0  0
 21 30  1  0  0  0  0
 22 23  1  0  0  0  0
 22 21  2  0  0  0  0
 23 24  2  0  0  0  0
 24 25  1  0  0  0  0
 25 26  1  0  0  0  0
 26 32  1  0  0  0  0
 26 27  2  0  0  0  0
 27 33  1  0  0  0  0
 28 27  1  0  0  0  0
 28 34  1  0  0  0  0
 29 28  2  0  0  0  0
 30 25  2  0  0  0  0
 30 29  1  0  0  0  0
 31 23  1  0  0  0  0
 35 29  1  0  0  0  0
 35 38  1  0  0  0  0
 36 35  1  0  0  0  0
 37 35  1  0  0  0  0
 39 40  1  0  0  0  0
 39  2  1  0  0  0  0
 41 39  1  0  0  0  0
M  END
>  <minimizedAffinity>
-6.04687023

$$$$

 OpenBabel03252502053D

 41 44  0  0  0  0  0  0  0  0999 V2000
   36.5740   30.6490   38.4800 C   0  0  0  0  0  0  0  0  0  0  0  0
   37.5160   31.5840   38.8390 C   0  0  0  0  0  0  0  0  0  0  0  0
   38.6720   31.1050   39.3540 C   0  0  0  0  0  0  0  0  0  0  0  0
   38.8600   29.7890   39.4780 N   0  0  0  0  0  0  0  0  0  0  0  0
   37.9560   28.8600   39.1160 C   0  0  0  0  0  0  0  0  0  0  0  0
   36.8080   29.3770   38.6250 N   0  0  0  0  0  0  0  0  0  0  0  0
   39.6790   31.9410   39.8140 N   0  0  0  0  0  0  0  0  0  0  0  0
   40.8160   31.5530   40.6480 C   0  0  0  0  0  0  0  0  0  0  0  0
   41.7410   32.7430   40.6760 C   0  0  0  0  0  0  0  0  0  0  0  0
   40.8270   33.9010   40.4340 C   0  0  0  0  0  0  0  0  0  0  0  0
   39.7540   33.3680   39.5550 C   0  0  0  0  0  0  0  0  0  0  0  0
   35.6300   31.0530   38.0730 H   0  0  0  0  0  0  0  0  0  0  0  0
   40.4560   31.2570   41.6460 H   0  0  0  0  0  0  0  0  0  0  0  0
   41.3330   30.7350   40.0980 H   0  0  0  0  0  0  0  0  0  0  0  0
   42.5420   32.6920   39.9110 H   0  0  0  0  0  0  0  0  0  0  0  0
   42.2190   32.8230   41.6760 H   0  0  0  0  0  0  0  0  0  0  0  0
   41.4280   34.7180   39.9390 H   0  0  0  0  0  0  0  0  0  0  0  0
   40.5260   34.2990   41.4030 H   0  0  0  0  0  0  0  0  0  0  0  0
   38.8560   33.9220   39.9710 H   0  0  0  0  0  0  0  0  0  0  0  0
   39.9660   33.6110   38.5120 H   0  0  0  0  0  0  0  0  0  0  0  0
   37.9060   27.4230   39.1610 C   0  0  0  0  0  0  0  0  0  0  0  0
   38.0830   26.6740   38.0480 N   0  0  0  0  0  0  0  0  0  0  0  0
   38.0000   25.3390   37.9960 C   0  0  0  0  0  0  0  0  0  0  0  0
   37.7150   24.6570   39.1340 N   0  0  0  0  0  0  0  0  0  0  0  0
   37.5230   25.3120   40.2790 C   0  0  0  0  0  0  0  0  0  0  0  0
   37.1400   24.6090   41.3980 C   0  0  0  0  0  0  0  0  0  0  0  0
   36.8430   25.2840   42.5560 C   0  0  0  0  0  0  0  0  0  0  0  0
   36.9500   26.6710   42.5460 C   0  0  0  0  0  0  0  0  0  0  0  0
   37.3360   27.3190   41.4240 C   0  0  0  0  0  0  0  0  0  0  0  0
   37.6250   26.6830   40.2700 C   0  0  0  0  0  0  0  0  0  0  0  0
   38.1740   24.9400   37.0210 H   0  0  0  0  0  0  0  0  0  0  0  0
   37.0940   23.5270   41.3020 H   0  0  0  0  0  0  0  0  0  0  0  0
   36.5490   24.6240   43.3620 H   0  0  0  0  0  0  0  0  0  0  0  0
   36.6660   26.9860   43.5600 H   0  0  0  0  0  0  0  0  0  0  0  0
   37.4010   28.7610   41.7550 C   0  0  0  0  0  0  0  0  0  0  0  0
   38.6020   29.2970   42.0160 F   0  0  0  0  0  0  0  0  0  0  0  0
   36.3080   29.4920   41.4360 F   0  0  0  0  0  0  0  0  0  0  0  0
   37.0480   28.9550   43.1250 F   0  0  0  0  0  0  0  0  0  0  0  0
   37.3240   32.9350   38.5310 N   0  0  0  0  0  0  0  0  0  0  0  0
   36.6460   33.3830   39.2080 H   0  0  0  0  0  0  0  0  0  0  0  0
   37.6710   33.6080   37.8140 H   0  0  0  0  0  0  0  0  0  0  0  0
  1  6  2  0  0  0  0
  1  2  1  0  0  0  0
  2  3  2  0  0  0  0
  3  4  1  0  0  0  0
  3  7  1  0  0  0  0
  5 21  1  0  0  0  0
  5  4  2  0  0  0  0
  6  5  1  0  0  0  0
  7  8  1  0  0  0  0
  8  9  1  0  0  0  0
  8 13  1  0  0  0  0
  9 16  1  0  0  0  0
 10  9  1  0  0  0  0
 10 18  1  0  0  0  0
 11  7  1  0  0  0  0
 11 19  1  0  0  0  0
 11 10  1  0  0  0  0
 12  1  1  0  0  0  0
 14  8  1  0  0  0  0
 15  9  1  0  0  0  0
 17 10  1  0  0  0  0
 20 11  1  0  0  0  0
 21 30  1  0  0  0  0
 22 21  2  0  0  0  0
 23 22  1  0  0  0  0
 23 24  2  0  0  0  0
 24 25  1  0  0  0  0
 25 26  1  0  0  0  0
 26 27  2  0  0  0  0
 27 33  1  0  0  0  0
 28 27  1  0  0  0  0
 28 34  1  0  0  0  0
 29 35  1  0  0  0  0
 29 28  2  0  0  0  0
 30 25  2  0  0  0  0
 30 29  1  0  0  0  0
 31 23  1  0  0  0  0
 32 26  1  0  0  0  0
 35 36  1  0  0  0  0
 35 38  1  0  0  0  0
 37 35  1  0  0  0  0
 39  2  1  0  0  0  0
 39 40  1  0  0  0  0
 41 39  1  0  0  0  0
M  END
>  <minimizedAffinity>
-6.03577232

$$$$

 OpenBabel03252502053D

 41 44  0  0  0  0  0  0  0  0999 V2000
   37.0480   29.2890   37.9040 C   0  0  0  0  0  0  0  0  0  0  0  0
   36.7780   28.8580   39.1800 C   0  0  0  0  0  0  0  0  0  0  0  0
   37.8090   28.8950   40.0580 C   0  0  0  0  0  0  0  0  0  0  0  0
   39.0030   29.3490   39.6730 N   0  0  0  0  0  0  0  0  0  0  0  0
   39.2800   29.7910   38.4330 C   0  0  0  0  0  0  0  0  0  0  0  0
   38.2330   29.7200   37.5810 N   0  0  0  0  0  0  0  0  0  0  0  0
   37.6890   28.4310   41.3590 N   0  0  0  0  0  0  0  0  0  0  0  0
   38.7850   28.1460   42.2830 C   0  0  0  0  0  0  0  0  0  0  0  0
   38.1490   27.9020   43.6280 C   0  0  0  0  0  0  0  0  0  0  0  0
   36.7750   27.4230   43.2810 C   0  0  0  0  0  0  0  0  0  0  0  0
   36.4310   28.1220   42.0160 C   0  0  0  0  0  0  0  0  0  0  0  0
   36.2020   29.2420   37.1940 H   0  0  0  0  0  0  0  0  0  0  0  0
   39.3650   27.2860   41.9130 H   0  0  0  0  0  0  0  0  0  0  0  0
   39.3760   29.0870   42.3540 H   0  0  0  0  0  0  0  0  0  0  0  0
   38.1120   28.8080   44.2660 H   0  0  0  0  0  0  0  0  0  0  0  0
   38.7130   27.1150   44.1730 H   0  0  0  0  0  0  0  0  0  0  0  0
   36.0880   27.6990   44.1320 H   0  0  0  0  0  0  0  0  0  0  0  0
   36.7960   26.3330   43.2590 H   0  0  0  0  0  0  0  0  0  0  0  0
   35.8610   27.3020   41.4780 H   0  0  0  0  0  0  0  0  0  0  0  0
   35.8220   29.0040   42.2280 H   0  0  0  0  0  0  0  0  0  0  0  0
   40.4560   30.2990   37.7760 C   0  0  0  0  0  0  0  0  0  0  0  0
   41.2510   29.4980   37.0310 N   0  0  0  0  0  0  0  0  0  0  0  0
   42.3860   29.8790   36.4330 C   0  0  0  0  0  0  0  0  0  0  0  0
   42.7970   31.1650   36.5710 N   0  0  0  0  0  0  0  0  0  0  0  0
   42.0760   32.0260   37.2880 C   0  0  0  0  0  0  0  0  0  0  0  0
   42.5610   33.2980   37.4940 C   0  0  0  0  0  0  0  0  0  0  0  0
   41.8770   34.1610   38.3150 C   0  0  0  0  0  0  0  0  0  0  0  0
   40.7030   33.7050   38.9050 C   0  0  0  0  0  0  0  0  0  0  0  0
   40.2610   32.4490   38.6680 C   0  0  0  0  0  0  0  0  0  0  0  0
   40.9170   31.5760   37.8760 C   0  0  0  0  0  0  0  0  0  0  0  0
   42.8660   29.0950   35.8900 H   0  0  0  0  0  0  0  0  0  0  0  0
   43.4840   33.5570   36.9810 H   0  0  0  0  0  0  0  0  0  0  0  0
   42.3590   35.1270   38.4020 H   0  0  0  0  0  0  0  0  0  0  0  0
   40.3400   34.5500   39.5070 H   0  0  0  0  0  0  0  0  0  0  0  0
   38.9780   32.2950   39.3910 C   0  0  0  0  0  0  0  0  0  0  0  0
   37.8440   32.3020   38.6750 F   0  0  0  0  0  0  0  0  0  0  0  0
   39.0630   31.8200   40.6550 F   0  0  0  0  0  0  0  0  0  0  0  0
   38.5950   33.5480   39.9590 F   0  0  0  0  0  0  0  0  0  0  0  0
   35.4680   28.5520   39.5610 N   0  0  0  0  0  0  0  0  0  0  0  0
   35.1810   27.6010   39.1970 H   0  0  0  0  0  0  0  0  0  0  0  0
   34.7060   29.0130   40.1040 H   0  0  0  0  0  0  0  0  0  0  0  0
  1  2  1  0  0  0  0
  2 39  1  0  0  0  0
  2  3  2  0  0  0  0
  3  7  1  0  0  0  0
  4  3  1  0  0  0  0
  5  4  2  0  0  0  0
  6  1  2  0  0  0  0
  6  5  1  0  0  0  0
  7 11  1  0  0  0  0
  7  8  1  0  0  0  0
  8 14  1  0  0  0  0
  8  9  1  0  0  0  0
  9 16  1  0  0  0  0
  9 15  1  0  0  0  0
 10  9  1  0  0  0  0
 10 17  1  0  0  0  0
 11 20  1  0  0  0  0
 11 10  1  0  0  0  0
 12  1  1  0  0  0  0
 13  8  1  0  0  0  0
 18 10  1  0  0  0  0
 19 11  1  0  0  0  0
 21 30  1  0  0  0  0
 21  5  1  0  0  0  0
 22 21  2  0  0  0  0
 23 24  2  0  0  0  0
 23 22  1  0  0  0  0
 24 25  1  0  0  0  0
 25 26  2  0  0  0  0
 25 30  1  0  0  0  0
 26 27  1  0  0  0  0
 27 33  1  0  0  0  0
 27 28  2  0  0  0  0
 28 34  1  0  0  0  0
 29 28  1  0  0  0  0
 29 35  1  0  0  0  0
 30 29  2  0  0  0  0
 31 23  1  0  0  0  0
 32 26  1  0  0  0  0
 35 38  1  0  0  0  0
 35 37  1  0  0  0  0
 36 35  1  0  0  0  0
 39 41  1  0  0  0  0
 40 39  1  0  0  0  0
M  END
>  <minimizedAffinity>
-6.00102758

$$$$
