
 OpenBabel03242518523D

 34 35  0  0  1  0  0  0  0  0999 V2000
   45.9850   31.2490   46.2920 C   0  0  2  0  0  0  0  0  0  0  0  0
   45.3390   30.6500   47.5020 C   0  0  0  0  0  0  0  0  0  0  0  0
   44.6970   29.3810   47.0760 C   0  0  0  0  0  0  0  0  0  0  0  0
   44.7080   29.0450   45.6600 C   0  0  0  0  0  0  0  0  0  0  0  0
   45.8970   29.3640   44.8540 C   0  0  0  0  0  0  0  0  0  0  0  0
   46.8450   30.2960   45.6140 C   0  0  2  0  0  0  0  0  0  0  0  0
   45.0780   31.4590   45.6220 H   0  0  0  0  0  0  0  0  0  0  0  0
   46.0190   30.5600   48.3770 H   0  0  0  0  0  0  0  0  0  0  0  0
   44.6060   31.4180   47.8250 H   0  0  0  0  0  0  0  0  0  0  0  0
   44.7990   28.5260   47.8180 H   0  0  0  0  0  0  0  0  0  0  0  0
   43.5650   29.5680   47.3140 H   0  0  0  0  0  0  0  0  0  0  0  0
   44.5600   27.9180   45.5890 H   0  0  0  0  0  0  0  0  0  0  0  0
   43.7440   29.4040   45.1780 H   0  0  0  0  0  0  0  0  0  0  0  0
   45.4710   29.7970   43.9010 H   0  0  0  0  0  0  0  0  0  0  0  0
   46.4360   28.4360   44.4960 H   0  0  0  0  0  0  0  0  0  0  0  0
   47.2690   30.4960   44.6380 H   0  0  0  0  0  0  0  0  0  0  0  0
   47.7790   29.4000   46.3260 C   0  0  0  0  0  0  0  0  0  0  0  0
   49.1030   29.4230   45.9320 F   0  0  0  0  0  0  0  0  0  0  0  0
   47.4120   28.0780   46.4730 F   0  0  0  0  0  0  0  0  0  0  0  0
   47.9700   29.7740   47.6770 F   0  0  0  0  0  0  0  0  0  0  0  0
   46.4980   32.6050   46.5080 C   0  0  0  0  0  0  0  0  0  0  0  0
   47.2510   32.9580   47.4500 O   0  0  0  0  0  0  0  0  0  0  0  0
   44.6740   35.3530   44.9390 C   0  0  0  0  0  0  0  0  0  0  0  0
   45.2470   35.4660   43.6520 C   0  0  0  0  0  0  0  0  0  0  0  0
   46.2840   34.5800   43.3630 C   0  0  0  0  0  0  0  0  0  0  0  0
   46.6090   33.7300   44.3470 N   0  0  0  0  0  0  0  0  0  0  0  0
   46.0840   33.6180   45.5360 C   0  0  0  0  0  0  0  0  0  0  0  0
   45.0730   34.4720   45.8380 N   0  0  0  0  0  0  0  0  0  0  0  0
   43.8590   36.0220   45.2210 H   0  0  0  0  0  0  0  0  0  0  0  0
   44.9180   36.1780   42.9370 H   0  0  0  0  0  0  0  0  0  0  0  0
   46.8790   34.6690   42.0260 C   0  0  0  0  0  0  0  0  0  0  0  0
   47.7220   33.6050   41.8000 F   0  0  0  0  0  0  0  0  0  0  0  0
   47.6790   35.7850   42.0530 F   0  0  0  0  0  0  0  0  0  0  0  0
   45.9320   34.7130   41.0270 F   0  0  0  0  0  0  0  0  0  0  0  0
  1  7  1  6  0  0  0
  1 21  1  0  0  0  0
  1  2  1  0  0  0  0
  2  9  1  0  0  0  0
  2  8  1  0  0  0  0
  3 11  1  0  0  0  0
  3  2  1  0  0  0  0
  3 10  1  0  0  0  0
  4  3  1  0  0  0  0
  5  6  1  0  0  0  0
  5  4  1  0  0  0  0
  6 16  1  6  0  0  0
  6  1  1  0  0  0  0
  6 17  1  0  0  0  0
 12  4  1  0  0  0  0
 13  4  1  0  0  0  0
 14  5  1  0  0  0  0
 15  5  1  0  0  0  0
 17 19  1  0  0  0  0
 17 20  1  0  0  0  0
 18 17  1  0  0  0  0
 21 22  2  0  0  0  0
 23 29  1  0  0  0  0
 23 28  1  0  0  0  0
 24 23  2  0  0  0  0
 25 24  1  0  0  0  0
 25 26  2  0  0  0  0
 26 27  1  0  0  0  0
 27 28  2  0  0  0  0
 27 21  1  0  0  0  0
 30 24  1  0  0  0  0
 31 33  1  0  0  0  0
 31 25  1  0  0  0  0
 32 31  1  0  0  0  0
 34 31  1  0  0  0  0
M  END
>  <minimizedAffinity>
-5.25856256

>  <minimizedRMSD>
2.27752185

$$$$
