
 OpenBabel03252503223D

 35 38  0  0  1  0  0  0  0  0999 V2000
   38.2790   28.6820   42.3100 C   0  0  1  0  0  0  0  0  0  0  0  0
   37.3390   28.3040   43.3490 C   0  0  0  0  0  0  0  0  0  0  0  0
   37.1000   27.8430   41.9330 C   0  0  2  0  0  0  0  0  0  0  0  0
   39.3120   28.2480   42.3540 H   0  0  0  0  0  0  0  0  0  0  0  0
   37.5930   27.5290   44.0860 H   0  0  0  0  0  0  0  0  0  0  0  0
   36.5700   29.0250   43.7280 H   0  0  0  0  0  0  0  0  0  0  0  0
   36.3120   28.3270   41.3440 H   0  0  0  0  0  0  0  0  0  0  0  0
   37.3730   26.4160   41.6410 C   0  0  0  0  0  0  0  0  0  0  0  0
   38.2400   25.6140   42.3580 C   0  0  0  0  0  0  0  0  0  0  0  0
   38.4280   24.2830   42.0330 C   0  0  0  0  0  0  0  0  0  0  0  0
   37.7450   23.7280   40.9750 C   0  0  0  0  0  0  0  0  0  0  0  0
   37.8920   22.4230   40.6160 N   0  0  0  0  0  0  0  0  0  0  0  0
   37.2100   21.8970   39.5750 C   0  0  0  0  0  0  0  0  0  0  0  0
   36.3090   22.6350   38.7930 C   0  0  0  0  0  0  0  0  0  0  0  0
   36.1380   23.9720   39.1370 C   0  0  0  0  0  0  0  0  0  0  0  0
   36.8560   24.4920   40.2140 C   0  0  0  0  0  0  0  0  0  0  0  0
   36.7080   25.8180   40.5850 C   0  0  0  0  0  0  0  0  0  0  0  0
   38.7640   26.0720   43.1860 H   0  0  0  0  0  0  0  0  0  0  0  0
   39.1110   23.6510   42.5990 H   0  0  0  0  0  0  0  0  0  0  0  0
   37.3800   20.8600   39.3550 H   0  0  0  0  0  0  0  0  0  0  0  0
   35.7840   22.1720   37.9690 H   0  0  0  0  0  0  0  0  0  0  0  0
   35.4580   24.5710   38.5620 H   0  0  0  0  0  0  0  0  0  0  0  0
   36.0150   26.3380   39.9360 H   0  0  0  0  0  0  0  0  0  0  0  0
   37.2350   30.6260   41.0910 C   0  0  0  0  0  0  0  0  0  0  0  0
   38.3500   30.0720   41.7900 C   0  0  0  0  0  0  0  0  0  0  0  0
   39.4710   30.8600   41.9560 C   0  0  0  0  0  0  0  0  0  0  0  0
   39.4280   32.1240   41.4350 N   0  0  0  0  0  0  0  0  0  0  0  0
   38.3720   32.6320   40.7800 C   0  0  0  0  0  0  0  0  0  0  0  0
   37.2610   31.8730   40.6060 N   0  0  0  0  0  0  0  0  0  0  0  0
   36.3580   30.0000   40.9650 H   0  0  0  0  0  0  0  0  0  0  0  0
   40.3360   30.4860   42.4770 H   0  0  0  0  0  0  0  0  0  0  0  0
   38.5420   34.0360   40.2940 C   0  0  0  0  0  0  0  0  0  0  0  0
   38.7780   34.9250   41.3280 F   0  0  0  0  0  0  0  0  0  0  0  0
   39.6450   34.1050   39.4430 F   0  0  0  0  0  0  0  0  0  0  0  0
   37.4430   34.4370   39.5960 F   0  0  0  0  0  0  0  0  0  0  0  0
  1  4  1  1  0  0  0
  1  2  1  0  0  0  0
  2  6  1  0  0  0  0
  2  5  1  0  0  0  0
  3  7  1  6  0  0  0
  3  1  1  0  0  0  0
  3  2  1  0  0  0  0
  8  3  1  0  0  0  0
  8  9  1  0  0  0  0
  9 18  1  0  0  0  0
 10  9  2  0  0  0  0
 10 19  1  0  0  0  0
 11 10  1  0  0  0  0
 12 11  1  0  0  0  0
 13 12  2  0  0  0  0
 14 15  2  0  0  0  0
 14 13  1  0  0  0  0
 15 16  1  0  0  0  0
 16 17  1  0  0  0  0
 16 11  2  0  0  0  0
 17  8  2  0  0  0  0
 20 13  1  0  0  0  0
 21 14  1  0  0  0  0
 22 15  1  0  0  0  0
 23 17  1  0  0  0  0
 24 25  1  0  0  0  0
 25 26  2  0  0  0  0
 25  1  1  0  0  0  0
 26 31  1  0  0  0  0
 27 26  1  0  0  0  0
 28 27  2  0  0  0  0
 29 28  1  0  0  0  0
 29 24  2  0  0  0  0
 30 24  1  0  0  0  0
 32 28  1  0  0  0  0
 32 33  1  0  0  0  0
 34 32  1  0  0  0  0
 35 32  1  0  0  0  0
M  END
>  <minimizedAffinity>
-6.29838848

$$$$

 OpenBabel03252503223D

 35 38  0  0  1  0  0  0  0  0999 V2000
   35.0820   29.1350   37.8820 C   0  0  1  0  0  0  0  0  0  0  0  0
   35.3470   28.4270   36.6430 C   0  0  0  0  0  0  0  0  0  0  0  0
   33.9640   28.3740   37.2430 C   0  0  2  0  0  0  0  0  0  0  0  0
   35.1080   30.2550   37.8620 H   0  0  0  0  0  0  0  0  0  0  0  0
   35.4540   28.9710   35.6940 H   0  0  0  0  0  0  0  0  0  0  0  0
   35.8790   27.4420   36.6380 H   0  0  0  0  0  0  0  0  0  0  0  0
   33.6390   27.4530   37.7420 H   0  0  0  0  0  0  0  0  0  0  0  0
   32.9150   29.1800   36.5750 C   0  0  0  0  0  0  0  0  0  0  0  0
   32.8590   29.4360   35.2190 C   0  0  0  0  0  0  0  0  0  0  0  0
   31.8360   30.1860   34.6680 C   0  0  0  0  0  0  0  0  0  0  0  0
   30.8420   30.6960   35.4730 C   0  0  0  0  0  0  0  0  0  0  0  0
   29.8120   31.4360   34.9800 N   0  0  0  0  0  0  0  0  0  0  0  0
   28.8450   31.9250   35.7880 C   0  0  0  0  0  0  0  0  0  0  0  0
   28.8210   31.7140   37.1750 C   0  0  0  0  0  0  0  0  0  0  0  0
   29.8620   30.9590   37.7070 C   0  0  0  0  0  0  0  0  0  0  0  0
   30.8490   30.4680   36.8520 C   0  0  0  0  0  0  0  0  0  0  0  0
   31.8980   29.7120   37.3480 C   0  0  0  0  0  0  0  0  0  0  0  0
   33.6490   29.0250   34.6060 H   0  0  0  0  0  0  0  0  0  0  0  0
   31.7910   30.3870   33.5980 H   0  0  0  0  0  0  0  0  0  0  0  0
   28.0660   32.4990   35.3240 H   0  0  0  0  0  0  0  0  0  0  0  0
   28.0270   32.1230   37.7830 H   0  0  0  0  0  0  0  0  0  0  0  0
   29.8800   30.7760   38.7640 H   0  0  0  0  0  0  0  0  0  0  0  0
   31.8330   29.5980   38.4220 H   0  0  0  0  0  0  0  0  0  0  0  0
   36.3010   27.4040   39.2500 C   0  0  0  0  0  0  0  0  0  0  0  0
   35.6090   28.6520   39.1840 C   0  0  0  0  0  0  0  0  0  0  0  0
   35.4510   29.3720   40.3510 C   0  0  0  0  0  0  0  0  0  0  0  0
   35.9750   28.8310   41.4940 N   0  0  0  0  0  0  0  0  0  0  0  0
   36.6240   27.6570   41.5410 C   0  0  0  0  0  0  0  0  0  0  0  0
   36.7890   26.9350   40.4050 N   0  0  0  0  0  0  0  0  0  0  0  0
   36.4210   26.8450   38.3300 H   0  0  0  0  0  0  0  0  0  0  0  0
   34.9370   30.3180   40.3500 H   0  0  0  0  0  0  0  0  0  0  0  0
   37.1140   27.2570   42.8960 C   0  0  0  0  0  0  0  0  0  0  0  0
   37.9500   28.2090   43.4540 F   0  0  0  0  0  0  0  0  0  0  0  0
   36.0290   27.1160   43.7620 F   0  0  0  0  0  0  0  0  0  0  0  0
   37.7660   26.0630   42.8370 F   0  0  0  0  0  0  0  0  0  0  0  0
  1  4  1  6  0  0  0
  1 25  1  0  0  0  0
  2  3  1  0  0  0  0
  2  1  1  0  0  0  0
  3  7  1  1  0  0  0
  3  1  1  0  0  0  0
  5  2  1  0  0  0  0
  6  2  1  0  0  0  0
  8  3  1  0  0  0  0
  8 17  1  0  0  0  0
  9  8  2  0  0  0  0
 10  9  1  0  0  0  0
 10 11  2  0  0  0  0
 11 16  1  0  0  0  0
 12 11  1  0  0  0  0
 12 13  2  0  0  0  0
 13 14  1  0  0  0  0
 14 15  2  0  0  0  0
 14 21  1  0  0  0  0
 15 22  1  0  0  0  0
 16 17  2  0  0  0  0
 16 15  1  0  0  0  0
 17 23  1  0  0  0  0
 18  9  1  0  0  0  0
 19 10  1  0  0  0  0
 20 13  1  0  0  0  0
 24 29  1  0  0  0  0
 25 24  2  0  0  0  0
 25 26  1  0  0  0  0
 26 27  2  0  0  0  0
 27 28  1  0  0  0  0
 28 32  1  0  0  0  0
 29 28  2  0  0  0  0
 30 24  1  0  0  0  0
 31 26  1  0  0  0  0
 32 33  1  0  0  0  0
 32 34  1  0  0  0  0
 35 32  1  0  0  0  0
M  END
>  <minimizedAffinity>
-6.1153183

$$$$

 OpenBabel03252503223D

 35 38  0  0  1  0  0  0  0  0999 V2000
   38.4320   28.8400   42.2850 C   0  0  1  0  0  0  0  0  0  0  0  0
   37.6370   28.4880   43.4460 C   0  0  0  0  0  0  0  0  0  0  0  0
   37.1800   28.0490   42.0780 C   0  0  2  0  0  0  0  0  0  0  0  0
   39.4430   28.3680   42.1790 H   0  0  0  0  0  0  0  0  0  0  0  0
   37.9650   27.6970   44.1370 H   0  0  0  0  0  0  0  0  0  0  0  0
   36.9580   29.2330   43.9350 H   0  0  0  0  0  0  0  0  0  0  0  0
   36.3350   28.5660   41.6100 H   0  0  0  0  0  0  0  0  0  0  0  0
   37.3550   26.6140   41.7450 C   0  0  0  0  0  0  0  0  0  0  0  0
   36.7700   25.5670   42.4290 C   0  0  0  0  0  0  0  0  0  0  0  0
   36.9690   24.2540   42.0450 C   0  0  0  0  0  0  0  0  0  0  0  0
   37.7630   23.9640   40.9590 C   0  0  0  0  0  0  0  0  0  0  0  0
   37.9880   22.6890   40.5380 N   0  0  0  0  0  0  0  0  0  0  0  0
   38.7700   22.4280   39.4670 C   0  0  0  0  0  0  0  0  0  0  0  0
   39.4010   23.4270   38.7120 C   0  0  0  0  0  0  0  0  0  0  0  0
   39.1890   24.7410   39.1200 C   0  0  0  0  0  0  0  0  0  0  0  0
   38.3800   24.9850   40.2290 C   0  0  0  0  0  0  0  0  0  0  0  0
   38.1460   26.2800   40.6600 C   0  0  0  0  0  0  0  0  0  0  0  0
   36.1500   25.8180   43.2790 H   0  0  0  0  0  0  0  0  0  0  0  0
   36.5070   23.4280   42.5850 H   0  0  0  0  0  0  0  0  0  0  0  0
   38.8980   21.3970   39.1980 H   0  0  0  0  0  0  0  0  0  0  0  0
   40.0180   23.1720   37.8620 H   0  0  0  0  0  0  0  0  0  0  0  0
   39.6560   25.5350   38.5680 H   0  0  0  0  0  0  0  0  0  0  0  0
   38.6720   27.0030   40.0500 H   0  0  0  0  0  0  0  0  0  0  0  0
   37.3600   30.7620   41.0560 C   0  0  0  0  0  0  0  0  0  0  0  0
   38.4800   30.2310   41.7650 C   0  0  0  0  0  0  0  0  0  0  0  0
   39.5830   31.0410   41.9410 C   0  0  0  0  0  0  0  0  0  0  0  0
   39.5200   32.3040   41.4180 N   0  0  0  0  0  0  0  0  0  0  0  0
   38.4600   32.7900   40.7540 C   0  0  0  0  0  0  0  0  0  0  0  0
   37.3660   32.0090   40.5710 N   0  0  0  0  0  0  0  0  0  0  0  0
   36.4970   30.1190   40.9220 H   0  0  0  0  0  0  0  0  0  0  0  0
   40.4510   30.6850   42.4700 H   0  0  0  0  0  0  0  0  0  0  0  0
   38.6060   34.1970   40.2690 C   0  0  0  0  0  0  0  0  0  0  0  0
   38.8340   35.0890   41.3030 F   0  0  0  0  0  0  0  0  0  0  0  0
   39.7040   34.2840   39.4120 F   0  0  0  0  0  0  0  0  0  0  0  0
   37.4980   34.5830   39.5770 F   0  0  0  0  0  0  0  0  0  0  0  0
  1  4  1  6  0  0  0
  1  2  1  0  0  0  0
  2  6  1  0  0  0  0
  2  5  1  0  0  0  0
  3  7  1  6  0  0  0
  3  1  1  0  0  0  0
  3  2  1  0  0  0  0
  8  3  1  0  0  0  0
  8  9  1  0  0  0  0
  9 18  1  0  0  0  0
 10  9  2  0  0  0  0
 10 19  1  0  0  0  0
 11 10  1  0  0  0  0
 12 11  1  0  0  0  0
 13 12  2  0  0  0  0
 14 15  2  0  0  0  0
 14 13  1  0  0  0  0
 15 16  1  0  0  0  0
 16 17  1  0  0  0  0
 16 11  2  0  0  0  0
 17  8  2  0  0  0  0
 20 13  1  0  0  0  0
 21 14  1  0  0  0  0
 22 15  1  0  0  0  0
 23 17  1  0  0  0  0
 24 25  1  0  0  0  0
 25 26  2  0  0  0  0
 25  1  1  0  0  0  0
 26 31  1  0  0  0  0
 27 26  1  0  0  0  0
 28 27  2  0  0  0  0
 29 28  1  0  0  0  0
 29 24  2  0  0  0  0
 30 24  1  0  0  0  0
 32 28  1  0  0  0  0
 32 33  1  0  0  0  0
 34 32  1  0  0  0  0
 35 32  1  0  0  0  0
M  END
>  <minimizedAffinity>
-6.11426401

$$$$

 OpenBabel03252503223D

 35 38  0  0  1  0  0  0  0  0999 V2000
   34.6640   29.2210   38.0680 C   0  0  1  0  0  0  0  0  0  0  0  0
   34.7540   28.8160   36.6780 C   0  0  0  0  0  0  0  0  0  0  0  0
   33.4720   28.5760   37.4360 C   0  0  2  0  0  0  0  0  0  0  0  0
   34.6780   30.3190   38.2970 H   0  0  0  0  0  0  0  0  0  0  0  0
   34.7190   29.5610   35.8690 H   0  0  0  0  0  0  0  0  0  0  0  0
   35.2880   27.8780   36.3780 H   0  0  0  0  0  0  0  0  0  0  0  0
   33.2290   27.5560   37.7550 H   0  0  0  0  0  0  0  0  0  0  0  0
   32.3310   29.4680   37.1170 C   0  0  0  0  0  0  0  0  0  0  0  0
   31.3690   29.8740   38.0200 C   0  0  0  0  0  0  0  0  0  0  0  0
   30.3430   30.7230   37.6490 C   0  0  0  0  0  0  0  0  0  0  0  0
   30.2630   31.1850   36.3550 C   0  0  0  0  0  0  0  0  0  0  0  0
   29.2760   32.0250   35.9390 N   0  0  0  0  0  0  0  0  0  0  0  0
   29.2180   32.4700   34.6640 C   0  0  0  0  0  0  0  0  0  0  0  0
   30.1520   32.1110   33.6810 C   0  0  0  0  0  0  0  0  0  0  0  0
   31.1740   31.2530   34.0770 C   0  0  0  0  0  0  0  0  0  0  0  0
   31.2100   30.8070   35.3980 C   0  0  0  0  0  0  0  0  0  0  0  0
   32.2140   29.9550   35.8270 C   0  0  0  0  0  0  0  0  0  0  0  0
   31.4520   29.4990   39.0310 H   0  0  0  0  0  0  0  0  0  0  0  0
   29.5840   31.0440   38.3620 H   0  0  0  0  0  0  0  0  0  0  0  0
   28.4090   33.1290   34.4140 H   0  0  0  0  0  0  0  0  0  0  0  0
   30.0680   32.4910   32.6720 H   0  0  0  0  0  0  0  0  0  0  0  0
   31.9080   30.9550   33.3540 H   0  0  0  0  0  0  0  0  0  0  0  0
   32.8920   29.7020   35.0220 H   0  0  0  0  0  0  0  0  0  0  0  0
   35.4220   29.0260   40.4640 C   0  0  0  0  0  0  0  0  0  0  0  0
   35.3760   28.4840   39.1430 C   0  0  0  0  0  0  0  0  0  0  0  0
   36.0070   27.2790   38.9110 C   0  0  0  0  0  0  0  0  0  0  0  0
   36.6350   26.6880   39.9740 N   0  0  0  0  0  0  0  0  0  0  0  0
   36.6700   27.2090   41.2100 C   0  0  0  0  0  0  0  0  0  0  0  0
   36.0550   28.3930   41.4580 N   0  0  0  0  0  0  0  0  0  0  0  0
   34.9240   29.9730   40.6380 H   0  0  0  0  0  0  0  0  0  0  0  0
   35.9990   26.8320   37.9320 H   0  0  0  0  0  0  0  0  0  0  0  0
   37.4120   26.3950   42.2210 C   0  0  0  0  0  0  0  0  0  0  0  0
   37.5690   27.0640   43.4230 F   0  0  0  0  0  0  0  0  0  0  0  0
   36.6960   25.2300   42.4990 F   0  0  0  0  0  0  0  0  0  0  0  0
   38.6360   26.0350   41.7430 F   0  0  0  0  0  0  0  0  0  0  0  0
  1  4  1  1  0  0  0
  1 25  1  0  0  0  0
  2  3  1  0  0  0  0
  2  1  1  0  0  0  0
  3  7  1  1  0  0  0
  3  1  1  0  0  0  0
  5  2  1  0  0  0  0
  6  2  1  0  0  0  0
  8  3  1  0  0  0  0
  8  9  1  0  0  0  0
  9 18  1  0  0  0  0
 10  9  2  0  0  0  0
 10 19  1  0  0  0  0
 11 10  1  0  0  0  0
 12 11  1  0  0  0  0
 13 12  2  0  0  0  0
 14 15  2  0  0  0  0
 14 13  1  0  0  0  0
 15 16  1  0  0  0  0
 16 17  1  0  0  0  0
 16 11  2  0  0  0  0
 17  8  2  0  0  0  0
 20 13  1  0  0  0  0
 21 14  1  0  0  0  0
 22 15  1  0  0  0  0
 23 17  1  0  0  0  0
 24 30  1  0  0  0  0
 24 29  1  0  0  0  0
 25 24  2  0  0  0  0
 26 25  1  0  0  0  0
 26 27  2  0  0  0  0
 27 28  1  0  0  0  0
 28 29  2  0  0  0  0
 28 32  1  0  0  0  0
 31 26  1  0  0  0  0
 32 34  1  0  0  0  0
 32 33  1  0  0  0  0
 35 32  1  0  0  0  0
M  END
>  <minimizedAffinity>
-6.06646872

$$$$

 OpenBabel03252503223D

 35 38  0  0  1  0  0  0  0  0999 V2000
   36.9690   27.1740   41.5870 C   0  0  1  0  0  0  0  0  0  0  0  0
   36.8530   27.4630   43.0040 C   0  0  0  0  0  0  0  0  0  0  0  0
   38.1490   27.7620   42.2930 C   0  0  2  0  0  0  0  0  0  0  0  0
   36.3540   27.7830   40.8750 H   0  0  0  0  0  0  0  0  0  0  0  0
   36.2710   28.3260   43.3590 H   0  0  0  0  0  0  0  0  0  0  0  0
   36.9320   26.6510   43.7720 H   0  0  0  0  0  0  0  0  0  0  0  0
   39.0090   27.1030   42.4610 H   0  0  0  0  0  0  0  0  0  0  0  0
   38.4410   29.1880   42.0120 C   0  0  0  0  0  0  0  0  0  0  0  0
   39.4500   29.9200   42.6070 C   0  0  0  0  0  0  0  0  0  0  0  0
   39.6700   31.2450   42.2780 C   0  0  0  0  0  0  0  0  0  0  0  0
   38.8790   31.8640   41.3370 C   0  0  0  0  0  0  0  0  0  0  0  0
   39.0560   33.1640   40.9750 N   0  0  0  0  0  0  0  0  0  0  0  0
   38.2690   33.7510   40.0460 C   0  0  0  0  0  0  0  0  0  0  0  0
   37.2240   33.0840   39.3900 C   0  0  0  0  0  0  0  0  0  0  0  0
   37.0190   31.7530   39.7410 C   0  0  0  0  0  0  0  0  0  0  0  0
   37.8440   31.1710   40.7030 C   0  0  0  0  0  0  0  0  0  0  0  0
   37.6690   29.8480   41.0730 C   0  0  0  0  0  0  0  0  0  0  0  0
   40.0590   29.4130   43.3430 H   0  0  0  0  0  0  0  0  0  0  0  0
   40.4660   31.8220   42.7470 H   0  0  0  0  0  0  0  0  0  0  0  0
   38.4720   34.7790   39.8150 H   0  0  0  0  0  0  0  0  0  0  0  0
   36.6190   33.5940   38.6530 H   0  0  0  0  0  0  0  0  0  0  0  0
   36.2280   31.2080   39.2610 H   0  0  0  0  0  0  0  0  0  0  0  0
   36.8400   29.3930   40.5460 H   0  0  0  0  0  0  0  0  0  0  0  0
   37.7090   24.7820   41.8800 C   0  0  0  0  0  0  0  0  0  0  0  0
   37.0740   25.7800   41.0810 C   0  0  0  0  0  0  0  0  0  0  0  0
   36.5760   25.4090   39.8490 C   0  0  0  0  0  0  0  0  0  0  0  0
   36.7300   24.1000   39.4820 N   0  0  0  0  0  0  0  0  0  0  0  0
   37.3290   23.1720   40.2440 C   0  0  0  0  0  0  0  0  0  0  0  0
   37.8240   23.5170   41.4580 N   0  0  0  0  0  0  0  0  0  0  0  0
   38.0970   25.0810   42.8470 H   0  0  0  0  0  0  0  0  0  0  0  0
   36.0890   26.1280   39.2120 H   0  0  0  0  0  0  0  0  0  0  0  0
   37.3860   21.8020   39.6460 C   0  0  0  0  0  0  0  0  0  0  0  0
   36.1650   21.4010   39.1320 F   0  0  0  0  0  0  0  0  0  0  0  0
   38.2930   21.7930   38.5860 F   0  0  0  0  0  0  0  0  0  0  0  0
   37.8060   20.8940   40.5700 F   0  0  0  0  0  0  0  0  0  0  0  0
  1  4  1  6  0  0  0
  1  3  1  0  0  0  0
  1  2  1  0  0  0  0
  2  5  1  0  0  0  0
  2  6  1  0  0  0  0
  3  7  1  1  0  0  0
  3  2  1  0  0  0  0
  8  3  1  0  0  0  0
  8  9  1  0  0  0  0
  9 18  1  0  0  0  0
 10  9  2  0  0  0  0
 10 19  1  0  0  0  0
 11 10  1  0  0  0  0
 12 11  1  0  0  0  0
 13 12  2  0  0  0  0
 14 15  2  0  0  0  0
 14 13  1  0  0  0  0
 15 16  1  0  0  0  0
 16 17  1  0  0  0  0
 16 11  2  0  0  0  0
 17  8  2  0  0  0  0
 20 13  1  0  0  0  0
 21 14  1  0  0  0  0
 22 15  1  0  0  0  0
 23 17  1  0  0  0  0
 24 30  1  0  0  0  0
 25  1  1  0  0  0  0
 25 24  2  0  0  0  0
 26 25  1  0  0  0  0
 27 26  2  0  0  0  0
 27 28  1  0  0  0  0
 28 29  2  0  0  0  0
 29 24  1  0  0  0  0
 31 26  1  0  0  0  0
 32 28  1  0  0  0  0
 32 35  1  0  0  0  0
 33 32  1  0  0  0  0
 34 32  1  0  0  0  0
M  END
>  <minimizedAffinity>
-5.9105525

$$$$

 OpenBabel03252503223D

 35 38  0  0  1  0  0  0  0  0999 V2000
   37.5500   30.2800   39.9020 C   0  0  1  0  0  0  0  0  0  0  0  0
   36.5750   31.2880   40.2730 C   0  0  0  0  0  0  0  0  0  0  0  0
   37.9490   31.3270   40.8930 C   0  0  2  0  0  0  0  0  0  0  0  0
   37.9450   30.2930   38.8530 H   0  0  0  0  0  0  0  0  0  0  0  0
   36.3190   32.1070   39.5840 H   0  0  0  0  0  0  0  0  0  0  0  0
   35.7530   31.0640   41.0000 H   0  0  0  0  0  0  0  0  0  0  0  0
   38.0680   31.0070   41.9350 H   0  0  0  0  0  0  0  0  0  0  0  0
   38.8720   32.3790   40.4050 C   0  0  0  0  0  0  0  0  0  0  0  0
   38.9390   33.6650   40.9030 C   0  0  0  0  0  0  0  0  0  0  0  0
   39.8420   34.5860   40.4040 C   0  0  0  0  0  0  0  0  0  0  0  0
   40.7020   34.2310   39.3900 C   0  0  0  0  0  0  0  0  0  0  0  0
   41.6110   35.0980   38.8670 N   0  0  0  0  0  0  0  0  0  0  0  0
   42.4490   34.7270   37.8730 C   0  0  0  0  0  0  0  0  0  0  0  0
   42.4530   33.4430   37.3090 C   0  0  0  0  0  0  0  0  0  0  0  0
   41.5330   32.5340   37.8240 C   0  0  0  0  0  0  0  0  0  0  0  0
   40.6790   32.9420   38.8490 C   0  0  0  0  0  0  0  0  0  0  0  0
   39.7530   32.0630   39.3860 C   0  0  0  0  0  0  0  0  0  0  0  0
   38.2540   33.9220   41.7000 H   0  0  0  0  0  0  0  0  0  0  0  0
   39.8940   35.6010   40.7970 H   0  0  0  0  0  0  0  0  0  0  0  0
   43.1370   35.4680   37.5140 H   0  0  0  0  0  0  0  0  0  0  0  0
   43.1410   33.1890   36.5150 H   0  0  0  0  0  0  0  0  0  0  0  0
   41.5040   31.5410   37.4190 H   0  0  0  0  0  0  0  0  0  0  0  0
   39.7940   31.0970   38.9000 H   0  0  0  0  0  0  0  0  0  0  0  0
   37.2070   27.8290   39.4230 C   0  0  0  0  0  0  0  0  0  0  0  0
   37.4350   28.8740   40.3700 C   0  0  0  0  0  0  0  0  0  0  0  0
   37.5390   28.5350   41.7030 C   0  0  0  0  0  0  0  0  0  0  0  0
   37.4150   27.2100   42.0220 N   0  0  0  0  0  0  0  0  0  0  0  0
   37.2010   26.2380   41.1210 C   0  0  0  0  0  0  0  0  0  0  0  0
   37.0960   26.5520   39.8060 N   0  0  0  0  0  0  0  0  0  0  0  0
   37.1270   28.1040   38.3780 H   0  0  0  0  0  0  0  0  0  0  0  0
   37.7110   29.2890   42.4520 H   0  0  0  0  0  0  0  0  0  0  0  0
   37.0980   24.8580   41.6890 C   0  0  0  0  0  0  0  0  0  0  0  0
   36.6250   23.9430   40.7640 F   0  0  0  0  0  0  0  0  0  0  0  0
   38.3630   24.4190   42.0810 F   0  0  0  0  0  0  0  0  0  0  0  0
   36.2900   24.8500   42.7850 F   0  0  0  0  0  0  0  0  0  0  0  0
  1  4  1  6  0  0  0
  1  2  1  0  0  0  0
  1 25  1  0  0  0  0
  1  3  1  0  0  0  0
  2  3  1  0  0  0  0
  2  6  1  0  0  0  0
  3  7  1  1  0  0  0
  5  2  1  0  0  0  0
  8  3  1  0  0  0  0
  8  9  1  0  0  0  0
  9 18  1  0  0  0  0
 10 19  1  0  0  0  0
 10  9  2  0  0  0  0
 11 10  1  0  0  0  0
 12 11  1  0  0  0  0
 13 12  2  0  0  0  0
 14 15  2  0  0  0  0
 14 13  1  0  0  0  0
 15 16  1  0  0  0  0
 16 17  1  0  0  0  0
 16 11  2  0  0  0  0
 17  8  2  0  0  0  0
 20 13  1  0  0  0  0
 21 14  1  0  0  0  0
 22 15  1  0  0  0  0
 23 17  1  0  0  0  0
 24 29  2  0  0  0  0
 24 25  1  0  0  0  0
 25 26  2  0  0  0  0
 26 27  1  0  0  0  0
 26 31  1  0  0  0  0
 28 32  1  0  0  0  0
 28 27  2  0  0  0  0
 29 28  1  0  0  0  0
 30 24  1  0  0  0  0
 32 34  1  0  0  0  0
 32 35  1  0  0  0  0
 33 32  1  0  0  0  0
M  END
>  <minimizedAffinity>
-5.78851175

$$$$

 OpenBabel03252503223D

 35 38  0  0  1  0  0  0  0  0999 V2000
   32.9130   28.6330   37.2540 C   0  0  1  0  0  0  0  0  0  0  0  0
   33.5830   27.4350   36.7840 C   0  0  0  0  0  0  0  0  0  0  0  0
   34.4080   28.6040   37.2600 C   0  0  2  0  0  0  0  0  0  0  0  0
   32.3260   28.5670   38.2070 H   0  0  0  0  0  0  0  0  0  0  0  0
   33.6110   26.5250   37.4000 H   0  0  0  0  0  0  0  0  0  0  0  0
   33.6890   27.2190   35.6900 H   0  0  0  0  0  0  0  0  0  0  0  0
   34.9220   29.2260   36.5190 H   0  0  0  0  0  0  0  0  0  0  0  0
   35.0590   28.4650   38.5850 C   0  0  0  0  0  0  0  0  0  0  0  0
   34.8630   29.3160   39.6550 C   0  0  0  0  0  0  0  0  0  0  0  0
   35.4950   29.1090   40.8670 C   0  0  0  0  0  0  0  0  0  0  0  0
   36.3410   28.0360   41.0310 C   0  0  0  0  0  0  0  0  0  0  0  0
   36.9840   27.7850   42.2040 N   0  0  0  0  0  0  0  0  0  0  0  0
   37.8080   26.7230   42.3440 C   0  0  0  0  0  0  0  0  0  0  0  0
   38.0640   25.8060   41.3130 C   0  0  0  0  0  0  0  0  0  0  0  0
   37.4200   26.0370   40.1010 C   0  0  0  0  0  0  0  0  0  0  0  0
   36.5760   27.1410   39.9820 C   0  0  0  0  0  0  0  0  0  0  0  0
   35.9170   27.3990   38.7920 C   0  0  0  0  0  0  0  0  0  0  0  0
   34.1940   30.1530   39.5040 H   0  0  0  0  0  0  0  0  0  0  0  0
   35.3400   29.7810   41.7110 H   0  0  0  0  0  0  0  0  0  0  0  0
   38.2780   26.5940   43.3000 H   0  0  0  0  0  0  0  0  0  0  0  0
   38.7310   24.9700   41.4690 H   0  0  0  0  0  0  0  0  0  0  0  0
   37.5900   25.3590   39.2870 H   0  0  0  0  0  0  0  0  0  0  0  0
   36.1670   26.6690   38.0330 H   0  0  0  0  0  0  0  0  0  0  0  0
   31.1540   30.3770   36.7860 C   0  0  0  0  0  0  0  0  0  0  0  0
   32.2310   29.5640   36.3180 C   0  0  0  0  0  0  0  0  0  0  0  0
   32.6020   29.6740   34.9930 C   0  0  0  0  0  0  0  0  0  0  0  0
   31.9040   30.5610   34.2200 N   0  0  0  0  0  0  0  0  0  0  0  0
   30.8930   31.3190   34.6740 C   0  0  0  0  0  0  0  0  0  0  0  0
   30.5130   31.2250   35.9730 N   0  0  0  0  0  0  0  0  0  0  0  0
   30.8680   30.2850   37.8270 H   0  0  0  0  0  0  0  0  0  0  0  0
   33.4090   29.0820   34.5960 H   0  0  0  0  0  0  0  0  0  0  0  0
   30.2700   32.2210   33.6560 C   0  0  0  0  0  0  0  0  0  0  0  0
   29.1520   32.8730   34.1470 F   0  0  0  0  0  0  0  0  0  0  0  0
   31.1840   33.2080   33.2860 F   0  0  0  0  0  0  0  0  0  0  0  0
   29.9280   31.5200   32.5400 F   0  0  0  0  0  0  0  0  0  0  0  0
  1  3  1  0  0  0  0
  1  4  1  1  0  0  0
  2  1  1  0  0  0  0
  2  3  1  0  0  0  0
  2  5  1  0  0  0  0
  3  7  1  6  0  0  0
  3  8  1  0  0  0  0
  6  2  1  0  0  0  0
  8 17  2  0  0  0  0
  8  9  1  0  0  0  0
  9 10  2  0  0  0  0
 10 11  1  0  0  0  0
 10 19  1  0  0  0  0
 11 12  1  0  0  0  0
 12 13  2  0  0  0  0
 13 20  1  0  0  0  0
 14 21  1  0  0  0  0
 14 13  1  0  0  0  0
 15 14  2  0  0  0  0
 16 15  1  0  0  0  0
 16 11  2  0  0  0  0
 17 16  1  0  0  0  0
 18  9  1  0  0  0  0
 22 15  1  0  0  0  0
 23 17  1  0  0  0  0
 24 30  1  0  0  0  0
 25 24  1  0  0  0  0
 25  1  1  0  0  0  0
 26 25  2  0  0  0  0
 27 28  2  0  0  0  0
 27 26  1  0  0  0  0
 28 29  1  0  0  0  0
 29 24  2  0  0  0  0
 31 26  1  0  0  0  0
 32 33  1  0  0  0  0
 32 28  1  0  0  0  0
 34 32  1  0  0  0  0
 35 32  1  0  0  0  0
M  END
>  <minimizedAffinity>
-5.73076725

$$$$

 OpenBabel03252503223D

 35 38  0  0  1  0  0  0  0  0999 V2000
   37.5950   29.5230   39.0810 C   0  0  1  0  0  0  0  0  0  0  0  0
   36.5530   30.2950   38.4320 C   0  0  0  0  0  0  0  0  0  0  0  0
   37.0010   30.6800   39.8190 C   0  0  2  0  0  0  0  0  0  0  0  0
   38.6300   29.5740   38.6540 H   0  0  0  0  0  0  0  0  0  0  0  0
   36.7930   30.9980   37.6200 H   0  0  0  0  0  0  0  0  0  0  0  0
   35.4970   29.9230   38.3810 H   0  0  0  0  0  0  0  0  0  0  0  0
   36.3500   30.4480   40.6690 H   0  0  0  0  0  0  0  0  0  0  0  0
   37.8480   31.8920   39.9340 C   0  0  0  0  0  0  0  0  0  0  0  0
   37.3790   33.1900   39.9020 C   0  0  0  0  0  0  0  0  0  0  0  0
   38.2320   34.2700   40.0340 C   0  0  0  0  0  0  0  0  0  0  0  0
   39.5830   34.0660   40.2020 C   0  0  0  0  0  0  0  0  0  0  0  0
   40.4650   35.0930   40.3400 N   0  0  0  0  0  0  0  0  0  0  0  0
   41.7880   34.8700   40.5080 C   0  0  0  0  0  0  0  0  0  0  0  0
   42.3520   33.5860   40.5550 C   0  0  0  0  0  0  0  0  0  0  0  0
   41.4730   32.5160   40.4170 C   0  0  0  0  0  0  0  0  0  0  0  0
   40.1140   32.7730   40.2430 C   0  0  0  0  0  0  0  0  0  0  0  0
   39.2120   31.7310   40.1050 C   0  0  0  0  0  0  0  0  0  0  0  0
   36.3140   33.3260   39.7690 H   0  0  0  0  0  0  0  0  0  0  0  0
   37.8620   35.2940   40.0080 H   0  0  0  0  0  0  0  0  0  0  0  0
   42.4180   35.7320   40.6090 H   0  0  0  0  0  0  0  0  0  0  0  0
   43.4160   33.4540   40.6910 H   0  0  0  0  0  0  0  0  0  0  0  0
   41.8660   31.5170   40.4460 H   0  0  0  0  0  0  0  0  0  0  0  0
   39.7080   30.7690   40.1330 H   0  0  0  0  0  0  0  0  0  0  0  0
   37.1780   27.0680   38.6850 C   0  0  0  0  0  0  0  0  0  0  0  0
   37.3420   28.1530   39.5990 C   0  0  0  0  0  0  0  0  0  0  0  0
   37.2570   27.8850   40.9500 C   0  0  0  0  0  0  0  0  0  0  0  0
   37.0190   26.5880   41.3150 N   0  0  0  0  0  0  0  0  0  0  0  0
   36.8670   25.5780   40.4440 C   0  0  0  0  0  0  0  0  0  0  0  0
   36.9480   25.8210   39.1120 N   0  0  0  0  0  0  0  0  0  0  0  0
   37.2470   27.2870   37.6250 H   0  0  0  0  0  0  0  0  0  0  0  0
   37.3750   28.6700   41.6770 H   0  0  0  0  0  0  0  0  0  0  0  0
   36.6150   24.2390   41.0620 C   0  0  0  0  0  0  0  0  0  0  0  0
   37.7010   23.3900   40.9360 F   0  0  0  0  0  0  0  0  0  0  0  0
   36.3800   24.3930   42.4290 F   0  0  0  0  0  0  0  0  0  0  0  0
   35.5180   23.6540   40.5070 F   0  0  0  0  0  0  0  0  0  0  0  0
  1  4  1  6  0  0  0
  1 25  1  0  0  0  0
  1  3  1  0  0  0  0
  2  1  1  0  0  0  0
  2  3  1  0  0  0  0
  3  8  1  0  0  0  0
  3  7  1  1  0  0  0
  5  2  1  0  0  0  0
  6  2  1  0  0  0  0
  8 17  1  0  0  0  0
  9  8  2  0  0  0  0
  9 10  1  0  0  0  0
 10 11  2  0  0  0  0
 11 16  1  0  0  0  0
 11 12  1  0  0  0  0
 12 13  2  0  0  0  0
 13 14  1  0  0  0  0
 13 20  1  0  0  0  0
 14 21  1  0  0  0  0
 15 22  1  0  0  0  0
 15 14  2  0  0  0  0
 16 15  1  0  0  0  0
 17 23  1  0  0  0  0
 17 16  2  0  0  0  0
 18  9  1  0  0  0  0
 19 10  1  0  0  0  0
 24 29  2  0  0  0  0
 24 25  1  0  0  0  0
 25 26  2  0  0  0  0
 26 27  1  0  0  0  0
 26 31  1  0  0  0  0
 28 32  1  0  0  0  0
 28 27  2  0  0  0  0
 29 28  1  0  0  0  0
 30 24  1  0  0  0  0
 32 34  1  0  0  0  0
 33 32  1  0  0  0  0
 35 32  1  0  0  0  0
M  END
>  <minimizedAffinity>
-5.71043777

$$$$

 OpenBabel03252503223D

 35 38  0  0  1  0  0  0  0  0999 V2000
   37.0070   28.2220   42.0110 C   0  0  1  0  0  0  0  0  0  0  0  0
   36.5880   27.4590   43.1710 C   0  0  0  0  0  0  0  0  0  0  0  0
   37.7310   26.9530   42.3280 C   0  0  2  0  0  0  0  0  0  0  0  0
   37.4830   29.2220   42.1860 H   0  0  0  0  0  0  0  0  0  0  0  0
   36.8340   27.7950   44.1890 H   0  0  0  0  0  0  0  0  0  0  0  0
   35.6770   26.8070   43.1410 H   0  0  0  0  0  0  0  0  0  0  0  0
   37.5590   26.1010   41.6590 H   0  0  0  0  0  0  0  0  0  0  0  0
   39.0930   27.0950   42.8960 C   0  0  0  0  0  0  0  0  0  0  0  0
   39.7300   26.1450   43.6690 C   0  0  0  0  0  0  0  0  0  0  0  0
   41.0120   26.3450   44.1480 C   0  0  0  0  0  0  0  0  0  0  0  0
   41.6830   27.5120   43.8590 C   0  0  0  0  0  0  0  0  0  0  0  0
   42.9460   27.7570   44.3030 N   0  0  0  0  0  0  0  0  0  0  0  0
   43.5880   28.9080   44.0040 C   0  0  0  0  0  0  0  0  0  0  0  0
   43.0190   29.9270   43.2250 C   0  0  0  0  0  0  0  0  0  0  0  0
   41.7280   29.7040   42.7570 C   0  0  0  0  0  0  0  0  0  0  0  0
   41.0860   28.5080   43.0810 C   0  0  0  0  0  0  0  0  0  0  0  0
   39.8020   28.2530   42.6290 C   0  0  0  0  0  0  0  0  0  0  0  0
   39.1840   25.2360   43.8830 H   0  0  0  0  0  0  0  0  0  0  0  0
   41.5140   25.5950   44.7580 H   0  0  0  0  0  0  0  0  0  0  0  0
   44.5810   29.0260   44.3920 H   0  0  0  0  0  0  0  0  0  0  0  0
   43.5700   30.8320   43.0100 H   0  0  0  0  0  0  0  0  0  0  0  0
   41.2570   30.4600   42.1570 H   0  0  0  0  0  0  0  0  0  0  0  0
   39.4130   29.0800   42.0490 H   0  0  0  0  0  0  0  0  0  0  0  0
   36.4440   27.3560   39.7120 C   0  0  0  0  0  0  0  0  0  0  0  0
   36.1860   28.2760   40.7740 C   0  0  0  0  0  0  0  0  0  0  0  0
   35.1710   29.1950   40.6070 C   0  0  0  0  0  0  0  0  0  0  0  0
   34.4800   29.1560   39.4270 N   0  0  0  0  0  0  0  0  0  0  0  0
   34.7330   28.2850   38.4370 C   0  0  0  0  0  0  0  0  0  0  0  0
   35.7270   27.3740   38.5820 N   0  0  0  0  0  0  0  0  0  0  0  0
   37.2430   26.6370   39.8510 H   0  0  0  0  0  0  0  0  0  0  0  0
   34.9390   29.9080   41.3810 H   0  0  0  0  0  0  0  0  0  0  0  0
   33.8560   28.4200   37.2330 C   0  0  0  0  0  0  0  0  0  0  0  0
   32.8840   29.3920   37.3990 F   0  0  0  0  0  0  0  0  0  0  0  0
   34.6260   28.8030   36.1350 F   0  0  0  0  0  0  0  0  0  0  0  0
   33.2600   27.2310   36.9390 F   0  0  0  0  0  0  0  0  0  0  0  0
  1  4  1  1  0  0  0
  1  3  1  0  0  0  0
  1  2  1  0  0  0  0
  2  5  1  0  0  0  0
  3  7  1  6  0  0  0
  3  8  1  0  0  0  0
  3  2  1  0  0  0  0
  6  2  1  0  0  0  0
  8  9  1  0  0  0  0
  9 18  1  0  0  0  0
  9 10  2  0  0  0  0
 10 19  1  0  0  0  0
 11 10  1  0  0  0  0
 11 12  1  0  0  0  0
 13 12  2  0  0  0  0
 13 20  1  0  0  0  0
 14 13  1  0  0  0  0
 15 16  1  0  0  0  0
 15 14  2  0  0  0  0
 16 11  2  0  0  0  0
 17  8  2  0  0  0  0
 17 16  1  0  0  0  0
 21 14  1  0  0  0  0
 22 15  1  0  0  0  0
 23 17  1  0  0  0  0
 24 30  1  0  0  0  0
 24 25  1  0  0  0  0
 25  1  1  0  0  0  0
 26 25  2  0  0  0  0
 26 31  1  0  0  0  0
 27 26  1  0  0  0  0
 28 29  1  0  0  0  0
 28 27  2  0  0  0  0
 29 24  2  0  0  0  0
 32 33  1  0  0  0  0
 32 28  1  0  0  0  0
 34 32  1  0  0  0  0
 35 32  1  0  0  0  0
M  END
>  <minimizedAffinity>
-5.69725752

$$$$
