
 OpenBabel03252501143D

 20 21  0  0  0  0  0  0  0  0999 V2000
   45.6750   34.7930   44.0640 C   0  0  0  0  0  0  0  0  0  0  0  0
   46.6270   35.0570   43.0660 C   0  0  0  0  0  0  0  0  0  0  0  0
   47.6480   34.1230   42.9700 C   0  0  0  0  0  0  0  0  0  0  0  0
   47.6820   33.0370   43.8130 N   0  0  0  0  0  0  0  0  0  0  0  0
   46.7280   32.8380   44.7610 C   0  0  0  0  0  0  0  0  0  0  0  0
   45.7200   33.7300   44.8790 N   0  0  0  0  0  0  0  0  0  0  0  0
   46.5820   35.9150   42.4140 H   0  0  0  0  0  0  0  0  0  0  0  0
   46.9280   31.9340   45.3200 H   0  0  0  0  0  0  0  0  0  0  0  0
   48.7280   34.2650   41.9330 C   0  0  0  0  0  0  0  0  0  0  0  0
   48.9720   35.7050   41.5350 C   0  0  0  0  0  0  0  0  0  0  0  0
   50.0030   34.8480   42.3250 C   0  0  0  0  0  0  0  0  0  0  0  0
   48.6890   33.5200   41.0940 H   0  0  0  0  0  0  0  0  0  0  0  0
   49.2800   35.8500   40.4810 H   0  0  0  0  0  0  0  0  0  0  0  0
   48.4370   36.4890   42.0700 H   0  0  0  0  0  0  0  0  0  0  0  0
   50.9620   34.6340   41.8480 H   0  0  0  0  0  0  0  0  0  0  0  0
   50.0920   35.1950   43.3960 H   0  0  0  0  0  0  0  0  0  0  0  0
   44.5560   35.7660   44.2110 C   0  0  0  0  0  0  0  0  0  0  0  0
   44.0310   35.6030   45.4980 F   0  0  0  0  0  0  0  0  0  0  0  0
   43.5910   35.4590   43.3070 F   0  0  0  0  0  0  0  0  0  0  0  0
   45.0170   37.0680   44.1400 F   0  0  0  0  0  0  0  0  0  0  0  0
  1 17  1  0  0  0  0
  1  6  1  0  0  0  0
  2  1  2  0  0  0  0
  3  2  1  0  0  0  0
  3  4  2  0  0  0  0
  4  5  1  0  0  0  0
  5  6  2  0  0  0  0
  5  8  1  0  0  0  0
  7  2  1  0  0  0  0
  9 11  1  0  0  0  0
  9  3  1  0  0  0  0
 10  9  1  0  0  0  0
 10 14  1  0  0  0  0
 10 11  1  0  0  0  0
 11 16  1  0  0  0  0
 12  9  1  0  0  0  0
 13 10  1  0  0  0  0
 15 11  1  0  0  0  0
 17 18  1  0  0  0  0
 19 17  1  0  0  0  0
 20 17  1  0  0  0  0
M  END
>  <minimizedAffinity>
-4.68477392

>  <minimizedRMSD>
1.6196444

$$$$
