
 OpenBabel03252509213D

 20 21  0  0  0  0  0  0  0  0999 V2000
   45.2110   34.6480   45.0360 C   0  0  0  0  0  0  0  0  0  0  0  0
   45.9960   34.5350   43.8420 C   0  0  0  0  0  0  0  0  0  0  0  0
   46.9450   33.5340   43.8940 C   0  0  0  0  0  0  0  0  0  0  0  0
   47.1060   32.7230   45.0040 N   0  0  0  0  0  0  0  0  0  0  0  0
   46.3280   32.8820   46.1020 C   0  0  0  0  0  0  0  0  0  0  0  0
   45.3910   33.8430   46.1030 N   0  0  0  0  0  0  0  0  0  0  0  0
   44.4460   35.3840   45.1210 H   0  0  0  0  0  0  0  0  0  0  0  0
   46.6240   32.1490   46.8360 H   0  0  0  0  0  0  0  0  0  0  0  0
   47.7450   33.2770   42.6450 C   0  0  0  0  0  0  0  0  0  0  0  0
   49.1850   33.7920   42.8020 C   0  0  0  0  0  0  0  0  0  0  0  0
   48.7850   32.2910   42.6880 C   0  0  0  0  0  0  0  0  0  0  0  0
   47.2950   33.6990   41.7380 H   0  0  0  0  0  0  0  0  0  0  0  0
   49.4610   34.1680   43.7890 H   0  0  0  0  0  0  0  0  0  0  0  0
   49.7120   34.2140   41.9460 H   0  0  0  0  0  0  0  0  0  0  0  0
   49.1680   31.7830   41.7530 H   0  0  0  0  0  0  0  0  0  0  0  0
   49.0690   31.7230   43.6170 H   0  0  0  0  0  0  0  0  0  0  0  0
   45.7250   35.4440   42.7340 C   0  0  0  0  0  0  0  0  0  0  0  0
   46.8950   35.9660   42.2190 F   0  0  0  0  0  0  0  0  0  0  0  0
   44.8310   36.4330   43.0790 F   0  0  0  0  0  0  0  0  0  0  0  0
   45.1380   34.7370   41.7010 F   0  0  0  0  0  0  0  0  0  0  0  0
  1  7  1  0  0  0  0
  1  6  1  0  0  0  0
  2  3  1  0  0  0  0
  2  1  2  0  0  0  0
  3  4  2  0  0  0  0
  4  5  1  0  0  0  0
  5  6  2  0  0  0  0
  5  8  1  0  0  0  0
  9 11  1  0  0  0  0
  9 10  1  0  0  0  0
  9  3  1  0  0  0  0
 10 13  1  0  0  0  0
 11 10  1  0  0  0  0
 11 16  1  0  0  0  0
 12  9  1  0  0  0  0
 14 10  1  0  0  0  0
 15 11  1  0  0  0  0
 17 19  1  0  0  0  0
 17  2  1  0  0  0  0
 18 17  1  0  0  0  0
 20 17  1  0  0  0  0
M  END
>  <minimizedAffinity>
-3.92362165

>  <minimizedRMSD>
1.77115929

$$$$
