
 OpenBabel03252509203D

 20 21  0  0  0  0  0  0  0  0999 V2000
   45.1730   34.7690   44.9890 C   0  0  0  0  0  0  0  0  0  0  0  0
   45.9690   34.5580   43.8150 C   0  0  0  0  0  0  0  0  0  0  0  0
   46.8540   33.5040   43.9260 C   0  0  0  0  0  0  0  0  0  0  0  0
   46.9490   32.7340   45.0720 N   0  0  0  0  0  0  0  0  0  0  0  0
   46.1650   32.9870   46.1480 C   0  0  0  0  0  0  0  0  0  0  0  0
   45.2880   34.0010   46.0920 N   0  0  0  0  0  0  0  0  0  0  0  0
   44.4540   35.5530   45.0290 H   0  0  0  0  0  0  0  0  0  0  0  0
   46.4050   32.2700   46.9180 H   0  0  0  0  0  0  0  0  0  0  0  0
   47.6550   33.1460   42.7040 C   0  0  0  0  0  0  0  0  0  0  0  0
   49.1140   33.6080   42.8510 C   0  0  0  0  0  0  0  0  0  0  0  0
   48.6520   32.1210   42.8130 C   0  0  0  0  0  0  0  0  0  0  0  0
   47.2330   33.5360   41.7690 H   0  0  0  0  0  0  0  0  0  0  0  0
   49.3950   34.0260   43.8190 H   0  0  0  0  0  0  0  0  0  0  0  0
   49.6680   33.9600   41.9790 H   0  0  0  0  0  0  0  0  0  0  0  0
   49.0230   31.5480   41.9120 H   0  0  0  0  0  0  0  0  0  0  0  0
   48.9020   31.5940   43.7750 H   0  0  0  0  0  0  0  0  0  0  0  0
   45.7700   35.4320   42.6650 C   0  0  0  0  0  0  0  0  0  0  0  0
   46.9740   35.9090   42.1860 F   0  0  0  0  0  0  0  0  0  0  0  0
   44.8860   36.4540   42.9360 F   0  0  0  0  0  0  0  0  0  0  0  0
   45.2120   34.7040   41.6310 F   0  0  0  0  0  0  0  0  0  0  0  0
  1  7  1  0  0  0  0
  1  6  1  0  0  0  0
  2  3  1  0  0  0  0
  2  1  2  0  0  0  0
  3  4  2  0  0  0  0
  4  5  1  0  0  0  0
  5  8  1  0  0  0  0
  6  5  2  0  0  0  0
  9 11  1  0  0  0  0
  9 10  1  0  0  0  0
  9  3  1  0  0  0  0
 10 13  1  0  0  0  0
 11 10  1  0  0  0  0
 11 16  1  0  0  0  0
 12  9  1  0  0  0  0
 14 10  1  0  0  0  0
 15 11  1  0  0  0  0
 17 19  1  0  0  0  0
 17  2  1  0  0  0  0
 18 17  1  0  0  0  0
 20 17  1  0  0  0  0
M  END
>  <minimizedAffinity>
-3.89271641

>  <minimizedRMSD>
1.80409801

$$$$
