
 OpenBabel03242513363D

 29 31  0  0  0  0  0  0  0  0999 V2000
   47.4290   30.8510   45.6080 C   0  0  0  0  0  0  0  0  0  0  0  0
   47.0440   32.1430   45.2890 C   0  0  0  0  0  0  0  0  0  0  0  0
   46.3940   32.8780   46.2480 C   0  0  0  0  0  0  0  0  0  0  0  0
   46.1070   32.3960   47.5080 C   0  0  0  0  0  0  0  0  0  0  0  0
   45.5100   32.8420   48.6270 N   0  0  0  0  0  0  0  0  0  0  0  0
   45.5310   31.8700   49.5790 C   0  0  0  0  0  0  0  0  0  0  0  0
   46.1550   30.8080   49.0260 N   0  0  0  0  0  0  0  0  0  0  0  0
   46.5140   31.1040   47.7670 C   0  0  0  0  0  0  0  0  0  0  0  0
   47.1660   30.3160   46.8600 C   0  0  0  0  0  0  0  0  0  0  0  0
   47.9450   30.2530   44.8590 H   0  0  0  0  0  0  0  0  0  0  0  0
   46.0840   33.8910   46.0200 H   0  0  0  0  0  0  0  0  0  0  0  0
   45.1060   33.8030   48.7030 H   0  0  0  0  0  0  0  0  0  0  0  0
   45.1270   31.9370   50.5800 H   0  0  0  0  0  0  0  0  0  0  0  0
   47.3360   34.4630   42.4820 C   0  0  0  0  0  0  0  0  0  0  0  0
   47.8830   33.6840   41.4770 C   0  0  0  0  0  0  0  0  0  0  0  0
   48.1460   32.3490   41.7890 C   0  0  0  0  0  0  0  0  0  0  0  0
   47.8650   31.8760   43.0300 N   0  0  0  0  0  0  0  0  0  0  0  0
   47.3350   32.6750   43.9680 C   0  0  0  0  0  0  0  0  0  0  0  0
   47.0660   33.9660   43.7110 N   0  0  0  0  0  0  0  0  0  0  0  0
   47.0820   35.5220   42.3730 H   0  0  0  0  0  0  0  0  0  0  0  0
   48.5720   31.7340   41.0090 H   0  0  0  0  0  0  0  0  0  0  0  0
   48.1470   34.3110   40.1610 C   0  0  0  0  0  0  0  0  0  0  0  0
   48.6340   35.5800   40.4500 F   0  0  0  0  0  0  0  0  0  0  0  0
   46.9560   34.4300   39.4920 F   0  0  0  0  0  0  0  0  0  0  0  0
   49.0310   33.5140   39.4690 F   0  0  0  0  0  0  0  0  0  0  0  0
   47.5770   28.9190   47.2170 C   0  0  0  0  0  0  0  0  0  0  0  0
   48.4470   29.0040   48.2760 F   0  0  0  0  0  0  0  0  0  0  0  0
   48.0950   28.2270   46.1650 F   0  0  0  0  0  0  0  0  0  0  0  0
   46.4710   28.2010   47.6690 F   0  0  0  0  0  0  0  0  0  0  0  0
  1  9  1  0  0  0  0
  2  1  2  0  0  0  0
  2  3  1  0  0  0  0
  3  4  2  0  0  0  0
  4  8  1  0  0  0  0
  4  5  1  0  0  0  0
  5 12  1  0  0  0  0
  5  6  1  0  0  0  0
  6 13  1  0  0  0  0
  7  6  2  0  0  0  0
  8  7  1  0  0  0  0
  9 26  1  0  0  0  0
  9  8  2  0  0  0  0
 10  1  1  0  0  0  0
 11  3  1  0  0  0  0
 14 19  1  0  0  0  0
 15 16  1  0  0  0  0
 15 14  2  0  0  0  0
 16 17  2  0  0  0  0
 17 18  1  0  0  0  0
 18  2  1  0  0  0  0
 19 18  2  0  0  0  0
 20 14  1  0  0  0  0
 21 16  1  0  0  0  0
 22 23  1  0  0  0  0
 22 15  1  0  0  0  0
 24 22  1  0  0  0  0
 25 22  1  0  0  0  0
 26 29  1  0  0  0  0
 26 27  1  0  0  0  0
 28 26  1  0  0  0  0
M  END
>  <minimizedAffinity>
-5.54988813

>  <minimizedRMSD>
0.670846999

$$$$
