
 OpenBabel03252502263D

 27 28  0  0  0  0  0  0  0  0999 V2000
   35.3420   29.1410   38.4610 C   0  0  0  0  0  0  0  0  0  0  0  0
   33.9710   28.9190   38.4980 C   0  0  0  0  0  0  0  0  0  0  0  0
   33.2760   28.8170   37.2930 C   0  0  0  0  0  0  0  0  0  0  0  0
   33.9530   28.9350   36.1040 C   0  0  0  0  0  0  0  0  0  0  0  0
   35.3070   29.1540   36.0430 C   0  0  0  0  0  0  0  0  0  0  0  0
   35.9670   29.2520   37.2700 C   0  0  0  0  0  0  0  0  0  0  0  0
   33.4380   28.8260   39.4430 H   0  0  0  0  0  0  0  0  0  0  0  0
   32.2110   28.6440   37.3510 H   0  0  0  0  0  0  0  0  0  0  0  0
   33.3520   28.8450   35.2100 H   0  0  0  0  0  0  0  0  0  0  0  0
   35.8370   29.2460   35.1290 H   0  0  0  0  0  0  0  0  0  0  0  0
   36.7800   28.4360   41.8720 C   0  0  0  0  0  0  0  0  0  0  0  0
   36.1130   28.2080   40.6530 C   0  0  0  0  0  0  0  0  0  0  0  0
   36.0010   29.2380   39.7490 C   0  0  0  0  0  0  0  0  0  0  0  0
   36.5550   30.4380   40.1010 N   0  0  0  0  0  0  0  0  0  0  0  0
   37.1920   30.6470   41.2700 C   0  0  0  0  0  0  0  0  0  0  0  0
   37.3060   29.6360   42.1640 N   0  0  0  0  0  0  0  0  0  0  0  0
   35.6850   27.2550   40.3970 H   0  0  0  0  0  0  0  0  0  0  0  0
   37.5900   31.6520   41.4280 H   0  0  0  0  0  0  0  0  0  0  0  0
   36.9080   27.3340   42.8550 C   0  0  0  0  0  0  0  0  0  0  0  0
   35.7790   27.3770   43.6800 F   0  0  0  0  0  0  0  0  0  0  0  0
   37.9820   27.6540   43.6800 F   0  0  0  0  0  0  0  0  0  0  0  0
   37.0250   26.0990   42.2760 F   0  0  0  0  0  0  0  0  0  0  0  0
   38.5350   28.7750   36.9590 C   0  0  0  0  0  0  0  0  0  0  0  0
   38.5670   27.6840   36.3890 O   0  0  0  0  0  0  0  0  0  0  0  0
   37.3650   29.4760   37.3460 N   0  0  0  0  0  0  0  0  0  0  0  0
   39.4690   29.2880   37.2130 H   0  0  0  0  0  0  0  0  0  0  0  0
   37.4150   30.4260   37.8250 H   0  0  0  0  0  0  0  0  0  0  0  0
  1  2  1  0  0  0  0
  1 13  1  0  0  0  0
  2  7  1  0  0  0  0
  3  8  1  0  0  0  0
  3  2  2  0  0  0  0
  4  3  1  0  0  0  0
  5  4  2  0  0  0  0
  5  6  1  0  0  0  0
  6 25  1  0  0  0  0
  6  1  2  0  0  0  0
  9  4  1  0  0  0  0
 10  5  1  0  0  0  0
 11 16  1  0  0  0  0
 11 19  1  0  0  0  0
 12 11  2  0  0  0  0
 13 14  2  0  0  0  0
 13 12  1  0  0  0  0
 14 15  1  0  0  0  0
 15 18  1  0  0  0  0
 15 16  2  0  0  0  0
 17 12  1  0  0  0  0
 19 20  1  0  0  0  0
 19 21  1  0  0  0  0
 22 19  1  0  0  0  0
 23 26  1  0  0  0  0
 23 25  1  0  0  0  0
 24 23  2  0  0  0  0
 25 27  1  0  0  0  0
M  END
>  <minimizedAffinity>
-5.11273241

$$$$

 OpenBabel03252502263D

 27 28  0  0  0  0  0  0  0  0999 V2000
   35.5080   29.0830   38.4430 C   0  0  0  0  0  0  0  0  0  0  0  0
   34.1520   28.7970   38.3510 C   0  0  0  0  0  0  0  0  0  0  0  0
   33.5670   28.7200   37.0870 C   0  0  0  0  0  0  0  0  0  0  0  0
   34.3360   28.9250   35.9680 C   0  0  0  0  0  0  0  0  0  0  0  0
   35.6780   29.2080   36.0340 C   0  0  0  0  0  0  0  0  0  0  0  0
   36.2250   29.2780   37.3180 C   0  0  0  0  0  0  0  0  0  0  0  0
   33.5460   28.6360   39.2410 H   0  0  0  0  0  0  0  0  0  0  0  0
   32.5120   28.4960   37.0450 H   0  0  0  0  0  0  0  0  0  0  0  0
   33.8190   28.8490   35.0210 H   0  0  0  0  0  0  0  0  0  0  0  0
   36.2780   29.3670   35.1740 H   0  0  0  0  0  0  0  0  0  0  0  0
   36.8270   28.2650   41.8770 C   0  0  0  0  0  0  0  0  0  0  0  0
   36.2970   28.0610   40.5890 C   0  0  0  0  0  0  0  0  0  0  0  0
   36.0500   29.1500   39.7870 C   0  0  0  0  0  0  0  0  0  0  0  0
   36.3390   30.3820   40.3050 N   0  0  0  0  0  0  0  0  0  0  0  0
   36.8460   30.5690   41.5400 C   0  0  0  0  0  0  0  0  0  0  0  0
   37.0920   29.4990   42.3340 N   0  0  0  0  0  0  0  0  0  0  0  0
   36.0780   27.0810   40.2010 H   0  0  0  0  0  0  0  0  0  0  0  0
   37.0310   31.6040   41.8320 H   0  0  0  0  0  0  0  0  0  0  0  0
   37.0980   27.0990   42.7510 C   0  0  0  0  0  0  0  0  0  0  0  0
   36.9620   25.9480   41.9670 F   0  0  0  0  0  0  0  0  0  0  0  0
   36.0620   27.0410   43.6780 F   0  0  0  0  0  0  0  0  0  0  0  0
   38.3370   27.1310   43.3330 F   0  0  0  0  0  0  0  0  0  0  0  0
   38.4090   30.7260   37.5520 C   0  0  0  0  0  0  0  0  0  0  0  0
   38.0160   31.8830   37.3930 O   0  0  0  0  0  0  0  0  0  0  0  0
   37.5990   29.5630   37.5240 N   0  0  0  0  0  0  0  0  0  0  0  0
   39.4700   30.5290   37.7340 H   0  0  0  0  0  0  0  0  0  0  0  0
   38.0090   28.5930   37.6850 H   0  0  0  0  0  0  0  0  0  0  0  0
  1 13  1  0  0  0  0
  2  1  1  0  0  0  0
  2  7  1  0  0  0  0
  3  2  2  0  0  0  0
  4  5  2  0  0  0  0
  4  3  1  0  0  0  0
  5  6  1  0  0  0  0
  6 25  1  0  0  0  0
  6  1  2  0  0  0  0
  8  3  1  0  0  0  0
  9  4  1  0  0  0  0
 10  5  1  0  0  0  0
 11 16  1  0  0  0  0
 11 19  1  0  0  0  0
 12 11  2  0  0  0  0
 13 14  2  0  0  0  0
 13 12  1  0  0  0  0
 14 15  1  0  0  0  0
 15 18  1  0  0  0  0
 15 16  2  0  0  0  0
 17 12  1  0  0  0  0
 19 22  1  0  0  0  0
 19 21  1  0  0  0  0
 20 19  1  0  0  0  0
 23 26  1  0  0  0  0
 24 23  2  0  0  0  0
 25 23  1  0  0  0  0
 25 27  1  0  0  0  0
M  END
>  <minimizedAffinity>
-5.10799074

$$$$

 OpenBabel03252502263D

 27 28  0  0  0  0  0  0  0  0999 V2000
   38.7110   29.5860   41.9580 C   0  0  0  0  0  0  0  0  0  0  0  0
   39.8390   28.9440   42.4530 C   0  0  0  0  0  0  0  0  0  0  0  0
   39.6690   27.8400   43.2900 C   0  0  0  0  0  0  0  0  0  0  0  0
   38.4030   27.4140   43.6050 C   0  0  0  0  0  0  0  0  0  0  0  0
   37.2740   28.0320   43.1280 C   0  0  0  0  0  0  0  0  0  0  0  0
   37.4860   29.1330   42.2940 C   0  0  0  0  0  0  0  0  0  0  0  0
   40.8410   29.2860   42.2000 H   0  0  0  0  0  0  0  0  0  0  0  0
   40.5630   27.3600   43.6600 H   0  0  0  0  0  0  0  0  0  0  0  0
   38.3450   26.5530   44.2570 H   0  0  0  0  0  0  0  0  0  0  0  0
   36.2920   27.7080   43.3660 H   0  0  0  0  0  0  0  0  0  0  0  0
   39.5040   31.8310   39.0370 C   0  0  0  0  0  0  0  0  0  0  0  0
   39.2870   30.6440   39.7630 C   0  0  0  0  0  0  0  0  0  0  0  0
   38.9600   30.7250   41.0960 C   0  0  0  0  0  0  0  0  0  0  0  0
   38.8670   31.9770   41.6380 N   0  0  0  0  0  0  0  0  0  0  0  0
   39.0760   33.1090   40.9360 C   0  0  0  0  0  0  0  0  0  0  0  0
   39.3970   33.0340   39.6230 N   0  0  0  0  0  0  0  0  0  0  0  0
   39.3660   29.6690   39.3140 H   0  0  0  0  0  0  0  0  0  0  0  0
   38.9690   34.0430   41.4890 H   0  0  0  0  0  0  0  0  0  0  0  0
   39.8560   31.7580   37.6000 C   0  0  0  0  0  0  0  0  0  0  0  0
   38.6730   31.9190   36.8700 F   0  0  0  0  0  0  0  0  0  0  0  0
   40.2690   30.4520   37.3530 F   0  0  0  0  0  0  0  0  0  0  0  0
   40.7800   32.6930   37.2170 F   0  0  0  0  0  0  0  0  0  0  0  0
   35.5080   29.6850   40.6490 C   0  0  0  0  0  0  0  0  0  0  0  0
   35.4860   28.7240   39.8800 O   0  0  0  0  0  0  0  0  0  0  0  0
   36.4040   29.8600   41.7340 N   0  0  0  0  0  0  0  0  0  0  0  0
   34.7930   30.5050   40.5230 H   0  0  0  0  0  0  0  0  0  0  0  0
   36.3540   30.7140   42.3680 H   0  0  0  0  0  0  0  0  0  0  0  0
  1  6  2  0  0  0  0
  1  2  1  0  0  0  0
  2  3  2  0  0  0  0
  3  4  1  0  0  0  0
  3  8  1  0  0  0  0
  4  9  1  0  0  0  0
  5 10  1  0  0  0  0
  5  4  2  0  0  0  0
  6  5  1  0  0  0  0
  7  2  1  0  0  0  0
 11 16  2  0  0  0  0
 11 12  1  0  0  0  0
 12 13  2  0  0  0  0
 13 14  1  0  0  0  0
 13  1  1  0  0  0  0
 15 18  1  0  0  0  0
 15 14  2  0  0  0  0
 16 15  1  0  0  0  0
 17 12  1  0  0  0  0
 19 11  1  0  0  0  0
 20 19  1  0  0  0  0
 21 19  1  0  0  0  0
 22 19  1  0  0  0  0
 23 25  1  0  0  0  0
 24 23  2  0  0  0  0
 25  6  1  0  0  0  0
 25 27  1  0  0  0  0
 26 23  1  0  0  0  0
M  END
>  <minimizedAffinity>
-4.93533945

$$$$

 OpenBabel03252502263D

 27 28  0  0  0  0  0  0  0  0999 V2000
   36.3740   27.7540   40.2060 C   0  0  0  0  0  0  0  0  0  0  0  0
   36.8260   26.4410   40.2110 C   0  0  0  0  0  0  0  0  0  0  0  0
   37.1450   25.8460   41.4320 C   0  0  0  0  0  0  0  0  0  0  0  0
   37.0060   26.5630   42.5940 C   0  0  0  0  0  0  0  0  0  0  0  0
   36.5620   27.8620   42.6140 C   0  0  0  0  0  0  0  0  0  0  0  0
   36.2540   28.4220   41.3720 C   0  0  0  0  0  0  0  0  0  0  0  0
   36.9340   25.8760   39.2860 H   0  0  0  0  0  0  0  0  0  0  0  0
   37.4940   24.8240   41.4070 H   0  0  0  0  0  0  0  0  0  0  0  0
   37.2710   26.0410   43.5040 H   0  0  0  0  0  0  0  0  0  0  0  0
   36.4520   28.4220   43.5080 H   0  0  0  0  0  0  0  0  0  0  0  0
   34.6600   28.8280   37.0260 C   0  0  0  0  0  0  0  0  0  0  0  0
   34.8300   28.2460   38.2960 C   0  0  0  0  0  0  0  0  0  0  0  0
   36.0620   28.3090   38.9030 C   0  0  0  0  0  0  0  0  0  0  0  0
   37.0600   28.9450   38.2170 N   0  0  0  0  0  0  0  0  0  0  0  0
   36.8890   29.5000   37.0000 C   0  0  0  0  0  0  0  0  0  0  0  0
   35.6770   29.4400   36.3990 N   0  0  0  0  0  0  0  0  0  0  0  0
   34.0290   27.7510   38.8180 H   0  0  0  0  0  0  0  0  0  0  0  0
   37.7680   29.9780   36.5620 H   0  0  0  0  0  0  0  0  0  0  0  0
   33.3370   28.7660   36.3620 C   0  0  0  0  0  0  0  0  0  0  0  0
   32.4940   29.6640   37.0260 F   0  0  0  0  0  0  0  0  0  0  0  0
   32.8140   27.5040   36.6230 F   0  0  0  0  0  0  0  0  0  0  0  0
   33.3840   29.0620   35.0260 F   0  0  0  0  0  0  0  0  0  0  0  0
   36.3690   31.0320   41.0700 C   0  0  0  0  0  0  0  0  0  0  0  0
   37.5720   31.2630   40.9470 O   0  0  0  0  0  0  0  0  0  0  0  0
   35.7830   29.7540   41.2540 N   0  0  0  0  0  0  0  0  0  0  0  0
   35.6480   31.8560   41.0440 H   0  0  0  0  0  0  0  0  0  0  0  0
   34.7290   29.6300   41.3380 H   0  0  0  0  0  0  0  0  0  0  0  0
  1  2  2  0  0  0  0
  1  6  1  0  0  0  0
  2  3  1  0  0  0  0
  3  4  2  0  0  0  0
  4  5  1  0  0  0  0
  4  9  1  0  0  0  0
  5 10  1  0  0  0  0
  6  5  2  0  0  0  0
  7  2  1  0  0  0  0
  8  3  1  0  0  0  0
 11 12  1  0  0  0  0
 12 17  1  0  0  0  0
 12 13  2  0  0  0  0
 13  1  1  0  0  0  0
 14 13  1  0  0  0  0
 15 14  2  0  0  0  0
 16 15  1  0  0  0  0
 16 11  2  0  0  0  0
 18 15  1  0  0  0  0
 19 21  1  0  0  0  0
 19 20  1  0  0  0  0
 19 11  1  0  0  0  0
 22 19  1  0  0  0  0
 23 25  1  0  0  0  0
 24 23  2  0  0  0  0
 25 27  1  0  0  0  0
 25  6  1  0  0  0  0
 26 23  1  0  0  0  0
M  END
>  <minimizedAffinity>
-4.91934919

$$$$

 OpenBabel03252502263D

 27 28  0  0  0  0  0  0  0  0999 V2000
   37.5500   26.5960   40.7540 C   0  0  0  0  0  0  0  0  0  0  0  0
   36.8850   26.0190   39.6810 C   0  0  0  0  0  0  0  0  0  0  0  0
   36.3700   24.7300   39.8250 C   0  0  0  0  0  0  0  0  0  0  0  0
   36.5270   24.0640   41.0150 C   0  0  0  0  0  0  0  0  0  0  0  0
   37.1810   24.6140   42.0900 C   0  0  0  0  0  0  0  0  0  0  0  0
   37.6820   25.9050   41.9050 C   0  0  0  0  0  0  0  0  0  0  0  0
   36.7630   26.5500   38.7390 H   0  0  0  0  0  0  0  0  0  0  0  0
   35.8570   24.3060   38.9750 H   0  0  0  0  0  0  0  0  0  0  0  0
   36.1030   23.0700   41.0580 H   0  0  0  0  0  0  0  0  0  0  0  0
   37.3060   24.1060   43.0130 H   0  0  0  0  0  0  0  0  0  0  0  0
   37.9190   30.3200   40.3150 C   0  0  0  0  0  0  0  0  0  0  0  0
   37.2970   29.0780   40.5420 C   0  0  0  0  0  0  0  0  0  0  0  0
   38.0600   27.9350   40.5350 C   0  0  0  0  0  0  0  0  0  0  0  0
   39.4000   28.0840   40.3010 N   0  0  0  0  0  0  0  0  0  0  0  0
   39.9880   29.2780   40.0840 C   0  0  0  0  0  0  0  0  0  0  0  0
   39.2400   30.4070   40.0910 N   0  0  0  0  0  0  0  0  0  0  0  0
   36.2400   28.9850   40.7250 H   0  0  0  0  0  0  0  0  0  0  0  0
   41.0660   29.2580   39.9110 H   0  0  0  0  0  0  0  0  0  0  0  0
   37.1070   31.5600   40.3200 C   0  0  0  0  0  0  0  0  0  0  0  0
   35.9380   31.2900   41.0410 F   0  0  0  0  0  0  0  0  0  0  0  0
   36.6920   31.7750   39.0090 F   0  0  0  0  0  0  0  0  0  0  0  0
   37.7590   32.6360   40.8600 F   0  0  0  0  0  0  0  0  0  0  0  0
   39.5680   26.3800   43.6770 C   0  0  0  0  0  0  0  0  0  0  0  0
   40.3500   25.4390   43.5360 O   0  0  0  0  0  0  0  0  0  0  0  0
   38.3770   26.5870   42.9370 N   0  0  0  0  0  0  0  0  0  0  0  0
   39.7680   27.1500   44.4290 H   0  0  0  0  0  0  0  0  0  0  0  0
   37.7550   27.4350   43.1050 H   0  0  0  0  0  0  0  0  0  0  0  0
  1  6  1  0  0  0  0
  2  3  1  0  0  0  0
  2  1  2  0  0  0  0
  3  4  2  0  0  0  0
  4  9  1  0  0  0  0
  4  5  1  0  0  0  0
  5 10  1  0  0  0  0
  6  5  2  0  0  0  0
  6 25  1  0  0  0  0
  7  2  1  0  0  0  0
  8  3  1  0  0  0  0
 11 19  1  0  0  0  0
 11 12  1  0  0  0  0
 12 17  1  0  0  0  0
 13 12  2  0  0  0  0
 13  1  1  0  0  0  0
 14 13  1  0  0  0  0
 15 16  1  0  0  0  0
 15 14  2  0  0  0  0
 16 11  2  0  0  0  0
 18 15  1  0  0  0  0
 19 22  1  0  0  0  0
 19 20  1  0  0  0  0
 21 19  1  0  0  0  0
 23 26  1  0  0  0  0
 24 23  2  0  0  0  0
 25 27  1  0  0  0  0
 25 23  1  0  0  0  0
M  END
>  <minimizedAffinity>
-4.8857913

$$$$

 OpenBabel03252502263D

 27 28  0  0  0  0  0  0  0  0999 V2000
   37.7890   30.7110   41.1020 C   0  0  0  0  0  0  0  0  0  0  0  0
   36.8290   31.1230   40.1870 C   0  0  0  0  0  0  0  0  0  0  0  0
   36.9580   32.3810   39.5990 C   0  0  0  0  0  0  0  0  0  0  0  0
   38.0220   33.1820   39.9330 C   0  0  0  0  0  0  0  0  0  0  0  0
   38.9840   32.7970   40.8340 C   0  0  0  0  0  0  0  0  0  0  0  0
   38.8180   31.5300   41.4010 C   0  0  0  0  0  0  0  0  0  0  0  0
   35.9870   30.4840   39.9250 H   0  0  0  0  0  0  0  0  0  0  0  0
   36.1970   32.6760   38.8910 H   0  0  0  0  0  0  0  0  0  0  0  0
   38.0600   34.1440   39.4400 H   0  0  0  0  0  0  0  0  0  0  0  0
   39.8090   33.4090   41.0970 H   0  0  0  0  0  0  0  0  0  0  0  0
   37.2870   27.0140   41.6290 C   0  0  0  0  0  0  0  0  0  0  0  0
   37.4750   28.2320   40.9480 C   0  0  0  0  0  0  0  0  0  0  0  0
   37.5930   29.3930   41.6730 C   0  0  0  0  0  0  0  0  0  0  0  0
   37.5170   29.2860   43.0350 N   0  0  0  0  0  0  0  0  0  0  0  0
   37.3370   28.1160   43.6800 C   0  0  0  0  0  0  0  0  0  0  0  0
   37.2210   26.9690   42.9690 N   0  0  0  0  0  0  0  0  0  0  0  0
   37.5320   28.2910   39.8750 H   0  0  0  0  0  0  0  0  0  0  0  0
   37.2950   28.1690   44.7690 H   0  0  0  0  0  0  0  0  0  0  0  0
   37.1590   25.7550   40.8580 C   0  0  0  0  0  0  0  0  0  0  0  0
   36.2170   25.9770   39.8480 F   0  0  0  0  0  0  0  0  0  0  0  0
   36.5770   24.8200   41.7090 F   0  0  0  0  0  0  0  0  0  0  0  0
   38.3410   25.3250   40.3170 F   0  0  0  0  0  0  0  0  0  0  0  0
   41.1510   30.8840   42.4320 C   0  0  0  0  0  0  0  0  0  0  0  0
   41.9630   31.2630   41.5870 O   0  0  0  0  0  0  0  0  0  0  0  0
   39.7420   31.0130   42.3450 N   0  0  0  0  0  0  0  0  0  0  0  0
   41.5000   30.3970   43.3480 H   0  0  0  0  0  0  0  0  0  0  0  0
   39.1000   30.6730   43.1250 H   0  0  0  0  0  0  0  0  0  0  0  0
  1  6  1  0  0  0  0
  1 13  1  0  0  0  0
  2  1  2  0  0  0  0
  3  4  2  0  0  0  0
  3  2  1  0  0  0  0
  4  5  1  0  0  0  0
  5 10  1  0  0  0  0
  5  6  2  0  0  0  0
  6 25  1  0  0  0  0
  7  2  1  0  0  0  0
  8  3  1  0  0  0  0
  9  4  1  0  0  0  0
 11 16  1  0  0  0  0
 12 11  2  0  0  0  0
 12 13  1  0  0  0  0
 13 14  2  0  0  0  0
 14 15  1  0  0  0  0
 15 18  1  0  0  0  0
 16 15  2  0  0  0  0
 17 12  1  0  0  0  0
 19 11  1  0  0  0  0
 19 21  1  0  0  0  0
 20 19  1  0  0  0  0
 22 19  1  0  0  0  0
 23 26  1  0  0  0  0
 24 23  2  0  0  0  0
 25 23  1  0  0  0  0
 25 27  1  0  0  0  0
M  END
>  <minimizedAffinity>
-4.83982706

$$$$

 OpenBabel03252502263D

 27 28  0  0  0  0  0  0  0  0999 V2000
   35.9630   27.8100   39.4200 C   0  0  0  0  0  0  0  0  0  0  0  0
   35.6630   27.0850   38.2740 C   0  0  0  0  0  0  0  0  0  0  0  0
   34.5680   27.4740   37.5020 C   0  0  0  0  0  0  0  0  0  0  0  0
   33.8150   28.5550   37.8860 C   0  0  0  0  0  0  0  0  0  0  0  0
   34.0920   29.2870   39.0150 C   0  0  0  0  0  0  0  0  0  0  0  0
   35.1960   28.8660   39.7600 C   0  0  0  0  0  0  0  0  0  0  0  0
   36.2640   26.2280   37.9730 H   0  0  0  0  0  0  0  0  0  0  0  0
   34.3580   26.8930   36.6160 H   0  0  0  0  0  0  0  0  0  0  0  0
   32.9810   28.8010   37.2420 H   0  0  0  0  0  0  0  0  0  0  0  0
   33.5150   30.1230   39.3170 H   0  0  0  0  0  0  0  0  0  0  0  0
   38.3670   25.8270   41.5390 C   0  0  0  0  0  0  0  0  0  0  0  0
   37.1870   26.1530   40.8430 C   0  0  0  0  0  0  0  0  0  0  0  0
   37.1140   27.3510   40.1740 C   0  0  0  0  0  0  0  0  0  0  0  0
   38.2120   28.1640   40.2310 N   0  0  0  0  0  0  0  0  0  0  0  0
   39.3390   27.8450   40.9010 C   0  0  0  0  0  0  0  0  0  0  0  0
   39.4160   26.6640   41.5610 N   0  0  0  0  0  0  0  0  0  0  0  0
   36.3350   25.4960   40.8110 H   0  0  0  0  0  0  0  0  0  0  0  0
   40.1430   28.5820   40.8670 H   0  0  0  0  0  0  0  0  0  0  0  0
   38.4590   24.5380   42.2640 C   0  0  0  0  0  0  0  0  0  0  0  0
   38.9080   23.5760   41.3510 F   0  0  0  0  0  0  0  0  0  0  0  0
   37.1580   24.1640   42.5870 F   0  0  0  0  0  0  0  0  0  0  0  0
   39.2910   24.5820   43.3510 F   0  0  0  0  0  0  0  0  0  0  0  0
   36.2400   30.7540   41.2640 C   0  0  0  0  0  0  0  0  0  0  0  0
   36.6330   31.5940   40.4540 O   0  0  0  0  0  0  0  0  0  0  0  0
   35.5890   29.5350   40.9470 N   0  0  0  0  0  0  0  0  0  0  0  0
   36.3830   30.9190   42.3370 H   0  0  0  0  0  0  0  0  0  0  0  0
   35.2630   28.8620   41.7050 H   0  0  0  0  0  0  0  0  0  0  0  0
  1  6  1  0  0  0  0
  1 13  1  0  0  0  0
  2  1  2  0  0  0  0
  3  4  2  0  0  0  0
  3  2  1  0  0  0  0
  4  5  1  0  0  0  0
  5 10  1  0  0  0  0
  5  6  2  0  0  0  0
  6 25  1  0  0  0  0
  7  2  1  0  0  0  0
  8  3  1  0  0  0  0
  9  4  1  0  0  0  0
 11 16  1  0  0  0  0
 11 19  1  0  0  0  0
 12 11  2  0  0  0  0
 13 14  2  0  0  0  0
 13 12  1  0  0  0  0
 14 15  1  0  0  0  0
 15 16  2  0  0  0  0
 17 12  1  0  0  0  0
 18 15  1  0  0  0  0
 19 21  1  0  0  0  0
 19 22  1  0  0  0  0
 20 19  1  0  0  0  0
 23 26  1  0  0  0  0
 24 23  2  0  0  0  0
 25 23  1  0  0  0  0
 25 27  1  0  0  0  0
M  END
>  <minimizedAffinity>
-4.81643772

$$$$

 OpenBabel03252502263D

 27 28  0  0  0  0  0  0  0  0999 V2000
   37.4210   29.4530   39.6940 C   0  0  0  0  0  0  0  0  0  0  0  0
   36.4290   29.1600   38.7670 C   0  0  0  0  0  0  0  0  0  0  0  0
   36.3600   29.9160   37.5970 C   0  0  0  0  0  0  0  0  0  0  0  0
   37.2650   30.9260   37.3850 C   0  0  0  0  0  0  0  0  0  0  0  0
   38.2540   31.2340   38.2860 C   0  0  0  0  0  0  0  0  0  0  0  0
   38.2900   30.4550   39.4450 C   0  0  0  0  0  0  0  0  0  0  0  0
   35.7130   28.3580   38.9390 H   0  0  0  0  0  0  0  0  0  0  0  0
   35.5790   29.6670   36.8940 H   0  0  0  0  0  0  0  0  0  0  0  0
   37.1540   31.4710   36.4570 H   0  0  0  0  0  0  0  0  0  0  0  0
   38.9570   32.0130   38.1290 H   0  0  0  0  0  0  0  0  0  0  0  0
   37.5390   26.5760   42.1250 C   0  0  0  0  0  0  0  0  0  0  0  0
   37.5370   27.2580   40.8930 C   0  0  0  0  0  0  0  0  0  0  0  0
   37.4350   28.6280   40.8860 C   0  0  0  0  0  0  0  0  0  0  0  0
   37.3380   29.2510   42.1010 N   0  0  0  0  0  0  0  0  0  0  0  0
   37.3410   28.5900   43.2760 C   0  0  0  0  0  0  0  0  0  0  0  0
   37.4420   27.2390   43.2880 N   0  0  0  0  0  0  0  0  0  0  0  0
   37.6150   26.7470   39.9490 H   0  0  0  0  0  0  0  0  0  0  0  0
   37.2580   29.2060   44.1740 H   0  0  0  0  0  0  0  0  0  0  0  0
   37.6490   25.0980   42.1450 C   0  0  0  0  0  0  0  0  0  0  0  0
   37.7580   24.6690   40.8170 F   0  0  0  0  0  0  0  0  0  0  0  0
   36.4250   24.6100   42.5930 F   0  0  0  0  0  0  0  0  0  0  0  0
   38.7100   24.6410   42.8790 F   0  0  0  0  0  0  0  0  0  0  0  0
   39.6710   31.7590   41.2640 C   0  0  0  0  0  0  0  0  0  0  0  0
   39.1820   32.8890   41.2530 O   0  0  0  0  0  0  0  0  0  0  0  0
   39.2620   30.6700   40.4550 N   0  0  0  0  0  0  0  0  0  0  0  0
   40.5000   31.5270   41.9410 H   0  0  0  0  0  0  0  0  0  0  0  0
   39.7250   29.7130   40.5300 H   0  0  0  0  0  0  0  0  0  0  0  0
  1 13  1  0  0  0  0
  2  7  1  0  0  0  0
  2  1  2  0  0  0  0
  3  2  1  0  0  0  0
  4  3  2  0  0  0  0
  4  5  1  0  0  0  0
  5  6  2  0  0  0  0
  6  1  1  0  0  0  0
  6 25  1  0  0  0  0
  8  3  1  0  0  0  0
  9  4  1  0  0  0  0
 10  5  1  0  0  0  0
 11 19  1  0  0  0  0
 11 16  1  0  0  0  0
 12 11  2  0  0  0  0
 13 12  1  0  0  0  0
 13 14  2  0  0  0  0
 14 15  1  0  0  0  0
 15 16  2  0  0  0  0
 15 18  1  0  0  0  0
 17 12  1  0  0  0  0
 19 21  1  0  0  0  0
 19 22  1  0  0  0  0
 20 19  1  0  0  0  0
 23 26  1  0  0  0  0
 24 23  2  0  0  0  0
 25 27  1  0  0  0  0
 25 23  1  0  0  0  0
M  END
>  <minimizedAffinity>
-4.80344534

$$$$

 OpenBabel03252502263D

 27 28  0  0  0  0  0  0  0  0999 V2000
   37.9900   30.4070   41.2000 C   0  0  0  0  0  0  0  0  0  0  0  0
   39.2210   31.0370   41.0720 C   0  0  0  0  0  0  0  0  0  0  0  0
   39.2660   32.3120   40.5070 C   0  0  0  0  0  0  0  0  0  0  0  0
   38.1040   32.9140   40.0930 C   0  0  0  0  0  0  0  0  0  0  0  0
   36.8760   32.3110   40.2100 C   0  0  0  0  0  0  0  0  0  0  0  0
   36.8730   31.0350   40.7790 C   0  0  0  0  0  0  0  0  0  0  0  0
   40.1400   30.5550   41.4010 H   0  0  0  0  0  0  0  0  0  0  0  0
   40.2360   32.7790   40.4200 H   0  0  0  0  0  0  0  0  0  0  0  0
   38.2120   33.9020   39.6660 H   0  0  0  0  0  0  0  0  0  0  0  0
   35.9740   32.7700   39.8930 H   0  0  0  0  0  0  0  0  0  0  0  0
   38.5420   26.7460   41.9020 C   0  0  0  0  0  0  0  0  0  0  0  0
   38.5840   27.9740   41.2160 C   0  0  0  0  0  0  0  0  0  0  0  0
   38.0170   29.0840   41.7940 C   0  0  0  0  0  0  0  0  0  0  0  0
   37.4360   28.9180   43.0210 N   0  0  0  0  0  0  0  0  0  0  0  0
   37.3990   27.7370   43.6720 C   0  0  0  0  0  0  0  0  0  0  0  0
   37.9580   26.6410   43.1060 N   0  0  0  0  0  0  0  0  0  0  0  0
   39.0480   28.0820   40.2500 H   0  0  0  0  0  0  0  0  0  0  0  0
   36.9050   27.7400   44.6450 H   0  0  0  0  0  0  0  0  0  0  0  0
   39.1510   25.5420   41.2890 C   0  0  0  0  0  0  0  0  0  0  0  0
   40.5380   25.7250   41.2970 F   0  0  0  0  0  0  0  0  0  0  0  0
   38.7850   25.5450   39.9460 F   0  0  0  0  0  0  0  0  0  0  0  0
   38.8230   24.3780   41.9320 F   0  0  0  0  0  0  0  0  0  0  0  0
   34.9600   29.3150   40.2320 C   0  0  0  0  0  0  0  0  0  0  0  0
   35.3060   28.8190   39.1590 O   0  0  0  0  0  0  0  0  0  0  0  0
   35.6710   30.3040   40.9570 N   0  0  0  0  0  0  0  0  0  0  0  0
   34.0260   28.9970   40.7070 H   0  0  0  0  0  0  0  0  0  0  0  0
   35.3160   30.6770   41.8900 H   0  0  0  0  0  0  0  0  0  0  0  0
  1 13  1  0  0  0  0
  2  1  1  0  0  0  0
  2  7  1  0  0  0  0
  3  2  2  0  0  0  0
  4  5  2  0  0  0  0
  4  3  1  0  0  0  0
  5  6  1  0  0  0  0
  6 25  1  0  0  0  0
  6  1  2  0  0  0  0
  8  3  1  0  0  0  0
  9  4  1  0  0  0  0
 10  5  1  0  0  0  0
 11 16  1  0  0  0  0
 12 13  1  0  0  0  0
 12 11  2  0  0  0  0
 13 14  2  0  0  0  0
 14 15  1  0  0  0  0
 15 18  1  0  0  0  0
 16 15  2  0  0  0  0
 17 12  1  0  0  0  0
 19 20  1  0  0  0  0
 19 11  1  0  0  0  0
 19 22  1  0  0  0  0
 21 19  1  0  0  0  0
 23 26  1  0  0  0  0
 23 25  1  0  0  0  0
 24 23  2  0  0  0  0
 25 27  1  0  0  0  0
M  END
>  <minimizedAffinity>
-4.78849411

$$$$
