
 OpenBabel03252502433D

 26 27  0  0  1  0  0  0  0  0999 V2000
   47.0590   35.1200   41.6000 C   0  0  0  0  0  0  0  0  0  0  0  0
   46.5400   35.3010   40.6360 H   0  0  0  0  0  0  0  0  0  0  0  0
   47.0620   36.0310   42.2340 H   0  0  0  0  0  0  0  0  0  0  0  0
   48.4850   34.7150   41.3870 C   0  0  1  0  0  0  0  0  0  0  0  0
   49.5370   35.5190   42.0840 C   0  0  0  0  0  0  0  0  0  0  0  0
   49.2070   34.1540   42.5390 C   0  0  2  0  0  0  0  0  0  0  0  0
   48.6550   34.3770   40.3300 H   0  0  0  0  0  0  0  0  0  0  0  0
   50.4360   35.6990   41.4550 H   0  0  0  0  0  0  0  0  0  0  0  0
   49.3020   36.4440   42.6450 H   0  0  0  0  0  0  0  0  0  0  0  0
   48.8480   33.7750   43.4670 H   0  0  0  0  0  0  0  0  0  0  0  0
   50.2440   33.1130   42.0730 C   0  0  0  0  0  0  0  0  0  0  0  0
   51.5160   33.6520   42.2880 F   0  0  0  0  0  0  0  0  0  0  0  0
   50.2070   31.9690   42.8440 F   0  0  0  0  0  0  0  0  0  0  0  0
   50.0590   32.7210   40.7800 F   0  0  0  0  0  0  0  0  0  0  0  0
   46.3810   33.9290   42.2310 C   0  0  0  0  0  0  0  0  0  0  0  0
   47.2070   33.3430   42.7500 H   0  0  0  0  0  0  0  0  0  0  0  0
   45.7620   33.3470   41.5670 H   0  0  0  0  0  0  0  0  0  0  0  0
   44.4650   35.9360   44.7430 C   0  0  0  0  0  0  0  0  0  0  0  0
   45.0220   35.5280   43.5180 C   0  0  0  0  0  0  0  0  0  0  0  0
   45.7260   34.3570   43.5020 C   0  0  0  0  0  0  0  0  0  0  0  0
   45.8580   33.6340   44.6500 N   0  0  0  0  0  0  0  0  0  0  0  0
   45.3260   34.0320   45.7940 C   0  0  0  0  0  0  0  0  0  0  0  0
   44.6290   35.1770   45.8560 N   0  0  0  0  0  0  0  0  0  0  0  0
   43.8900   36.8260   44.9160 H   0  0  0  0  0  0  0  0  0  0  0  0
   44.7700   36.2480   42.7630 H   0  0  0  0  0  0  0  0  0  0  0  0
   45.5100   33.3590   46.6310 H   0  0  0  0  0  0  0  0  0  0  0  0
  1 15  1  0  0  0  0
  1  3  1  0  0  0  0
  2  1  1  0  0  0  0
  4  7  1  6  0  0  0
  4  1  1  0  0  0  0
  4  5  1  0  0  0  0
  4  6  1  0  0  0  0
  5  6  1  0  0  0  0
  5  9  1  0  0  0  0
  6 10  1  1  0  0  0
  8  5  1  0  0  0  0
 11 12  1  0  0  0  0
 11  6  1  0  0  0  0
 11 13  1  0  0  0  0
 14 11  1  0  0  0  0
 15 16  1  0  0  0  0
 15 20  1  0  0  0  0
 17 15  1  0  0  0  0
 18 24  1  0  0  0  0
 18 23  1  0  0  0  0
 19 18  2  0  0  0  0
 20 19  1  0  0  0  0
 20 21  2  0  0  0  0
 21 22  1  0  0  0  0
 22 23  2  0  0  0  0
 22 26  1  0  0  0  0
 25 19  1  0  0  0  0
M  END
>  <minimizedAffinity>
-4.65197372

>  <minimizedRMSD>
0.963322997

$$$$
