
 OpenBabel03242521213D

 31 33  0  0  0  0  0  0  0  0999 V2000
   45.8930   33.5680   44.9350 C   0  0  0  0  0  0  0  0  0  0  0  0
   45.1000   34.6410   45.2110 C   0  0  0  0  0  0  0  0  0  0  0  0
   44.7210   35.5790   44.2710 C   0  0  0  0  0  0  0  0  0  0  0  0
   45.1950   35.3680   43.0200 N   0  0  0  0  0  0  0  0  0  0  0  0
   45.9760   34.3110   42.7500 C   0  0  0  0  0  0  0  0  0  0  0  0
   46.3480   33.3890   43.6730 N   0  0  0  0  0  0  0  0  0  0  0  0
   44.7260   34.8020   46.2130 H   0  0  0  0  0  0  0  0  0  0  0  0
   44.1000   36.4250   44.4740 H   0  0  0  0  0  0  0  0  0  0  0  0
   46.4780   34.1100   41.3660 C   0  0  0  0  0  0  0  0  0  0  0  0
   45.7260   33.3700   40.4740 C   0  0  0  0  0  0  0  0  0  0  0  0
   46.0940   33.1230   39.1710 C   0  0  0  0  0  0  0  0  0  0  0  0
   47.3160   33.6660   38.7460 C   0  0  0  0  0  0  0  0  0  0  0  0
   48.0560   34.3960   39.6310 C   0  0  0  0  0  0  0  0  0  0  0  0
   47.6700   34.6330   40.9290 C   0  0  0  0  0  0  0  0  0  0  0  0
   44.7860   32.9630   40.8280 H   0  0  0  0  0  0  0  0  0  0  0  0
   45.4570   32.5330   38.5210 H   0  0  0  0  0  0  0  0  0  0  0  0
   47.6250   33.4830   37.7270 H   0  0  0  0  0  0  0  0  0  0  0  0
   48.9920   34.7990   39.2670 H   0  0  0  0  0  0  0  0  0  0  0  0
   48.4940   35.4310   41.8730 C   0  0  0  0  0  0  0  0  0  0  0  0
   47.6450   36.3790   42.4570 F   0  0  0  0  0  0  0  0  0  0  0  0
   49.0500   34.7080   42.8830 F   0  0  0  0  0  0  0  0  0  0  0  0
   49.4200   36.1610   41.1350 F   0  0  0  0  0  0  0  0  0  0  0  0
   46.2670   30.4030   46.7480 C   0  0  0  0  0  0  0  0  0  0  0  0
   46.9590   30.7940   47.8870 C   0  0  0  0  0  0  0  0  0  0  0  0
   47.2980   32.1280   48.0400 C   0  0  0  0  0  0  0  0  0  0  0  0
   46.9350   33.0120   47.0550 N   0  0  0  0  0  0  0  0  0  0  0  0
   46.2650   32.6070   45.9630 C   0  0  0  0  0  0  0  0  0  0  0  0
   45.9370   31.3230   45.8110 N   0  0  0  0  0  0  0  0  0  0  0  0
   46.0260   29.3520   46.6740 H   0  0  0  0  0  0  0  0  0  0  0  0
   47.2800   30.1820   48.6960 H   0  0  0  0  0  0  0  0  0  0  0  0
   47.8270   32.6280   48.8390 H   0  0  0  0  0  0  0  0  0  0  0  0
  1  2  1  0  0  0  0
  1 27  1  0  0  0  0
  2  7  1  0  0  0  0
  3  8  1  0  0  0  0
  3  2  2  0  0  0  0
  4  3  1  0  0  0  0
  5  4  2  0  0  0  0
  5  6  1  0  0  0  0
  6  1  2  0  0  0  0
  9  5  1  0  0  0  0
 10 15  1  0  0  0  0
 10  9  2  0  0  0  0
 11 10  1  0  0  0  0
 12 11  2  0  0  0  0
 12 13  1  0  0  0  0
 13 14  2  0  0  0  0
 14  9  1  0  0  0  0
 14 19  1  0  0  0  0
 16 11  1  0  0  0  0
 17 12  1  0  0  0  0
 18 13  1  0  0  0  0
 19 20  1  0  0  0  0
 19 21  1  0  0  0  0
 22 19  1  0  0  0  0
 23 24  1  0  0  0  0
 24 25  2  0  0  0  0
 24 30  1  0  0  0  0
 25 31  1  0  0  0  0
 26 25  1  0  0  0  0
 27 26  2  0  0  0  0
 28 27  1  0  0  0  0
 28 23  2  0  0  0  0
 29 23  1  0  0  0  0
M  END
>  <minimizedAffinity>
-6.07459354

>  <minimizedRMSD>
1.10330057

$$$$
