
 OpenBabel03252506413D

 35 37  0  0  1  0  0  0  0  0999 V2000
   49.4430   33.3600   41.4410 N   0  0  1  0  0  0  0  0  0  0  0  0
   50.6710   33.0910   42.1460 C   0  0  0  0  0  0  0  0  0  0  0  0
   51.2920   31.7710   41.9080 C   0  0  0  0  0  0  0  0  0  0  0  0
   50.3620   30.6570   42.2940 C   0  0  0  0  0  0  0  0  0  0  0  0
   48.9330   31.0470   42.1850 C   0  0  0  0  0  0  0  0  0  0  0  0
   48.7790   32.1170   41.1500 C   0  0  2  0  0  0  0  0  0  0  0  0
   50.5250   33.2050   43.2460 H   0  0  0  0  0  0  0  0  0  0  0  0
   51.3880   33.9000   41.8210 H   0  0  0  0  0  0  0  0  0  0  0  0
   52.1170   31.7060   42.7010 H   0  0  0  0  0  0  0  0  0  0  0  0
   51.8520   31.6330   40.9810 H   0  0  0  0  0  0  0  0  0  0  0  0
   50.5320   30.2300   43.2900 H   0  0  0  0  0  0  0  0  0  0  0  0
   50.5980   29.8150   41.5780 H   0  0  0  0  0  0  0  0  0  0  0  0
   48.5500   31.4580   43.1560 H   0  0  0  0  0  0  0  0  0  0  0  0
   48.2830   30.2130   41.8840 H   0  0  0  0  0  0  0  0  0  0  0  0
   47.6730   32.4210   41.3150 H   0  0  0  0  0  0  0  0  0  0  0  0
   47.2630   34.6280   41.9690 C   0  0  1  0  0  0  0  0  0  0  0  0
   48.3650   35.5760   41.7320 C   0  0  0  0  0  0  0  0  0  0  0  0
   48.6720   34.2310   42.2770 C   0  0  2  0  0  0  0  0  0  0  0  0
   46.8010   34.2230   41.0580 H   0  0  0  0  0  0  0  0  0  0  0  0
   48.4620   36.4100   42.4360 H   0  0  0  0  0  0  0  0  0  0  0  0
   48.6870   35.8270   40.6960 H   0  0  0  0  0  0  0  0  0  0  0  0
   48.8820   34.0870   43.3600 H   0  0  0  0  0  0  0  0  0  0  0  0
   45.5290   36.0410   43.1460 C   0  0  0  0  0  0  0  0  0  0  0  0
   46.3340   34.8770   43.1090 C   0  0  0  0  0  0  0  0  0  0  0  0
   46.2230   33.9710   44.1750 C   0  0  0  0  0  0  0  0  0  0  0  0
   45.3540   34.2600   45.1740 N   0  0  0  0  0  0  0  0  0  0  0  0
   44.5970   35.3860   45.1770 C   0  0  0  0  0  0  0  0  0  0  0  0
   44.6790   36.2880   44.1580 N   0  0  0  0  0  0  0  0  0  0  0  0
   45.5920   36.7570   42.3400 H   0  0  0  0  0  0  0  0  0  0  0  0
   46.8290   33.0850   44.1570 H   0  0  0  0  0  0  0  0  0  0  0  0
   43.9400   35.4990   46.0390 H   0  0  0  0  0  0  0  0  0  0  0  0
   48.7810   31.6730   39.7310 C   0  0  0  0  0  0  0  0  0  0  0  0
   49.9350   32.1000   39.0520 F   0  0  0  0  0  0  0  0  0  0  0  0
   48.8970   30.2680   39.6380 F   0  0  0  0  0  0  0  0  0  0  0  0
   47.6410   31.9490   39.0170 F   0  0  0  0  0  0  0  0  0  0  0  0
  1  2  1  1  0  0  0
  1 18  1  0  0  0  0
  2  7  1  0  0  0  0
  3  2  1  0  0  0  0
  3  4  1  0  0  0  0
  3  9  1  0  0  0  0
  4 11  1  0  0  0  0
  5  4  1  0  0  0  0
  5 13  1  0  0  0  0
  6 15  1  1  0  0  0
  6  1  1  0  0  0  0
  6  5  1  0  0  0  0
  8  2  1  0  0  0  0
 10  3  1  0  0  0  0
 12  4  1  0  0  0  0
 14  5  1  0  0  0  0
 16 19  1  6  0  0  0
 16 18  1  0  0  0  0
 16 24  1  0  0  0  0
 17 16  1  0  0  0  0
 17 18  1  0  0  0  0
 17 20  1  0  0  0  0
 18 22  1  1  0  0  0
 21 17  1  0  0  0  0
 23 28  1  0  0  0  0
 24 23  2  0  0  0  0
 24 25  1  0  0  0  0
 25 26  2  0  0  0  0
 26 27  1  0  0  0  0
 27 31  1  0  0  0  0
 28 27  2  0  0  0  0
 29 23  1  0  0  0  0
 30 25  1  0  0  0  0
 32  6  1  0  0  0  0
 33 32  1  0  0  0  0
 34 32  1  0  0  0  0
 35 32  1  0  0  0  0
M  END
>  <minimizedAffinity>
-4.70037365

>  <minimizedRMSD>
0.480959892

$$$$
