
 OpenBabel03252505263D

 38 40  0  0  1  0  0  0  0  0999 V2000
   39.2300   30.0650   41.3580 F   0  0  0  0  0  0  0  0  0  0  0  0
   38.1570   29.9970   40.5110 C   0  0  0  0  0  0  0  0  0  0  0  0
   38.0090   31.0020   39.5860 C   0  0  0  0  0  0  0  0  0  0  0  0
   36.9400   30.9330   38.7410 C   0  0  0  0  0  0  0  0  0  0  0  0
   36.0490   29.8670   38.8420 C   0  0  0  0  0  0  0  0  0  0  0  0
   36.2020   28.8650   39.7690 C   0  0  0  0  0  0  0  0  0  0  0  0
   37.3110   28.9540   40.6300 C   0  0  0  0  0  0  0  0  0  0  0  0
   36.7710   31.6980   37.9890 H   0  0  0  0  0  0  0  0  0  0  0  0
   35.2070   29.8530   38.1460 H   0  0  0  0  0  0  0  0  0  0  0  0
   35.4960   28.0470   39.8270 H   0  0  0  0  0  0  0  0  0  0  0  0
   37.4100   27.8890   41.5610 N   0  0  0  0  0  0  0  0  0  0  0  0
   37.5210   26.4740   41.4090 C   0  0  0  0  0  0  0  0  0  0  0  0
   38.6960   26.1100   42.3300 C   0  0  0  0  0  0  0  0  0  0  0  0
   38.7390   27.2360   43.3170 C   0  0  0  0  0  0  0  0  0  0  0  0
   37.4250   27.9430   43.0290 C   0  0  2  0  0  0  0  0  0  0  0  0
   37.8620   26.2900   40.3520 H   0  0  0  0  0  0  0  0  0  0  0  0
   36.6390   25.8750   41.5840 H   0  0  0  0  0  0  0  0  0  0  0  0
   39.6200   25.9910   41.7320 H   0  0  0  0  0  0  0  0  0  0  0  0
   38.4350   25.1620   42.8620 H   0  0  0  0  0  0  0  0  0  0  0  0
   39.5810   27.9120   43.1500 H   0  0  0  0  0  0  0  0  0  0  0  0
   38.6980   26.8360   44.3490 H   0  0  0  0  0  0  0  0  0  0  0  0
   37.6100   29.0230   43.2880 H   0  0  0  0  0  0  0  0  0  0  0  0
   36.2460   27.3480   43.6800 C   0  0  0  0  0  0  0  0  0  0  0  0
   35.6550   28.1640   44.1480 H   0  0  0  0  0  0  0  0  0  0  0  0
   35.5380   26.8200   43.0180 H   0  0  0  0  0  0  0  0  0  0  0  0
   36.5790   26.7220   44.5440 H   0  0  0  0  0  0  0  0  0  0  0  0
   39.7220   34.1610   40.2790 C   0  0  0  0  0  0  0  0  0  0  0  0
   40.8070   34.1400   39.3660 C   0  0  0  0  0  0  0  0  0  0  0  0
   40.9040   33.0230   38.5390 C   0  0  0  0  0  0  0  0  0  0  0  0
   39.9770   32.0410   38.6500 N   0  0  0  0  0  0  0  0  0  0  0  0
   38.9680   32.0930   39.5220 C   0  0  0  0  0  0  0  0  0  0  0  0
   38.8410   33.1460   40.3300 N   0  0  0  0  0  0  0  0  0  0  0  0
   39.6880   35.0410   40.8960 H   0  0  0  0  0  0  0  0  0  0  0  0
   41.5480   34.8970   39.2590 H   0  0  0  0  0  0  0  0  0  0  0  0
   41.9590   32.8190   37.5290 C   0  0  0  0  0  0  0  0  0  0  0  0
   42.1310   34.0610   36.9040 F   0  0  0  0  0  0  0  0  0  0  0  0
   41.4670   31.9420   36.5840 F   0  0  0  0  0  0  0  0  0  0  0  0
   43.1280   32.3410   38.0330 F   0  0  0  0  0  0  0  0  0  0  0  0
  2  7  1  0  0  0  0
  2  1  1  0  0  0  0
  3  2  2  0  0  0  0
  4  5  2  0  0  0  0
  4  3  1  0  0  0  0
  5  6  1  0  0  0  0
  6 10  1  0  0  0  0
  6  7  2  0  0  0  0
  7 11  1  0  0  0  0
  8  4  1  0  0  0  0
  9  5  1  0  0  0  0
 11 15  1  0  0  0  0
 12 11  1  0  0  0  0
 12 17  1  0  0  0  0
 12 13  1  0  0  0  0
 13 19  1  0  0  0  0
 13 14  1  0  0  0  0
 14 21  1  0  0  0  0
 15 22  1  1  0  0  0
 15 14  1  0  0  0  0
 15 23  1  0  0  0  0
 16 12  1  0  0  0  0
 18 13  1  0  0  0  0
 20 14  1  0  0  0  0
 23 24  1  0  0  0  0
 23 26  1  0  0  0  0
 25 23  1  0  0  0  0
 27 32  1  0  0  0  0
 27 33  1  0  0  0  0
 28 27  2  0  0  0  0
 29 30  2  0  0  0  0
 29 28  1  0  0  0  0
 30 31  1  0  0  0  0
 31  3  1  0  0  0  0
 31 32  2  0  0  0  0
 34 28  1  0  0  0  0
 35 38  1  0  0  0  0
 35 29  1  0  0  0  0
 36 35  1  0  0  0  0
 37 35  1  0  0  0  0
M  END
>  <minimizedAffinity>
-5.71330166

$$$$

 OpenBabel03252505263D

 38 40  0  0  1  0  0  0  0  0999 V2000
   39.7010   30.6950   41.3930 F   0  0  0  0  0  0  0  0  0  0  0  0
   38.7770   30.8670   40.3980 C   0  0  0  0  0  0  0  0  0  0  0  0
   37.6750   30.0450   40.4010 C   0  0  0  0  0  0  0  0  0  0  0  0
   36.7530   30.2170   39.4100 C   0  0  0  0  0  0  0  0  0  0  0  0
   36.9550   31.2000   38.4450 C   0  0  0  0  0  0  0  0  0  0  0  0
   38.0580   32.0190   38.4460 C   0  0  0  0  0  0  0  0  0  0  0  0
   38.9970   31.8260   39.4770 C   0  0  0  0  0  0  0  0  0  0  0  0
   35.8630   29.5980   39.3610 H   0  0  0  0  0  0  0  0  0  0  0  0
   36.1920   31.3020   37.6700 H   0  0  0  0  0  0  0  0  0  0  0  0
   38.1920   32.7760   37.6850 H   0  0  0  0  0  0  0  0  0  0  0  0
   40.1090   32.7020   39.4200 N   0  0  0  0  0  0  0  0  0  0  0  0
   40.3100   34.0470   39.8570 C   0  0  0  0  0  0  0  0  0  0  0  0
   41.6310   33.9730   40.6390 C   0  0  0  0  0  0  0  0  0  0  0  0
   42.3100   32.7600   40.0790 C   0  0  0  0  0  0  0  0  0  0  0  0
   41.4480   32.4630   38.8630 C   0  0  2  0  0  0  0  0  0  0  0  0
   39.4970   34.2660   40.6050 H   0  0  0  0  0  0  0  0  0  0  0  0
   40.2970   34.8290   39.1120 H   0  0  0  0  0  0  0  0  0  0  0  0
   41.4230   33.9200   41.7240 H   0  0  0  0  0  0  0  0  0  0  0  0
   42.2310   34.8810   40.3860 H   0  0  0  0  0  0  0  0  0  0  0  0
   42.2990   31.9140   40.7700 H   0  0  0  0  0  0  0  0  0  0  0  0
   43.3250   33.0240   39.7270 H   0  0  0  0  0  0  0  0  0  0  0  0
   41.5170   31.3480   38.7190 H   0  0  0  0  0  0  0  0  0  0  0  0
   41.7690   33.2590   37.6670 C   0  0  0  0  0  0  0  0  0  0  0  0
   41.8220   32.5740   36.7940 H   0  0  0  0  0  0  0  0  0  0  0  0
   41.0340   34.0330   37.3840 H   0  0  0  0  0  0  0  0  0  0  0  0
   42.8070   33.6630   37.7610 H   0  0  0  0  0  0  0  0  0  0  0  0
   37.2960   28.4620   43.6790 C   0  0  0  0  0  0  0  0  0  0  0  0
   37.2050   27.0840   43.3570 C   0  0  0  0  0  0  0  0  0  0  0  0
   37.2790   26.7540   42.0050 C   0  0  0  0  0  0  0  0  0  0  0  0
   37.4310   27.7450   41.0940 N   0  0  0  0  0  0  0  0  0  0  0  0
   37.5120   29.0330   41.4330 C   0  0  0  0  0  0  0  0  0  0  0  0
   37.4460   29.3890   42.7160 N   0  0  0  0  0  0  0  0  0  0  0  0
   37.2340   28.6690   44.7320 H   0  0  0  0  0  0  0  0  0  0  0  0
   37.0860   26.2860   44.0520 H   0  0  0  0  0  0  0  0  0  0  0  0
   37.2040   25.3800   41.4740 C   0  0  0  0  0  0  0  0  0  0  0  0
   36.4780   25.4750   40.2800 F   0  0  0  0  0  0  0  0  0  0  0  0
   36.4560   24.6310   42.3580 F   0  0  0  0  0  0  0  0  0  0  0  0
   38.4140   24.7900   41.2820 F   0  0  0  0  0  0  0  0  0  0  0  0
  2  3  1  0  0  0  0
  2  1  1  0  0  0  0
  3 31  1  0  0  0  0
  4  3  2  0  0  0  0
  5  6  2  0  0  0  0
  5  4  1  0  0  0  0
  6  7  1  0  0  0  0
  7  2  2  0  0  0  0
  8  4  1  0  0  0  0
  9  5  1  0  0  0  0
 10  6  1  0  0  0  0
 11  7  1  0  0  0  0
 11 12  1  0  0  0  0
 12 16  1  0  0  0  0
 12 13  1  0  0  0  0
 13 18  1  0  0  0  0
 14 13  1  0  0  0  0
 14 20  1  0  0  0  0
 15 22  1  6  0  0  0
 15 11  1  0  0  0  0
 15 14  1  0  0  0  0
 17 12  1  0  0  0  0
 19 13  1  0  0  0  0
 21 14  1  0  0  0  0
 23 26  1  0  0  0  0
 23 15  1  0  0  0  0
 24 23  1  0  0  0  0
 25 23  1  0  0  0  0
 27 33  1  0  0  0  0
 28 27  1  0  0  0  0
 28 34  1  0  0  0  0
 29 28  2  0  0  0  0
 30 31  2  0  0  0  0
 30 29  1  0  0  0  0
 31 32  1  0  0  0  0
 32 27  2  0  0  0  0
 35 29  1  0  0  0  0
 35 37  1  0  0  0  0
 36 35  1  0  0  0  0
 38 35  1  0  0  0  0
M  END
>  <minimizedAffinity>
-5.70300484

$$$$

 OpenBabel03252505263D

 38 40  0  0  1  0  0  0  0  0999 V2000
   40.1790   30.4770   39.9490 F   0  0  0  0  0  0  0  0  0  0  0  0
   39.2180   31.4520   39.9340 C   0  0  0  0  0  0  0  0  0  0  0  0
   37.9070   31.0580   40.0570 C   0  0  0  0  0  0  0  0  0  0  0  0
   36.9500   32.0300   40.0430 C   0  0  0  0  0  0  0  0  0  0  0  0
   37.3240   33.3640   39.9050 C   0  0  0  0  0  0  0  0  0  0  0  0
   38.6350   33.7520   39.7810 C   0  0  0  0  0  0  0  0  0  0  0  0
   39.6080   32.7360   39.7990 C   0  0  0  0  0  0  0  0  0  0  0  0
   35.8970   31.7790   40.1360 H   0  0  0  0  0  0  0  0  0  0  0  0
   36.5240   34.1080   39.8970 H   0  0  0  0  0  0  0  0  0  0  0  0
   38.9000   34.7960   39.6760 H   0  0  0  0  0  0  0  0  0  0  0  0
   40.9390   33.2040   39.6680 N   0  0  0  0  0  0  0  0  0  0  0  0
   41.7670   34.0220   40.4950 C   0  0  0  0  0  0  0  0  0  0  0  0
   43.0780   33.2250   40.5860 C   0  0  0  0  0  0  0  0  0  0  0  0
   43.0550   32.3600   39.3630 C   0  0  0  0  0  0  0  0  0  0  0  0
   41.9010   32.9670   38.5830 C   0  0  2  0  0  0  0  0  0  0  0  0
   41.3050   34.0130   41.5220 H   0  0  0  0  0  0  0  0  0  0  0  0
   41.9120   35.0520   40.2050 H   0  0  0  0  0  0  0  0  0  0  0  0
   43.1130   32.6670   41.5410 H   0  0  0  0  0  0  0  0  0  0  0  0
   43.9250   33.9490   40.5100 H   0  0  0  0  0  0  0  0  0  0  0  0
   42.8510   31.3110   39.5920 H   0  0  0  0  0  0  0  0  0  0  0  0
   43.9830   32.5060   38.7780 H   0  0  0  0  0  0  0  0  0  0  0  0
   41.4710   32.1150   37.9830 H   0  0  0  0  0  0  0  0  0  0  0  0
   42.2460   34.1610   37.7940 C   0  0  0  0  0  0  0  0  0  0  0  0
   41.8180   34.0450   36.7750 H   0  0  0  0  0  0  0  0  0  0  0  0
   41.8520   35.1230   38.1670 H   0  0  0  0  0  0  0  0  0  0  0  0
   43.3510   34.1830   37.6250 H   0  0  0  0  0  0  0  0  0  0  0  0
   36.9970   27.6090   39.2390 C   0  0  0  0  0  0  0  0  0  0  0  0
   36.9330   26.9870   40.5130 C   0  0  0  0  0  0  0  0  0  0  0  0
   37.2100   27.7940   41.6140 C   0  0  0  0  0  0  0  0  0  0  0  0
   37.5180   29.0990   41.4130 N   0  0  0  0  0  0  0  0  0  0  0  0
   37.5700   29.6510   40.1990 C   0  0  0  0  0  0  0  0  0  0  0  0
   37.3100   28.9110   39.1200 N   0  0  0  0  0  0  0  0  0  0  0  0
   36.7760   26.9490   38.4200 H   0  0  0  0  0  0  0  0  0  0  0  0
   36.6940   25.9670   40.6990 H   0  0  0  0  0  0  0  0  0  0  0  0
   37.1950   27.3330   43.0150 C   0  0  0  0  0  0  0  0  0  0  0  0
   38.1530   28.1090   43.6790 F   0  0  0  0  0  0  0  0  0  0  0  0
   37.6360   26.0260   43.0280 F   0  0  0  0  0  0  0  0  0  0  0  0
   35.9770   27.4130   43.6150 F   0  0  0  0  0  0  0  0  0  0  0  0
  2  1  1  0  0  0  0
  2  3  1  0  0  0  0
  3 31  1  0  0  0  0
  4  3  2  0  0  0  0
  4  8  1  0  0  0  0
  5  4  1  0  0  0  0
  6  7  1  0  0  0  0
  6  5  2  0  0  0  0
  7  2  2  0  0  0  0
  9  5  1  0  0  0  0
 10  6  1  0  0  0  0
 11  7  1  0  0  0  0
 11 12  1  0  0  0  0
 12 13  1  0  0  0  0
 12 16  1  0  0  0  0
 13 18  1  0  0  0  0
 14 20  1  0  0  0  0
 14 13  1  0  0  0  0
 15 22  1  6  0  0  0
 15 14  1  0  0  0  0
 15 11  1  0  0  0  0
 17 12  1  0  0  0  0
 19 13  1  0  0  0  0
 21 14  1  0  0  0  0
 23 25  1  0  0  0  0
 23 15  1  0  0  0  0
 24 23  1  0  0  0  0
 26 23  1  0  0  0  0
 27 28  1  0  0  0  0
 28 34  1  0  0  0  0
 28 29  2  0  0  0  0
 29 35  1  0  0  0  0
 30 29  1  0  0  0  0
 31 30  2  0  0  0  0
 32 27  2  0  0  0  0
 32 31  1  0  0  0  0
 33 27  1  0  0  0  0
 35 37  1  0  0  0  0
 35 38  1  0  0  0  0
 35 36  1  0  0  0  0
M  END
>  <minimizedAffinity>
-5.59573412

$$$$

 OpenBabel03252505263D

 38 40  0  0  1  0  0  0  0  0999 V2000
   38.8040   27.8620   40.1150 F   0  0  0  0  0  0  0  0  0  0  0  0
   38.1570   27.7210   41.3140 C   0  0  0  0  0  0  0  0  0  0  0  0
   38.1120   28.8130   42.1470 C   0  0  0  0  0  0  0  0  0  0  0  0
   37.4660   28.6730   43.3400 C   0  0  0  0  0  0  0  0  0  0  0  0
   36.8850   27.4520   43.6700 C   0  0  0  0  0  0  0  0  0  0  0  0
   36.9330   26.3630   42.8340 C   0  0  0  0  0  0  0  0  0  0  0  0
   37.6020   26.5280   41.6070 C   0  0  0  0  0  0  0  0  0  0  0  0
   37.3990   29.5010   44.0400 H   0  0  0  0  0  0  0  0  0  0  0  0
   36.3790   27.3850   44.6360 H   0  0  0  0  0  0  0  0  0  0  0  0
   36.4720   25.4250   43.1130 H   0  0  0  0  0  0  0  0  0  0  0  0
   37.6140   25.3680   40.7920 N   0  0  0  0  0  0  0  0  0  0  0  0
   38.4730   24.2280   40.7390 C   0  0  0  0  0  0  0  0  0  0  0  0
   37.4910   23.0450   40.7380 C   0  0  0  0  0  0  0  0  0  0  0  0
   36.2190   23.6370   40.2150 C   0  0  0  0  0  0  0  0  0  0  0  0
   36.6960   24.9880   39.7100 C   0  0  2  0  0  0  0  0  0  0  0  0
   39.0260   24.1960   41.7190 H   0  0  0  0  0  0  0  0  0  0  0  0
   39.2010   24.1800   39.9430 H   0  0  0  0  0  0  0  0  0  0  0  0
   37.4130   22.6210   41.7570 H   0  0  0  0  0  0  0  0  0  0  0  0
   37.8710   22.2850   40.0120 H   0  0  0  0  0  0  0  0  0  0  0  0
   35.4620   23.7660   40.9920 H   0  0  0  0  0  0  0  0  0  0  0  0
   35.8580   23.0520   39.3470 H   0  0  0  0  0  0  0  0  0  0  0  0
   35.8090   25.6730   39.8160 H   0  0  0  0  0  0  0  0  0  0  0  0
   37.3010   24.9710   38.3680 C   0  0  0  0  0  0  0  0  0  0  0  0
   36.8670   25.8050   37.7760 H   0  0  0  0  0  0  0  0  0  0  0  0
   38.3940   25.1200   38.3220 H   0  0  0  0  0  0  0  0  0  0  0  0
   36.9680   24.0500   37.8270 H   0  0  0  0  0  0  0  0  0  0  0  0
   40.5050   31.5720   41.9040 C   0  0  0  0  0  0  0  0  0  0  0  0
   39.8810   32.4530   40.9840 C   0  0  0  0  0  0  0  0  0  0  0  0
   38.6460   32.0530   40.4800 C   0  0  0  0  0  0  0  0  0  0  0  0
   38.1200   30.8720   40.8870 N   0  0  0  0  0  0  0  0  0  0  0  0
   38.7360   30.0670   41.7540 C   0  0  0  0  0  0  0  0  0  0  0  0
   39.9200   30.4140   42.2600 N   0  0  0  0  0  0  0  0  0  0  0  0
   41.4550   31.9210   42.2670 H   0  0  0  0  0  0  0  0  0  0  0  0
   40.2710   33.3840   40.6490 H   0  0  0  0  0  0  0  0  0  0  0  0
   37.8440   32.8300   39.5150 C   0  0  0  0  0  0  0  0  0  0  0  0
   36.5750   32.2370   39.5130 F   0  0  0  0  0  0  0  0  0  0  0  0
   38.3960   32.6390   38.2660 F   0  0  0  0  0  0  0  0  0  0  0  0
   37.7790   34.1600   39.7900 F   0  0  0  0  0  0  0  0  0  0  0  0
  1  2  1  0  0  0  0
  2  7  2  0  0  0  0
  2  3  1  0  0  0  0
  3  4  2  0  0  0  0
  4  5  1  0  0  0  0
  4  8  1  0  0  0  0
  5  9  1  0  0  0  0
  6 10  1  0  0  0  0
  6  5  2  0  0  0  0
  7  6  1  0  0  0  0
 11  7  1  0  0  0  0
 12 11  1  0  0  0  0
 12 16  1  0  0  0  0
 13 12  1  0  0  0  0
 13 18  1  0  0  0  0
 14 13  1  0  0  0  0
 14 20  1  0  0  0  0
 15 22  1  6  0  0  0
 15 14  1  0  0  0  0
 15 11  1  0  0  0  0
 17 12  1  0  0  0  0
 19 13  1  0  0  0  0
 21 14  1  0  0  0  0
 23 15  1  0  0  0  0
 24 23  1  0  0  0  0
 25 23  1  0  0  0  0
 26 23  1  0  0  0  0
 27 32  1  0  0  0  0
 27 33  1  0  0  0  0
 28 27  2  0  0  0  0
 29 30  2  0  0  0  0
 29 28  1  0  0  0  0
 30 31  1  0  0  0  0
 31  3  1  0  0  0  0
 31 32  2  0  0  0  0
 34 28  1  0  0  0  0
 35 38  1  0  0  0  0
 35 29  1  0  0  0  0
 36 35  1  0  0  0  0
 37 35  1  0  0  0  0
M  END
>  <minimizedAffinity>
-5.56284571

$$$$

 OpenBabel03252505263D

 38 40  0  0  1  0  0  0  0  0999 V2000
   39.4550   29.1130   41.2720 F   0  0  0  0  0  0  0  0  0  0  0  0
   38.1320   29.3850   41.0510 C   0  0  0  0  0  0  0  0  0  0  0  0
   37.2350   28.3540   41.1950 C   0  0  0  0  0  0  0  0  0  0  0  0
   35.9160   28.6250   40.9760 C   0  0  0  0  0  0  0  0  0  0  0  0
   35.5280   29.9140   40.6180 C   0  0  0  0  0  0  0  0  0  0  0  0
   36.4290   30.9410   40.4740 C   0  0  0  0  0  0  0  0  0  0  0  0
   37.7840   30.6410   40.7060 C   0  0  0  0  0  0  0  0  0  0  0  0
   35.1620   27.8510   41.0750 H   0  0  0  0  0  0  0  0  0  0  0  0
   34.4620   30.0850   40.4510 H   0  0  0  0  0  0  0  0  0  0  0  0
   36.1020   31.9340   40.1950 H   0  0  0  0  0  0  0  0  0  0  0  0
   38.6590   31.7440   40.5410 N   0  0  0  0  0  0  0  0  0  0  0  0
   39.8120   32.1840   41.2590 C   0  0  0  0  0  0  0  0  0  0  0  0
   40.8480   32.4300   40.1500 C   0  0  0  0  0  0  0  0  0  0  0  0
   40.0140   32.6590   38.9270 C   0  0  0  0  0  0  0  0  0  0  0  0
   38.6260   32.8080   39.5280 C   0  0  2  0  0  0  0  0  0  0  0  0
   40.1750   31.3020   41.8570 H   0  0  0  0  0  0  0  0  0  0  0  0
   39.7000   33.0200   41.9330 H   0  0  0  0  0  0  0  0  0  0  0  0
   41.5360   31.5670   40.0800 H   0  0  0  0  0  0  0  0  0  0  0  0
   41.4020   33.3680   40.4000 H   0  0  0  0  0  0  0  0  0  0  0  0
   40.0410   31.8160   38.2330 H   0  0  0  0  0  0  0  0  0  0  0  0
   40.2910   33.6220   38.4550 H   0  0  0  0  0  0  0  0  0  0  0  0
   37.9200   32.4410   38.7310 H   0  0  0  0  0  0  0  0  0  0  0  0
   38.3170   34.1480   40.0530 C   0  0  0  0  0  0  0  0  0  0  0  0
   37.3120   34.4460   39.6860 H   0  0  0  0  0  0  0  0  0  0  0  0
   38.2650   34.2420   41.1510 H   0  0  0  0  0  0  0  0  0  0  0  0
   39.0100   34.8930   39.5880 H   0  0  0  0  0  0  0  0  0  0  0  0
   38.9990   25.6510   42.9220 C   0  0  0  0  0  0  0  0  0  0  0  0
   38.5350   24.4910   42.2520 C   0  0  0  0  0  0  0  0  0  0  0  0
   37.6220   24.6910   41.2190 C   0  0  0  0  0  0  0  0  0  0  0  0
   37.2360   25.9550   40.9190 N   0  0  0  0  0  0  0  0  0  0  0  0
   37.6930   27.0250   41.5720 C   0  0  0  0  0  0  0  0  0  0  0  0
   38.5680   26.8750   42.5660 N   0  0  0  0  0  0  0  0  0  0  0  0
   39.7010   25.4490   43.7110 H   0  0  0  0  0  0  0  0  0  0  0  0
   38.8220   23.4890   42.4670 H   0  0  0  0  0  0  0  0  0  0  0  0
   37.0270   23.6130   40.4060 C   0  0  0  0  0  0  0  0  0  0  0  0
   37.2410   23.9830   39.0720 F   0  0  0  0  0  0  0  0  0  0  0  0
   35.6660   23.6270   40.6290 F   0  0  0  0  0  0  0  0  0  0  0  0
   37.5240   22.3760   40.6730 F   0  0  0  0  0  0  0  0  0  0  0  0
  2  3  1  0  0  0  0
  2  1  1  0  0  0  0
  3 31  1  0  0  0  0
  4  8  1  0  0  0  0
  4  3  2  0  0  0  0
  5  4  1  0  0  0  0
  6  5  2  0  0  0  0
  6  7  1  0  0  0  0
  7  2  2  0  0  0  0
  9  5  1  0  0  0  0
 10  6  1  0  0  0  0
 11  7  1  0  0  0  0
 11 12  1  0  0  0  0
 12 16  1  0  0  0  0
 12 17  1  0  0  0  0
 13 19  1  0  0  0  0
 13 12  1  0  0  0  0
 14 15  1  0  0  0  0
 14 13  1  0  0  0  0
 15 22  1  6  0  0  0
 15 23  1  0  0  0  0
 15 11  1  0  0  0  0
 18 13  1  0  0  0  0
 20 14  1  0  0  0  0
 21 14  1  0  0  0  0
 23 25  1  0  0  0  0
 24 23  1  0  0  0  0
 26 23  1  0  0  0  0
 27 33  1  0  0  0  0
 28 34  1  0  0  0  0
 28 27  2  0  0  0  0
 29 28  1  0  0  0  0
 30 29  2  0  0  0  0
 30 31  1  0  0  0  0
 31 32  2  0  0  0  0
 32 27  1  0  0  0  0
 35 37  1  0  0  0  0
 35 38  1  0  0  0  0
 35 29  1  0  0  0  0
 36 35  1  0  0  0  0
M  END
>  <minimizedAffinity>
-5.51993418

$$$$

 OpenBabel03252505263D

 38 40  0  0  1  0  0  0  0  0999 V2000
   40.2290   30.0410   40.8170 F   0  0  0  0  0  0  0  0  0  0  0  0
   39.1910   30.4880   40.0450 C   0  0  0  0  0  0  0  0  0  0  0  0
   37.9350   30.0040   40.3220 C   0  0  0  0  0  0  0  0  0  0  0  0
   36.9000   30.4510   39.5540 C   0  0  0  0  0  0  0  0  0  0  0  0
   37.1450   31.3640   38.5320 C   0  0  0  0  0  0  0  0  0  0  0  0
   38.4030   31.8450   38.2590 C   0  0  0  0  0  0  0  0  0  0  0  0
   39.4570   31.3730   39.0640 C   0  0  0  0  0  0  0  0  0  0  0  0
   35.8860   30.1040   39.7250 H   0  0  0  0  0  0  0  0  0  0  0  0
   36.2870   31.6940   37.9410 H   0  0  0  0  0  0  0  0  0  0  0  0
   38.5670   32.5550   37.4600 H   0  0  0  0  0  0  0  0  0  0  0  0
   40.7260   31.9080   38.7300 N   0  0  0  0  0  0  0  0  0  0  0  0
   41.5730   31.7600   37.5900 C   0  0  0  0  0  0  0  0  0  0  0  0
   41.9400   33.2080   37.2300 C   0  0  0  0  0  0  0  0  0  0  0  0
   41.7450   33.9560   38.5130 C   0  0  0  0  0  0  0  0  0  0  0  0
   41.5800   32.8180   39.5060 C   0  0  2  0  0  0  0  0  0  0  0  0
   40.9250   31.3680   36.7570 H   0  0  0  0  0  0  0  0  0  0  0  0
   42.4310   31.1100   37.6780 H   0  0  0  0  0  0  0  0  0  0  0  0
   41.3050   33.5600   36.3940 H   0  0  0  0  0  0  0  0  0  0  0  0
   43.0210   33.2290   36.9510 H   0  0  0  0  0  0  0  0  0  0  0  0
   40.8530   34.5860   38.5030 H   0  0  0  0  0  0  0  0  0  0  0  0
   42.6680   34.5090   38.7720 H   0  0  0  0  0  0  0  0  0  0  0  0
   40.9170   33.2290   40.3190 H   0  0  0  0  0  0  0  0  0  0  0  0
   42.8390   32.2230   39.9830 C   0  0  0  0  0  0  0  0  0  0  0  0
   42.7850   32.1250   41.0880 H   0  0  0  0  0  0  0  0  0  0  0  0
   43.0720   31.2090   39.6120 H   0  0  0  0  0  0  0  0  0  0  0  0
   43.6750   32.9470   39.8140 H   0  0  0  0  0  0  0  0  0  0  0  0
   37.5190   28.5930   43.6740 C   0  0  0  0  0  0  0  0  0  0  0  0
   37.3500   27.2090   43.4160 C   0  0  0  0  0  0  0  0  0  0  0  0
   37.3870   26.8150   42.0800 C   0  0  0  0  0  0  0  0  0  0  0  0
   37.5780   27.7540   41.1230 N   0  0  0  0  0  0  0  0  0  0  0  0
   37.7330   29.0500   41.4010 C   0  0  0  0  0  0  0  0  0  0  0  0
   37.7040   29.4670   42.6680 N   0  0  0  0  0  0  0  0  0  0  0  0
   37.4840   28.8510   44.7170 H   0  0  0  0  0  0  0  0  0  0  0  0
   37.1990   26.4510   44.1480 H   0  0  0  0  0  0  0  0  0  0  0  0
   37.2310   25.4240   41.6130 C   0  0  0  0  0  0  0  0  0  0  0  0
   36.3920   24.8030   42.5470 F   0  0  0  0  0  0  0  0  0  0  0  0
   38.4660   24.8160   41.6940 F   0  0  0  0  0  0  0  0  0  0  0  0
   36.7460   25.3130   40.3480 F   0  0  0  0  0  0  0  0  0  0  0  0
  2  3  1  0  0  0  0
  2  1  1  0  0  0  0
  3 31  1  0  0  0  0
  4  8  1  0  0  0  0
  4  3  2  0  0  0  0
  5  4  1  0  0  0  0
  6  5  2  0  0  0  0
  6  7  1  0  0  0  0
  7  2  2  0  0  0  0
  9  5  1  0  0  0  0
 10  6  1  0  0  0  0
 11  7  1  0  0  0  0
 11 15  1  0  0  0  0
 12 17  1  0  0  0  0
 12 11  1  0  0  0  0
 13 12  1  0  0  0  0
 13 14  1  0  0  0  0
 14 21  1  0  0  0  0
 14 15  1  0  0  0  0
 15 23  1  0  0  0  0
 15 22  1  1  0  0  0
 16 12  1  0  0  0  0
 18 13  1  0  0  0  0
 19 13  1  0  0  0  0
 20 14  1  0  0  0  0
 23 24  1  0  0  0  0
 25 23  1  0  0  0  0
 26 23  1  0  0  0  0
 27 33  1  0  0  0  0
 28 27  1  0  0  0  0
 28 34  1  0  0  0  0
 29 28  2  0  0  0  0
 30 31  2  0  0  0  0
 30 29  1  0  0  0  0
 31 32  1  0  0  0  0
 32 27  2  0  0  0  0
 35 37  1  0  0  0  0
 35 29  1  0  0  0  0
 35 36  1  0  0  0  0
 38 35  1  0  0  0  0
M  END
>  <minimizedAffinity>
-5.51283884

$$$$

 OpenBabel03252505263D

 38 40  0  0  1  0  0  0  0  0999 V2000
   37.9430   28.3250   39.5780 F   0  0  0  0  0  0  0  0  0  0  0  0
   37.8750   28.2310   40.9420 C   0  0  0  0  0  0  0  0  0  0  0  0
   37.9250   29.3980   41.6650 C   0  0  0  0  0  0  0  0  0  0  0  0
   37.8560   29.3040   43.0240 C   0  0  0  0  0  0  0  0  0  0  0  0
   37.7420   28.0530   43.6240 C   0  0  0  0  0  0  0  0  0  0  0  0
   37.6930   26.8890   42.8960 C   0  0  0  0  0  0  0  0  0  0  0  0
   37.7640   27.0070   41.4950 C   0  0  0  0  0  0  0  0  0  0  0  0
   37.8910   30.1920   43.6480 H   0  0  0  0  0  0  0  0  0  0  0  0
   37.6910   28.0250   44.7150 H   0  0  0  0  0  0  0  0  0  0  0  0
   37.6030   25.9280   43.3860 H   0  0  0  0  0  0  0  0  0  0  0  0
   37.7070   25.7700   40.8050 N   0  0  0  0  0  0  0  0  0  0  0  0
   38.6140   24.6710   40.7060 C   0  0  0  0  0  0  0  0  0  0  0  0
   37.7260   23.4510   40.9940 C   0  0  0  0  0  0  0  0  0  0  0  0
   36.3460   23.9250   40.6560 C   0  0  0  0  0  0  0  0  0  0  0  0
   36.6410   25.2370   39.9480 C   0  0  2  0  0  0  0  0  0  0  0  0
   39.3310   24.7680   41.5690 H   0  0  0  0  0  0  0  0  0  0  0  0
   39.1940   24.5740   39.8000 H   0  0  0  0  0  0  0  0  0  0  0  0
   37.8550   23.1320   42.0470 H   0  0  0  0  0  0  0  0  0  0  0  0
   38.0210   22.6370   40.2880 H   0  0  0  0  0  0  0  0  0  0  0  0
   35.7310   24.1000   41.5410 H   0  0  0  0  0  0  0  0  0  0  0  0
   35.8770   23.2360   39.9270 H   0  0  0  0  0  0  0  0  0  0  0  0
   35.7430   25.8870   40.1470 H   0  0  0  0  0  0  0  0  0  0  0  0
   37.0010   25.1070   38.5260 C   0  0  0  0  0  0  0  0  0  0  0  0
   36.4170   25.8530   37.9460 H   0  0  0  0  0  0  0  0  0  0  0  0
   38.0570   25.3010   38.2700 H   0  0  0  0  0  0  0  0  0  0  0  0
   36.6380   24.1200   38.1440 H   0  0  0  0  0  0  0  0  0  0  0  0
   37.0520   32.5270   39.9790 C   0  0  0  0  0  0  0  0  0  0  0  0
   38.3180   33.1070   39.7100 C   0  0  0  0  0  0  0  0  0  0  0  0
   39.4340   32.3850   40.1280 C   0  0  0  0  0  0  0  0  0  0  0  0
   39.2530   31.1960   40.7520 N   0  0  0  0  0  0  0  0  0  0  0  0
   38.0450   30.6800   40.9900 C   0  0  0  0  0  0  0  0  0  0  0  0
   36.9520   31.3410   40.6050 N   0  0  0  0  0  0  0  0  0  0  0  0
   36.2200   33.1180   39.6390 H   0  0  0  0  0  0  0  0  0  0  0  0
   38.4880   34.0360   39.2220 H   0  0  0  0  0  0  0  0  0  0  0  0
   40.8310   32.8210   39.9400 C   0  0  0  0  0  0  0  0  0  0  0  0
   40.8260   33.6220   38.7910 F   0  0  0  0  0  0  0  0  0  0  0  0
   41.5840   31.6990   39.6630 F   0  0  0  0  0  0  0  0  0  0  0  0
   41.3580   33.4760   41.0090 F   0  0  0  0  0  0  0  0  0  0  0  0
  1  2  1  0  0  0  0
  2  7  2  0  0  0  0
  2  3  1  0  0  0  0
  3  4  2  0  0  0  0
  4  5  1  0  0  0  0
  4  8  1  0  0  0  0
  5  9  1  0  0  0  0
  6 10  1  0  0  0  0
  6  5  2  0  0  0  0
  7  6  1  0  0  0  0
 11  7  1  0  0  0  0
 12 11  1  0  0  0  0
 12 13  1  0  0  0  0
 12 16  1  0  0  0  0
 13 18  1  0  0  0  0
 14 13  1  0  0  0  0
 14 20  1  0  0  0  0
 15 22  1  1  0  0  0
 15 14  1  0  0  0  0
 15 11  1  0  0  0  0
 17 12  1  0  0  0  0
 19 13  1  0  0  0  0
 21 14  1  0  0  0  0
 23 15  1  0  0  0  0
 24 23  1  0  0  0  0
 25 23  1  0  0  0  0
 26 23  1  0  0  0  0
 27 32  1  0  0  0  0
 28 27  2  0  0  0  0
 28 29  1  0  0  0  0
 29 30  2  0  0  0  0
 30 31  1  0  0  0  0
 31  3  1  0  0  0  0
 32 31  2  0  0  0  0
 33 27  1  0  0  0  0
 34 28  1  0  0  0  0
 35 29  1  0  0  0  0
 35 38  1  0  0  0  0
 36 35  1  0  0  0  0
 37 35  1  0  0  0  0
M  END
>  <minimizedAffinity>
-5.49836445

$$$$

 OpenBabel03252505263D

 38 40  0  0  1  0  0  0  0  0999 V2000
   38.2110   27.3210   39.6910 F   0  0  0  0  0  0  0  0  0  0  0  0
   38.0520   27.8990   40.9220 C   0  0  0  0  0  0  0  0  0  0  0  0
   37.9480   29.2680   40.9760 C   0  0  0  0  0  0  0  0  0  0  0  0
   37.7890   29.8430   42.2020 C   0  0  0  0  0  0  0  0  0  0  0  0
   37.7390   29.0400   43.3390 C   0  0  0  0  0  0  0  0  0  0  0  0
   37.8440   27.6720   43.2800 C   0  0  0  0  0  0  0  0  0  0  0  0
   38.0070   27.0970   42.0050 C   0  0  0  0  0  0  0  0  0  0  0  0
   37.7010   30.9200   42.3080 H   0  0  0  0  0  0  0  0  0  0  0  0
   37.6120   29.5440   44.3000 H   0  0  0  0  0  0  0  0  0  0  0  0
   37.8020   27.0700   44.1770 H   0  0  0  0  0  0  0  0  0  0  0  0
   38.1080   25.6840   42.0140 N   0  0  0  0  0  0  0  0  0  0  0  0
   37.1390   24.6420   42.1400 C   0  0  0  0  0  0  0  0  0  0  0  0
   37.4830   23.6970   40.9780 C   0  0  0  0  0  0  0  0  0  0  0  0
   38.9220   23.9930   40.6900 C   0  0  0  0  0  0  0  0  0  0  0  0
   39.3050   24.8410   41.8910 C   0  0  2  0  0  0  0  0  0  0  0  0
   36.1400   25.1020   41.9050 H   0  0  0  0  0  0  0  0  0  0  0  0
   37.0590   24.1380   43.0920 H   0  0  0  0  0  0  0  0  0  0  0  0
   36.7990   23.8820   40.1280 H   0  0  0  0  0  0  0  0  0  0  0  0
   37.3890   22.6470   41.3500 H   0  0  0  0  0  0  0  0  0  0  0  0
   39.0610   24.5570   39.7650 H   0  0  0  0  0  0  0  0  0  0  0  0
   39.5150   23.0580   40.7240 H   0  0  0  0  0  0  0  0  0  0  0  0
   40.1170   25.5280   41.5200 H   0  0  0  0  0  0  0  0  0  0  0  0
   39.6500   24.0800   43.1030 C   0  0  0  0  0  0  0  0  0  0  0  0
   40.5900   24.4970   43.5240 H   0  0  0  0  0  0  0  0  0  0  0  0
   38.9190   24.1210   43.9290 H   0  0  0  0  0  0  0  0  0  0  0  0
   39.9200   23.0340   42.8150 H   0  0  0  0  0  0  0  0  0  0  0  0
   37.0180   30.7960   37.7830 C   0  0  0  0  0  0  0  0  0  0  0  0
   38.1580   31.5760   37.4610 C   0  0  0  0  0  0  0  0  0  0  0  0
   39.2130   31.5430   38.3700 C   0  0  0  0  0  0  0  0  0  0  0  0
   39.0950   30.7830   39.4860 N   0  0  0  0  0  0  0  0  0  0  0  0
   38.0060   30.0610   39.7580 C   0  0  0  0  0  0  0  0  0  0  0  0
   36.9750   30.0670   38.9120 N   0  0  0  0  0  0  0  0  0  0  0  0
   36.2310   30.8520   37.0530 H   0  0  0  0  0  0  0  0  0  0  0  0
   38.2770   32.1800   36.5930 H   0  0  0  0  0  0  0  0  0  0  0  0
   40.4780   32.2840   38.2130 C   0  0  0  0  0  0  0  0  0  0  0  0
   40.7430   32.2930   36.8370 F   0  0  0  0  0  0  0  0  0  0  0  0
   41.4720   31.5480   38.8240 F   0  0  0  0  0  0  0  0  0  0  0  0
   40.4550   33.5420   38.7300 F   0  0  0  0  0  0  0  0  0  0  0  0
  1  2  1  0  0  0  0
  2  3  2  0  0  0  0
  2  7  1  0  0  0  0
  3  4  1  0  0  0  0
  4  8  1  0  0  0  0
  4  5  2  0  0  0  0
  5  9  1  0  0  0  0
  6  5  1  0  0  0  0
  6 10  1  0  0  0  0
  7 11  1  0  0  0  0
  7  6  2  0  0  0  0
 11 12  1  0  0  0  0
 12 17  1  0  0  0  0
 13 19  1  0  0  0  0
 13 12  1  0  0  0  0
 14 21  1  0  0  0  0
 14 13  1  0  0  0  0
 14 15  1  0  0  0  0
 15 22  1  6  0  0  0
 15 11  1  0  0  0  0
 15 23  1  0  0  0  0
 16 12  1  0  0  0  0
 18 13  1  0  0  0  0
 20 14  1  0  0  0  0
 23 24  1  0  0  0  0
 23 25  1  0  0  0  0
 26 23  1  0  0  0  0
 27 32  1  0  0  0  0
 28 27  2  0  0  0  0
 28 29  1  0  0  0  0
 29 30  2  0  0  0  0
 30 31  1  0  0  0  0
 31  3  1  0  0  0  0
 32 31  2  0  0  0  0
 33 27  1  0  0  0  0
 34 28  1  0  0  0  0
 35 29  1  0  0  0  0
 35 38  1  0  0  0  0
 35 37  1  0  0  0  0
 36 35  1  0  0  0  0
M  END
>  <minimizedAffinity>
-5.49309206

$$$$

 OpenBabel03252505263D

 38 40  0  0  1  0  0  0  0  0999 V2000
   38.1540   27.2410   39.6480 F   0  0  0  0  0  0  0  0  0  0  0  0
   37.9420   27.8350   40.8640 C   0  0  0  0  0  0  0  0  0  0  0  0
   37.7800   29.1990   40.8880 C   0  0  0  0  0  0  0  0  0  0  0  0
   37.5680   29.7900   42.0980 C   0  0  0  0  0  0  0  0  0  0  0  0
   37.5250   29.0080   43.2500 C   0  0  0  0  0  0  0  0  0  0  0  0
   37.6890   27.6450   43.2200 C   0  0  0  0  0  0  0  0  0  0  0  0
   37.9050   27.0530   41.9620 C   0  0  0  0  0  0  0  0  0  0  0  0
   37.4320   30.8640   42.1800 H   0  0  0  0  0  0  0  0  0  0  0  0
   37.3540   29.5240   44.1970 H   0  0  0  0  0  0  0  0  0  0  0  0
   37.6510   27.0580   44.1290 H   0  0  0  0  0  0  0  0  0  0  0  0
   38.0650   25.6450   42.0020 N   0  0  0  0  0  0  0  0  0  0  0  0
   37.1430   24.5670   42.1630 C   0  0  0  0  0  0  0  0  0  0  0  0
   37.5120   23.6100   41.0190 C   0  0  0  0  0  0  0  0  0  0  0  0
   38.9340   23.9590   40.7060 C   0  0  0  0  0  0  0  0  0  0  0  0
   39.2950   24.8500   41.8820 C   0  0  2  0  0  0  0  0  0  0  0  0
   36.1220   24.9810   41.9300 H   0  0  0  0  0  0  0  0  0  0  0  0
   37.0940   24.0830   43.1270 H   0  0  0  0  0  0  0  0  0  0  0  0
   36.8110   23.7470   40.1730 H   0  0  0  0  0  0  0  0  0  0  0  0
   37.4660   22.5670   41.4150 H   0  0  0  0  0  0  0  0  0  0  0  0
   39.0380   24.5070   39.7660 H   0  0  0  0  0  0  0  0  0  0  0  0
   39.5660   23.0510   40.7530 H   0  0  0  0  0  0  0  0  0  0  0  0
   40.0740   25.5610   41.4850 H   0  0  0  0  0  0  0  0  0  0  0  0
   39.6860   24.1330   43.1070 C   0  0  0  0  0  0  0  0  0  0  0  0
   40.6120   24.5980   43.5060 H   0  0  0  0  0  0  0  0  0  0  0  0
   38.9630   24.1620   43.9410 H   0  0  0  0  0  0  0  0  0  0  0  0
   39.9960   23.0920   42.8400 H   0  0  0  0  0  0  0  0  0  0  0  0
   38.5710   31.8370   38.4760 C   0  0  0  0  0  0  0  0  0  0  0  0
   37.9060   31.4020   37.3010 C   0  0  0  0  0  0  0  0  0  0  0  0
   37.2040   30.2010   37.3910 C   0  0  0  0  0  0  0  0  0  0  0  0
   37.1950   29.5310   38.5690 N   0  0  0  0  0  0  0  0  0  0  0  0
   37.8330   29.9700   39.6560 C   0  0  0  0  0  0  0  0  0  0  0  0
   38.5160   31.1150   39.6100 N   0  0  0  0  0  0  0  0  0  0  0  0
   39.0980   32.7660   38.3610 H   0  0  0  0  0  0  0  0  0  0  0  0
   37.8970   31.9070   36.3650 H   0  0  0  0  0  0  0  0  0  0  0  0
   36.4520   29.5860   36.2810 C   0  0  0  0  0  0  0  0  0  0  0  0
   36.5070   30.5100   35.2290 F   0  0  0  0  0  0  0  0  0  0  0  0
   35.1350   29.4820   36.6770 F   0  0  0  0  0  0  0  0  0  0  0  0
   36.9160   28.3650   35.9030 F   0  0  0  0  0  0  0  0  0  0  0  0
  1  2  1  0  0  0  0
  2  3  2  0  0  0  0
  2  7  1  0  0  0  0
  3  4  1  0  0  0  0
  4  8  1  0  0  0  0
  4  5  2  0  0  0  0
  5  9  1  0  0  0  0
  6  5  1  0  0  0  0
  6 10  1  0  0  0  0
  7 11  1  0  0  0  0
  7  6  2  0  0  0  0
 11 12  1  0  0  0  0
 12 17  1  0  0  0  0
 13 19  1  0  0  0  0
 13 12  1  0  0  0  0
 14 21  1  0  0  0  0
 14 13  1  0  0  0  0
 14 15  1  0  0  0  0
 15 22  1  6  0  0  0
 15 11  1  0  0  0  0
 15 23  1  0  0  0  0
 16 12  1  0  0  0  0
 18 13  1  0  0  0  0
 20 14  1  0  0  0  0
 23 24  1  0  0  0  0
 23 25  1  0  0  0  0
 26 23  1  0  0  0  0
 27 32  1  0  0  0  0
 28 29  1  0  0  0  0
 28 27  2  0  0  0  0
 29 30  2  0  0  0  0
 30 31  1  0  0  0  0
 31  3  1  0  0  0  0
 32 31  2  0  0  0  0
 33 27  1  0  0  0  0
 34 28  1  0  0  0  0
 35 37  1  0  0  0  0
 35 29  1  0  0  0  0
 36 35  1  0  0  0  0
 38 35  1  0  0  0  0
M  END
>  <minimizedAffinity>
-5.45929813

$$$$
