
 OpenBabel03242519343D

 31 32  0  0  0  0  0  0  0  0999 V2000
   42.4790   34.4730   40.7800 C   0  0  0  0  0  0  0  0  0  0  0  0
   42.7760   34.2910   39.3340 C   0  0  0  0  0  0  0  0  0  0  0  0
   42.1350   35.3270   38.4760 C   0  0  0  0  0  0  0  0  0  0  0  0
   40.6290   35.3680   38.6910 C   0  0  0  0  0  0  0  0  0  0  0  0
   40.2290   35.3800   40.1320 C   0  0  0  0  0  0  0  0  0  0  0  0
   41.4140   35.5000   41.0630 C   0  0  0  0  0  0  0  0  0  0  0  0
   42.1570   33.4960   41.1820 H   0  0  0  0  0  0  0  0  0  0  0  0
   42.4770   33.2800   38.9470 H   0  0  0  0  0  0  0  0  0  0  0  0
   43.8740   34.3460   39.1850 H   0  0  0  0  0  0  0  0  0  0  0  0
   42.5840   36.3210   38.5110 H   0  0  0  0  0  0  0  0  0  0  0  0
   42.2740   34.9830   37.4100 H   0  0  0  0  0  0  0  0  0  0  0  0
   40.1760   36.1620   38.0930 H   0  0  0  0  0  0  0  0  0  0  0  0
   40.2410   34.3990   38.2620 H   0  0  0  0  0  0  0  0  0  0  0  0
   39.5580   34.5680   40.4390 H   0  0  0  0  0  0  0  0  0  0  0  0
   39.6360   36.3210   40.2820 H   0  0  0  0  0  0  0  0  0  0  0  0
   41.0540   35.3790   42.1030 H   0  0  0  0  0  0  0  0  0  0  0  0
   41.7710   36.5410   40.9830 H   0  0  0  0  0  0  0  0  0  0  0  0
   43.6800   34.8740   41.5620 C   0  0  0  0  0  0  0  0  0  0  0  0
   44.9240   34.5380   40.9830 C   0  0  0  0  0  0  0  0  0  0  0  0
   46.0880   34.8850   41.6670 C   0  0  0  0  0  0  0  0  0  0  0  0
   45.9530   35.5350   42.8700 N   0  0  0  0  0  0  0  0  0  0  0  0
   44.7350   35.8370   43.3880 C   0  0  0  0  0  0  0  0  0  0  0  0
   43.5980   35.5150   42.7500 N   0  0  0  0  0  0  0  0  0  0  0  0
   44.7530   36.5140   44.6460 N   0  0  0  0  0  0  0  0  0  0  0  0
   45.0720   34.0420   40.0660 H   0  0  0  0  0  0  0  0  0  0  0  0
   44.1430   37.3670   44.5830 H   0  0  0  0  0  0  0  0  0  0  0  0
   45.3540   36.0570   45.3940 H   0  0  0  0  0  0  0  0  0  0  0  0
   47.4290   34.5670   41.1250 C   0  0  0  0  0  0  0  0  0  0  0  0
   47.8950   33.4030   41.7050 F   0  0  0  0  0  0  0  0  0  0  0  0
   48.2870   35.5870   41.4270 F   0  0  0  0  0  0  0  0  0  0  0  0
   47.3270   34.3450   39.7640 F   0  0  0  0  0  0  0  0  0  0  0  0
  1  6  1  0  0  0  0
  1  7  1  0  0  0  0
  1 18  1  0  0  0  0
  2  1  1  0  0  0  0
  3 10  1  0  0  0  0
  3  4  1  0  0  0  0
  3  2  1  0  0  0  0
  4  5  1  0  0  0  0
  5 15  1  0  0  0  0
  5 14  1  0  0  0  0
  5  6  1  0  0  0  0
  6 16  1  0  0  0  0
  8  2  1  0  0  0  0
  9  2  1  0  0  0  0
 11  3  1  0  0  0  0
 12  4  1  0  0  0  0
 13  4  1  0  0  0  0
 17  6  1  0  0  0  0
 18 23  1  0  0  0  0
 19 18  2  0  0  0  0
 19 20  1  0  0  0  0
 20 21  2  0  0  0  0
 21 22  1  0  0  0  0
 22 24  1  0  0  0  0
 23 22  2  0  0  0  0
 24 27  1  0  0  0  0
 25 19  1  0  0  0  0
 26 24  1  0  0  0  0
 28 30  1  0  0  0  0
 28 20  1  0  0  0  0
 28 29  1  0  0  0  0
 31 28  1  0  0  0  0
M  END
>  <minimizedAffinity>
-5.65950108

>  <minimizedRMSD>
5.54129124

$$$$
