
 OpenBabel03252509213D

 20 21  0  0  0  0  0  0  0  0999 V2000
   45.4540   33.9890   44.7620 C   0  0  0  0  0  0  0  0  0  0  0  0
   45.7540   34.8270   43.6390 C   0  0  0  0  0  0  0  0  0  0  0  0
   46.9250   34.4880   42.9900 C   0  0  0  0  0  0  0  0  0  0  0  0
   47.7200   33.4330   43.4010 N   0  0  0  0  0  0  0  0  0  0  0  0
   47.3770   32.6770   44.4730 C   0  0  0  0  0  0  0  0  0  0  0  0
   46.2480   32.9660   45.1390 N   0  0  0  0  0  0  0  0  0  0  0  0
   44.5780   34.1490   45.3460 H   0  0  0  0  0  0  0  0  0  0  0  0
   48.1330   31.9190   44.6090 H   0  0  0  0  0  0  0  0  0  0  0  0
   47.2640   35.2500   41.7380 C   0  0  0  0  0  0  0  0  0  0  0  0
   48.7580   35.6070   41.7020 C   0  0  0  0  0  0  0  0  0  0  0  0
   48.0620   34.6040   40.7370 C   0  0  0  0  0  0  0  0  0  0  0  0
   46.6610   36.1550   41.5940 H   0  0  0  0  0  0  0  0  0  0  0  0
   49.3760   35.1950   42.5020 H   0  0  0  0  0  0  0  0  0  0  0  0
   49.0870   36.5490   41.2600 H   0  0  0  0  0  0  0  0  0  0  0  0
   48.0530   34.9370   39.6560 H   0  0  0  0  0  0  0  0  0  0  0  0
   48.4880   33.5690   40.8510 H   0  0  0  0  0  0  0  0  0  0  0  0
   44.8320   35.9040   43.2990 C   0  0  0  0  0  0  0  0  0  0  0  0
   45.4890   37.1170   43.2180 F   0  0  0  0  0  0  0  0  0  0  0  0
   43.7590   35.9590   44.1610 F   0  0  0  0  0  0  0  0  0  0  0  0
   44.3060   35.6720   42.0420 F   0  0  0  0  0  0  0  0  0  0  0  0
  1  6  1  0  0  0  0
  1  7  1  0  0  0  0
  2  1  2  0  0  0  0
  3  4  2  0  0  0  0
  3  2  1  0  0  0  0
  4  5  1  0  0  0  0
  5  8  1  0  0  0  0
  5  6  2  0  0  0  0
  9  3  1  0  0  0  0
 10  9  1  0  0  0  0
 10 13  1  0  0  0  0
 11 16  1  0  0  0  0
 11 10  1  0  0  0  0
 11  9  1  0  0  0  0
 12  9  1  0  0  0  0
 14 10  1  0  0  0  0
 15 11  1  0  0  0  0
 17  2  1  0  0  0  0
 17 19  1  0  0  0  0
 18 17  1  0  0  0  0
 20 17  1  0  0  0  0
M  END
>  <minimizedAffinity>
-4.56732082

>  <minimizedRMSD>
1.69528449

$$$$
