
 OpenBabel03252500423D

 23 24  0  0  1  0  0  0  0  0999 V2000
   38.1750   28.9650   43.1590 C   0  0  0  0  0  0  0  0  0  0  0  0
   38.5580   29.4300   44.0820 H   0  0  0  0  0  0  0  0  0  0  0  0
   37.1570   28.5020   43.3360 H   0  0  0  0  0  0  0  0  0  0  0  0
   37.9440   30.0170   42.1580 C   0  0  0  0  0  0  0  0  0  0  0  0
   39.0290   30.7880   41.8090 C   0  0  0  0  0  0  0  0  0  0  0  0
   38.8630   31.8000   40.8360 C   0  0  0  0  0  0  0  0  0  0  0  0
   37.6150   31.9410   40.3050 N   0  0  0  0  0  0  0  0  0  0  0  0
   36.5760   31.1540   40.6830 C   0  0  0  0  0  0  0  0  0  0  0  0
   36.7420   30.2000   41.6030 N   0  0  0  0  0  0  0  0  0  0  0  0
   40.0580   30.8170   42.1210 H   0  0  0  0  0  0  0  0  0  0  0  0
   39.5820   32.4760   40.4550 H   0  0  0  0  0  0  0  0  0  0  0  0
   35.6240   31.3490   40.1990 H   0  0  0  0  0  0  0  0  0  0  0  0
   39.0850   27.8900   42.6670 C   0  0  1  0  0  0  0  0  0  0  0  0
   39.3150   26.7730   43.6800 C   0  0  0  0  0  0  0  0  0  0  0  0
   38.4770   26.5430   42.4700 C   0  0  1  0  0  0  0  0  0  0  0  0
   39.8230   28.0830   41.8670 H   0  0  0  0  0  0  0  0  0  0  0  0
   40.3760   26.4400   43.6660 H   0  0  0  0  0  0  0  0  0  0  0  0
   38.8980   26.8750   44.6780 H   0  0  0  0  0  0  0  0  0  0  0  0
   38.9230   25.7970   41.7590 H   0  0  0  0  0  0  0  0  0  0  0  0
   36.9950   26.4570   42.5410 C   0  0  0  0  0  0  0  0  0  0  0  0
   36.4600   26.9850   41.3820 F   0  0  0  0  0  0  0  0  0  0  0  0
   36.4420   27.0240   43.6700 F   0  0  0  0  0  0  0  0  0  0  0  0
   36.5800   25.1180   42.5520 F   0  0  0  0  0  0  0  0  0  0  0  0
  1  3  1  0  0  0  0
  1  2  1  0  0  0  0
  4  1  1  0  0  0  0
  5 10  1  0  0  0  0
  5  4  1  0  0  0  0
  6  5  2  0  0  0  0
  7  8  2  0  0  0  0
  7  6  1  0  0  0  0
  8  9  1  0  0  0  0
  9  4  2  0  0  0  0
 11  6  1  0  0  0  0
 12  8  1  0  0  0  0
 13 16  1  6  0  0  0
 13  1  1  0  0  0  0
 13 14  1  0  0  0  0
 14 18  1  0  0  0  0
 15 19  1  6  0  0  0
 15 20  1  0  0  0  0
 15 13  1  0  0  0  0
 15 14  1  0  0  0  0
 17 14  1  0  0  0  0
 20 23  1  0  0  0  0
 20 22  1  0  0  0  0
 21 20  1  0  0  0  0
M  END
>  <minimizedAffinity>
-4.52611876

$$$$

 OpenBabel03252500423D

 23 24  0  0  1  0  0  0  0  0999 V2000
   38.1110   28.9520   43.0690 C   0  0  0  0  0  0  0  0  0  0  0  0
   38.4120   29.3900   44.0340 H   0  0  0  0  0  0  0  0  0  0  0  0
   37.0830   28.4850   43.1430 H   0  0  0  0  0  0  0  0  0  0  0  0
   37.9680   30.0310   42.0810 C   0  0  0  0  0  0  0  0  0  0  0  0
   36.7480   30.1360   41.4510 C   0  0  0  0  0  0  0  0  0  0  0  0
   36.5540   31.1690   40.5060 C   0  0  0  0  0  0  0  0  0  0  0  0
   37.6100   32.0020   40.2830 N   0  0  0  0  0  0  0  0  0  0  0  0
   38.7940   31.8570   40.9310 C   0  0  0  0  0  0  0  0  0  0  0  0
   38.9690   30.8770   41.8220 N   0  0  0  0  0  0  0  0  0  0  0  0
   35.8300   29.5780   41.5010 H   0  0  0  0  0  0  0  0  0  0  0  0
   35.6900   31.3910   39.9370 H   0  0  0  0  0  0  0  0  0  0  0  0
   39.5700   32.5730   40.6800 H   0  0  0  0  0  0  0  0  0  0  0  0
   39.0620   27.8890   42.6280 C   0  0  1  0  0  0  0  0  0  0  0  0
   39.2950   26.8050   43.6750 C   0  0  0  0  0  0  0  0  0  0  0  0
   38.4940   26.5210   42.4500 C   0  0  1  0  0  0  0  0  0  0  0  0
   39.8160   28.0820   41.8430 H   0  0  0  0  0  0  0  0  0  0  0  0
   40.3630   26.5000   43.6970 H   0  0  0  0  0  0  0  0  0  0  0  0
   38.8490   26.9200   44.6590 H   0  0  0  0  0  0  0  0  0  0  0  0
   38.9780   25.7700   41.7700 H   0  0  0  0  0  0  0  0  0  0  0  0
   37.0140   26.3980   42.4860 C   0  0  0  0  0  0  0  0  0  0  0  0
   36.4970   26.8760   41.2970 F   0  0  0  0  0  0  0  0  0  0  0  0
   36.4160   26.9840   43.5820 F   0  0  0  0  0  0  0  0  0  0  0  0
   36.6340   25.0500   42.5270 F   0  0  0  0  0  0  0  0  0  0  0  0
  1  3  1  0  0  0  0
  1  2  1  0  0  0  0
  4  1  1  0  0  0  0
  5 10  1  0  0  0  0
  5  4  2  0  0  0  0
  6  5  1  0  0  0  0
  7  6  2  0  0  0  0
  7  8  1  0  0  0  0
  8  9  2  0  0  0  0
  9  4  1  0  0  0  0
 11  6  1  0  0  0  0
 12  8  1  0  0  0  0
 13 16  1  6  0  0  0
 13  1  1  0  0  0  0
 13 14  1  0  0  0  0
 14 17  1  0  0  0  0
 14 18  1  0  0  0  0
 15 19  1  6  0  0  0
 15 20  1  0  0  0  0
 15 13  1  0  0  0  0
 15 14  1  0  0  0  0
 20 23  1  0  0  0  0
 20 22  1  0  0  0  0
 21 20  1  0  0  0  0
M  END
>  <minimizedAffinity>
-4.49659634

$$$$

 OpenBabel03252500423D

 23 24  0  0  1  0  0  0  0  0999 V2000
   37.9820   29.9480   41.1180 C   0  0  0  0  0  0  0  0  0  0  0  0
   38.8080   29.3860   40.6520 H   0  0  0  0  0  0  0  0  0  0  0  0
   38.0830   29.9500   42.2450 H   0  0  0  0  0  0  0  0  0  0  0  0
   38.0880   31.3610   40.7250 C   0  0  0  0  0  0  0  0  0  0  0  0
   37.0840   31.8590   39.9260 C   0  0  0  0  0  0  0  0  0  0  0  0
   37.1300   33.2180   39.5370 C   0  0  0  0  0  0  0  0  0  0  0  0
   38.1880   33.9490   39.9900 N   0  0  0  0  0  0  0  0  0  0  0  0
   39.1550   33.4100   40.7770 C   0  0  0  0  0  0  0  0  0  0  0  0
   39.1030   32.1260   41.1390 N   0  0  0  0  0  0  0  0  0  0  0  0
   36.1990   31.4350   39.4860 H   0  0  0  0  0  0  0  0  0  0  0  0
   36.4490   33.7560   38.9330 H   0  0  0  0  0  0  0  0  0  0  0  0
   39.9530   34.0790   41.0820 H   0  0  0  0  0  0  0  0  0  0  0  0
   36.6550   29.3550   40.7810 C   0  0  1  0  0  0  0  0  0  0  0  0
   36.7370   27.9140   40.2880 C   0  0  0  0  0  0  0  0  0  0  0  0
   36.1940   28.2260   41.6400 C   0  0  1  0  0  0  0  0  0  0  0  0
   35.7920   29.9920   40.5120 H   0  0  0  0  0  0  0  0  0  0  0  0
   36.0240   27.7400   39.4530 H   0  0  0  0  0  0  0  0  0  0  0  0
   37.7150   27.4670   40.1320 H   0  0  0  0  0  0  0  0  0  0  0  0
   35.1040   27.9780   41.7460 H   0  0  0  0  0  0  0  0  0  0  0  0
   36.9680   27.9660   42.8820 C   0  0  0  0  0  0  0  0  0  0  0  0
   36.2890   27.0390   43.6460 F   0  0  0  0  0  0  0  0  0  0  0  0
   37.2880   29.0970   43.6040 F   0  0  0  0  0  0  0  0  0  0  0  0
   38.1920   27.3550   42.5780 F   0  0  0  0  0  0  0  0  0  0  0  0
  1  3  1  0  0  0  0
  2  1  1  0  0  0  0
  4  1  1  0  0  0  0
  4  9  1  0  0  0  0
  5  4  2  0  0  0  0
  6  5  1  0  0  0  0
  6  7  2  0  0  0  0
  7  8  1  0  0  0  0
  8 12  1  0  0  0  0
  8  9  2  0  0  0  0
 10  5  1  0  0  0  0
 11  6  1  0  0  0  0
 13 16  1  6  0  0  0
 13  1  1  0  0  0  0
 13 15  1  0  0  0  0
 14 13  1  0  0  0  0
 14 15  1  0  0  0  0
 15 19  1  1  0  0  0
 15 20  1  0  0  0  0
 17 14  1  0  0  0  0
 18 14  1  0  0  0  0
 20 22  1  0  0  0  0
 20 21  1  0  0  0  0
 23 20  1  0  0  0  0
M  END
>  <minimizedAffinity>
-4.23431253

$$$$

 OpenBabel03252500423D

 23 24  0  0  1  0  0  0  0  0999 V2000
   36.2050   28.4220   41.7310 C   0  0  0  0  0  0  0  0  0  0  0  0
   35.2790   28.2000   42.2860 H   0  0  0  0  0  0  0  0  0  0  0  0
   36.5990   29.4480   42.0010 H   0  0  0  0  0  0  0  0  0  0  0  0
   37.2540   27.4870   42.1640 C   0  0  0  0  0  0  0  0  0  0  0  0
   38.1200   27.9350   43.1360 C   0  0  0  0  0  0  0  0  0  0  0  0
   39.1350   27.0670   43.6000 C   0  0  0  0  0  0  0  0  0  0  0  0
   39.1820   25.8250   43.0390 N   0  0  0  0  0  0  0  0  0  0  0  0
   38.3040   25.4300   42.0820 C   0  0  0  0  0  0  0  0  0  0  0  0
   37.3490   26.2580   41.6490 N   0  0  0  0  0  0  0  0  0  0  0  0
   38.2270   28.8610   43.6730 H   0  0  0  0  0  0  0  0  0  0  0  0
   39.8760   27.2480   44.3330 H   0  0  0  0  0  0  0  0  0  0  0  0
   38.4290   24.4220   41.7010 H   0  0  0  0  0  0  0  0  0  0  0  0
   35.9810   28.3950   40.2560 C   0  0  1  0  0  0  0  0  0  0  0  0
   34.7260   29.1390   39.8140 C   0  0  0  0  0  0  0  0  0  0  0  0
   36.0800   29.7010   39.5440 C   0  0  1  0  0  0  0  0  0  0  0  0
   36.4110   27.5950   39.6240 H   0  0  0  0  0  0  0  0  0  0  0  0
   34.2050   28.5880   39.0020 H   0  0  0  0  0  0  0  0  0  0  0  0
   34.0590   29.5410   40.5720 H   0  0  0  0  0  0  0  0  0  0  0  0
   36.3250   29.7550   38.4490 H   0  0  0  0  0  0  0  0  0  0  0  0
   36.6270   30.8480   40.3150 C   0  0  0  0  0  0  0  0  0  0  0  0
   37.9540   30.5990   40.6030 F   0  0  0  0  0  0  0  0  0  0  0  0
   35.9050   31.1750   41.4440 F   0  0  0  0  0  0  0  0  0  0  0  0
   36.6410   32.0070   39.5280 F   0  0  0  0  0  0  0  0  0  0  0  0
  1  3  1  0  0  0  0
  1  4  1  0  0  0  0
  1  2  1  0  0  0  0
  4  5  1  0  0  0  0
  5  6  2  0  0  0  0
  5 10  1  0  0  0  0
  6 11  1  0  0  0  0
  7  6  1  0  0  0  0
  8  7  2  0  0  0  0
  9  8  1  0  0  0  0
  9  4  2  0  0  0  0
 12  8  1  0  0  0  0
 13 16  1  6  0  0  0
 13  1  1  0  0  0  0
 14 13  1  0  0  0  0
 14 18  1  0  0  0  0
 15 19  1  6  0  0  0
 15 14  1  0  0  0  0
 15 13  1  0  0  0  0
 15 20  1  0  0  0  0
 17 14  1  0  0  0  0
 20 21  1  0  0  0  0
 20 22  1  0  0  0  0
 23 20  1  0  0  0  0
M  END
>  <minimizedAffinity>
-4.14077234

$$$$

 OpenBabel03252500423D

 23 24  0  0  1  0  0  0  0  0999 V2000
   37.0330   29.8040   41.6190 C   0  0  0  0  0  0  0  0  0  0  0  0
   36.6700   30.3830   42.4840 H   0  0  0  0  0  0  0  0  0  0  0  0
   36.2780   29.0170   41.3180 H   0  0  0  0  0  0  0  0  0  0  0  0
   37.1320   30.6990   40.4570 C   0  0  0  0  0  0  0  0  0  0  0  0
   37.0760   30.1080   39.2150 C   0  0  0  0  0  0  0  0  0  0  0  0
   37.1480   30.9270   38.0650 C   0  0  0  0  0  0  0  0  0  0  0  0
   37.2710   32.2680   38.2750 N   0  0  0  0  0  0  0  0  0  0  0  0
   37.3220   32.8030   39.5220 C   0  0  0  0  0  0  0  0  0  0  0  0
   37.2540   32.0210   40.6020 N   0  0  0  0  0  0  0  0  0  0  0  0
   36.9860   29.0920   38.8730 H   0  0  0  0  0  0  0  0  0  0  0  0
   37.1200   30.6420   37.0460 H   0  0  0  0  0  0  0  0  0  0  0  0
   37.4220   33.8820   39.5780 H   0  0  0  0  0  0  0  0  0  0  0  0
   38.3180   29.1090   41.9240 C   0  0  1  0  0  0  0  0  0  0  0  0
   38.4690   28.7170   43.3900 C   0  0  0  0  0  0  0  0  0  0  0  0
   38.2190   27.6830   42.3470 C   0  0  1  0  0  0  0  0  0  0  0  0
   39.2100   29.2450   41.2850 H   0  0  0  0  0  0  0  0  0  0  0  0
   39.5110   28.8830   43.7390 H   0  0  0  0  0  0  0  0  0  0  0  0
   37.7100   29.0370   44.1000 H   0  0  0  0  0  0  0  0  0  0  0  0
   39.0780   26.9720   42.2150 H   0  0  0  0  0  0  0  0  0  0  0  0
   36.8950   27.0250   42.1880 C   0  0  0  0  0  0  0  0  0  0  0  0
   35.9930   27.6240   43.0450 F   0  0  0  0  0  0  0  0  0  0  0  0
   36.9170   25.6540   42.3350 F   0  0  0  0  0  0  0  0  0  0  0  0
   36.3820   27.2570   40.9050 F   0  0  0  0  0  0  0  0  0  0  0  0
  1 13  1  0  0  0  0
  1  2  1  0  0  0  0
  3  1  1  0  0  0  0
  4  9  1  0  0  0  0
  4  1  1  0  0  0  0
  5  4  2  0  0  0  0
  6  7  2  0  0  0  0
  6  5  1  0  0  0  0
  7  8  1  0  0  0  0
  8 12  1  0  0  0  0
  8  9  2  0  0  0  0
 10  5  1  0  0  0  0
 11  6  1  0  0  0  0
 13 16  1  6  0  0  0
 13 15  1  0  0  0  0
 13 14  1  0  0  0  0
 14 17  1  0  0  0  0
 14 18  1  0  0  0  0
 15 19  1  6  0  0  0
 15 14  1  0  0  0  0
 20 22  1  0  0  0  0
 20 15  1  0  0  0  0
 20 21  1  0  0  0  0
 23 20  1  0  0  0  0
M  END
>  <minimizedAffinity>
-4.07886553

$$$$

 OpenBabel03252500423D

 23 24  0  0  1  0  0  0  0  0999 V2000
   37.4590   27.2700   42.6430 C   0  0  0  0  0  0  0  0  0  0  0  0
   37.6070   27.5180   43.7060 H   0  0  0  0  0  0  0  0  0  0  0  0
   36.5940   26.5510   42.5140 H   0  0  0  0  0  0  0  0  0  0  0  0
   37.0510   28.4860   41.9230 C   0  0  0  0  0  0  0  0  0  0  0  0
   35.8870   28.4120   41.1930 C   0  0  0  0  0  0  0  0  0  0  0  0
   35.4420   29.5610   40.4990 C   0  0  0  0  0  0  0  0  0  0  0  0
   36.2150   30.6780   40.6050 N   0  0  0  0  0  0  0  0  0  0  0  0
   37.3580   30.7000   41.3390 C   0  0  0  0  0  0  0  0  0  0  0  0
   37.7700   29.6100   41.9910 N   0  0  0  0  0  0  0  0  0  0  0  0
   35.1720   27.6320   41.0010 H   0  0  0  0  0  0  0  0  0  0  0  0
   34.5800   29.6780   39.8980 H   0  0  0  0  0  0  0  0  0  0  0  0
   37.8990   31.6400   41.3570 H   0  0  0  0  0  0  0  0  0  0  0  0
   38.6720   26.6310   42.0540 C   0  0  1  0  0  0  0  0  0  0  0  0
   39.2190   25.4760   42.8850 C   0  0  0  0  0  0  0  0  0  0  0  0
   38.5230   25.2200   41.5930 C   0  0  1  0  0  0  0  0  0  0  0  0
   39.3300   27.1810   41.3560 H   0  0  0  0  0  0  0  0  0  0  0  0
   40.3300   25.4910   42.9000 H   0  0  0  0  0  0  0  0  0  0  0  0
   38.7690   25.2650   43.8520 H   0  0  0  0  0  0  0  0  0  0  0  0
   39.1970   24.7870   40.8070 H   0  0  0  0  0  0  0  0  0  0  0  0
   37.1420   24.6740   41.5340 C   0  0  0  0  0  0  0  0  0  0  0  0
   36.4650   25.2820   40.4950 F   0  0  0  0  0  0  0  0  0  0  0  0
   36.4450   24.7520   42.7220 F   0  0  0  0  0  0  0  0  0  0  0  0
   37.1660   23.3130   41.2010 F   0  0  0  0  0  0  0  0  0  0  0  0
  1  2  1  0  0  0  0
  3  1  1  0  0  0  0
  4  9  1  0  0  0  0
  4  1  1  0  0  0  0
  5  4  2  0  0  0  0
  6  7  2  0  0  0  0
  6  5  1  0  0  0  0
  7  8  1  0  0  0  0
  8 12  1  0  0  0  0
  8  9  2  0  0  0  0
 10  5  1  0  0  0  0
 11  6  1  0  0  0  0
 13 16  1  6  0  0  0
 13  1  1  0  0  0  0
 13 14  1  0  0  0  0
 14 17  1  0  0  0  0
 14 18  1  0  0  0  0
 15 19  1  6  0  0  0
 15 13  1  0  0  0  0
 15 14  1  0  0  0  0
 20 15  1  0  0  0  0
 20 22  1  0  0  0  0
 21 20  1  0  0  0  0
 23 20  1  0  0  0  0
M  END
>  <minimizedAffinity>
-4.05364084

$$$$

 OpenBabel03252500423D

 23 24  0  0  1  0  0  0  0  0999 V2000
   37.0320   29.0680   41.7200 C   0  0  0  0  0  0  0  0  0  0  0  0
   35.9400   29.0830   41.5670 H   0  0  0  0  0  0  0  0  0  0  0  0
   37.5240   28.3240   41.0230 H   0  0  0  0  0  0  0  0  0  0  0  0
   37.5840   30.3740   41.3320 C   0  0  0  0  0  0  0  0  0  0  0  0
   38.8840   30.6330   41.7070 C   0  0  0  0  0  0  0  0  0  0  0  0
   39.4670   31.8680   41.3420 C   0  0  0  0  0  0  0  0  0  0  0  0
   38.6840   32.7290   40.6320 N   0  0  0  0  0  0  0  0  0  0  0  0
   37.4060   32.4270   40.2870 C   0  0  0  0  0  0  0  0  0  0  0  0
   36.8630   31.2580   40.6370 N   0  0  0  0  0  0  0  0  0  0  0  0
   39.6270   30.0830   42.2570 H   0  0  0  0  0  0  0  0  0  0  0  0
   40.4420   32.2240   41.5450 H   0  0  0  0  0  0  0  0  0  0  0  0
   36.8700   33.1830   39.7220 H   0  0  0  0  0  0  0  0  0  0  0  0
   37.3860   28.6840   43.1180 C   0  0  1  0  0  0  0  0  0  0  0  0
   36.5250   27.5570   43.6790 C   0  0  0  0  0  0  0  0  0  0  0  0
   37.9480   27.3170   43.3100 C   0  0  1  0  0  0  0  0  0  0  0  0
   37.8940   29.3930   43.7970 H   0  0  0  0  0  0  0  0  0  0  0  0
   36.2730   27.7450   44.7450 H   0  0  0  0  0  0  0  0  0  0  0  0
   35.6900   27.1890   43.0880 H   0  0  0  0  0  0  0  0  0  0  0  0
   38.5970   27.0690   44.1920 H   0  0  0  0  0  0  0  0  0  0  0  0
   38.3310   26.5690   42.0840 C   0  0  0  0  0  0  0  0  0  0  0  0
   38.8540   25.3450   42.4520 F   0  0  0  0  0  0  0  0  0  0  0  0
   39.1720   27.2550   41.2340 F   0  0  0  0  0  0  0  0  0  0  0  0
   37.1960   26.2610   41.3220 F   0  0  0  0  0  0  0  0  0  0  0  0
  1 13  1  0  0  0  0
  2  1  1  0  0  0  0
  3  1  1  0  0  0  0
  4  5  1  0  0  0  0
  4  1  1  0  0  0  0
  5 10  1  0  0  0  0
  6 11  1  0  0  0  0
  6  5  2  0  0  0  0
  7  6  1  0  0  0  0
  8  7  2  0  0  0  0
  8  9  1  0  0  0  0
  9  4  2  0  0  0  0
 12  8  1  0  0  0  0
 13 15  1  0  0  0  0
 13 14  1  0  0  0  0
 13 16  1  1  0  0  0
 14 17  1  0  0  0  0
 15 14  1  0  0  0  0
 15 19  1  1  0  0  0
 18 14  1  0  0  0  0
 20 21  1  0  0  0  0
 20 15  1  0  0  0  0
 22 20  1  0  0  0  0
 23 20  1  0  0  0  0
M  END
>  <minimizedAffinity>
-4.03798437

$$$$

 OpenBabel03252500423D

 23 24  0  0  1  0  0  0  0  0999 V2000
   36.2260   28.3040   41.3340 C   0  0  0  0  0  0  0  0  0  0  0  0
   35.1490   28.2300   41.5610 H   0  0  0  0  0  0  0  0  0  0  0  0
   36.5720   27.4090   40.7340 H   0  0  0  0  0  0  0  0  0  0  0  0
   36.4490   29.4610   40.4550 C   0  0  0  0  0  0  0  0  0  0  0  0
   36.6280   30.6790   41.0690 C   0  0  0  0  0  0  0  0  0  0  0  0
   36.8650   31.8200   40.2680 C   0  0  0  0  0  0  0  0  0  0  0  0
   36.8990   31.6240   38.9190 N   0  0  0  0  0  0  0  0  0  0  0  0
   36.7160   30.4000   38.3610 C   0  0  0  0  0  0  0  0  0  0  0  0
   36.4920   29.3290   39.1260 N   0  0  0  0  0  0  0  0  0  0  0  0
   36.6300   31.0080   42.0930 H   0  0  0  0  0  0  0  0  0  0  0  0
   37.0220   32.8210   40.5720 H   0  0  0  0  0  0  0  0  0  0  0  0
   36.7610   30.3540   37.2780 H   0  0  0  0  0  0  0  0  0  0  0  0
   37.0460   28.3590   42.5800 C   0  0  1  0  0  0  0  0  0  0  0  0
   36.5530   27.4250   43.6790 C   0  0  0  0  0  0  0  0  0  0  0  0
   37.8060   27.1250   42.9310 C   0  0  1  0  0  0  0  0  0  0  0  0
   37.6510   29.2500   42.8310 H   0  0  0  0  0  0  0  0  0  0  0  0
   36.6280   27.9110   44.6750 H   0  0  0  0  0  0  0  0  0  0  0  0
   35.6270   26.8760   43.5260 H   0  0  0  0  0  0  0  0  0  0  0  0
   38.7250   27.1660   43.5750 H   0  0  0  0  0  0  0  0  0  0  0  0
   37.8730   26.0590   41.8970 C   0  0  0  0  0  0  0  0  0  0  0  0
   38.4090   26.5920   40.7410 F   0  0  0  0  0  0  0  0  0  0  0  0
   36.6770   25.4130   41.6630 F   0  0  0  0  0  0  0  0  0  0  0  0
   38.7730   25.0570   42.2830 F   0  0  0  0  0  0  0  0  0  0  0  0
  1  2  1  0  0  0  0
  1 13  1  0  0  0  0
  3  1  1  0  0  0  0
  4  5  1  0  0  0  0
  4  1  1  0  0  0  0
  5 10  1  0  0  0  0
  6 11  1  0  0  0  0
  6  5  2  0  0  0  0
  7  6  1  0  0  0  0
  8  7  2  0  0  0  0
  8  9  1  0  0  0  0
  9  4  2  0  0  0  0
 12  8  1  0  0  0  0
 13 16  1  1  0  0  0
 13 15  1  0  0  0  0
 13 14  1  0  0  0  0
 14 17  1  0  0  0  0
 15 19  1  1  0  0  0
 15 14  1  0  0  0  0
 18 14  1  0  0  0  0
 20 23  1  0  0  0  0
 20 15  1  0  0  0  0
 21 20  1  0  0  0  0
 22 20  1  0  0  0  0
M  END
>  <minimizedAffinity>
-4.02736235

$$$$

 OpenBabel03252500423D

 23 24  0  0  1  0  0  0  0  0999 V2000
   38.8330   30.5610   40.5080 C   0  0  0  0  0  0  0  0  0  0  0  0
   39.7550   30.0880   40.1310 H   0  0  0  0  0  0  0  0  0  0  0  0
   38.1240   30.7920   39.6570 H   0  0  0  0  0  0  0  0  0  0  0  0
   38.1130   29.5950   41.3500 C   0  0  0  0  0  0  0  0  0  0  0  0
   38.4190   29.5950   42.6920 C   0  0  0  0  0  0  0  0  0  0  0  0
   37.7400   28.6970   43.5480 C   0  0  0  0  0  0  0  0  0  0  0  0
   36.8150   27.8810   42.9690 N   0  0  0  0  0  0  0  0  0  0  0  0
   36.5480   27.9190   41.6390 C   0  0  0  0  0  0  0  0  0  0  0  0
   37.1950   28.7700   40.8380 N   0  0  0  0  0  0  0  0  0  0  0  0
   39.1060   30.1540   43.3030 H   0  0  0  0  0  0  0  0  0  0  0  0
   37.8510   28.5670   44.5920 H   0  0  0  0  0  0  0  0  0  0  0  0
   35.7940   27.2270   41.2800 H   0  0  0  0  0  0  0  0  0  0  0  0
   39.1230   31.8410   41.2170 C   0  0  1  0  0  0  0  0  0  0  0  0
   39.9520   32.8220   40.3950 C   0  0  0  0  0  0  0  0  0  0  0  0
   38.5050   33.0730   40.6470 C   0  0  1  0  0  0  0  0  0  0  0  0
   39.1170   31.9010   42.3220 H   0  0  0  0  0  0  0  0  0  0  0  0
   40.7030   33.3370   41.0320 H   0  0  0  0  0  0  0  0  0  0  0  0
   40.3380   32.5040   39.4300 H   0  0  0  0  0  0  0  0  0  0  0  0
   38.3180   33.9810   41.2800 H   0  0  0  0  0  0  0  0  0  0  0  0
   37.4750   32.8820   39.5930 C   0  0  0  0  0  0  0  0  0  0  0  0
   36.4710   32.0750   40.0910 F   0  0  0  0  0  0  0  0  0  0  0  0
   37.9650   32.4150   38.3910 F   0  0  0  0  0  0  0  0  0  0  0  0
   36.8450   34.0980   39.2960 F   0  0  0  0  0  0  0  0  0  0  0  0
  1 13  1  0  0  0  0
  1  4  1  0  0  0  0
  2  1  1  0  0  0  0
  3  1  1  0  0  0  0
  4  5  1  0  0  0  0
  5 10  1  0  0  0  0
  5  6  2  0  0  0  0
  6 11  1  0  0  0  0
  7  6  1  0  0  0  0
  8  7  2  0  0  0  0
  9  4  2  0  0  0  0
  9  8  1  0  0  0  0
 12  8  1  0  0  0  0
 13 16  1  1  0  0  0
 14 15  1  0  0  0  0
 14 17  1  0  0  0  0
 14 13  1  0  0  0  0
 15 13  1  0  0  0  0
 15 19  1  1  0  0  0
 18 14  1  0  0  0  0
 20 21  1  0  0  0  0
 20 15  1  0  0  0  0
 22 20  1  0  0  0  0
 23 20  1  0  0  0  0
M  END
>  <minimizedAffinity>
-3.98397613

$$$$
