
 OpenBabel03242518223D

 34 36  0  0  0  0  0  0  0  0999 V2000
   38.3970   28.8760   42.7860 C   0  0  0  0  0  0  0  0  0  0  0  0
   37.4100   28.5210   43.6790 C   0  0  0  0  0  0  0  0  0  0  0  0
   36.7380   27.4370   43.1570 C   0  0  0  0  0  0  0  0  0  0  0  0
   37.3540   27.1780   41.9530 C   0  0  0  0  0  0  0  0  0  0  0  0
   38.2950   28.0340   41.7960 O   0  0  0  0  0  0  0  0  0  0  0  0
   37.2380   29.0450   44.6240 H   0  0  0  0  0  0  0  0  0  0  0  0
   35.8990   26.9420   43.6580 H   0  0  0  0  0  0  0  0  0  0  0  0
   36.9710   26.1050   41.0430 C   0  0  0  0  0  0  0  0  0  0  0  0
   36.9470   24.7970   41.4770 C   0  0  0  0  0  0  0  0  0  0  0  0
   36.5920   23.7230   40.6660 C   0  0  0  0  0  0  0  0  0  0  0  0
   36.2590   24.0940   39.3600 C   0  0  0  0  0  0  0  0  0  0  0  0
   36.2760   25.3790   38.9080 C   0  0  0  0  0  0  0  0  0  0  0  0
   36.6330   26.3570   39.7660 N   0  0  0  0  0  0  0  0  0  0  0  0
   37.2210   24.5930   42.5140 H   0  0  0  0  0  0  0  0  0  0  0  0
   36.5800   22.7190   41.0250 H   0  0  0  0  0  0  0  0  0  0  0  0
   35.9690   23.3170   38.6590 H   0  0  0  0  0  0  0  0  0  0  0  0
   36.0180   25.6630   37.8970 H   0  0  0  0  0  0  0  0  0  0  0  0
   39.3530   30.0110   42.9820 C   0  0  0  0  0  0  0  0  0  0  0  0
   40.3260   29.6120   43.2840 H   0  0  0  0  0  0  0  0  0  0  0  0
   38.9990   30.6310   43.8450 H   0  0  0  0  0  0  0  0  0  0  0  0
   40.8080   31.9950   40.2760 C   0  0  0  0  0  0  0  0  0  0  0  0
   39.7110   32.3610   39.4970 C   0  0  0  0  0  0  0  0  0  0  0  0
   38.4800   31.9180   39.9170 C   0  0  0  0  0  0  0  0  0  0  0  0
   38.3780   31.1600   41.0430 N   0  0  0  0  0  0  0  0  0  0  0  0
   39.4660   30.8370   41.7560 C   0  0  0  0  0  0  0  0  0  0  0  0
   40.6960   31.2540   41.3760 N   0  0  0  0  0  0  0  0  0  0  0  0
   41.7900   32.3150   39.9930 H   0  0  0  0  0  0  0  0  0  0  0  0
   37.3160   32.3160   39.0750 C   0  0  0  0  0  0  0  0  0  0  0  0
   36.1970   31.6130   39.5350 F   0  0  0  0  0  0  0  0  0  0  0  0
   37.0090   33.6440   39.2650 F   0  0  0  0  0  0  0  0  0  0  0  0
   37.4710   31.9960   37.7500 F   0  0  0  0  0  0  0  0  0  0  0  0
   39.9500   33.1470   38.3560 N   0  0  0  0  0  0  0  0  0  0  0  0
   40.1000   34.1680   38.3100 H   0  0  0  0  0  0  0  0  0  0  0  0
   39.9630   32.5580   37.4800 H   0  0  0  0  0  0  0  0  0  0  0  0
  1 18  1  0  0  0  0
  1  2  2  0  0  0  0
  2  6  1  0  0  0  0
  3  7  1  0  0  0  0
  3  2  1  0  0  0  0
  4  3  2  0  0  0  0
  5  4  1  0  0  0  0
  5  1  1  0  0  0  0
  8  9  1  0  0  0  0
  8  4  1  0  0  0  0
  9 14  1  0  0  0  0
 10 15  1  0  0  0  0
 10  9  2  0  0  0  0
 11 10  1  0  0  0  0
 12 11  2  0  0  0  0
 12 13  1  0  0  0  0
 13  8  2  0  0  0  0
 16 11  1  0  0  0  0
 17 12  1  0  0  0  0
 18 19  1  0  0  0  0
 18 20  1  0  0  0  0
 21 26  1  0  0  0  0
 22 23  1  0  0  0  0
 22 21  2  0  0  0  0
 23 24  2  0  0  0  0
 24 25  1  0  0  0  0
 25 18  1  0  0  0  0
 26 25  2  0  0  0  0
 27 21  1  0  0  0  0
 28 30  1  0  0  0  0
 28 29  1  0  0  0  0
 28 23  1  0  0  0  0
 31 28  1  0  0  0  0
 32 22  1  0  0  0  0
 33 32  1  0  0  0  0
 34 32  1  0  0  0  0
M  END
>  <minimizedAffinity>
-6.00753832

$$$$

 OpenBabel03242518223D

 34 36  0  0  0  0  0  0  0  0999 V2000
   36.8590   29.2740   41.6350 C   0  0  0  0  0  0  0  0  0  0  0  0
   37.3560   28.9940   42.8890 C   0  0  0  0  0  0  0  0  0  0  0  0
   37.6190   27.6420   42.9470 C   0  0  0  0  0  0  0  0  0  0  0  0
   37.2660   27.1530   41.7080 C   0  0  0  0  0  0  0  0  0  0  0  0
   36.8380   28.1340   41.0020 O   0  0  0  0  0  0  0  0  0  0  0  0
   37.4950   29.7530   43.6630 H   0  0  0  0  0  0  0  0  0  0  0  0
   38.0240   27.1380   43.8300 H   0  0  0  0  0  0  0  0  0  0  0  0
   37.3750   25.7550   41.3100 C   0  0  0  0  0  0  0  0  0  0  0  0
   38.3180   24.9360   41.8910 C   0  0  0  0  0  0  0  0  0  0  0  0
   38.4800   23.5930   41.5610 C   0  0  0  0  0  0  0  0  0  0  0  0
   37.5910   23.1480   40.5790 C   0  0  0  0  0  0  0  0  0  0  0  0
   36.6510   23.9380   39.9900 C   0  0  0  0  0  0  0  0  0  0  0  0
   36.5670   25.2290   40.3730 N   0  0  0  0  0  0  0  0  0  0  0  0
   38.9750   25.3640   42.6510 H   0  0  0  0  0  0  0  0  0  0  0  0
   39.2180   22.9790   42.0250 H   0  0  0  0  0  0  0  0  0  0  0  0
   37.6480   22.1110   40.2610 H   0  0  0  0  0  0  0  0  0  0  0  0
   35.9650   23.5900   39.2310 H   0  0  0  0  0  0  0  0  0  0  0  0
   36.4480   30.6350   41.1680 C   0  0  0  0  0  0  0  0  0  0  0  0
   36.4860   31.3310   42.0110 H   0  0  0  0  0  0  0  0  0  0  0  0
   35.3730   30.5960   40.8560 H   0  0  0  0  0  0  0  0  0  0  0  0
   37.6310   31.2870   37.7690 C   0  0  0  0  0  0  0  0  0  0  0  0
   38.8470   31.9430   37.9540 C   0  0  0  0  0  0  0  0  0  0  0  0
   39.2450   32.1510   39.2530 C   0  0  0  0  0  0  0  0  0  0  0  0
   38.4620   31.7250   40.2800 N   0  0  0  0  0  0  0  0  0  0  0  0
   37.3000   31.0990   40.0460 C   0  0  0  0  0  0  0  0  0  0  0  0
   36.8730   30.8740   38.7820 N   0  0  0  0  0  0  0  0  0  0  0  0
   37.2750   31.1000   36.7770 H   0  0  0  0  0  0  0  0  0  0  0  0
   40.5470   32.8540   39.4360 C   0  0  0  0  0  0  0  0  0  0  0  0
   40.8320   32.8740   40.8060 F   0  0  0  0  0  0  0  0  0  0  0  0
   41.5730   32.1340   38.8660 F   0  0  0  0  0  0  0  0  0  0  0  0
   40.5230   34.1590   39.0150 F   0  0  0  0  0  0  0  0  0  0  0  0
   39.5620   32.3340   36.8080 N   0  0  0  0  0  0  0  0  0  0  0  0
   40.1700   31.7500   36.2110 H   0  0  0  0  0  0  0  0  0  0  0  0
   39.4150   33.3570   36.5950 H   0  0  0  0  0  0  0  0  0  0  0  0
  1  2  2  0  0  0  0
  2  3  1  0  0  0  0
  2  6  1  0  0  0  0
  3  7  1  0  0  0  0
  4  3  2  0  0  0  0
  5  1  1  0  0  0  0
  5  4  1  0  0  0  0
  8  4  1  0  0  0  0
  8  9  1  0  0  0  0
  9 14  1  0  0  0  0
 10  9  2  0  0  0  0
 10 15  1  0  0  0  0
 11 10  1  0  0  0  0
 12 13  1  0  0  0  0
 12 11  2  0  0  0  0
 13  8  2  0  0  0  0
 16 11  1  0  0  0  0
 17 12  1  0  0  0  0
 18  1  1  0  0  0  0
 18 19  1  0  0  0  0
 20 18  1  0  0  0  0
 21 22  2  0  0  0  0
 21 26  1  0  0  0  0
 22 23  1  0  0  0  0
 23 28  1  0  0  0  0
 23 24  2  0  0  0  0
 25 24  1  0  0  0  0
 25 18  1  0  0  0  0
 26 25  2  0  0  0  0
 27 21  1  0  0  0  0
 28 29  1  0  0  0  0
 30 28  1  0  0  0  0
 31 28  1  0  0  0  0
 32 22  1  0  0  0  0
 33 32  1  0  0  0  0
 34 32  1  0  0  0  0
M  END
>  <minimizedAffinity>
-5.72917986

$$$$

 OpenBabel03242518223D

 34 36  0  0  0  0  0  0  0  0999 V2000
   37.0280   29.2520   41.7980 C   0  0  0  0  0  0  0  0  0  0  0  0
   37.4680   28.9920   43.0770 C   0  0  0  0  0  0  0  0  0  0  0  0
   37.8840   27.6780   43.1220 C   0  0  0  0  0  0  0  0  0  0  0  0
   37.6750   27.1910   41.8510 C   0  0  0  0  0  0  0  0  0  0  0  0
   37.1830   28.1380   41.1390 O   0  0  0  0  0  0  0  0  0  0  0  0
   37.4660   29.7370   43.8770 H   0  0  0  0  0  0  0  0  0  0  0  0
   38.2850   27.1970   44.0200 H   0  0  0  0  0  0  0  0  0  0  0  0
   37.9730   25.8280   41.4280 C   0  0  0  0  0  0  0  0  0  0  0  0
   37.0080   24.8480   41.5000 C   0  0  0  0  0  0  0  0  0  0  0  0
   37.2210   23.5270   41.1150 C   0  0  0  0  0  0  0  0  0  0  0  0
   38.5150   23.2840   40.6440 C   0  0  0  0  0  0  0  0  0  0  0  0
   39.4860   24.2360   40.5650 C   0  0  0  0  0  0  0  0  0  0  0  0
   39.1890   25.4910   40.9610 N   0  0  0  0  0  0  0  0  0  0  0  0
   36.0220   25.1230   41.8790 H   0  0  0  0  0  0  0  0  0  0  0  0
   36.4570   22.7860   41.1790 H   0  0  0  0  0  0  0  0  0  0  0  0
   38.7680   22.2780   40.3220 H   0  0  0  0  0  0  0  0  0  0  0  0
   40.4860   24.0440   40.2010 H   0  0  0  0  0  0  0  0  0  0  0  0
   36.4930   30.5700   41.3350 C   0  0  0  0  0  0  0  0  0  0  0  0
   36.6710   31.3220   42.1090 H   0  0  0  0  0  0  0  0  0  0  0  0
   35.3790   30.4910   41.2420 H   0  0  0  0  0  0  0  0  0  0  0  0
   38.5790   32.3230   38.8950 C   0  0  0  0  0  0  0  0  0  0  0  0
   38.2370   31.7390   37.6760 C   0  0  0  0  0  0  0  0  0  0  0  0
   37.2880   30.7450   37.7120 C   0  0  0  0  0  0  0  0  0  0  0  0
   36.7340   30.3780   38.8980 N   0  0  0  0  0  0  0  0  0  0  0  0
   37.0980   30.9730   40.0420 C   0  0  0  0  0  0  0  0  0  0  0  0
   38.0290   31.9550   40.0490 N   0  0  0  0  0  0  0  0  0  0  0  0
   39.3130   33.1010   38.9230 H   0  0  0  0  0  0  0  0  0  0  0  0
   36.9320   30.1290   36.4020 C   0  0  0  0  0  0  0  0  0  0  0  0
   35.6730   29.5340   36.5380 F   0  0  0  0  0  0  0  0  0  0  0  0
   36.7700   31.0970   35.4360 F   0  0  0  0  0  0  0  0  0  0  0  0
   37.8000   29.1390   36.0140 F   0  0  0  0  0  0  0  0  0  0  0  0
   38.8840   32.2080   36.5190 N   0  0  0  0  0  0  0  0  0  0  0  0
   38.6660   33.0570   35.9720 H   0  0  0  0  0  0  0  0  0  0  0  0
   39.6730   31.5680   36.2340 H   0  0  0  0  0  0  0  0  0  0  0  0
  1  2  2  0  0  0  0
  2  3  1  0  0  0  0
  2  6  1  0  0  0  0
  3  7  1  0  0  0  0
  4  3  2  0  0  0  0
  5  1  1  0  0  0  0
  5  4  1  0  0  0  0
  8  9  1  0  0  0  0
  8  4  1  0  0  0  0
  9 14  1  0  0  0  0
 10 15  1  0  0  0  0
 10  9  2  0  0  0  0
 11 10  1  0  0  0  0
 12 11  2  0  0  0  0
 12 13  1  0  0  0  0
 13  8  2  0  0  0  0
 16 11  1  0  0  0  0
 17 12  1  0  0  0  0
 18  1  1  0  0  0  0
 18 19  1  0  0  0  0
 20 18  1  0  0  0  0
 21 27  1  0  0  0  0
 21 26  1  0  0  0  0
 22 23  1  0  0  0  0
 22 21  2  0  0  0  0
 23 24  2  0  0  0  0
 24 25  1  0  0  0  0
 25 26  2  0  0  0  0
 25 18  1  0  0  0  0
 28 29  1  0  0  0  0
 28 23  1  0  0  0  0
 30 28  1  0  0  0  0
 31 28  1  0  0  0  0
 32 22  1  0  0  0  0
 33 32  1  0  0  0  0
 34 32  1  0  0  0  0
M  END
>  <minimizedAffinity>
-5.72736549

$$$$

 OpenBabel03242518223D

 34 36  0  0  0  0  0  0  0  0999 V2000
   38.1420   27.4550   42.5830 C   0  0  0  0  0  0  0  0  0  0  0  0
   36.9960   26.7750   42.9360 C   0  0  0  0  0  0  0  0  0  0  0  0
   36.9740   25.5920   42.2300 C   0  0  0  0  0  0  0  0  0  0  0  0
   38.1220   25.6040   41.4690 C   0  0  0  0  0  0  0  0  0  0  0  0
   38.7480   26.6960   41.7140 O   0  0  0  0  0  0  0  0  0  0  0  0
   36.2680   27.1570   43.6560 H   0  0  0  0  0  0  0  0  0  0  0  0
   36.1740   24.8480   42.3130 H   0  0  0  0  0  0  0  0  0  0  0  0
   38.5190   24.5400   40.5550 C   0  0  0  0  0  0  0  0  0  0  0  0
   39.5440   24.7390   39.6560 C   0  0  0  0  0  0  0  0  0  0  0  0
   39.9760   23.7700   38.7540 C   0  0  0  0  0  0  0  0  0  0  0  0
   39.2720   22.5670   38.8450 C   0  0  0  0  0  0  0  0  0  0  0  0
   38.2550   22.3470   39.7250 C   0  0  0  0  0  0  0  0  0  0  0  0
   37.9030   23.3440   40.5620 N   0  0  0  0  0  0  0  0  0  0  0  0
   40.0430   25.7100   39.6500 H   0  0  0  0  0  0  0  0  0  0  0  0
   40.7730   23.9480   38.0670 H   0  0  0  0  0  0  0  0  0  0  0  0
   39.5440   21.7550   38.1780 H   0  0  0  0  0  0  0  0  0  0  0  0
   37.7120   21.4140   39.7930 H   0  0  0  0  0  0  0  0  0  0  0  0
   38.5400   28.7900   43.1300 C   0  0  0  0  0  0  0  0  0  0  0  0
   39.6190   28.7960   43.3120 H   0  0  0  0  0  0  0  0  0  0  0  0
   38.0630   28.9210   44.1350 H   0  0  0  0  0  0  0  0  0  0  0  0
   36.4970   30.8950   40.9460 C   0  0  0  0  0  0  0  0  0  0  0  0
   37.3710   31.8960   40.5260 C   0  0  0  0  0  0  0  0  0  0  0  0
   38.6590   31.8310   41.0020 C   0  0  0  0  0  0  0  0  0  0  0  0
   39.0230   30.8240   41.8420 N   0  0  0  0  0  0  0  0  0  0  0  0
   38.1410   29.8860   42.2140 C   0  0  0  0  0  0  0  0  0  0  0  0
   36.8640   29.9150   41.7670 N   0  0  0  0  0  0  0  0  0  0  0  0
   35.4830   30.8990   40.6030 H   0  0  0  0  0  0  0  0  0  0  0  0
   39.5830   32.9080   40.5460 C   0  0  0  0  0  0  0  0  0  0  0  0
   40.8370   32.6650   41.1180 F   0  0  0  0  0  0  0  0  0  0  0  0
   39.7880   32.8290   39.1860 F   0  0  0  0  0  0  0  0  0  0  0  0
   39.1980   34.1610   40.9480 F   0  0  0  0  0  0  0  0  0  0  0  0
   36.8710   32.8820   39.6560 N   0  0  0  0  0  0  0  0  0  0  0  0
   36.7370   32.8150   38.6340 H   0  0  0  0  0  0  0  0  0  0  0  0
   36.6270   33.7660   40.1780 H   0  0  0  0  0  0  0  0  0  0  0  0
  1  2  2  0  0  0  0
  1 18  1  0  0  0  0
  2  6  1  0  0  0  0
  3  7  1  0  0  0  0
  3  2  1  0  0  0  0
  4  5  1  0  0  0  0
  4  3  2  0  0  0  0
  5  1  1  0  0  0  0
  8 13  1  0  0  0  0
  8  4  1  0  0  0  0
  9  8  2  0  0  0  0
 10 11  2  0  0  0  0
 10  9  1  0  0  0  0
 11 12  1  0  0  0  0
 12 17  1  0  0  0  0
 12 13  2  0  0  0  0
 14  9  1  0  0  0  0
 15 10  1  0  0  0  0
 16 11  1  0  0  0  0
 18 19  1  0  0  0  0
 18 20  1  0  0  0  0
 21 26  1  0  0  0  0
 22 21  2  0  0  0  0
 22 23  1  0  0  0  0
 23 24  2  0  0  0  0
 24 25  1  0  0  0  0
 25 18  1  0  0  0  0
 26 25  2  0  0  0  0
 27 21  1  0  0  0  0
 28 31  1  0  0  0  0
 28 23  1  0  0  0  0
 28 29  1  0  0  0  0
 30 28  1  0  0  0  0
 32 34  1  0  0  0  0
 32 22  1  0  0  0  0
 33 32  1  0  0  0  0
M  END
>  <minimizedAffinity>
-5.65090799

$$$$

 OpenBabel03242518223D

 34 36  0  0  0  0  0  0  0  0999 V2000
   37.3670   31.0720   40.4010 C   0  0  0  0  0  0  0  0  0  0  0  0
   36.9070   31.2770   39.1180 C   0  0  0  0  0  0  0  0  0  0  0  0
   37.8930   31.9380   38.4170 C   0  0  0  0  0  0  0  0  0  0  0  0
   38.9220   32.1080   39.3170 C   0  0  0  0  0  0  0  0  0  0  0  0
   38.5620   31.5920   40.4340 O   0  0  0  0  0  0  0  0  0  0  0  0
   35.9230   30.9500   38.7730 H   0  0  0  0  0  0  0  0  0  0  0  0
   37.8000   32.2320   37.3660 H   0  0  0  0  0  0  0  0  0  0  0  0
   40.1870   32.7660   39.0110 C   0  0  0  0  0  0  0  0  0  0  0  0
   40.7740   32.6080   37.7750 C   0  0  0  0  0  0  0  0  0  0  0  0
   41.9790   33.2050   37.4130 C   0  0  0  0  0  0  0  0  0  0  0  0
   42.5420   33.9880   38.4250 C   0  0  0  0  0  0  0  0  0  0  0  0
   41.9800   34.1580   39.6550 C   0  0  0  0  0  0  0  0  0  0  0  0
   40.8100   33.5400   39.9170 N   0  0  0  0  0  0  0  0  0  0  0  0
   40.2680   31.9800   37.0400 H   0  0  0  0  0  0  0  0  0  0  0  0
   42.4140   33.0690   36.4490 H   0  0  0  0  0  0  0  0  0  0  0  0
   43.4840   34.4910   38.2280 H   0  0  0  0  0  0  0  0  0  0  0  0
   42.4180   34.7640   40.4350 H   0  0  0  0  0  0  0  0  0  0  0  0
   36.5930   30.3850   41.4810 C   0  0  0  0  0  0  0  0  0  0  0  0
   35.5880   30.1560   41.1140 H   0  0  0  0  0  0  0  0  0  0  0  0
   36.4490   31.1020   42.3300 H   0  0  0  0  0  0  0  0  0  0  0  0
   38.9170   28.2010   43.2730 C   0  0  0  0  0  0  0  0  0  0  0  0
   38.5930   26.9210   42.8240 C   0  0  0  0  0  0  0  0  0  0  0  0
   37.5750   26.8280   41.9060 C   0  0  0  0  0  0  0  0  0  0  0  0
   36.9380   27.9520   41.4820 N   0  0  0  0  0  0  0  0  0  0  0  0
   37.2890   29.1600   41.9450 C   0  0  0  0  0  0  0  0  0  0  0  0
   38.2870   29.2940   42.8500 N   0  0  0  0  0  0  0  0  0  0  0  0
   39.7030   28.3290   43.9880 H   0  0  0  0  0  0  0  0  0  0  0  0
   37.2380   25.4540   41.4350 C   0  0  0  0  0  0  0  0  0  0  0  0
   36.5680   24.7980   42.4740 F   0  0  0  0  0  0  0  0  0  0  0  0
   36.3330   25.5030   40.3990 F   0  0  0  0  0  0  0  0  0  0  0  0
   38.3430   24.6980   41.1340 F   0  0  0  0  0  0  0  0  0  0  0  0
   39.3280   25.8390   43.3420 N   0  0  0  0  0  0  0  0  0  0  0  0
   40.2630   25.5130   43.0510 H   0  0  0  0  0  0  0  0  0  0  0  0
   38.7980   25.3500   44.1120 H   0  0  0  0  0  0  0  0  0  0  0  0
  1  5  1  0  0  0  0
  1 18  1  0  0  0  0
  2  1  2  0  0  0  0
  3  2  1  0  0  0  0
  3  4  2  0  0  0  0
  4  5  1  0  0  0  0
  6  2  1  0  0  0  0
  7  3  1  0  0  0  0
  8  4  1  0  0  0  0
  8 13  1  0  0  0  0
  9  8  2  0  0  0  0
 10  9  1  0  0  0  0
 10 11  2  0  0  0  0
 11 12  1  0  0  0  0
 12 13  2  0  0  0  0
 12 17  1  0  0  0  0
 14  9  1  0  0  0  0
 15 10  1  0  0  0  0
 16 11  1  0  0  0  0
 18 25  1  0  0  0  0
 18 20  1  0  0  0  0
 19 18  1  0  0  0  0
 21 27  1  0  0  0  0
 22 21  2  0  0  0  0
 22 32  1  0  0  0  0
 23 22  1  0  0  0  0
 24 23  2  0  0  0  0
 24 25  1  0  0  0  0
 25 26  2  0  0  0  0
 26 21  1  0  0  0  0
 28 23  1  0  0  0  0
 28 29  1  0  0  0  0
 30 28  1  0  0  0  0
 31 28  1  0  0  0  0
 32 34  1  0  0  0  0
 33 32  1  0  0  0  0
M  END
>  <minimizedAffinity>
-5.48853064

$$$$

 OpenBabel03242518223D

 34 36  0  0  0  0  0  0  0  0999 V2000
   36.7330   29.4800   37.8790 C   0  0  0  0  0  0  0  0  0  0  0  0
   35.3720   29.2980   37.7650 C   0  0  0  0  0  0  0  0  0  0  0  0
   35.0560   28.0930   38.3540 C   0  0  0  0  0  0  0  0  0  0  0  0
   36.2540   27.5880   38.8080 C   0  0  0  0  0  0  0  0  0  0  0  0
   37.1770   28.4260   38.5060 O   0  0  0  0  0  0  0  0  0  0  0  0
   34.7090   30.0190   37.2800 H   0  0  0  0  0  0  0  0  0  0  0  0
   34.0380   27.6920   38.4100 H   0  0  0  0  0  0  0  0  0  0  0  0
   36.4040   26.3170   39.5050 C   0  0  0  0  0  0  0  0  0  0  0  0
   36.9450   26.2750   40.7710 C   0  0  0  0  0  0  0  0  0  0  0  0
   37.1180   25.0990   41.4970 C   0  0  0  0  0  0  0  0  0  0  0  0
   36.6900   23.9560   40.8180 C   0  0  0  0  0  0  0  0  0  0  0  0
   36.1530   23.9710   39.5660 C   0  0  0  0  0  0  0  0  0  0  0  0
   36.0230   25.1580   38.9380 N   0  0  0  0  0  0  0  0  0  0  0  0
   37.2540   27.2160   41.2310 H   0  0  0  0  0  0  0  0  0  0  0  0
   37.5390   25.0930   42.4770 H   0  0  0  0  0  0  0  0  0  0  0  0
   36.7880   22.9930   41.3110 H   0  0  0  0  0  0  0  0  0  0  0  0
   35.8220   23.0840   39.0440 H   0  0  0  0  0  0  0  0  0  0  0  0
   37.4790   30.6700   37.3630 C   0  0  0  0  0  0  0  0  0  0  0  0
   36.8530   31.1990   36.6380 H   0  0  0  0  0  0  0  0  0  0  0  0
   38.3700   30.3110   36.7880 H   0  0  0  0  0  0  0  0  0  0  0  0
   37.5180   33.4770   39.7070 C   0  0  0  0  0  0  0  0  0  0  0  0
   38.6350   33.2360   40.5050 C   0  0  0  0  0  0  0  0  0  0  0  0
   39.3630   32.1050   40.2230 C   0  0  0  0  0  0  0  0  0  0  0  0
   38.9800   31.2860   39.2070 N   0  0  0  0  0  0  0  0  0  0  0  0
   37.8960   31.5650   38.4700 C   0  0  0  0  0  0  0  0  0  0  0  0
   37.1520   32.6680   38.7160 N   0  0  0  0  0  0  0  0  0  0  0  0
   36.9160   34.3440   39.8860 H   0  0  0  0  0  0  0  0  0  0  0  0
   40.5560   31.8590   41.0840 C   0  0  0  0  0  0  0  0  0  0  0  0
   41.3210   33.0310   41.0980 F   0  0  0  0  0  0  0  0  0  0  0  0
   40.1780   31.6600   42.3930 F   0  0  0  0  0  0  0  0  0  0  0  0
   41.3680   30.8590   40.6120 F   0  0  0  0  0  0  0  0  0  0  0  0
   38.9250   34.1610   41.5250 N   0  0  0  0  0  0  0  0  0  0  0  0
   39.4040   35.0710   41.4360 H   0  0  0  0  0  0  0  0  0  0  0  0
   38.5860   33.8160   42.4630 H   0  0  0  0  0  0  0  0  0  0  0  0
  1  5  1  0  0  0  0
  2  1  2  0  0  0  0
  2  3  1  0  0  0  0
  3  7  1  0  0  0  0
  3  4  2  0  0  0  0
  4  8  1  0  0  0  0
  5  4  1  0  0  0  0
  6  2  1  0  0  0  0
  8  9  1  0  0  0  0
  9 14  1  0  0  0  0
  9 10  2  0  0  0  0
 10 15  1  0  0  0  0
 11 16  1  0  0  0  0
 11 10  1  0  0  0  0
 12 11  2  0  0  0  0
 13  8  2  0  0  0  0
 13 12  1  0  0  0  0
 17 12  1  0  0  0  0
 18  1  1  0  0  0  0
 18 25  1  0  0  0  0
 19 18  1  0  0  0  0
 20 18  1  0  0  0  0
 21 27  1  0  0  0  0
 21 22  1  0  0  0  0
 22 32  1  0  0  0  0
 23 22  2  0  0  0  0
 23 28  1  0  0  0  0
 24 23  1  0  0  0  0
 25 26  1  0  0  0  0
 25 24  2  0  0  0  0
 26 21  2  0  0  0  0
 28 29  1  0  0  0  0
 28 30  1  0  0  0  0
 31 28  1  0  0  0  0
 32 34  1  0  0  0  0
 33 32  1  0  0  0  0
M  END
>  <minimizedAffinity>
-5.42427444

$$$$

 OpenBabel03242518223D

 34 36  0  0  0  0  0  0  0  0999 V2000
   36.6210   28.1300   39.7500 C   0  0  0  0  0  0  0  0  0  0  0  0
   35.4390   28.6440   40.2360 C   0  0  0  0  0  0  0  0  0  0  0  0
   35.6340   29.9850   40.4890 C   0  0  0  0  0  0  0  0  0  0  0  0
   36.9440   30.2310   40.1410 C   0  0  0  0  0  0  0  0  0  0  0  0
   37.4570   29.1310   39.7260 O   0  0  0  0  0  0  0  0  0  0  0  0
   34.5360   28.0450   40.3760 H   0  0  0  0  0  0  0  0  0  0  0  0
   34.8580   30.6490   40.8850 H   0  0  0  0  0  0  0  0  0  0  0  0
   37.5960   31.5300   40.2420 C   0  0  0  0  0  0  0  0  0  0  0  0
   37.0610   32.6310   39.6090 C   0  0  0  0  0  0  0  0  0  0  0  0
   37.6290   33.9010   39.6620 C   0  0  0  0  0  0  0  0  0  0  0  0
   38.7990   33.9600   40.4230 C   0  0  0  0  0  0  0  0  0  0  0  0
   39.3470   32.8860   41.0580 C   0  0  0  0  0  0  0  0  0  0  0  0
   38.7280   31.6930   40.9510 N   0  0  0  0  0  0  0  0  0  0  0  0
   36.1430   32.4990   39.0340 H   0  0  0  0  0  0  0  0  0  0  0  0
   37.1950   34.7380   39.1630 H   0  0  0  0  0  0  0  0  0  0  0  0
   39.3080   34.9140   40.5180 H   0  0  0  0  0  0  0  0  0  0  0  0
   40.2530   32.9350   41.6460 H   0  0  0  0  0  0  0  0  0  0  0  0
   36.8280   26.7030   39.3530 C   0  0  0  0  0  0  0  0  0  0  0  0
   37.3290   26.6690   38.3810 H   0  0  0  0  0  0  0  0  0  0  0  0
   35.8260   26.2280   39.1930 H   0  0  0  0  0  0  0  0  0  0  0  0
   37.6800   24.2540   41.9330 C   0  0  0  0  0  0  0  0  0  0  0  0
   38.9890   24.5770   42.2870 C   0  0  0  0  0  0  0  0  0  0  0  0
   39.5620   25.6390   41.6300 C   0  0  0  0  0  0  0  0  0  0  0  0
   38.8550   26.3160   40.6850 N   0  0  0  0  0  0  0  0  0  0  0  0
   37.5980   25.9640   40.3830 C   0  0  0  0  0  0  0  0  0  0  0  0
   36.9980   24.9240   41.0070 N   0  0  0  0  0  0  0  0  0  0  0  0
   37.1880   23.4350   42.4140 H   0  0  0  0  0  0  0  0  0  0  0  0
   40.9620   25.9740   42.0180 C   0  0  0  0  0  0  0  0  0  0  0  0
   41.3920   27.0260   41.2010 F   0  0  0  0  0  0  0  0  0  0  0  0
   41.0060   26.4740   43.3000 F   0  0  0  0  0  0  0  0  0  0  0  0
   41.8410   24.9380   41.8270 F   0  0  0  0  0  0  0  0  0  0  0  0
   39.6120   23.7980   43.2790 N   0  0  0  0  0  0  0  0  0  0  0  0
   39.5040   23.8730   44.3030 H   0  0  0  0  0  0  0  0  0  0  0  0
   40.2520   23.0750   42.8530 H   0  0  0  0  0  0  0  0  0  0  0  0
  1  2  2  0  0  0  0
  2  6  1  0  0  0  0
  2  3  1  0  0  0  0
  3  7  1  0  0  0  0
  4  8  1  0  0  0  0
  4  3  2  0  0  0  0
  5  1  1  0  0  0  0
  5  4  1  0  0  0  0
  8 13  1  0  0  0  0
  9 10  1  0  0  0  0
  9  8  2  0  0  0  0
 10 11  2  0  0  0  0
 11 16  1  0  0  0  0
 11 12  1  0  0  0  0
 12 17  1  0  0  0  0
 13 12  2  0  0  0  0
 14  9  1  0  0  0  0
 15 10  1  0  0  0  0
 18  1  1  0  0  0  0
 18 25  1  0  0  0  0
 19 18  1  0  0  0  0
 20 18  1  0  0  0  0
 21 22  1  0  0  0  0
 21 27  1  0  0  0  0
 22 32  1  0  0  0  0
 23 28  1  0  0  0  0
 23 22  2  0  0  0  0
 24 23  1  0  0  0  0
 25 24  2  0  0  0  0
 25 26  1  0  0  0  0
 26 21  2  0  0  0  0
 28 30  1  0  0  0  0
 29 28  1  0  0  0  0
 31 28  1  0  0  0  0
 32 33  1  0  0  0  0
 34 32  1  0  0  0  0
M  END
>  <minimizedAffinity>
-5.34718657

$$$$

 OpenBabel03242518223D

 34 36  0  0  0  0  0  0  0  0999 V2000
   37.9970   29.7730   37.8670 C   0  0  0  0  0  0  0  0  0  0  0  0
   37.2860   30.7540   37.2110 C   0  0  0  0  0  0  0  0  0  0  0  0
   38.0570   31.8960   37.1970 C   0  0  0  0  0  0  0  0  0  0  0  0
   39.2180   31.5550   37.8540 C   0  0  0  0  0  0  0  0  0  0  0  0
   39.1250   30.3280   38.2140 O   0  0  0  0  0  0  0  0  0  0  0  0
   36.2880   30.5950   36.7950 H   0  0  0  0  0  0  0  0  0  0  0  0
   37.7390   32.8390   36.7390 H   0  0  0  0  0  0  0  0  0  0  0  0
   40.3370   32.4630   38.0800 C   0  0  0  0  0  0  0  0  0  0  0  0
   40.3660   33.2700   39.1960 C   0  0  0  0  0  0  0  0  0  0  0  0
   41.3990   34.1590   39.4770 C   0  0  0  0  0  0  0  0  0  0  0  0
   42.4140   34.1580   38.5160 C   0  0  0  0  0  0  0  0  0  0  0  0
   42.4080   33.3700   37.4050 C   0  0  0  0  0  0  0  0  0  0  0  0
   41.3640   32.5380   37.2150 N   0  0  0  0  0  0  0  0  0  0  0  0
   39.5320   33.2090   39.8980 H   0  0  0  0  0  0  0  0  0  0  0  0
   41.3990   34.7740   40.3490 H   0  0  0  0  0  0  0  0  0  0  0  0
   43.2610   34.8240   38.6570 H   0  0  0  0  0  0  0  0  0  0  0  0
   43.1950   33.3720   36.6640 H   0  0  0  0  0  0  0  0  0  0  0  0
   37.5080   28.3770   38.0970 C   0  0  0  0  0  0  0  0  0  0  0  0
   38.2500   27.6700   37.7150 H   0  0  0  0  0  0  0  0  0  0  0  0
   36.5880   28.2150   37.4780 H   0  0  0  0  0  0  0  0  0  0  0  0
   36.2620   28.8700   41.5000 C   0  0  0  0  0  0  0  0  0  0  0  0
   36.6750   27.7250   42.1810 C   0  0  0  0  0  0  0  0  0  0  0  0
   37.3810   26.7970   41.4550 C   0  0  0  0  0  0  0  0  0  0  0  0
   37.6430   27.0190   40.1380 N   0  0  0  0  0  0  0  0  0  0  0  0
   37.2220   28.1370   39.5320 C   0  0  0  0  0  0  0  0  0  0  0  0
   36.5240   29.0760   40.2120 N   0  0  0  0  0  0  0  0  0  0  0  0
   35.7090   29.6250   42.0190 H   0  0  0  0  0  0  0  0  0  0  0  0
   37.8170   25.5770   42.1940 C   0  0  0  0  0  0  0  0  0  0  0  0
   36.6690   24.9270   42.6600 F   0  0  0  0  0  0  0  0  0  0  0  0
   38.4180   24.6790   41.3410 F   0  0  0  0  0  0  0  0  0  0  0  0
   38.5890   25.8570   43.2930 F   0  0  0  0  0  0  0  0  0  0  0  0
   36.3400   27.6150   43.5420 N   0  0  0  0  0  0  0  0  0  0  0  0
   36.8150   28.0520   44.3480 H   0  0  0  0  0  0  0  0  0  0  0  0
   35.4960   26.9970   43.6800 H   0  0  0  0  0  0  0  0  0  0  0  0
  1 18  1  0  0  0  0
  1  5  1  0  0  0  0
  2  1  2  0  0  0  0
  3  2  1  0  0  0  0
  3  4  2  0  0  0  0
  4  8  1  0  0  0  0
  4  5  1  0  0  0  0
  6  2  1  0  0  0  0
  7  3  1  0  0  0  0
  8  9  1  0  0  0  0
  9 10  2  0  0  0  0
  9 14  1  0  0  0  0
 10 15  1  0  0  0  0
 11 16  1  0  0  0  0
 11 10  1  0  0  0  0
 12 11  2  0  0  0  0
 13 12  1  0  0  0  0
 13  8  2  0  0  0  0
 17 12  1  0  0  0  0
 18 25  1  0  0  0  0
 19 18  1  0  0  0  0
 20 18  1  0  0  0  0
 21 27  1  0  0  0  0
 21 22  1  0  0  0  0
 22 32  1  0  0  0  0
 23 22  2  0  0  0  0
 23 28  1  0  0  0  0
 24 23  1  0  0  0  0
 25 24  2  0  0  0  0
 25 26  1  0  0  0  0
 26 21  2  0  0  0  0
 28 29  1  0  0  0  0
 28 31  1  0  0  0  0
 30 28  1  0  0  0  0
 32 34  1  0  0  0  0
 32 33  1  0  0  0  0
M  END
>  <minimizedAffinity>
-5.29410696

$$$$

 OpenBabel03242518223D

 34 36  0  0  0  0  0  0  0  0999 V2000
   37.2650   31.6750   40.6330 C   0  0  0  0  0  0  0  0  0  0  0  0
   37.2890   32.6840   39.6940 C   0  0  0  0  0  0  0  0  0  0  0  0
   38.5650   33.2040   39.6650 C   0  0  0  0  0  0  0  0  0  0  0  0
   39.2710   32.4790   40.5990 C   0  0  0  0  0  0  0  0  0  0  0  0
   38.4740   31.6200   41.1200 O   0  0  0  0  0  0  0  0  0  0  0  0
   36.4160   32.9760   39.1050 H   0  0  0  0  0  0  0  0  0  0  0  0
   38.8730   34.0230   39.0060 H   0  0  0  0  0  0  0  0  0  0  0  0
   40.6800   32.6850   40.9120 C   0  0  0  0  0  0  0  0  0  0  0  0
   41.3800   33.7190   40.3310 C   0  0  0  0  0  0  0  0  0  0  0  0
   42.7250   33.9760   40.5820 C   0  0  0  0  0  0  0  0  0  0  0  0
   43.3050   33.0820   41.4860 C   0  0  0  0  0  0  0  0  0  0  0  0
   42.6340   32.0510   42.0730 C   0  0  0  0  0  0  0  0  0  0  0  0
   41.3320   31.8790   41.7690 N   0  0  0  0  0  0  0  0  0  0  0  0
   40.8500   34.3730   39.6350 H   0  0  0  0  0  0  0  0  0  0  0  0
   43.2450   34.7840   40.1200 H   0  0  0  0  0  0  0  0  0  0  0  0
   44.3540   33.2090   41.7390 H   0  0  0  0  0  0  0  0  0  0  0  0
   43.0870   31.3610   42.7710 H   0  0  0  0  0  0  0  0  0  0  0  0
   36.0600   30.8550   40.9700 C   0  0  0  0  0  0  0  0  0  0  0  0
   35.2000   31.2340   40.4090 H   0  0  0  0  0  0  0  0  0  0  0  0
   35.8100   31.0140   42.0500 H   0  0  0  0  0  0  0  0  0  0  0  0
   36.2310   27.6630   39.1930 C   0  0  0  0  0  0  0  0  0  0  0  0
   36.7150   26.7690   40.1480 C   0  0  0  0  0  0  0  0  0  0  0  0
   36.9750   27.2820   41.3970 C   0  0  0  0  0  0  0  0  0  0  0  0
   36.7600   28.6010   41.6490 N   0  0  0  0  0  0  0  0  0  0  0  0
   36.2940   29.4170   40.6940 C   0  0  0  0  0  0  0  0  0  0  0  0
   36.0250   28.9510   39.4520 N   0  0  0  0  0  0  0  0  0  0  0  0
   36.0130   27.3150   38.2050 H   0  0  0  0  0  0  0  0  0  0  0  0
   37.4910   26.3160   42.4090 C   0  0  0  0  0  0  0  0  0  0  0  0
   37.6880   27.0140   43.6050 F   0  0  0  0  0  0  0  0  0  0  0  0
   36.5420   25.3630   42.7010 F   0  0  0  0  0  0  0  0  0  0  0  0
   38.7000   25.7650   42.0660 F   0  0  0  0  0  0  0  0  0  0  0  0
   36.8950   25.4290   39.7620 N   0  0  0  0  0  0  0  0  0  0  0  0
   36.1780   24.6900   39.6900 H   0  0  0  0  0  0  0  0  0  0  0  0
   37.9060   25.2280   39.5360 H   0  0  0  0  0  0  0  0  0  0  0  0
  1 18  1  0  0  0  0
  1  5  1  0  0  0  0
  2  1  2  0  0  0  0
  3  2  1  0  0  0  0
  3  4  2  0  0  0  0
  4  8  1  0  0  0  0
  4  5  1  0  0  0  0
  6  2  1  0  0  0  0
  7  3  1  0  0  0  0
  8 13  1  0  0  0  0
  9 10  1  0  0  0  0
  9  8  2  0  0  0  0
 10 11  2  0  0  0  0
 11 16  1  0  0  0  0
 11 12  1  0  0  0  0
 12 17  1  0  0  0  0
 13 12  2  0  0  0  0
 14  9  1  0  0  0  0
 15 10  1  0  0  0  0
 18 20  1  0  0  0  0
 19 18  1  0  0  0  0
 21 26  2  0  0  0  0
 21 22  1  0  0  0  0
 22 23  2  0  0  0  0
 23 24  1  0  0  0  0
 23 28  1  0  0  0  0
 25 18  1  0  0  0  0
 25 24  2  0  0  0  0
 26 25  1  0  0  0  0
 27 21  1  0  0  0  0
 28 30  1  0  0  0  0
 28 29  1  0  0  0  0
 31 28  1  0  0  0  0
 32 22  1  0  0  0  0
 33 32  1  0  0  0  0
 34 32  1  0  0  0  0
M  END
>  <minimizedAffinity>
-5.27344894

$$$$
