
 OpenBabel03252505473D

 23 24  0  0  1  0  0  0  0  0999 V2000
   37.2350   26.8050   42.3000 C   0  0  0  0  0  0  0  0  0  0  0  0
   38.0520   27.4690   43.2620 C   0  0  0  0  0  0  0  0  0  0  0  0
   38.1080   28.8570   43.3070 C   0  0  0  0  0  0  0  0  0  0  0  0
   37.3430   29.5150   42.3850 N   0  0  0  0  0  0  0  0  0  0  0  0
   36.5810   28.8560   41.4870 C   0  0  0  0  0  0  0  0  0  0  0  0
   36.5290   27.5320   41.4470 N   0  0  0  0  0  0  0  0  0  0  0  0
   38.6350   26.8750   43.9650 H   0  0  0  0  0  0  0  0  0  0  0  0
   38.7270   29.3550   44.0370 H   0  0  0  0  0  0  0  0  0  0  0  0
   37.2240   25.3330   42.2880 C   0  0  1  0  0  0  0  0  0  0  0  0
   37.8410   24.7620   40.9710 C   0  0  1  0  0  0  0  0  0  0  0  0
   38.3960   24.5170   42.3440 C   0  0  0  0  0  0  0  0  0  0  0  0
   36.2300   24.9130   42.5460 H   0  0  0  0  0  0  0  0  0  0  0  0
   38.3520   25.4540   40.3000 H   0  0  0  0  0  0  0  0  0  0  0  0
   38.3910   23.4950   42.7250 H   0  0  0  0  0  0  0  0  0  0  0  0
   39.3750   25.0450   42.5310 H   0  0  0  0  0  0  0  0  0  0  0  0
   37.0570   23.6080   40.3920 C   0  0  0  0  0  0  0  0  0  0  0  0
   35.7080   23.7160   40.6430 F   0  0  0  0  0  0  0  0  0  0  0  0
   37.2270   23.6190   38.9980 F   0  0  0  0  0  0  0  0  0  0  0  0
   37.5610   22.4040   40.8260 F   0  0  0  0  0  0  0  0  0  0  0  0
   35.8140   29.7170   40.5580 C   0  0  0  0  0  0  0  0  0  0  0  0
   35.7890   30.9830   41.0870 F   0  0  0  0  0  0  0  0  0  0  0  0
   34.5240   29.2500   40.4470 F   0  0  0  0  0  0  0  0  0  0  0  0
   36.4070   29.8030   39.3080 F   0  0  0  0  0  0  0  0  0  0  0  0
  1  2  1  0  0  0  0
  2  3  2  0  0  0  0
  2  7  1  0  0  0  0
  3  8  1  0  0  0  0
  4  3  1  0  0  0  0
  5  4  2  0  0  0  0
  6  5  1  0  0  0  0
  6  1  2  0  0  0  0
  9  1  1  0  0  0  0
  9 11  1  0  0  0  0
  9 12  1  1  0  0  0
 10 13  1  6  0  0  0
 10  9  1  0  0  0  0
 10 11  1  0  0  0  0
 11 15  1  0  0  0  0
 11 14  1  0  0  0  0
 16 17  1  0  0  0  0
 16 19  1  0  0  0  0
 16 10  1  0  0  0  0
 18 16  1  0  0  0  0
 20 21  1  0  0  0  0
 20  5  1  0  0  0  0
 22 20  1  0  0  0  0
 23 20  1  0  0  0  0
M  END
>  <minimizedAffinity>
-4.95632553

$$$$

 OpenBabel03252505473D

 23 24  0  0  1  0  0  0  0  0999 V2000
   36.7180   29.9540   40.0180 C   0  0  0  0  0  0  0  0  0  0  0  0
   36.4050   28.9650   39.0410 C   0  0  0  0  0  0  0  0  0  0  0  0
   36.3550   27.6190   39.3840 C   0  0  0  0  0  0  0  0  0  0  0  0
   36.6230   27.3280   40.6930 N   0  0  0  0  0  0  0  0  0  0  0  0
   36.9180   28.2890   41.5930 C   0  0  0  0  0  0  0  0  0  0  0  0
   36.9640   29.5710   41.2630 N   0  0  0  0  0  0  0  0  0  0  0  0
   36.2030   29.2760   38.0160 H   0  0  0  0  0  0  0  0  0  0  0  0
   36.1170   26.8740   38.6410 H   0  0  0  0  0  0  0  0  0  0  0  0
   36.7700   31.3630   39.5970 C   0  0  1  0  0  0  0  0  0  0  0  0
   38.2410   31.8740   39.4670 C   0  0  1  0  0  0  0  0  0  0  0  0
   37.2640   31.8090   38.3310 C   0  0  0  0  0  0  0  0  0  0  0  0
   36.1130   32.0160   40.2090 H   0  0  0  0  0  0  0  0  0  0  0  0
   39.0470   31.1400   39.5250 H   0  0  0  0  0  0  0  0  0  0  0  0
   36.9520   32.7460   37.8680 H   0  0  0  0  0  0  0  0  0  0  0  0
   37.5110   31.0120   37.5720 H   0  0  0  0  0  0  0  0  0  0  0  0
   38.4510   33.2540   40.0430 C   0  0  0  0  0  0  0  0  0  0  0  0
   38.7180   33.2210   41.3930 F   0  0  0  0  0  0  0  0  0  0  0  0
   39.5640   33.8290   39.4090 F   0  0  0  0  0  0  0  0  0  0  0  0
   37.3840   34.0740   39.7540 F   0  0  0  0  0  0  0  0  0  0  0  0
   37.1840   27.8050   42.9680 C   0  0  0  0  0  0  0  0  0  0  0  0
   37.7350   28.8440   43.6750 F   0  0  0  0  0  0  0  0  0  0  0  0
   38.0780   26.7610   42.9310 F   0  0  0  0  0  0  0  0  0  0  0  0
   36.0240   27.4260   43.6270 F   0  0  0  0  0  0  0  0  0  0  0  0
  1  6  1  0  0  0  0
  2  3  1  0  0  0  0
  2  1  2  0  0  0  0
  3  4  2  0  0  0  0
  4  5  1  0  0  0  0
  5 20  1  0  0  0  0
  6  5  2  0  0  0  0
  7  2  1  0  0  0  0
  8  3  1  0  0  0  0
  9  1  1  0  0  0  0
  9 12  1  1  0  0  0
 10 13  1  1  0  0  0
 10  9  1  0  0  0  0
 10 16  1  0  0  0  0
 11 10  1  0  0  0  0
 11  9  1  0  0  0  0
 14 11  1  0  0  0  0
 15 11  1  0  0  0  0
 16 17  1  0  0  0  0
 18 16  1  0  0  0  0
 19 16  1  0  0  0  0
 20 23  1  0  0  0  0
 20 21  1  0  0  0  0
 22 20  1  0  0  0  0
M  END
>  <minimizedAffinity>
-4.9103713

$$$$

 OpenBabel03252505473D

 23 24  0  0  1  0  0  0  0  0999 V2000
   38.4940   29.8830   42.2860 C   0  0  0  0  0  0  0  0  0  0  0  0
   39.7840   30.4230   42.5620 C   0  0  0  0  0  0  0  0  0  0  0  0
   40.2550   31.5280   41.8630 C   0  0  0  0  0  0  0  0  0  0  0  0
   39.4090   32.0400   40.9190 N   0  0  0  0  0  0  0  0  0  0  0  0
   38.1930   31.5040   40.6820 C   0  0  0  0  0  0  0  0  0  0  0  0
   37.7470   30.4510   41.3510 N   0  0  0  0  0  0  0  0  0  0  0  0
   40.4020   29.9580   43.3300 H   0  0  0  0  0  0  0  0  0  0  0  0
   41.2320   31.9320   42.0750 H   0  0  0  0  0  0  0  0  0  0  0  0
   38.0510   28.7030   43.0480 C   0  0  1  0  0  0  0  0  0  0  0  0
   38.3290   27.3770   42.2710 C   0  0  1  0  0  0  0  0  0  0  0  0
   38.9320   27.7230   43.6000 C   0  0  0  0  0  0  0  0  0  0  0  0
   37.0110   28.8030   43.4210 H   0  0  0  0  0  0  0  0  0  0  0  0
   38.9460   27.4270   41.3710 H   0  0  0  0  0  0  0  0  0  0  0  0
   38.6690   27.1050   44.4600 H   0  0  0  0  0  0  0  0  0  0  0  0
   40.0370   27.9440   43.5470 H   0  0  0  0  0  0  0  0  0  0  0  0
   37.1840   26.3930   42.3320 C   0  0  0  0  0  0  0  0  0  0  0  0
   36.2580   26.7310   43.2920 F   0  0  0  0  0  0  0  0  0  0  0  0
   36.5280   26.4070   41.0910 F   0  0  0  0  0  0  0  0  0  0  0  0
   37.6500   25.1090   42.5020 F   0  0  0  0  0  0  0  0  0  0  0  0
   37.4020   32.1780   39.6270 C   0  0  0  0  0  0  0  0  0  0  0  0
   36.2130   31.5030   39.5040 F   0  0  0  0  0  0  0  0  0  0  0  0
   38.0770   32.1210   38.4290 F   0  0  0  0  0  0  0  0  0  0  0  0
   37.1000   33.4920   39.9510 F   0  0  0  0  0  0  0  0  0  0  0  0
  1  2  1  0  0  0  0
  1  9  1  0  0  0  0
  2  7  1  0  0  0  0
  3  8  1  0  0  0  0
  3  2  2  0  0  0  0
  4  3  1  0  0  0  0
  5  4  2  0  0  0  0
  5  6  1  0  0  0  0
  6  1  2  0  0  0  0
  9 12  1  1  0  0  0
  9 11  1  0  0  0  0
 10 13  1  6  0  0  0
 10 16  1  0  0  0  0
 10  9  1  0  0  0  0
 10 11  1  0  0  0  0
 11 14  1  0  0  0  0
 15 11  1  0  0  0  0
 16 19  1  0  0  0  0
 16 17  1  0  0  0  0
 18 16  1  0  0  0  0
 20 23  1  0  0  0  0
 20  5  1  0  0  0  0
 21 20  1  0  0  0  0
 22 20  1  0  0  0  0
M  END
>  <minimizedAffinity>
-4.88974571

$$$$

 OpenBabel03252505473D

 23 24  0  0  1  0  0  0  0  0999 V2000
   36.8430   28.2060   41.9090 C   0  0  0  0  0  0  0  0  0  0  0  0
   37.3380   29.5120   42.1920 C   0  0  0  0  0  0  0  0  0  0  0  0
   36.9560   30.5990   41.4140 C   0  0  0  0  0  0  0  0  0  0  0  0
   36.0940   30.3240   40.3890 N   0  0  0  0  0  0  0  0  0  0  0  0
   35.6450   29.0750   40.1480 C   0  0  0  0  0  0  0  0  0  0  0  0
   36.0110   28.0400   40.8920 N   0  0  0  0  0  0  0  0  0  0  0  0
   38.0230   29.6520   43.0280 H   0  0  0  0  0  0  0  0  0  0  0  0
   37.3330   31.5860   41.6320 H   0  0  0  0  0  0  0  0  0  0  0  0
   37.2920   27.0880   42.7570 C   0  0  1  0  0  0  0  0  0  0  0  0
   38.3540   26.2030   42.0310 C   0  0  1  0  0  0  0  0  0  0  0  0
   38.6090   26.9650   43.2980 C   0  0  0  0  0  0  0  0  0  0  0  0
   36.4450   26.5190   43.1940 H   0  0  0  0  0  0  0  0  0  0  0  0
   38.7720   26.5680   41.0910 H   0  0  0  0  0  0  0  0  0  0  0  0
   38.8290   26.3970   44.2030 H   0  0  0  0  0  0  0  0  0  0  0  0
   39.3000   27.8460   43.1600 H   0  0  0  0  0  0  0  0  0  0  0  0
   38.1310   24.7210   42.2180 C   0  0  0  0  0  0  0  0  0  0  0  0
   36.8040   24.4150   42.4190 F   0  0  0  0  0  0  0  0  0  0  0  0
   38.5410   24.0640   41.0470 F   0  0  0  0  0  0  0  0  0  0  0  0
   38.9260   24.2280   43.2270 F   0  0  0  0  0  0  0  0  0  0  0  0
   34.7190   28.9480   38.9990 C   0  0  0  0  0  0  0  0  0  0  0  0
   34.7930   27.6540   38.5450 F   0  0  0  0  0  0  0  0  0  0  0  0
   35.1050   29.8020   37.9920 F   0  0  0  0  0  0  0  0  0  0  0  0
   33.4000   29.1850   39.3570 F   0  0  0  0  0  0  0  0  0  0  0  0
  1  2  1  0  0  0  0
  1  9  1  0  0  0  0
  2  7  1  0  0  0  0
  3  8  1  0  0  0  0
  3  2  2  0  0  0  0
  4  3  1  0  0  0  0
  5  4  2  0  0  0  0
  5  6  1  0  0  0  0
  6  1  2  0  0  0  0
  9 12  1  1  0  0  0
  9 11  1  0  0  0  0
 10 13  1  6  0  0  0
 10 16  1  0  0  0  0
 10  9  1  0  0  0  0
 10 11  1  0  0  0  0
 11 14  1  0  0  0  0
 15 11  1  0  0  0  0
 16 17  1  0  0  0  0
 16 19  1  0  0  0  0
 18 16  1  0  0  0  0
 20 23  1  0  0  0  0
 20  5  1  0  0  0  0
 21 20  1  0  0  0  0
 22 20  1  0  0  0  0
M  END
>  <minimizedAffinity>
-4.84781647

$$$$

 OpenBabel03252505473D

 23 24  0  0  1  0  0  0  0  0999 V2000
   36.9500   28.6520   41.7960 C   0  0  0  0  0  0  0  0  0  0  0  0
   35.8000   28.9320   41.0020 C   0  0  0  0  0  0  0  0  0  0  0  0
   35.7000   30.1220   40.2920 C   0  0  0  0  0  0  0  0  0  0  0  0
   36.7610   30.9770   40.4110 N   0  0  0  0  0  0  0  0  0  0  0  0
   37.8350   30.6820   41.1710 C   0  0  0  0  0  0  0  0  0  0  0  0
   37.9270   29.5460   41.8470 N   0  0  0  0  0  0  0  0  0  0  0  0
   34.9940   28.1990   40.9580 H   0  0  0  0  0  0  0  0  0  0  0  0
   34.8270   30.3290   39.6920 H   0  0  0  0  0  0  0  0  0  0  0  0
   36.9970   27.3820   42.5390 C   0  0  1  0  0  0  0  0  0  0  0  0
   37.8330   26.3010   41.7820 C   0  0  1  0  0  0  0  0  0  0  0  0
   38.1770   26.8420   43.1390 C   0  0  0  0  0  0  0  0  0  0  0  0
   35.9910   27.0390   42.8590 H   0  0  0  0  0  0  0  0  0  0  0  0
   38.4170   26.6150   40.9150 H   0  0  0  0  0  0  0  0  0  0  0  0
   38.1510   26.1560   43.9870 H   0  0  0  0  0  0  0  0  0  0  0  0
   39.0930   27.4990   43.1410 H   0  0  0  0  0  0  0  0  0  0  0  0
   37.1940   24.9320   41.7910 C   0  0  0  0  0  0  0  0  0  0  0  0
   36.2830   24.7890   42.8130 F   0  0  0  0  0  0  0  0  0  0  0  0
   36.4990   24.7660   40.5820 F   0  0  0  0  0  0  0  0  0  0  0  0
   38.1510   23.9430   41.8170 F   0  0  0  0  0  0  0  0  0  0  0  0
   38.8960   31.7160   41.1930 C   0  0  0  0  0  0  0  0  0  0  0  0
   39.7020   31.5080   40.1020 F   0  0  0  0  0  0  0  0  0  0  0  0
   39.6470   31.5890   42.3390 F   0  0  0  0  0  0  0  0  0  0  0  0
   38.3830   33.0000   41.0890 F   0  0  0  0  0  0  0  0  0  0  0  0
  1  6  1  0  0  0  0
  1  9  1  0  0  0  0
  2  1  2  0  0  0  0
  3  4  2  0  0  0  0
  3  2  1  0  0  0  0
  4  5  1  0  0  0  0
  5 20  1  0  0  0  0
  5  6  2  0  0  0  0
  7  2  1  0  0  0  0
  8  3  1  0  0  0  0
  9 12  1  1  0  0  0
  9 11  1  0  0  0  0
 10 13  1  6  0  0  0
 10 16  1  0  0  0  0
 10  9  1  0  0  0  0
 10 11  1  0  0  0  0
 11 15  1  0  0  0  0
 11 14  1  0  0  0  0
 16 19  1  0  0  0  0
 16 17  1  0  0  0  0
 18 16  1  0  0  0  0
 20 22  1  0  0  0  0
 21 20  1  0  0  0  0
 23 20  1  0  0  0  0
M  END
>  <minimizedAffinity>
-4.81165838

$$$$

 OpenBabel03252505473D

 23 24  0  0  1  0  0  0  0  0999 V2000
   37.6290   29.5090   39.7590 C   0  0  0  0  0  0  0  0  0  0  0  0
   37.0910   29.4240   38.4420 C   0  0  0  0  0  0  0  0  0  0  0  0
   36.9330   30.5650   37.6650 C   0  0  0  0  0  0  0  0  0  0  0  0
   37.3230   31.7400   38.2460 N   0  0  0  0  0  0  0  0  0  0  0  0
   37.8290   31.7860   39.4960 C   0  0  0  0  0  0  0  0  0  0  0  0
   37.9790   30.6950   40.2340 N   0  0  0  0  0  0  0  0  0  0  0  0
   36.8020   28.4500   38.0470 H   0  0  0  0  0  0  0  0  0  0  0  0
   36.5250   30.4960   36.6690 H   0  0  0  0  0  0  0  0  0  0  0  0
   37.7620   28.2690   40.5420 C   0  0  1  0  0  0  0  0  0  0  0  0
   36.5630   28.0770   41.5260 C   0  0  1  0  0  0  0  0  0  0  0  0
   36.9020   27.1350   40.4080 C   0  0  0  0  0  0  0  0  0  0  0  0
   38.7600   28.1690   41.0160 H   0  0  0  0  0  0  0  0  0  0  0  0
   35.7030   28.7420   41.4250 H   0  0  0  0  0  0  0  0  0  0  0  0
   37.2110   26.1210   40.6680 H   0  0  0  0  0  0  0  0  0  0  0  0
   36.1580   27.1580   39.5610 H   0  0  0  0  0  0  0  0  0  0  0  0
   36.9820   27.6070   42.8990 C   0  0  0  0  0  0  0  0  0  0  0  0
   37.7660   28.5320   43.5500 F   0  0  0  0  0  0  0  0  0  0  0  0
   35.8240   27.4200   43.6700 F   0  0  0  0  0  0  0  0  0  0  0  0
   37.5950   26.3760   42.8300 F   0  0  0  0  0  0  0  0  0  0  0  0
   38.2010   33.1360   39.9770 C   0  0  0  0  0  0  0  0  0  0  0  0
   39.3530   33.5060   39.3290 F   0  0  0  0  0  0  0  0  0  0  0  0
   38.4390   33.1000   41.3320 F   0  0  0  0  0  0  0  0  0  0  0  0
   37.2360   34.0860   39.6800 F   0  0  0  0  0  0  0  0  0  0  0  0
  1  6  1  0  0  0  0
  1  9  1  0  0  0  0
  2  1  2  0  0  0  0
  3  4  2  0  0  0  0
  3  2  1  0  0  0  0
  4  5  1  0  0  0  0
  5 20  1  0  0  0  0
  5  6  2  0  0  0  0
  7  2  1  0  0  0  0
  8  3  1  0  0  0  0
  9 12  1  1  0  0  0
  9 10  1  0  0  0  0
 10 13  1  6  0  0  0
 10 16  1  0  0  0  0
 11  9  1  0  0  0  0
 11 14  1  0  0  0  0
 11 10  1  0  0  0  0
 15 11  1  0  0  0  0
 16 17  1  0  0  0  0
 16 18  1  0  0  0  0
 19 16  1  0  0  0  0
 20 22  1  0  0  0  0
 21 20  1  0  0  0  0
 23 20  1  0  0  0  0
M  END
>  <minimizedAffinity>
-4.76680279

$$$$

 OpenBabel03252505473D

 23 24  0  0  1  0  0  0  0  0999 V2000
   36.4950   28.5870   39.5270 C   0  0  0  0  0  0  0  0  0  0  0  0
   36.5740   27.2770   38.9700 C   0  0  0  0  0  0  0  0  0  0  0  0
   36.8210   26.1760   39.7800 C   0  0  0  0  0  0  0  0  0  0  0  0
   36.9800   26.4400   41.1120 N   0  0  0  0  0  0  0  0  0  0  0  0
   36.9000   27.6930   41.6070 C   0  0  0  0  0  0  0  0  0  0  0  0
   36.6630   28.7410   40.8320 N   0  0  0  0  0  0  0  0  0  0  0  0
   36.4370   27.1470   37.8960 H   0  0  0  0  0  0  0  0  0  0  0  0
   36.8800   25.1860   39.3540 H   0  0  0  0  0  0  0  0  0  0  0  0
   36.2440   29.7190   38.6200 C   0  0  1  0  0  0  0  0  0  0  0  0
   37.5620   30.2300   37.9540 C   0  0  1  0  0  0  0  0  0  0  0  0
   36.3950   29.6640   37.1990 C   0  0  0  0  0  0  0  0  0  0  0  0
   35.6330   30.5170   39.0930 H   0  0  0  0  0  0  0  0  0  0  0  0
   38.4650   29.6290   38.0750 H   0  0  0  0  0  0  0  0  0  0  0  0
   35.8550   30.3240   36.5180 H   0  0  0  0  0  0  0  0  0  0  0  0
   36.6010   28.6510   36.7490 H   0  0  0  0  0  0  0  0  0  0  0  0
   37.6710   31.7360   37.9140 C   0  0  0  0  0  0  0  0  0  0  0  0
   36.8430   32.3430   38.8310 F   0  0  0  0  0  0  0  0  0  0  0  0
   38.9900   32.0880   38.2410 F   0  0  0  0  0  0  0  0  0  0  0  0
   37.4550   32.2100   36.6400 F   0  0  0  0  0  0  0  0  0  0  0  0
   37.0960   27.8070   43.0710 C   0  0  0  0  0  0  0  0  0  0  0  0
   35.9390   27.3880   43.6800 F   0  0  0  0  0  0  0  0  0  0  0  0
   37.3320   29.1190   43.4090 F   0  0  0  0  0  0  0  0  0  0  0  0
   38.1220   26.9950   43.5300 F   0  0  0  0  0  0  0  0  0  0  0  0
  1  6  1  0  0  0  0
  2  1  2  0  0  0  0
  2  3  1  0  0  0  0
  3  4  2  0  0  0  0
  4  5  1  0  0  0  0
  5 20  1  0  0  0  0
  6  5  2  0  0  0  0
  7  2  1  0  0  0  0
  8  3  1  0  0  0  0
  9 12  1  1  0  0  0
  9  1  1  0  0  0  0
 10 13  1  1  0  0  0
 10  9  1  0  0  0  0
 11 10  1  0  0  0  0
 11  9  1  0  0  0  0
 14 11  1  0  0  0  0
 15 11  1  0  0  0  0
 16 10  1  0  0  0  0
 16 18  1  0  0  0  0
 16 17  1  0  0  0  0
 19 16  1  0  0  0  0
 20 22  1  0  0  0  0
 20 23  1  0  0  0  0
 20 21  1  0  0  0  0
M  END
>  <minimizedAffinity>
-4.75772047

$$$$

 OpenBabel03252505473D

 23 24  0  0  1  0  0  0  0  0999 V2000
   39.1730   30.4410   42.2620 C   0  0  0  0  0  0  0  0  0  0  0  0
   40.5580   30.5470   42.5800 C   0  0  0  0  0  0  0  0  0  0  0  0
   41.3570   31.5010   41.9610 C   0  0  0  0  0  0  0  0  0  0  0  0
   40.7280   32.3050   41.0510 N   0  0  0  0  0  0  0  0  0  0  0  0
   39.4140   32.1770   40.7720 C   0  0  0  0  0  0  0  0  0  0  0  0
   38.6550   31.2660   41.3640 N   0  0  0  0  0  0  0  0  0  0  0  0
   40.9880   29.8690   43.3170 H   0  0  0  0  0  0  0  0  0  0  0  0
   42.4050   31.5780   42.2050 H   0  0  0  0  0  0  0  0  0  0  0  0
   38.3770   29.4030   42.9380 C   0  0  1  0  0  0  0  0  0  0  0  0
   38.1230   28.1730   42.0080 C   0  0  1  0  0  0  0  0  0  0  0  0
   38.8770   28.1140   43.3050 C   0  0  0  0  0  0  0  0  0  0  0  0
   37.4620   29.8110   43.4140 H   0  0  0  0  0  0  0  0  0  0  0  0
   38.6710   28.1190   41.0660 H   0  0  0  0  0  0  0  0  0  0  0  0
   38.4540   27.5230   44.1180 H   0  0  0  0  0  0  0  0  0  0  0  0
   39.9840   27.9420   43.1730 H   0  0  0  0  0  0  0  0  0  0  0  0
   36.7080   27.6510   42.0760 C   0  0  0  0  0  0  0  0  0  0  0  0
   35.7980   28.5410   41.5530 F   0  0  0  0  0  0  0  0  0  0  0  0
   36.6360   26.4780   41.3080 F   0  0  0  0  0  0  0  0  0  0  0  0
   36.3800   27.2830   43.3610 F   0  0  0  0  0  0  0  0  0  0  0  0
   38.8880   33.1240   39.7620 C   0  0  0  0  0  0  0  0  0  0  0  0
   38.3720   32.3850   38.7270 F   0  0  0  0  0  0  0  0  0  0  0  0
   39.9100   33.9140   39.2860 F   0  0  0  0  0  0  0  0  0  0  0  0
   37.8610   33.9100   40.2610 F   0  0  0  0  0  0  0  0  0  0  0  0
  1  2  1  0  0  0  0
  1  9  1  0  0  0  0
  2  7  1  0  0  0  0
  3  8  1  0  0  0  0
  3  2  2  0  0  0  0
  4  3  1  0  0  0  0
  5  4  2  0  0  0  0
  5  6  1  0  0  0  0
  6  1  2  0  0  0  0
  9 11  1  0  0  0  0
  9 12  1  1  0  0  0
 10 13  1  6  0  0  0
 10 16  1  0  0  0  0
 10  9  1  0  0  0  0
 10 11  1  0  0  0  0
 11 14  1  0  0  0  0
 15 11  1  0  0  0  0
 16 19  1  0  0  0  0
 17 16  1  0  0  0  0
 18 16  1  0  0  0  0
 20 23  1  0  0  0  0
 20  5  1  0  0  0  0
 21 20  1  0  0  0  0
 22 20  1  0  0  0  0
M  END
>  <minimizedAffinity>
-4.71193695

$$$$

 OpenBabel03252505473D

 23 24  0  0  1  0  0  0  0  0999 V2000
   37.0330   29.0710   41.5990 C   0  0  0  0  0  0  0  0  0  0  0  0
   37.7030   29.2520   42.8440 C   0  0  0  0  0  0  0  0  0  0  0  0
   38.1470   28.1580   43.5760 C   0  0  0  0  0  0  0  0  0  0  0  0
   37.8980   26.9320   43.0240 N   0  0  0  0  0  0  0  0  0  0  0  0
   37.2610   26.7950   41.8430 C   0  0  0  0  0  0  0  0  0  0  0  0
   36.8390   27.8410   41.1470 N   0  0  0  0  0  0  0  0  0  0  0  0
   37.8640   30.2630   43.2190 H   0  0  0  0  0  0  0  0  0  0  0  0
   38.6540   28.3000   44.5170 H   0  0  0  0  0  0  0  0  0  0  0  0
   36.5710   30.2660   40.8720 C   0  0  1  0  0  0  0  0  0  0  0  0
   37.6120   30.7310   39.8040 C   0  0  1  0  0  0  0  0  0  0  0  0
   36.2170   30.2800   39.4870 C   0  0  0  0  0  0  0  0  0  0  0  0
   36.2240   31.0710   41.5520 H   0  0  0  0  0  0  0  0  0  0  0  0
   38.4540   30.0710   39.5840 H   0  0  0  0  0  0  0  0  0  0  0  0
   35.5270   31.0080   39.0580 H   0  0  0  0  0  0  0  0  0  0  0  0
   36.1770   29.2830   38.9620 H   0  0  0  0  0  0  0  0  0  0  0  0
   37.8150   32.2280   39.7760 C   0  0  0  0  0  0  0  0  0  0  0  0
   38.1170   32.7370   41.0180 F   0  0  0  0  0  0  0  0  0  0  0  0
   38.9030   32.5060   38.9330 F   0  0  0  0  0  0  0  0  0  0  0  0
   36.7290   32.8600   39.2150 F   0  0  0  0  0  0  0  0  0  0  0  0
   37.0700   25.3990   41.3860 C   0  0  0  0  0  0  0  0  0  0  0  0
   38.3120   24.8680   41.1400 F   0  0  0  0  0  0  0  0  0  0  0  0
   36.3360   25.3850   40.2230 F   0  0  0  0  0  0  0  0  0  0  0  0
   36.4650   24.6070   42.3500 F   0  0  0  0  0  0  0  0  0  0  0  0
  1  2  1  0  0  0  0
  2  7  1  0  0  0  0
  2  3  2  0  0  0  0
  3  8  1  0  0  0  0
  4  3  1  0  0  0  0
  5  4  2  0  0  0  0
  6  1  2  0  0  0  0
  6  5  1  0  0  0  0
  9 12  1  1  0  0  0
  9  1  1  0  0  0  0
 10 13  1  6  0  0  0
 10  9  1  0  0  0  0
 11 10  1  0  0  0  0
 11  9  1  0  0  0  0
 14 11  1  0  0  0  0
 15 11  1  0  0  0  0
 16 10  1  0  0  0  0
 16 17  1  0  0  0  0
 18 16  1  0  0  0  0
 19 16  1  0  0  0  0
 20  5  1  0  0  0  0
 20 23  1  0  0  0  0
 21 20  1  0  0  0  0
 22 20  1  0  0  0  0
M  END
>  <minimizedAffinity>
-4.65439844

$$$$
