
 OpenBabel03242521213D

 31 33  0  0  0  0  0  0  0  0999 V2000
   45.8680   33.5920   44.6450 C   0  0  0  0  0  0  0  0  0  0  0  0
   45.0460   34.6500   44.8900 C   0  0  0  0  0  0  0  0  0  0  0  0
   44.6660   35.5680   43.9310 C   0  0  0  0  0  0  0  0  0  0  0  0
   45.1720   35.3530   42.6930 N   0  0  0  0  0  0  0  0  0  0  0  0
   45.9820   34.3100   42.4520 C   0  0  0  0  0  0  0  0  0  0  0  0
   46.3540   33.4080   43.3940 N   0  0  0  0  0  0  0  0  0  0  0  0
   44.6460   34.8150   45.8820 H   0  0  0  0  0  0  0  0  0  0  0  0
   44.0220   36.4020   44.1100 H   0  0  0  0  0  0  0  0  0  0  0  0
   46.5180   34.1050   41.0810 C   0  0  0  0  0  0  0  0  0  0  0  0
   45.7970   33.3450   40.1800 C   0  0  0  0  0  0  0  0  0  0  0  0
   46.1980   33.0910   38.8890 C   0  0  0  0  0  0  0  0  0  0  0  0
   47.4210   33.6500   38.4860 C   0  0  0  0  0  0  0  0  0  0  0  0
   48.1290   34.3990   39.3800 C   0  0  0  0  0  0  0  0  0  0  0  0
   47.7110   34.6410   40.6660 C   0  0  0  0  0  0  0  0  0  0  0  0
   44.8560   32.9270   40.5170 H   0  0  0  0  0  0  0  0  0  0  0  0
   45.5850   32.4860   38.2300 H   0  0  0  0  0  0  0  0  0  0  0  0
   47.7550   33.4620   37.4760 H   0  0  0  0  0  0  0  0  0  0  0  0
   49.0670   34.8130   39.0330 H   0  0  0  0  0  0  0  0  0  0  0  0
   48.5020   35.4610   41.6210 C   0  0  0  0  0  0  0  0  0  0  0  0
   49.1720   34.5700   42.4680 F   0  0  0  0  0  0  0  0  0  0  0  0
   49.4450   36.2500   41.0370 F   0  0  0  0  0  0  0  0  0  0  0  0
   47.6170   36.1580   42.4370 F   0  0  0  0  0  0  0  0  0  0  0  0
   46.2960   30.4550   46.4920 C   0  0  0  0  0  0  0  0  0  0  0  0
   46.9320   30.8780   47.6530 C   0  0  0  0  0  0  0  0  0  0  0  0
   47.2150   32.2240   47.8070 C   0  0  0  0  0  0  0  0  0  0  0  0
   46.8540   33.0880   46.8030 N   0  0  0  0  0  0  0  0  0  0  0  0
   46.2390   32.6520   45.6910 C   0  0  0  0  0  0  0  0  0  0  0  0
   45.9650   31.3560   45.5380 N   0  0  0  0  0  0  0  0  0  0  0  0
   46.0970   29.3940   46.4180 H   0  0  0  0  0  0  0  0  0  0  0  0
   47.2470   30.2830   48.4760 H   0  0  0  0  0  0  0  0  0  0  0  0
   47.6960   32.7500   48.6210 H   0  0  0  0  0  0  0  0  0  0  0  0
  1  2  1  0  0  0  0
  1 27  1  0  0  0  0
  2  7  1  0  0  0  0
  3  8  1  0  0  0  0
  3  2  2  0  0  0  0
  4  3  1  0  0  0  0
  5  4  2  0  0  0  0
  5  6  1  0  0  0  0
  6  1  2  0  0  0  0
  9  5  1  0  0  0  0
 10 15  1  0  0  0  0
 10  9  2  0  0  0  0
 11 10  1  0  0  0  0
 12 11  2  0  0  0  0
 12 13  1  0  0  0  0
 13 14  2  0  0  0  0
 14  9  1  0  0  0  0
 14 19  1  0  0  0  0
 16 11  1  0  0  0  0
 17 12  1  0  0  0  0
 18 13  1  0  0  0  0
 19 22  1  0  0  0  0
 19 20  1  0  0  0  0
 21 19  1  0  0  0  0
 23 24  1  0  0  0  0
 24 25  2  0  0  0  0
 24 30  1  0  0  0  0
 25 31  1  0  0  0  0
 26 25  1  0  0  0  0
 27 26  2  0  0  0  0
 28 27  1  0  0  0  0
 28 23  2  0  0  0  0
 29 23  1  0  0  0  0
M  END
>  <minimizedAffinity>
-6.13743305

>  <minimizedRMSD>
1.32894957

$$$$
