
 OpenBabel03252503303D

 32 33  0  0  1  0  0  0  0  0999 V2000
   38.3980   30.1110   39.8380 C   0  0  0  0  0  0  0  0  0  0  0  0
   39.4790   31.0080   39.9780 C   0  0  0  0  0  0  0  0  0  0  0  0
   39.2140   32.3450   39.6600 C   0  0  0  0  0  0  0  0  0  0  0  0
   37.9680   32.6680   39.2500 N   0  0  0  0  0  0  0  0  0  0  0  0
   36.9760   31.7750   39.1340 C   0  0  0  0  0  0  0  0  0  0  0  0
   37.1980   30.4830   39.4330 N   0  0  0  0  0  0  0  0  0  0  0  0
   38.6140   28.5080   41.5340 C   0  0  0  0  0  0  0  0  0  0  0  0
   38.5180   29.4980   42.3190 O   0  0  0  0  0  0  0  0  0  0  0  0
   38.5880   28.7200   40.1450 N   0  0  0  0  0  0  0  0  0  0  0  0
   38.7430   27.2280   42.1590 N   0  0  0  0  0  0  0  0  0  0  0  0
   39.0900   27.0990   43.5590 C   0  0  0  0  0  0  0  0  0  0  0  0
   39.9010   25.8290   43.5690 C   0  0  0  0  0  0  0  0  0  0  0  0
   39.8000   25.2210   42.1910 C   0  0  0  0  0  0  0  0  0  0  0  0
   38.5820   25.8920   41.6290 C   0  0  1  0  0  0  0  0  0  0  0  0
   40.4120   30.5790   40.3180 H   0  0  0  0  0  0  0  0  0  0  0  0
   35.9950   32.0860   38.8020 H   0  0  0  0  0  0  0  0  0  0  0  0
   38.7020   27.8860   39.5310 H   0  0  0  0  0  0  0  0  0  0  0  0
   39.6820   27.9760   43.9250 H   0  0  0  0  0  0  0  0  0  0  0  0
   38.1820   27.0220   44.2080 H   0  0  0  0  0  0  0  0  0  0  0  0
   39.5500   25.1340   44.3560 H   0  0  0  0  0  0  0  0  0  0  0  0
   40.9700   26.1280   43.7050 H   0  0  0  0  0  0  0  0  0  0  0  0
   40.6980   25.3590   41.5700 H   0  0  0  0  0  0  0  0  0  0  0  0
   39.6430   24.1390   42.3360 H   0  0  0  0  0  0  0  0  0  0  0  0
   38.6540   25.9340   40.5330 H   0  0  0  0  0  0  0  0  0  0  0  0
   40.3560   33.2580   39.8140 C   0  0  0  0  0  0  0  0  0  0  0  0
   41.4440   32.5410   40.2990 F   0  0  0  0  0  0  0  0  0  0  0  0
   40.0310   34.1590   40.8150 F   0  0  0  0  0  0  0  0  0  0  0  0
   40.7490   33.8530   38.6480 F   0  0  0  0  0  0  0  0  0  0  0  0
   37.3010   25.2310   42.0890 C   0  0  0  0  0  0  0  0  0  0  0  0
   36.5630   24.9380   40.9450 F   0  0  0  0  0  0  0  0  0  0  0  0
   36.5800   26.0880   42.8970 F   0  0  0  0  0  0  0  0  0  0  0  0
   37.5440   24.0330   42.6960 F   0  0  0  0  0  0  0  0  0  0  0  0
  1  2  1  0  0  0  0
  1  9  1  0  0  0  0
  2 15  1  0  0  0  0
  3 25  1  0  0  0  0
  3  2  2  0  0  0  0
  4  3  1  0  0  0  0
  5  4  2  0  0  0  0
  5  6  1  0  0  0  0
  6  1  2  0  0  0  0
  7 10  1  0  0  0  0
  7  8  2  0  0  0  0
  9  7  1  0  0  0  0
 10 11  1  0  0  0  0
 11 12  1  0  0  0  0
 11 18  1  0  0  0  0
 11 19  1  0  0  0  0
 12 21  1  0  0  0  0
 12 20  1  0  0  0  0
 13 23  1  0  0  0  0
 13 12  1  0  0  0  0
 14 24  1  6  0  0  0
 14 29  1  0  0  0  0
 14 10  1  0  0  0  0
 14 13  1  0  0  0  0
 16  5  1  0  0  0  0
 17  9  1  0  0  0  0
 22 13  1  0  0  0  0
 25 26  1  0  0  0  0
 25 27  1  0  0  0  0
 28 25  1  0  0  0  0
 29 32  1  0  0  0  0
 29 31  1  0  0  0  0
 30 29  1  0  0  0  0
M  END
>  <minimizedAffinity>
-5.54744339

$$$$

 OpenBabel03252503303D

 32 33  0  0  1  0  0  0  0  0999 V2000
   39.5000   27.7460   41.7090 C   0  0  0  0  0  0  0  0  0  0  0  0
   38.6360   26.6940   41.3360 C   0  0  0  0  0  0  0  0  0  0  0  0
   38.5470   25.6250   42.2350 C   0  0  0  0  0  0  0  0  0  0  0  0
   39.2790   25.6810   43.3690 N   0  0  0  0  0  0  0  0  0  0  0  0
   40.0850   26.7080   43.6740 C   0  0  0  0  0  0  0  0  0  0  0  0
   40.1940   27.7500   42.8320 N   0  0  0  0  0  0  0  0  0  0  0  0
   38.5340   29.7340   40.9260 C   0  0  0  0  0  0  0  0  0  0  0  0
   37.5610   29.4160   41.6740 O   0  0  0  0  0  0  0  0  0  0  0  0
   39.6480   28.8810   40.8400 N   0  0  0  0  0  0  0  0  0  0  0  0
   38.3980   30.9690   40.2180 N   0  0  0  0  0  0  0  0  0  0  0  0
   37.1180   31.6320   40.0880 C   0  0  0  0  0  0  0  0  0  0  0  0
   37.2270   32.2710   38.7290 C   0  0  0  0  0  0  0  0  0  0  0  0
   38.6480   32.0780   38.2560 C   0  0  0  0  0  0  0  0  0  0  0  0
   39.3780   31.7820   39.5330 C   0  0  1  0  0  0  0  0  0  0  0  0
   38.1250   26.8100   40.3900 H   0  0  0  0  0  0  0  0  0  0  0  0
   40.6500   26.7040   44.5970 H   0  0  0  0  0  0  0  0  0  0  0  0
   40.4140   29.1590   40.1900 H   0  0  0  0  0  0  0  0  0  0  0  0
   36.2660   30.9080   40.1430 H   0  0  0  0  0  0  0  0  0  0  0  0
   36.9560   32.3900   40.8960 H   0  0  0  0  0  0  0  0  0  0  0  0
   36.9420   33.3400   38.7620 H   0  0  0  0  0  0  0  0  0  0  0  0
   36.5810   31.6750   38.0370 H   0  0  0  0  0  0  0  0  0  0  0  0
   38.7680   31.2920   37.4940 H   0  0  0  0  0  0  0  0  0  0  0  0
   38.9660   33.0380   37.8150 H   0  0  0  0  0  0  0  0  0  0  0  0
   40.2640   31.1670   39.3200 H   0  0  0  0  0  0  0  0  0  0  0  0
   37.6420   24.5420   41.8240 C   0  0  0  0  0  0  0  0  0  0  0  0
   37.1970   24.7930   40.5310 F   0  0  0  0  0  0  0  0  0  0  0  0
   36.5140   24.6200   42.6250 F   0  0  0  0  0  0  0  0  0  0  0  0
   38.2250   23.3060   41.8200 F   0  0  0  0  0  0  0  0  0  0  0  0
   39.7300   33.0410   40.2950 C   0  0  0  0  0  0  0  0  0  0  0  0
   41.1030   33.0080   40.5200 F   0  0  0  0  0  0  0  0  0  0  0  0
   39.0640   33.0730   41.5050 F   0  0  0  0  0  0  0  0  0  0  0  0
   39.4980   34.1610   39.5500 F   0  0  0  0  0  0  0  0  0  0  0  0
  1  6  1  0  0  0  0
  2  1  2  0  0  0  0
  2  3  1  0  0  0  0
  3  4  2  0  0  0  0
  4  5  1  0  0  0  0
  5 16  1  0  0  0  0
  6  5  2  0  0  0  0
  7  8  2  0  0  0  0
  9  7  1  0  0  0  0
  9  1  1  0  0  0  0
 10  7  1  0  0  0  0
 11 18  1  0  0  0  0
 11 10  1  0  0  0  0
 11 19  1  0  0  0  0
 12 20  1  0  0  0  0
 12 11  1  0  0  0  0
 13 12  1  0  0  0  0
 13 14  1  0  0  0  0
 14 24  1  6  0  0  0
 14 10  1  0  0  0  0
 14 29  1  0  0  0  0
 15  2  1  0  0  0  0
 17  9  1  0  0  0  0
 21 12  1  0  0  0  0
 22 13  1  0  0  0  0
 23 13  1  0  0  0  0
 25  3  1  0  0  0  0
 25 27  1  0  0  0  0
 26 25  1  0  0  0  0
 28 25  1  0  0  0  0
 29 30  1  0  0  0  0
 29 31  1  0  0  0  0
 32 29  1  0  0  0  0
M  END
>  <minimizedAffinity>
-5.3975668

$$$$

 OpenBabel03252503303D

 32 33  0  0  1  0  0  0  0  0999 V2000
   36.1440   28.6110   36.8440 C   0  0  0  0  0  0  0  0  0  0  0  0
   36.5970   29.6200   35.9670 C   0  0  0  0  0  0  0  0  0  0  0  0
   35.7910   29.8690   34.8500 C   0  0  0  0  0  0  0  0  0  0  0  0
   34.6640   29.1390   34.7000 N   0  0  0  0  0  0  0  0  0  0  0  0
   34.2800   28.1910   35.5660 C   0  0  0  0  0  0  0  0  0  0  0  0
   35.0310   27.9270   36.6490 N   0  0  0  0  0  0  0  0  0  0  0  0
   36.7440   29.2690   39.0130 C   0  0  0  0  0  0  0  0  0  0  0  0
   36.0170   30.2800   38.7800 O   0  0  0  0  0  0  0  0  0  0  0  0
   36.9140   28.2930   38.0160 N   0  0  0  0  0  0  0  0  0  0  0  0
   37.3420   29.2190   40.3110 N   0  0  0  0  0  0  0  0  0  0  0  0
   37.4020   30.3860   41.1640 C   0  0  0  0  0  0  0  0  0  0  0  0
   38.7030   30.1800   41.8950 C   0  0  0  0  0  0  0  0  0  0  0  0
   39.2050   28.8020   41.5360 C   0  0  0  0  0  0  0  0  0  0  0  0
   37.9660   28.1280   41.0260 C   0  0  1  0  0  0  0  0  0  0  0  0
   37.5240   30.1050   36.2390 H   0  0  0  0  0  0  0  0  0  0  0  0
   33.3670   27.6350   35.4000 H   0  0  0  0  0  0  0  0  0  0  0  0
   37.5460   27.4930   38.2320 H   0  0  0  0  0  0  0  0  0  0  0  0
   37.4010   31.3360   40.5730 H   0  0  0  0  0  0  0  0  0  0  0  0
   36.5310   30.4360   41.8660 H   0  0  0  0  0  0  0  0  0  0  0  0
   38.5760   30.3030   42.9870 H   0  0  0  0  0  0  0  0  0  0  0  0
   39.4370   30.9050   41.4630 H   0  0  0  0  0  0  0  0  0  0  0  0
   40.0320   28.7970   40.8090 H   0  0  0  0  0  0  0  0  0  0  0  0
   39.5660   28.3440   42.4720 H   0  0  0  0  0  0  0  0  0  0  0  0
   38.2390   27.3420   40.3080 H   0  0  0  0  0  0  0  0  0  0  0  0
   36.2840   30.9230   33.9520 C   0  0  0  0  0  0  0  0  0  0  0  0
   35.1980   31.5450   33.3460 F   0  0  0  0  0  0  0  0  0  0  0  0
   36.9730   30.3000   32.9240 F   0  0  0  0  0  0  0  0  0  0  0  0
   37.0070   31.8950   34.5850 F   0  0  0  0  0  0  0  0  0  0  0  0
   37.1020   27.5950   42.1490 C   0  0  0  0  0  0  0  0  0  0  0  0
   37.0200   26.2160   41.9770 F   0  0  0  0  0  0  0  0  0  0  0  0
   35.8360   28.1440   42.0850 F   0  0  0  0  0  0  0  0  0  0  0  0
   37.6860   27.7880   43.3670 F   0  0  0  0  0  0  0  0  0  0  0  0
  1  9  1  0  0  0  0
  2 15  1  0  0  0  0
  2  1  2  0  0  0  0
  3  2  1  0  0  0  0
  4  3  2  0  0  0  0
  4  5  1  0  0  0  0
  5  6  2  0  0  0  0
  6  1  1  0  0  0  0
  7 10  1  0  0  0  0
  8  7  2  0  0  0  0
  9 17  1  0  0  0  0
  9  7  1  0  0  0  0
 10 14  1  0  0  0  0
 10 11  1  0  0  0  0
 11 19  1  0  0  0  0
 11 12  1  0  0  0  0
 12 20  1  0  0  0  0
 13 12  1  0  0  0  0
 13 23  1  0  0  0  0
 14 24  1  6  0  0  0
 14 13  1  0  0  0  0
 14 29  1  0  0  0  0
 16  5  1  0  0  0  0
 18 11  1  0  0  0  0
 21 12  1  0  0  0  0
 22 13  1  0  0  0  0
 25 28  1  0  0  0  0
 25  3  1  0  0  0  0
 26 25  1  0  0  0  0
 27 25  1  0  0  0  0
 29 32  1  0  0  0  0
 30 29  1  0  0  0  0
 31 29  1  0  0  0  0
M  END
>  <minimizedAffinity>
-5.26322508

$$$$

 OpenBabel03252503303D

 32 33  0  0  1  0  0  0  0  0999 V2000
   38.0140   29.7560   39.2110 C   0  0  0  0  0  0  0  0  0  0  0  0
   37.6880   28.8090   40.2060 C   0  0  0  0  0  0  0  0  0  0  0  0
   37.9460   29.1930   41.5270 C   0  0  0  0  0  0  0  0  0  0  0  0
   38.4770   30.4160   41.7440 N   0  0  0  0  0  0  0  0  0  0  0  0
   38.7680   31.2780   40.7600 C   0  0  0  0  0  0  0  0  0  0  0  0
   38.5320   30.9400   39.4810 N   0  0  0  0  0  0  0  0  0  0  0  0
   36.4140   29.5410   37.5110 C   0  0  0  0  0  0  0  0  0  0  0  0
   35.5820   29.8370   38.4190 O   0  0  0  0  0  0  0  0  0  0  0  0
   37.7790   29.4400   37.8290 N   0  0  0  0  0  0  0  0  0  0  0  0
   35.8650   29.3320   36.2070 N   0  0  0  0  0  0  0  0  0  0  0  0
   34.4460   29.1270   36.0060 C   0  0  0  0  0  0  0  0  0  0  0  0
   34.4240   28.1790   34.8350 C   0  0  0  0  0  0  0  0  0  0  0  0
   35.8420   28.0570   34.3310 C   0  0  0  0  0  0  0  0  0  0  0  0
   36.4980   29.2760   34.9080 C   0  0  1  0  0  0  0  0  0  0  0  0
   37.2700   27.8760   39.8550 H   0  0  0  0  0  0  0  0  0  0  0  0
   39.1920   32.2460   40.9880 H   0  0  0  0  0  0  0  0  0  0  0  0
   38.4300   29.1620   37.0630 H   0  0  0  0  0  0  0  0  0  0  0  0
   33.9550   28.6860   36.9100 H   0  0  0  0  0  0  0  0  0  0  0  0
   33.9140   30.0860   35.7800 H   0  0  0  0  0  0  0  0  0  0  0  0
   33.7320   28.5300   34.0460 H   0  0  0  0  0  0  0  0  0  0  0  0
   34.1440   27.1740   35.2370 H   0  0  0  0  0  0  0  0  0  0  0  0
   36.3430   27.1180   34.6150 H   0  0  0  0  0  0  0  0  0  0  0  0
   35.7890   28.1010   33.2300 H   0  0  0  0  0  0  0  0  0  0  0  0
   37.5730   29.0900   35.0450 H   0  0  0  0  0  0  0  0  0  0  0  0
   37.5980   28.1900   42.5440 C   0  0  0  0  0  0  0  0  0  0  0  0
   36.4800   27.4830   42.1160 F   0  0  0  0  0  0  0  0  0  0  0  0
   37.1910   28.8750   43.6770 F   0  0  0  0  0  0  0  0  0  0  0  0
   38.5880   27.2780   42.7820 F   0  0  0  0  0  0  0  0  0  0  0  0
   36.2370   30.5140   34.0780 C   0  0  0  0  0  0  0  0  0  0  0  0
   36.8090   30.2910   32.8280 F   0  0  0  0  0  0  0  0  0  0  0  0
   36.8220   31.6190   34.6630 F   0  0  0  0  0  0  0  0  0  0  0  0
   34.9020   30.6950   33.8520 F   0  0  0  0  0  0  0  0  0  0  0  0
  1  6  2  0  0  0  0
  1  2  1  0  0  0  0
  2  3  2  0  0  0  0
  3  4  1  0  0  0  0
  3 25  1  0  0  0  0
  5 16  1  0  0  0  0
  5  4  2  0  0  0  0
  6  5  1  0  0  0  0
  7  9  1  0  0  0  0
  7  8  2  0  0  0  0
  9  1  1  0  0  0  0
 10  7  1  0  0  0  0
 11 10  1  0  0  0  0
 11 18  1  0  0  0  0
 12 21  1  0  0  0  0
 12 11  1  0  0  0  0
 13 22  1  0  0  0  0
 13 12  1  0  0  0  0
 13 14  1  0  0  0  0
 14 24  1  1  0  0  0
 14 10  1  0  0  0  0
 15  2  1  0  0  0  0
 17  9  1  0  0  0  0
 19 11  1  0  0  0  0
 20 12  1  0  0  0  0
 23 13  1  0  0  0  0
 25 28  1  0  0  0  0
 25 27  1  0  0  0  0
 26 25  1  0  0  0  0
 29 31  1  0  0  0  0
 29 14  1  0  0  0  0
 30 29  1  0  0  0  0
 32 29  1  0  0  0  0
M  END
>  <minimizedAffinity>
-5.03542709

$$$$

 OpenBabel03252503303D

 32 33  0  0  1  0  0  0  0  0999 V2000
   40.4920   31.3230   37.7030 C   0  0  0  0  0  0  0  0  0  0  0  0
   41.5360   30.6190   37.0680 C   0  0  0  0  0  0  0  0  0  0  0  0
   42.6900   31.3580   36.7810 C   0  0  0  0  0  0  0  0  0  0  0  0
   42.7150   32.6630   37.1280 N   0  0  0  0  0  0  0  0  0  0  0  0
   41.6920   33.2840   37.7320 C   0  0  0  0  0  0  0  0  0  0  0  0
   40.5700   32.6030   38.0210 N   0  0  0  0  0  0  0  0  0  0  0  0
   39.4410   29.8200   39.1630 C   0  0  0  0  0  0  0  0  0  0  0  0
   40.5810   29.7420   39.7130 O   0  0  0  0  0  0  0  0  0  0  0  0
   39.2730   30.6370   38.0320 N   0  0  0  0  0  0  0  0  0  0  0  0
   38.4040   29.0420   39.7670 N   0  0  0  0  0  0  0  0  0  0  0  0
   38.7000   27.9840   40.7090 C   0  0  0  0  0  0  0  0  0  0  0  0
   37.6060   26.9890   40.4230 C   0  0  0  0  0  0  0  0  0  0  0  0
   36.6470   27.6420   39.4580 C   0  0  0  0  0  0  0  0  0  0  0  0
   36.9670   29.0990   39.6180 C   0  0  1  0  0  0  0  0  0  0  0  0
   41.3480   29.5740   36.8610 H   0  0  0  0  0  0  0  0  0  0  0  0
   41.7630   34.3320   37.9890 H   0  0  0  0  0  0  0  0  0  0  0  0
   38.3300   30.6500   37.5870 H   0  0  0  0  0  0  0  0  0  0  0  0
   39.7170   27.5470   40.5400 H   0  0  0  0  0  0  0  0  0  0  0  0
   38.6710   28.3470   41.7670 H   0  0  0  0  0  0  0  0  0  0  0  0
   37.1020   26.6670   41.3550 H   0  0  0  0  0  0  0  0  0  0  0  0
   38.0780   26.1370   39.8730 H   0  0  0  0  0  0  0  0  0  0  0  0
   36.7410   27.2880   38.4190 H   0  0  0  0  0  0  0  0  0  0  0  0
   35.6310   27.4030   39.8130 H   0  0  0  0  0  0  0  0  0  0  0  0
   36.7270   29.6360   38.6890 H   0  0  0  0  0  0  0  0  0  0  0  0
   43.7630   30.6010   36.1180 C   0  0  0  0  0  0  0  0  0  0  0  0
   43.2720   30.0670   34.9320 F   0  0  0  0  0  0  0  0  0  0  0  0
   44.0550   29.5110   36.9220 F   0  0  0  0  0  0  0  0  0  0  0  0
   44.8570   31.3560   35.8020 F   0  0  0  0  0  0  0  0  0  0  0  0
   36.2780   29.7070   40.8200 C   0  0  0  0  0  0  0  0  0  0  0  0
   35.3250   28.7870   41.2490 F   0  0  0  0  0  0  0  0  0  0  0  0
   35.6550   30.8890   40.4710 F   0  0  0  0  0  0  0  0  0  0  0  0
   37.1410   29.8680   41.8650 F   0  0  0  0  0  0  0  0  0  0  0  0
  1  6  1  0  0  0  0
  1  9  1  0  0  0  0
  2  1  2  0  0  0  0
  3  2  1  0  0  0  0
  3  4  2  0  0  0  0
  4  5  1  0  0  0  0
  5 16  1  0  0  0  0
  5  6  2  0  0  0  0
  7  8  2  0  0  0  0
  7 10  1  0  0  0  0
  9  7  1  0  0  0  0
 10 11  1  0  0  0  0
 11 19  1  0  0  0  0
 12 11  1  0  0  0  0
 12 20  1  0  0  0  0
 13 14  1  0  0  0  0
 13 23  1  0  0  0  0
 13 12  1  0  0  0  0
 14 24  1  6  0  0  0
 14 10  1  0  0  0  0
 14 29  1  0  0  0  0
 15  2  1  0  0  0  0
 17  9  1  0  0  0  0
 18 11  1  0  0  0  0
 21 12  1  0  0  0  0
 22 13  1  0  0  0  0
 25  3  1  0  0  0  0
 25 27  1  0  0  0  0
 26 25  1  0  0  0  0
 28 25  1  0  0  0  0
 29 30  1  0  0  0  0
 29 32  1  0  0  0  0
 31 29  1  0  0  0  0
M  END
>  <minimizedAffinity>
-5.03537607

$$$$

 OpenBabel03252503303D

 32 33  0  0  1  0  0  0  0  0999 V2000
   38.2700   29.4940   41.4410 C   0  0  0  0  0  0  0  0  0  0  0  0
   37.9040   30.4710   40.4910 C   0  0  0  0  0  0  0  0  0  0  0  0
   38.5300   31.7170   40.6190 C   0  0  0  0  0  0  0  0  0  0  0  0
   39.4180   31.8850   41.6230 N   0  0  0  0  0  0  0  0  0  0  0  0
   39.7300   30.9200   42.4990 C   0  0  0  0  0  0  0  0  0  0  0  0
   39.1470   29.7120   42.4040 N   0  0  0  0  0  0  0  0  0  0  0  0
   38.2350   27.4230   40.3420 C   0  0  0  0  0  0  0  0  0  0  0  0
   39.1160   27.9400   39.5920 O   0  0  0  0  0  0  0  0  0  0  0  0
   37.6730   28.1870   41.3790 N   0  0  0  0  0  0  0  0  0  0  0  0
   37.8860   26.0670   40.0490 N   0  0  0  0  0  0  0  0  0  0  0  0
   38.2440   25.4460   38.7920 C   0  0  0  0  0  0  0  0  0  0  0  0
   37.0840   24.5160   38.5550 C   0  0  0  0  0  0  0  0  0  0  0  0
   36.2290   24.5380   39.7990 C   0  0  0  0  0  0  0  0  0  0  0  0
   37.1730   25.0810   40.8310 C   0  0  1  0  0  0  0  0  0  0  0  0
   37.1740   30.1670   39.7530 H   0  0  0  0  0  0  0  0  0  0  0  0
   40.4490   31.1060   43.2850 H   0  0  0  0  0  0  0  0  0  0  0  0
   36.9280   27.7400   41.9540 H   0  0  0  0  0  0  0  0  0  0  0  0
   38.3510   26.1990   37.9700 H   0  0  0  0  0  0  0  0  0  0  0  0
   39.2160   24.8960   38.8610 H   0  0  0  0  0  0  0  0  0  0  0  0
   37.4310   23.4940   38.3080 H   0  0  0  0  0  0  0  0  0  0  0  0
   36.4660   24.9680   37.7390 H   0  0  0  0  0  0  0  0  0  0  0  0
   35.3050   25.1280   39.7020 H   0  0  0  0  0  0  0  0  0  0  0  0
   35.9500   23.4920   40.0080 H   0  0  0  0  0  0  0  0  0  0  0  0
   36.6050   25.5960   41.6190 H   0  0  0  0  0  0  0  0  0  0  0  0
   38.1310   32.7170   39.6180 C   0  0  0  0  0  0  0  0  0  0  0  0
   36.7570   32.6390   39.4240 F   0  0  0  0  0  0  0  0  0  0  0  0
   38.6970   32.3400   38.4110 F   0  0  0  0  0  0  0  0  0  0  0  0
   38.4180   34.0040   39.9780 F   0  0  0  0  0  0  0  0  0  0  0  0
   38.0840   24.0120   41.3930 C   0  0  0  0  0  0  0  0  0  0  0  0
   37.8710   23.9810   42.7680 F   0  0  0  0  0  0  0  0  0  0  0  0
   39.4050   24.3200   41.1360 F   0  0  0  0  0  0  0  0  0  0  0  0
   37.7460   22.7720   40.9330 F   0  0  0  0  0  0  0  0  0  0  0  0
  1  6  1  0  0  0  0
  2  3  1  0  0  0  0
  2  1  2  0  0  0  0
  3  4  2  0  0  0  0
  4  5  1  0  0  0  0
  5 16  1  0  0  0  0
  6  5  2  0  0  0  0
  7  9  1  0  0  0  0
  8  7  2  0  0  0  0
  9  1  1  0  0  0  0
  9 17  1  0  0  0  0
 10  7  1  0  0  0  0
 10 14  1  0  0  0  0
 11 19  1  0  0  0  0
 11 10  1  0  0  0  0
 12 11  1  0  0  0  0
 12 13  1  0  0  0  0
 13 23  1  0  0  0  0
 13 14  1  0  0  0  0
 14 29  1  0  0  0  0
 14 24  1  1  0  0  0
 15  2  1  0  0  0  0
 18 11  1  0  0  0  0
 20 12  1  0  0  0  0
 21 12  1  0  0  0  0
 22 13  1  0  0  0  0
 25 28  1  0  0  0  0
 25  3  1  0  0  0  0
 26 25  1  0  0  0  0
 27 25  1  0  0  0  0
 29 30  1  0  0  0  0
 31 29  1  0  0  0  0
 32 29  1  0  0  0  0
M  END
>  <minimizedAffinity>
-5.026052

$$$$

 OpenBabel03252503303D

 32 33  0  0  1  0  0  0  0  0999 V2000
   36.5080   29.1600   38.0640 C   0  0  0  0  0  0  0  0  0  0  0  0
   35.1080   29.1620   37.8840 C   0  0  0  0  0  0  0  0  0  0  0  0
   34.6570   28.9910   36.5700 C   0  0  0  0  0  0  0  0  0  0  0  0
   35.5780   28.8410   35.5930 N   0  0  0  0  0  0  0  0  0  0  0  0
   36.8990   28.8460   35.8200 C   0  0  0  0  0  0  0  0  0  0  0  0
   37.3650   29.0080   37.0700 N   0  0  0  0  0  0  0  0  0  0  0  0
   36.9310   28.1490   40.1360 C   0  0  0  0  0  0  0  0  0  0  0  0
   36.3550   27.1410   39.6280 O   0  0  0  0  0  0  0  0  0  0  0  0
   37.0530   29.3290   39.3830 N   0  0  0  0  0  0  0  0  0  0  0  0
   37.4170   27.9820   41.4710 N   0  0  0  0  0  0  0  0  0  0  0  0
   36.9820   26.8810   42.3040 C   0  0  0  0  0  0  0  0  0  0  0  0
   36.9930   27.4980   43.6780 C   0  0  0  0  0  0  0  0  0  0  0  0
   37.6170   28.8670   43.5500 C   0  0  0  0  0  0  0  0  0  0  0  0
   38.3510   28.7680   42.2460 C   0  0  1  0  0  0  0  0  0  0  0  0
   34.5140   29.2960   38.7780 H   0  0  0  0  0  0  0  0  0  0  0  0
   37.5960   28.7210   35.0020 H   0  0  0  0  0  0  0  0  0  0  0  0
   37.5030   30.1480   39.8450 H   0  0  0  0  0  0  0  0  0  0  0  0
   35.9630   26.5170   42.0170 H   0  0  0  0  0  0  0  0  0  0  0  0
   37.6750   26.0050   42.2320 H   0  0  0  0  0  0  0  0  0  0  0  0
   37.5360   26.8600   44.4020 H   0  0  0  0  0  0  0  0  0  0  0  0
   35.9250   27.6640   43.9680 H   0  0  0  0  0  0  0  0  0  0  0  0
   36.8950   29.6970   43.5800 H   0  0  0  0  0  0  0  0  0  0  0  0
   38.3070   28.9790   44.4030 H   0  0  0  0  0  0  0  0  0  0  0  0
   38.4380   29.7660   41.7920 H   0  0  0  0  0  0  0  0  0  0  0  0
   33.1960   28.9980   36.4100 C   0  0  0  0  0  0  0  0  0  0  0  0
   32.6110   29.3710   37.6150 F   0  0  0  0  0  0  0  0  0  0  0  0
   32.7990   27.6870   36.1970 F   0  0  0  0  0  0  0  0  0  0  0  0
   32.7480   29.8660   35.4550 F   0  0  0  0  0  0  0  0  0  0  0  0
   39.6970   28.0930   42.3970 C   0  0  0  0  0  0  0  0  0  0  0  0
   40.6660   29.0620   42.1500 F   0  0  0  0  0  0  0  0  0  0  0  0
   39.8270   27.0670   41.4830 F   0  0  0  0  0  0  0  0  0  0  0  0
   39.9060   27.6710   43.6790 F   0  0  0  0  0  0  0  0  0  0  0  0
  1  9  1  0  0  0  0
  2  1  1  0  0  0  0
  2 15  1  0  0  0  0
  3  2  2  0  0  0  0
  4  5  2  0  0  0  0
  4  3  1  0  0  0  0
  5  6  1  0  0  0  0
  6  1  2  0  0  0  0
  7 10  1  0  0  0  0
  8  7  2  0  0  0  0
  9 17  1  0  0  0  0
  9  7  1  0  0  0  0
 10 14  1  0  0  0  0
 10 11  1  0  0  0  0
 11 12  1  0  0  0  0
 12 21  1  0  0  0  0
 12 20  1  0  0  0  0
 13 22  1  0  0  0  0
 13 12  1  0  0  0  0
 13 23  1  0  0  0  0
 14 24  1  6  0  0  0
 14 29  1  0  0  0  0
 14 13  1  0  0  0  0
 16  5  1  0  0  0  0
 18 11  1  0  0  0  0
 19 11  1  0  0  0  0
 25  3  1  0  0  0  0
 25 26  1  0  0  0  0
 27 25  1  0  0  0  0
 28 25  1  0  0  0  0
 29 32  1  0  0  0  0
 30 29  1  0  0  0  0
 31 29  1  0  0  0  0
M  END
>  <minimizedAffinity>
-5.02533674

$$$$

 OpenBabel03252503303D

 32 33  0  0  1  0  0  0  0  0999 V2000
   38.0220   25.9050   40.5020 C   0  0  0  0  0  0  0  0  0  0  0  0
   36.9260   25.3470   39.8110 C   0  0  0  0  0  0  0  0  0  0  0  0
   36.6190   24.0170   40.1210 C   0  0  0  0  0  0  0  0  0  0  0  0
   37.3800   23.3820   41.0390 N   0  0  0  0  0  0  0  0  0  0  0  0
   38.4130   23.9620   41.6660 C   0  0  0  0  0  0  0  0  0  0  0  0
   38.7340   25.2380   41.3920 N   0  0  0  0  0  0  0  0  0  0  0  0
   37.5230   28.1670   40.8650 C   0  0  0  0  0  0  0  0  0  0  0  0
   36.5270   27.7210   41.5110 O   0  0  0  0  0  0  0  0  0  0  0  0
   38.4040   27.2670   40.2420 N   0  0  0  0  0  0  0  0  0  0  0  0
   37.6560   29.5910   40.8330 N   0  0  0  0  0  0  0  0  0  0  0  0
   36.5630   30.4630   41.2020 C   0  0  0  0  0  0  0  0  0  0  0  0
   36.7740   31.6420   40.2890 C   0  0  0  0  0  0  0  0  0  0  0  0
   38.0950   31.4350   39.5880 C   0  0  0  0  0  0  0  0  0  0  0  0
   38.7760   30.4300   40.4690 C   0  0  1  0  0  0  0  0  0  0  0  0
   36.4260   25.9970   39.1070 H   0  0  0  0  0  0  0  0  0  0  0  0
   38.9910   23.4090   42.3950 H   0  0  0  0  0  0  0  0  0  0  0  0
   39.1920   27.6710   39.6930 H   0  0  0  0  0  0  0  0  0  0  0  0
   35.5670   29.9790   41.0360 H   0  0  0  0  0  0  0  0  0  0  0  0
   36.6090   30.7560   42.2820 H   0  0  0  0  0  0  0  0  0  0  0  0
   36.7480   32.5960   40.8510 H   0  0  0  0  0  0  0  0  0  0  0  0
   35.9850   31.5870   39.4990 H   0  0  0  0  0  0  0  0  0  0  0  0
   38.0040   31.1040   38.5410 H   0  0  0  0  0  0  0  0  0  0  0  0
   38.6130   32.4080   39.5980 H   0  0  0  0  0  0  0  0  0  0  0  0
   39.4870   29.8370   39.8760 H   0  0  0  0  0  0  0  0  0  0  0  0
   35.4730   23.4580   39.3880 C   0  0  0  0  0  0  0  0  0  0  0  0
   34.9430   24.4420   38.5620 F   0  0  0  0  0  0  0  0  0  0  0  0
   34.4830   23.1830   40.3180 F   0  0  0  0  0  0  0  0  0  0  0  0
   35.7910   22.3910   38.5960 F   0  0  0  0  0  0  0  0  0  0  0  0
   39.4360   31.0750   41.6680 C   0  0  0  0  0  0  0  0  0  0  0  0
   38.8800   30.4880   42.8010 F   0  0  0  0  0  0  0  0  0  0  0  0
   39.1880   32.4330   41.6820 F   0  0  0  0  0  0  0  0  0  0  0  0
   40.7720   30.7950   41.7170 F   0  0  0  0  0  0  0  0  0  0  0  0
  1  6  1  0  0  0  0
  2  3  1  0  0  0  0
  2  1  2  0  0  0  0
  3  4  2  0  0  0  0
  4  5  1  0  0  0  0
  5 16  1  0  0  0  0
  6  5  2  0  0  0  0
  7  8  2  0  0  0  0
  9  1  1  0  0  0  0
  9  7  1  0  0  0  0
 10  7  1  0  0  0  0
 10 11  1  0  0  0  0
 11 19  1  0  0  0  0
 12 20  1  0  0  0  0
 12 11  1  0  0  0  0
 13 23  1  0  0  0  0
 13 12  1  0  0  0  0
 13 14  1  0  0  0  0
 14 24  1  6  0  0  0
 14 10  1  0  0  0  0
 14 29  1  0  0  0  0
 15  2  1  0  0  0  0
 17  9  1  0  0  0  0
 18 11  1  0  0  0  0
 21 12  1  0  0  0  0
 22 13  1  0  0  0  0
 25  3  1  0  0  0  0
 25 27  1  0  0  0  0
 26 25  1  0  0  0  0
 28 25  1  0  0  0  0
 29 31  1  0  0  0  0
 29 32  1  0  0  0  0
 29 30  1  0  0  0  0
M  END
>  <minimizedAffinity>
-5.02122879

$$$$

 OpenBabel03252503303D

 32 33  0  0  1  0  0  0  0  0999 V2000
   35.7030   28.0760   37.4000 C   0  0  0  0  0  0  0  0  0  0  0  0
   36.2820   28.8840   36.3980 C   0  0  0  0  0  0  0  0  0  0  0  0
   35.4150   29.3320   35.3950 C   0  0  0  0  0  0  0  0  0  0  0  0
   34.1170   28.9650   35.4610 N   0  0  0  0  0  0  0  0  0  0  0  0
   33.6190   28.1940   36.4370 C   0  0  0  0  0  0  0  0  0  0  0  0
   34.4240   27.7470   37.4160 N   0  0  0  0  0  0  0  0  0  0  0  0
   36.8040   28.5800   39.4080 C   0  0  0  0  0  0  0  0  0  0  0  0
   36.3710   29.7550   39.2120 O   0  0  0  0  0  0  0  0  0  0  0  0
   36.5250   27.5740   38.4670 N   0  0  0  0  0  0  0  0  0  0  0  0
   37.5600   28.3870   40.6060 N   0  0  0  0  0  0  0  0  0  0  0  0
   38.0890   29.5050   41.3580 C   0  0  0  0  0  0  0  0  0  0  0  0
   39.3740   28.9420   41.9050 C   0  0  0  0  0  0  0  0  0  0  0  0
   39.3940   27.4690   41.5750 C   0  0  0  0  0  0  0  0  0  0  0  0
   37.9480   27.1790   41.2990 C   0  0  1  0  0  0  0  0  0  0  0  0
   37.3400   29.0800   36.4980 H   0  0  0  0  0  0  0  0  0  0  0  0
   32.5700   27.9290   36.4440 H   0  0  0  0  0  0  0  0  0  0  0  0
   36.9250   26.6280   38.6450 H   0  0  0  0  0  0  0  0  0  0  0  0
   38.2680   30.3990   40.7070 H   0  0  0  0  0  0  0  0  0  0  0  0
   37.3920   29.8280   42.1720 H   0  0  0  0  0  0  0  0  0  0  0  0
   39.4620   29.1240   42.9930 H   0  0  0  0  0  0  0  0  0  0  0  0
   40.2070   29.4070   41.3220 H   0  0  0  0  0  0  0  0  0  0  0  0
   40.0580   27.2020   40.7380 H   0  0  0  0  0  0  0  0  0  0  0  0
   39.7520   26.9480   42.4790 H   0  0  0  0  0  0  0  0  0  0  0  0
   37.8660   26.3300   40.6050 H   0  0  0  0  0  0  0  0  0  0  0  0
   36.0420   30.1710   34.3630 C   0  0  0  0  0  0  0  0  0  0  0  0
   36.8170   31.1450   34.9830 F   0  0  0  0  0  0  0  0  0  0  0  0
   35.0270   30.8610   33.7200 F   0  0  0  0  0  0  0  0  0  0  0  0
   36.8600   29.4820   33.5120 F   0  0  0  0  0  0  0  0  0  0  0  0
   37.1570   26.9530   42.5680 C   0  0  0  0  0  0  0  0  0  0  0  0
   36.7450   25.6230   42.5580 F   0  0  0  0  0  0  0  0  0  0  0  0
   36.0520   27.7800   42.6010 F   0  0  0  0  0  0  0  0  0  0  0  0
   37.9390   27.0950   43.6790 F   0  0  0  0  0  0  0  0  0  0  0  0
  1  6  1  0  0  0  0
  1  9  1  0  0  0  0
  2 15  1  0  0  0  0
  2  1  2  0  0  0  0
  3  4  2  0  0  0  0
  3  2  1  0  0  0  0
  4  5  1  0  0  0  0
  5 16  1  0  0  0  0
  5  6  2  0  0  0  0
  7 10  1  0  0  0  0
  8  7  2  0  0  0  0
  9 17  1  0  0  0  0
  9  7  1  0  0  0  0
 10 14  1  0  0  0  0
 10 11  1  0  0  0  0
 11 12  1  0  0  0  0
 11 19  1  0  0  0  0
 12 20  1  0  0  0  0
 13 12  1  0  0  0  0
 13 23  1  0  0  0  0
 14 24  1  6  0  0  0
 14 13  1  0  0  0  0
 14 29  1  0  0  0  0
 18 11  1  0  0  0  0
 21 12  1  0  0  0  0
 22 13  1  0  0  0  0
 25 26  1  0  0  0  0
 25  3  1  0  0  0  0
 27 25  1  0  0  0  0
 28 25  1  0  0  0  0
 29 31  1  0  0  0  0
 29 32  1  0  0  0  0
 30 29  1  0  0  0  0
M  END
>  <minimizedAffinity>
-5.01420641

$$$$
