
 OpenBabel03252508233D

 43 45  0  0  0  0  0  0  0  0999 V2000
   46.6470   33.9050   40.0020 C   0  0  0  0  0  0  0  0  0  0  0  0
   47.9930   34.1970   39.9490 C   0  0  0  0  0  0  0  0  0  0  0  0
   48.6780   34.8860   40.9200 C   0  0  0  0  0  0  0  0  0  0  0  0
   47.9170   35.2970   42.0220 C   0  0  0  0  0  0  0  0  0  0  0  0
   46.5810   35.0320   42.1230 C   0  0  0  0  0  0  0  0  0  0  0  0
   45.9420   34.3460   41.1330 C   0  0  0  0  0  0  0  0  0  0  0  0
   48.6470   33.9060   39.1430 H   0  0  0  0  0  0  0  0  0  0  0  0
   49.7190   35.1290   40.9110 H   0  0  0  0  0  0  0  0  0  0  0  0
   48.4110   35.8530   42.8310 H   0  0  0  0  0  0  0  0  0  0  0  0
   46.0630   35.3890   43.0150 H   0  0  0  0  0  0  0  0  0  0  0  0
   44.5640   34.1140   41.3370 N   0  0  0  0  0  0  0  0  0  0  0  0
   43.5190   34.9740   40.8590 C   0  0  0  0  0  0  0  0  0  0  0  0
   42.1940   34.2450   40.8030 C   0  0  0  0  0  0  0  0  0  0  0  0
   42.2940   32.8930   40.3770 N   0  0  0  0  0  0  0  0  0  0  0  0
   43.1950   32.0970   41.1150 C   0  0  0  0  0  0  0  0  0  0  0  0
   43.9960   32.9680   42.0620 C   0  0  0  0  0  0  0  0  0  0  0  0
   43.7350   35.5770   39.9790 H   0  0  0  0  0  0  0  0  0  0  0  0
   43.3850   35.7420   41.6800 H   0  0  0  0  0  0  0  0  0  0  0  0
   41.5480   34.7910   40.0940 H   0  0  0  0  0  0  0  0  0  0  0  0
   41.7120   34.2340   41.8080 H   0  0  0  0  0  0  0  0  0  0  0  0
   41.4130   32.5080   40.0680 H   0  0  0  0  0  0  0  0  0  0  0  0
   42.6350   31.3660   41.7390 H   0  0  0  0  0  0  0  0  0  0  0  0
   43.8810   31.5080   40.4840 H   0  0  0  0  0  0  0  0  0  0  0  0
   43.3480   33.3430   42.8890 H   0  0  0  0  0  0  0  0  0  0  0  0
   44.8480   32.3520   42.4340 H   0  0  0  0  0  0  0  0  0  0  0  0
   45.9230   33.1760   38.9610 C   0  0  0  0  0  0  0  0  0  0  0  0
   45.3860   33.7970   38.2470 H   0  0  0  0  0  0  0  0  0  0  0  0
   45.1230   32.5890   39.5000 H   0  0  0  0  0  0  0  0  0  0  0  0
   46.8200   32.1990   38.2300 C   0  0  0  0  0  0  0  0  0  0  0  0
   46.7940   31.1920   38.7450 H   0  0  0  0  0  0  0  0  0  0  0  0
   47.8460   32.5060   38.1040 H   0  0  0  0  0  0  0  0  0  0  0  0
   46.4270   32.0390   34.4780 C   0  0  0  0  0  0  0  0  0  0  0  0
   46.9790   32.3040   35.7550 C   0  0  0  0  0  0  0  0  0  0  0  0
   46.2590   31.9360   36.8840 C   0  0  0  0  0  0  0  0  0  0  0  0
   45.0450   31.3350   36.6920 N   0  0  0  0  0  0  0  0  0  0  0  0
   44.5420   31.0960   35.4830 C   0  0  0  0  0  0  0  0  0  0  0  0
   45.2270   31.4450   34.3750 N   0  0  0  0  0  0  0  0  0  0  0  0
   47.0110   32.3370   33.6000 H   0  0  0  0  0  0  0  0  0  0  0  0
   47.9370   32.7780   35.8500 H   0  0  0  0  0  0  0  0  0  0  0  0
   43.2020   30.4310   35.4240 C   0  0  0  0  0  0  0  0  0  0  0  0
   42.6320   30.5270   34.1510 F   0  0  0  0  0  0  0  0  0  0  0  0
   42.2980   31.0320   36.2850 F   0  0  0  0  0  0  0  0  0  0  0  0
   43.2700   29.0790   35.7020 F   0  0  0  0  0  0  0  0  0  0  0  0
  1  6  1  0  0  0  0
  2  1  2  0  0  0  0
  2  3  1  0  0  0  0
  3  4  2  0  0  0  0
  4  5  1  0  0  0  0
  4  9  1  0  0  0  0
  5 10  1  0  0  0  0
  6 11  1  0  0  0  0
  6  5  2  0  0  0  0
  7  2  1  0  0  0  0
  8  3  1  0  0  0  0
 11 16  1  0  0  0  0
 12 11  1  0  0  0  0
 12 18  1  0  0  0  0
 13 12  1  0  0  0  0
 13 20  1  0  0  0  0
 14 13  1  0  0  0  0
 14 15  1  0  0  0  0
 15 22  1  0  0  0  0
 15 16  1  0  0  0  0
 16 25  1  0  0  0  0
 16 24  1  0  0  0  0
 17 12  1  0  0  0  0
 19 13  1  0  0  0  0
 21 14  1  0  0  0  0
 23 15  1  0  0  0  0
 26 28  1  0  0  0  0
 26  1  1  0  0  0  0
 27 26  1  0  0  0  0
 29 30  1  0  0  0  0
 29 26  1  0  0  0  0
 31 29  1  0  0  0  0
 32 33  1  0  0  0  0
 33 39  1  0  0  0  0
 33 34  2  0  0  0  0
 34 29  1  0  0  0  0
 35 34  1  0  0  0  0
 36 35  2  0  0  0  0
 37 32  2  0  0  0  0
 37 36  1  0  0  0  0
 38 32  1  0  0  0  0
 40 36  1  0  0  0  0
 40 43  1  0  0  0  0
 40 42  1  0  0  0  0
 41 40  1  0  0  0  0
M  END
>  <minimizedAffinity>
-4.6505065

>  <minimizedRMSD>
5.84686804

$$$$
