
 OpenBabel03252508233D

 43 45  0  0  0  0  0  0  0  0999 V2000
   46.6470   33.9020   40.0090 C   0  0  0  0  0  0  0  0  0  0  0  0
   47.9930   34.1960   39.9620 C   0  0  0  0  0  0  0  0  0  0  0  0
   48.6720   34.8870   40.9350 C   0  0  0  0  0  0  0  0  0  0  0  0
   47.9050   35.3010   42.0320 C   0  0  0  0  0  0  0  0  0  0  0  0
   46.5690   35.0350   42.1260 C   0  0  0  0  0  0  0  0  0  0  0  0
   45.9360   34.3450   41.1340 C   0  0  0  0  0  0  0  0  0  0  0  0
   48.6520   33.9030   39.1600 H   0  0  0  0  0  0  0  0  0  0  0  0
   49.7130   35.1320   40.9310 H   0  0  0  0  0  0  0  0  0  0  0  0
   48.3930   35.8590   42.8420 H   0  0  0  0  0  0  0  0  0  0  0  0
   46.0450   35.3940   43.0150 H   0  0  0  0  0  0  0  0  0  0  0  0
   44.5560   34.1120   41.3320 N   0  0  0  0  0  0  0  0  0  0  0  0
   43.5140   34.9690   40.8450 C   0  0  0  0  0  0  0  0  0  0  0  0
   42.1900   34.2380   40.7840 C   0  0  0  0  0  0  0  0  0  0  0  0
   42.2940   32.8840   40.3640 N   0  0  0  0  0  0  0  0  0  0  0  0
   43.1920   32.0930   41.1110 C   0  0  0  0  0  0  0  0  0  0  0  0
   43.9860   32.9680   42.0590 C   0  0  0  0  0  0  0  0  0  0  0  0
   43.7330   35.5680   39.9640 H   0  0  0  0  0  0  0  0  0  0  0  0
   43.3730   35.7400   41.6620 H   0  0  0  0  0  0  0  0  0  0  0  0
   41.5470   34.7800   40.0700 H   0  0  0  0  0  0  0  0  0  0  0  0
   41.7020   34.2300   41.7860 H   0  0  0  0  0  0  0  0  0  0  0  0
   41.4150   32.4970   40.0510 H   0  0  0  0  0  0  0  0  0  0  0  0
   42.6300   31.3630   41.7340 H   0  0  0  0  0  0  0  0  0  0  0  0
   43.8820   31.5020   40.4850 H   0  0  0  0  0  0  0  0  0  0  0  0
   43.3330   33.3460   42.8800 H   0  0  0  0  0  0  0  0  0  0  0  0
   44.8370   32.3550   42.4370 H   0  0  0  0  0  0  0  0  0  0  0  0
   45.9300   33.1700   38.9660 C   0  0  0  0  0  0  0  0  0  0  0  0
   45.3710   33.7870   38.2650 H   0  0  0  0  0  0  0  0  0  0  0  0
   45.1500   32.5570   39.5060 H   0  0  0  0  0  0  0  0  0  0  0  0
   46.8410   32.2240   38.2130 C   0  0  0  0  0  0  0  0  0  0  0  0
   46.8510   31.2120   38.7200 H   0  0  0  0  0  0  0  0  0  0  0  0
   47.8570   32.5590   38.0750 H   0  0  0  0  0  0  0  0  0  0  0  0
   46.4220   32.0310   34.4660 C   0  0  0  0  0  0  0  0  0  0  0  0
   46.9870   32.2990   35.7370 C   0  0  0  0  0  0  0  0  0  0  0  0
   46.2670   31.9560   36.8740 C   0  0  0  0  0  0  0  0  0  0  0  0
   45.0420   31.3740   36.6960 N   0  0  0  0  0  0  0  0  0  0  0  0
   44.5280   31.1310   35.4920 C   0  0  0  0  0  0  0  0  0  0  0  0
   45.2120   31.4570   34.3760 N   0  0  0  0  0  0  0  0  0  0  0  0
   47.0060   32.3100   33.5810 H   0  0  0  0  0  0  0  0  0  0  0  0
   47.9530   32.7580   35.8200 H   0  0  0  0  0  0  0  0  0  0  0  0
   43.1760   30.4890   35.4480 C   0  0  0  0  0  0  0  0  0  0  0  0
   43.2320   29.1380   35.8060 F   0  0  0  0  0  0  0  0  0  0  0  0
   42.6430   30.5140   34.1700 F   0  0  0  0  0  0  0  0  0  0  0  0
   42.2840   31.0740   36.3290 F   0  0  0  0  0  0  0  0  0  0  0  0
  1  6  1  0  0  0  0
  2  1  2  0  0  0  0
  2  3  1  0  0  0  0
  3  4  2  0  0  0  0
  4  5  1  0  0  0  0
  4  9  1  0  0  0  0
  5 10  1  0  0  0  0
  6 11  1  0  0  0  0
  6  5  2  0  0  0  0
  7  2  1  0  0  0  0
  8  3  1  0  0  0  0
 11 16  1  0  0  0  0
 12 11  1  0  0  0  0
 12 18  1  0  0  0  0
 13 12  1  0  0  0  0
 13 20  1  0  0  0  0
 14 13  1  0  0  0  0
 14 15  1  0  0  0  0
 15 22  1  0  0  0  0
 15 16  1  0  0  0  0
 16 25  1  0  0  0  0
 16 24  1  0  0  0  0
 17 12  1  0  0  0  0
 19 13  1  0  0  0  0
 21 14  1  0  0  0  0
 23 15  1  0  0  0  0
 26 28  1  0  0  0  0
 26  1  1  0  0  0  0
 27 26  1  0  0  0  0
 29 30  1  0  0  0  0
 29 26  1  0  0  0  0
 31 29  1  0  0  0  0
 32 33  1  0  0  0  0
 33 39  1  0  0  0  0
 33 34  2  0  0  0  0
 34 29  1  0  0  0  0
 35 34  1  0  0  0  0
 36 35  2  0  0  0  0
 37 32  2  0  0  0  0
 37 36  1  0  0  0  0
 38 32  1  0  0  0  0
 40 36  1  0  0  0  0
 40 41  1  0  0  0  0
 40 43  1  0  0  0  0
 42 40  1  0  0  0  0
M  END
>  <minimizedAffinity>
-4.6706543

>  <minimizedRMSD>
5.82741785

$$$$
