
 OpenBabel03252502443D

 26 27  0  0  1  0  0  0  0  0999 V2000
   47.0620   35.1200   41.5920 C   0  0  0  0  0  0  0  0  0  0  0  0
   46.5620   35.3080   40.6190 H   0  0  0  0  0  0  0  0  0  0  0  0
   47.0620   36.0310   42.2270 H   0  0  0  0  0  0  0  0  0  0  0  0
   48.4880   34.7030   41.4030 C   0  0  1  0  0  0  0  0  0  0  0  0
   49.5370   35.5220   42.0860 C   0  0  0  0  0  0  0  0  0  0  0  0
   49.1970   34.1730   42.5780 C   0  0  2  0  0  0  0  0  0  0  0  0
   48.6660   34.3340   40.3580 H   0  0  0  0  0  0  0  0  0  0  0  0
   50.4430   35.6800   41.4600 H   0  0  0  0  0  0  0  0  0  0  0  0
   49.3020   36.4650   42.6180 H   0  0  0  0  0  0  0  0  0  0  0  0
   48.8280   33.8230   43.5140 H   0  0  0  0  0  0  0  0  0  0  0  0
   50.2330   33.1140   42.1520 C   0  0  0  0  0  0  0  0  0  0  0  0
   50.0410   32.8560   40.7900 F   0  0  0  0  0  0  0  0  0  0  0  0
   51.5250   33.5910   42.2440 F   0  0  0  0  0  0  0  0  0  0  0  0
   50.1770   31.9810   42.9070 F   0  0  0  0  0  0  0  0  0  0  0  0
   46.3630   33.9340   42.2090 C   0  0  0  0  0  0  0  0  0  0  0  0
   47.1770   33.3280   42.7200 H   0  0  0  0  0  0  0  0  0  0  0  0
   45.7320   33.3730   41.5380 H   0  0  0  0  0  0  0  0  0  0  0  0
   44.4640   35.9350   44.7390 C   0  0  0  0  0  0  0  0  0  0  0  0
   45.0130   35.5310   43.5090 C   0  0  0  0  0  0  0  0  0  0  0  0
   45.7160   34.3590   43.4860 C   0  0  0  0  0  0  0  0  0  0  0  0
   45.8550   33.6340   44.6310 N   0  0  0  0  0  0  0  0  0  0  0  0
   45.3310   34.0280   45.7800 C   0  0  0  0  0  0  0  0  0  0  0  0
   44.6350   35.1740   45.8490 N   0  0  0  0  0  0  0  0  0  0  0  0
   43.8910   36.8260   44.9180 H   0  0  0  0  0  0  0  0  0  0  0  0
   44.7570   36.2530   42.7580 H   0  0  0  0  0  0  0  0  0  0  0  0
   45.5200   33.3530   46.6130 H   0  0  0  0  0  0  0  0  0  0  0  0
  1 15  1  0  0  0  0
  1  3  1  0  0  0  0
  2  1  1  0  0  0  0
  4  7  1  6  0  0  0
  4  1  1  0  0  0  0
  4  5  1  0  0  0  0
  4  6  1  0  0  0  0
  5  6  1  0  0  0  0
  5  9  1  0  0  0  0
  6 10  1  1  0  0  0
  8  5  1  0  0  0  0
 11 13  1  0  0  0  0
 11  6  1  0  0  0  0
 11 14  1  0  0  0  0
 12 11  1  0  0  0  0
 15 16  1  0  0  0  0
 15 20  1  0  0  0  0
 17 15  1  0  0  0  0
 18 24  1  0  0  0  0
 18 23  1  0  0  0  0
 19 18  2  0  0  0  0
 20 19  1  0  0  0  0
 20 21  2  0  0  0  0
 21 22  1  0  0  0  0
 22 23  2  0  0  0  0
 22 26  1  0  0  0  0
 25 19  1  0  0  0  0
M  END
>  <minimizedAffinity>
-4.6123457

>  <minimizedRMSD>
0.972111702

$$$$
