
 OpenBabel03252508353D

 26 27  0  0  0  0  0  0  0  0999 V2000
   45.3780   34.2150   40.8700 C   0  0  0  0  0  0  0  0  0  0  0  0
   44.9120   33.6090   39.7230 C   0  0  0  0  0  0  0  0  0  0  0  0
   45.8520   33.1200   38.8490 C   0  0  0  0  0  0  0  0  0  0  0  0
   47.2160   33.2120   39.0780 C   0  0  0  0  0  0  0  0  0  0  0  0
   47.6350   33.8250   40.2360 C   0  0  0  0  0  0  0  0  0  0  0  0
   46.7200   34.3320   41.1420 C   0  0  0  0  0  0  0  0  0  0  0  0
   45.4670   32.6470   37.9550 H   0  0  0  0  0  0  0  0  0  0  0  0
   47.9090   32.8070   38.3510 H   0  0  0  0  0  0  0  0  0  0  0  0
   48.7060   33.8900   40.4030 H   0  0  0  0  0  0  0  0  0  0  0  0
   41.4290   34.3190   38.4790 C   0  0  0  0  0  0  0  0  0  0  0  0
   42.8130   34.4040   38.6460 C   0  0  0  0  0  0  0  0  0  0  0  0
   43.4700   33.5390   39.5320 C   0  0  0  0  0  0  0  0  0  0  0  0
   42.6950   32.6510   40.1880 N   0  0  0  0  0  0  0  0  0  0  0  0
   41.3680   32.5800   40.0170 C   0  0  0  0  0  0  0  0  0  0  0  0
   40.7440   33.4100   39.1680 N   0  0  0  0  0  0  0  0  0  0  0  0
   40.8010   35.2020   37.5820 N   0  0  0  0  0  0  0  0  0  0  0  0
   43.3800   35.1240   38.1040 H   0  0  0  0  0  0  0  0  0  0  0  0
   40.7180   31.8750   40.5310 H   0  0  0  0  0  0  0  0  0  0  0  0
   41.3490   35.7790   36.9030 H   0  0  0  0  0  0  0  0  0  0  0  0
   39.7590   35.3110   37.5630 H   0  0  0  0  0  0  0  0  0  0  0  0
   47.1710   34.9940   42.3940 C   0  0  0  0  0  0  0  0  0  0  0  0
   46.8610   34.2750   43.5290 F   0  0  0  0  0  0  0  0  0  0  0  0
   46.5060   36.2100   42.5310 F   0  0  0  0  0  0  0  0  0  0  0  0
   48.5500   35.1830   42.3100 F   0  0  0  0  0  0  0  0  0  0  0  0
   43.6840   35.1940   42.6130 N   0  0  0  0  0  0  0  0  0  0  0  0
   44.4540   34.7520   41.8320 C   0  0  0  0  0  0  0  0  0  0  0  0
  1  6  1  0  0  0  0
  1 26  1  0  0  0  0
  2  1  2  0  0  0  0
  3  4  2  0  0  0  0
  3  2  1  0  0  0  0
  4  5  1  0  0  0  0
  5  9  1  0  0  0  0
  5  6  2  0  0  0  0
  6 21  1  0  0  0  0
  7  3  1  0  0  0  0
  8  4  1  0  0  0  0
 10 11  2  0  0  0  0
 10 15  1  0  0  0  0
 11 12  1  0  0  0  0
 12  2  1  0  0  0  0
 12 13  2  0  0  0  0
 14 13  1  0  0  0  0
 14 18  1  0  0  0  0
 15 14  2  0  0  0  0
 16 10  1  0  0  0  0
 17 11  1  0  0  0  0
 19 16  1  0  0  0  0
 20 16  1  0  0  0  0
 21 23  1  0  0  0  0
 21 22  1  0  0  0  0
 24 21  1  0  0  0  0
 26 25  3  0  0  0  0
M  END
>  <minimizedAffinity>
-4.63189983

>  <minimizedRMSD>
4.7928834

$$$$
