
 OpenBabel03252508363D

 26 27  0  0  0  0  0  0  0  0999 V2000
   45.2500   34.3090   41.2830 C   0  0  0  0  0  0  0  0  0  0  0  0
   44.3240   33.8400   40.3740 C   0  0  0  0  0  0  0  0  0  0  0  0
   44.8110   33.2890   39.2140 C   0  0  0  0  0  0  0  0  0  0  0  0
   46.1650   33.1900   38.9360 C   0  0  0  0  0  0  0  0  0  0  0  0
   47.0520   33.6710   39.8700 C   0  0  0  0  0  0  0  0  0  0  0  0
   46.6020   34.2340   41.0520 C   0  0  0  0  0  0  0  0  0  0  0  0
   44.0690   32.9270   38.5140 H   0  0  0  0  0  0  0  0  0  0  0  0
   46.4880   32.7450   38.0030 H   0  0  0  0  0  0  0  0  0  0  0  0
   48.1100   33.5870   39.6400 H   0  0  0  0  0  0  0  0  0  0  0  0
   40.8730   35.2720   40.8460 C   0  0  0  0  0  0  0  0  0  0  0  0
   42.2250   35.1720   40.5100 C   0  0  0  0  0  0  0  0  0  0  0  0
   42.9150   33.9690   40.7170 C   0  0  0  0  0  0  0  0  0  0  0  0
   42.2020   32.9530   41.2460 N   0  0  0  0  0  0  0  0  0  0  0  0
   40.9050   33.0640   41.5630 C   0  0  0  0  0  0  0  0  0  0  0  0
   40.2500   34.2170   41.3640 N   0  0  0  0  0  0  0  0  0  0  0  0
   40.2110   36.4940   40.6260 N   0  0  0  0  0  0  0  0  0  0  0  0
   42.7430   36.0050   40.0950 H   0  0  0  0  0  0  0  0  0  0  0  0
   40.3060   32.2630   41.9910 H   0  0  0  0  0  0  0  0  0  0  0  0
   40.6380   37.2550   40.0490 H   0  0  0  0  0  0  0  0  0  0  0  0
   39.2640   36.6820   41.0330 H   0  0  0  0  0  0  0  0  0  0  0  0
   47.5600   34.7530   42.0630 C   0  0  0  0  0  0  0  0  0  0  0  0
   48.8780   34.6010   41.6880 F   0  0  0  0  0  0  0  0  0  0  0  0
   47.4220   34.0200   43.2390 F   0  0  0  0  0  0  0  0  0  0  0  0
   47.2770   36.1000   42.2750 F   0  0  0  0  0  0  0  0  0  0  0  0
   44.4630   35.3750   43.5430 N   0  0  0  0  0  0  0  0  0  0  0  0
   44.8160   34.8990   42.5190 C   0  0  0  0  0  0  0  0  0  0  0  0
  1 26  1  0  0  0  0
  2 12  1  0  0  0  0
  2  1  2  0  0  0  0
  3  2  1  0  0  0  0
  4  3  2  0  0  0  0
  4  5  1  0  0  0  0
  5  6  2  0  0  0  0
  6  1  1  0  0  0  0
  6 21  1  0  0  0  0
  7  3  1  0  0  0  0
  8  4  1  0  0  0  0
  9  5  1  0  0  0  0
 10 15  1  0  0  0  0
 11 12  1  0  0  0  0
 11 10  2  0  0  0  0
 12 13  2  0  0  0  0
 13 14  1  0  0  0  0
 14 18  1  0  0  0  0
 15 14  2  0  0  0  0
 16 10  1  0  0  0  0
 16 20  1  0  0  0  0
 17 11  1  0  0  0  0
 19 16  1  0  0  0  0
 21 24  1  0  0  0  0
 21 23  1  0  0  0  0
 22 21  1  0  0  0  0
 26 25  3  0  0  0  0
M  END
>  <minimizedAffinity>
-4.80468321

>  <minimizedRMSD>
4.23041439

$$$$
