
 OpenBabel03252508323D

 27 28  0  0  1  0  0  0  0  0999 V2000
   44.4490   34.4740   41.8850 N   0  0  0  0  0  0  0  0  0  0  0  0
   44.9460   33.5740   40.9080 C   0  0  1  0  0  0  0  0  0  0  0  0
   44.3260   33.6820   39.5540 C   0  0  0  0  0  0  0  0  0  0  0  0
   43.0290   34.1890   39.4340 N   0  0  0  0  0  0  0  0  0  0  0  0
   42.5710   35.0550   40.4380 C   0  0  0  0  0  0  0  0  0  0  0  0
   43.6790   35.5380   41.3230 C   0  0  0  0  0  0  0  0  0  0  0  0
   44.8360   32.5280   41.2590 H   0  0  0  0  0  0  0  0  0  0  0  0
   44.9980   34.3440   38.9210 H   0  0  0  0  0  0  0  0  0  0  0  0
   44.3480   32.6650   39.0810 H   0  0  0  0  0  0  0  0  0  0  0  0
   42.8860   34.6240   38.5020 H   0  0  0  0  0  0  0  0  0  0  0  0
   41.9040   34.4430   41.1160 H   0  0  0  0  0  0  0  0  0  0  0  0
   41.9420   35.8930   40.1150 H   0  0  0  0  0  0  0  0  0  0  0  0
   43.3550   36.3330   42.0140 H   0  0  0  0  0  0  0  0  0  0  0  0
   44.3880   36.0850   40.6280 H   0  0  0  0  0  0  0  0  0  0  0  0
   44.5140   35.3500   44.0970 C   0  0  0  0  0  0  0  0  0  0  0  0
   44.7630   34.2560   43.2410 C   0  0  0  0  0  0  0  0  0  0  0  0
   45.3140   33.1080   43.7770 C   0  0  0  0  0  0  0  0  0  0  0  0
   45.6150   33.0230   45.0990 N   0  0  0  0  0  0  0  0  0  0  0  0
   45.3680   34.0950   45.9180 C   0  0  0  0  0  0  0  0  0  0  0  0
   44.8290   35.2290   45.4220 N   0  0  0  0  0  0  0  0  0  0  0  0
   44.0990   36.3120   43.8860 H   0  0  0  0  0  0  0  0  0  0  0  0
   45.4930   32.2690   43.1600 H   0  0  0  0  0  0  0  0  0  0  0  0
   45.6090   34.0290   46.9770 H   0  0  0  0  0  0  0  0  0  0  0  0
   46.4550   33.8000   40.6560 C   0  0  0  0  0  0  0  0  0  0  0  0
   47.2560   32.8690   41.2140 F   0  0  0  0  0  0  0  0  0  0  0  0
   46.8140   35.0140   41.2590 F   0  0  0  0  0  0  0  0  0  0  0  0
   46.6750   34.0030   39.3060 F   0  0  0  0  0  0  0  0  0  0  0  0
  1 16  1  0  0  0  0
  2  7  1  1  0  0  0
  2  1  1  0  0  0  0
  3  2  1  0  0  0  0
  4  3  1  0  0  0  0
  4  5  1  0  0  0  0
  5 11  1  0  0  0  0
  5  6  1  0  0  0  0
  6  1  1  0  0  0  0
  6 13  1  0  0  0  0
  8  3  1  0  0  0  0
  9  3  1  0  0  0  0
 10  4  1  0  0  0  0
 12  5  1  0  0  0  0
 14  6  1  0  0  0  0
 15 20  1  0  0  0  0
 16 17  1  0  0  0  0
 16 15  2  0  0  0  0
 17 18  2  0  0  0  0
 18 19  1  0  0  0  0
 19 23  1  0  0  0  0
 20 19  2  0  0  0  0
 21 15  1  0  0  0  0
 22 17  1  0  0  0  0
 24  2  1  0  0  0  0
 24 25  1  0  0  0  0
 24 26  1  0  0  0  0
 27 24  1  0  0  0  0
M  END
>  <minimizedAffinity>
-4.05422592

>  <minimizedRMSD>
0.451780409

$$$$
