
 OpenBabel03252503143D

 29 31  0  0  0  0  0  0  0  0999 V2000
   40.0350   32.9800   40.1180 C   0  0  0  0  0  0  0  0  0  0  0  0
   39.1090   32.0430   39.6250 C   0  0  0  0  0  0  0  0  0  0  0  0
   39.3660   31.5890   38.3390 C   0  0  0  0  0  0  0  0  0  0  0  0
   40.4130   32.0040   37.6130 N   0  0  0  0  0  0  0  0  0  0  0  0
   41.2840   32.9140   38.1350 C   0  0  0  0  0  0  0  0  0  0  0  0
   41.0900   33.3940   39.3790 N   0  0  0  0  0  0  0  0  0  0  0  0
   39.9020   33.3810   41.1140 H   0  0  0  0  0  0  0  0  0  0  0  0
   42.1360   33.2690   37.5760 H   0  0  0  0  0  0  0  0  0  0  0  0
   38.4820   30.6540   37.7780 C   0  0  0  0  0  0  0  0  0  0  0  0
   37.3240   30.7160   37.0610 C   0  0  0  0  0  0  0  0  0  0  0  0
   36.6550   29.6640   36.6300 C   0  0  0  0  0  0  0  0  0  0  0  0
   37.1920   28.4580   36.9460 C   0  0  0  0  0  0  0  0  0  0  0  0
   38.7100   28.8890   37.8940 S   0  0  0  0  0  0  0  0  0  0  0  0
   36.9910   31.7590   36.8690 H   0  0  0  0  0  0  0  0  0  0  0  0
   35.7390   29.6820   36.0630 H   0  0  0  0  0  0  0  0  0  0  0  0
   36.7570   27.3960   36.6610 H   0  0  0  0  0  0  0  0  0  0  0  0
   38.0220   31.6390   40.4350 C   0  0  0  0  0  0  0  0  0  0  0  0
   36.9520   32.3230   40.3030 O   0  0  0  0  0  0  0  0  0  0  0  0
   38.1660   30.4770   41.3720 C   0  0  0  0  0  0  0  0  0  0  0  0
   39.1390   30.3120   42.3300 C   0  0  0  0  0  0  0  0  0  0  0  0
   38.8730   29.1330   42.9250 N   0  0  0  0  0  0  0  0  0  0  0  0
   37.7680   28.5970   42.3450 C   0  0  0  0  0  0  0  0  0  0  0  0
   37.3260   29.4340   41.3770 N   0  0  0  0  0  0  0  0  0  0  0  0
   39.9460   30.9990   42.5470 H   0  0  0  0  0  0  0  0  0  0  0  0
   39.4030   28.6740   43.7050 H   0  0  0  0  0  0  0  0  0  0  0  0
   37.1620   27.2790   42.7430 C   0  0  0  0  0  0  0  0  0  0  0  0
   38.1640   26.4380   43.2000 F   0  0  0  0  0  0  0  0  0  0  0  0
   36.1830   27.4300   43.6800 F   0  0  0  0  0  0  0  0  0  0  0  0
   36.5840   26.6400   41.6600 F   0  0  0  0  0  0  0  0  0  0  0  0
  1  7  1  0  0  0  0
  2  1  1  0  0  0  0
  2 17  1  0  0  0  0
  3  2  2  0  0  0  0
  4  5  2  0  0  0  0
  4  3  1  0  0  0  0
  5  6  1  0  0  0  0
  6  1  2  0  0  0  0
  8  5  1  0  0  0  0
  9 13  1  0  0  0  0
  9  3  1  0  0  0  0
 10  9  2  0  0  0  0
 11 12  2  0  0  0  0
 11 10  1  0  0  0  0
 12 13  1  0  0  0  0
 14 10  1  0  0  0  0
 15 11  1  0  0  0  0
 16 12  1  0  0  0  0
 17 19  1  0  0  0  0
 18 17  2  0  0  0  0
 19 23  1  0  0  0  0
 19 20  2  0  0  0  0
 20 24  1  0  0  0  0
 20 21  1  0  0  0  0
 21 25  1  0  0  0  0
 22 26  1  0  0  0  0
 22 21  1  0  0  0  0
 23 22  2  0  0  0  0
 26 27  1  0  0  0  0
 26 28  1  0  0  0  0
 29 26  1  0  0  0  0
M  END
>  <minimizedAffinity>
-5.12948132

$$$$

 OpenBabel03252503143D

 29 31  0  0  0  0  0  0  0  0999 V2000
   39.2180   31.7880   41.4200 C   0  0  0  0  0  0  0  0  0  0  0  0
   38.3500   30.9680   40.6770 C   0  0  0  0  0  0  0  0  0  0  0  0
   38.6240   30.9090   39.3180 C   0  0  0  0  0  0  0  0  0  0  0  0
   39.6340   31.5780   38.7460 N   0  0  0  0  0  0  0  0  0  0  0  0
   40.4490   32.3600   39.5090 C   0  0  0  0  0  0  0  0  0  0  0  0
   40.2370   32.4590   40.8350 N   0  0  0  0  0  0  0  0  0  0  0  0
   39.0700   31.8860   42.4880 H   0  0  0  0  0  0  0  0  0  0  0  0
   41.2720   32.9110   39.0780 H   0  0  0  0  0  0  0  0  0  0  0  0
   37.7960   30.1130   38.5100 C   0  0  0  0  0  0  0  0  0  0  0  0
   36.5780   30.2630   37.9140 C   0  0  0  0  0  0  0  0  0  0  0  0
   35.9880   29.3420   37.1790 C   0  0  0  0  0  0  0  0  0  0  0  0
   36.6750   28.1800   37.0310 C   0  0  0  0  0  0  0  0  0  0  0  0
   38.2180   28.4580   37.9960 S   0  0  0  0  0  0  0  0  0  0  0  0
   36.1220   31.2580   38.1120 H   0  0  0  0  0  0  0  0  0  0  0  0
   35.0290   29.4320   36.6970 H   0  0  0  0  0  0  0  0  0  0  0  0
   36.3310   27.2310   36.4170 H   0  0  0  0  0  0  0  0  0  0  0  0
   37.2990   30.2840   41.3330 C   0  0  0  0  0  0  0  0  0  0  0  0
   36.1600   30.8590   41.2950 O   0  0  0  0  0  0  0  0  0  0  0  0
   37.5560   28.9730   42.0120 C   0  0  0  0  0  0  0  0  0  0  0  0
   38.0780   28.7900   43.2710 C   0  0  0  0  0  0  0  0  0  0  0  0
   38.1300   27.4570   43.4590 N   0  0  0  0  0  0  0  0  0  0  0  0
   37.6510   26.8470   42.3440 C   0  0  0  0  0  0  0  0  0  0  0  0
   37.2920   27.7900   41.4420 N   0  0  0  0  0  0  0  0  0  0  0  0
   38.3810   29.5700   43.9580 H   0  0  0  0  0  0  0  0  0  0  0  0
   38.4720   26.9410   44.3050 H   0  0  0  0  0  0  0  0  0  0  0  0
   37.5500   25.3550   42.1770 C   0  0  0  0  0  0  0  0  0  0  0  0
   38.6170   24.7530   42.8260 F   0  0  0  0  0  0  0  0  0  0  0  0
   36.3610   24.8700   42.6330 F   0  0  0  0  0  0  0  0  0  0  0  0
   37.6490   24.9880   40.8470 F   0  0  0  0  0  0  0  0  0  0  0  0
  1  7  1  0  0  0  0
  2 17  1  0  0  0  0
  2  1  2  0  0  0  0
  3  2  1  0  0  0  0
  4  3  2  0  0  0  0
  4  5  1  0  0  0  0
  5  6  2  0  0  0  0
  6  1  1  0  0  0  0
  8  5  1  0  0  0  0
  9  3  1  0  0  0  0
 10 14  1  0  0  0  0
 10  9  2  0  0  0  0
 11 10  1  0  0  0  0
 12 11  2  0  0  0  0
 12 13  1  0  0  0  0
 13  9  1  0  0  0  0
 15 11  1  0  0  0  0
 16 12  1  0  0  0  0
 17 19  1  0  0  0  0
 18 17  2  0  0  0  0
 19 20  2  0  0  0  0
 20 21  1  0  0  0  0
 20 24  1  0  0  0  0
 21 25  1  0  0  0  0
 22 21  1  0  0  0  0
 23 19  1  0  0  0  0
 23 22  2  0  0  0  0
 26 22  1  0  0  0  0
 26 28  1  0  0  0  0
 26 27  1  0  0  0  0
 29 26  1  0  0  0  0
M  END
>  <minimizedAffinity>
-5.09792328

$$$$

 OpenBabel03252503143D

 29 31  0  0  0  0  0  0  0  0999 V2000
   39.1850   27.9290   37.1560 C   0  0  0  0  0  0  0  0  0  0  0  0
   38.4930   28.9750   37.7930 C   0  0  0  0  0  0  0  0  0  0  0  0
   39.2550   30.1050   38.0520 C   0  0  0  0  0  0  0  0  0  0  0  0
   40.5510   30.2040   37.7260 N   0  0  0  0  0  0  0  0  0  0  0  0
   41.1770   29.1620   37.1090 C   0  0  0  0  0  0  0  0  0  0  0  0
   40.4930   28.0360   36.8300 N   0  0  0  0  0  0  0  0  0  0  0  0
   38.6580   27.0130   36.9210 H   0  0  0  0  0  0  0  0  0  0  0  0
   42.2200   29.2100   36.8340 H   0  0  0  0  0  0  0  0  0  0  0  0
   38.6340   31.1910   38.6900 C   0  0  0  0  0  0  0  0  0  0  0  0
   37.6890   32.1120   38.3480 C   0  0  0  0  0  0  0  0  0  0  0  0
   37.2530   33.0670   39.1450 C   0  0  0  0  0  0  0  0  0  0  0  0
   37.8120   33.0990   40.3830 C   0  0  0  0  0  0  0  0  0  0  0  0
   38.9990   31.6920   40.3630 S   0  0  0  0  0  0  0  0  0  0  0  0
   37.3120   31.9780   37.3100 H   0  0  0  0  0  0  0  0  0  0  0  0
   36.5090   33.8080   38.9030 H   0  0  0  0  0  0  0  0  0  0  0  0
   37.5670   33.8670   41.2470 H   0  0  0  0  0  0  0  0  0  0  0  0
   37.1240   28.8170   38.1150 C   0  0  0  0  0  0  0  0  0  0  0  0
   36.3220   28.8060   37.1210 O   0  0  0  0  0  0  0  0  0  0  0  0
   36.6930   28.6780   39.5440 C   0  0  0  0  0  0  0  0  0  0  0  0
   35.6570   29.3420   40.1570 C   0  0  0  0  0  0  0  0  0  0  0  0
   35.6410   28.9050   41.4310 N   0  0  0  0  0  0  0  0  0  0  0  0
   36.6400   27.9990   41.5870 C   0  0  0  0  0  0  0  0  0  0  0  0
   37.2960   27.8550   40.4120 N   0  0  0  0  0  0  0  0  0  0  0  0
   34.9990   30.0670   39.6940 H   0  0  0  0  0  0  0  0  0  0  0  0
   34.9860   29.1900   42.1980 H   0  0  0  0  0  0  0  0  0  0  0  0
   36.9380   27.2870   42.8780 C   0  0  0  0  0  0  0  0  0  0  0  0
   37.3350   25.9880   42.5990 F   0  0  0  0  0  0  0  0  0  0  0  0
   37.8800   27.9400   43.6150 F   0  0  0  0  0  0  0  0  0  0  0  0
   35.8090   27.1850   43.6720 F   0  0  0  0  0  0  0  0  0  0  0  0
  1  2  1  0  0  0  0
  2  3  2  0  0  0  0
  2 17  1  0  0  0  0
  3  9  1  0  0  0  0
  4  3  1  0  0  0  0
  5  4  2  0  0  0  0
  6  5  1  0  0  0  0
  6  1  2  0  0  0  0
  7  1  1  0  0  0  0
  8  5  1  0  0  0  0
  9 13  1  0  0  0  0
 10  9  2  0  0  0  0
 10 11  1  0  0  0  0
 11 12  2  0  0  0  0
 12 16  1  0  0  0  0
 13 12  1  0  0  0  0
 14 10  1  0  0  0  0
 15 11  1  0  0  0  0
 17 19  1  0  0  0  0
 18 17  2  0  0  0  0
 19 20  2  0  0  0  0
 19 23  1  0  0  0  0
 20 21  1  0  0  0  0
 21 22  1  0  0  0  0
 21 25  1  0  0  0  0
 22 26  1  0  0  0  0
 23 22  2  0  0  0  0
 24 20  1  0  0  0  0
 26 28  1  0  0  0  0
 26 29  1  0  0  0  0
 27 26  1  0  0  0  0
M  END
>  <minimizedAffinity>
-5.0902853

$$$$

 OpenBabel03252503143D

 29 31  0  0  0  0  0  0  0  0999 V2000
   39.2950   27.3080   43.6270 C   0  0  0  0  0  0  0  0  0  0  0  0
   38.3030   26.8430   42.7450 C   0  0  0  0  0  0  0  0  0  0  0  0
   38.6870   25.7760   41.9460 C   0  0  0  0  0  0  0  0  0  0  0  0
   39.9060   25.2220   42.0020 N   0  0  0  0  0  0  0  0  0  0  0  0
   40.8330   25.7080   42.8750 C   0  0  0  0  0  0  0  0  0  0  0  0
   40.5230   26.7440   43.6780 N   0  0  0  0  0  0  0  0  0  0  0  0
   39.0710   28.1390   44.2840 H   0  0  0  0  0  0  0  0  0  0  0  0
   41.8240   25.2840   42.9440 H   0  0  0  0  0  0  0  0  0  0  0  0
   37.7510   25.2590   41.0360 C   0  0  0  0  0  0  0  0  0  0  0  0
   36.7570   24.3260   41.0840 C   0  0  0  0  0  0  0  0  0  0  0  0
   35.9860   24.0040   40.0640 C   0  0  0  0  0  0  0  0  0  0  0  0
   36.2340   24.6700   38.9070 C   0  0  0  0  0  0  0  0  0  0  0  0
   37.6300   25.7910   39.3380 S   0  0  0  0  0  0  0  0  0  0  0  0
   36.6560   23.8550   42.0860 H   0  0  0  0  0  0  0  0  0  0  0  0
   35.1950   23.2730   40.0710 H   0  0  0  0  0  0  0  0  0  0  0  0
   35.6650   24.5360   37.8800 H   0  0  0  0  0  0  0  0  0  0  0  0
   37.0320   27.4650   42.7280 C   0  0  0  0  0  0  0  0  0  0  0  0
   36.2060   27.0550   43.6110 O   0  0  0  0  0  0  0  0  0  0  0  0
   36.7230   28.5290   41.7180 C   0  0  0  0  0  0  0  0  0  0  0  0
   35.5800   28.6350   40.9610 C   0  0  0  0  0  0  0  0  0  0  0  0
   35.7410   29.7350   40.2010 N   0  0  0  0  0  0  0  0  0  0  0  0
   36.9490   30.2840   40.4900 C   0  0  0  0  0  0  0  0  0  0  0  0
   37.5620   29.5340   41.4360 N   0  0  0  0  0  0  0  0  0  0  0  0
   34.7330   27.9600   40.9830 H   0  0  0  0  0  0  0  0  0  0  0  0
   35.0730   30.1320   39.4980 H   0  0  0  0  0  0  0  0  0  0  0  0
   37.4860   31.5300   39.8400 C   0  0  0  0  0  0  0  0  0  0  0  0
   36.9320   31.6570   38.5760 F   0  0  0  0  0  0  0  0  0  0  0  0
   37.2500   32.6410   40.5940 F   0  0  0  0  0  0  0  0  0  0  0  0
   38.8560   31.4550   39.6570 F   0  0  0  0  0  0  0  0  0  0  0  0
  1  6  1  0  0  0  0
  1  7  1  0  0  0  0
  2  1  2  0  0  0  0
  3  4  2  0  0  0  0
  3  2  1  0  0  0  0
  4  5  1  0  0  0  0
  5  8  1  0  0  0  0
  5  6  2  0  0  0  0
  9 10  2  0  0  0  0
  9  3  1  0  0  0  0
 10 14  1  0  0  0  0
 11 15  1  0  0  0  0
 11 10  1  0  0  0  0
 12 13  1  0  0  0  0
 12 11  2  0  0  0  0
 13  9  1  0  0  0  0
 16 12  1  0  0  0  0
 17  2  1  0  0  0  0
 17 18  2  0  0  0  0
 19 17  1  0  0  0  0
 20 24  1  0  0  0  0
 20 19  2  0  0  0  0
 21 22  1  0  0  0  0
 21 20  1  0  0  0  0
 22 23  2  0  0  0  0
 23 19  1  0  0  0  0
 25 21  1  0  0  0  0
 26 22  1  0  0  0  0
 26 28  1  0  0  0  0
 27 26  1  0  0  0  0
 29 26  1  0  0  0  0
M  END
>  <minimizedAffinity>
-5.0818243

$$$$

 OpenBabel03252503143D

 29 31  0  0  0  0  0  0  0  0999 V2000
   35.6190   29.5400   38.2730 C   0  0  0  0  0  0  0  0  0  0  0  0
   36.2360   29.4770   39.5350 C   0  0  0  0  0  0  0  0  0  0  0  0
   36.5150   28.1950   39.9850 C   0  0  0  0  0  0  0  0  0  0  0  0
   36.2240   27.0920   39.2800 N   0  0  0  0  0  0  0  0  0  0  0  0
   35.6260   27.2060   38.0600 C   0  0  0  0  0  0  0  0  0  0  0  0
   35.3290   28.4230   37.5670 N   0  0  0  0  0  0  0  0  0  0  0  0
   35.3700   30.5060   37.8530 H   0  0  0  0  0  0  0  0  0  0  0  0
   35.3790   26.3380   37.4680 H   0  0  0  0  0  0  0  0  0  0  0  0
   37.1280   28.0520   41.2410 C   0  0  0  0  0  0  0  0  0  0  0  0
   36.7030   27.7820   42.5080 C   0  0  0  0  0  0  0  0  0  0  0  0
   37.4940   27.6960   43.5590 C   0  0  0  0  0  0  0  0  0  0  0  0
   38.8150   27.8960   43.3160 C   0  0  0  0  0  0  0  0  0  0  0  0
   38.8840   28.2170   41.5050 S   0  0  0  0  0  0  0  0  0  0  0  0
   35.6020   27.6380   42.5720 H   0  0  0  0  0  0  0  0  0  0  0  0
   37.1880   27.4850   44.5700 H   0  0  0  0  0  0  0  0  0  0  0  0
   39.6900   27.8640   44.1100 H   0  0  0  0  0  0  0  0  0  0  0  0
   36.5210   30.6730   40.2370 C   0  0  0  0  0  0  0  0  0  0  0  0
   35.8580   30.8520   41.3130 O   0  0  0  0  0  0  0  0  0  0  0  0
   37.5440   31.6340   39.7100 C   0  0  0  0  0  0  0  0  0  0  0  0
   37.4380   33.0050   39.6740 C   0  0  0  0  0  0  0  0  0  0  0  0
   38.5840   33.4480   39.1220 N   0  0  0  0  0  0  0  0  0  0  0  0
   39.3650   32.3760   38.8330 C   0  0  0  0  0  0  0  0  0  0  0  0
   38.7180   31.2440   39.1990 N   0  0  0  0  0  0  0  0  0  0  0  0
   36.5970   33.5920   40.0210 H   0  0  0  0  0  0  0  0  0  0  0  0
   38.8630   34.4410   38.9340 H   0  0  0  0  0  0  0  0  0  0  0  0
   40.7290   32.4710   38.2040 C   0  0  0  0  0  0  0  0  0  0  0  0
   41.5960   31.6190   38.8710 F   0  0  0  0  0  0  0  0  0  0  0  0
   40.6970   32.1920   36.8710 F   0  0  0  0  0  0  0  0  0  0  0  0
   41.2590   33.7420   38.3350 F   0  0  0  0  0  0  0  0  0  0  0  0
  1  2  1  0  0  0  0
  2  3  2  0  0  0  0
  2 17  1  0  0  0  0
  3  9  1  0  0  0  0
  4  3  1  0  0  0  0
  5  4  2  0  0  0  0
  6  5  1  0  0  0  0
  6  1  2  0  0  0  0
  7  1  1  0  0  0  0
  8  5  1  0  0  0  0
  9 13  1  0  0  0  0
  9 10  2  0  0  0  0
 10 14  1  0  0  0  0
 10 11  1  0  0  0  0
 11 15  1  0  0  0  0
 12 11  2  0  0  0  0
 12 16  1  0  0  0  0
 13 12  1  0  0  0  0
 17 18  2  0  0  0  0
 19 17  1  0  0  0  0
 20 19  2  0  0  0  0
 20 24  1  0  0  0  0
 21 20  1  0  0  0  0
 22 21  1  0  0  0  0
 22 23  2  0  0  0  0
 23 19  1  0  0  0  0
 25 21  1  0  0  0  0
 26 29  1  0  0  0  0
 26 22  1  0  0  0  0
 26 27  1  0  0  0  0
 28 26  1  0  0  0  0
M  END
>  <minimizedAffinity>
-5.0730238

$$$$

 OpenBabel03252503143D

 29 31  0  0  0  0  0  0  0  0999 V2000
   35.5840   26.8970   38.0290 C   0  0  0  0  0  0  0  0  0  0  0  0
   35.9370   27.5510   39.2230 C   0  0  0  0  0  0  0  0  0  0  0  0
   36.7160   26.8010   40.0920 C   0  0  0  0  0  0  0  0  0  0  0  0
   37.1090   25.5470   39.8240 N   0  0  0  0  0  0  0  0  0  0  0  0
   36.7410   24.9560   38.6520 C   0  0  0  0  0  0  0  0  0  0  0  0
   35.9840   25.6320   37.7670 N   0  0  0  0  0  0  0  0  0  0  0  0
   34.9760   27.4180   37.3000 H   0  0  0  0  0  0  0  0  0  0  0  0
   37.0410   23.9490   38.4080 H   0  0  0  0  0  0  0  0  0  0  0  0
   37.1050   27.3860   41.3070 C   0  0  0  0  0  0  0  0  0  0  0  0
   36.5580   27.5060   42.5510 C   0  0  0  0  0  0  0  0  0  0  0  0
   37.1350   28.1220   43.5640 C   0  0  0  0  0  0  0  0  0  0  0  0
   38.3560   28.6580   43.3070 C   0  0  0  0  0  0  0  0  0  0  0  0
   38.6520   28.2440   41.5380 S   0  0  0  0  0  0  0  0  0  0  0  0
   35.5600   27.0240   42.6300 H   0  0  0  0  0  0  0  0  0  0  0  0
   36.7290   28.2320   44.5550 H   0  0  0  0  0  0  0  0  0  0  0  0
   39.0410   29.2490   44.0680 H   0  0  0  0  0  0  0  0  0  0  0  0
   35.4960   28.8760   39.4540 C   0  0  0  0  0  0  0  0  0  0  0  0
   34.3340   28.9880   39.9720 O   0  0  0  0  0  0  0  0  0  0  0  0
   36.3710   30.0390   39.0970 C   0  0  0  0  0  0  0  0  0  0  0  0
   36.9040   30.3160   37.8600 C   0  0  0  0  0  0  0  0  0  0  0  0
   37.6170   31.4490   38.0110 N   0  0  0  0  0  0  0  0  0  0  0  0
   37.5190   31.8500   39.3040 C   0  0  0  0  0  0  0  0  0  0  0  0
   36.7420   30.9730   39.9830 N   0  0  0  0  0  0  0  0  0  0  0  0
   36.7680   29.7310   36.9600 H   0  0  0  0  0  0  0  0  0  0  0  0
   38.1650   31.9630   37.2800 H   0  0  0  0  0  0  0  0  0  0  0  0
   38.1830   33.0810   39.8580 C   0  0  0  0  0  0  0  0  0  0  0  0
   39.3410   33.3340   39.1390 F   0  0  0  0  0  0  0  0  0  0  0  0
   37.3500   34.1610   39.8420 F   0  0  0  0  0  0  0  0  0  0  0  0
   38.5750   32.8980   41.1720 F   0  0  0  0  0  0  0  0  0  0  0  0
  1  2  1  0  0  0  0
  2 17  1  0  0  0  0
  2  3  2  0  0  0  0
  3  9  1  0  0  0  0
  4  3  1  0  0  0  0
  5  4  2  0  0  0  0
  6  1  2  0  0  0  0
  6  5  1  0  0  0  0
  7  1  1  0  0  0  0
  8  5  1  0  0  0  0
  9 13  1  0  0  0  0
  9 10  2  0  0  0  0
 10 14  1  0  0  0  0
 10 11  1  0  0  0  0
 11 15  1  0  0  0  0
 12 11  2  0  0  0  0
 12 16  1  0  0  0  0
 13 12  1  0  0  0  0
 17 18  2  0  0  0  0
 19 17  1  0  0  0  0
 19 23  1  0  0  0  0
 20 21  1  0  0  0  0
 20 19  2  0  0  0  0
 21 22  1  0  0  0  0
 22 26  1  0  0  0  0
 22 23  2  0  0  0  0
 24 20  1  0  0  0  0
 25 21  1  0  0  0  0
 26 29  1  0  0  0  0
 27 26  1  0  0  0  0
 28 26  1  0  0  0  0
M  END
>  <minimizedAffinity>
-5.06448174

$$$$

 OpenBabel03252503143D

 29 31  0  0  0  0  0  0  0  0999 V2000
   36.0920   29.4240   38.5180 C   0  0  0  0  0  0  0  0  0  0  0  0
   36.8150   30.3520   39.2880 C   0  0  0  0  0  0  0  0  0  0  0  0
   37.5870   31.2420   38.5560 C   0  0  0  0  0  0  0  0  0  0  0  0
   37.6490   31.2280   37.2170 N   0  0  0  0  0  0  0  0  0  0  0  0
   36.9280   30.3080   36.5150 C   0  0  0  0  0  0  0  0  0  0  0  0
   36.1590   29.4160   37.1670 N   0  0  0  0  0  0  0  0  0  0  0  0
   35.4660   28.6960   39.0170 H   0  0  0  0  0  0  0  0  0  0  0  0
   36.9560   30.2710   35.4360 H   0  0  0  0  0  0  0  0  0  0  0  0
   38.3410   32.1980   39.2570 C   0  0  0  0  0  0  0  0  0  0  0  0
   38.1010   33.4320   39.7860 C   0  0  0  0  0  0  0  0  0  0  0  0
   38.9990   34.1590   40.4210 C   0  0  0  0  0  0  0  0  0  0  0  0
   40.2330   33.6030   40.5320 C   0  0  0  0  0  0  0  0  0  0  0  0
   40.0590   31.9790   39.6830 S   0  0  0  0  0  0  0  0  0  0  0  0
   37.0550   33.7720   39.6290 H   0  0  0  0  0  0  0  0  0  0  0  0
   38.8400   35.1350   40.8490 H   0  0  0  0  0  0  0  0  0  0  0  0
   41.1770   34.0810   41.0580 H   0  0  0  0  0  0  0  0  0  0  0  0
   36.7130   30.3230   40.7000 C   0  0  0  0  0  0  0  0  0  0  0  0
   35.8810   31.1470   41.2100 O   0  0  0  0  0  0  0  0  0  0  0  0
   37.5500   29.3700   41.5000 C   0  0  0  0  0  0  0  0  0  0  0  0
   38.5060   29.7010   42.4310 C   0  0  0  0  0  0  0  0  0  0  0  0
   38.9930   28.5320   42.8900 N   0  0  0  0  0  0  0  0  0  0  0  0
   38.3500   27.5190   42.2550 C   0  0  0  0  0  0  0  0  0  0  0  0
   37.4490   28.0400   41.3880 N   0  0  0  0  0  0  0  0  0  0  0  0
   38.7950   30.7020   42.7240 H   0  0  0  0  0  0  0  0  0  0  0  0
   39.7390   28.3880   43.6130 H   0  0  0  0  0  0  0  0  0  0  0  0
   38.6230   26.0600   42.5020 C   0  0  0  0  0  0  0  0  0  0  0  0
   39.4000   25.9320   43.6430 F   0  0  0  0  0  0  0  0  0  0  0  0
   37.4720   25.3370   42.6090 F   0  0  0  0  0  0  0  0  0  0  0  0
   39.3540   25.5000   41.4700 F   0  0  0  0  0  0  0  0  0  0  0  0
  1  7  1  0  0  0  0
  1  2  1  0  0  0  0
  2 17  1  0  0  0  0
  3  9  1  0  0  0  0
  3  2  2  0  0  0  0
  4  3  1  0  0  0  0
  5  6  1  0  0  0  0
  5  4  2  0  0  0  0
  6  1  2  0  0  0  0
  8  5  1  0  0  0  0
  9 13  1  0  0  0  0
  9 10  2  0  0  0  0
 10 11  1  0  0  0  0
 11 12  2  0  0  0  0
 11 15  1  0  0  0  0
 12 16  1  0  0  0  0
 13 12  1  0  0  0  0
 14 10  1  0  0  0  0
 17 18  2  0  0  0  0
 17 19  1  0  0  0  0
 19 20  2  0  0  0  0
 20 24  1  0  0  0  0
 20 21  1  0  0  0  0
 21 25  1  0  0  0  0
 22 26  1  0  0  0  0
 22 21  1  0  0  0  0
 23 19  1  0  0  0  0
 23 22  2  0  0  0  0
 26 28  1  0  0  0  0
 26 27  1  0  0  0  0
 29 26  1  0  0  0  0
M  END
>  <minimizedAffinity>
-5.04657555

$$$$

 OpenBabel03252503143D

 29 31  0  0  0  0  0  0  0  0999 V2000
   40.1740   31.8190   40.5750 C   0  0  0  0  0  0  0  0  0  0  0  0
   39.1500   30.9080   40.2630 C   0  0  0  0  0  0  0  0  0  0  0  0
   37.8880   31.4710   40.1290 C   0  0  0  0  0  0  0  0  0  0  0  0
   37.6520   32.7810   40.2830 N   0  0  0  0  0  0  0  0  0  0  0  0
   38.6800   33.6250   40.5850 C   0  0  0  0  0  0  0  0  0  0  0  0
   39.9280   33.1400   40.7280 N   0  0  0  0  0  0  0  0  0  0  0  0
   41.1860   31.4560   40.6960 H   0  0  0  0  0  0  0  0  0  0  0  0
   38.5230   34.6850   40.7150 H   0  0  0  0  0  0  0  0  0  0  0  0
   36.8130   30.6220   39.8210 C   0  0  0  0  0  0  0  0  0  0  0  0
   35.8120   30.0220   40.5260 C   0  0  0  0  0  0  0  0  0  0  0  0
   34.8890   29.2430   39.9970 C   0  0  0  0  0  0  0  0  0  0  0  0
   34.9800   29.0530   38.6560 C   0  0  0  0  0  0  0  0  0  0  0  0
   36.4550   30.0430   38.1730 S   0  0  0  0  0  0  0  0  0  0  0  0
   35.8480   30.2580   41.6120 H   0  0  0  0  0  0  0  0  0  0  0  0
   34.0870   28.7570   40.5270 H   0  0  0  0  0  0  0  0  0  0  0  0
   34.2610   28.3960   37.9870 H   0  0  0  0  0  0  0  0  0  0  0  0
   39.4540   29.5340   40.1110 C   0  0  0  0  0  0  0  0  0  0  0  0
   40.1490   29.2340   39.0820 O   0  0  0  0  0  0  0  0  0  0  0  0
   38.9700   28.5350   41.1180 C   0  0  0  0  0  0  0  0  0  0  0  0
   39.0770   28.6310   42.4850 C   0  0  0  0  0  0  0  0  0  0  0  0
   38.5090   27.5130   42.9790 N   0  0  0  0  0  0  0  0  0  0  0  0
   38.0680   26.7600   41.9380 C   0  0  0  0  0  0  0  0  0  0  0  0
   38.3540   27.3960   40.7780 N   0  0  0  0  0  0  0  0  0  0  0  0
   39.5300   29.4450   43.0360 H   0  0  0  0  0  0  0  0  0  0  0  0
   38.4050   27.2370   43.9850 H   0  0  0  0  0  0  0  0  0  0  0  0
   37.3750   25.4330   42.0920 C   0  0  0  0  0  0  0  0  0  0  0  0
   36.7810   25.0900   40.8880 F   0  0  0  0  0  0  0  0  0  0  0  0
   38.2280   24.4580   42.5140 F   0  0  0  0  0  0  0  0  0  0  0  0
   36.3530   25.5010   43.0220 F   0  0  0  0  0  0  0  0  0  0  0  0
  1  7  1  0  0  0  0
  1  6  1  0  0  0  0
  2  1  2  0  0  0  0
  3  2  1  0  0  0  0
  3  4  2  0  0  0  0
  4  5  1  0  0  0  0
  5  8  1  0  0  0  0
  5  6  2  0  0  0  0
  9  3  1  0  0  0  0
  9 10  2  0  0  0  0
 10 14  1  0  0  0  0
 11 10  1  0  0  0  0
 11 15  1  0  0  0  0
 12 11  2  0  0  0  0
 13 12  1  0  0  0  0
 13  9  1  0  0  0  0
 16 12  1  0  0  0  0
 17  2  1  0  0  0  0
 17 19  1  0  0  0  0
 18 17  2  0  0  0  0
 19 20  2  0  0  0  0
 20 21  1  0  0  0  0
 20 24  1  0  0  0  0
 21 25  1  0  0  0  0
 22 26  1  0  0  0  0
 22 21  1  0  0  0  0
 23 19  1  0  0  0  0
 23 22  2  0  0  0  0
 26 28  1  0  0  0  0
 26 29  1  0  0  0  0
 27 26  1  0  0  0  0
M  END
>  <minimizedAffinity>
-5.01370192

$$$$

 OpenBabel03252503143D

 29 31  0  0  0  0  0  0  0  0999 V2000
   39.1800   31.9990   38.3150 C   0  0  0  0  0  0  0  0  0  0  0  0
   39.6490   31.7690   39.6210 C   0  0  0  0  0  0  0  0  0  0  0  0
   40.9720   31.3580   39.7020 C   0  0  0  0  0  0  0  0  0  0  0  0
   41.7530   31.1900   38.6260 N   0  0  0  0  0  0  0  0  0  0  0  0
   41.2520   31.4260   37.3800 C   0  0  0  0  0  0  0  0  0  0  0  0
   39.9750   31.8270   37.2340 N   0  0  0  0  0  0  0  0  0  0  0  0
   38.1570   32.3220   38.1690 H   0  0  0  0  0  0  0  0  0  0  0  0
   41.8550   31.3000   36.4940 H   0  0  0  0  0  0  0  0  0  0  0  0
   41.5100   31.1050   40.9740 C   0  0  0  0  0  0  0  0  0  0  0  0
   41.5370   30.0410   41.8280 C   0  0  0  0  0  0  0  0  0  0  0  0
   42.1260   30.0450   43.0070 C   0  0  0  0  0  0  0  0  0  0  0  0
   42.7340   31.2080   43.3560 C   0  0  0  0  0  0  0  0  0  0  0  0
   42.4280   32.3110   41.9140 S   0  0  0  0  0  0  0  0  0  0  0  0
   41.0050   29.1520   41.4240 H   0  0  0  0  0  0  0  0  0  0  0  0
   42.1640   29.2220   43.7010 H   0  0  0  0  0  0  0  0  0  0  0  0
   43.3150   31.4260   44.3610 H   0  0  0  0  0  0  0  0  0  0  0  0
   38.7810   31.9630   40.7220 C   0  0  0  0  0  0  0  0  0  0  0  0
   38.9020   33.0800   41.3290 O   0  0  0  0  0  0  0  0  0  0  0  0
   37.8030   30.8960   41.1130 C   0  0  0  0  0  0  0  0  0  0  0  0
   36.4350   30.9530   40.9870 C   0  0  0  0  0  0  0  0  0  0  0  0
   35.9720   29.7800   41.4620 N   0  0  0  0  0  0  0  0  0  0  0  0
   37.0320   29.0310   41.8630 C   0  0  0  0  0  0  0  0  0  0  0  0
   38.1740   29.7250   41.6460 N   0  0  0  0  0  0  0  0  0  0  0  0
   35.8620   31.7800   40.5880 H   0  0  0  0  0  0  0  0  0  0  0  0
   34.9750   29.4620   41.5250 H   0  0  0  0  0  0  0  0  0  0  0  0
   36.9140   27.6510   42.4510 C   0  0  0  0  0  0  0  0  0  0  0  0
   35.8920   27.6430   43.3880 F   0  0  0  0  0  0  0  0  0  0  0  0
   36.7090   26.7040   41.4940 F   0  0  0  0  0  0  0  0  0  0  0  0
   38.0640   27.2910   43.1310 F   0  0  0  0  0  0  0  0  0  0  0  0
  1  2  1  0  0  0  0
  2  3  2  0  0  0  0
  2 17  1  0  0  0  0
  3  9  1  0  0  0  0
  4  3  1  0  0  0  0
  5  4  2  0  0  0  0
  6  5  1  0  0  0  0
  6  1  2  0  0  0  0
  7  1  1  0  0  0  0
  8  5  1  0  0  0  0
  9 10  2  0  0  0  0
  9 13  1  0  0  0  0
 10 11  1  0  0  0  0
 11 12  2  0  0  0  0
 11 15  1  0  0  0  0
 12 16  1  0  0  0  0
 13 12  1  0  0  0  0
 14 10  1  0  0  0  0
 17 19  1  0  0  0  0
 17 18  2  0  0  0  0
 19 23  1  0  0  0  0
 20 19  2  0  0  0  0
 20 21  1  0  0  0  0
 21 25  1  0  0  0  0
 21 22  1  0  0  0  0
 22 26  1  0  0  0  0
 23 22  2  0  0  0  0
 24 20  1  0  0  0  0
 26 29  1  0  0  0  0
 26 27  1  0  0  0  0
 28 26  1  0  0  0  0
M  END
>  <minimizedAffinity>
-4.9301548

$$$$
