
 OpenBabel03242523203D

 32 34  0  0  0  0  0  0  0  0999 V2000
   47.3690   32.8100   44.0240 C   0  0  0  0  0  0  0  0  0  0  0  0
   48.2260   33.3080   43.1200 C   0  0  0  0  0  0  0  0  0  0  0  0
   49.0650   32.3790   42.5480 C   0  0  0  0  0  0  0  0  0  0  0  0
   48.9600   31.0350   42.9500 N   0  0  0  0  0  0  0  0  0  0  0  0
   48.0950   30.6220   43.8470 C   0  0  0  0  0  0  0  0  0  0  0  0
   47.2390   31.5210   44.4380 N   0  0  0  0  0  0  0  0  0  0  0  0
   49.8190   32.5710   41.8040 H   0  0  0  0  0  0  0  0  0  0  0  0
   48.1280   29.5560   44.0580 H   0  0  0  0  0  0  0  0  0  0  0  0
   48.4090   34.6820   42.8000 C   0  0  0  0  0  0  0  0  0  0  0  0
   49.4350   35.2630   42.1250 C   0  0  0  0  0  0  0  0  0  0  0  0
   48.2010   35.0920   41.2790 C   0  0  0  0  0  0  0  0  0  0  0  0
   47.9450   35.3710   43.5280 H   0  0  0  0  0  0  0  0  0  0  0  0
   49.7760   36.3240   42.1300 H   0  0  0  0  0  0  0  0  0  0  0  0
   50.3320   34.6340   41.8310 H   0  0  0  0  0  0  0  0  0  0  0  0
   48.2030   34.2300   40.6140 H   0  0  0  0  0  0  0  0  0  0  0  0
   47.5040   35.9310   41.1390 H   0  0  0  0  0  0  0  0  0  0  0  0
   46.3020   33.5460   44.7150 C   0  0  0  0  0  0  0  0  0  0  0  0
   45.7240   33.9270   45.7000 O   0  0  0  0  0  0  0  0  0  0  0  0
   44.5560   31.7780   42.8870 Cl  0  0  0  0  0  0  0  0  0  0  0  0
   44.5780   33.5320   42.7650 C   0  0  0  0  0  0  0  0  0  0  0  0
   45.4260   34.1880   43.6840 C   0  0  0  0  0  0  0  0  0  0  0  0
   45.3730   35.5630   43.5150 C   0  0  0  0  0  0  0  0  0  0  0  0
   44.6660   36.2920   42.6400 C   0  0  0  0  0  0  0  0  0  0  0  0
   43.8700   35.5830   41.7830 C   0  0  0  0  0  0  0  0  0  0  0  0
   43.8170   34.2360   41.8340 C   0  0  0  0  0  0  0  0  0  0  0  0
   45.9570   36.2320   44.1830 H   0  0  0  0  0  0  0  0  0  0  0  0
   44.6560   37.3600   42.5400 H   0  0  0  0  0  0  0  0  0  0  0  0
   43.2350   36.0030   41.0180 H   0  0  0  0  0  0  0  0  0  0  0  0
   42.9820   33.3380   40.9490 C   0  0  0  0  0  0  0  0  0  0  0  0
   42.2210   34.1060   40.1210 F   0  0  0  0  0  0  0  0  0  0  0  0
   42.0870   32.6370   41.7700 F   0  0  0  0  0  0  0  0  0  0  0  0
   43.7470   32.4010   40.3100 F   0  0  0  0  0  0  0  0  0  0  0  0
  1  6  1  0  0  0  0
  1 17  1  0  0  0  0
  2  1  2  0  0  0  0
  3  4  2  0  0  0  0
  3  2  1  0  0  0  0
  4  5  1  0  0  0  0
  5  8  1  0  0  0  0
  5  6  2  0  0  0  0
  7  3  1  0  0  0  0
  9  2  1  0  0  0  0
  9 12  1  0  0  0  0
 10 13  1  0  0  0  0
 10  9  1  0  0  0  0
 11 10  1  0  0  0  0
 11  9  1  0  0  0  0
 14 10  1  0  0  0  0
 15 11  1  0  0  0  0
 16 11  1  0  0  0  0
 17 18  2  0  0  0  0
 20 19  1  0  0  0  0
 20 21  1  0  0  0  0
 21 17  1  0  0  0  0
 22 21  2  0  0  0  0
 22 26  1  0  0  0  0
 23 22  1  0  0  0  0
 24 25  1  0  0  0  0
 24 23  2  0  0  0  0
 25 20  2  0  0  0  0
 27 23  1  0  0  0  0
 28 24  1  0  0  0  0
 29 31  1  0  0  0  0
 29 25  1  0  0  0  0
 30 29  1  0  0  0  0
 32 29  1  0  0  0  0
M  END
>  <minimizedAffinity>
-5.2249732

>  <minimizedRMSD>
0.233723313

$$$$
