
 OpenBabel03242514383D

 28 29  0  0  0  0  0  0  0  0999 V2000
   39.2680   34.1000   40.7140 O   0  0  0  0  0  0  0  0  0  0  0  0
   38.4780   32.9370   40.1940 P   0  0  1  0  0  0  0  0  0  0  0  0
   36.8780   33.4350   40.0260 O   0  0  0  0  0  0  0  0  0  0  0  0
   36.3070   32.6140   39.9090 H   0  0  0  0  0  0  0  0  0  0  0  0
   39.1120   32.4130   38.6930 O   0  0  0  0  0  0  0  0  0  0  0  0
   39.5670   30.1440   38.0230 C   0  0  0  0  0  0  0  0  0  0  0  0
   38.6700   31.2080   38.1270 C   0  0  0  0  0  0  0  0  0  0  0  0
   37.3500   31.0410   37.6630 C   0  0  0  0  0  0  0  0  0  0  0  0
   37.0270   29.8190   37.1280 N   0  0  0  0  0  0  0  0  0  0  0  0
   37.9200   28.8190   37.0460 C   0  0  0  0  0  0  0  0  0  0  0  0
   39.1710   28.9860   37.4880 N   0  0  0  0  0  0  0  0  0  0  0  0
   40.5770   30.1850   38.3470 H   0  0  0  0  0  0  0  0  0  0  0  0
   36.6890   31.8750   37.7580 H   0  0  0  0  0  0  0  0  0  0  0  0
   37.6170   27.8750   36.6160 H   0  0  0  0  0  0  0  0  0  0  0  0
   38.5300   31.6980   41.2950 O   0  0  0  0  0  0  0  0  0  0  0  0
   37.6660   30.6770   41.4230 C   0  0  0  0  0  0  0  0  0  0  0  0
   36.4720   31.0240   41.0910 O   0  0  0  0  0  0  0  0  0  0  0  0
   37.5780   29.2570   41.8160 C   0  0  0  0  0  0  0  0  0  0  0  0
   37.5440   28.7650   43.1760 C   0  0  0  0  0  0  0  0  0  0  0  0
   37.4700   27.3900   43.2330 C   0  0  0  0  0  0  0  0  0  0  0  0
   37.4320   26.6060   42.1510 C   0  0  0  0  0  0  0  0  0  0  0  0
   37.5090   27.8810   40.7310 S   0  0  0  0  0  0  0  0  0  0  0  0
   37.5760   29.4580   43.9970 H   0  0  0  0  0  0  0  0  0  0  0  0
   37.4400   26.8990   44.1990 H   0  0  0  0  0  0  0  0  0  0  0  0
   37.3560   25.1970   41.9320 C   0  0  0  0  0  0  0  0  0  0  0  0
   36.2860   24.6820   42.6440 F   0  0  0  0  0  0  0  0  0  0  0  0
   38.4820   24.5640   42.3920 F   0  0  0  0  0  0  0  0  0  0  0  0
   37.0900   24.9770   40.6000 F   0  0  0  0  0  0  0  0  0  0  0  0
  2  1  2  1  0  0  0
  2 15  1  0  0  0  0
  3  2  1  0  0  0  0
  4  3  1  0  0  0  0
  5  2  1  0  0  0  0
  6  7  1  0  0  0  0
  6 12  1  0  0  0  0
  7  5  1  0  0  0  0
  8 13  1  0  0  0  0
  8  7  2  0  0  0  0
  9  8  1  0  0  0  0
 10  9  2  0  0  0  0
 10 11  1  0  0  0  0
 11  6  2  0  0  0  0
 14 10  1  0  0  0  0
 15 16  1  0  0  0  0
 16 18  1  0  0  0  0
 17 16  2  0  0  0  0
 18 19  2  0  0  0  0
 19 20  1  0  0  0  0
 19 23  1  0  0  0  0
 20 24  1  0  0  0  0
 21 20  2  0  0  0  0
 22 18  1  0  0  0  0
 22 21  1  0  0  0  0
 25 21  1  0  0  0  0
 25 27  1  0  0  0  0
 25 26  1  0  0  0  0
 28 25  1  0  0  0  0
M  END
>  <minimizedAffinity>
-5.2503581

$$$$

 OpenBabel03242514383D

 28 29  0  0  0  0  0  0  0  0999 V2000
   39.6800   30.0800   37.6000 O   0  0  0  0  0  0  0  0  0  0  0  0
   39.5120   31.5170   37.9930 P   0  0  1  0  0  0  0  0  0  0  0  0
   40.2780   32.4620   36.8290 O   0  0  0  0  0  0  0  0  0  0  0  0
   40.3770   33.3940   37.1990 H   0  0  0  0  0  0  0  0  0  0  0  0
   37.8490   31.9120   38.0970 O   0  0  0  0  0  0  0  0  0  0  0  0
   36.6820   31.4250   40.1470 C   0  0  0  0  0  0  0  0  0  0  0  0
   36.9770   31.0900   38.8250 C   0  0  0  0  0  0  0  0  0  0  0  0
   36.3900   29.9390   38.2610 C   0  0  0  0  0  0  0  0  0  0  0  0
   35.5510   29.2090   39.0650 N   0  0  0  0  0  0  0  0  0  0  0  0
   35.2930   29.5650   40.3340 C   0  0  0  0  0  0  0  0  0  0  0  0
   35.8540   30.6590   40.8620 N   0  0  0  0  0  0  0  0  0  0  0  0
   37.0790   32.2720   40.6470 H   0  0  0  0  0  0  0  0  0  0  0  0
   36.6370   29.7110   37.2460 H   0  0  0  0  0  0  0  0  0  0  0  0
   34.6250   28.9570   40.9270 H   0  0  0  0  0  0  0  0  0  0  0  0
   40.2490   31.7800   39.4540 O   0  0  0  0  0  0  0  0  0  0  0  0
   40.3260   30.9380   40.4990 C   0  0  0  0  0  0  0  0  0  0  0  0
   41.4950   30.9580   41.0370 O   0  0  0  0  0  0  0  0  0  0  0  0
   39.5380   29.9670   41.2820 C   0  0  0  0  0  0  0  0  0  0  0  0
   39.1120   30.1450   42.6530 C   0  0  0  0  0  0  0  0  0  0  0  0
   38.3980   29.0640   43.1230 C   0  0  0  0  0  0  0  0  0  0  0  0
   38.1310   27.9780   42.3910 C   0  0  0  0  0  0  0  0  0  0  0  0
   38.9680   28.4040   40.7270 S   0  0  0  0  0  0  0  0  0  0  0  0
   39.3630   31.0470   43.1790 H   0  0  0  0  0  0  0  0  0  0  0  0
   38.0240   29.0750   44.1410 H   0  0  0  0  0  0  0  0  0  0  0  0
   37.4340   26.7540   42.6230 C   0  0  0  0  0  0  0  0  0  0  0  0
   36.5100   26.9410   43.6370 F   0  0  0  0  0  0  0  0  0  0  0  0
   38.2900   25.7680   43.0420 F   0  0  0  0  0  0  0  0  0  0  0  0
   36.7210   26.4360   41.4890 F   0  0  0  0  0  0  0  0  0  0  0  0
  2  1  2  6  0  0  0
  2  5  1  0  0  0  0
  2 15  1  0  0  0  0
  3  4  1  0  0  0  0
  3  2  1  0  0  0  0
  5  7  1  0  0  0  0
  6 12  1  0  0  0  0
  6 11  1  0  0  0  0
  7  6  2  0  0  0  0
  8  7  1  0  0  0  0
  8  9  2  0  0  0  0
  9 10  1  0  0  0  0
 10 11  2  0  0  0  0
 10 14  1  0  0  0  0
 13  8  1  0  0  0  0
 15 16  1  0  0  0  0
 16 17  2  0  0  0  0
 16 18  1  0  0  0  0
 18 19  2  0  0  0  0
 19 20  1  0  0  0  0
 19 23  1  0  0  0  0
 20 24  1  0  0  0  0
 21 25  1  0  0  0  0
 21 20  2  0  0  0  0
 22 18  1  0  0  0  0
 22 21  1  0  0  0  0
 25 27  1  0  0  0  0
 25 26  1  0  0  0  0
 28 25  1  0  0  0  0
M  END
>  <minimizedAffinity>
-5.1817565

$$$$

 OpenBabel03242514383D

 28 29  0  0  0  0  0  0  0  0999 V2000
   39.6740   32.4940   41.2320 O   0  0  0  0  0  0  0  0  0  0  0  0
   39.1460   33.1590   39.9960 P   0  0  1  0  0  0  0  0  0  0  0  0
   37.7370   33.9800   40.4150 O   0  0  0  0  0  0  0  0  0  0  0  0
   37.2550   34.2260   39.5650 H   0  0  0  0  0  0  0  0  0  0  0  0
   40.3120   34.2400   39.3610 O   0  0  0  0  0  0  0  0  0  0  0  0
   42.6190   33.7230   39.8220 C   0  0  0  0  0  0  0  0  0  0  0  0
   41.5530   33.7550   38.9220 C   0  0  0  0  0  0  0  0  0  0  0  0
   41.7530   33.3000   37.6030 C   0  0  0  0  0  0  0  0  0  0  0  0
   43.0080   32.8460   37.2830 N   0  0  0  0  0  0  0  0  0  0  0  0
   44.0090   32.8310   38.1780 C   0  0  0  0  0  0  0  0  0  0  0  0
   43.8110   33.2650   39.4290 N   0  0  0  0  0  0  0  0  0  0  0  0
   42.5550   34.0460   40.8300 H   0  0  0  0  0  0  0  0  0  0  0  0
   40.9150   33.3380   36.9400 H   0  0  0  0  0  0  0  0  0  0  0  0
   44.9800   32.4640   37.8780 H   0  0  0  0  0  0  0  0  0  0  0  0
   38.7680   32.0060   38.8670 O   0  0  0  0  0  0  0  0  0  0  0  0
   37.8920   30.9930   38.9890 C   0  0  0  0  0  0  0  0  0  0  0  0
   37.2570   30.7830   37.8900 O   0  0  0  0  0  0  0  0  0  0  0  0
   37.3730   30.0010   39.9510 C   0  0  0  0  0  0  0  0  0  0  0  0
   35.9860   29.6170   40.0920 C   0  0  0  0  0  0  0  0  0  0  0  0
   35.8030   28.6740   41.0810 C   0  0  0  0  0  0  0  0  0  0  0  0
   36.7970   28.1750   41.8210 C   0  0  0  0  0  0  0  0  0  0  0  0
   38.3170   29.0980   41.1210 S   0  0  0  0  0  0  0  0  0  0  0  0
   35.2410   30.0610   39.4590 H   0  0  0  0  0  0  0  0  0  0  0  0
   34.8040   28.3060   41.2850 H   0  0  0  0  0  0  0  0  0  0  0  0
   36.8830   27.2190   42.8770 C   0  0  0  0  0  0  0  0  0  0  0  0
   35.7580   27.3220   43.6780 F   0  0  0  0  0  0  0  0  0  0  0  0
   37.9680   27.4640   43.6800 F   0  0  0  0  0  0  0  0  0  0  0  0
   36.8640   25.9570   42.3260 F   0  0  0  0  0  0  0  0  0  0  0  0
  2  3  1  0  0  0  0
  2  1  2  1  0  0  0
  4  3  1  0  0  0  0
  5  2  1  0  0  0  0
  6 12  1  0  0  0  0
  7  5  1  0  0  0  0
  7  6  2  0  0  0  0
  8  7  1  0  0  0  0
  9  8  2  0  0  0  0
  9 10  1  0  0  0  0
 10 11  2  0  0  0  0
 11  6  1  0  0  0  0
 13  8  1  0  0  0  0
 14 10  1  0  0  0  0
 15 16  1  0  0  0  0
 15  2  1  0  0  0  0
 16 18  1  0  0  0  0
 17 16  2  0  0  0  0
 18 19  2  0  0  0  0
 18 22  1  0  0  0  0
 19 20  1  0  0  0  0
 20 24  1  0  0  0  0
 20 21  2  0  0  0  0
 21 25  1  0  0  0  0
 22 21  1  0  0  0  0
 23 19  1  0  0  0  0
 25 26  1  0  0  0  0
 25 27  1  0  0  0  0
 28 25  1  0  0  0  0
M  END
>  <minimizedAffinity>
-5.14743471

$$$$

 OpenBabel03242514383D

 28 29  0  0  0  0  0  0  0  0999 V2000
   38.3980   31.1280   40.9850 O   0  0  0  0  0  0  0  0  0  0  0  0
   37.2520   31.5850   40.1340 P   0  0  1  0  0  0  0  0  0  0  0  0
   37.0300   33.2320   40.4100 O   0  0  0  0  0  0  0  0  0  0  0  0
   36.1330   33.4930   40.0340 H   0  0  0  0  0  0  0  0  0  0  0  0
   37.5850   31.2870   38.4810 O   0  0  0  0  0  0  0  0  0  0  0  0
   39.8280   31.8560   37.8130 C   0  0  0  0  0  0  0  0  0  0  0  0
   38.8680   30.8810   38.0860 C   0  0  0  0  0  0  0  0  0  0  0  0
   39.2150   29.5210   37.9580 C   0  0  0  0  0  0  0  0  0  0  0  0
   40.4990   29.2390   37.5660 N   0  0  0  0  0  0  0  0  0  0  0  0
   41.3950   30.2070   37.3120 C   0  0  0  0  0  0  0  0  0  0  0  0
   41.0580   31.4960   37.4350 N   0  0  0  0  0  0  0  0  0  0  0  0
   39.6510   32.9000   37.8840 H   0  0  0  0  0  0  0  0  0  0  0  0
   38.4560   28.8000   38.1760 H   0  0  0  0  0  0  0  0  0  0  0  0
   42.3950   29.9350   37.0050 H   0  0  0  0  0  0  0  0  0  0  0  0
   35.8720   30.7860   40.5880 O   0  0  0  0  0  0  0  0  0  0  0  0
   35.6640   29.4580   40.6150 C   0  0  0  0  0  0  0  0  0  0  0  0
   34.5670   29.1400   40.0220 O   0  0  0  0  0  0  0  0  0  0  0  0
   36.2490   28.1890   41.0890 C   0  0  0  0  0  0  0  0  0  0  0  0
   36.5330   27.8620   42.4690 C   0  0  0  0  0  0  0  0  0  0  0  0
   37.0870   26.6070   42.6050 C   0  0  0  0  0  0  0  0  0  0  0  0
   37.3280   25.7890   41.5760 C   0  0  0  0  0  0  0  0  0  0  0  0
   36.7270   26.8290   40.0900 S   0  0  0  0  0  0  0  0  0  0  0  0
   36.3100   28.5710   43.2440 H   0  0  0  0  0  0  0  0  0  0  0  0
   37.3470   26.2450   43.5930 H   0  0  0  0  0  0  0  0  0  0  0  0
   37.8760   24.4770   41.4400 C   0  0  0  0  0  0  0  0  0  0  0  0
   38.0230   23.9130   42.6950 F   0  0  0  0  0  0  0  0  0  0  0  0
   39.1240   24.5190   40.8730 F   0  0  0  0  0  0  0  0  0  0  0  0
   36.9720   23.6960   40.7560 F   0  0  0  0  0  0  0  0  0  0  0  0
  2  3  1  0  0  0  0
  2 15  1  0  0  0  0
  2  1  2  1  0  0  0
  4  3  1  0  0  0  0
  5  2  1  0  0  0  0
  6 12  1  0  0  0  0
  6  7  1  0  0  0  0
  7  5  1  0  0  0  0
  8  7  2  0  0  0  0
  8 13  1  0  0  0  0
  9  8  1  0  0  0  0
 10 11  1  0  0  0  0
 10  9  2  0  0  0  0
 11  6  2  0  0  0  0
 14 10  1  0  0  0  0
 15 16  1  0  0  0  0
 16 18  1  0  0  0  0
 17 16  2  0  0  0  0
 18 19  2  0  0  0  0
 19 20  1  0  0  0  0
 19 23  1  0  0  0  0
 20 24  1  0  0  0  0
 21 20  2  0  0  0  0
 22 18  1  0  0  0  0
 22 21  1  0  0  0  0
 25 21  1  0  0  0  0
 25 26  1  0  0  0  0
 27 25  1  0  0  0  0
 28 25  1  0  0  0  0
M  END
>  <minimizedAffinity>
-5.10818481

$$$$

 OpenBabel03242514383D

 28 29  0  0  0  0  0  0  0  0999 V2000
   39.4610   33.4720   40.5120 O   0  0  0  0  0  0  0  0  0  0  0  0
   38.4050   32.4410   40.2480 P   0  0  1  0  0  0  0  0  0  0  0  0
   36.9040   33.1910   40.3930 O   0  0  0  0  0  0  0  0  0  0  0  0
   36.2010   32.4730   40.4540 H   0  0  0  0  0  0  0  0  0  0  0  0
   38.6020   31.7780   38.6820 O   0  0  0  0  0  0  0  0  0  0  0  0
   40.3770   30.1500   38.6460 C   0  0  0  0  0  0  0  0  0  0  0  0
   39.8750   31.3870   38.2400 C   0  0  0  0  0  0  0  0  0  0  0  0
   40.6580   32.2050   37.4010 C   0  0  0  0  0  0  0  0  0  0  0  0
   41.8880   31.7220   37.0300 N   0  0  0  0  0  0  0  0  0  0  0  0
   42.3360   30.5250   37.4420 C   0  0  0  0  0  0  0  0  0  0  0  0
   41.5870   29.7540   38.2390 N   0  0  0  0  0  0  0  0  0  0  0  0
   39.8550   29.4750   39.2760 H   0  0  0  0  0  0  0  0  0  0  0  0
   40.2430   33.1460   37.1090 H   0  0  0  0  0  0  0  0  0  0  0  0
   43.3120   30.1880   37.1230 H   0  0  0  0  0  0  0  0  0  0  0  0
   38.5060   31.2410   41.3870 O   0  0  0  0  0  0  0  0  0  0  0  0
   37.7260   30.1530   41.5060 C   0  0  0  0  0  0  0  0  0  0  0  0
   36.4950   30.4250   41.2460 O   0  0  0  0  0  0  0  0  0  0  0  0
   37.7610   28.7150   41.8350 C   0  0  0  0  0  0  0  0  0  0  0  0
   36.7540   28.0030   42.5910 C   0  0  0  0  0  0  0  0  0  0  0  0
   37.0630   26.6690   42.7470 C   0  0  0  0  0  0  0  0  0  0  0  0
   38.1680   26.1030   42.2520 C   0  0  0  0  0  0  0  0  0  0  0  0
   39.0220   27.5800   41.3930 S   0  0  0  0  0  0  0  0  0  0  0  0
   35.8890   28.5260   42.9550 H   0  0  0  0  0  0  0  0  0  0  0  0
   36.3850   26.0280   43.2990 H   0  0  0  0  0  0  0  0  0  0  0  0
   38.7150   24.7840   42.2670 C   0  0  0  0  0  0  0  0  0  0  0  0
   37.6840   23.8620   42.2140 F   0  0  0  0  0  0  0  0  0  0  0  0
   39.4040   24.5470   43.4280 F   0  0  0  0  0  0  0  0  0  0  0  0
   39.4620   24.6100   41.1240 F   0  0  0  0  0  0  0  0  0  0  0  0
  2  3  1  0  0  0  0
  2  1  2  1  0  0  0
  2 15  1  0  0  0  0
  3  4  1  0  0  0  0
  5  2  1  0  0  0  0
  6 12  1  0  0  0  0
  7  6  1  0  0  0  0
  7  5  1  0  0  0  0
  8  7  2  0  0  0  0
  9  8  1  0  0  0  0
  9 10  2  0  0  0  0
 10 11  1  0  0  0  0
 11  6  2  0  0  0  0
 13  8  1  0  0  0  0
 14 10  1  0  0  0  0
 15 16  1  0  0  0  0
 16 18  1  0  0  0  0
 17 16  2  0  0  0  0
 18 19  2  0  0  0  0
 19 20  1  0  0  0  0
 19 23  1  0  0  0  0
 20 24  1  0  0  0  0
 21 25  1  0  0  0  0
 21 20  2  0  0  0  0
 22 18  1  0  0  0  0
 22 21  1  0  0  0  0
 25 27  1  0  0  0  0
 26 25  1  0  0  0  0
 28 25  1  0  0  0  0
M  END
>  <minimizedAffinity>
-5.05533791

$$$$

 OpenBabel03242514383D

 28 29  0  0  0  0  0  0  0  0999 V2000
   40.3110   33.5280   39.4280 O   0  0  0  0  0  0  0  0  0  0  0  0
   39.2850   32.7260   40.1710 P   0  0  1  0  0  0  0  0  0  0  0  0
   38.8120   33.6170   41.5190 O   0  0  0  0  0  0  0  0  0  0  0  0
   38.3120   33.0020   42.1410 H   0  0  0  0  0  0  0  0  0  0  0  0
   37.9430   32.3980   39.1590 O   0  0  0  0  0  0  0  0  0  0  0  0
   37.1560   30.2250   38.4790 C   0  0  0  0  0  0  0  0  0  0  0  0
   37.1410   31.2730   39.4010 C   0  0  0  0  0  0  0  0  0  0  0  0
   36.3230   31.1700   40.5440 C   0  0  0  0  0  0  0  0  0  0  0  0
   35.5800   30.0240   40.6790 N   0  0  0  0  0  0  0  0  0  0  0  0
   35.6230   29.0370   39.7690 C   0  0  0  0  0  0  0  0  0  0  0  0
   36.4020   29.1420   38.6860 N   0  0  0  0  0  0  0  0  0  0  0  0
   37.7420   30.2210   37.5950 H   0  0  0  0  0  0  0  0  0  0  0  0
   36.3350   31.9910   41.2290 H   0  0  0  0  0  0  0  0  0  0  0  0
   35.0190   28.1540   39.9200 H   0  0  0  0  0  0  0  0  0  0  0  0
   39.9630   31.3060   40.6910 O   0  0  0  0  0  0  0  0  0  0  0  0
   39.5740   30.5410   41.7250 C   0  0  0  0  0  0  0  0  0  0  0  0
   39.8700   31.0850   42.8530 O   0  0  0  0  0  0  0  0  0  0  0  0
   38.9120   29.2640   42.0560 C   0  0  0  0  0  0  0  0  0  0  0  0
   38.0970   29.0210   43.2260 C   0  0  0  0  0  0  0  0  0  0  0  0
   37.6190   27.7290   43.2710 C   0  0  0  0  0  0  0  0  0  0  0  0
   37.8790   26.8110   42.3360 C   0  0  0  0  0  0  0  0  0  0  0  0
   38.9800   27.7850   41.1160 S   0  0  0  0  0  0  0  0  0  0  0  0
   37.9300   29.8110   43.9350 H   0  0  0  0  0  0  0  0  0  0  0  0
   36.9950   27.4220   44.1030 H   0  0  0  0  0  0  0  0  0  0  0  0
   37.5210   25.4420   42.1430 C   0  0  0  0  0  0  0  0  0  0  0  0
   37.2440   25.2290   40.8030 F   0  0  0  0  0  0  0  0  0  0  0  0
   36.3830   25.1250   42.8400 F   0  0  0  0  0  0  0  0  0  0  0  0
   38.6090   24.6590   42.4540 F   0  0  0  0  0  0  0  0  0  0  0  0
  2  1  2  6  0  0  0
  2 15  1  0  0  0  0
  2  3  1  0  0  0  0
  3  4  1  0  0  0  0
  5  7  1  0  0  0  0
  5  2  1  0  0  0  0
  6 11  2  0  0  0  0
  6  7  1  0  0  0  0
  7  8  2  0  0  0  0
  8  9  1  0  0  0  0
  8 13  1  0  0  0  0
 10 14  1  0  0  0  0
 10  9  2  0  0  0  0
 11 10  1  0  0  0  0
 12  6  1  0  0  0  0
 15 16  1  0  0  0  0
 16 18  1  0  0  0  0
 16 17  2  0  0  0  0
 18 19  2  0  0  0  0
 19 20  1  0  0  0  0
 19 23  1  0  0  0  0
 20 24  1  0  0  0  0
 21 20  2  0  0  0  0
 22 18  1  0  0  0  0
 22 21  1  0  0  0  0
 25 21  1  0  0  0  0
 25 28  1  0  0  0  0
 25 27  1  0  0  0  0
 26 25  1  0  0  0  0
M  END
>  <minimizedAffinity>
-5.02190447

$$$$

 OpenBabel03242514383D

 28 29  0  0  0  0  0  0  0  0999 V2000
   37.1840   32.9790   39.9320 O   0  0  0  0  0  0  0  0  0  0  0  0
   37.1210   31.5050   40.1980 P   0  0  1  0  0  0  0  0  0  0  0  0
   35.8020   31.2180   41.2060 O   0  0  0  0  0  0  0  0  0  0  0  0
   35.8900   30.2860   41.5770 H   0  0  0  0  0  0  0  0  0  0  0  0
   36.9600   30.6430   38.7280 O   0  0  0  0  0  0  0  0  0  0  0  0
   35.9540   28.4840   39.0840 C   0  0  0  0  0  0  0  0  0  0  0  0
   37.0660   29.2450   38.7190 C   0  0  0  0  0  0  0  0  0  0  0  0
   38.2570   28.5880   38.3520 C   0  0  0  0  0  0  0  0  0  0  0  0
   38.2470   27.2160   38.3790 N   0  0  0  0  0  0  0  0  0  0  0  0
   37.1570   26.5190   38.7360 C   0  0  0  0  0  0  0  0  0  0  0  0
   36.0290   27.1500   39.0830 N   0  0  0  0  0  0  0  0  0  0  0  0
   35.0210   28.8960   39.3730 H   0  0  0  0  0  0  0  0  0  0  0  0
   39.0890   29.2010   38.0780 H   0  0  0  0  0  0  0  0  0  0  0  0
   37.1980   25.4390   38.7410 H   0  0  0  0  0  0  0  0  0  0  0  0
   38.4990   31.0260   40.9870 O   0  0  0  0  0  0  0  0  0  0  0  0
   38.6330   30.0210   41.8690 C   0  0  0  0  0  0  0  0  0  0  0  0
   39.1880   30.4200   42.9590 O   0  0  0  0  0  0  0  0  0  0  0  0
   38.3690   28.5810   42.0550 C   0  0  0  0  0  0  0  0  0  0  0  0
   37.1030   28.0050   42.4520 C   0  0  0  0  0  0  0  0  0  0  0  0
   37.1620   26.6320   42.5530 C   0  0  0  0  0  0  0  0  0  0  0  0
   38.2650   25.9190   42.3090 C   0  0  0  0  0  0  0  0  0  0  0  0
   39.5250   27.2790   41.8470 S   0  0  0  0  0  0  0  0  0  0  0  0
   36.2570   28.6430   42.6300 H   0  0  0  0  0  0  0  0  0  0  0  0
   36.2750   26.0820   42.8460 H   0  0  0  0  0  0  0  0  0  0  0  0
   38.5920   24.5290   42.3370 C   0  0  0  0  0  0  0  0  0  0  0  0
   39.4040   24.2730   43.4280 F   0  0  0  0  0  0  0  0  0  0  0  0
   39.2980   24.1650   41.2190 F   0  0  0  0  0  0  0  0  0  0  0  0
   37.4320   23.8130   42.5270 F   0  0  0  0  0  0  0  0  0  0  0  0
  2  1  2  6  0  0  0
  2 15  1  0  0  0  0
  2  3  1  0  0  0  0
  3  4  1  0  0  0  0
  5  2  1  0  0  0  0
  6 12  1  0  0  0  0
  7  5  1  0  0  0  0
  7  6  2  0  0  0  0
  8  9  2  0  0  0  0
  8  7  1  0  0  0  0
  9 10  1  0  0  0  0
 10 14  1  0  0  0  0
 10 11  2  0  0  0  0
 11  6  1  0  0  0  0
 13  8  1  0  0  0  0
 15 16  1  0  0  0  0
 16 18  1  0  0  0  0
 16 17  2  0  0  0  0
 18 19  2  0  0  0  0
 19 20  1  0  0  0  0
 19 23  1  0  0  0  0
 20 24  1  0  0  0  0
 21 25  1  0  0  0  0
 21 20  2  0  0  0  0
 22 18  1  0  0  0  0
 22 21  1  0  0  0  0
 25 28  1  0  0  0  0
 25 26  1  0  0  0  0
 27 25  1  0  0  0  0
M  END
>  <minimizedAffinity>
-4.95105028

$$$$

 OpenBabel03242514383D

 28 29  0  0  0  0  0  0  0  0999 V2000
   39.8860   31.5590   41.2770 O   0  0  0  0  0  0  0  0  0  0  0  0
   38.7840   32.3810   40.6800 P   0  0  1  0  0  0  0  0  0  0  0  0
   38.8180   33.8980   41.4120 O   0  0  0  0  0  0  0  0  0  0  0  0
   37.9540   34.3670   41.1980 H   0  0  0  0  0  0  0  0  0  0  0  0
   38.9980   32.5190   38.9880 O   0  0  0  0  0  0  0  0  0  0  0  0
   40.7810   31.8910   37.4950 C   0  0  0  0  0  0  0  0  0  0  0  0
   40.2740   32.7630   38.4590 C   0  0  0  0  0  0  0  0  0  0  0  0
   41.0560   33.8600   38.8720 C   0  0  0  0  0  0  0  0  0  0  0  0
   42.2900   34.0020   38.2870 N   0  0  0  0  0  0  0  0  0  0  0  0
   42.7420   33.1400   37.3620 C   0  0  0  0  0  0  0  0  0  0  0  0
   41.9940   32.1010   36.9750 N   0  0  0  0  0  0  0  0  0  0  0  0
   40.2600   31.0430   37.1290 H   0  0  0  0  0  0  0  0  0  0  0  0
   40.6380   34.5090   39.6110 H   0  0  0  0  0  0  0  0  0  0  0  0
   43.7210   33.2950   36.9310 H   0  0  0  0  0  0  0  0  0  0  0  0
   37.3230   31.6710   41.0110 O   0  0  0  0  0  0  0  0  0  0  0  0
   37.0850   30.3810   41.3030 C   0  0  0  0  0  0  0  0  0  0  0  0
   35.8820   30.0420   40.9970 O   0  0  0  0  0  0  0  0  0  0  0  0
   37.7150   29.1690   41.8630 C   0  0  0  0  0  0  0  0  0  0  0  0
   37.6450   28.7520   43.2470 C   0  0  0  0  0  0  0  0  0  0  0  0
   38.3390   27.5840   43.4760 C   0  0  0  0  0  0  0  0  0  0  0  0
   38.9980   26.9160   42.5240 C   0  0  0  0  0  0  0  0  0  0  0  0
   38.6790   27.9990   40.9830 S   0  0  0  0  0  0  0  0  0  0  0  0
   37.0930   29.3410   43.9560 H   0  0  0  0  0  0  0  0  0  0  0  0
   38.3640   27.1680   44.4770 H   0  0  0  0  0  0  0  0  0  0  0  0
   39.7750   25.7180   42.4900 C   0  0  0  0  0  0  0  0  0  0  0  0
   39.5750   25.0120   43.6640 F   0  0  0  0  0  0  0  0  0  0  0  0
   41.1150   25.9990   42.4170 F   0  0  0  0  0  0  0  0  0  0  0  0
   39.3090   24.9260   41.4650 F   0  0  0  0  0  0  0  0  0  0  0  0
  2 15  1  0  0  0  0
  2  1  2  1  0  0  0
  2  3  1  0  0  0  0
  4  3  1  0  0  0  0
  5  2  1  0  0  0  0
  6  7  1  0  0  0  0
  7  8  2  0  0  0  0
  7  5  1  0  0  0  0
  8 13  1  0  0  0  0
  9  8  1  0  0  0  0
 10  9  2  0  0  0  0
 11 10  1  0  0  0  0
 11  6  2  0  0  0  0
 12  6  1  0  0  0  0
 14 10  1  0  0  0  0
 15 16  1  0  0  0  0
 16 18  1  0  0  0  0
 17 16  2  0  0  0  0
 18 19  2  0  0  0  0
 19 20  1  0  0  0  0
 19 23  1  0  0  0  0
 20 24  1  0  0  0  0
 21 20  2  0  0  0  0
 22 18  1  0  0  0  0
 22 21  1  0  0  0  0
 25 21  1  0  0  0  0
 25 26  1  0  0  0  0
 27 25  1  0  0  0  0
 28 25  1  0  0  0  0
M  END
>  <minimizedAffinity>
-4.94285488

$$$$

 OpenBabel03242514383D

 28 29  0  0  0  0  0  0  0  0999 V2000
   37.9920   30.5790   41.4360 O   0  0  0  0  0  0  0  0  0  0  0  0
   36.8780   31.0600   40.5560 P   0  0  1  0  0  0  0  0  0  0  0  0
   35.4640   31.0650   41.4710 O   0  0  0  0  0  0  0  0  0  0  0  0
   34.6840   31.1550   40.8400 H   0  0  0  0  0  0  0  0  0  0  0  0
   37.2240   32.6290   39.9660 O   0  0  0  0  0  0  0  0  0  0  0  0
   39.2730   32.3030   38.7420 C   0  0  0  0  0  0  0  0  0  0  0  0
   38.5510   33.0050   39.7080 C   0  0  0  0  0  0  0  0  0  0  0  0
   39.1730   34.0670   40.3930 C   0  0  0  0  0  0  0  0  0  0  0  0
   40.4740   34.3480   40.0590 N   0  0  0  0  0  0  0  0  0  0  0  0
   41.1360   33.6490   39.1230 C   0  0  0  0  0  0  0  0  0  0  0  0
   40.5380   32.6410   38.4760 N   0  0  0  0  0  0  0  0  0  0  0  0
   38.8810   31.4920   38.1810 H   0  0  0  0  0  0  0  0  0  0  0  0
   38.5920   34.5840   41.1270 H   0  0  0  0  0  0  0  0  0  0  0  0
   42.1600   33.9080   38.8950 H   0  0  0  0  0  0  0  0  0  0  0  0
   36.6810   30.0090   39.2890 O   0  0  0  0  0  0  0  0  0  0  0  0
   36.5370   28.6740   39.3450 C   0  0  0  0  0  0  0  0  0  0  0  0
   35.7360   28.2470   38.4330 O   0  0  0  0  0  0  0  0  0  0  0  0
   36.9710   27.4770   40.0930 C   0  0  0  0  0  0  0  0  0  0  0  0
   36.7900   27.2640   41.5120 C   0  0  0  0  0  0  0  0  0  0  0  0
   37.3080   26.0570   41.9290 C   0  0  0  0  0  0  0  0  0  0  0  0
   37.9060   25.1860   41.1110 C   0  0  0  0  0  0  0  0  0  0  0  0
   37.8010   26.0830   39.4270 S   0  0  0  0  0  0  0  0  0  0  0  0
   36.2970   28.0100   42.1060 H   0  0  0  0  0  0  0  0  0  0  0  0
   37.2360   25.7810   42.9750 H   0  0  0  0  0  0  0  0  0  0  0  0
   38.5120   23.9030   41.2750 C   0  0  0  0  0  0  0  0  0  0  0  0
   39.0390   23.8080   42.5520 F   0  0  0  0  0  0  0  0  0  0  0  0
   39.5530   23.7320   40.4000 F   0  0  0  0  0  0  0  0  0  0  0  0
   37.5300   22.9420   41.1780 F   0  0  0  0  0  0  0  0  0  0  0  0
  2  1  2  1  0  0  0
  2  3  1  0  0  0  0
  4  3  1  0  0  0  0
  5  2  1  0  0  0  0
  6  7  1  0  0  0  0
  7  5  1  0  0  0  0
  7  8  2  0  0  0  0
  8 13  1  0  0  0  0
  9  8  1  0  0  0  0
 10  9  2  0  0  0  0
 11  6  2  0  0  0  0
 11 10  1  0  0  0  0
 12  6  1  0  0  0  0
 14 10  1  0  0  0  0
 15 16  1  0  0  0  0
 15  2  1  0  0  0  0
 16 18  1  0  0  0  0
 17 16  2  0  0  0  0
 18 19  2  0  0  0  0
 19 20  1  0  0  0  0
 19 23  1  0  0  0  0
 20 24  1  0  0  0  0
 21 25  1  0  0  0  0
 21 20  2  0  0  0  0
 22 18  1  0  0  0  0
 22 21  1  0  0  0  0
 25 26  1  0  0  0  0
 27 25  1  0  0  0  0
 28 25  1  0  0  0  0
M  END
>  <minimizedAffinity>
-4.91905689

$$$$
