
 OpenBabel03252505013D

 27 28  0  0  1  0  0  0  0  0999 V2000
   38.5100   29.2160   42.7560 C   0  0  2  0  0  0  0  0  0  0  0  0
   39.9580   29.5250   42.8340 C   0  0  0  0  0  0  0  0  0  0  0  0
   40.8470   28.3490   42.5890 C   0  0  0  0  0  0  0  0  0  0  0  0
   40.4700   27.3530   43.6720 C   0  0  0  0  0  0  0  0  0  0  0  0
   39.0970   26.8300   43.4530 C   0  0  0  0  0  0  0  0  0  0  0  0
   38.0870   27.8310   42.9610 C   0  0  0  0  0  0  0  0  0  0  0  0
   37.9890   29.8520   43.5410 H   0  0  0  0  0  0  0  0  0  0  0  0
   40.2290   30.3800   42.1810 H   0  0  0  0  0  0  0  0  0  0  0  0
   40.2040   29.8750   43.8670 H   0  0  0  0  0  0  0  0  0  0  0  0
   41.8900   28.6650   42.7810 H   0  0  0  0  0  0  0  0  0  0  0  0
   40.7090   27.8520   41.6140 H   0  0  0  0  0  0  0  0  0  0  0  0
   41.1370   26.4880   43.5120 H   0  0  0  0  0  0  0  0  0  0  0  0
   40.6430   27.7900   44.6560 H   0  0  0  0  0  0  0  0  0  0  0  0
   38.8340   25.8130   43.6170 H   0  0  0  0  0  0  0  0  0  0  0  0
   36.5720   31.1610   40.2810 C   0  0  0  0  0  0  0  0  0  0  0  0
   37.1320   30.7540   39.0500 C   0  0  0  0  0  0  0  0  0  0  0  0
   38.1730   29.8060   39.1050 C   0  0  0  0  0  0  0  0  0  0  0  0
   38.5840   29.3370   40.3120 N   0  0  0  0  0  0  0  0  0  0  0  0
   38.0240   29.7480   41.4650 C   0  0  0  0  0  0  0  0  0  0  0  0
   37.0320   30.6500   41.4320 N   0  0  0  0  0  0  0  0  0  0  0  0
   35.7800   31.8850   40.1870 H   0  0  0  0  0  0  0  0  0  0  0  0
   36.8100   31.1250   38.0860 H   0  0  0  0  0  0  0  0  0  0  0  0
   38.6530   29.4440   38.2270 H   0  0  0  0  0  0  0  0  0  0  0  0
   36.7910   27.1380   42.7700 C   0  0  0  0  0  0  0  0  0  0  0  0
   37.0040   25.7530   42.6900 F   0  0  0  0  0  0  0  0  0  0  0  0
   35.8250   27.4130   43.6800 F   0  0  0  0  0  0  0  0  0  0  0  0
   36.2230   27.4320   41.5270 F   0  0  0  0  0  0  0  0  0  0  0  0
  1  2  1  0  0  0  0
  1  6  1  0  0  0  0
  1  7  1  1  0  0  0
  2  9  1  0  0  0  0
  3 10  1  0  0  0  0
  3  2  1  0  0  0  0
  3  4  1  0  0  0  0
  4 13  1  0  0  0  0
  5 14  1  0  0  0  0
  5  4  1  0  0  0  0
  6  5  2  0  0  0  0
  8  2  1  0  0  0  0
 11  3  1  0  0  0  0
 12  4  1  0  0  0  0
 15 20  1  0  0  0  0
 16 17  1  0  0  0  0
 16 15  2  0  0  0  0
 17 18  2  0  0  0  0
 18 19  1  0  0  0  0
 19  1  1  0  0  0  0
 20 19  2  0  0  0  0
 21 15  1  0  0  0  0
 22 16  1  0  0  0  0
 23 17  1  0  0  0  0
 24  6  1  0  0  0  0
 24 26  1  0  0  0  0
 25 24  1  0  0  0  0
 27 24  1  0  0  0  0
M  END
>  <minimizedAffinity>
-5.03115416

$$$$

 OpenBabel03252505013D

 27 28  0  0  1  0  0  0  0  0999 V2000
   37.1510   27.5440   42.4280 C   0  0  2  0  0  0  0  0  0  0  0  0
   38.0530   28.4250   43.2090 C   0  0  0  0  0  0  0  0  0  0  0  0
   39.4970   28.0480   43.1260 C   0  0  0  0  0  0  0  0  0  0  0  0
   39.5530   26.6310   43.6720 C   0  0  0  0  0  0  0  0  0  0  0  0
   38.8700   25.6830   42.7550 C   0  0  0  0  0  0  0  0  0  0  0  0
   37.6120   26.1950   42.1060 C   0  0  0  0  0  0  0  0  0  0  0  0
   36.1870   27.4440   43.0210 H   0  0  0  0  0  0  0  0  0  0  0  0
   37.9000   29.4950   42.9550 H   0  0  0  0  0  0  0  0  0  0  0  0
   37.7890   28.3550   44.2930 H   0  0  0  0  0  0  0  0  0  0  0  0
   40.0590   28.6930   43.8260 H   0  0  0  0  0  0  0  0  0  0  0  0
   39.9190   28.0300   42.1070 H   0  0  0  0  0  0  0  0  0  0  0  0
   40.6200   26.3500   43.6350 H   0  0  0  0  0  0  0  0  0  0  0  0
   39.1920   26.6150   44.7020 H   0  0  0  0  0  0  0  0  0  0  0  0
   39.2420   24.7090   42.5510 H   0  0  0  0  0  0  0  0  0  0  0  0
   37.3610   29.2540   39.1580 C   0  0  0  0  0  0  0  0  0  0  0  0
   36.0310   29.6740   38.9340 C   0  0  0  0  0  0  0  0  0  0  0  0
   35.0860   29.3570   39.9290 C   0  0  0  0  0  0  0  0  0  0  0  0
   35.4850   28.6760   41.0340 N   0  0  0  0  0  0  0  0  0  0  0  0
   36.7640   28.2920   41.2130 C   0  0  0  0  0  0  0  0  0  0  0  0
   37.6770   28.5850   40.2760 N   0  0  0  0  0  0  0  0  0  0  0  0
   38.0460   29.5200   38.3700 H   0  0  0  0  0  0  0  0  0  0  0  0
   35.7080   30.2160   38.0560 H   0  0  0  0  0  0  0  0  0  0  0  0
   34.0630   29.6340   39.8430 H   0  0  0  0  0  0  0  0  0  0  0  0
   37.0830   25.1400   41.2090 C   0  0  0  0  0  0  0  0  0  0  0  0
   36.2880   24.2480   41.9460 F   0  0  0  0  0  0  0  0  0  0  0  0
   36.4150   25.5680   40.1100 F   0  0  0  0  0  0  0  0  0  0  0  0
   38.1010   24.3120   40.7240 F   0  0  0  0  0  0  0  0  0  0  0  0
  1  7  1  1  0  0  0
  1  2  1  0  0  0  0
  2  9  1  0  0  0  0
  3  2  1  0  0  0  0
  3  4  1  0  0  0  0
  3 10  1  0  0  0  0
  4 13  1  0  0  0  0
  5  4  1  0  0  0  0
  6  1  1  0  0  0  0
  6  5  2  0  0  0  0
  8  2  1  0  0  0  0
 11  3  1  0  0  0  0
 12  4  1  0  0  0  0
 14  5  1  0  0  0  0
 15 20  1  0  0  0  0
 16 15  2  0  0  0  0
 16 17  1  0  0  0  0
 17 18  2  0  0  0  0
 18 19  1  0  0  0  0
 19  1  1  0  0  0  0
 20 19  2  0  0  0  0
 21 15  1  0  0  0  0
 22 16  1  0  0  0  0
 23 17  1  0  0  0  0
 24 25  1  0  0  0  0
 24  6  1  0  0  0  0
 26 24  1  0  0  0  0
 27 24  1  0  0  0  0
M  END
>  <minimizedAffinity>
-4.8440485

$$$$

 OpenBabel03252505013D

 27 28  0  0  1  0  0  0  0  0999 V2000
   37.7780   26.6190   40.3930 C   0  0  2  0  0  0  0  0  0  0  0  0
   37.6390   25.4430   39.5000 C   0  0  0  0  0  0  0  0  0  0  0  0
   36.5370   24.5100   39.8850 C   0  0  0  0  0  0  0  0  0  0  0  0
   36.8940   24.0560   41.2900 C   0  0  0  0  0  0  0  0  0  0  0  0
   36.7800   25.1810   42.2540 C   0  0  0  0  0  0  0  0  0  0  0  0
   37.2440   26.5220   41.7510 C   0  0  0  0  0  0  0  0  0  0  0  0
   38.8880   26.8450   40.4770 H   0  0  0  0  0  0  0  0  0  0  0  0
   37.5590   25.7460   38.4350 H   0  0  0  0  0  0  0  0  0  0  0  0
   38.5750   24.8340   39.5460 H   0  0  0  0  0  0  0  0  0  0  0  0
   36.5950   23.6230   39.2270 H   0  0  0  0  0  0  0  0  0  0  0  0
   35.5320   24.9640   39.9260 H   0  0  0  0  0  0  0  0  0  0  0  0
   36.0960   23.3490   41.5760 H   0  0  0  0  0  0  0  0  0  0  0  0
   37.8620   23.5530   41.2830 H   0  0  0  0  0  0  0  0  0  0  0  0
   36.3860   25.0630   43.2340 H   0  0  0  0  0  0  0  0  0  0  0  0
   37.5350   29.8550   38.6240 C   0  0  0  0  0  0  0  0  0  0  0  0
   36.1630   29.9360   38.3000 C   0  0  0  0  0  0  0  0  0  0  0  0
   35.3470   28.8630   38.7060 C   0  0  0  0  0  0  0  0  0  0  0  0
   35.9020   27.8200   39.3760 N   0  0  0  0  0  0  0  0  0  0  0  0
   37.2150   27.7790   39.6690 C   0  0  0  0  0  0  0  0  0  0  0  0
   38.0080   28.7920   39.2890 N   0  0  0  0  0  0  0  0  0  0  0  0
   38.1170   30.6990   38.2930 H   0  0  0  0  0  0  0  0  0  0  0  0
   35.7150   30.7640   37.7650 H   0  0  0  0  0  0  0  0  0  0  0  0
   34.3020   28.8410   38.5040 H   0  0  0  0  0  0  0  0  0  0  0  0
   37.0330   27.5240   42.8210 C   0  0  0  0  0  0  0  0  0  0  0  0
   38.1460   27.5400   43.6790 F   0  0  0  0  0  0  0  0  0  0  0  0
   36.7360   28.7820   42.4150 F   0  0  0  0  0  0  0  0  0  0  0  0
   35.9920   27.1570   43.6800 F   0  0  0  0  0  0  0  0  0  0  0  0
  1  7  1  1  0  0  0
  1  6  1  0  0  0  0
  2  9  1  0  0  0  0
  2  3  1  0  0  0  0
  2  1  1  0  0  0  0
  3 11  1  0  0  0  0
  3  4  1  0  0  0  0
  4 12  1  0  0  0  0
  4  5  1  0  0  0  0
  5 14  1  0  0  0  0
  6  5  2  0  0  0  0
  6 24  1  0  0  0  0
  8  2  1  0  0  0  0
 10  3  1  0  0  0  0
 13  4  1  0  0  0  0
 15 20  1  0  0  0  0
 16 15  2  0  0  0  0
 16 17  1  0  0  0  0
 17 18  2  0  0  0  0
 18 19  1  0  0  0  0
 19  1  1  0  0  0  0
 20 19  2  0  0  0  0
 21 15  1  0  0  0  0
 22 16  1  0  0  0  0
 23 17  1  0  0  0  0
 24 25  1  0  0  0  0
 24 27  1  0  0  0  0
 26 24  1  0  0  0  0
M  END
>  <minimizedAffinity>
-4.63308859

$$$$

 OpenBabel03252505013D

 27 28  0  0  1  0  0  0  0  0999 V2000
   38.7330   26.3220   41.2370 C   0  0  2  0  0  0  0  0  0  0  0  0
   39.9020   25.4340   41.4460 C   0  0  0  0  0  0  0  0  0  0  0  0
   40.0710   24.9700   42.8570 C   0  0  0  0  0  0  0  0  0  0  0  0
   40.2380   26.2470   43.6620 C   0  0  0  0  0  0  0  0  0  0  0  0
   38.9750   27.0290   43.6790 C   0  0  0  0  0  0  0  0  0  0  0  0
   38.1980   27.0430   42.3910 C   0  0  0  0  0  0  0  0  0  0  0  0
   39.0350   27.0950   40.4610 H   0  0  0  0  0  0  0  0  0  0  0  0
   39.8990   24.5810   40.7370 H   0  0  0  0  0  0  0  0  0  0  0  0
   40.8380   25.9950   41.2030 H   0  0  0  0  0  0  0  0  0  0  0  0
   41.0250   24.4130   42.9200 H   0  0  0  0  0  0  0  0  0  0  0  0
   39.2110   24.4200   43.2760 H   0  0  0  0  0  0  0  0  0  0  0  0
   40.3850   25.9130   44.7040 H   0  0  0  0  0  0  0  0  0  0  0  0
   41.1130   26.7960   43.3120 H   0  0  0  0  0  0  0  0  0  0  0  0
   38.6250   27.5400   44.5430 H   0  0  0  0  0  0  0  0  0  0  0  0
   36.3590   25.0920   38.6840 C   0  0  0  0  0  0  0  0  0  0  0  0
   35.7560   23.9850   39.3200 C   0  0  0  0  0  0  0  0  0  0  0  0
   36.1850   23.6890   40.6290 C   0  0  0  0  0  0  0  0  0  0  0  0
   37.1390   24.4630   41.2080 N   0  0  0  0  0  0  0  0  0  0  0  0
   37.6910   25.5120   40.5700 C   0  0  0  0  0  0  0  0  0  0  0  0
   37.2950   25.8090   39.3240 N   0  0  0  0  0  0  0  0  0  0  0  0
   35.9970   25.2790   37.6870 H   0  0  0  0  0  0  0  0  0  0  0  0
   34.9960   23.3650   38.8640 H   0  0  0  0  0  0  0  0  0  0  0  0
   35.7850   22.8730   41.1820 H   0  0  0  0  0  0  0  0  0  0  0  0
   36.9640   27.8380   42.5950 C   0  0  0  0  0  0  0  0  0  0  0  0
   37.2850   29.0600   43.2080 F   0  0  0  0  0  0  0  0  0  0  0  0
   36.1990   28.0500   41.4960 F   0  0  0  0  0  0  0  0  0  0  0  0
   36.1110   27.2430   43.5290 F   0  0  0  0  0  0  0  0  0  0  0  0
  1  7  1  6  0  0  0
  1  2  1  0  0  0  0
  1  6  1  0  0  0  0
  2  3  1  0  0  0  0
  3 10  1  0  0  0  0
  3 11  1  0  0  0  0
  3  4  1  0  0  0  0
  4  5  1  0  0  0  0
  4 12  1  0  0  0  0
  5 14  1  0  0  0  0
  6 24  1  0  0  0  0
  6  5  2  0  0  0  0
  8  2  1  0  0  0  0
  9  2  1  0  0  0  0
 13  4  1  0  0  0  0
 15 16  2  0  0  0  0
 15 20  1  0  0  0  0
 16 17  1  0  0  0  0
 17 23  1  0  0  0  0
 17 18  2  0  0  0  0
 19 18  1  0  0  0  0
 19  1  1  0  0  0  0
 20 19  2  0  0  0  0
 21 15  1  0  0  0  0
 22 16  1  0  0  0  0
 24 25  1  0  0  0  0
 24 27  1  0  0  0  0
 26 24  1  0  0  0  0
M  END
>  <minimizedAffinity>
-4.6102252

$$$$

 OpenBabel03252505013D

 27 28  0  0  1  0  0  0  0  0999 V2000
   36.7660   29.8400   41.5040 C   0  0  2  0  0  0  0  0  0  0  0  0
   37.5700   31.0290   41.1340 C   0  0  0  0  0  0  0  0  0  0  0  0
   39.0470   30.8060   41.1770 C   0  0  0  0  0  0  0  0  0  0  0  0
   39.3320   30.4150   42.6170 C   0  0  0  0  0  0  0  0  0  0  0  0
   38.7470   29.0850   42.9290 C   0  0  0  0  0  0  0  0  0  0  0  0
   37.3990   28.8060   42.3220 C   0  0  0  0  0  0  0  0  0  0  0  0
   35.8560   30.2150   42.0730 H   0  0  0  0  0  0  0  0  0  0  0  0
   37.2530   31.4480   40.1560 H   0  0  0  0  0  0  0  0  0  0  0  0
   37.3720   31.8510   41.8650 H   0  0  0  0  0  0  0  0  0  0  0  0
   39.5450   31.7760   40.9950 H   0  0  0  0  0  0  0  0  0  0  0  0
   39.4170   29.9920   40.5300 H   0  0  0  0  0  0  0  0  0  0  0  0
   40.4250   30.2680   42.6650 H   0  0  0  0  0  0  0  0  0  0  0  0
   39.0280   31.2190   43.2880 H   0  0  0  0  0  0  0  0  0  0  0  0
   39.2440   28.3630   43.5300 H   0  0  0  0  0  0  0  0  0  0  0  0
   36.5650   28.1860   38.2050 C   0  0  0  0  0  0  0  0  0  0  0  0
   35.1840   28.2250   37.9150 C   0  0  0  0  0  0  0  0  0  0  0  0
   34.3470   28.8300   38.8730 C   0  0  0  0  0  0  0  0  0  0  0  0
   34.8930   29.3370   40.0090 N   0  0  0  0  0  0  0  0  0  0  0  0
   36.2170   29.2820   40.2500 C   0  0  0  0  0  0  0  0  0  0  0  0
   37.0290   28.7100   39.3490 N   0  0  0  0  0  0  0  0  0  0  0  0
   37.1630   27.7150   37.4420 H   0  0  0  0  0  0  0  0  0  0  0  0
   34.7430   27.8220   37.0130 H   0  0  0  0  0  0  0  0  0  0  0  0
   33.2950   28.9020   38.7380 H   0  0  0  0  0  0  0  0  0  0  0  0
   36.9830   27.4370   42.7080 C   0  0  0  0  0  0  0  0  0  0  0  0
   35.8820   27.5050   43.5770 F   0  0  0  0  0  0  0  0  0  0  0  0
   36.7270   26.5790   41.6910 F   0  0  0  0  0  0  0  0  0  0  0  0
   37.9520   26.8020   43.4930 F   0  0  0  0  0  0  0  0  0  0  0  0
  1  7  1  1  0  0  0
  1  6  1  0  0  0  0
  2  3  1  0  0  0  0
  2  1  1  0  0  0  0
  2  9  1  0  0  0  0
  3  4  1  0  0  0  0
  4 12  1  0  0  0  0
  4  5  1  0  0  0  0
  4 13  1  0  0  0  0
  5 14  1  0  0  0  0
  6 24  1  0  0  0  0
  6  5  2  0  0  0  0
  8  2  1  0  0  0  0
 10  3  1  0  0  0  0
 11  3  1  0  0  0  0
 15 20  1  0  0  0  0
 16 15  2  0  0  0  0
 16 17  1  0  0  0  0
 17 18  2  0  0  0  0
 18 19  1  0  0  0  0
 19  1  1  0  0  0  0
 20 19  2  0  0  0  0
 21 15  1  0  0  0  0
 22 16  1  0  0  0  0
 23 17  1  0  0  0  0
 24 27  1  0  0  0  0
 24 25  1  0  0  0  0
 26 24  1  0  0  0  0
M  END
>  <minimizedAffinity>
-4.55005026

$$$$

 OpenBabel03252505013D

 27 28  0  0  1  0  0  0  0  0999 V2000
   38.2420   29.5530   42.4850 C   0  0  2  0  0  0  0  0  0  0  0  0
   38.9630   28.4690   43.1940 C   0  0  0  0  0  0  0  0  0  0  0  0
   38.6690   27.0980   42.6760 C   0  0  0  0  0  0  0  0  0  0  0  0
   37.1700   26.9340   42.8620 C   0  0  0  0  0  0  0  0  0  0  0  0
   36.4220   27.8410   41.9540 C   0  0  0  0  0  0  0  0  0  0  0  0
   37.0150   29.2110   41.7660 C   0  0  0  0  0  0  0  0  0  0  0  0
   37.9770   30.3400   43.2590 H   0  0  0  0  0  0  0  0  0  0  0  0
   40.0560   28.6610   43.2320 H   0  0  0  0  0  0  0  0  0  0  0  0
   38.6460   28.4560   44.2660 H   0  0  0  0  0  0  0  0  0  0  0  0
   39.1650   26.3680   43.3420 H   0  0  0  0  0  0  0  0  0  0  0  0
   38.8920   26.9430   41.6070 H   0  0  0  0  0  0  0  0  0  0  0  0
   36.9450   25.9140   42.5010 H   0  0  0  0  0  0  0  0  0  0  0  0
   36.9140   27.0270   43.9180 H   0  0  0  0  0  0  0  0  0  0  0  0
   35.5320   27.5490   41.4520 H   0  0  0  0  0  0  0  0  0  0  0  0
   40.5230   32.1000   41.0810 C   0  0  0  0  0  0  0  0  0  0  0  0
   41.0730   31.4470   39.9560 C   0  0  0  0  0  0  0  0  0  0  0  0
   40.6370   30.1320   39.7060 C   0  0  0  0  0  0  0  0  0  0  0  0
   39.7280   29.5610   40.5380 N   0  0  0  0  0  0  0  0  0  0  0  0
   39.2240   30.2170   41.6010 C   0  0  0  0  0  0  0  0  0  0  0  0
   39.6280   31.4700   41.8560 N   0  0  0  0  0  0  0  0  0  0  0  0
   40.8870   33.1040   41.2300 H   0  0  0  0  0  0  0  0  0  0  0  0
   41.7990   31.8960   39.2910 H   0  0  0  0  0  0  0  0  0  0  0  0
   40.9990   29.5650   38.8810 H   0  0  0  0  0  0  0  0  0  0  0  0
   36.1650   29.9650   40.8150 C   0  0  0  0  0  0  0  0  0  0  0  0
   35.8970   31.2430   41.3330 F   0  0  0  0  0  0  0  0  0  0  0  0
   36.6260   30.0600   39.5440 F   0  0  0  0  0  0  0  0  0  0  0  0
   34.8880   29.4070   40.7050 F   0  0  0  0  0  0  0  0  0  0  0  0
  1  2  1  0  0  0  0
  1  7  1  1  0  0  0
  2  8  1  0  0  0  0
  2  9  1  0  0  0  0
  3  4  1  0  0  0  0
  3  2  1  0  0  0  0
  3 10  1  0  0  0  0
  4 13  1  0  0  0  0
  5  4  1  0  0  0  0
  6  5  2  0  0  0  0
  6  1  1  0  0  0  0
 11  3  1  0  0  0  0
 12  4  1  0  0  0  0
 14  5  1  0  0  0  0
 15 21  1  0  0  0  0
 15 20  1  0  0  0  0
 16 15  2  0  0  0  0
 17 16  1  0  0  0  0
 17 18  2  0  0  0  0
 18 19  1  0  0  0  0
 19 20  2  0  0  0  0
 19  1  1  0  0  0  0
 22 16  1  0  0  0  0
 23 17  1  0  0  0  0
 24 25  1  0  0  0  0
 24  6  1  0  0  0  0
 26 24  1  0  0  0  0
 27 24  1  0  0  0  0
M  END
>  <minimizedAffinity>
-4.54820061

$$$$

 OpenBabel03252505013D

 27 28  0  0  1  0  0  0  0  0999 V2000
   36.4850   28.4620   41.7260 C   0  0  2  0  0  0  0  0  0  0  0  0
   35.4580   28.8280   40.7220 C   0  0  0  0  0  0  0  0  0  0  0  0
   35.9410   29.7720   39.6690 C   0  0  0  0  0  0  0  0  0  0  0  0
   36.3820   31.0060   40.4360 C   0  0  0  0  0  0  0  0  0  0  0  0
   37.5870   30.7180   41.2550 C   0  0  0  0  0  0  0  0  0  0  0  0
   37.6190   29.3660   41.9150 C   0  0  0  0  0  0  0  0  0  0  0  0
   35.9560   28.3640   42.7270 H   0  0  0  0  0  0  0  0  0  0  0  0
   34.9850   27.9300   40.2740 H   0  0  0  0  0  0  0  0  0  0  0  0
   34.6160   29.3590   41.2330 H   0  0  0  0  0  0  0  0  0  0  0  0
   35.0740   30.0620   39.0470 H   0  0  0  0  0  0  0  0  0  0  0  0
   36.8060   29.4160   39.0820 H   0  0  0  0  0  0  0  0  0  0  0  0
   36.7220   31.7190   39.6630 H   0  0  0  0  0  0  0  0  0  0  0  0
   35.5390   31.4220   40.9890 H   0  0  0  0  0  0  0  0  0  0  0  0
   38.3890   31.4070   41.3660 H   0  0  0  0  0  0  0  0  0  0  0  0
   37.2970   24.8740   42.0870 C   0  0  0  0  0  0  0  0  0  0  0  0
   37.7480   24.5200   40.7960 C   0  0  0  0  0  0  0  0  0  0  0  0
   37.7630   25.5390   39.8240 C   0  0  0  0  0  0  0  0  0  0  0  0
   37.3530   26.7890   40.1630 N   0  0  0  0  0  0  0  0  0  0  0  0
   36.9310   27.0890   41.4050 C   0  0  0  0  0  0  0  0  0  0  0  0
   36.9090   26.1310   42.3440 N   0  0  0  0  0  0  0  0  0  0  0  0
   37.3040   24.0610   42.7950 H   0  0  0  0  0  0  0  0  0  0  0  0
   38.0750   23.5260   40.5210 H   0  0  0  0  0  0  0  0  0  0  0  0
   38.0870   25.3610   38.8270 H   0  0  0  0  0  0  0  0  0  0  0  0
   38.8930   29.2360   42.6610 C   0  0  0  0  0  0  0  0  0  0  0  0
   39.3020   30.4990   43.1200 F   0  0  0  0  0  0  0  0  0  0  0  0
   38.9040   28.3410   43.6780 F   0  0  0  0  0  0  0  0  0  0  0  0
   39.9490   28.8590   41.8240 F   0  0  0  0  0  0  0  0  0  0  0  0
  1  6  1  0  0  0  0
  1  7  1  1  0  0  0
  2  9  1  0  0  0  0
  2  1  1  0  0  0  0
  3  4  1  0  0  0  0
  3  2  1  0  0  0  0
  4 13  1  0  0  0  0
  4  5  1  0  0  0  0
  5 14  1  0  0  0  0
  5  6  2  0  0  0  0
  6 24  1  0  0  0  0
  8  2  1  0  0  0  0
 10  3  1  0  0  0  0
 11  3  1  0  0  0  0
 12  4  1  0  0  0  0
 15 20  1  0  0  0  0
 15 21  1  0  0  0  0
 16 15  2  0  0  0  0
 17 18  2  0  0  0  0
 17 16  1  0  0  0  0
 18 19  1  0  0  0  0
 19  1  1  0  0  0  0
 19 20  2  0  0  0  0
 22 16  1  0  0  0  0
 23 17  1  0  0  0  0
 24 25  1  0  0  0  0
 24 26  1  0  0  0  0
 27 24  1  0  0  0  0
M  END
>  <minimizedAffinity>
-4.5178957

$$$$

 OpenBabel03252505013D

 27 28  0  0  1  0  0  0  0  0999 V2000
   37.4350   28.0920   40.8510 C   0  0  2  0  0  0  0  0  0  0  0  0
   37.0480   26.9230   41.6780 C   0  0  0  0  0  0  0  0  0  0  0  0
   36.6160   27.2710   43.0650 C   0  0  0  0  0  0  0  0  0  0  0  0
   37.8210   27.9650   43.6770 C   0  0  0  0  0  0  0  0  0  0  0  0
   38.0640   29.2770   43.0250 C   0  0  0  0  0  0  0  0  0  0  0  0
   37.8440   29.3170   41.5370 C   0  0  0  0  0  0  0  0  0  0  0  0
   38.3010   27.7640   40.1930 H   0  0  0  0  0  0  0  0  0  0  0  0
   36.2920   26.2920   41.1650 H   0  0  0  0  0  0  0  0  0  0  0  0
   37.9330   26.2510   41.8010 H   0  0  0  0  0  0  0  0  0  0  0  0
   36.4610   26.3280   43.6210 H   0  0  0  0  0  0  0  0  0  0  0  0
   35.7620   27.9670   43.1290 H   0  0  0  0  0  0  0  0  0  0  0  0
   37.5190   28.2080   44.7120 H   0  0  0  0  0  0  0  0  0  0  0  0
   38.6770   27.2880   43.6820 H   0  0  0  0  0  0  0  0  0  0  0  0
   38.3620   30.1430   43.5640 H   0  0  0  0  0  0  0  0  0  0  0  0
   34.1490   29.1290   39.5140 C   0  0  0  0  0  0  0  0  0  0  0  0
   34.2550   28.8200   38.1400 C   0  0  0  0  0  0  0  0  0  0  0  0
   35.4680   28.2520   37.7050 C   0  0  0  0  0  0  0  0  0  0  0  0
   36.4620   28.0330   38.6050 N   0  0  0  0  0  0  0  0  0  0  0  0
   36.3230   28.3400   39.9090 C   0  0  0  0  0  0  0  0  0  0  0  0
   35.1750   28.8820   40.3410 N   0  0  0  0  0  0  0  0  0  0  0  0
   33.2030   29.5600   39.7970 H   0  0  0  0  0  0  0  0  0  0  0  0
   33.4680   28.9930   37.4180 H   0  0  0  0  0  0  0  0  0  0  0  0
   35.6350   27.9880   36.6880 H   0  0  0  0  0  0  0  0  0  0  0  0
   38.1000   30.6970   41.0600 C   0  0  0  0  0  0  0  0  0  0  0  0
   38.7620   30.6530   39.8220 F   0  0  0  0  0  0  0  0  0  0  0  0
   37.0230   31.5160   40.9890 F   0  0  0  0  0  0  0  0  0  0  0  0
   39.0200   31.3650   41.8750 F   0  0  0  0  0  0  0  0  0  0  0  0
  1  7  1  6  0  0  0
  1  6  1  0  0  0  0
  1  2  1  0  0  0  0
  2  9  1  0  0  0  0
  2  3  1  0  0  0  0
  3 11  1  0  0  0  0
  3 10  1  0  0  0  0
  3  4  1  0  0  0  0
  4 13  1  0  0  0  0
  4 12  1  0  0  0  0
  5 14  1  0  0  0  0
  5  4  1  0  0  0  0
  6  5  2  0  0  0  0
  8  2  1  0  0  0  0
 15 21  1  0  0  0  0
 15 20  1  0  0  0  0
 16 15  2  0  0  0  0
 17 16  1  0  0  0  0
 17 18  2  0  0  0  0
 18 19  1  0  0  0  0
 19 20  2  0  0  0  0
 19  1  1  0  0  0  0
 22 16  1  0  0  0  0
 23 17  1  0  0  0  0
 24  6  1  0  0  0  0
 24 27  1  0  0  0  0
 25 24  1  0  0  0  0
 26 24  1  0  0  0  0
M  END
>  <minimizedAffinity>
-4.50663185

$$$$

 OpenBabel03252505013D

 27 28  0  0  1  0  0  0  0  0999 V2000
   39.0770   29.9000   40.7400 C   0  0  2  0  0  0  0  0  0  0  0  0
   40.4470   29.9430   41.3050 C   0  0  0  0  0  0  0  0  0  0  0  0
   40.7540   31.1880   42.0720 C   0  0  0  0  0  0  0  0  0  0  0  0
   40.5730   32.3110   41.0640 C   0  0  0  0  0  0  0  0  0  0  0  0
   39.1440   32.4530   40.6830 C   0  0  0  0  0  0  0  0  0  0  0  0
   38.3780   31.1670   40.5280 C   0  0  0  0  0  0  0  0  0  0  0  0
   39.1470   29.3760   39.7340 H   0  0  0  0  0  0  0  0  0  0  0  0
   40.6710   29.0340   41.9030 H   0  0  0  0  0  0  0  0  0  0  0  0
   41.1910   29.9160   40.4710 H   0  0  0  0  0  0  0  0  0  0  0  0
   41.8240   31.1640   42.3490 H   0  0  0  0  0  0  0  0  0  0  0  0
   40.0820   31.3920   42.9240 H   0  0  0  0  0  0  0  0  0  0  0  0
   40.8180   33.2350   41.6170 H   0  0  0  0  0  0  0  0  0  0  0  0
   41.2600   32.1740   40.2280 H   0  0  0  0  0  0  0  0  0  0  0  0
   38.6770   33.3970   40.5380 H   0  0  0  0  0  0  0  0  0  0  0  0
   37.3750   28.4430   43.6790 C   0  0  0  0  0  0  0  0  0  0  0  0
   36.8010   27.2620   43.1590 C   0  0  0  0  0  0  0  0  0  0  0  0
   37.0210   26.9930   41.7940 C   0  0  0  0  0  0  0  0  0  0  0  0
   37.7570   27.8620   41.0540 N   0  0  0  0  0  0  0  0  0  0  0  0
   38.2900   28.9790   41.5860 C   0  0  0  0  0  0  0  0  0  0  0  0
   38.0910   29.2510   42.8840 N   0  0  0  0  0  0  0  0  0  0  0  0
   37.1800   28.6040   44.7270 H   0  0  0  0  0  0  0  0  0  0  0  0
   36.2130   26.5670   43.7440 H   0  0  0  0  0  0  0  0  0  0  0  0
   36.6250   26.1270   41.3200 H   0  0  0  0  0  0  0  0  0  0  0  0
   36.9760   31.4940   40.1780 C   0  0  0  0  0  0  0  0  0  0  0  0
   36.8750   32.8570   39.8540 F   0  0  0  0  0  0  0  0  0  0  0  0
   36.4080   30.7370   39.2080 F   0  0  0  0  0  0  0  0  0  0  0  0
   36.1240   31.3800   41.2820 F   0  0  0  0  0  0  0  0  0  0  0  0
  1  7  1  6  0  0  0
  1  2  1  0  0  0  0
  1 19  1  0  0  0  0
  2  8  1  0  0  0  0
  2  3  1  0  0  0  0
  3 10  1  0  0  0  0
  3 11  1  0  0  0  0
  4 12  1  0  0  0  0
  4  3  1  0  0  0  0
  5  4  1  0  0  0  0
  6  5  2  0  0  0  0
  6  1  1  0  0  0  0
  9  2  1  0  0  0  0
 13  4  1  0  0  0  0
 14  5  1  0  0  0  0
 15 21  1  0  0  0  0
 16 15  1  0  0  0  0
 16 22  1  0  0  0  0
 17 16  2  0  0  0  0
 18 19  2  0  0  0  0
 18 17  1  0  0  0  0
 19 20  1  0  0  0  0
 20 15  2  0  0  0  0
 23 17  1  0  0  0  0
 24  6  1  0  0  0  0
 24 27  1  0  0  0  0
 25 24  1  0  0  0  0
 26 24  1  0  0  0  0
M  END
>  <minimizedAffinity>
-4.50099516

$$$$
