
 OpenBabel03252508353D

 26 27  0  0  0  0  0  0  0  0999 V2000
   45.2380   34.3250   41.2580 C   0  0  0  0  0  0  0  0  0  0  0  0
   44.3100   33.8380   40.3620 C   0  0  0  0  0  0  0  0  0  0  0  0
   44.7930   33.2710   39.2080 C   0  0  0  0  0  0  0  0  0  0  0  0
   46.1450   33.1740   38.9240 C   0  0  0  0  0  0  0  0  0  0  0  0
   47.0360   33.6730   39.8460 C   0  0  0  0  0  0  0  0  0  0  0  0
   46.5890   34.2530   41.0210 C   0  0  0  0  0  0  0  0  0  0  0  0
   44.0490   32.8940   38.5180 H   0  0  0  0  0  0  0  0  0  0  0  0
   46.4660   32.7150   37.9960 H   0  0  0  0  0  0  0  0  0  0  0  0
   48.0920   33.5900   39.6100 H   0  0  0  0  0  0  0  0  0  0  0  0
   40.8590   35.2670   40.8450 C   0  0  0  0  0  0  0  0  0  0  0  0
   42.2090   35.1680   40.5030 C   0  0  0  0  0  0  0  0  0  0  0  0
   42.9020   33.9660   40.7100 C   0  0  0  0  0  0  0  0  0  0  0  0
   42.1930   32.9510   41.2450 N   0  0  0  0  0  0  0  0  0  0  0  0
   40.8970   33.0610   41.5670 C   0  0  0  0  0  0  0  0  0  0  0  0
   40.2390   34.2120   41.3680 N   0  0  0  0  0  0  0  0  0  0  0  0
   40.1940   36.4870   40.6240 N   0  0  0  0  0  0  0  0  0  0  0  0
   42.7240   36.0000   40.0840 H   0  0  0  0  0  0  0  0  0  0  0  0
   40.3000   32.2600   42.0000 H   0  0  0  0  0  0  0  0  0  0  0  0
   40.6170   37.2470   40.0440 H   0  0  0  0  0  0  0  0  0  0  0  0
   39.2490   36.6750   41.0340 H   0  0  0  0  0  0  0  0  0  0  0  0
   47.5500   34.7920   42.0190 C   0  0  0  0  0  0  0  0  0  0  0  0
   47.3280   36.1180   42.3220 F   0  0  0  0  0  0  0  0  0  0  0  0
   48.8360   34.7440   41.4840 F   0  0  0  0  0  0  0  0  0  0  0  0
   47.4580   34.0150   43.1720 F   0  0  0  0  0  0  0  0  0  0  0  0
   44.4590   35.4230   43.5060 N   0  0  0  0  0  0  0  0  0  0  0  0
   44.8080   34.9330   42.4870 C   0  0  0  0  0  0  0  0  0  0  0  0
  1 26  1  0  0  0  0
  2 12  1  0  0  0  0
  2  1  2  0  0  0  0
  3  2  1  0  0  0  0
  4  3  2  0  0  0  0
  4  5  1  0  0  0  0
  5  6  2  0  0  0  0
  6  1  1  0  0  0  0
  6 21  1  0  0  0  0
  7  3  1  0  0  0  0
  8  4  1  0  0  0  0
  9  5  1  0  0  0  0
 10 15  1  0  0  0  0
 11 12  1  0  0  0  0
 11 10  2  0  0  0  0
 12 13  2  0  0  0  0
 13 14  1  0  0  0  0
 14 18  1  0  0  0  0
 15 14  2  0  0  0  0
 16 10  1  0  0  0  0
 16 20  1  0  0  0  0
 17 11  1  0  0  0  0
 19 16  1  0  0  0  0
 21 22  1  0  0  0  0
 21 24  1  0  0  0  0
 23 21  1  0  0  0  0
 26 25  3  0  0  0  0
M  END
>  <minimizedAffinity>
-4.84075785

>  <minimizedRMSD>
4.24498081

$$$$
