
 OpenBabel03242521213D

 31 33  0  0  0  0  0  0  0  0999 V2000
   45.8240   33.9970   41.0780 C   0  0  0  0  0  0  0  0  0  0  0  0
   45.9300   35.0050   41.9870 C   0  0  0  0  0  0  0  0  0  0  0  0
   44.8580   35.5310   42.6830 C   0  0  0  0  0  0  0  0  0  0  0  0
   43.6570   34.9700   42.4030 N   0  0  0  0  0  0  0  0  0  0  0  0
   43.5540   33.9770   41.5070 C   0  0  0  0  0  0  0  0  0  0  0  0
   44.6060   33.4600   40.8240 N   0  0  0  0  0  0  0  0  0  0  0  0
   46.8930   35.4480   42.2050 H   0  0  0  0  0  0  0  0  0  0  0  0
   44.9280   36.3220   43.3980 H   0  0  0  0  0  0  0  0  0  0  0  0
   42.2200   33.3850   41.2250 C   0  0  0  0  0  0  0  0  0  0  0  0
   41.9280   32.1210   41.7000 C   0  0  0  0  0  0  0  0  0  0  0  0
   40.7270   31.4790   41.4980 C   0  0  0  0  0  0  0  0  0  0  0  0
   39.7560   32.1730   40.7600 C   0  0  0  0  0  0  0  0  0  0  0  0
   40.0500   33.4210   40.2940 C   0  0  0  0  0  0  0  0  0  0  0  0
   41.2550   34.0460   40.5060 C   0  0  0  0  0  0  0  0  0  0  0  0
   42.6950   31.6080   42.2670 H   0  0  0  0  0  0  0  0  0  0  0  0
   40.5600   30.4850   41.8980 H   0  0  0  0  0  0  0  0  0  0  0  0
   38.8060   31.6870   40.5900 H   0  0  0  0  0  0  0  0  0  0  0  0
   39.2760   33.9250   39.7290 H   0  0  0  0  0  0  0  0  0  0  0  0
   41.5510   35.4060   39.9870 C   0  0  0  0  0  0  0  0  0  0  0  0
   41.4460   36.2890   41.0680 F   0  0  0  0  0  0  0  0  0  0  0  0
   42.8010   35.5500   39.4680 F   0  0  0  0  0  0  0  0  0  0  0  0
   40.5360   35.7690   39.1080 F   0  0  0  0  0  0  0  0  0  0  0  0
   49.0270   32.3390   40.4230 C   0  0  0  0  0  0  0  0  0  0  0  0
   49.1700   32.5010   39.0500 C   0  0  0  0  0  0  0  0  0  0  0  0
   48.1810   33.1710   38.3500 C   0  0  0  0  0  0  0  0  0  0  0  0
   47.0970   33.6490   39.0420 N   0  0  0  0  0  0  0  0  0  0  0  0
   46.9850   33.4780   40.3700 C   0  0  0  0  0  0  0  0  0  0  0  0
   47.9340   32.8340   41.0500 N   0  0  0  0  0  0  0  0  0  0  0  0
   49.8240   31.8090   40.9250 H   0  0  0  0  0  0  0  0  0  0  0  0
   49.9700   32.1650   38.4350 H   0  0  0  0  0  0  0  0  0  0  0  0
   48.1030   33.3990   37.2950 H   0  0  0  0  0  0  0  0  0  0  0  0
  1  2  1  0  0  0  0
  2  7  1  0  0  0  0
  2  3  2  0  0  0  0
  3  8  1  0  0  0  0
  4  3  1  0  0  0  0
  5  4  2  0  0  0  0
  6  1  2  0  0  0  0
  6  5  1  0  0  0  0
  9  5  1  0  0  0  0
  9 10  1  0  0  0  0
 10 15  1  0  0  0  0
 11 10  2  0  0  0  0
 11 16  1  0  0  0  0
 12 11  1  0  0  0  0
 13 14  1  0  0  0  0
 13 12  2  0  0  0  0
 14  9  2  0  0  0  0
 17 12  1  0  0  0  0
 18 13  1  0  0  0  0
 19 14  1  0  0  0  0
 19 20  1  0  0  0  0
 21 19  1  0  0  0  0
 22 19  1  0  0  0  0
 23 29  1  0  0  0  0
 23 28  1  0  0  0  0
 24 23  2  0  0  0  0
 25 26  2  0  0  0  0
 25 24  1  0  0  0  0
 26 27  1  0  0  0  0
 27 28  2  0  0  0  0
 27  1  1  0  0  0  0
 30 24  1  0  0  0  0
 31 25  1  0  0  0  0
M  END
>  <minimizedAffinity>
-4.82954502

>  <minimizedRMSD>
6.92171478

$$$$
