
 OpenBabel03252502443D

 26 27  0  0  1  0  0  0  0  0999 V2000
   47.0240   35.1010   41.5790 C   0  0  0  0  0  0  0  0  0  0  0  0
   46.5120   35.2640   40.6070 H   0  0  0  0  0  0  0  0  0  0  0  0
   47.0130   36.0220   42.1990 H   0  0  0  0  0  0  0  0  0  0  0  0
   48.4550   34.7070   41.3840 C   0  0  1  0  0  0  0  0  0  0  0  0
   49.4960   35.5620   42.0350 C   0  0  0  0  0  0  0  0  0  0  0  0
   49.1870   34.2190   42.5630 C   0  0  2  0  0  0  0  0  0  0  0  0
   48.6280   34.3150   40.3460 H   0  0  0  0  0  0  0  0  0  0  0  0
   50.3910   35.7210   41.3950 H   0  0  0  0  0  0  0  0  0  0  0  0
   49.2480   36.5120   42.5460 H   0  0  0  0  0  0  0  0  0  0  0  0
   48.8350   33.8850   43.5110 H   0  0  0  0  0  0  0  0  0  0  0  0
   50.2380   33.1690   42.1500 C   0  0  0  0  0  0  0  0  0  0  0  0
   49.9980   32.0090   42.8950 F   0  0  0  0  0  0  0  0  0  0  0  0
   50.0890   32.7840   40.8330 F   0  0  0  0  0  0  0  0  0  0  0  0
   51.5170   33.6170   42.2870 F   0  0  0  0  0  0  0  0  0  0  0  0
   46.3510   33.9130   42.2210 C   0  0  0  0  0  0  0  0  0  0  0  0
   47.1810   33.3300   42.7350 H   0  0  0  0  0  0  0  0  0  0  0  0
   45.7250   33.3290   41.5650 H   0  0  0  0  0  0  0  0  0  0  0  0
   44.4620   35.9350   44.7430 C   0  0  0  0  0  0  0  0  0  0  0  0
   45.0080   35.5220   43.5140 C   0  0  0  0  0  0  0  0  0  0  0  0
   45.7070   34.3480   43.4960 C   0  0  0  0  0  0  0  0  0  0  0  0
   45.8450   33.6280   44.6450 N   0  0  0  0  0  0  0  0  0  0  0  0
   45.3240   34.0300   45.7920 C   0  0  0  0  0  0  0  0  0  0  0  0
   44.6320   35.1790   45.8560 N   0  0  0  0  0  0  0  0  0  0  0  0
   43.8930   36.8290   44.9170 H   0  0  0  0  0  0  0  0  0  0  0  0
   44.7540   36.2400   42.7590 H   0  0  0  0  0  0  0  0  0  0  0  0
   45.5110   33.3590   46.6290 H   0  0  0  0  0  0  0  0  0  0  0  0
  1  3  1  0  0  0  0
  1 15  1  0  0  0  0
  2  1  1  0  0  0  0
  4  7  1  6  0  0  0
  4  1  1  0  0  0  0
  4  5  1  0  0  0  0
  4  6  1  0  0  0  0
  5  9  1  0  0  0  0
  5  6  1  0  0  0  0
  6 10  1  1  0  0  0
  8  5  1  0  0  0  0
 11 14  1  0  0  0  0
 11  6  1  0  0  0  0
 11 12  1  0  0  0  0
 13 11  1  0  0  0  0
 15 16  1  0  0  0  0
 15 20  1  0  0  0  0
 17 15  1  0  0  0  0
 18 24  1  0  0  0  0
 18 23  1  0  0  0  0
 19 18  2  0  0  0  0
 20 19  1  0  0  0  0
 20 21  2  0  0  0  0
 21 22  1  0  0  0  0
 22 23  2  0  0  0  0
 22 26  1  0  0  0  0
 25 19  1  0  0  0  0
M  END
>  <minimizedAffinity>
-4.65543604

>  <minimizedRMSD>
0.974206924

$$$$
