
 OpenBabel03252506413D

 35 37  0  0  1  0  0  0  0  0999 V2000
   49.4440   33.3610   41.4440 N   0  0  1  0  0  0  0  0  0  0  0  0
   50.6650   33.0870   42.1620 C   0  0  0  0  0  0  0  0  0  0  0  0
   51.2820   31.7640   41.9300 C   0  0  0  0  0  0  0  0  0  0  0  0
   50.3440   30.6540   42.3070 C   0  0  0  0  0  0  0  0  0  0  0  0
   48.9180   31.0500   42.1850 C   0  0  0  0  0  0  0  0  0  0  0  0
   48.7780   32.1200   41.1470 C   0  0  2  0  0  0  0  0  0  0  0  0
   50.5080   33.2020   43.2600 H   0  0  0  0  0  0  0  0  0  0  0  0
   51.3880   33.8920   41.8430 H   0  0  0  0  0  0  0  0  0  0  0  0
   52.0990   31.6960   42.7310 H   0  0  0  0  0  0  0  0  0  0  0  0
   51.8510   31.6230   41.0090 H   0  0  0  0  0  0  0  0  0  0  0  0
   50.5020   30.2260   43.3050 H   0  0  0  0  0  0  0  0  0  0  0  0
   50.5830   29.8110   41.5940 H   0  0  0  0  0  0  0  0  0  0  0  0
   48.5260   31.4630   43.1510 H   0  0  0  0  0  0  0  0  0  0  0  0
   48.2660   30.2190   41.8780 H   0  0  0  0  0  0  0  0  0  0  0  0
   47.6710   32.4290   41.3020 H   0  0  0  0  0  0  0  0  0  0  0  0
   47.2540   34.6120   41.9680 C   0  0  1  0  0  0  0  0  0  0  0  0
   48.3440   35.5680   41.7100 C   0  0  0  0  0  0  0  0  0  0  0  0
   48.6690   34.2350   42.2720 C   0  0  2  0  0  0  0  0  0  0  0  0
   46.7910   34.1890   41.0650 H   0  0  0  0  0  0  0  0  0  0  0  0
   48.4360   36.4140   42.4000 H   0  0  0  0  0  0  0  0  0  0  0  0
   48.6570   35.8080   40.6680 H   0  0  0  0  0  0  0  0  0  0  0  0
   48.8870   34.1100   43.3560 H   0  0  0  0  0  0  0  0  0  0  0  0
   45.5290   36.0350   43.1460 C   0  0  0  0  0  0  0  0  0  0  0  0
   46.3290   34.8680   43.1090 C   0  0  0  0  0  0  0  0  0  0  0  0
   46.2180   33.9650   44.1780 C   0  0  0  0  0  0  0  0  0  0  0  0
   45.3530   34.2600   45.1790 N   0  0  0  0  0  0  0  0  0  0  0  0
   44.6010   35.3890   45.1810 C   0  0  0  0  0  0  0  0  0  0  0  0
   44.6830   36.2890   44.1600 N   0  0  0  0  0  0  0  0  0  0  0  0
   45.5920   36.7490   42.3380 H   0  0  0  0  0  0  0  0  0  0  0  0
   46.8200   33.0760   44.1600 H   0  0  0  0  0  0  0  0  0  0  0  0
   43.9460   35.5070   46.0450 H   0  0  0  0  0  0  0  0  0  0  0  0
   48.7920   31.6760   39.7290 C   0  0  0  0  0  0  0  0  0  0  0  0
   49.9540   32.0990   39.0610 F   0  0  0  0  0  0  0  0  0  0  0  0
   48.9050   30.2710   39.6370 F   0  0  0  0  0  0  0  0  0  0  0  0
   47.6600   31.9550   39.0030 F   0  0  0  0  0  0  0  0  0  0  0  0
  1  2  1  1  0  0  0
  1 18  1  0  0  0  0
  2  7  1  0  0  0  0
  3  2  1  0  0  0  0
  3  4  1  0  0  0  0
  3  9  1  0  0  0  0
  4 11  1  0  0  0  0
  5  4  1  0  0  0  0
  5 13  1  0  0  0  0
  6 15  1  1  0  0  0
  6  1  1  0  0  0  0
  6  5  1  0  0  0  0
  8  2  1  0  0  0  0
 10  3  1  0  0  0  0
 12  4  1  0  0  0  0
 14  5  1  0  0  0  0
 16 19  1  6  0  0  0
 16 18  1  0  0  0  0
 16 24  1  0  0  0  0
 17 16  1  0  0  0  0
 17 18  1  0  0  0  0
 17 20  1  0  0  0  0
 18 22  1  1  0  0  0
 21 17  1  0  0  0  0
 23 28  1  0  0  0  0
 24 23  2  0  0  0  0
 24 25  1  0  0  0  0
 25 26  2  0  0  0  0
 26 27  1  0  0  0  0
 27 31  1  0  0  0  0
 28 27  2  0  0  0  0
 29 23  1  0  0  0  0
 30 25  1  0  0  0  0
 32  6  1  0  0  0  0
 33 32  1  0  0  0  0
 34 32  1  0  0  0  0
 35 32  1  0  0  0  0
M  END
>  <minimizedAffinity>
-4.69568443

>  <minimizedRMSD>
0.484477639

$$$$
