
 OpenBabel03252506413D

 35 37  0  0  1  0  0  0  0  0999 V2000
   49.4440   33.3670   41.4240 N   0  0  1  0  0  0  0  0  0  0  0  0
   50.6750   33.1010   42.1280 C   0  0  0  0  0  0  0  0  0  0  0  0
   51.2980   31.7820   41.8900 C   0  0  0  0  0  0  0  0  0  0  0  0
   50.3720   30.6660   42.2780 C   0  0  0  0  0  0  0  0  0  0  0  0
   48.9420   31.0530   42.1720 C   0  0  0  0  0  0  0  0  0  0  0  0
   48.7840   32.1210   41.1350 C   0  0  2  0  0  0  0  0  0  0  0  0
   50.5300   33.2160   43.2280 H   0  0  0  0  0  0  0  0  0  0  0  0
   51.3890   33.9110   41.8000 H   0  0  0  0  0  0  0  0  0  0  0  0
   52.1250   31.7200   42.6820 H   0  0  0  0  0  0  0  0  0  0  0  0
   51.8570   31.6440   40.9620 H   0  0  0  0  0  0  0  0  0  0  0  0
   50.5440   30.2400   43.2740 H   0  0  0  0  0  0  0  0  0  0  0  0
   50.6080   29.8250   41.5630 H   0  0  0  0  0  0  0  0  0  0  0  0
   48.5580   31.4640   43.1420 H   0  0  0  0  0  0  0  0  0  0  0  0
   48.2920   30.2180   41.8720 H   0  0  0  0  0  0  0  0  0  0  0  0
   47.6760   32.4240   41.3030 H   0  0  0  0  0  0  0  0  0  0  0  0
   47.2620   34.6280   41.9560 C   0  0  1  0  0  0  0  0  0  0  0  0
   48.3610   35.5790   41.7140 C   0  0  0  0  0  0  0  0  0  0  0  0
   48.6740   34.2370   42.2610 C   0  0  2  0  0  0  0  0  0  0  0  0
   46.7990   34.2200   41.0470 H   0  0  0  0  0  0  0  0  0  0  0  0
   48.4560   36.4150   42.4160 H   0  0  0  0  0  0  0  0  0  0  0  0
   48.6790   35.8300   40.6770 H   0  0  0  0  0  0  0  0  0  0  0  0
   48.8860   34.0960   43.3440 H   0  0  0  0  0  0  0  0  0  0  0  0
   45.5320   36.0410   43.1390 C   0  0  0  0  0  0  0  0  0  0  0  0
   46.3350   34.8760   43.0980 C   0  0  0  0  0  0  0  0  0  0  0  0
   46.2240   33.9680   44.1620 C   0  0  0  0  0  0  0  0  0  0  0  0
   45.3570   34.2570   45.1630 N   0  0  0  0  0  0  0  0  0  0  0  0
   44.6020   35.3840   45.1700 C   0  0  0  0  0  0  0  0  0  0  0  0
   44.6840   36.2880   44.1520 N   0  0  0  0  0  0  0  0  0  0  0  0
   45.5950   36.7590   42.3330 H   0  0  0  0  0  0  0  0  0  0  0  0
   46.8290   33.0820   44.1410 H   0  0  0  0  0  0  0  0  0  0  0  0
   43.9470   35.4960   46.0330 H   0  0  0  0  0  0  0  0  0  0  0  0
   48.7840   31.6770   39.7170 C   0  0  0  0  0  0  0  0  0  0  0  0
   49.9380   32.1030   39.0380 F   0  0  0  0  0  0  0  0  0  0  0  0
   48.9000   30.2720   39.6250 F   0  0  0  0  0  0  0  0  0  0  0  0
   47.6430   31.9520   39.0040 F   0  0  0  0  0  0  0  0  0  0  0  0
  1  2  1  1  0  0  0
  1 18  1  0  0  0  0
  2  7  1  0  0  0  0
  3  2  1  0  0  0  0
  3  4  1  0  0  0  0
  3  9  1  0  0  0  0
  4 11  1  0  0  0  0
  5  4  1  0  0  0  0
  5 13  1  0  0  0  0
  6 15  1  1  0  0  0
  6  1  1  0  0  0  0
  6  5  1  0  0  0  0
  8  2  1  0  0  0  0
 10  3  1  0  0  0  0
 12  4  1  0  0  0  0
 14  5  1  0  0  0  0
 16 19  1  6  0  0  0
 16 18  1  0  0  0  0
 16 24  1  0  0  0  0
 17 16  1  0  0  0  0
 17 18  1  0  0  0  0
 17 20  1  0  0  0  0
 18 22  1  1  0  0  0
 21 17  1  0  0  0  0
 23 28  1  0  0  0  0
 24 23  2  0  0  0  0
 24 25  1  0  0  0  0
 25 26  2  0  0  0  0
 26 27  1  0  0  0  0
 27 31  1  0  0  0  0
 28 27  2  0  0  0  0
 29 23  1  0  0  0  0
 30 25  1  0  0  0  0
 32  6  1  0  0  0  0
 33 32  1  0  0  0  0
 34 32  1  0  0  0  0
 35 32  1  0  0  0  0
M  END
>  <minimizedAffinity>
-4.70299482

>  <minimizedRMSD>
0.413831949

$$$$
