
 OpenBabel03242522023D

 30 31  0  0  1  0  0  0  0  0999 V2000
   47.5910   33.4410   43.2370 N   0  0  0  0  0  0  0  0  0  0  0  0
   47.2430   32.5040   42.1900 C   0  0  0  0  0  0  0  0  0  0  0  0
   48.4320   32.0880   41.3870 C   0  0  0  0  0  0  0  0  0  0  0  0
   49.1980   33.1670   40.8970 N   0  0  0  0  0  0  0  0  0  0  0  0
   49.3550   34.2920   41.7520 C   0  0  2  0  0  0  0  0  0  0  0  0
   48.7920   34.2080   43.1130 C   0  0  0  0  0  0  0  0  0  0  0  0
   46.5710   33.0680   41.4920 H   0  0  0  0  0  0  0  0  0  0  0  0
   46.6920   31.6350   42.5650 H   0  0  0  0  0  0  0  0  0  0  0  0
   49.0460   31.4140   42.0220 H   0  0  0  0  0  0  0  0  0  0  0  0
   48.0560   31.4920   40.5260 H   0  0  0  0  0  0  0  0  0  0  0  0
   50.0220   32.8640   40.3810 H   0  0  0  0  0  0  0  0  0  0  0  0
   50.4490   34.5270   41.8340 H   0  0  0  0  0  0  0  0  0  0  0  0
   49.5880   33.8340   43.8200 H   0  0  0  0  0  0  0  0  0  0  0  0
   48.5630   35.2270   43.4920 H   0  0  0  0  0  0  0  0  0  0  0  0
   44.9030   34.5550   45.6020 C   0  0  0  0  0  0  0  0  0  0  0  0
   45.6570   34.4750   44.4260 C   0  0  0  0  0  0  0  0  0  0  0  0
   46.7610   33.6020   44.3720 C   0  0  0  0  0  0  0  0  0  0  0  0
   47.0060   32.8940   45.4930 N   0  0  0  0  0  0  0  0  0  0  0  0
   46.2660   32.9850   46.6160 C   0  0  0  0  0  0  0  0  0  0  0  0
   45.2160   33.8140   46.6760 N   0  0  0  0  0  0  0  0  0  0  0  0
   44.0650   35.2420   45.5910 H   0  0  0  0  0  0  0  0  0  0  0  0
   45.4410   35.0540   43.5400 H   0  0  0  0  0  0  0  0  0  0  0  0
   46.6210   32.1540   47.8120 C   0  0  0  0  0  0  0  0  0  0  0  0
   47.9370   32.3390   48.1490 F   0  0  0  0  0  0  0  0  0  0  0  0
   45.8450   32.5730   48.8790 F   0  0  0  0  0  0  0  0  0  0  0  0
   46.4340   30.8280   47.4960 F   0  0  0  0  0  0  0  0  0  0  0  0
   48.7010   35.4870   41.0610 C   0  0  0  0  0  0  0  0  0  0  0  0
   49.4880   36.6220   41.2240 F   0  0  0  0  0  0  0  0  0  0  0  0
   47.5330   35.7370   41.7650 F   0  0  0  0  0  0  0  0  0  0  0  0
   48.4980   35.2930   39.7340 F   0  0  0  0  0  0  0  0  0  0  0  0
  1 17  1  0  0  0  0
  2  8  1  0  0  0  0
  2  1  1  0  0  0  0
  3  9  1  0  0  0  0
  3  2  1  0  0  0  0
  4  3  1  0  0  0  0
  4  5  1  0  0  0  0
  5 12  1  1  0  0  0
  5  6  1  0  0  0  0
  6  1  1  0  0  0  0
  6 14  1  0  0  0  0
  6 13  1  0  0  0  0
  7  2  1  0  0  0  0
 10  3  1  0  0  0  0
 11  4  1  0  0  0  0
 15 20  1  0  0  0  0
 16 15  2  0  0  0  0
 17 16  1  0  0  0  0
 17 18  2  0  0  0  0
 18 19  1  0  0  0  0
 19 20  2  0  0  0  0
 19 23  1  0  0  0  0
 21 15  1  0  0  0  0
 22 16  1  0  0  0  0
 23 24  1  0  0  0  0
 23 25  1  0  0  0  0
 26 23  1  0  0  0  0
 27 28  1  0  0  0  0
 27  5  1  0  0  0  0
 27 29  1  0  0  0  0
 30 27  1  0  0  0  0
M  END
>  <minimizedAffinity>
-5.88441038

>  <minimizedRMSD>
0.471810371

$$$$
