
 OpenBabel03242516273D

 38 41  0  0  0  0  0  0  0  0999 V2000
   38.0280   31.6790   38.9170 C   0  0  0  0  0  0  0  0  0  0  0  0
   37.8240   30.6280   39.7950 C   0  0  0  0  0  0  0  0  0  0  0  0
   37.1700   29.4920   39.3930 C   0  0  0  0  0  0  0  0  0  0  0  0
   36.7020   29.3780   38.0940 C   0  0  0  0  0  0  0  0  0  0  0  0
   36.8870   30.3910   37.2050 C   0  0  0  0  0  0  0  0  0  0  0  0
   37.5460   31.5210   37.6370 C   0  0  0  0  0  0  0  0  0  0  0  0
   38.2040   30.7560   40.7970 H   0  0  0  0  0  0  0  0  0  0  0  0
   36.1920   28.4550   37.8330 H   0  0  0  0  0  0  0  0  0  0  0  0
   36.5180   30.2870   36.2060 H   0  0  0  0  0  0  0  0  0  0  0  0
   37.7140   32.3520   36.9620 H   0  0  0  0  0  0  0  0  0  0  0  0
   40.7800   34.0130   39.5130 C   0  0  0  0  0  0  0  0  0  0  0  0
   40.1600   35.0990   40.1580 C   0  0  0  0  0  0  0  0  0  0  0  0
   38.7820   35.0310   40.3930 C   0  0  0  0  0  0  0  0  0  0  0  0
   38.0810   33.9250   39.9940 N   0  0  0  0  0  0  0  0  0  0  0  0
   38.7270   32.8940   39.3710 C   0  0  0  0  0  0  0  0  0  0  0  0
   40.0660   32.9340   39.1300 N   0  0  0  0  0  0  0  0  0  0  0  0
   41.8470   34.0840   39.3390 H   0  0  0  0  0  0  0  0  0  0  0  0
   40.6650   35.9880   40.4900 H   0  0  0  0  0  0  0  0  0  0  0  0
   38.1830   35.7900   40.8750 H   0  0  0  0  0  0  0  0  0  0  0  0
   36.9160   28.1820   40.5460 S   0  0  0  0  0  0  0  0  0  0  0  0
   38.1820   26.9820   40.4390 C   0  0  0  0  0  0  0  0  0  0  0  0
   38.5350   26.3680   39.2700 N   0  0  0  0  0  0  0  0  0  0  0  0
   39.4800   25.4350   39.1840 C   0  0  0  0  0  0  0  0  0  0  0  0
   40.1100   25.0890   40.3130 N   0  0  0  0  0  0  0  0  0  0  0  0
   39.8280   25.6380   41.5060 C   0  0  0  0  0  0  0  0  0  0  0  0
   40.4610   25.2590   42.6770 C   0  0  0  0  0  0  0  0  0  0  0  0
   40.1250   25.8260   43.8710 C   0  0  0  0  0  0  0  0  0  0  0  0
   39.1440   26.7930   43.9400 C   0  0  0  0  0  0  0  0  0  0  0  0
   38.4950   27.1900   42.7780 C   0  0  0  0  0  0  0  0  0  0  0  0
   38.8400   26.6120   41.5830 C   0  0  0  0  0  0  0  0  0  0  0  0
   39.7520   24.9590   38.2640 H   0  0  0  0  0  0  0  0  0  0  0  0
   41.2130   24.5000   42.5270 H   0  0  0  0  0  0  0  0  0  0  0  0
   40.6870   25.4490   44.7120 H   0  0  0  0  0  0  0  0  0  0  0  0
   38.9950   27.1420   44.9540 H   0  0  0  0  0  0  0  0  0  0  0  0
   37.4340   28.1610   43.0350 C   0  0  0  0  0  0  0  0  0  0  0  0
   36.1360   27.7380   42.8860 F   0  0  0  0  0  0  0  0  0  0  0  0
   37.7360   29.4610   42.7560 F   0  0  0  0  0  0  0  0  0  0  0  0
   37.3110   28.3850   44.4140 F   0  0  0  0  0  0  0  0  0  0  0  0
  1 15  1  0  0  0  0
  1  2  1  0  0  0  0
  2  7  1  0  0  0  0
  3  2  2  0  0  0  0
  3 20  1  0  0  0  0
  4  3  1  0  0  0  0
  5  6  1  0  0  0  0
  5  4  2  0  0  0  0
  6  1  2  0  0  0  0
  8  4  1  0  0  0  0
  9  5  1  0  0  0  0
 10  6  1  0  0  0  0
 11 12  1  0  0  0  0
 12 13  2  0  0  0  0
 12 18  1  0  0  0  0
 13 19  1  0  0  0  0
 14 13  1  0  0  0  0
 15 14  2  0  0  0  0
 16 15  1  0  0  0  0
 16 11  2  0  0  0  0
 17 11  1  0  0  0  0
 21 20  1  0  0  0  0
 21 30  1  0  0  0  0
 22 21  2  0  0  0  0
 23 22  1  0  0  0  0
 23 24  2  0  0  0  0
 24 25  1  0  0  0  0
 25 30  2  0  0  0  0
 25 26  1  0  0  0  0
 26 27  2  0  0  0  0
 27 28  1  0  0  0  0
 27 33  1  0  0  0  0
 28 34  1  0  0  0  0
 29 35  1  0  0  0  0
 29 28  2  0  0  0  0
 30 29  1  0  0  0  0
 31 23  1  0  0  0  0
 32 26  1  0  0  0  0
 35 38  1  0  0  0  0
 36 35  1  0  0  0  0
 37 35  1  0  0  0  0
M  END
>  <minimizedAffinity>
-6.83166313

$$$$

 OpenBabel03242516273D

 38 41  0  0  0  0  0  0  0  0999 V2000
   39.1610   32.2020   39.4920 C   0  0  0  0  0  0  0  0  0  0  0  0
   39.4010   31.1790   40.3920 C   0  0  0  0  0  0  0  0  0  0  0  0
   38.3650   30.4760   40.9510 C   0  0  0  0  0  0  0  0  0  0  0  0
   37.0550   30.7810   40.6200 C   0  0  0  0  0  0  0  0  0  0  0  0
   36.7840   31.7810   39.7380 C   0  0  0  0  0  0  0  0  0  0  0  0
   37.8450   32.4700   39.1920 C   0  0  0  0  0  0  0  0  0  0  0  0
   40.4350   30.9710   40.6230 H   0  0  0  0  0  0  0  0  0  0  0  0
   36.2760   30.1910   41.0950 H   0  0  0  0  0  0  0  0  0  0  0  0
   35.7660   32.0040   39.4930 H   0  0  0  0  0  0  0  0  0  0  0  0
   37.6730   33.2740   38.4850 H   0  0  0  0  0  0  0  0  0  0  0  0
   41.6740   34.8280   39.0870 C   0  0  0  0  0  0  0  0  0  0  0  0
   42.3770   34.4400   37.9320 C   0  0  0  0  0  0  0  0  0  0  0  0
   41.9850   33.2650   37.2820 C   0  0  0  0  0  0  0  0  0  0  0  0
   40.9420   32.5310   37.7800 N   0  0  0  0  0  0  0  0  0  0  0  0
   40.2890   32.9490   38.9070 C   0  0  0  0  0  0  0  0  0  0  0  0
   40.6500   34.0870   39.5580 N   0  0  0  0  0  0  0  0  0  0  0  0
   41.9930   35.7410   39.5780 H   0  0  0  0  0  0  0  0  0  0  0  0
   43.2010   34.9800   37.5020 H   0  0  0  0  0  0  0  0  0  0  0  0
   42.4340   32.8520   36.3900 H   0  0  0  0  0  0  0  0  0  0  0  0
   38.7110   29.1890   42.1070 S   0  0  0  0  0  0  0  0  0  0  0  0
   39.4020   27.7910   41.3190 C   0  0  0  0  0  0  0  0  0  0  0  0
   40.5080   27.8530   40.5190 N   0  0  0  0  0  0  0  0  0  0  0  0
   41.0250   26.7980   39.8940 C   0  0  0  0  0  0  0  0  0  0  0  0
   40.4160   25.6180   40.0680 N   0  0  0  0  0  0  0  0  0  0  0  0
   39.3240   25.4640   40.8350 C   0  0  0  0  0  0  0  0  0  0  0  0
   38.6800   24.2500   40.9920 C   0  0  0  0  0  0  0  0  0  0  0  0
   37.5590   24.1440   41.7610 C   0  0  0  0  0  0  0  0  0  0  0  0
   37.0390   25.2490   42.4030 C   0  0  0  0  0  0  0  0  0  0  0  0
   37.6680   26.4790   42.2600 C   0  0  0  0  0  0  0  0  0  0  0  0
   38.7950   26.5740   41.4830 C   0  0  0  0  0  0  0  0  0  0  0  0
   41.8930   26.8540   39.2690 H   0  0  0  0  0  0  0  0  0  0  0  0
   39.1580   23.4440   40.4560 H   0  0  0  0  0  0  0  0  0  0  0  0
   37.1470   23.1470   41.8060 H   0  0  0  0  0  0  0  0  0  0  0  0
   36.1510   25.0030   42.9710 H   0  0  0  0  0  0  0  0  0  0  0  0
   36.9480   27.5560   42.9360 C   0  0  0  0  0  0  0  0  0  0  0  0
   36.0780   28.3070   42.1860 F   0  0  0  0  0  0  0  0  0  0  0  0
   37.6060   28.1540   43.9710 F   0  0  0  0  0  0  0  0  0  0  0  0
   35.9450   27.0220   43.7570 F   0  0  0  0  0  0  0  0  0  0  0  0
  1  2  1  0  0  0  0
  2  7  1  0  0  0  0
  2  3  2  0  0  0  0
  3 20  1  0  0  0  0
  4  3  1  0  0  0  0
  4  8  1  0  0  0  0
  5  4  2  0  0  0  0
  6  1  2  0  0  0  0
  6  5  1  0  0  0  0
  9  5  1  0  0  0  0
 10  6  1  0  0  0  0
 11 16  1  0  0  0  0
 11 17  1  0  0  0  0
 12 11  2  0  0  0  0
 13 14  2  0  0  0  0
 13 12  1  0  0  0  0
 14 15  1  0  0  0  0
 15  1  1  0  0  0  0
 15 16  2  0  0  0  0
 18 12  1  0  0  0  0
 19 13  1  0  0  0  0
 21 30  1  0  0  0  0
 21 20  1  0  0  0  0
 22 21  2  0  0  0  0
 23 24  2  0  0  0  0
 23 22  1  0  0  0  0
 24 25  1  0  0  0  0
 25 26  2  0  0  0  0
 25 30  1  0  0  0  0
 26 27  1  0  0  0  0
 27 33  1  0  0  0  0
 27 28  2  0  0  0  0
 28 34  1  0  0  0  0
 29 28  1  0  0  0  0
 29 35  1  0  0  0  0
 30 29  2  0  0  0  0
 31 23  1  0  0  0  0
 32 26  1  0  0  0  0
 35 38  1  0  0  0  0
 35 37  1  0  0  0  0
 36 35  1  0  0  0  0
M  END
>  <minimizedAffinity>
-6.73756027

$$$$

 OpenBabel03242516273D

 38 41  0  0  0  0  0  0  0  0999 V2000
   39.2470   32.4010   40.5750 C   0  0  0  0  0  0  0  0  0  0  0  0
   38.8410   31.2480   41.2250 C   0  0  0  0  0  0  0  0  0  0  0  0
   37.5930   30.7220   41.0120 C   0  0  0  0  0  0  0  0  0  0  0  0
   36.7150   31.3400   40.1370 C   0  0  0  0  0  0  0  0  0  0  0  0
   37.0830   32.4740   39.4810 C   0  0  0  0  0  0  0  0  0  0  0  0
   38.3420   32.9800   39.7150 C   0  0  0  0  0  0  0  0  0  0  0  0
   39.5540   30.7970   41.8980 H   0  0  0  0  0  0  0  0  0  0  0  0
   35.7400   30.8780   40.0080 H   0  0  0  0  0  0  0  0  0  0  0  0
   36.3920   32.9390   38.8080 H   0  0  0  0  0  0  0  0  0  0  0  0
   38.6750   33.8810   39.2130 H   0  0  0  0  0  0  0  0  0  0  0  0
   41.9760   34.8350   40.6640 C   0  0  0  0  0  0  0  0  0  0  0  0
   43.0430   34.1160   41.2310 C   0  0  0  0  0  0  0  0  0  0  0  0
   42.8280   32.7800   41.5870 C   0  0  0  0  0  0  0  0  0  0  0  0
   41.5990   32.2140   41.3770 N   0  0  0  0  0  0  0  0  0  0  0  0
   40.5910   32.9530   40.8230 C   0  0  0  0  0  0  0  0  0  0  0  0
   40.7740   34.2530   40.4680 N   0  0  0  0  0  0  0  0  0  0  0  0
   42.1610   35.8690   40.3950 H   0  0  0  0  0  0  0  0  0  0  0  0
   44.0250   34.5140   41.4150 H   0  0  0  0  0  0  0  0  0  0  0  0
   43.5560   32.1150   42.0290 H   0  0  0  0  0  0  0  0  0  0  0  0
   37.1080   29.2610   41.8720 S   0  0  0  0  0  0  0  0  0  0  0  0
   36.8190   27.9370   40.7700 C   0  0  0  0  0  0  0  0  0  0  0  0
   36.1130   28.0700   39.6070 N   0  0  0  0  0  0  0  0  0  0  0  0
   35.8670   27.0620   38.7750 C   0  0  0  0  0  0  0  0  0  0  0  0
   36.3430   25.8560   39.1080 N   0  0  0  0  0  0  0  0  0  0  0  0
   37.0450   25.6310   40.2300 C   0  0  0  0  0  0  0  0  0  0  0  0
   37.5120   24.3790   40.5870 C   0  0  0  0  0  0  0  0  0  0  0  0
   38.2010   24.1920   41.7500 C   0  0  0  0  0  0  0  0  0  0  0  0
   38.4480   25.2500   42.5990 C   0  0  0  0  0  0  0  0  0  0  0  0
   37.9890   26.5170   42.2620 C   0  0  0  0  0  0  0  0  0  0  0  0
   37.2960   26.6930   41.0910 C   0  0  0  0  0  0  0  0  0  0  0  0
   35.3130   27.1750   37.8640 H   0  0  0  0  0  0  0  0  0  0  0  0
   37.2740   23.6150   39.8640 H   0  0  0  0  0  0  0  0  0  0  0  0
   38.5120   23.1720   41.9190 H   0  0  0  0  0  0  0  0  0  0  0  0
   39.0030   24.9400   43.4760 H   0  0  0  0  0  0  0  0  0  0  0  0
   38.2640   27.5050   43.3030 C   0  0  0  0  0  0  0  0  0  0  0  0
   37.2220   27.8820   44.1120 F   0  0  0  0  0  0  0  0  0  0  0  0
   39.2340   28.4200   43.0130 F   0  0  0  0  0  0  0  0  0  0  0  0
   38.9970   26.9170   44.3430 F   0  0  0  0  0  0  0  0  0  0  0  0
  1 15  1  0  0  0  0
  1  2  1  0  0  0  0
  2  7  1  0  0  0  0
  3  2  2  0  0  0  0
  3 20  1  0  0  0  0
  4  3  1  0  0  0  0
  5  6  1  0  0  0  0
  5  4  2  0  0  0  0
  6  1  2  0  0  0  0
  8  4  1  0  0  0  0
  9  5  1  0  0  0  0
 10  6  1  0  0  0  0
 11 12  1  0  0  0  0
 12 18  1  0  0  0  0
 12 13  2  0  0  0  0
 13 19  1  0  0  0  0
 14 13  1  0  0  0  0
 15 14  2  0  0  0  0
 16 11  2  0  0  0  0
 16 15  1  0  0  0  0
 17 11  1  0  0  0  0
 21 30  1  0  0  0  0
 21 20  1  0  0  0  0
 22 21  2  0  0  0  0
 23 24  2  0  0  0  0
 23 22  1  0  0  0  0
 24 25  1  0  0  0  0
 25 26  2  0  0  0  0
 25 30  1  0  0  0  0
 26 27  1  0  0  0  0
 27 33  1  0  0  0  0
 27 28  2  0  0  0  0
 28 34  1  0  0  0  0
 29 28  1  0  0  0  0
 29 35  1  0  0  0  0
 30 29  2  0  0  0  0
 31 23  1  0  0  0  0
 32 26  1  0  0  0  0
 35 36  1  0  0  0  0
 35 38  1  0  0  0  0
 37 35  1  0  0  0  0
M  END
>  <minimizedAffinity>
-6.68052006

$$$$

 OpenBabel03242516273D

 38 41  0  0  0  0  0  0  0  0999 V2000
   37.0040   30.6480   38.6650 C   0  0  0  0  0  0  0  0  0  0  0  0
   37.4500   29.7980   39.6620 C   0  0  0  0  0  0  0  0  0  0  0  0
   38.0370   30.2930   40.7980 C   0  0  0  0  0  0  0  0  0  0  0  0
   38.1920   31.6590   40.9660 C   0  0  0  0  0  0  0  0  0  0  0  0
   37.7640   32.5230   40.0060 C   0  0  0  0  0  0  0  0  0  0  0  0
   37.1780   31.9970   38.8750 C   0  0  0  0  0  0  0  0  0  0  0  0
   37.3100   28.7410   39.4940 H   0  0  0  0  0  0  0  0  0  0  0  0
   38.6650   31.9930   41.8860 H   0  0  0  0  0  0  0  0  0  0  0  0
   37.8920   33.5750   40.1510 H   0  0  0  0  0  0  0  0  0  0  0  0
   36.8230   32.6500   38.0850 H   0  0  0  0  0  0  0  0  0  0  0  0
   34.6040   28.8450   36.5760 C   0  0  0  0  0  0  0  0  0  0  0  0
   35.1080   29.0100   35.2730 C   0  0  0  0  0  0  0  0  0  0  0  0
   36.2850   29.7480   35.1070 C   0  0  0  0  0  0  0  0  0  0  0  0
   36.9090   30.2830   36.2020 N   0  0  0  0  0  0  0  0  0  0  0  0
   36.3800   30.0960   37.4490 C   0  0  0  0  0  0  0  0  0  0  0  0
   35.2370   29.3830   37.6380 N   0  0  0  0  0  0  0  0  0  0  0  0
   33.6900   28.2710   36.6840 H   0  0  0  0  0  0  0  0  0  0  0  0
   34.6560   28.6110   34.3820 H   0  0  0  0  0  0  0  0  0  0  0  0
   36.7800   29.9520   34.1680 H   0  0  0  0  0  0  0  0  0  0  0  0
   38.6080   29.1760   42.0380 S   0  0  0  0  0  0  0  0  0  0  0  0
   39.3640   27.7680   41.3310 C   0  0  0  0  0  0  0  0  0  0  0  0
   40.4820   27.8330   40.5480 N   0  0  0  0  0  0  0  0  0  0  0  0
   41.0500   26.7700   39.9850 C   0  0  0  0  0  0  0  0  0  0  0  0
   40.4820   25.5780   40.2060 N   0  0  0  0  0  0  0  0  0  0  0  0
   39.3820   25.4200   40.9610 C   0  0  0  0  0  0  0  0  0  0  0  0
   38.7810   24.1900   41.1660 C   0  0  0  0  0  0  0  0  0  0  0  0
   37.6500   24.0800   41.9200 C   0  0  0  0  0  0  0  0  0  0  0  0
   37.0770   25.1940   42.4970 C   0  0  0  0  0  0  0  0  0  0  0  0
   37.6630   26.4380   42.3060 C   0  0  0  0  0  0  0  0  0  0  0  0
   38.8000   26.5380   41.5440 C   0  0  0  0  0  0  0  0  0  0  0  0
   41.9270   26.8280   39.3730 H   0  0  0  0  0  0  0  0  0  0  0  0
   39.2980   23.3780   40.6780 H   0  0  0  0  0  0  0  0  0  0  0  0
   37.2740   23.0710   42.0060 H   0  0  0  0  0  0  0  0  0  0  0  0
   36.1880   24.9420   43.0620 H   0  0  0  0  0  0  0  0  0  0  0  0
   36.8910   27.5190   42.9160 C   0  0  0  0  0  0  0  0  0  0  0  0
   36.0010   28.1920   42.1180 F   0  0  0  0  0  0  0  0  0  0  0  0
   37.5100   28.1970   43.9250 F   0  0  0  0  0  0  0  0  0  0  0  0
   35.8990   26.9870   43.7530 F   0  0  0  0  0  0  0  0  0  0  0  0
  1  6  2  0  0  0  0
  1  2  1  0  0  0  0
  2  3  2  0  0  0  0
  3  4  1  0  0  0  0
  3 20  1  0  0  0  0
  4  8  1  0  0  0  0
  5  9  1  0  0  0  0
  5  4  2  0  0  0  0
  6  5  1  0  0  0  0
  7  2  1  0  0  0  0
 10  6  1  0  0  0  0
 11 17  1  0  0  0  0
 11 16  1  0  0  0  0
 12 11  2  0  0  0  0
 13 12  1  0  0  0  0
 13 14  2  0  0  0  0
 14 15  1  0  0  0  0
 15 16  2  0  0  0  0
 15  1  1  0  0  0  0
 18 12  1  0  0  0  0
 19 13  1  0  0  0  0
 21 30  1  0  0  0  0
 21 20  1  0  0  0  0
 22 21  2  0  0  0  0
 23 24  2  0  0  0  0
 23 22  1  0  0  0  0
 24 25  1  0  0  0  0
 25 26  2  0  0  0  0
 25 30  1  0  0  0  0
 26 27  1  0  0  0  0
 27 33  1  0  0  0  0
 27 28  2  0  0  0  0
 28 34  1  0  0  0  0
 29 28  1  0  0  0  0
 29 35  1  0  0  0  0
 30 29  2  0  0  0  0
 31 23  1  0  0  0  0
 32 26  1  0  0  0  0
 35 38  1  0  0  0  0
 35 37  1  0  0  0  0
 36 35  1  0  0  0  0
M  END
>  <minimizedAffinity>
-6.40827417

$$$$

 OpenBabel03242516273D

 38 41  0  0  0  0  0  0  0  0999 V2000
   38.5100   25.0470   42.0640 C   0  0  0  0  0  0  0  0  0  0  0  0
   38.1580   26.3830   42.1400 C   0  0  0  0  0  0  0  0  0  0  0  0
   38.8030   27.2330   43.0020 C   0  0  0  0  0  0  0  0  0  0  0  0
   39.8230   26.7630   43.8130 C   0  0  0  0  0  0  0  0  0  0  0  0
   40.1950   25.4550   43.7620 C   0  0  0  0  0  0  0  0  0  0  0  0
   39.5290   24.6250   42.8870 C   0  0  0  0  0  0  0  0  0  0  0  0
   37.3590   26.7100   41.4920 H   0  0  0  0  0  0  0  0  0  0  0  0
   40.2970   27.4820   44.4760 H   0  0  0  0  0  0  0  0  0  0  0  0
   40.9850   25.1080   44.3950 H   0  0  0  0  0  0  0  0  0  0  0  0
   39.7930   23.5760   42.8150 H   0  0  0  0  0  0  0  0  0  0  0  0
   35.8980   23.8440   39.8040 C   0  0  0  0  0  0  0  0  0  0  0  0
   36.3700   22.5850   39.3920 C   0  0  0  0  0  0  0  0  0  0  0  0
   37.5980   22.1400   39.8940 C   0  0  0  0  0  0  0  0  0  0  0  0
   38.3000   22.9310   40.7630 N   0  0  0  0  0  0  0  0  0  0  0  0
   37.8010   24.1490   41.1350 C   0  0  0  0  0  0  0  0  0  0  0  0
   36.6100   24.6050   40.6610 N   0  0  0  0  0  0  0  0  0  0  0  0
   34.9450   24.1720   39.4040 H   0  0  0  0  0  0  0  0  0  0  0  0
   35.8570   21.9260   38.7130 H   0  0  0  0  0  0  0  0  0  0  0  0
   38.0750   21.1990   39.6630 H   0  0  0  0  0  0  0  0  0  0  0  0
   38.3140   28.9260   43.0820 S   0  0  0  0  0  0  0  0  0  0  0  0
   37.2320   29.3400   41.7740 C   0  0  0  0  0  0  0  0  0  0  0  0
   36.0550   28.6860   41.5400 N   0  0  0  0  0  0  0  0  0  0  0  0
   35.2380   28.9790   40.5320 C   0  0  0  0  0  0  0  0  0  0  0  0
   35.6030   29.9700   39.7090 N   0  0  0  0  0  0  0  0  0  0  0  0
   36.7420   30.6650   39.8620 C   0  0  0  0  0  0  0  0  0  0  0  0
   37.1310   31.6710   38.9940 C   0  0  0  0  0  0  0  0  0  0  0  0
   38.3090   32.3350   39.1740 C   0  0  0  0  0  0  0  0  0  0  0  0
   39.1420   32.0190   40.2270 C   0  0  0  0  0  0  0  0  0  0  0  0
   38.7720   31.0140   41.1100 C   0  0  0  0  0  0  0  0  0  0  0  0
   37.5860   30.3510   40.9190 C   0  0  0  0  0  0  0  0  0  0  0  0
   34.3160   28.4620   40.3550 H   0  0  0  0  0  0  0  0  0  0  0  0
   36.4190   31.8490   38.2040 H   0  0  0  0  0  0  0  0  0  0  0  0
   38.5030   33.0960   38.4330 H   0  0  0  0  0  0  0  0  0  0  0  0
   40.0340   32.6330   40.2310 H   0  0  0  0  0  0  0  0  0  0  0  0
   39.7980   30.7510   42.1180 C   0  0  0  0  0  0  0  0  0  0  0  0
   40.5840   29.6390   41.9480 F   0  0  0  0  0  0  0  0  0  0  0  0
   39.5060   31.1600   43.3860 F   0  0  0  0  0  0  0  0  0  0  0  0
   40.8600   31.6530   41.9680 F   0  0  0  0  0  0  0  0  0  0  0  0
  1  2  2  0  0  0  0
  1  6  1  0  0  0  0
  2  3  1  0  0  0  0
  3 20  1  0  0  0  0
  3  4  2  0  0  0  0
  4  8  1  0  0  0  0
  5  4  1  0  0  0  0
  5  9  1  0  0  0  0
  6  5  2  0  0  0  0
  7  2  1  0  0  0  0
 10  6  1  0  0  0  0
 11 16  1  0  0  0  0
 12 11  2  0  0  0  0
 12 13  1  0  0  0  0
 13 14  2  0  0  0  0
 14 15  1  0  0  0  0
 15  1  1  0  0  0  0
 16 15  2  0  0  0  0
 17 11  1  0  0  0  0
 18 12  1  0  0  0  0
 19 13  1  0  0  0  0
 21 20  1  0  0  0  0
 22 21  1  0  0  0  0
 23 22  2  0  0  0  0
 24 25  2  0  0  0  0
 24 23  1  0  0  0  0
 25 30  1  0  0  0  0
 26 27  2  0  0  0  0
 26 25  1  0  0  0  0
 27 28  1  0  0  0  0
 28 34  1  0  0  0  0
 28 29  2  0  0  0  0
 29 35  1  0  0  0  0
 30 29  1  0  0  0  0
 30 21  2  0  0  0  0
 31 23  1  0  0  0  0
 32 26  1  0  0  0  0
 33 27  1  0  0  0  0
 35 37  1  0  0  0  0
 36 35  1  0  0  0  0
 38 35  1  0  0  0  0
M  END
>  <minimizedAffinity>
-6.37056732

$$$$

 OpenBabel03242516273D

 38 41  0  0  0  0  0  0  0  0999 V2000
   37.3110   26.7430   41.5350 C   0  0  0  0  0  0  0  0  0  0  0  0
   37.6540   27.8260   40.7440 C   0  0  0  0  0  0  0  0  0  0  0  0
   37.8190   29.0730   41.2910 C   0  0  0  0  0  0  0  0  0  0  0  0
   37.6460   29.2670   42.6510 C   0  0  0  0  0  0  0  0  0  0  0  0
   37.3100   28.2240   43.4570 C   0  0  0  0  0  0  0  0  0  0  0  0
   37.1500   26.9830   42.8800 C   0  0  0  0  0  0  0  0  0  0  0  0
   37.7800   27.6330   39.6890 H   0  0  0  0  0  0  0  0  0  0  0  0
   37.7890   30.2760   43.0270 H   0  0  0  0  0  0  0  0  0  0  0  0
   37.1790   28.3910   44.5070 H   0  0  0  0  0  0  0  0  0  0  0  0
   36.8820   26.1250   43.4860 H   0  0  0  0  0  0  0  0  0  0  0  0
   36.2100   24.2000   39.1490 C   0  0  0  0  0  0  0  0  0  0  0  0
   36.7240   23.0030   39.6790 C   0  0  0  0  0  0  0  0  0  0  0  0
   37.4560   23.0660   40.8690 C   0  0  0  0  0  0  0  0  0  0  0  0
   37.6520   24.2750   41.4800 N   0  0  0  0  0  0  0  0  0  0  0  0
   37.1330   25.4130   40.9260 C   0  0  0  0  0  0  0  0  0  0  0  0
   36.4170   25.3790   39.7700 N   0  0  0  0  0  0  0  0  0  0  0  0
   35.6460   24.1310   38.2250 H   0  0  0  0  0  0  0  0  0  0  0  0
   36.5980   22.0300   39.2380 H   0  0  0  0  0  0  0  0  0  0  0  0
   37.9060   22.2280   41.3840 H   0  0  0  0  0  0  0  0  0  0  0  0
   38.2400   30.4310   40.2460 S   0  0  0  0  0  0  0  0  0  0  0  0
   39.8270   31.0570   40.6210 C   0  0  0  0  0  0  0  0  0  0  0  0
   40.8510   30.2770   41.0800 N   0  0  0  0  0  0  0  0  0  0  0  0
   42.0550   30.7500   41.3920 C   0  0  0  0  0  0  0  0  0  0  0  0
   42.2590   32.0640   41.2450 N   0  0  0  0  0  0  0  0  0  0  0  0
   41.3110   32.9070   40.8020 C   0  0  0  0  0  0  0  0  0  0  0  0
   41.5150   34.2700   40.6760 C   0  0  0  0  0  0  0  0  0  0  0  0
   40.5150   35.0920   40.2460 C   0  0  0  0  0  0  0  0  0  0  0  0
   39.2740   34.5820   39.9240 C   0  0  0  0  0  0  0  0  0  0  0  0
   39.0460   33.2180   40.0430 C   0  0  0  0  0  0  0  0  0  0  0  0
   40.0580   32.4000   40.4780 C   0  0  0  0  0  0  0  0  0  0  0  0
   42.8530   30.1310   41.7500 H   0  0  0  0  0  0  0  0  0  0  0  0
   42.5130   34.5770   40.9480 H   0  0  0  0  0  0  0  0  0  0  0  0
   40.7940   36.1330   40.1890 H   0  0  0  0  0  0  0  0  0  0  0  0
   38.5930   35.3590   39.6010 H   0  0  0  0  0  0  0  0  0  0  0  0
   37.6630   32.8550   39.7410 C   0  0  0  0  0  0  0  0  0  0  0  0
   36.8780   32.4250   40.7820 F   0  0  0  0  0  0  0  0  0  0  0  0
   37.4390   32.3440   38.4960 F   0  0  0  0  0  0  0  0  0  0  0  0
   36.9030   34.0100   39.5080 F   0  0  0  0  0  0  0  0  0  0  0  0
  1  6  1  0  0  0  0
  2  3  1  0  0  0  0
  2  1  2  0  0  0  0
  3  4  2  0  0  0  0
  4  8  1  0  0  0  0
  4  5  1  0  0  0  0
  5  9  1  0  0  0  0
  6  5  2  0  0  0  0
  6 10  1  0  0  0  0
  7  2  1  0  0  0  0
 11 12  2  0  0  0  0
 11 16  1  0  0  0  0
 12 13  1  0  0  0  0
 13 19  1  0  0  0  0
 13 14  2  0  0  0  0
 15 14  1  0  0  0  0
 15  1  1  0  0  0  0
 16 15  2  0  0  0  0
 17 11  1  0  0  0  0
 18 12  1  0  0  0  0
 20 21  1  0  0  0  0
 20  3  1  0  0  0  0
 21 22  1  0  0  0  0
 22 23  2  0  0  0  0
 23 31  1  0  0  0  0
 24 23  1  0  0  0  0
 25 24  2  0  0  0  0
 26 25  1  0  0  0  0
 26 32  1  0  0  0  0
 27 26  2  0  0  0  0
 28 29  2  0  0  0  0
 28 27  1  0  0  0  0
 29 30  1  0  0  0  0
 30 21  2  0  0  0  0
 30 25  1  0  0  0  0
 33 27  1  0  0  0  0
 34 28  1  0  0  0  0
 35 29  1  0  0  0  0
 35 36  1  0  0  0  0
 37 35  1  0  0  0  0
 38 35  1  0  0  0  0
M  END
>  <minimizedAffinity>
-6.33632755

$$$$

 OpenBabel03242516273D

 38 41  0  0  0  0  0  0  0  0999 V2000
   36.7160   30.3640   38.3870 C   0  0  0  0  0  0  0  0  0  0  0  0
   36.8690   29.7120   39.5980 C   0  0  0  0  0  0  0  0  0  0  0  0
   37.2970   30.3870   40.7120 C   0  0  0  0  0  0  0  0  0  0  0  0
   37.5840   31.7410   40.6410 C   0  0  0  0  0  0  0  0  0  0  0  0
   37.4430   32.4120   39.4660 C   0  0  0  0  0  0  0  0  0  0  0  0
   37.0120   31.7080   38.3640 C   0  0  0  0  0  0  0  0  0  0  0  0
   36.6350   28.6580   39.6120 H   0  0  0  0  0  0  0  0  0  0  0  0
   37.9190   32.2230   41.5550 H   0  0  0  0  0  0  0  0  0  0  0  0
   37.6690   33.4580   39.4280 H   0  0  0  0  0  0  0  0  0  0  0  0
   36.8870   32.2040   37.4080 H   0  0  0  0  0  0  0  0  0  0  0  0
   36.8700   28.6920   35.1380 C   0  0  0  0  0  0  0  0  0  0  0  0
   35.5560   28.2350   34.9370 C   0  0  0  0  0  0  0  0  0  0  0  0
   34.6030   28.5030   35.9260 C   0  0  0  0  0  0  0  0  0  0  0  0
   34.9690   29.1940   37.0490 N   0  0  0  0  0  0  0  0  0  0  0  0
   36.2610   29.6180   37.2000 C   0  0  0  0  0  0  0  0  0  0  0  0
   37.2060   29.3710   36.2540 N   0  0  0  0  0  0  0  0  0  0  0  0
   37.5950   28.4740   34.3610 H   0  0  0  0  0  0  0  0  0  0  0  0
   35.2180   27.6890   34.0740 H   0  0  0  0  0  0  0  0  0  0  0  0
   33.5620   28.2110   35.9010 H   0  0  0  0  0  0  0  0  0  0  0  0
   37.4950   29.5170   42.2340 S   0  0  0  0  0  0  0  0  0  0  0  0
   39.1810   29.2400   42.5960 C   0  0  0  0  0  0  0  0  0  0  0  0
   40.1310   30.2210   42.5390 N   0  0  0  0  0  0  0  0  0  0  0  0
   41.4210   30.0130   42.7890 C   0  0  0  0  0  0  0  0  0  0  0  0
   41.7940   28.7690   43.1120 N   0  0  0  0  0  0  0  0  0  0  0  0
   40.9310   27.7430   43.1900 C   0  0  0  0  0  0  0  0  0  0  0  0
   41.3230   26.4520   43.4970 C   0  0  0  0  0  0  0  0  0  0  0  0
   40.4150   25.4350   43.5410 C   0  0  0  0  0  0  0  0  0  0  0  0
   39.0810   25.6710   43.2820 C   0  0  0  0  0  0  0  0  0  0  0  0
   38.6640   26.9580   42.9720 C   0  0  0  0  0  0  0  0  0  0  0  0
   39.5860   27.9730   42.9280 C   0  0  0  0  0  0  0  0  0  0  0  0
   42.1590   30.7880   42.7430 H   0  0  0  0  0  0  0  0  0  0  0  0
   42.3820   26.3630   43.6860 H   0  0  0  0  0  0  0  0  0  0  0  0
   40.8400   24.4740   43.7900 H   0  0  0  0  0  0  0  0  0  0  0  0
   38.4910   24.7650   43.3560 H   0  0  0  0  0  0  0  0  0  0  0  0
   37.2400   27.0210   42.6470 C   0  0  0  0  0  0  0  0  0  0  0  0
   36.8940   27.1130   41.3220 F   0  0  0  0  0  0  0  0  0  0  0  0
   36.4440   27.6250   43.5760 F   0  0  0  0  0  0  0  0  0  0  0  0
   36.6510   25.7610   42.8220 F   0  0  0  0  0  0  0  0  0  0  0  0
  1  2  1  0  0  0  0
  2  7  1  0  0  0  0
  2  3  2  0  0  0  0
  3 20  1  0  0  0  0
  4  3  1  0  0  0  0
  4  8  1  0  0  0  0
  5  4  2  0  0  0  0
  6  1  2  0  0  0  0
  6  5  1  0  0  0  0
  9  5  1  0  0  0  0
 10  6  1  0  0  0  0
 11 16  1  0  0  0  0
 12 11  2  0  0  0  0
 12 13  1  0  0  0  0
 13 14  2  0  0  0  0
 14 15  1  0  0  0  0
 15  1  1  0  0  0  0
 16 15  2  0  0  0  0
 17 11  1  0  0  0  0
 18 12  1  0  0  0  0
 19 13  1  0  0  0  0
 20 21  1  0  0  0  0
 21 30  1  0  0  0  0
 22 21  2  0  0  0  0
 22 23  1  0  0  0  0
 23 24  2  0  0  0  0
 24 25  1  0  0  0  0
 25 26  1  0  0  0  0
 26 27  2  0  0  0  0
 26 32  1  0  0  0  0
 27 33  1  0  0  0  0
 28 34  1  0  0  0  0
 28 27  1  0  0  0  0
 29 28  2  0  0  0  0
 30 29  1  0  0  0  0
 30 25  2  0  0  0  0
 31 23  1  0  0  0  0
 35 38  1  0  0  0  0
 35 29  1  0  0  0  0
 35 37  1  0  0  0  0
 36 35  1  0  0  0  0
M  END
>  <minimizedAffinity>
-6.33201313

$$$$

 OpenBabel03242516273D

 38 41  0  0  0  0  0  0  0  0999 V2000
   39.1250   31.2970   38.9930 C   0  0  0  0  0  0  0  0  0  0  0  0
   38.5480   30.2570   39.7010 C   0  0  0  0  0  0  0  0  0  0  0  0
   37.4500   30.4690   40.4940 C   0  0  0  0  0  0  0  0  0  0  0  0
   36.8970   31.7350   40.5980 C   0  0  0  0  0  0  0  0  0  0  0  0
   37.4390   32.7790   39.9140 C   0  0  0  0  0  0  0  0  0  0  0  0
   38.5420   32.5370   39.1260 C   0  0  0  0  0  0  0  0  0  0  0  0
   39.0080   29.2860   39.5930 H   0  0  0  0  0  0  0  0  0  0  0  0
   36.0280   31.8430   41.2410 H   0  0  0  0  0  0  0  0  0  0  0  0
   37.0000   33.7520   40.0060 H   0  0  0  0  0  0  0  0  0  0  0  0
   39.0050   33.3410   38.5650 H   0  0  0  0  0  0  0  0  0  0  0  0
   41.6080   29.4390   37.0550 C   0  0  0  0  0  0  0  0  0  0  0  0
   42.4770   30.4390   36.5830 C   0  0  0  0  0  0  0  0  0  0  0  0
   42.2110   31.7670   36.9330 C   0  0  0  0  0  0  0  0  0  0  0  0
   41.1260   32.0560   37.7150 N   0  0  0  0  0  0  0  0  0  0  0  0
   40.3080   31.0490   38.1510 C   0  0  0  0  0  0  0  0  0  0  0  0
   40.5440   29.7500   37.8240 N   0  0  0  0  0  0  0  0  0  0  0  0
   41.8300   28.4160   36.7720 H   0  0  0  0  0  0  0  0  0  0  0  0
   43.3410   30.2640   35.9670 H   0  0  0  0  0  0  0  0  0  0  0  0
   42.7930   32.6300   36.6410 H   0  0  0  0  0  0  0  0  0  0  0  0
   36.7540   29.1200   41.3930 S   0  0  0  0  0  0  0  0  0  0  0  0
   36.5610   27.7100   40.3800 C   0  0  0  0  0  0  0  0  0  0  0  0
   35.9270   27.7380   39.1700 N   0  0  0  0  0  0  0  0  0  0  0  0
   35.7530   26.6640   38.4050 C   0  0  0  0  0  0  0  0  0  0  0  0
   36.2290   25.4980   38.8590 N   0  0  0  0  0  0  0  0  0  0  0  0
   36.8640   25.3760   40.0360 C   0  0  0  0  0  0  0  0  0  0  0  0
   37.3310   24.1660   40.5170 C   0  0  0  0  0  0  0  0  0  0  0  0
   37.9490   24.0850   41.7310 C   0  0  0  0  0  0  0  0  0  0  0  0
   38.1220   25.2100   42.5090 C   0  0  0  0  0  0  0  0  0  0  0  0
   37.6610   26.4360   42.0470 C   0  0  0  0  0  0  0  0  0  0  0  0
   37.0400   26.5060   40.8260 C   0  0  0  0  0  0  0  0  0  0  0  0
   35.2560   26.6940   37.4560 H   0  0  0  0  0  0  0  0  0  0  0  0
   37.1530   23.3430   39.8420 H   0  0  0  0  0  0  0  0  0  0  0  0
   38.2680   23.0880   41.9970 H   0  0  0  0  0  0  0  0  0  0  0  0
   38.6260   24.9810   43.4390 H   0  0  0  0  0  0  0  0  0  0  0  0
   37.8520   27.5070   43.0230 C   0  0  0  0  0  0  0  0  0  0  0  0
   36.7550   27.9160   43.7400 F   0  0  0  0  0  0  0  0  0  0  0  0
   38.8160   28.4230   42.7210 F   0  0  0  0  0  0  0  0  0  0  0  0
   38.5340   27.0180   44.1470 F   0  0  0  0  0  0  0  0  0  0  0  0
  1  6  2  0  0  0  0
  1  2  1  0  0  0  0
  2  3  2  0  0  0  0
  3  4  1  0  0  0  0
  3 20  1  0  0  0  0
  4  8  1  0  0  0  0
  5  9  1  0  0  0  0
  5  4  2  0  0  0  0
  6  5  1  0  0  0  0
  7  2  1  0  0  0  0
 10  6  1  0  0  0  0
 11 16  1  0  0  0  0
 12 13  1  0  0  0  0
 12 11  2  0  0  0  0
 13 14  2  0  0  0  0
 14 15  1  0  0  0  0
 15  1  1  0  0  0  0
 16 15  2  0  0  0  0
 17 11  1  0  0  0  0
 18 12  1  0  0  0  0
 19 13  1  0  0  0  0
 21 30  1  0  0  0  0
 21 20  1  0  0  0  0
 22 21  2  0  0  0  0
 23 24  2  0  0  0  0
 23 22  1  0  0  0  0
 24 25  1  0  0  0  0
 25 26  2  0  0  0  0
 25 30  1  0  0  0  0
 26 27  1  0  0  0  0
 27 33  1  0  0  0  0
 27 28  2  0  0  0  0
 28 34  1  0  0  0  0
 29 28  1  0  0  0  0
 29 35  1  0  0  0  0
 30 29  2  0  0  0  0
 31 23  1  0  0  0  0
 32 26  1  0  0  0  0
 35 36  1  0  0  0  0
 35 38  1  0  0  0  0
 37 35  1  0  0  0  0
M  END
>  <minimizedAffinity>
-6.27966356

$$$$

 OpenBabel03242516273D

 38 41  0  0  0  0  0  0  0  0999 V2000
   37.8600   27.7460   41.4340 C   0  0  0  0  0  0  0  0  0  0  0  0
   37.8060   28.8280   40.5720 C   0  0  0  0  0  0  0  0  0  0  0  0
   38.3260   30.0440   40.9370 C   0  0  0  0  0  0  0  0  0  0  0  0
   38.9170   30.2070   42.1790 C   0  0  0  0  0  0  0  0  0  0  0  0
   38.9870   29.1630   43.0490 C   0  0  0  0  0  0  0  0  0  0  0  0
   38.4560   27.9540   42.6560 C   0  0  0  0  0  0  0  0  0  0  0  0
   37.3380   28.6600   39.6140 H   0  0  0  0  0  0  0  0  0  0  0  0
   39.3110   31.1920   42.4120 H   0  0  0  0  0  0  0  0  0  0  0  0
   39.4470   29.3060   44.0050 H   0  0  0  0  0  0  0  0  0  0  0  0
   38.4910   27.0970   43.3190 H   0  0  0  0  0  0  0  0  0  0  0  0
   36.8310   24.2430   41.6620 C   0  0  0  0  0  0  0  0  0  0  0  0
   36.2600   23.9830   40.4040 C   0  0  0  0  0  0  0  0  0  0  0  0
   36.2270   25.0180   39.4630 C   0  0  0  0  0  0  0  0  0  0  0  0
   36.7450   26.2430   39.7880 N   0  0  0  0  0  0  0  0  0  0  0  0
   37.2900   26.4500   41.0250 C   0  0  0  0  0  0  0  0  0  0  0  0
   37.3340   25.4600   41.9570 N   0  0  0  0  0  0  0  0  0  0  0  0
   36.8470   23.4290   42.3780 H   0  0  0  0  0  0  0  0  0  0  0  0
   35.8420   23.0390   40.1010 H   0  0  0  0  0  0  0  0  0  0  0  0
   35.8210   24.9560   38.4640 H   0  0  0  0  0  0  0  0  0  0  0  0
   38.2240   31.4030   39.8170 S   0  0  0  0  0  0  0  0  0  0  0  0
   39.6640   31.5330   38.8360 C   0  0  0  0  0  0  0  0  0  0  0  0
   40.1710   30.4930   38.1090 N   0  0  0  0  0  0  0  0  0  0  0  0
   41.2810   30.5760   37.3810 C   0  0  0  0  0  0  0  0  0  0  0  0
   41.9260   31.7490   37.3690 N   0  0  0  0  0  0  0  0  0  0  0  0
   41.5020   32.8240   38.0540 C   0  0  0  0  0  0  0  0  0  0  0  0
   42.1840   34.0270   38.0640 C   0  0  0  0  0  0  0  0  0  0  0  0
   41.7300   35.0850   38.7940 C   0  0  0  0  0  0  0  0  0  0  0  0
   40.5750   34.9810   39.5410 C   0  0  0  0  0  0  0  0  0  0  0  0
   39.8730   33.7830   39.5470 C   0  0  0  0  0  0  0  0  0  0  0  0
   40.3400   32.7240   38.8110 C   0  0  0  0  0  0  0  0  0  0  0  0
   41.6720   29.7560   36.8120 H   0  0  0  0  0  0  0  0  0  0  0  0
   43.0720   34.0160   37.4510 H   0  0  0  0  0  0  0  0  0  0  0  0
   42.3470   35.9680   38.7220 H   0  0  0  0  0  0  0  0  0  0  0  0
   40.3490   35.9030   40.0620 H   0  0  0  0  0  0  0  0  0  0  0  0
   38.7230   33.8150   40.4490 C   0  0  0  0  0  0  0  0  0  0  0  0
   38.8510   33.1880   41.6630 F   0  0  0  0  0  0  0  0  0  0  0  0
   37.4980   33.8400   39.8490 F   0  0  0  0  0  0  0  0  0  0  0  0
   38.5840   35.0940   41.0050 F   0  0  0  0  0  0  0  0  0  0  0  0
  1  6  1  0  0  0  0
  2  3  1  0  0  0  0
  2  1  2  0  0  0  0
  3  4  2  0  0  0  0
  4  8  1  0  0  0  0
  4  5  1  0  0  0  0
  5  9  1  0  0  0  0
  6  5  2  0  0  0  0
  6 10  1  0  0  0  0
  7  2  1  0  0  0  0
 11 16  1  0  0  0  0
 11 17  1  0  0  0  0
 12 11  2  0  0  0  0
 13 14  2  0  0  0  0
 13 12  1  0  0  0  0
 14 15  1  0  0  0  0
 15  1  1  0  0  0  0
 15 16  2  0  0  0  0
 18 12  1  0  0  0  0
 19 13  1  0  0  0  0
 20  3  1  0  0  0  0
 21 20  1  0  0  0  0
 22 21  2  0  0  0  0
 23 22  1  0  0  0  0
 24 23  2  0  0  0  0
 24 25  1  0  0  0  0
 25 26  2  0  0  0  0
 25 30  1  0  0  0  0
 26 27  1  0  0  0  0
 27 28  2  0  0  0  0
 28 29  1  0  0  0  0
 28 34  1  0  0  0  0
 29 35  1  0  0  0  0
 30 21  1  0  0  0  0
 30 29  2  0  0  0  0
 31 23  1  0  0  0  0
 32 26  1  0  0  0  0
 33 27  1  0  0  0  0
 35 38  1  0  0  0  0
 35 36  1  0  0  0  0
 37 35  1  0  0  0  0
M  END
>  <minimizedAffinity>
-6.19795227

$$$$
