
 OpenBabel03252509203D

 20 21  0  0  0  0  0  0  0  0999 V2000
   45.4570   34.0400   44.6820 C   0  0  0  0  0  0  0  0  0  0  0  0
   45.7830   34.8460   43.5420 C   0  0  0  0  0  0  0  0  0  0  0  0
   46.9590   34.4780   42.9200 C   0  0  0  0  0  0  0  0  0  0  0  0
   47.7350   33.4240   43.3670 N   0  0  0  0  0  0  0  0  0  0  0  0
   47.3680   32.6990   44.4520 C   0  0  0  0  0  0  0  0  0  0  0  0
   46.2330   33.0170   45.0950 N   0  0  0  0  0  0  0  0  0  0  0  0
   44.5750   34.2240   45.2490 H   0  0  0  0  0  0  0  0  0  0  0  0
   48.1120   31.9350   44.6170 H   0  0  0  0  0  0  0  0  0  0  0  0
   47.3250   35.2050   41.6540 C   0  0  0  0  0  0  0  0  0  0  0  0
   48.7960   35.6480   41.6830 C   0  0  0  0  0  0  0  0  0  0  0  0
   48.2140   34.5650   40.7280 C   0  0  0  0  0  0  0  0  0  0  0  0
   46.6810   36.0660   41.4370 H   0  0  0  0  0  0  0  0  0  0  0  0
   49.3900   35.3070   42.5340 H   0  0  0  0  0  0  0  0  0  0  0  0
   49.0950   36.5880   41.2170 H   0  0  0  0  0  0  0  0  0  0  0  0
   48.2470   34.8510   39.6350 H   0  0  0  0  0  0  0  0  0  0  0  0
   48.6900   33.5630   40.9120 H   0  0  0  0  0  0  0  0  0  0  0  0
   44.8790   35.9260   43.1630 C   0  0  0  0  0  0  0  0  0  0  0  0
   44.3110   35.6910   41.9270 F   0  0  0  0  0  0  0  0  0  0  0  0
   45.4890   37.1590   43.2210 F   0  0  0  0  0  0  0  0  0  0  0  0
   43.8280   35.9740   44.0600 F   0  0  0  0  0  0  0  0  0  0  0  0
  1  6  1  0  0  0  0
  1  7  1  0  0  0  0
  2  1  2  0  0  0  0
  3  4  2  0  0  0  0
  3  2  1  0  0  0  0
  4  5  1  0  0  0  0
  5  8  1  0  0  0  0
  5  6  2  0  0  0  0
  9 10  1  0  0  0  0
  9  3  1  0  0  0  0
 10 13  1  0  0  0  0
 11 16  1  0  0  0  0
 11  9  1  0  0  0  0
 11 10  1  0  0  0  0
 12  9  1  0  0  0  0
 14 10  1  0  0  0  0
 15 11  1  0  0  0  0
 17 19  1  0  0  0  0
 17  2  1  0  0  0  0
 17 20  1  0  0  0  0
 18 17  1  0  0  0  0
M  END
>  <minimizedAffinity>
-4.57391119

>  <minimizedRMSD>
1.67925692

$$$$
