
 OpenBabel03252503223D

 35 38  0  0  1  0  0  0  0  0999 V2000
   48.3110   34.1310   41.4800 C   0  0  1  0  0  0  0  0  0  0  0  0
   48.5040   35.5360   41.7870 C   0  0  0  0  0  0  0  0  0  0  0  0
   47.1080   34.9670   41.7810 C   0  0  2  0  0  0  0  0  0  0  0  0
   48.6930   33.3760   42.2160 H   0  0  0  0  0  0  0  0  0  0  0  0
   48.9060   35.8520   42.7610 H   0  0  0  0  0  0  0  0  0  0  0  0
   48.6930   36.2880   40.9780 H   0  0  0  0  0  0  0  0  0  0  0  0
   46.4430   35.2030   40.9420 H   0  0  0  0  0  0  0  0  0  0  0  0
   46.4690   34.7520   43.1010 C   0  0  0  0  0  0  0  0  0  0  0  0
   45.4090   35.4860   43.5960 C   0  0  0  0  0  0  0  0  0  0  0  0
   44.8560   35.2120   44.8330 C   0  0  0  0  0  0  0  0  0  0  0  0
   45.3600   34.1890   45.6030 C   0  0  0  0  0  0  0  0  0  0  0  0
   44.8500   33.8760   46.8260 N   0  0  0  0  0  0  0  0  0  0  0  0
   45.3580   32.8640   47.5650 C   0  0  0  0  0  0  0  0  0  0  0  0
   46.4310   32.0660   47.1420 C   0  0  0  0  0  0  0  0  0  0  0  0
   46.9730   32.3620   45.8950 C   0  0  0  0  0  0  0  0  0  0  0  0
   46.4320   33.4120   45.1530 C   0  0  0  0  0  0  0  0  0  0  0  0
   46.9450   33.7330   43.9070 C   0  0  0  0  0  0  0  0  0  0  0  0
   45.0300   36.2850   42.9730 H   0  0  0  0  0  0  0  0  0  0  0  0
   44.0200   35.7920   45.2230 H   0  0  0  0  0  0  0  0  0  0  0  0
   44.9010   32.6810   48.5180 H   0  0  0  0  0  0  0  0  0  0  0  0
   46.8050   31.2660   47.7660 H   0  0  0  0  0  0  0  0  0  0  0  0
   47.7960   31.7750   45.5350 H   0  0  0  0  0  0  0  0  0  0  0  0
   47.7790   33.0940   43.6440 H   0  0  0  0  0  0  0  0  0  0  0  0
   48.0940   34.4070   38.9840 C   0  0  0  0  0  0  0  0  0  0  0  0
   48.4760   33.6030   40.1010 C   0  0  0  0  0  0  0  0  0  0  0  0
   48.9890   32.3470   39.8540 C   0  0  0  0  0  0  0  0  0  0  0  0
   49.0940   31.9610   38.5450 N   0  0  0  0  0  0  0  0  0  0  0  0
   48.7320   32.7280   37.5050 C   0  0  0  0  0  0  0  0  0  0  0  0
   48.2260   33.9670   37.7270 N   0  0  0  0  0  0  0  0  0  0  0  0
   47.6930   35.3940   39.1870 H   0  0  0  0  0  0  0  0  0  0  0  0
   49.2900   31.7050   40.6650 H   0  0  0  0  0  0  0  0  0  0  0  0
   48.9340   32.1080   36.1590 C   0  0  0  0  0  0  0  0  0  0  0  0
   48.8600   33.0380   35.1360 F   0  0  0  0  0  0  0  0  0  0  0  0
   50.2060   31.5370   36.0950 F   0  0  0  0  0  0  0  0  0  0  0  0
   48.0170   31.1240   35.9420 F   0  0  0  0  0  0  0  0  0  0  0  0
  1  3  1  0  0  0  0
  1  2  1  0  0  0  0
  1  4  1  1  0  0  0
  2  5  1  0  0  0  0
  3  7  1  6  0  0  0
  3  2  1  0  0  0  0
  3  8  1  0  0  0  0
  6  2  1  0  0  0  0
  8  9  2  0  0  0  0
  8 17  1  0  0  0  0
  9 10  1  0  0  0  0
 10 19  1  0  0  0  0
 10 11  2  0  0  0  0
 11 12  1  0  0  0  0
 12 13  2  0  0  0  0
 13 20  1  0  0  0  0
 14 13  1  0  0  0  0
 14 21  1  0  0  0  0
 15 14  2  0  0  0  0
 16 11  1  0  0  0  0
 16 15  1  0  0  0  0
 17 16  2  0  0  0  0
 18  9  1  0  0  0  0
 22 15  1  0  0  0  0
 23 17  1  0  0  0  0
 24 30  1  0  0  0  0
 24 25  1  0  0  0  0
 25  1  1  0  0  0  0
 26 25  2  0  0  0  0
 26 31  1  0  0  0  0
 27 26  1  0  0  0  0
 28 29  1  0  0  0  0
 28 27  2  0  0  0  0
 29 24  2  0  0  0  0
 32 28  1  0  0  0  0
 33 32  1  0  0  0  0
 34 32  1  0  0  0  0
 35 32  1  0  0  0  0
M  END
>  <minimizedAffinity>
-6.12912655

>  <minimizedRMSD>
8.26498127

$$$$
