
 OpenBabel03252507433D

 26 27  0  0  0  0  0  0  0  0999 V2000
   46.8080   34.3410   40.9590 C   0  0  0  0  0  0  0  0  0  0  0  0
   46.4100   33.4900   40.4210 H   0  0  0  0  0  0  0  0  0  0  0  0
   46.8290   35.1900   40.2170 H   0  0  0  0  0  0  0  0  0  0  0  0
   48.1810   34.1140   41.4490 C   0  0  0  0  0  0  0  0  0  0  0  0
   48.7780   32.8870   41.1370 C   0  0  0  0  0  0  0  0  0  0  0  0
   50.0640   32.6350   41.5760 C   0  0  0  0  0  0  0  0  0  0  0  0
   50.7100   33.5960   42.3020 N   0  0  0  0  0  0  0  0  0  0  0  0
   50.1030   34.7670   42.5840 C   0  0  0  0  0  0  0  0  0  0  0  0
   48.8600   35.0050   42.1570 N   0  0  0  0  0  0  0  0  0  0  0  0
   50.5340   31.6830   41.3390 H   0  0  0  0  0  0  0  0  0  0  0  0
   50.5700   35.5600   43.1540 H   0  0  0  0  0  0  0  0  0  0  0  0
   47.8720   31.6620   40.1760 S   0  0  0  0  0  0  0  0  0  0  0  0
   48.1010   32.0060   38.8170 H   0  0  0  0  0  0  0  0  0  0  0  0
   45.8400   34.7410   42.0340 C   0  0  0  0  0  0  0  0  0  0  0  0
   45.8810   34.0730   42.9130 H   0  0  0  0  0  0  0  0  0  0  0  0
   46.1840   35.7430   42.4020 H   0  0  0  0  0  0  0  0  0  0  0  0
   44.4330   34.8910   41.5580 C   0  0  0  0  0  0  0  0  0  0  0  0
   43.4190   35.3750   42.4470 C   0  0  0  0  0  0  0  0  0  0  0  0
   41.9130   35.3620   41.3630 S   0  0  0  0  0  0  0  0  0  0  0  0
   42.9230   34.7100   39.9190 C   0  0  0  0  0  0  0  0  0  0  0  0
   43.9690   34.6240   40.3580 N   0  0  0  0  0  0  0  0  0  0  0  0
   43.5630   35.6580   43.4750 H   0  0  0  0  0  0  0  0  0  0  0  0
   42.3490   34.4180   38.5640 C   0  0  0  0  0  0  0  0  0  0  0  0
   42.9740   33.3190   38.0200 F   0  0  0  0  0  0  0  0  0  0  0  0
   40.9720   34.2070   38.6540 F   0  0  0  0  0  0  0  0  0  0  0  0
   42.5110   35.5750   37.8630 F   0  0  0  0  0  0  0  0  0  0  0  0
  1  4  1  0  0  0  0
  1 14  1  0  0  0  0
  2  1  1  0  0  0  0
  3  1  1  0  0  0  0
  4  9  1  0  0  0  0
  5  4  2  0  0  0  0
  5  6  1  0  0  0  0
  6  7  2  0  0  0  0
  7  8  1  0  0  0  0
  8 11  1  0  0  0  0
  9  8  2  0  0  0  0
 10  6  1  0  0  0  0
 12  5  1  0  0  0  0
 13 12  1  0  0  0  0
 14 16  1  0  0  0  0
 14 15  1  0  0  0  0
 17 14  1  0  0  0  0
 17 18  2  0  0  0  0
 18 22  1  0  0  0  0
 19 18  1  0  0  0  0
 20 21  2  0  0  0  0
 20 19  1  0  0  0  0
 21 17  1  0  0  0  0
 23 25  1  0  0  0  0
 23 20  1  0  0  0  0
 24 23  1  0  0  0  0
 26 23  1  0  0  0  0
M  END
>  <minimizedAffinity>
-4.26468229

>  <minimizedRMSD>
0.696075141

$$$$
