
 OpenBabel03252506413D

 35 37  0  0  1  0  0  0  0  0999 V2000
   49.4540   33.3440   41.5180 N   0  0  1  0  0  0  0  0  0  0  0  0
   50.6930   33.1410   42.2270 C   0  0  0  0  0  0  0  0  0  0  0  0
   51.3470   31.8280   42.0470 C   0  0  0  0  0  0  0  0  0  0  0  0
   50.4500   30.7090   42.4910 C   0  0  0  0  0  0  0  0  0  0  0  0
   49.0110   31.0550   42.3730 C   0  0  0  0  0  0  0  0  0  0  0  0
   48.8230   32.0710   41.2900 C   0  0  2  0  0  0  0  0  0  0  0  0
   50.5490   33.3030   43.3210 H   0  0  0  0  0  0  0  0  0  0  0  0
   51.3860   33.9520   41.8590 H   0  0  0  0  0  0  0  0  0  0  0  0
   52.1780   31.8230   42.8360 H   0  0  0  0  0  0  0  0  0  0  0  0
   51.9070   31.6610   41.1230 H   0  0  0  0  0  0  0  0  0  0  0  0
   50.6360   30.3340   43.5050 H   0  0  0  0  0  0  0  0  0  0  0  0
   50.7040   29.8410   41.8130 H   0  0  0  0  0  0  0  0  0  0  0  0
   48.6210   31.5020   43.3260 H   0  0  0  0  0  0  0  0  0  0  0  0
   48.3810   30.1920   42.1160 H   0  0  0  0  0  0  0  0  0  0  0  0
   47.7090   32.3530   41.4480 H   0  0  0  0  0  0  0  0  0  0  0  0
   47.2410   34.5690   42.0050 C   0  0  1  0  0  0  0  0  0  0  0  0
   48.3110   35.5370   41.7070 C   0  0  0  0  0  0  0  0  0  0  0  0
   48.6650   34.2320   42.3170 C   0  0  2  0  0  0  0  0  0  0  0  0
   46.7830   34.1040   41.1210 H   0  0  0  0  0  0  0  0  0  0  0  0
   48.3880   36.4090   42.3660 H   0  0  0  0  0  0  0  0  0  0  0  0
   48.6140   35.7450   40.6560 H   0  0  0  0  0  0  0  0  0  0  0  0
   48.8890   34.1510   43.4030 H   0  0  0  0  0  0  0  0  0  0  0  0
   45.5260   36.0230   43.1610 C   0  0  0  0  0  0  0  0  0  0  0  0
   46.3160   34.8480   43.1410 C   0  0  0  0  0  0  0  0  0  0  0  0
   46.1930   33.9600   44.2200 C   0  0  0  0  0  0  0  0  0  0  0  0
   45.3280   34.2760   45.2160 N   0  0  0  0  0  0  0  0  0  0  0  0
   44.5870   35.4120   45.2020 C   0  0  0  0  0  0  0  0  0  0  0  0
   44.6810   36.2980   44.1690 N   0  0  0  0  0  0  0  0  0  0  0  0
   45.5990   36.7260   42.3440 H   0  0  0  0  0  0  0  0  0  0  0  0
   46.7860   33.0660   44.2160 H   0  0  0  0  0  0  0  0  0  0  0  0
   43.9320   35.5470   46.0620 H   0  0  0  0  0  0  0  0  0  0  0  0
   48.8290   31.5610   39.8930 C   0  0  0  0  0  0  0  0  0  0  0  0
   49.9560   32.0050   39.1810 F   0  0  0  0  0  0  0  0  0  0  0  0
   49.0050   30.1590   39.8650 F   0  0  0  0  0  0  0  0  0  0  0  0
   47.6700   31.7520   39.1820 F   0  0  0  0  0  0  0  0  0  0  0  0
  1  2  1  1  0  0  0
  1 18  1  0  0  0  0
  2  7  1  0  0  0  0
  3  2  1  0  0  0  0
  3  4  1  0  0  0  0
  3  9  1  0  0  0  0
  4 11  1  0  0  0  0
  5  4  1  0  0  0  0
  5 13  1  0  0  0  0
  6 15  1  1  0  0  0
  6  1  1  0  0  0  0
  6  5  1  0  0  0  0
  8  2  1  0  0  0  0
 10  3  1  0  0  0  0
 12  4  1  0  0  0  0
 14  5  1  0  0  0  0
 16 19  1  6  0  0  0
 16 18  1  0  0  0  0
 16 24  1  0  0  0  0
 17 16  1  0  0  0  0
 17 18  1  0  0  0  0
 17 20  1  0  0  0  0
 18 22  1  1  0  0  0
 21 17  1  0  0  0  0
 23 28  1  0  0  0  0
 24 23  2  0  0  0  0
 24 25  1  0  0  0  0
 25 26  2  0  0  0  0
 27 26  1  0  0  0  0
 27 31  1  0  0  0  0
 28 27  2  0  0  0  0
 29 23  1  0  0  0  0
 30 25  1  0  0  0  0
 32  6  1  0  0  0  0
 33 32  1  0  0  0  0
 34 32  1  0  0  0  0
 35 32  1  0  0  0  0
M  END
>  <minimizedAffinity>
-4.66117382

>  <minimizedRMSD>
0.321310133

$$$$
