
 OpenBabel03252502263D

 27 28  0  0  0  0  0  0  0  0999 V2000
   45.1280   34.4180   41.1870 C   0  0  0  0  0  0  0  0  0  0  0  0
   45.5480   35.0230   42.3640 C   0  0  0  0  0  0  0  0  0  0  0  0
   46.9130   35.2480   42.5520 C   0  0  0  0  0  0  0  0  0  0  0  0
   47.8040   34.8720   41.5780 C   0  0  0  0  0  0  0  0  0  0  0  0
   47.4120   34.2730   40.4060 C   0  0  0  0  0  0  0  0  0  0  0  0
   46.0390   34.0640   40.2570 C   0  0  0  0  0  0  0  0  0  0  0  0
   44.8380   35.3190   43.1340 H   0  0  0  0  0  0  0  0  0  0  0  0
   47.2120   35.7200   43.4760 H   0  0  0  0  0  0  0  0  0  0  0  0
   48.8450   35.0770   41.7890 H   0  0  0  0  0  0  0  0  0  0  0  0
   48.0950   33.9800   39.6500 H   0  0  0  0  0  0  0  0  0  0  0  0
   41.4330   34.8430   40.5770 C   0  0  0  0  0  0  0  0  0  0  0  0
   42.7990   35.1740   40.6610 C   0  0  0  0  0  0  0  0  0  0  0  0
   43.6980   34.2130   41.0590 C   0  0  0  0  0  0  0  0  0  0  0  0
   43.1950   32.9760   41.3530 N   0  0  0  0  0  0  0  0  0  0  0  0
   41.8850   32.6670   41.2710 C   0  0  0  0  0  0  0  0  0  0  0  0
   40.9960   33.6100   40.8790 N   0  0  0  0  0  0  0  0  0  0  0  0
   43.1720   36.1550   40.4230 H   0  0  0  0  0  0  0  0  0  0  0  0
   41.6150   31.6420   41.5340 H   0  0  0  0  0  0  0  0  0  0  0  0
   40.4540   35.8700   40.1490 C   0  0  0  0  0  0  0  0  0  0  0  0
   39.2280   35.2250   39.9580 F   0  0  0  0  0  0  0  0  0  0  0  0
   40.8480   36.2990   38.8850 F   0  0  0  0  0  0  0  0  0  0  0  0
   40.3150   36.8960   41.0450 F   0  0  0  0  0  0  0  0  0  0  0  0
   45.4540   32.1440   38.5560 C   0  0  0  0  0  0  0  0  0  0  0  0
   45.9260   31.1330   39.0780 O   0  0  0  0  0  0  0  0  0  0  0  0
   45.5020   33.4550   39.0940 N   0  0  0  0  0  0  0  0  0  0  0  0
   44.9440   32.0750   37.5900 H   0  0  0  0  0  0  0  0  0  0  0  0
   45.0580   34.2820   38.5910 H   0  0  0  0  0  0  0  0  0  0  0  0
  1  2  1  0  0  0  0
  2  3  2  0  0  0  0
  2  7  1  0  0  0  0
  3  8  1  0  0  0  0
  4  9  1  0  0  0  0
  4  3  1  0  0  0  0
  5  4  2  0  0  0  0
  6  5  1  0  0  0  0
  6  1  2  0  0  0  0
 10  5  1  0  0  0  0
 11 12  2  0  0  0  0
 11 16  1  0  0  0  0
 12 13  1  0  0  0  0
 13  1  1  0  0  0  0
 13 14  2  0  0  0  0
 15 14  1  0  0  0  0
 15 18  1  0  0  0  0
 16 15  2  0  0  0  0
 17 12  1  0  0  0  0
 19 11  1  0  0  0  0
 19 22  1  0  0  0  0
 20 19  1  0  0  0  0
 21 19  1  0  0  0  0
 23 24  2  0  0  0  0
 23 25  1  0  0  0  0
 25  6  1  0  0  0  0
 26 23  1  0  0  0  0
 27 25  1  0  0  0  0
M  END
>  <minimizedAffinity>
-5.4683218

>  <minimizedRMSD>
4.3212676

$$$$
