
 OpenBabel03242522003D

 27 28  0  0  1  0  0  0  0  0999 V2000
   47.7570   33.3490   43.1860 N   0  0  0  0  0  0  0  0  0  0  0  0
   47.4210   32.4830   42.0650 C   0  0  0  0  0  0  0  0  0  0  0  0
   48.6240   32.1760   41.2210 C   0  0  0  0  0  0  0  0  0  0  0  0
   49.3690   33.3120   40.8230 N   0  0  0  0  0  0  0  0  0  0  0  0
   49.4710   34.3710   41.7530 C   0  0  2  0  0  0  0  0  0  0  0  0
   48.9360   34.1560   43.1160 C   0  0  0  0  0  0  0  0  0  0  0  0
   47.1200   31.4990   42.5330 H   0  0  0  0  0  0  0  0  0  0  0  0
   46.5360   32.8220   41.5080 H   0  0  0  0  0  0  0  0  0  0  0  0
   49.2860   31.5140   41.8340 H   0  0  0  0  0  0  0  0  0  0  0  0
   48.2790   31.6270   40.3350 H   0  0  0  0  0  0  0  0  0  0  0  0
   49.0360   33.6220   39.8750 H   0  0  0  0  0  0  0  0  0  0  0  0
   50.5550   34.6540   41.8500 H   0  0  0  0  0  0  0  0  0  0  0  0
   48.7780   35.1420   43.6000 H   0  0  0  0  0  0  0  0  0  0  0  0
   49.7010   33.6330   43.7590 H   0  0  0  0  0  0  0  0  0  0  0  0
   45.1470   34.2610   45.7140 C   0  0  0  0  0  0  0  0  0  0  0  0
   45.8990   34.3220   44.5290 C   0  0  0  0  0  0  0  0  0  0  0  0
   46.9270   33.3930   44.3370 C   0  0  0  0  0  0  0  0  0  0  0  0
   47.1240   32.4850   45.3300 N   0  0  0  0  0  0  0  0  0  0  0  0
   46.3830   32.4510   46.4590 C   0  0  0  0  0  0  0  0  0  0  0  0
   45.3910   33.3450   46.6490 N   0  0  0  0  0  0  0  0  0  0  0  0
   44.3700   35.0110   45.7900 H   0  0  0  0  0  0  0  0  0  0  0  0
   45.7390   35.0380   43.7530 H   0  0  0  0  0  0  0  0  0  0  0  0
   46.6740   31.6640   47.1430 H   0  0  0  0  0  0  0  0  0  0  0  0
   48.7750   35.5940   41.1760 C   0  0  0  0  0  0  0  0  0  0  0  0
   49.5350   36.7330   41.4270 F   0  0  0  0  0  0  0  0  0  0  0  0
   47.6110   35.7500   41.9030 F   0  0  0  0  0  0  0  0  0  0  0  0
   48.5600   35.5040   39.8300 F   0  0  0  0  0  0  0  0  0  0  0  0
  1 17  1  0  0  0  0
  2  7  1  0  0  0  0
  2  1  1  0  0  0  0
  3  9  1  0  0  0  0
  3  2  1  0  0  0  0
  4  3  1  0  0  0  0
  4  5  1  0  0  0  0
  5 12  1  1  0  0  0
  5  6  1  0  0  0  0
  6  1  1  0  0  0  0
  6 13  1  0  0  0  0
  6 14  1  0  0  0  0
  8  2  1  0  0  0  0
 10  3  1  0  0  0  0
 11  4  1  0  0  0  0
 15 21  1  0  0  0  0
 15 20  1  0  0  0  0
 16 15  2  0  0  0  0
 17 16  1  0  0  0  0
 17 18  2  0  0  0  0
 18 19  1  0  0  0  0
 19 20  2  0  0  0  0
 19 23  1  0  0  0  0
 22 16  1  0  0  0  0
 24 25  1  0  0  0  0
 24  5  1  0  0  0  0
 24 26  1  0  0  0  0
 27 24  1  0  0  0  0
M  END
>  <minimizedAffinity>
-5.07644653

>  <minimizedRMSD>
1.9614414

$$$$
