
 OpenBabel03252509183D

 36 38  0  0  1  0  0  0  0  0999 V2000
   46.7640   30.9610   47.0070 C   0  0  1  0  0  0  0  0  0  0  0  0
   46.9800   32.0630   47.9890 C   0  0  0  0  0  0  0  0  0  0  0  0
   45.8640   32.2660   48.9660 C   0  0  0  0  0  0  0  0  0  0  0  0
   45.3240   30.9660   49.5140 C   0  0  0  0  0  0  0  0  0  0  0  0
   45.1060   29.9290   48.4450 C   0  0  0  0  0  0  0  0  0  0  0  0
   45.2720   30.5680   47.0570 C   0  0  2  0  0  0  0  0  0  0  0  0
   47.2860   30.0550   47.3690 H   0  0  0  0  0  0  0  0  0  0  0  0
   47.0650   33.0170   47.3910 H   0  0  0  0  0  0  0  0  0  0  0  0
   47.9740   31.9770   48.4940 H   0  0  0  0  0  0  0  0  0  0  0  0
   45.0460   32.8820   48.5460 H   0  0  0  0  0  0  0  0  0  0  0  0
   46.2760   32.8200   49.8450 H   0  0  0  0  0  0  0  0  0  0  0  0
   46.0360   30.5420   50.2680 H   0  0  0  0  0  0  0  0  0  0  0  0
   44.4000   31.2060   50.0750 H   0  0  0  0  0  0  0  0  0  0  0  0
   44.0700   29.5330   48.5350 H   0  0  0  0  0  0  0  0  0  0  0  0
   45.8120   29.0990   48.5140 H   0  0  0  0  0  0  0  0  0  0  0  0
   44.6090   31.4210   46.9190 H   0  0  0  0  0  0  0  0  0  0  0  0
   47.7390   32.5680   43.3700 C   0  0  0  0  0  0  0  0  0  0  0  0
   48.2490   31.2690   43.5300 C   0  0  0  0  0  0  0  0  0  0  0  0
   47.9850   30.6290   44.6920 C   0  0  0  0  0  0  0  0  0  0  0  0
   47.2240   31.2660   45.6930 C   0  0  0  0  0  0  0  0  0  0  0  0
   46.8560   32.8810   44.9360 S   0  0  0  0  0  0  0  0  0  0  0  0
   48.8320   30.7760   42.7690 H   0  0  0  0  0  0  0  0  0  0  0  0
   48.2810   29.6400   45.0030 H   0  0  0  0  0  0  0  0  0  0  0  0
   47.8400   33.9360   39.9110 C   0  0  0  0  0  0  0  0  0  0  0  0
   48.4700   35.1810   40.1650 C   0  0  0  0  0  0  0  0  0  0  0  0
   48.8290   35.4950   41.5010 C   0  0  0  0  0  0  0  0  0  0  0  0
   48.5380   34.5590   42.4500 N   0  0  0  0  0  0  0  0  0  0  0  0
   47.9380   33.3870   42.1700 C   0  0  0  0  0  0  0  0  0  0  0  0
   47.5970   33.0900   40.9030 N   0  0  0  0  0  0  0  0  0  0  0  0
   47.5530   33.6670   38.9010 H   0  0  0  0  0  0  0  0  0  0  0  0
   48.6720   35.8740   39.3740 H   0  0  0  0  0  0  0  0  0  0  0  0
   49.3120   36.4320   41.7480 H   0  0  0  0  0  0  0  0  0  0  0  0
   45.0040   29.4550   46.0570 C   0  0  0  0  0  0  0  0  0  0  0  0
   46.0530   28.5540   46.0190 F   0  0  0  0  0  0  0  0  0  0  0  0
   43.8180   28.8340   46.3700 F   0  0  0  0  0  0  0  0  0  0  0  0
   44.8830   30.0350   44.8230 F   0  0  0  0  0  0  0  0  0  0  0  0
  1  6  1  0  0  0  0
  1  7  1  1  0  0  0
  1  2  1  0  0  0  0
  2  9  1  0  0  0  0
  2  3  1  0  0  0  0
  3  4  1  0  0  0  0
  3 11  1  0  0  0  0
  4 13  1  0  0  0  0
  4 12  1  0  0  0  0
  5 15  1  0  0  0  0
  5 14  1  0  0  0  0
  5  4  1  0  0  0  0
  6 16  1  6  0  0  0
  6  5  1  0  0  0  0
  8  2  1  0  0  0  0
 10  3  1  0  0  0  0
 17 18  2  0  0  0  0
 17 21  1  0  0  0  0
 18 19  1  0  0  0  0
 19 23  1  0  0  0  0
 19 20  2  0  0  0  0
 20  1  1  0  0  0  0
 21 20  1  0  0  0  0
 22 18  1  0  0  0  0
 24 25  2  0  0  0  0
 24 29  1  0  0  0  0
 25 26  1  0  0  0  0
 26 32  1  0  0  0  0
 26 27  2  0  0  0  0
 28 27  1  0  0  0  0
 28 17  1  0  0  0  0
 29 28  2  0  0  0  0
 30 24  1  0  0  0  0
 31 25  1  0  0  0  0
 33 35  1  0  0  0  0
 33  6  1  0  0  0  0
 34 33  1  0  0  0  0
 36 33  1  0  0  0  0
M  END
>  <minimizedAffinity>
-5.24541712

>  <minimizedRMSD>
5.00615263

$$$$
