
 OpenBabel03252507353D

 26 28  0  0  0  0  0  0  0  0999 V2000
   48.2960   35.0330   40.7040 C   0  0  0  0  0  0  0  0  0  0  0  0
   47.2810   34.1350   40.9880 C   0  0  0  0  0  0  0  0  0  0  0  0
   46.7920   33.3470   39.9790 C   0  0  0  0  0  0  0  0  0  0  0  0
   47.2700   33.4060   38.6790 C   0  0  0  0  0  0  0  0  0  0  0  0
   46.9470   32.7420   37.5480 N   0  0  0  0  0  0  0  0  0  0  0  0
   47.7430   33.2040   36.5450 C   0  0  0  0  0  0  0  0  0  0  0  0
   48.5590   34.1620   37.0760 N   0  0  0  0  0  0  0  0  0  0  0  0
   48.2770   34.2930   38.3810 C   0  0  0  0  0  0  0  0  0  0  0  0
   48.7810   35.0950   39.3870 C   0  0  0  0  0  0  0  0  0  0  0  0
   48.7650   35.7030   41.3910 H   0  0  0  0  0  0  0  0  0  0  0  0
   45.9970   32.6640   40.2660 H   0  0  0  0  0  0  0  0  0  0  0  0
   46.1870   32.0080   37.5630 H   0  0  0  0  0  0  0  0  0  0  0  0
   47.6480   32.8010   35.5430 H   0  0  0  0  0  0  0  0  0  0  0  0
   49.5730   35.7780   39.1080 H   0  0  0  0  0  0  0  0  0  0  0  0
   45.5180   34.8410   44.2490 C   0  0  0  0  0  0  0  0  0  0  0  0
   45.9000   35.0120   42.8900 C   0  0  0  0  0  0  0  0  0  0  0  0
   46.7960   34.0910   42.3640 C   0  0  0  0  0  0  0  0  0  0  0  0
   47.2540   33.0990   43.1510 N   0  0  0  0  0  0  0  0  0  0  0  0
   46.8780   32.9520   44.4470 C   0  0  0  0  0  0  0  0  0  0  0  0
   46.0140   33.8270   44.9780 N   0  0  0  0  0  0  0  0  0  0  0  0
   45.5380   35.8000   42.2600 H   0  0  0  0  0  0  0  0  0  0  0  0
   47.3200   32.1120   44.9650 H   0  0  0  0  0  0  0  0  0  0  0  0
   44.5560   35.8340   44.8020 C   0  0  0  0  0  0  0  0  0  0  0  0
   43.3260   35.7110   44.1760 F   0  0  0  0  0  0  0  0  0  0  0  0
   44.3170   35.6220   46.1640 F   0  0  0  0  0  0  0  0  0  0  0  0
   44.9520   37.1350   44.6180 F   0  0  0  0  0  0  0  0  0  0  0  0
  1  2  1  0  0  0  0
  1 10  1  0  0  0  0
  2 17  1  0  0  0  0
  3 11  1  0  0  0  0
  3  2  2  0  0  0  0
  4  3  1  0  0  0  0
  5 12  1  0  0  0  0
  5  4  1  0  0  0  0
  6  7  2  0  0  0  0
  6  5  1  0  0  0  0
  7  8  1  0  0  0  0
  8  4  2  0  0  0  0
  8  9  1  0  0  0  0
  9  1  2  0  0  0  0
 13  6  1  0  0  0  0
 14  9  1  0  0  0  0
 15 23  1  0  0  0  0
 15 20  1  0  0  0  0
 16 15  2  0  0  0  0
 17 16  1  0  0  0  0
 17 18  2  0  0  0  0
 18 19  1  0  0  0  0
 19 22  1  0  0  0  0
 19 20  2  0  0  0  0
 21 16  1  0  0  0  0
 23 25  1  0  0  0  0
 24 23  1  0  0  0  0
 26 23  1  0  0  0  0
M  END
>  <minimizedAffinity>
-5.4900012

>  <minimizedRMSD>
1.60856009

$$$$
