
 OpenBabel03252509203D

 20 21  0  0  0  0  0  0  0  0999 V2000
   44.8060   35.3150   45.0240 C   0  0  0  0  0  0  0  0  0  0  0  0
   45.5680   34.8250   43.9140 C   0  0  0  0  0  0  0  0  0  0  0  0
   46.2360   33.6460   44.1760 C   0  0  0  0  0  0  0  0  0  0  0  0
   46.1620   33.0100   45.4030 N   0  0  0  0  0  0  0  0  0  0  0  0
   45.4200   33.5260   46.4120 C   0  0  0  0  0  0  0  0  0  0  0  0
   44.7520   34.6720   46.2100 N   0  0  0  0  0  0  0  0  0  0  0  0
   44.2460   36.2180   44.9490 H   0  0  0  0  0  0  0  0  0  0  0  0
   45.5060   32.8720   47.2660 H   0  0  0  0  0  0  0  0  0  0  0  0
   46.9780   33.0060   43.0340 C   0  0  0  0  0  0  0  0  0  0  0  0
   48.4880   33.2690   43.1470 C   0  0  0  0  0  0  0  0  0  0  0  0
   47.8150   31.8740   43.3090 C   0  0  0  0  0  0  0  0  0  0  0  0
   46.6190   33.3150   42.0450 H   0  0  0  0  0  0  0  0  0  0  0  0
   48.8270   33.7750   44.0530 H   0  0  0  0  0  0  0  0  0  0  0  0
   49.0890   33.4100   42.2470 H   0  0  0  0  0  0  0  0  0  0  0  0
   48.1000   31.1310   42.5050 H   0  0  0  0  0  0  0  0  0  0  0  0
   47.9840   31.4590   44.3400 H   0  0  0  0  0  0  0  0  0  0  0  0
   45.5600   35.5820   42.6670 C   0  0  0  0  0  0  0  0  0  0  0  0
   44.8210   34.9340   41.6970 F   0  0  0  0  0  0  0  0  0  0  0  0
   46.8320   35.8780   42.2320 F   0  0  0  0  0  0  0  0  0  0  0  0
   44.9300   36.7950   42.8760 F   0  0  0  0  0  0  0  0  0  0  0  0
  1  6  1  0  0  0  0
  2  3  1  0  0  0  0
  2  1  2  0  0  0  0
  3  4  2  0  0  0  0
  4  5  1  0  0  0  0
  5  8  1  0  0  0  0
  6  5  2  0  0  0  0
  7  1  1  0  0  0  0
  9 10  1  0  0  0  0
  9 11  1  0  0  0  0
  9  3  1  0  0  0  0
 10 11  1  0  0  0  0
 10 13  1  0  0  0  0
 11 16  1  0  0  0  0
 12  9  1  0  0  0  0
 14 10  1  0  0  0  0
 15 11  1  0  0  0  0
 17 20  1  0  0  0  0
 17  2  1  0  0  0  0
 18 17  1  0  0  0  0
 19 17  1  0  0  0  0
M  END
>  <minimizedAffinity>
-3.82251716

>  <minimizedRMSD>
1.75997043

$$$$
