
 OpenBabel03252500163D

 33 35  0  0  0  0  0  0  0  0999 V2000
   39.3510   30.3250   41.4920 Cl  0  0  0  0  0  0  0  0  0  0  0  0
   38.1850   30.2600   40.2210 C   0  0  0  0  0  0  0  0  0  0  0  0
   38.1040   31.2410   39.2800 C   0  0  0  0  0  0  0  0  0  0  0  0
   37.1810   31.2170   38.2490 C   0  0  0  0  0  0  0  0  0  0  0  0
   36.3330   30.1280   38.2240 C   0  0  0  0  0  0  0  0  0  0  0  0
   36.4010   29.1240   39.1710 C   0  0  0  0  0  0  0  0  0  0  0  0
   37.3190   29.1830   40.1650 C   0  0  0  0  0  0  0  0  0  0  0  0
   37.1510   32.0120   37.5260 H   0  0  0  0  0  0  0  0  0  0  0  0
   35.6100   30.1230   37.4060 H   0  0  0  0  0  0  0  0  0  0  0  0
   35.7000   28.3290   39.0590 H   0  0  0  0  0  0  0  0  0  0  0  0
   39.6210   34.4650   40.2520 C   0  0  0  0  0  0  0  0  0  0  0  0
   40.8080   34.4880   39.4800 C   0  0  0  0  0  0  0  0  0  0  0  0
   41.0650   33.4020   38.6450 C   0  0  0  0  0  0  0  0  0  0  0  0
   40.1630   32.3800   38.6160 N   0  0  0  0  0  0  0  0  0  0  0  0
   39.0410   32.3810   39.3600 C   0  0  0  0  0  0  0  0  0  0  0  0
   38.7830   33.4220   40.1680 N   0  0  0  0  0  0  0  0  0  0  0  0
   39.3860   35.2780   40.9060 H   0  0  0  0  0  0  0  0  0  0  0  0
   41.4910   35.2930   39.5210 H   0  0  0  0  0  0  0  0  0  0  0  0
   42.2850   33.3190   37.7860 C   0  0  0  0  0  0  0  0  0  0  0  0
   42.5440   34.5330   37.2120 F   0  0  0  0  0  0  0  0  0  0  0  0
   43.3640   32.9550   38.5690 F   0  0  0  0  0  0  0  0  0  0  0  0
   42.0340   32.3600   36.8400 F   0  0  0  0  0  0  0  0  0  0  0  0
   37.4120   28.1370   41.1760 C   0  0  0  0  0  0  0  0  0  0  0  0
   36.5830   28.0470   42.2920 C   0  0  0  0  0  0  0  0  0  0  0  0
   36.9340   26.9470   43.0410 C   0  0  0  0  0  0  0  0  0  0  0  0
   37.9950   26.4090   42.3130 C   0  0  0  0  0  0  0  0  0  0  0  0
   38.2550   27.1280   41.2190 O   0  0  0  0  0  0  0  0  0  0  0  0
   35.7680   28.7210   42.5720 H   0  0  0  0  0  0  0  0  0  0  0  0
   36.5550   26.5390   43.9470 H   0  0  0  0  0  0  0  0  0  0  0  0
   38.8270   25.2030   42.5840 C   0  0  0  0  0  0  0  0  0  0  0  0
   38.0460   24.0620   42.6190 F   0  0  0  0  0  0  0  0  0  0  0  0
   39.7620   24.9760   41.5700 F   0  0  0  0  0  0  0  0  0  0  0  0
   39.5860   25.3690   43.7310 F   0  0  0  0  0  0  0  0  0  0  0  0
  2  1  1  0  0  0  0
  3 15  1  0  0  0  0
  3  2  2  0  0  0  0
  4  3  1  0  0  0  0
  5  4  2  0  0  0  0
  5  6  1  0  0  0  0
  6  7  2  0  0  0  0
  7  2  1  0  0  0  0
  7 23  1  0  0  0  0
  8  4  1  0  0  0  0
  9  5  1  0  0  0  0
 10  6  1  0  0  0  0
 11 17  1  0  0  0  0
 12 18  1  0  0  0  0
 12 11  2  0  0  0  0
 13 12  1  0  0  0  0
 14 13  2  0  0  0  0
 14 15  1  0  0  0  0
 15 16  2  0  0  0  0
 16 11  1  0  0  0  0
 19 21  1  0  0  0  0
 19 13  1  0  0  0  0
 20 19  1  0  0  0  0
 22 19  1  0  0  0  0
 23 27  1  0  0  0  0
 23 24  2  0  0  0  0
 24 28  1  0  0  0  0
 24 25  1  0  0  0  0
 25 29  1  0  0  0  0
 26 30  1  0  0  0  0
 26 25  2  0  0  0  0
 27 26  1  0  0  0  0
 30 31  1  0  0  0  0
 30 33  1  0  0  0  0
 32 30  1  0  0  0  0
M  END
>  <minimizedAffinity>
-6.17852926

$$$$

 OpenBabel03252500163D

 33 35  0  0  0  0  0  0  0  0999 V2000
   40.5880   29.5280   40.0690 Cl  0  0  0  0  0  0  0  0  0  0  0  0
   39.1660   30.2070   39.3670 C   0  0  0  0  0  0  0  0  0  0  0  0
   37.9310   29.9630   39.8870 C   0  0  0  0  0  0  0  0  0  0  0  0
   36.7720   30.4930   39.3480 C   0  0  0  0  0  0  0  0  0  0  0  0
   36.9360   31.2950   38.2360 C   0  0  0  0  0  0  0  0  0  0  0  0
   38.1810   31.5530   37.6950 C   0  0  0  0  0  0  0  0  0  0  0  0
   39.2920   31.0150   38.2520 C   0  0  0  0  0  0  0  0  0  0  0  0
   35.8160   30.2750   39.7900 H   0  0  0  0  0  0  0  0  0  0  0  0
   36.0130   31.7050   37.8210 H   0  0  0  0  0  0  0  0  0  0  0  0
   38.1940   32.1850   36.8370 H   0  0  0  0  0  0  0  0  0  0  0  0
   37.8260   28.8450   43.4060 C   0  0  0  0  0  0  0  0  0  0  0  0
   37.6100   27.4510   43.2760 C   0  0  0  0  0  0  0  0  0  0  0  0
   37.5060   26.9230   41.9900 C   0  0  0  0  0  0  0  0  0  0  0  0
   37.6160   27.7740   40.9300 N   0  0  0  0  0  0  0  0  0  0  0  0
   37.8200   29.0960   41.0790 C   0  0  0  0  0  0  0  0  0  0  0  0
   37.9230   29.6160   42.3130 N   0  0  0  0  0  0  0  0  0  0  0  0
   37.9120   29.2900   44.3740 H   0  0  0  0  0  0  0  0  0  0  0  0
   37.5280   26.8130   44.1140 H   0  0  0  0  0  0  0  0  0  0  0  0
   37.2790   25.4680   41.7330 C   0  0  0  0  0  0  0  0  0  0  0  0
   36.7450   25.2860   40.4880 F   0  0  0  0  0  0  0  0  0  0  0  0
   38.4880   24.8030   41.8050 F   0  0  0  0  0  0  0  0  0  0  0  0
   36.4290   25.0250   42.7130 F   0  0  0  0  0  0  0  0  0  0  0  0
   40.6170   31.2720   37.7010 C   0  0  0  0  0  0  0  0  0  0  0  0
   41.2550   32.5110   37.7350 C   0  0  0  0  0  0  0  0  0  0  0  0
   42.4890   32.4110   37.1310 C   0  0  0  0  0  0  0  0  0  0  0  0
   42.5340   31.0690   36.7510 C   0  0  0  0  0  0  0  0  0  0  0  0
   41.4210   30.4220   37.0990 O   0  0  0  0  0  0  0  0  0  0  0  0
   40.8760   33.4430   38.1610 H   0  0  0  0  0  0  0  0  0  0  0  0
   43.2660   33.1150   36.9560 H   0  0  0  0  0  0  0  0  0  0  0  0
   43.6060   30.3110   36.0470 C   0  0  0  0  0  0  0  0  0  0  0  0
   43.8150   29.0820   36.6450 F   0  0  0  0  0  0  0  0  0  0  0  0
   43.2570   30.0210   34.7250 F   0  0  0  0  0  0  0  0  0  0  0  0
   44.7650   31.0640   35.9470 F   0  0  0  0  0  0  0  0  0  0  0  0
  2  3  1  0  0  0  0
  2  1  1  0  0  0  0
  3 15  1  0  0  0  0
  4  8  1  0  0  0  0
  4  3  2  0  0  0  0
  5  4  1  0  0  0  0
  6  5  2  0  0  0  0
  6  7  1  0  0  0  0
  7  2  2  0  0  0  0
  9  5  1  0  0  0  0
 10  6  1  0  0  0  0
 11 17  1  0  0  0  0
 12 11  1  0  0  0  0
 12 18  1  0  0  0  0
 13 12  2  0  0  0  0
 14 15  2  0  0  0  0
 14 13  1  0  0  0  0
 15 16  1  0  0  0  0
 16 11  2  0  0  0  0
 19 21  1  0  0  0  0
 19 13  1  0  0  0  0
 19 22  1  0  0  0  0
 20 19  1  0  0  0  0
 23 24  2  0  0  0  0
 23  7  1  0  0  0  0
 24 28  1  0  0  0  0
 25 24  1  0  0  0  0
 26 27  1  0  0  0  0
 26 25  2  0  0  0  0
 27 23  1  0  0  0  0
 29 25  1  0  0  0  0
 30 31  1  0  0  0  0
 30 26  1  0  0  0  0
 32 30  1  0  0  0  0
 33 30  1  0  0  0  0
M  END
>  <minimizedAffinity>
-5.95480061

$$$$

 OpenBabel03252500163D

 33 35  0  0  0  0  0  0  0  0999 V2000
   37.9460   28.1290   39.3890 Cl  0  0  0  0  0  0  0  0  0  0  0  0
   37.7670   28.0100   41.1010 C   0  0  0  0  0  0  0  0  0  0  0  0
   37.6760   26.8020   41.7230 C   0  0  0  0  0  0  0  0  0  0  0  0
   37.5320   26.6730   43.0940 C   0  0  0  0  0  0  0  0  0  0  0  0
   37.4860   27.8530   43.8090 C   0  0  0  0  0  0  0  0  0  0  0  0
   37.5770   29.0870   43.1940 C   0  0  0  0  0  0  0  0  0  0  0  0
   37.7170   29.1710   41.8490 C   0  0  0  0  0  0  0  0  0  0  0  0
   37.4640   25.6990   43.5450 H   0  0  0  0  0  0  0  0  0  0  0  0
   37.3720   27.7350   44.8890 H   0  0  0  0  0  0  0  0  0  0  0  0
   37.5300   29.9330   43.8390 H   0  0  0  0  0  0  0  0  0  0  0  0
   38.9810   23.8760   39.8840 C   0  0  0  0  0  0  0  0  0  0  0  0
   37.7990   23.2880   39.3710 C   0  0  0  0  0  0  0  0  0  0  0  0
   36.5820   23.9020   39.6640 C   0  0  0  0  0  0  0  0  0  0  0  0
   36.5960   25.0330   40.4260 N   0  0  0  0  0  0  0  0  0  0  0  0
   37.7320   25.5740   40.9030 C   0  0  0  0  0  0  0  0  0  0  0  0
   38.9100   24.9910   40.6260 N   0  0  0  0  0  0  0  0  0  0  0  0
   39.9340   23.4370   39.6830 H   0  0  0  0  0  0  0  0  0  0  0  0
   37.8160   22.4100   38.7830 H   0  0  0  0  0  0  0  0  0  0  0  0
   35.2740   23.3690   39.1760 C   0  0  0  0  0  0  0  0  0  0  0  0
   34.4210   23.1780   40.2270 F   0  0  0  0  0  0  0  0  0  0  0  0
   34.7120   24.2820   38.3040 F   0  0  0  0  0  0  0  0  0  0  0  0
   35.5460   22.1920   38.5300 F   0  0  0  0  0  0  0  0  0  0  0  0
   37.8160   30.4610   41.1770 C   0  0  0  0  0  0  0  0  0  0  0  0
   36.7270   31.1700   40.6750 C   0  0  0  0  0  0  0  0  0  0  0  0
   37.1650   32.3440   40.1030 C   0  0  0  0  0  0  0  0  0  0  0  0
   38.5450   32.2810   40.2960 C   0  0  0  0  0  0  0  0  0  0  0  0
   38.9010   31.1630   40.9300 O   0  0  0  0  0  0  0  0  0  0  0  0
   35.6730   30.8820   40.7070 H   0  0  0  0  0  0  0  0  0  0  0  0
   36.6580   33.1450   39.6200 H   0  0  0  0  0  0  0  0  0  0  0  0
   39.6100   33.2470   39.9060 C   0  0  0  0  0  0  0  0  0  0  0  0
   40.6990   33.1480   40.7520 F   0  0  0  0  0  0  0  0  0  0  0  0
   40.1120   32.9810   38.6290 F   0  0  0  0  0  0  0  0  0  0  0  0
   39.1080   34.5360   39.8250 F   0  0  0  0  0  0  0  0  0  0  0  0
  1  2  1  0  0  0  0
  2  3  2  0  0  0  0
  2  7  1  0  0  0  0
  3  4  1  0  0  0  0
  4  8  1  0  0  0  0
  4  5  2  0  0  0  0
  5  9  1  0  0  0  0
  6  5  1  0  0  0  0
  6 10  1  0  0  0  0
  7  6  2  0  0  0  0
 11 16  1  0  0  0  0
 12 13  1  0  0  0  0
 12 11  2  0  0  0  0
 13 14  2  0  0  0  0
 14 15  1  0  0  0  0
 15  3  1  0  0  0  0
 16 15  2  0  0  0  0
 17 11  1  0  0  0  0
 18 12  1  0  0  0  0
 19 13  1  0  0  0  0
 19 20  1  0  0  0  0
 21 19  1  0  0  0  0
 22 19  1  0  0  0  0
 23  7  1  0  0  0  0
 24 28  1  0  0  0  0
 24 23  2  0  0  0  0
 25 26  2  0  0  0  0
 25 24  1  0  0  0  0
 26 27  1  0  0  0  0
 27 23  1  0  0  0  0
 29 25  1  0  0  0  0
 30 26  1  0  0  0  0
 30 31  1  0  0  0  0
 32 30  1  0  0  0  0
 33 30  1  0  0  0  0
M  END
>  <minimizedAffinity>
-5.90446806

$$$$

 OpenBabel03252500163D

 33 35  0  0  0  0  0  0  0  0999 V2000
   40.5910   30.1240   41.5930 Cl  0  0  0  0  0  0  0  0  0  0  0  0
   39.1930   30.9270   40.9780 C   0  0  0  0  0  0  0  0  0  0  0  0
   39.2930   32.0870   40.2720 C   0  0  0  0  0  0  0  0  0  0  0  0
   38.1920   32.7550   39.7660 C   0  0  0  0  0  0  0  0  0  0  0  0
   36.9650   32.1730   40.0180 C   0  0  0  0  0  0  0  0  0  0  0  0
   36.8450   30.9960   40.7330 C   0  0  0  0  0  0  0  0  0  0  0  0
   37.9480   30.3730   41.2120 C   0  0  0  0  0  0  0  0  0  0  0  0
   38.3150   33.6690   39.2130 H   0  0  0  0  0  0  0  0  0  0  0  0
   36.1060   32.7110   39.6140 H   0  0  0  0  0  0  0  0  0  0  0  0
   35.8520   30.6340   40.8700 H   0  0  0  0  0  0  0  0  0  0  0  0
   42.3420   34.1390   40.6480 C   0  0  0  0  0  0  0  0  0  0  0  0
   43.1350   33.7070   39.5580 C   0  0  0  0  0  0  0  0  0  0  0  0
   42.6130   32.7250   38.7170 C   0  0  0  0  0  0  0  0  0  0  0  0
   41.3700   32.2340   38.9910 N   0  0  0  0  0  0  0  0  0  0  0  0
   40.6340   32.6610   40.0340 C   0  0  0  0  0  0  0  0  0  0  0  0
   41.1280   33.6070   40.8500 N   0  0  0  0  0  0  0  0  0  0  0  0
   42.7050   34.8900   41.3170 H   0  0  0  0  0  0  0  0  0  0  0  0
   44.0960   34.1030   39.3680 H   0  0  0  0  0  0  0  0  0  0  0  0
   43.3610   32.1940   37.5380 C   0  0  0  0  0  0  0  0  0  0  0  0
   44.2820   33.1090   37.1110 F   0  0  0  0  0  0  0  0  0  0  0  0
   44.0170   31.0350   37.9030 F   0  0  0  0  0  0  0  0  0  0  0  0
   42.4290   31.9320   36.5680 F   0  0  0  0  0  0  0  0  0  0  0  0
   37.8480   29.1300   41.9680 C   0  0  0  0  0  0  0  0  0  0  0  0
   37.7080   29.0620   43.3530 C   0  0  0  0  0  0  0  0  0  0  0  0
   37.6430   27.7440   43.7460 C   0  0  0  0  0  0  0  0  0  0  0  0
   37.7510   27.0600   42.5350 C   0  0  0  0  0  0  0  0  0  0  0  0
   37.8700   27.8990   41.5050 O   0  0  0  0  0  0  0  0  0  0  0  0
   37.6540   29.8970   44.0580 H   0  0  0  0  0  0  0  0  0  0  0  0
   37.5390   27.2790   44.6960 H   0  0  0  0  0  0  0  0  0  0  0  0
   37.7500   25.5950   42.2620 C   0  0  0  0  0  0  0  0  0  0  0  0
   36.5290   25.0330   42.5890 F   0  0  0  0  0  0  0  0  0  0  0  0
   37.9280   25.3180   40.9040 F   0  0  0  0  0  0  0  0  0  0  0  0
   38.8140   24.9700   42.8920 F   0  0  0  0  0  0  0  0  0  0  0  0
  2  7  1  0  0  0  0
  2  1  1  0  0  0  0
  3  2  2  0  0  0  0
  4  5  2  0  0  0  0
  4  3  1  0  0  0  0
  5  6  1  0  0  0  0
  6 10  1  0  0  0  0
  6  7  2  0  0  0  0
  7 23  1  0  0  0  0
  8  4  1  0  0  0  0
  9  5  1  0  0  0  0
 11 16  1  0  0  0  0
 11 17  1  0  0  0  0
 12 11  2  0  0  0  0
 13 14  2  0  0  0  0
 13 12  1  0  0  0  0
 14 15  1  0  0  0  0
 15  3  1  0  0  0  0
 15 16  2  0  0  0  0
 18 12  1  0  0  0  0
 19 21  1  0  0  0  0
 19 13  1  0  0  0  0
 20 19  1  0  0  0  0
 22 19  1  0  0  0  0
 23 24  2  0  0  0  0
 24 25  1  0  0  0  0
 24 28  1  0  0  0  0
 25 29  1  0  0  0  0
 26 25  2  0  0  0  0
 27 23  1  0  0  0  0
 27 26  1  0  0  0  0
 30 26  1  0  0  0  0
 30 31  1  0  0  0  0
 30 33  1  0  0  0  0
 32 30  1  0  0  0  0
M  END
>  <minimizedAffinity>
-5.89771557

$$$$

 OpenBabel03252500163D

 33 35  0  0  0  0  0  0  0  0999 V2000
   40.3770   30.0030   40.4660 Cl  0  0  0  0  0  0  0  0  0  0  0  0
   39.3850   31.3990   40.2530 C   0  0  0  0  0  0  0  0  0  0  0  0
   39.9170   32.6010   39.9000 C   0  0  0  0  0  0  0  0  0  0  0  0
   39.1480   33.7390   39.7200 C   0  0  0  0  0  0  0  0  0  0  0  0
   37.7910   33.5870   39.9220 C   0  0  0  0  0  0  0  0  0  0  0  0
   37.2340   32.3740   40.2810 C   0  0  0  0  0  0  0  0  0  0  0  0
   38.0200   31.2840   40.4470 C   0  0  0  0  0  0  0  0  0  0  0  0
   39.6090   34.6690   39.4410 H   0  0  0  0  0  0  0  0  0  0  0  0
   37.1980   34.4920   39.7780 H   0  0  0  0  0  0  0  0  0  0  0  0
   36.1760   32.3680   40.4110 H   0  0  0  0  0  0  0  0  0  0  0  0
   43.4740   33.4530   40.4160 C   0  0  0  0  0  0  0  0  0  0  0  0
   44.0940   32.8660   39.2870 C   0  0  0  0  0  0  0  0  0  0  0  0
   43.2850   32.1930   38.3730 C   0  0  0  0  0  0  0  0  0  0  0  0
   41.9440   32.1350   38.6160 N   0  0  0  0  0  0  0  0  0  0  0  0
   41.3770   32.7010   39.6980 C   0  0  0  0  0  0  0  0  0  0  0  0
   42.1470   33.3530   40.5840 N   0  0  0  0  0  0  0  0  0  0  0  0
   44.0580   33.9790   41.1420 H   0  0  0  0  0  0  0  0  0  0  0  0
   45.1360   32.9250   39.1220 H   0  0  0  0  0  0  0  0  0  0  0  0
   43.8310   31.5360   37.1460 C   0  0  0  0  0  0  0  0  0  0  0  0
   42.8540   31.4260   36.1950 F   0  0  0  0  0  0  0  0  0  0  0  0
   44.8610   32.3070   36.6420 F   0  0  0  0  0  0  0  0  0  0  0  0
   44.2960   30.3070   37.5330 F   0  0  0  0  0  0  0  0  0  0  0  0
   37.4580   29.9930   40.8240 C   0  0  0  0  0  0  0  0  0  0  0  0
   36.5620   29.2680   40.0410 C   0  0  0  0  0  0  0  0  0  0  0  0
   36.2290   28.0970   40.6860 C   0  0  0  0  0  0  0  0  0  0  0  0
   36.9660   28.1790   41.8670 C   0  0  0  0  0  0  0  0  0  0  0  0
   37.6810   29.3050   41.9230 O   0  0  0  0  0  0  0  0  0  0  0  0
   36.1590   29.5430   39.0630 H   0  0  0  0  0  0  0  0  0  0  0  0
   35.5880   27.2890   40.4290 H   0  0  0  0  0  0  0  0  0  0  0  0
   37.0520   27.2260   43.0080 C   0  0  0  0  0  0  0  0  0  0  0  0
   37.3030   25.9410   42.5600 F   0  0  0  0  0  0  0  0  0  0  0  0
   38.1170   27.5300   43.8620 F   0  0  0  0  0  0  0  0  0  0  0  0
   35.9250   27.3040   43.8100 F   0  0  0  0  0  0  0  0  0  0  0  0
  2  7  1  0  0  0  0
  2  1  1  0  0  0  0
  3  2  2  0  0  0  0
  4  3  1  0  0  0  0
  4  5  2  0  0  0  0
  5  6  1  0  0  0  0
  6 10  1  0  0  0  0
  6  7  2  0  0  0  0
  7 23  1  0  0  0  0
  8  4  1  0  0  0  0
  9  5  1  0  0  0  0
 11 16  1  0  0  0  0
 11 17  1  0  0  0  0
 12 11  2  0  0  0  0
 13 14  2  0  0  0  0
 13 12  1  0  0  0  0
 14 15  1  0  0  0  0
 15  3  1  0  0  0  0
 15 16  2  0  0  0  0
 18 12  1  0  0  0  0
 19 22  1  0  0  0  0
 19 13  1  0  0  0  0
 20 19  1  0  0  0  0
 21 19  1  0  0  0  0
 23 27  1  0  0  0  0
 24 25  1  0  0  0  0
 24 23  2  0  0  0  0
 25 26  2  0  0  0  0
 26 27  1  0  0  0  0
 26 30  1  0  0  0  0
 28 24  1  0  0  0  0
 29 25  1  0  0  0  0
 30 33  1  0  0  0  0
 30 32  1  0  0  0  0
 31 30  1  0  0  0  0
M  END
>  <minimizedAffinity>
-5.86130953

$$$$

 OpenBabel03252500163D

 33 35  0  0  0  0  0  0  0  0999 V2000
   40.4430   29.6020   40.5700 Cl  0  0  0  0  0  0  0  0  0  0  0  0
   39.0840   30.6480   40.3730 C   0  0  0  0  0  0  0  0  0  0  0  0
   39.1710   31.7970   39.6480 C   0  0  0  0  0  0  0  0  0  0  0  0
   38.0990   32.6550   39.4710 C   0  0  0  0  0  0  0  0  0  0  0  0
   36.9190   32.2790   40.0800 C   0  0  0  0  0  0  0  0  0  0  0  0
   36.8130   31.1170   40.8200 C   0  0  0  0  0  0  0  0  0  0  0  0
   37.8850   30.3020   40.9700 C   0  0  0  0  0  0  0  0  0  0  0  0
   38.2110   33.5530   38.8900 H   0  0  0  0  0  0  0  0  0  0  0  0
   36.0830   32.9670   39.9330 H   0  0  0  0  0  0  0  0  0  0  0  0
   35.8560   30.9220   41.2470 H   0  0  0  0  0  0  0  0  0  0  0  0
   41.8270   32.2470   37.1210 C   0  0  0  0  0  0  0  0  0  0  0  0
   42.8810   32.8040   37.8840 C   0  0  0  0  0  0  0  0  0  0  0  0
   42.6630   33.0150   39.2450 C   0  0  0  0  0  0  0  0  0  0  0  0
   41.4500   32.6730   39.7660 N   0  0  0  0  0  0  0  0  0  0  0  0
   40.4620   32.1450   39.0200 C   0  0  0  0  0  0  0  0  0  0  0  0
   40.6620   31.9370   37.7080 N   0  0  0  0  0  0  0  0  0  0  0  0
   41.9520   32.0690   36.0740 H   0  0  0  0  0  0  0  0  0  0  0  0
   43.8130   33.0600   37.4560 H   0  0  0  0  0  0  0  0  0  0  0  0
   43.7040   33.5970   40.1460 C   0  0  0  0  0  0  0  0  0  0  0  0
   44.6750   34.2160   39.4090 F   0  0  0  0  0  0  0  0  0  0  0  0
   43.1110   34.5270   40.9780 F   0  0  0  0  0  0  0  0  0  0  0  0
   44.2150   32.5570   40.8770 F   0  0  0  0  0  0  0  0  0  0  0  0
   37.7990   29.0710   41.7450 C   0  0  0  0  0  0  0  0  0  0  0  0
   37.8900   29.0090   43.1340 C   0  0  0  0  0  0  0  0  0  0  0  0
   37.7700   27.7010   43.5460 C   0  0  0  0  0  0  0  0  0  0  0  0
   37.6070   27.0150   42.3420 C   0  0  0  0  0  0  0  0  0  0  0  0
   37.6270   27.8450   41.2980 O   0  0  0  0  0  0  0  0  0  0  0  0
   38.0340   29.8410   43.8290 H   0  0  0  0  0  0  0  0  0  0  0  0
   37.7860   27.2420   44.5050 H   0  0  0  0  0  0  0  0  0  0  0  0
   37.4230   25.5590   42.0890 C   0  0  0  0  0  0  0  0  0  0  0  0
   38.5270   24.8410   42.5100 F   0  0  0  0  0  0  0  0  0  0  0  0
   36.3480   25.0360   42.8140 F   0  0  0  0  0  0  0  0  0  0  0  0
   37.1010   25.3200   40.7620 F   0  0  0  0  0  0  0  0  0  0  0  0
  2  1  1  0  0  0  0
  2  7  1  0  0  0  0
  3  2  2  0  0  0  0
  4  3  1  0  0  0  0
  4  5  2  0  0  0  0
  5  6  1  0  0  0  0
  6  7  2  0  0  0  0
  6 10  1  0  0  0  0
  7 23  1  0  0  0  0
  8  4  1  0  0  0  0
  9  5  1  0  0  0  0
 11 16  2  0  0  0  0
 11 12  1  0  0  0  0
 12 13  2  0  0  0  0
 13 14  1  0  0  0  0
 13 19  1  0  0  0  0
 15  3  1  0  0  0  0
 15 14  2  0  0  0  0
 16 15  1  0  0  0  0
 17 11  1  0  0  0  0
 18 12  1  0  0  0  0
 19 22  1  0  0  0  0
 19 21  1  0  0  0  0
 20 19  1  0  0  0  0
 23 24  2  0  0  0  0
 24 25  1  0  0  0  0
 24 28  1  0  0  0  0
 25 29  1  0  0  0  0
 26 25  2  0  0  0  0
 27 23  1  0  0  0  0
 27 26  1  0  0  0  0
 30 26  1  0  0  0  0
 30 31  1  0  0  0  0
 30 32  1  0  0  0  0
 33 30  1  0  0  0  0
M  END
>  <minimizedAffinity>
-5.83387756

$$$$

 OpenBabel03252500163D

 33 35  0  0  0  0  0  0  0  0999 V2000
   40.6470   30.1900   40.2460 Cl  0  0  0  0  0  0  0  0  0  0  0  0
   39.5350   31.5070   40.1660 C   0  0  0  0  0  0  0  0  0  0  0  0
   38.1890   31.3040   40.2030 C   0  0  0  0  0  0  0  0  0  0  0  0
   37.2720   32.3390   40.1420 C   0  0  0  0  0  0  0  0  0  0  0  0
   37.8020   33.6090   40.0370 C   0  0  0  0  0  0  0  0  0  0  0  0
   39.1650   33.8330   39.9970 C   0  0  0  0  0  0  0  0  0  0  0  0
   40.0310   32.7940   40.0600 C   0  0  0  0  0  0  0  0  0  0  0  0
   36.2170   32.1340   40.1750 H   0  0  0  0  0  0  0  0  0  0  0  0
   37.0670   34.4150   39.9890 H   0  0  0  0  0  0  0  0  0  0  0  0
   39.4680   34.8520   39.9160 H   0  0  0  0  0  0  0  0  0  0  0  0
   36.8190   27.9920   39.3090 C   0  0  0  0  0  0  0  0  0  0  0  0
   36.7420   27.3460   40.5660 C   0  0  0  0  0  0  0  0  0  0  0  0
   37.1590   28.0530   41.6930 C   0  0  0  0  0  0  0  0  0  0  0  0
   37.6180   29.3270   41.5230 N   0  0  0  0  0  0  0  0  0  0  0  0
   37.6820   29.9200   40.3170 C   0  0  0  0  0  0  0  0  0  0  0  0
   37.2820   29.2480   39.2250 N   0  0  0  0  0  0  0  0  0  0  0  0
   36.5090   27.4850   38.4200 H   0  0  0  0  0  0  0  0  0  0  0  0
   36.3820   26.3570   40.6710 H   0  0  0  0  0  0  0  0  0  0  0  0
   37.1220   27.4710   43.0680 C   0  0  0  0  0  0  0  0  0  0  0  0
   35.8400   27.4600   43.5430 F   0  0  0  0  0  0  0  0  0  0  0  0
   37.5940   26.1730   43.0220 F   0  0  0  0  0  0  0  0  0  0  0  0
   37.9380   28.2510   43.8460 F   0  0  0  0  0  0  0  0  0  0  0  0
   41.4730   33.0040   40.0210 C   0  0  0  0  0  0  0  0  0  0  0  0
   42.2620   33.2520   41.1420 C   0  0  0  0  0  0  0  0  0  0  0  0
   43.5760   33.4020   40.7580 C   0  0  0  0  0  0  0  0  0  0  0  0
   43.5110   33.2300   39.3750 C   0  0  0  0  0  0  0  0  0  0  0  0
   42.2620   32.9970   38.9680 O   0  0  0  0  0  0  0  0  0  0  0  0
   41.9340   33.3250   42.1830 H   0  0  0  0  0  0  0  0  0  0  0  0
   44.4680   33.5990   41.3010 H   0  0  0  0  0  0  0  0  0  0  0  0
   44.5950   33.2720   38.3550 C   0  0  0  0  0  0  0  0  0  0  0  0
   45.1510   34.5360   38.2770 F   0  0  0  0  0  0  0  0  0  0  0  0
   45.6560   32.4250   38.6880 F   0  0  0  0  0  0  0  0  0  0  0  0
   44.1450   32.8070   37.1300 F   0  0  0  0  0  0  0  0  0  0  0  0
  2  3  1  0  0  0  0
  2  1  1  0  0  0  0
  3 15  1  0  0  0  0
  4  8  1  0  0  0  0
  4  3  2  0  0  0  0
  5  4  1  0  0  0  0
  6  5  2  0  0  0  0
  6  7  1  0  0  0  0
  7  2  2  0  0  0  0
  9  5  1  0  0  0  0
 10  6  1  0  0  0  0
 11 12  1  0  0  0  0
 12 18  1  0  0  0  0
 12 13  2  0  0  0  0
 13 19  1  0  0  0  0
 14 13  1  0  0  0  0
 15 14  2  0  0  0  0
 16 11  2  0  0  0  0
 16 15  1  0  0  0  0
 17 11  1  0  0  0  0
 19 20  1  0  0  0  0
 19 22  1  0  0  0  0
 21 19  1  0  0  0  0
 23  7  1  0  0  0  0
 23 24  2  0  0  0  0
 24 28  1  0  0  0  0
 25 24  1  0  0  0  0
 25 29  1  0  0  0  0
 26 25  2  0  0  0  0
 27 26  1  0  0  0  0
 27 23  1  0  0  0  0
 30 32  1  0  0  0  0
 30 26  1  0  0  0  0
 31 30  1  0  0  0  0
 33 30  1  0  0  0  0
M  END
>  <minimizedAffinity>
-5.79758692

$$$$

 OpenBabel03252500163D

 33 35  0  0  0  0  0  0  0  0999 V2000
   38.5240   28.3890   39.6340 Cl  0  0  0  0  0  0  0  0  0  0  0  0
   37.9340   28.1400   41.2370 C   0  0  0  0  0  0  0  0  0  0  0  0
   37.2560   27.0090   41.5760 C   0  0  0  0  0  0  0  0  0  0  0  0
   36.7710   26.7790   42.8520 C   0  0  0  0  0  0  0  0  0  0  0  0
   37.0130   27.7750   43.7770 C   0  0  0  0  0  0  0  0  0  0  0  0
   37.6990   28.9290   43.4500 C   0  0  0  0  0  0  0  0  0  0  0  0
   38.1590   29.1160   42.1890 C   0  0  0  0  0  0  0  0  0  0  0  0
   36.2410   25.8720   43.0780 H   0  0  0  0  0  0  0  0  0  0  0  0
   36.6240   27.5800   44.7790 H   0  0  0  0  0  0  0  0  0  0  0  0
   37.8310   29.6320   44.2390 H   0  0  0  0  0  0  0  0  0  0  0  0
   35.9810   25.2940   38.5630 C   0  0  0  0  0  0  0  0  0  0  0  0
   36.6270   24.0360   38.6330 C   0  0  0  0  0  0  0  0  0  0  0  0
   37.4840   23.8000   39.7070 C   0  0  0  0  0  0  0  0  0  0  0  0
   37.6540   24.7900   40.6290 N   0  0  0  0  0  0  0  0  0  0  0  0
   37.0280   25.9790   40.5410 C   0  0  0  0  0  0  0  0  0  0  0  0
   36.2000   26.2170   39.5110 N   0  0  0  0  0  0  0  0  0  0  0  0
   35.3150   25.5150   37.7570 H   0  0  0  0  0  0  0  0  0  0  0  0
   36.4790   23.2850   37.9050 H   0  0  0  0  0  0  0  0  0  0  0  0
   38.2190   22.5100   39.8820 C   0  0  0  0  0  0  0  0  0  0  0  0
   37.3510   21.4570   39.7990 F   0  0  0  0  0  0  0  0  0  0  0  0
   39.1650   22.3900   38.8820 F   0  0  0  0  0  0  0  0  0  0  0  0
   38.8240   22.5670   41.1100 F   0  0  0  0  0  0  0  0  0  0  0  0
   38.8850   30.3240   41.8190 C   0  0  0  0  0  0  0  0  0  0  0  0
   40.2300   30.5510   42.1040 C   0  0  0  0  0  0  0  0  0  0  0  0
   40.6040   31.7840   41.6170 C   0  0  0  0  0  0  0  0  0  0  0  0
   39.4230   32.2550   41.0430 C   0  0  0  0  0  0  0  0  0  0  0  0
   38.4280   31.3770   41.1740 O   0  0  0  0  0  0  0  0  0  0  0  0
   40.9200   29.8850   42.6290 H   0  0  0  0  0  0  0  0  0  0  0  0
   41.5240   32.3160   41.6300 H   0  0  0  0  0  0  0  0  0  0  0  0
   39.1490   33.5400   40.3400 C   0  0  0  0  0  0  0  0  0  0  0  0
   38.8250   34.5360   41.2430 F   0  0  0  0  0  0  0  0  0  0  0  0
   40.2760   34.0130   39.6610 F   0  0  0  0  0  0  0  0  0  0  0  0
   38.1890   33.3740   39.3560 F   0  0  0  0  0  0  0  0  0  0  0  0
  1  2  1  0  0  0  0
  2  3  2  0  0  0  0
  2  7  1  0  0  0  0
  3  4  1  0  0  0  0
  4  8  1  0  0  0  0
  4  5  2  0  0  0  0
  5  9  1  0  0  0  0
  6  5  1  0  0  0  0
  6 10  1  0  0  0  0
  7  6  2  0  0  0  0
 11 12  2  0  0  0  0
 11 16  1  0  0  0  0
 12 13  1  0  0  0  0
 13 19  1  0  0  0  0
 13 14  2  0  0  0  0
 15 14  1  0  0  0  0
 15  3  1  0  0  0  0
 16 15  2  0  0  0  0
 17 11  1  0  0  0  0
 18 12  1  0  0  0  0
 19 22  1  0  0  0  0
 20 19  1  0  0  0  0
 21 19  1  0  0  0  0
 23 24  2  0  0  0  0
 23  7  1  0  0  0  0
 24 28  1  0  0  0  0
 25 29  1  0  0  0  0
 25 24  1  0  0  0  0
 26 27  1  0  0  0  0
 26 25  2  0  0  0  0
 27 23  1  0  0  0  0
 30 26  1  0  0  0  0
 30 31  1  0  0  0  0
 32 30  1  0  0  0  0
 33 30  1  0  0  0  0
M  END
>  <minimizedAffinity>
-5.77155542

$$$$

 OpenBabel03252500163D

 33 35  0  0  0  0  0  0  0  0999 V2000
   38.9270   27.1960   39.9360 Cl  0  0  0  0  0  0  0  0  0  0  0  0
   38.1600   27.4540   41.4600 C   0  0  0  0  0  0  0  0  0  0  0  0
   38.2700   28.6400   42.1190 C   0  0  0  0  0  0  0  0  0  0  0  0
   37.6660   28.8780   43.3420 C   0  0  0  0  0  0  0  0  0  0  0  0
   36.9350   27.8310   43.8670 C   0  0  0  0  0  0  0  0  0  0  0  0
   36.8140   26.6200   43.2120 C   0  0  0  0  0  0  0  0  0  0  0  0
   37.4200   26.4270   42.0160 C   0  0  0  0  0  0  0  0  0  0  0  0
   37.7780   29.8300   43.8280 H   0  0  0  0  0  0  0  0  0  0  0  0
   36.4660   28.0330   44.8320 H   0  0  0  0  0  0  0  0  0  0  0  0
   36.2270   25.8800   43.7060 H   0  0  0  0  0  0  0  0  0  0  0  0
   41.1410   30.7130   41.0690 C   0  0  0  0  0  0  0  0  0  0  0  0
   40.5140   31.7580   40.3490 C   0  0  0  0  0  0  0  0  0  0  0  0
   39.1250   31.7340   40.2370 C   0  0  0  0  0  0  0  0  0  0  0  0
   38.4470   30.7070   40.8250 N   0  0  0  0  0  0  0  0  0  0  0  0
   39.0650   29.7230   41.5050 C   0  0  0  0  0  0  0  0  0  0  0  0
   40.4030   29.7380   41.6190 N   0  0  0  0  0  0  0  0  0  0  0  0
   42.2040   30.6940   41.1790 H   0  0  0  0  0  0  0  0  0  0  0  0
   41.0630   32.5430   39.9020 H   0  0  0  0  0  0  0  0  0  0  0  0
   38.3580   32.7840   39.5000 C   0  0  0  0  0  0  0  0  0  0  0  0
   38.0650   32.3560   38.2360 F   0  0  0  0  0  0  0  0  0  0  0  0
   37.1770   33.0360   40.1730 F   0  0  0  0  0  0  0  0  0  0  0  0
   39.1470   33.9040   39.4800 F   0  0  0  0  0  0  0  0  0  0  0  0
   37.3070   25.1590   41.3050 C   0  0  0  0  0  0  0  0  0  0  0  0
   38.1190   24.0520   41.5390 C   0  0  0  0  0  0  0  0  0  0  0  0
   37.7490   23.0230   40.7020 C   0  0  0  0  0  0  0  0  0  0  0  0
   36.6960   23.5820   39.9790 C   0  0  0  0  0  0  0  0  0  0  0  0
   36.4550   24.8400   40.3540 O   0  0  0  0  0  0  0  0  0  0  0  0
   38.9330   23.9650   42.2630 H   0  0  0  0  0  0  0  0  0  0  0  0
   38.1140   22.0320   40.5710 H   0  0  0  0  0  0  0  0  0  0  0  0
   35.8530   22.9880   38.9040 C   0  0  0  0  0  0  0  0  0  0  0  0
   34.5140   23.0210   39.2510 F   0  0  0  0  0  0  0  0  0  0  0  0
   35.9400   23.7140   37.7120 F   0  0  0  0  0  0  0  0  0  0  0  0
   36.2910   21.7160   38.5730 F   0  0  0  0  0  0  0  0  0  0  0  0
  1  2  1  0  0  0  0
  2  7  2  0  0  0  0
  2  3  1  0  0  0  0
  3  4  2  0  0  0  0
  4  8  1  0  0  0  0
  4  5  1  0  0  0  0
  5  9  1  0  0  0  0
  6 10  1  0  0  0  0
  6  5  2  0  0  0  0
  7  6  1  0  0  0  0
 11 17  1  0  0  0  0
 11 16  1  0  0  0  0
 12 11  2  0  0  0  0
 13 12  1  0  0  0  0
 13 14  2  0  0  0  0
 14 15  1  0  0  0  0
 15 16  2  0  0  0  0
 15  3  1  0  0  0  0
 18 12  1  0  0  0  0
 19 21  1  0  0  0  0
 19 13  1  0  0  0  0
 20 19  1  0  0  0  0
 22 19  1  0  0  0  0
 23 24  2  0  0  0  0
 23  7  1  0  0  0  0
 24 28  1  0  0  0  0
 25 24  1  0  0  0  0
 26 27  1  0  0  0  0
 26 25  2  0  0  0  0
 27 23  1  0  0  0  0
 29 25  1  0  0  0  0
 30 31  1  0  0  0  0
 30 26  1  0  0  0  0
 32 30  1  0  0  0  0
 33 30  1  0  0  0  0
M  END
>  <minimizedAffinity>
-5.70831728

$$$$
