
 OpenBabel03252509213D

 20 21  0  0  0  0  0  0  0  0999 V2000
   45.2550   34.7020   44.8910 C   0  0  0  0  0  0  0  0  0  0  0  0
   46.0710   34.4950   43.7300 C   0  0  0  0  0  0  0  0  0  0  0  0
   46.9620   33.4480   43.8580 C   0  0  0  0  0  0  0  0  0  0  0  0
   47.0450   32.6810   45.0060 N   0  0  0  0  0  0  0  0  0  0  0  0
   46.2420   32.9300   46.0690 C   0  0  0  0  0  0  0  0  0  0  0  0
   45.3580   33.9370   45.9980 N   0  0  0  0  0  0  0  0  0  0  0  0
   44.5290   35.4800   44.9190 H   0  0  0  0  0  0  0  0  0  0  0  0
   46.4750   32.2160   46.8440 H   0  0  0  0  0  0  0  0  0  0  0  0
   47.7850   33.0950   42.6490 C   0  0  0  0  0  0  0  0  0  0  0  0
   49.2290   33.6000   42.8030 C   0  0  0  0  0  0  0  0  0  0  0  0
   48.8110   32.1010   42.7850 C   0  0  0  0  0  0  0  0  0  0  0  0
   47.3620   33.4570   41.7040 H   0  0  0  0  0  0  0  0  0  0  0  0
   49.4890   34.0420   43.7670 H   0  0  0  0  0  0  0  0  0  0  0  0
   49.7810   33.9550   41.9310 H   0  0  0  0  0  0  0  0  0  0  0  0
   49.2070   31.5240   41.8960 H   0  0  0  0  0  0  0  0  0  0  0  0
   49.0650   31.5960   43.7570 H   0  0  0  0  0  0  0  0  0  0  0  0
   45.8840   35.3660   42.5750 C   0  0  0  0  0  0  0  0  0  0  0  0
   45.2300   34.7040   41.5540 F   0  0  0  0  0  0  0  0  0  0  0  0
   47.0670   35.9260   42.1500 F   0  0  0  0  0  0  0  0  0  0  0  0
   45.0620   36.4200   42.9300 F   0  0  0  0  0  0  0  0  0  0  0  0
  1  7  1  0  0  0  0
  1  6  1  0  0  0  0
  2  3  1  0  0  0  0
  2  1  2  0  0  0  0
  3  4  2  0  0  0  0
  4  5  1  0  0  0  0
  5  8  1  0  0  0  0
  6  5  2  0  0  0  0
  9 11  1  0  0  0  0
  9 10  1  0  0  0  0
  9  3  1  0  0  0  0
 10 13  1  0  0  0  0
 11 10  1  0  0  0  0
 11 16  1  0  0  0  0
 12  9  1  0  0  0  0
 14 10  1  0  0  0  0
 15 11  1  0  0  0  0
 17 20  1  0  0  0  0
 17  2  1  0  0  0  0
 18 17  1  0  0  0  0
 19 17  1  0  0  0  0
M  END
>  <minimizedAffinity>
-3.88860846

>  <minimizedRMSD>
1.89207947

$$$$
