
 OpenBabel03252508233D

 43 45  0  0  0  0  0  0  0  0999 V2000
   46.2820   33.8770   40.4710 C   0  0  0  0  0  0  0  0  0  0  0  0
   46.9090   33.7240   39.2540 C   0  0  0  0  0  0  0  0  0  0  0  0
   48.1270   34.2730   38.9330 C   0  0  0  0  0  0  0  0  0  0  0  0
   48.7370   35.0290   39.9420 C   0  0  0  0  0  0  0  0  0  0  0  0
   48.1570   35.2100   41.1650 C   0  0  0  0  0  0  0  0  0  0  0  0
   46.9450   34.6460   41.4390 C   0  0  0  0  0  0  0  0  0  0  0  0
   46.5120   33.1490   38.4330 H   0  0  0  0  0  0  0  0  0  0  0  0
   48.6420   34.1750   38.0010 H   0  0  0  0  0  0  0  0  0  0  0  0
   49.7120   35.4930   39.7430 H   0  0  0  0  0  0  0  0  0  0  0  0
   48.6990   35.8140   41.8950 H   0  0  0  0  0  0  0  0  0  0  0  0
   46.4360   34.8850   42.7350 N   0  0  0  0  0  0  0  0  0  0  0  0
   45.4860   35.9100   43.0560 C   0  0  0  0  0  0  0  0  0  0  0  0
   44.7860   35.6180   44.3660 C   0  0  0  0  0  0  0  0  0  0  0  0
   44.4890   34.2430   44.5690 N   0  0  0  0  0  0  0  0  0  0  0  0
   45.5920   33.3700   44.4630 C   0  0  0  0  0  0  0  0  0  0  0  0
   46.7990   34.1240   43.9400 C   0  0  0  0  0  0  0  0  0  0  0  0
   44.8220   36.2400   42.2590 H   0  0  0  0  0  0  0  0  0  0  0  0
   46.1170   36.8260   43.2710 H   0  0  0  0  0  0  0  0  0  0  0  0
   43.8410   36.1870   44.3680 H   0  0  0  0  0  0  0  0  0  0  0  0
   45.4150   35.9460   45.2250 H   0  0  0  0  0  0  0  0  0  0  0  0
   43.7870   34.0900   45.2790 H   0  0  0  0  0  0  0  0  0  0  0  0
   45.8640   32.9750   45.4670 H   0  0  0  0  0  0  0  0  0  0  0  0
   45.3980   32.4930   43.8240 H   0  0  0  0  0  0  0  0  0  0  0  0
   47.1840   34.8280   44.7150 H   0  0  0  0  0  0  0  0  0  0  0  0
   47.5570   33.3630   43.6400 H   0  0  0  0  0  0  0  0  0  0  0  0
   44.9820   33.2940   40.8040 C   0  0  0  0  0  0  0  0  0  0  0  0
   44.3350   33.9200   41.4150 H   0  0  0  0  0  0  0  0  0  0  0  0
   45.2080   32.3910   41.4440 H   0  0  0  0  0  0  0  0  0  0  0  0
   44.2410   32.8290   39.5690 C   0  0  0  0  0  0  0  0  0  0  0  0
   43.9580   31.7380   39.6760 H   0  0  0  0  0  0  0  0  0  0  0  0
   44.7540   32.9700   38.6300 H   0  0  0  0  0  0  0  0  0  0  0  0
   41.5040   35.1760   38.4490 C   0  0  0  0  0  0  0  0  0  0  0  0
   42.7540   34.5150   38.5160 C   0  0  0  0  0  0  0  0  0  0  0  0
   42.9420   33.5370   39.4840 C   0  0  0  0  0  0  0  0  0  0  0  0
   41.8970   33.2690   40.3250 N   0  0  0  0  0  0  0  0  0  0  0  0
   40.7280   33.9040   40.2470 C   0  0  0  0  0  0  0  0  0  0  0  0
   40.5270   34.8560   39.3130 N   0  0  0  0  0  0  0  0  0  0  0  0
   41.3760   35.9450   37.6780 H   0  0  0  0  0  0  0  0  0  0  0  0
   43.5420   34.7630   37.8310 H   0  0  0  0  0  0  0  0  0  0  0  0
   39.6740   33.5070   41.2320 C   0  0  0  0  0  0  0  0  0  0  0  0
   38.3870   33.7130   40.7250 F   0  0  0  0  0  0  0  0  0  0  0  0
   39.7460   34.2710   42.3860 F   0  0  0  0  0  0  0  0  0  0  0  0
   39.7360   32.1670   41.5640 F   0  0  0  0  0  0  0  0  0  0  0  0
  1 26  1  0  0  0  0
  1  6  1  0  0  0  0
  2  1  2  0  0  0  0
  3  2  1  0  0  0  0
  3  4  2  0  0  0  0
  4  5  1  0  0  0  0
  5  6  2  0  0  0  0
  5 10  1  0  0  0  0
  6 11  1  0  0  0  0
  7  2  1  0  0  0  0
  8  3  1  0  0  0  0
  9  4  1  0  0  0  0
 11 12  1  0  0  0  0
 11 16  1  0  0  0  0
 12 18  1  0  0  0  0
 12 13  1  0  0  0  0
 13 19  1  0  0  0  0
 13 14  1  0  0  0  0
 13 20  1  0  0  0  0
 14 21  1  0  0  0  0
 15 14  1  0  0  0  0
 15 22  1  0  0  0  0
 16 15  1  0  0  0  0
 16 24  1  0  0  0  0
 17 12  1  0  0  0  0
 23 15  1  0  0  0  0
 25 16  1  0  0  0  0
 26 27  1  0  0  0  0
 26 28  1  0  0  0  0
 29 30  1  0  0  0  0
 29 26  1  0  0  0  0
 31 29  1  0  0  0  0
 32 33  2  0  0  0  0
 32 37  1  0  0  0  0
 33 34  1  0  0  0  0
 34 29  1  0  0  0  0
 34 35  2  0  0  0  0
 36 35  1  0  0  0  0
 36 40  1  0  0  0  0
 37 36  2  0  0  0  0
 38 32  1  0  0  0  0
 39 33  1  0  0  0  0
 40 43  1  0  0  0  0
 40 42  1  0  0  0  0
 41 40  1  0  0  0  0
M  END
>  <minimizedAffinity>
-5.92427444

>  <minimizedRMSD>
1.05477786

$$$$
