
 OpenBabel03252504563D

 26 27  0  0  1  0  0  0  0  0999 V2000
   36.7960   29.2370   41.8800 N   0  0  0  0  0  0  0  0  0  0  0  0
   38.0140   29.3440   42.6080 C   0  0  0  0  0  0  0  0  0  0  0  0
   37.8930   28.2540   43.6160 C   0  0  0  0  0  0  0  0  0  0  0  0
   36.6060   27.5080   43.3680 C   0  0  0  0  0  0  0  0  0  0  0  0
   36.3030   27.9430   41.8940 C   0  0  2  0  0  0  0  0  0  0  0  0
   38.8690   29.9530   42.5860 H   0  0  0  0  0  0  0  0  0  0  0  0
   38.6370   28.0030   44.3840 H   0  0  0  0  0  0  0  0  0  0  0  0
   35.8500   27.9390   44.0180 H   0  0  0  0  0  0  0  0  0  0  0  0
   36.7170   26.4440   43.4630 H   0  0  0  0  0  0  0  0  0  0  0  0
   35.2570   27.7200   41.7520 H   0  0  0  0  0  0  0  0  0  0  0  0
   37.1240   26.9670   41.0790 C   0  0  0  0  0  0  0  0  0  0  0  0
   36.3580   26.4840   40.0080 F   0  0  0  0  0  0  0  0  0  0  0  0
   38.2290   27.5410   40.5040 F   0  0  0  0  0  0  0  0  0  0  0  0
   37.4920   25.9220   41.9110 F   0  0  0  0  0  0  0  0  0  0  0  0
   36.2020   30.3500   41.3560 C   0  0  0  0  0  0  0  0  0  0  0  0
   36.4310   31.2270   42.0470 H   0  0  0  0  0  0  0  0  0  0  0  0
   35.0820   30.3920   41.3250 H   0  0  0  0  0  0  0  0  0  0  0  0
   37.1170   30.6380   37.7020 C   0  0  0  0  0  0  0  0  0  0  0  0
   36.6630   30.0300   38.9030 C   0  0  0  0  0  0  0  0  0  0  0  0
   36.6750   30.7880   40.0560 C   0  0  0  0  0  0  0  0  0  0  0  0
   37.1200   32.0540   39.9620 N   0  0  0  0  0  0  0  0  0  0  0  0
   37.5590   32.6320   38.7920 C   0  0  0  0  0  0  0  0  0  0  0  0
   37.5480   31.9080   37.6790 N   0  0  0  0  0  0  0  0  0  0  0  0
   37.0770   29.9810   36.8420 H   0  0  0  0  0  0  0  0  0  0  0  0
   36.3120   29.0150   38.9590 H   0  0  0  0  0  0  0  0  0  0  0  0
   37.8920   33.6620   38.8540 H   0  0  0  0  0  0  0  0  0  0  0  0
  1  5  1  0  0  0  0
  1  2  1  0  0  0  0
  2  3  2  0  0  0  0
  3  7  1  0  0  0  0
  4  9  1  0  0  0  0
  4  3  1  0  0  0  0
  4  8  1  0  0  0  0
  5 10  1  6  0  0  0
  5  4  1  0  0  0  0
  6  2  1  0  0  0  0
 11  5  1  0  0  0  0
 11 14  1  0  0  0  0
 12 11  1  0  0  0  0
 13 11  1  0  0  0  0
 15  1  1  0  0  0  0
 15 16  1  0  0  0  0
 17 15  1  0  0  0  0
 18 19  1  0  0  0  0
 19 25  1  0  0  0  0
 19 20  2  0  0  0  0
 20 15  1  0  0  0  0
 21 20  1  0  0  0  0
 22 26  1  0  0  0  0
 22 21  2  0  0  0  0
 23 18  2  0  0  0  0
 23 22  1  0  0  0  0
 24 18  1  0  0  0  0
M  END
>  <minimizedAffinity>
-4.5196805

$$$$

 OpenBabel03252504563D

 26 27  0  0  1  0  0  0  0  0999 V2000
   38.7100   28.8900   41.5980 N   0  0  0  0  0  0  0  0  0  0  0  0
   39.2800   27.6470   41.9880 C   0  0  0  0  0  0  0  0  0  0  0  0
   38.7220   27.4400   43.3520 C   0  0  0  0  0  0  0  0  0  0  0  0
   37.7770   28.5730   43.6640 C   0  0  0  0  0  0  0  0  0  0  0  0
   37.4930   29.1130   42.2210 C   0  0  2  0  0  0  0  0  0  0  0  0
   39.9300   26.9370   41.5680 H   0  0  0  0  0  0  0  0  0  0  0  0
   38.9270   26.5830   44.0090 H   0  0  0  0  0  0  0  0  0  0  0  0
   38.3390   29.3250   44.2100 H   0  0  0  0  0  0  0  0  0  0  0  0
   36.8820   28.2450   44.1580 H   0  0  0  0  0  0  0  0  0  0  0  0
   37.0930   30.1030   42.3720 H   0  0  0  0  0  0  0  0  0  0  0  0
   36.3810   28.2080   41.7350 C   0  0  0  0  0  0  0  0  0  0  0  0
   35.3660   28.9780   41.1500 F   0  0  0  0  0  0  0  0  0  0  0  0
   36.7860   27.3380   40.7540 F   0  0  0  0  0  0  0  0  0  0  0  0
   35.8870   27.5170   42.8290 F   0  0  0  0  0  0  0  0  0  0  0  0
   39.4000   29.7450   40.7870 C   0  0  0  0  0  0  0  0  0  0  0  0
   39.8000   29.1450   39.9050 H   0  0  0  0  0  0  0  0  0  0  0  0
   40.3460   30.2040   41.1770 H   0  0  0  0  0  0  0  0  0  0  0  0
   37.0430   31.8190   38.6850 C   0  0  0  0  0  0  0  0  0  0  0  0
   37.7440   30.6670   39.1310 C   0  0  0  0  0  0  0  0  0  0  0  0
   38.6370   30.8160   40.1720 C   0  0  0  0  0  0  0  0  0  0  0  0
   38.7840   32.0490   40.6920 N   0  0  0  0  0  0  0  0  0  0  0  0
   38.0990   33.1580   40.2500 C   0  0  0  0  0  0  0  0  0  0  0  0
   37.2370   33.0200   39.2490 N   0  0  0  0  0  0  0  0  0  0  0  0
   36.3610   31.6220   37.8670 H   0  0  0  0  0  0  0  0  0  0  0  0
   37.6140   29.6890   38.7010 H   0  0  0  0  0  0  0  0  0  0  0  0
   38.3110   34.0930   40.7570 H   0  0  0  0  0  0  0  0  0  0  0  0
  1  2  1  0  0  0  0
  1  5  1  0  0  0  0
  2  3  2  0  0  0  0
  3  4  1  0  0  0  0
  3  7  1  0  0  0  0
  4  9  1  0  0  0  0
  4  8  1  0  0  0  0
  5 10  1  6  0  0  0
  5  4  1  0  0  0  0
  6  2  1  0  0  0  0
 11  5  1  0  0  0  0
 11 14  1  0  0  0  0
 12 11  1  0  0  0  0
 13 11  1  0  0  0  0
 15 17  1  0  0  0  0
 15  1  1  0  0  0  0
 16 15  1  0  0  0  0
 18 19  2  0  0  0  0
 18 23  1  0  0  0  0
 19 20  1  0  0  0  0
 20 21  2  0  0  0  0
 20 15  1  0  0  0  0
 22 21  1  0  0  0  0
 22 26  1  0  0  0  0
 23 22  2  0  0  0  0
 24 18  1  0  0  0  0
 25 19  1  0  0  0  0
M  END
>  <minimizedAffinity>
-4.48182726

$$$$

 OpenBabel03252504563D

 26 27  0  0  1  0  0  0  0  0999 V2000
   38.8130   28.6830   42.5570 N   0  0  0  0  0  0  0  0  0  0  0  0
   39.5030   27.9100   41.5820 C   0  0  0  0  0  0  0  0  0  0  0  0
   39.7710   26.6340   42.2990 C   0  0  0  0  0  0  0  0  0  0  0  0
   39.1450   26.7100   43.6690 C   0  0  0  0  0  0  0  0  0  0  0  0
   38.1270   27.8800   43.4530 C   0  0  2  0  0  0  0  0  0  0  0  0
   39.8210   28.0370   40.5890 H   0  0  0  0  0  0  0  0  0  0  0  0
   40.2970   25.7620   41.8870 H   0  0  0  0  0  0  0  0  0  0  0  0
   39.9140   27.0440   44.3600 H   0  0  0  0  0  0  0  0  0  0  0  0
   38.6590   25.7960   43.9560 H   0  0  0  0  0  0  0  0  0  0  0  0
   37.8730   28.2100   44.4490 H   0  0  0  0  0  0  0  0  0  0  0  0
   36.9280   27.1780   42.8530 C   0  0  0  0  0  0  0  0  0  0  0  0
   36.6770   27.6830   41.5690 F   0  0  0  0  0  0  0  0  0  0  0  0
   37.1250   25.8310   42.6800 F   0  0  0  0  0  0  0  0  0  0  0  0
   35.8400   27.4110   43.6790 F   0  0  0  0  0  0  0  0  0  0  0  0
   38.9550   30.0400   42.5930 C   0  0  0  0  0  0  0  0  0  0  0  0
   40.0680   30.2740   42.6670 H   0  0  0  0  0  0  0  0  0  0  0  0
   38.5630   30.5940   43.4870 H   0  0  0  0  0  0  0  0  0  0  0  0
   36.9510   31.6590   39.8300 C   0  0  0  0  0  0  0  0  0  0  0  0
   37.2120   30.8530   40.9710 C   0  0  0  0  0  0  0  0  0  0  0  0
   38.5140   30.7720   41.4200 C   0  0  0  0  0  0  0  0  0  0  0  0
   39.4490   31.4640   40.7430 N   0  0  0  0  0  0  0  0  0  0  0  0
   39.1820   32.2420   39.6390 C   0  0  0  0  0  0  0  0  0  0  0  0
   37.9320   32.3240   39.2020 N   0  0  0  0  0  0  0  0  0  0  0  0
   35.9070   31.6730   39.5390 H   0  0  0  0  0  0  0  0  0  0  0  0
   36.4510   30.3050   41.4970 H   0  0  0  0  0  0  0  0  0  0  0  0
   40.0290   32.7480   39.1870 H   0  0  0  0  0  0  0  0  0  0  0  0
  1 15  1  0  0  0  0
  1  5  1  0  0  0  0
  2  3  2  0  0  0  0
  2  1  1  0  0  0  0
  3  4  1  0  0  0  0
  4  9  1  0  0  0  0
  4  8  1  0  0  0  0
  5  4  1  0  0  0  0
  5 10  1  1  0  0  0
  6  2  1  0  0  0  0
  7  3  1  0  0  0  0
 11  5  1  0  0  0  0
 11 14  1  0  0  0  0
 12 11  1  0  0  0  0
 13 11  1  0  0  0  0
 15 16  1  0  0  0  0
 15 17  1  0  0  0  0
 18 19  1  0  0  0  0
 19 20  2  0  0  0  0
 19 25  1  0  0  0  0
 20 15  1  0  0  0  0
 21 20  1  0  0  0  0
 22 21  2  0  0  0  0
 23 22  1  0  0  0  0
 23 18  2  0  0  0  0
 24 18  1  0  0  0  0
 26 22  1  0  0  0  0
M  END
>  <minimizedAffinity>
-4.45930433

$$$$

 OpenBabel03252504563D

 26 27  0  0  1  0  0  0  0  0999 V2000
   37.1250   31.1930   40.3780 N   0  0  0  0  0  0  0  0  0  0  0  0
   37.0800   30.8340   39.0020 C   0  0  0  0  0  0  0  0  0  0  0  0
   37.2270   32.1450   38.3120 C   0  0  0  0  0  0  0  0  0  0  0  0
   37.4240   33.2170   39.3530 C   0  0  0  0  0  0  0  0  0  0  0  0
   37.8620   32.3480   40.5800 C   0  0  2  0  0  0  0  0  0  0  0  0
   36.9760   29.9500   38.4440 H   0  0  0  0  0  0  0  0  0  0  0  0
   37.2360   32.3030   37.2250 H   0  0  0  0  0  0  0  0  0  0  0  0
   36.4510   33.6490   39.5650 H   0  0  0  0  0  0  0  0  0  0  0  0
   38.1750   33.9340   39.0750 H   0  0  0  0  0  0  0  0  0  0  0  0
   37.7130   32.9870   41.4370 H   0  0  0  0  0  0  0  0  0  0  0  0
   39.3490   32.1730   40.3570 C   0  0  0  0  0  0  0  0  0  0  0  0
   40.0370   32.3930   41.5590 F   0  0  0  0  0  0  0  0  0  0  0  0
   39.6890   30.9010   39.9720 F   0  0  0  0  0  0  0  0  0  0  0  0
   39.7470   33.0960   39.4040 F   0  0  0  0  0  0  0  0  0  0  0  0
   36.4110   30.4870   41.3030 C   0  0  0  0  0  0  0  0  0  0  0  0
   35.5130   30.0240   40.7740 H   0  0  0  0  0  0  0  0  0  0  0  0
   35.9020   31.0510   42.1280 H   0  0  0  0  0  0  0  0  0  0  0  0
   38.7180   28.2250   43.2600 C   0  0  0  0  0  0  0  0  0  0  0  0
   38.2240   29.4280   42.6890 C   0  0  0  0  0  0  0  0  0  0  0  0
   37.0820   29.3570   41.9200 C   0  0  0  0  0  0  0  0  0  0  0  0
   36.5130   28.1480   41.7620 N   0  0  0  0  0  0  0  0  0  0  0  0
   37.0010   26.9890   42.3210 C   0  0  0  0  0  0  0  0  0  0  0  0
   38.1000   27.0510   43.0630 N   0  0  0  0  0  0  0  0  0  0  0  0
   39.6160   28.3610   43.8500 H   0  0  0  0  0  0  0  0  0  0  0  0
   38.6940   30.3860   42.8240 H   0  0  0  0  0  0  0  0  0  0  0  0
   36.4460   26.0790   42.1150 H   0  0  0  0  0  0  0  0  0  0  0  0
  1  5  1  0  0  0  0
  1 15  1  0  0  0  0
  2  1  1  0  0  0  0
  3  2  2  0  0  0  0
  3  4  1  0  0  0  0
  4  8  1  0  0  0  0
  4  5  1  0  0  0  0
  5 10  1  1  0  0  0
  6  2  1  0  0  0  0
  7  3  1  0  0  0  0
  9  4  1  0  0  0  0
 11  5  1  0  0  0  0
 11 12  1  0  0  0  0
 13 11  1  0  0  0  0
 14 11  1  0  0  0  0
 15 20  1  0  0  0  0
 15 17  1  0  0  0  0
 16 15  1  0  0  0  0
 18 24  1  0  0  0  0
 19 25  1  0  0  0  0
 19 18  2  0  0  0  0
 20 19  1  0  0  0  0
 21 20  2  0  0  0  0
 21 22  1  0  0  0  0
 22 23  2  0  0  0  0
 23 18  1  0  0  0  0
 26 22  1  0  0  0  0
M  END
>  <minimizedAffinity>
-4.32222128

$$$$

 OpenBabel03252504563D

 26 27  0  0  1  0  0  0  0  0999 V2000
   36.7540   28.5990   41.7500 N   0  0  0  0  0  0  0  0  0  0  0  0
   36.1980   28.3610   40.4620 C   0  0  0  0  0  0  0  0  0  0  0  0
   35.7770   29.7200   40.0270 C   0  0  0  0  0  0  0  0  0  0  0  0
   36.1840   30.7130   41.0860 C   0  0  0  0  0  0  0  0  0  0  0  0
   37.2640   29.8820   41.8580 C   0  0  2  0  0  0  0  0  0  0  0  0
   36.0430   27.5320   39.8360 H   0  0  0  0  0  0  0  0  0  0  0  0
   35.2910   29.9690   39.0730 H   0  0  0  0  0  0  0  0  0  0  0  0
   35.3300   30.8610   41.7400 H   0  0  0  0  0  0  0  0  0  0  0  0
   36.5870   31.6200   40.6740 H   0  0  0  0  0  0  0  0  0  0  0  0
   37.3720   30.3840   42.8060 H   0  0  0  0  0  0  0  0  0  0  0  0
   38.5170   30.1140   41.0400 C   0  0  0  0  0  0  0  0  0  0  0  0
   38.2330   30.9810   39.9760 F   0  0  0  0  0  0  0  0  0  0  0  0
   39.5160   30.7270   41.7510 F   0  0  0  0  0  0  0  0  0  0  0  0
   38.9420   28.8870   40.5560 F   0  0  0  0  0  0  0  0  0  0  0  0
   36.6560   27.6560   42.7330 C   0  0  0  0  0  0  0  0  0  0  0  0
   35.7820   26.9710   42.4750 H   0  0  0  0  0  0  0  0  0  0  0  0
   36.3660   27.9880   43.7640 H   0  0  0  0  0  0  0  0  0  0  0  0
   39.9180   26.0040   43.6800 C   0  0  0  0  0  0  0  0  0  0  0  0
   38.9350   27.0250   43.5910 C   0  0  0  0  0  0  0  0  0  0  0  0
   37.7830   26.7530   42.8840 C   0  0  0  0  0  0  0  0  0  0  0  0
   37.6700   25.5350   42.3230 N   0  0  0  0  0  0  0  0  0  0  0  0
   38.6310   24.5540   42.4160 C   0  0  0  0  0  0  0  0  0  0  0  0
   39.7420   24.8090   43.0960 N   0  0  0  0  0  0  0  0  0  0  0  0
   40.7930   26.2910   44.2510 H   0  0  0  0  0  0  0  0  0  0  0  0
   39.0440   27.9950   44.0450 H   0  0  0  0  0  0  0  0  0  0  0  0
   38.4150   23.6150   41.9170 H   0  0  0  0  0  0  0  0  0  0  0  0
  1  5  1  0  0  0  0
  1 15  1  0  0  0  0
  2  1  1  0  0  0  0
  3  2  2  0  0  0  0
  3  4  1  0  0  0  0
  4  8  1  0  0  0  0
  4  5  1  0  0  0  0
  5 10  1  1  0  0  0
  6  2  1  0  0  0  0
  7  3  1  0  0  0  0
  9  4  1  0  0  0  0
 11 13  1  0  0  0  0
 11  5  1  0  0  0  0
 12 11  1  0  0  0  0
 14 11  1  0  0  0  0
 15 20  1  0  0  0  0
 15 17  1  0  0  0  0
 16 15  1  0  0  0  0
 18 24  1  0  0  0  0
 19 18  1  0  0  0  0
 19 25  1  0  0  0  0
 20 19  2  0  0  0  0
 21 22  2  0  0  0  0
 21 20  1  0  0  0  0
 22 23  1  0  0  0  0
 23 18  2  0  0  0  0
 26 22  1  0  0  0  0
M  END
>  <minimizedAffinity>
-4.30083847

$$$$

 OpenBabel03252504563D

 26 27  0  0  1  0  0  0  0  0999 V2000
   37.5580   31.3860   40.2190 N   0  0  0  0  0  0  0  0  0  0  0  0
   38.2030   32.6050   40.5670 C   0  0  0  0  0  0  0  0  0  0  0  0
   39.5720   32.4260   40.0080 C   0  0  0  0  0  0  0  0  0  0  0  0
   39.6290   31.1030   39.2870 C   0  0  0  0  0  0  0  0  0  0  0  0
   38.1010   30.8280   39.0740 C   0  0  2  0  0  0  0  0  0  0  0  0
   37.9490   33.4910   41.0710 H   0  0  0  0  0  0  0  0  0  0  0  0
   40.3930   33.1540   40.0700 H   0  0  0  0  0  0  0  0  0  0  0  0
   40.0190   30.3680   39.9840 H   0  0  0  0  0  0  0  0  0  0  0  0
   40.1640   31.1580   38.3570 H   0  0  0  0  0  0  0  0  0  0  0  0
   38.0400   29.7720   38.8600 H   0  0  0  0  0  0  0  0  0  0  0  0
   37.7910   31.5990   37.8100 C   0  0  0  0  0  0  0  0  0  0  0  0
   38.9860   31.9890   37.1890 F   0  0  0  0  0  0  0  0  0  0  0  0
   37.1240   30.8510   36.8730 F   0  0  0  0  0  0  0  0  0  0  0  0
   37.0500   32.7150   38.1630 F   0  0  0  0  0  0  0  0  0  0  0  0
   36.6010   30.8520   41.0340 C   0  0  0  0  0  0  0  0  0  0  0  0
   35.7050   30.5720   40.3860 H   0  0  0  0  0  0  0  0  0  0  0  0
   36.1130   31.5200   41.7920 H   0  0  0  0  0  0  0  0  0  0  0  0
   36.8210   27.2840   42.2550 C   0  0  0  0  0  0  0  0  0  0  0  0
   36.3210   28.4030   41.5370 C   0  0  0  0  0  0  0  0  0  0  0  0
   36.9440   29.6200   41.7200 C   0  0  0  0  0  0  0  0  0  0  0  0
   37.9850   29.6630   42.5710 N   0  0  0  0  0  0  0  0  0  0  0  0
   38.4600   28.5710   43.2620 C   0  0  0  0  0  0  0  0  0  0  0  0
   37.8650   27.3970   43.0900 N   0  0  0  0  0  0  0  0  0  0  0  0
   36.2820   26.3650   42.0590 H   0  0  0  0  0  0  0  0  0  0  0  0
   35.4850   28.3490   40.8610 H   0  0  0  0  0  0  0  0  0  0  0  0
   39.3070   28.7440   43.9170 H   0  0  0  0  0  0  0  0  0  0  0  0
  1  2  1  0  0  0  0
  1 15  1  0  0  0  0
  2  6  1  0  0  0  0
  3  7  1  0  0  0  0
  3  2  2  0  0  0  0
  4  8  1  0  0  0  0
  4  3  1  0  0  0  0
  5 10  1  6  0  0  0
  5  4  1  0  0  0  0
  5  1  1  0  0  0  0
  9  4  1  0  0  0  0
 11 14  1  0  0  0  0
 11  5  1  0  0  0  0
 12 11  1  0  0  0  0
 13 11  1  0  0  0  0
 15 20  1  0  0  0  0
 15 17  1  0  0  0  0
 16 15  1  0  0  0  0
 18 23  1  0  0  0  0
 19 20  1  0  0  0  0
 19 18  2  0  0  0  0
 20 21  2  0  0  0  0
 21 22  1  0  0  0  0
 22 26  1  0  0  0  0
 23 22  2  0  0  0  0
 24 18  1  0  0  0  0
 25 19  1  0  0  0  0
M  END
>  <minimizedAffinity>
-4.28787899

$$$$

 OpenBabel03252504563D

 26 27  0  0  1  0  0  0  0  0999 V2000
   37.8300   29.2730   40.8360 N   0  0  0  0  0  0  0  0  0  0  0  0
   36.5920   29.2310   41.5340 C   0  0  0  0  0  0  0  0  0  0  0  0
   36.5820   27.8580   42.1090 C   0  0  0  0  0  0  0  0  0  0  0  0
   37.8840   27.1810   41.7610 C   0  0  0  0  0  0  0  0  0  0  0  0
   38.7660   28.4250   41.4020 C   0  0  2  0  0  0  0  0  0  0  0  0
   35.7860   29.8830   41.7050 H   0  0  0  0  0  0  0  0  0  0  0  0
   35.7820   27.4220   42.7240 H   0  0  0  0  0  0  0  0  0  0  0  0
   37.7190   26.6020   40.8560 H   0  0  0  0  0  0  0  0  0  0  0  0
   38.2910   26.6160   42.5780 H   0  0  0  0  0  0  0  0  0  0  0  0
   39.5960   28.0200   40.8420 H   0  0  0  0  0  0  0  0  0  0  0  0
   39.2700   28.8820   42.7540 C   0  0  0  0  0  0  0  0  0  0  0  0
   40.6530   29.1020   42.6950 F   0  0  0  0  0  0  0  0  0  0  0  0
   38.7290   30.0790   43.1520 F   0  0  0  0  0  0  0  0  0  0  0  0
   38.9830   27.8860   43.6740 F   0  0  0  0  0  0  0  0  0  0  0  0
   37.9560   30.0090   39.6920 C   0  0  0  0  0  0  0  0  0  0  0  0
   36.9720   29.9400   39.1210 H   0  0  0  0  0  0  0  0  0  0  0  0
   38.6800   29.6590   38.9100 H   0  0  0  0  0  0  0  0  0  0  0  0
   37.6220   33.7690   39.8320 C   0  0  0  0  0  0  0  0  0  0  0  0
   37.2590   32.4230   39.5600 C   0  0  0  0  0  0  0  0  0  0  0  0
   38.1740   31.4350   39.8560 C   0  0  0  0  0  0  0  0  0  0  0  0
   39.3530   31.8170   40.3830 N   0  0  0  0  0  0  0  0  0  0  0  0
   39.6920   33.1250   40.6410 C   0  0  0  0  0  0  0  0  0  0  0  0
   38.8150   34.0810   40.3590 N   0  0  0  0  0  0  0  0  0  0  0  0
   36.8520   34.4870   39.5730 H   0  0  0  0  0  0  0  0  0  0  0  0
   36.3120   32.1370   39.1360 H   0  0  0  0  0  0  0  0  0  0  0  0
   40.6750   33.2960   41.0680 H   0  0  0  0  0  0  0  0  0  0  0  0
  1  5  1  0  0  0  0
  1  2  1  0  0  0  0
  2  6  1  0  0  0  0
  2  3  2  0  0  0  0
  3  7  1  0  0  0  0
  4  3  1  0  0  0  0
  4  9  1  0  0  0  0
  5 10  1  6  0  0  0
  5  4  1  0  0  0  0
  5 11  1  0  0  0  0
  8  4  1  0  0  0  0
 11 13  1  0  0  0  0
 11 14  1  0  0  0  0
 12 11  1  0  0  0  0
 15 20  1  0  0  0  0
 15  1  1  0  0  0  0
 16 15  1  0  0  0  0
 17 15  1  0  0  0  0
 18 23  1  0  0  0  0
 19 18  2  0  0  0  0
 19 20  1  0  0  0  0
 20 21  2  0  0  0  0
 21 22  1  0  0  0  0
 22 26  1  0  0  0  0
 23 22  2  0  0  0  0
 24 18  1  0  0  0  0
 25 19  1  0  0  0  0
M  END
>  <minimizedAffinity>
-4.28016329

$$$$

 OpenBabel03252504563D

 26 27  0  0  1  0  0  0  0  0999 V2000
   36.9320   28.4300   41.7120 N   0  0  0  0  0  0  0  0  0  0  0  0
   36.5330   27.6130   42.8060 C   0  0  0  0  0  0  0  0  0  0  0  0
   37.5910   26.5670   42.8420 C   0  0  0  0  0  0  0  0  0  0  0  0
   38.6150   26.8800   41.7800 C   0  0  0  0  0  0  0  0  0  0  0  0
   38.3030   28.3930   41.5200 C   0  0  2  0  0  0  0  0  0  0  0  0
   35.7470   27.5960   43.5030 H   0  0  0  0  0  0  0  0  0  0  0  0
   37.6460   25.7300   43.5520 H   0  0  0  0  0  0  0  0  0  0  0  0
   38.3470   26.3150   40.8920 H   0  0  0  0  0  0  0  0  0  0  0  0
   39.6230   26.7260   42.1150 H   0  0  0  0  0  0  0  0  0  0  0  0
   38.7600   28.6080   40.5660 H   0  0  0  0  0  0  0  0  0  0  0  0
   39.0920   29.0920   42.6050 C   0  0  0  0  0  0  0  0  0  0  0  0
   39.8110   30.1620   42.0530 F   0  0  0  0  0  0  0  0  0  0  0  0
   38.2970   29.6510   43.5730 F   0  0  0  0  0  0  0  0  0  0  0  0
   39.9630   28.1680   43.1600 F   0  0  0  0  0  0  0  0  0  0  0  0
   35.9980   29.0530   40.9350 C   0  0  0  0  0  0  0  0  0  0  0  0
   35.1980   29.4820   41.6250 H   0  0  0  0  0  0  0  0  0  0  0  0
   35.3700   28.4250   40.2490 H   0  0  0  0  0  0  0  0  0  0  0  0
   37.2220   32.4330   39.7760 C   0  0  0  0  0  0  0  0  0  0  0  0
   36.7390   31.4430   40.6720 C   0  0  0  0  0  0  0  0  0  0  0  0
   36.4510   30.1950   40.1610 C   0  0  0  0  0  0  0  0  0  0  0  0
   36.6470   30.0020   38.8440 N   0  0  0  0  0  0  0  0  0  0  0  0
   37.1160   30.9700   37.9860 C   0  0  0  0  0  0  0  0  0  0  0  0
   37.3960   32.1740   38.4720 N   0  0  0  0  0  0  0  0  0  0  0  0
   37.4260   33.3860   40.2500 H   0  0  0  0  0  0  0  0  0  0  0  0
   36.5860   31.6170   41.7230 H   0  0  0  0  0  0  0  0  0  0  0  0
   37.2290   30.6830   36.9460 H   0  0  0  0  0  0  0  0  0  0  0  0
  1  2  1  0  0  0  0
  2  3  2  0  0  0  0
  2  6  1  0  0  0  0
  3  7  1  0  0  0  0
  4  9  1  0  0  0  0
  4  3  1  0  0  0  0
  5 10  1  6  0  0  0
  5  1  1  0  0  0  0
  5  4  1  0  0  0  0
  5 11  1  0  0  0  0
  8  4  1  0  0  0  0
 11 14  1  0  0  0  0
 11 13  1  0  0  0  0
 12 11  1  0  0  0  0
 15 16  1  0  0  0  0
 15  1  1  0  0  0  0
 17 15  1  0  0  0  0
 18 24  1  0  0  0  0
 18 19  1  0  0  0  0
 19 25  1  0  0  0  0
 20 19  2  0  0  0  0
 20 15  1  0  0  0  0
 21 20  1  0  0  0  0
 22 23  1  0  0  0  0
 22 21  2  0  0  0  0
 23 18  2  0  0  0  0
 26 22  1  0  0  0  0
M  END
>  <minimizedAffinity>
-4.27509451

$$$$

 OpenBabel03252504563D

 26 27  0  0  1  0  0  0  0  0999 V2000
   37.4700   29.4550   41.3040 N   0  0  0  0  0  0  0  0  0  0  0  0
   38.6790   28.9190   40.7810 C   0  0  0  0  0  0  0  0  0  0  0  0
   39.5150   28.7360   41.9990 C   0  0  0  0  0  0  0  0  0  0  0  0
   38.6990   29.1230   43.2060 C   0  0  0  0  0  0  0  0  0  0  0  0
   37.2520   29.0470   42.6090 C   0  0  2  0  0  0  0  0  0  0  0  0
   39.0560   28.6600   39.8350 H   0  0  0  0  0  0  0  0  0  0  0  0
   40.5410   28.3420   42.0230 H   0  0  0  0  0  0  0  0  0  0  0  0
   38.9250   30.1600   43.4330 H   0  0  0  0  0  0  0  0  0  0  0  0
   38.8330   28.4500   44.0320 H   0  0  0  0  0  0  0  0  0  0  0  0
   36.6420   29.6100   43.2980 H   0  0  0  0  0  0  0  0  0  0  0  0
   36.9090   27.5790   42.7430 C   0  0  0  0  0  0  0  0  0  0  0  0
   38.0130   26.8790   43.2490 F   0  0  0  0  0  0  0  0  0  0  0  0
   35.8920   27.3440   43.6330 F   0  0  0  0  0  0  0  0  0  0  0  0
   36.5780   27.1030   41.4850 F   0  0  0  0  0  0  0  0  0  0  0  0
   36.7320   30.3420   40.5740 C   0  0  0  0  0  0  0  0  0  0  0  0
   37.4530   31.0590   40.0600 H   0  0  0  0  0  0  0  0  0  0  0  0
   36.0710   31.0640   41.1220 H   0  0  0  0  0  0  0  0  0  0  0  0
   34.0470   28.7570   38.4410 C   0  0  0  0  0  0  0  0  0  0  0  0
   34.7060   29.1940   39.6210 C   0  0  0  0  0  0  0  0  0  0  0  0
   35.9410   29.7920   39.4880 C   0  0  0  0  0  0  0  0  0  0  0  0
   36.4400   29.9180   38.2450 N   0  0  0  0  0  0  0  0  0  0  0  0
   35.7920   29.4890   37.1080 C   0  0  0  0  0  0  0  0  0  0  0  0
   34.6020   28.9140   37.2300 N   0  0  0  0  0  0  0  0  0  0  0  0
   33.0830   28.2990   38.6260 H   0  0  0  0  0  0  0  0  0  0  0  0
   34.2910   29.0830   40.6080 H   0  0  0  0  0  0  0  0  0  0  0  0
   36.3060   29.6520   36.1660 H   0  0  0  0  0  0  0  0  0  0  0  0
  1  5  1  0  0  0  0
  2  1  1  0  0  0  0
  2  3  2  0  0  0  0
  3  7  1  0  0  0  0
  3  4  1  0  0  0  0
  4  8  1  0  0  0  0
  4  9  1  0  0  0  0
  5 11  1  0  0  0  0
  5  4  1  0  0  0  0
  5 10  1  1  0  0  0
  6  2  1  0  0  0  0
 11 12  1  0  0  0  0
 11 13  1  0  0  0  0
 14 11  1  0  0  0  0
 15 17  1  0  0  0  0
 15  1  1  0  0  0  0
 16 15  1  0  0  0  0
 18 24  1  0  0  0  0
 18 19  1  0  0  0  0
 19 25  1  0  0  0  0
 20 19  2  0  0  0  0
 20 15  1  0  0  0  0
 21 20  1  0  0  0  0
 22 23  1  0  0  0  0
 22 21  2  0  0  0  0
 23 18  2  0  0  0  0
 26 22  1  0  0  0  0
M  END
>  <minimizedAffinity>
-4.27173615

$$$$
