
 OpenBabel03242510293D

 29 30  0  0  1  0  0  0  0  0999 V2000
   47.2670   33.2230   41.0710 C   0  0  1  0  0  0  0  0  0  0  0  0
   46.3340   32.4030   40.2160 C   0  0  0  0  0  0  0  0  0  0  0  0
   47.1340   31.9790   39.0000 C   0  0  0  0  0  0  0  0  0  0  0  0
   47.4420   33.2260   38.2050 C   0  0  0  0  0  0  0  0  0  0  0  0
   48.1340   34.2690   38.9930 C   0  0  0  0  0  0  0  0  0  0  0  0
   47.5980   34.5130   40.3590 C   0  0  2  0  0  0  0  0  0  0  0  0
   48.2010   32.6510   41.1980 H   0  0  0  0  0  0  0  0  0  0  0  0
   46.0610   31.4600   40.7400 H   0  0  0  0  0  0  0  0  0  0  0  0
   45.4460   32.9470   39.8690 H   0  0  0  0  0  0  0  0  0  0  0  0
   48.0080   31.3760   39.2610 H   0  0  0  0  0  0  0  0  0  0  0  0
   46.4580   31.3560   38.3530 H   0  0  0  0  0  0  0  0  0  0  0  0
   46.4990   33.5780   37.7690 H   0  0  0  0  0  0  0  0  0  0  0  0
   48.1040   32.9450   37.3520 H   0  0  0  0  0  0  0  0  0  0  0  0
   49.2170   33.9630   39.1040 H   0  0  0  0  0  0  0  0  0  0  0  0
   48.1050   35.2160   38.4150 H   0  0  0  0  0  0  0  0  0  0  0  0
   46.6460   35.0730   40.2280 H   0  0  0  0  0  0  0  0  0  0  0  0
   45.0150   34.5240   43.8450 C   0  0  0  0  0  0  0  0  0  0  0  0
   45.5230   34.2640   42.5790 C   0  0  0  0  0  0  0  0  0  0  0  0
   46.6900   33.5340   42.3910 C   0  0  0  0  0  0  0  0  0  0  0  0
   47.3010   33.0930   43.5200 N   0  0  0  0  0  0  0  0  0  0  0  0
   46.8020   33.3500   44.7540 C   0  0  0  0  0  0  0  0  0  0  0  0
   45.6680   34.0600   44.9210 N   0  0  0  0  0  0  0  0  0  0  0  0
   44.1030   35.0970   43.9420 H   0  0  0  0  0  0  0  0  0  0  0  0
   45.0140   34.6270   41.7100 H   0  0  0  0  0  0  0  0  0  0  0  0
   47.3710   32.9500   45.6040 H   0  0  0  0  0  0  0  0  0  0  0  0
   48.5340   35.3090   41.2010 C   0  0  0  0  0  0  0  0  0  0  0  0
   49.5250   34.5380   41.7620 F   0  0  0  0  0  0  0  0  0  0  0  0
   49.1770   36.2090   40.3390 F   0  0  0  0  0  0  0  0  0  0  0  0
   47.8450   35.9970   42.1830 F   0  0  0  0  0  0  0  0  0  0  0  0
  1  7  1  1  0  0  0
  1 19  1  0  0  0  0
  2  8  1  0  0  0  0
  2  1  1  0  0  0  0
  3 10  1  0  0  0  0
  3  2  1  0  0  0  0
  4  5  1  0  0  0  0
  4  3  1  0  0  0  0
  5 14  1  0  0  0  0
  5  6  1  0  0  0  0
  6 16  1  6  0  0  0
  6  1  1  0  0  0  0
  6 26  1  0  0  0  0
  9  2  1  0  0  0  0
 11  3  1  0  0  0  0
 12  4  1  0  0  0  0
 13  4  1  0  0  0  0
 15  5  1  0  0  0  0
 17 23  1  0  0  0  0
 17 22  1  0  0  0  0
 18 17  2  0  0  0  0
 19 18  1  0  0  0  0
 19 20  2  0  0  0  0
 20 21  1  0  0  0  0
 21 22  2  0  0  0  0
 21 25  1  0  0  0  0
 24 18  1  0  0  0  0
 26 27  1  0  0  0  0
 26 29  1  0  0  0  0
 28 26  1  0  0  0  0
M  END
>  <minimizedAffinity>
-4.65117931

>  <minimizedRMSD>
2.0650847

$$$$
