
 OpenBabel03252506413D

 35 37  0  0  1  0  0  0  0  0999 V2000
   49.6200   33.4890   41.4800 N   0  0  1  0  0  0  0  0  0  0  0  0
   50.7190   33.0640   42.3130 C   0  0  0  0  0  0  0  0  0  0  0  0
   51.2850   31.7290   42.0260 C   0  0  0  0  0  0  0  0  0  0  0  0
   50.2440   30.6570   42.1680 C   0  0  0  0  0  0  0  0  0  0  0  0
   48.8710   31.1610   41.9090 C   0  0  0  0  0  0  0  0  0  0  0  0
   48.9300   32.3310   40.9770 C   0  0  2  0  0  0  0  0  0  0  0  0
   50.4260   33.0870   43.3890 H   0  0  0  0  0  0  0  0  0  0  0  0
   51.5220   33.8440   42.1710 H   0  0  0  0  0  0  0  0  0  0  0  0
   51.9840   31.5300   42.9120 H   0  0  0  0  0  0  0  0  0  0  0  0
   51.9610   31.6360   41.1730 H   0  0  0  0  0  0  0  0  0  0  0  0
   50.2450   30.1280   43.1290 H   0  0  0  0  0  0  0  0  0  0  0  0
   50.5260   29.8700   41.4070 H   0  0  0  0  0  0  0  0  0  0  0  0
   48.3800   31.5080   42.8560 H   0  0  0  0  0  0  0  0  0  0  0  0
   48.2190   30.4100   41.4400 H   0  0  0  0  0  0  0  0  0  0  0  0
   47.8320   32.7000   41.0230 H   0  0  0  0  0  0  0  0  0  0  0  0
   47.3710   34.6490   41.9580 C   0  0  1  0  0  0  0  0  0  0  0  0
   48.4240   35.6490   41.7150 C   0  0  0  0  0  0  0  0  0  0  0  0
   48.7950   34.3330   42.2900 C   0  0  2  0  0  0  0  0  0  0  0  0
   46.9420   34.2030   41.0500 H   0  0  0  0  0  0  0  0  0  0  0  0
   48.4680   36.5000   42.4030 H   0  0  0  0  0  0  0  0  0  0  0  0
   48.7460   35.8980   40.6780 H   0  0  0  0  0  0  0  0  0  0  0  0
   48.9980   34.2220   43.3780 H   0  0  0  0  0  0  0  0  0  0  0  0
   45.5840   36.0160   43.1110 C   0  0  0  0  0  0  0  0  0  0  0  0
   46.4150   34.8700   43.0820 C   0  0  0  0  0  0  0  0  0  0  0  0
   46.3050   33.9550   44.1400 C   0  0  0  0  0  0  0  0  0  0  0  0
   45.4110   34.2190   45.1250 N   0  0  0  0  0  0  0  0  0  0  0  0
   44.6300   35.3280   45.1200 C   0  0  0  0  0  0  0  0  0  0  0  0
   44.7110   36.2390   44.1090 N   0  0  0  0  0  0  0  0  0  0  0  0
   45.6470   36.7390   42.3100 H   0  0  0  0  0  0  0  0  0  0  0  0
   46.9300   33.0830   44.1280 H   0  0  0  0  0  0  0  0  0  0  0  0
   43.9550   35.4210   45.9710 H   0  0  0  0  0  0  0  0  0  0  0  0
   49.1040   32.0220   39.5340 C   0  0  0  0  0  0  0  0  0  0  0  0
   48.3750   30.8840   39.1510 F   0  0  0  0  0  0  0  0  0  0  0  0
   48.5210   33.0220   38.7250 F   0  0  0  0  0  0  0  0  0  0  0  0
   50.4020   31.9660   39.0870 F   0  0  0  0  0  0  0  0  0  0  0  0
  1 18  1  0  0  0  0
  1  2  1  1  0  0  0
  2  7  1  0  0  0  0
  3  4  1  0  0  0  0
  3  2  1  0  0  0  0
  3  9  1  0  0  0  0
  4 11  1  0  0  0  0
  5  4  1  0  0  0  0
  5 13  1  0  0  0  0
  6 15  1  1  0  0  0
  6  1  1  0  0  0  0
  6  5  1  0  0  0  0
  8  2  1  0  0  0  0
 10  3  1  0  0  0  0
 12  4  1  0  0  0  0
 14  5  1  0  0  0  0
 16 19  1  6  0  0  0
 16 18  1  0  0  0  0
 16 24  1  0  0  0  0
 17 16  1  0  0  0  0
 17 18  1  0  0  0  0
 17 20  1  0  0  0  0
 18 22  1  1  0  0  0
 21 17  1  0  0  0  0
 23 28  1  0  0  0  0
 24 23  2  0  0  0  0
 24 25  1  0  0  0  0
 25 26  2  0  0  0  0
 27 26  1  0  0  0  0
 27 31  1  0  0  0  0
 28 27  2  0  0  0  0
 29 23  1  0  0  0  0
 30 25  1  0  0  0  0
 32  6  1  0  0  0  0
 33 32  1  0  0  0  0
 34 32  1  0  0  0  0
 35 32  1  0  0  0  0
M  END
>  <minimizedAffinity>
-4.77696943

>  <minimizedRMSD>
0.657747507

$$$$
