
 OpenBabel03252506033D

 23 24  0  0  0  0  0  0  0  0999 V2000
   40.4040   29.8110   42.5560 Cl  0  0  0  0  0  0  0  0  0  0  0  0
   39.4770   28.3710   42.2170 C   0  0  0  0  0  0  0  0  0  0  0  0
   38.4010   28.4130   41.3580 C   0  0  0  0  0  0  0  0  0  0  0  0
   37.7390   27.2310   41.1640 C   0  0  0  0  0  0  0  0  0  0  0  0
   38.0790   26.0360   41.7590 C   0  0  0  0  0  0  0  0  0  0  0  0
   39.1560   26.0250   42.6090 C   0  0  0  0  0  0  0  0  0  0  0  0
   39.5520   24.4850   43.3380 Cl  0  0  0  0  0  0  0  0  0  0  0  0
   39.8560   27.1820   42.8410 C   0  0  0  0  0  0  0  0  0  0  0  0
   36.8860   27.2520   40.4860 H   0  0  0  0  0  0  0  0  0  0  0  0
   40.6920   27.1350   43.5120 H   0  0  0  0  0  0  0  0  0  0  0  0
   36.5830   31.5140   40.6730 C   0  0  0  0  0  0  0  0  0  0  0  0
   37.1850   31.9760   39.4990 C   0  0  0  0  0  0  0  0  0  0  0  0
   38.2400   31.2120   38.9230 C   0  0  0  0  0  0  0  0  0  0  0  0
   38.5750   30.0790   39.5780 N   0  0  0  0  0  0  0  0  0  0  0  0
   37.9960   29.6470   40.6980 C   0  0  0  0  0  0  0  0  0  0  0  0
   36.9820   30.3700   41.2610 N   0  0  0  0  0  0  0  0  0  0  0  0
   35.7920   32.1390   41.0540 H   0  0  0  0  0  0  0  0  0  0  0  0
   36.8950   32.8860   38.9960 H   0  0  0  0  0  0  0  0  0  0  0  0
   38.7540   31.5040   38.0180 H   0  0  0  0  0  0  0  0  0  0  0  0
   37.2900   24.8030   41.4780 C   0  0  0  0  0  0  0  0  0  0  0  0
   36.3820   25.0760   40.4530 F   0  0  0  0  0  0  0  0  0  0  0  0
   38.0960   23.7450   41.1030 F   0  0  0  0  0  0  0  0  0  0  0  0
   36.5440   24.4150   42.5850 F   0  0  0  0  0  0  0  0  0  0  0  0
  2  1  1  0  0  0  0
  2  8  1  0  0  0  0
  3  2  2  0  0  0  0
  4  3  1  0  0  0  0
  4  5  2  0  0  0  0
  5  6  1  0  0  0  0
  6  8  2  0  0  0  0
  6  7  1  0  0  0  0
  8 10  1  0  0  0  0
  9  4  1  0  0  0  0
 11 17  1  0  0  0  0
 11 16  1  0  0  0  0
 12 11  2  0  0  0  0
 13 12  1  0  0  0  0
 13 14  2  0  0  0  0
 14 15  1  0  0  0  0
 15 16  2  0  0  0  0
 15  3  1  0  0  0  0
 18 12  1  0  0  0  0
 19 13  1  0  0  0  0
 20  5  1  0  0  0  0
 20 23  1  0  0  0  0
 21 20  1  0  0  0  0
 22 20  1  0  0  0  0
M  END
>  <minimizedAffinity>
-4.81745148

$$$$

 OpenBabel03252506033D

 23 24  0  0  0  0  0  0  0  0999 V2000
   36.9210   31.8230   39.0960 Cl  0  0  0  0  0  0  0  0  0  0  0  0
   36.9590   30.3090   39.9660 C   0  0  0  0  0  0  0  0  0  0  0  0
   36.5070   29.1490   39.3790 C   0  0  0  0  0  0  0  0  0  0  0  0
   36.5760   28.0190   40.1470 C   0  0  0  0  0  0  0  0  0  0  0  0
   37.0590   27.9770   41.4360 C   0  0  0  0  0  0  0  0  0  0  0  0
   37.5030   29.1490   41.9950 C   0  0  0  0  0  0  0  0  0  0  0  0
   38.1110   29.0460   43.6320 Cl  0  0  0  0  0  0  0  0  0  0  0  0
   37.4560   30.3130   41.2690 C   0  0  0  0  0  0  0  0  0  0  0  0
   36.2210   27.0940   39.6920 H   0  0  0  0  0  0  0  0  0  0  0  0
   37.8120   31.2090   41.7390 H   0  0  0  0  0  0  0  0  0  0  0  0
   34.1300   28.9460   36.6030 C   0  0  0  0  0  0  0  0  0  0  0  0
   34.9490   29.0850   35.4810 C   0  0  0  0  0  0  0  0  0  0  0  0
   36.3500   29.2540   35.6700 C   0  0  0  0  0  0  0  0  0  0  0  0
   36.7760   29.2650   36.9520 N   0  0  0  0  0  0  0  0  0  0  0  0
   35.9870   29.1320   38.0180 C   0  0  0  0  0  0  0  0  0  0  0  0
   34.6410   28.9690   37.8500 N   0  0  0  0  0  0  0  0  0  0  0  0
   33.0810   28.8210   36.3880 H   0  0  0  0  0  0  0  0  0  0  0  0
   34.5810   29.0720   34.4650 H   0  0  0  0  0  0  0  0  0  0  0  0
   37.0470   29.3690   34.8510 H   0  0  0  0  0  0  0  0  0  0  0  0
   37.0910   26.6890   42.1870 C   0  0  0  0  0  0  0  0  0  0  0  0
   36.6250   25.6720   41.3520 F   0  0  0  0  0  0  0  0  0  0  0  0
   38.3650   26.3740   42.6230 F   0  0  0  0  0  0  0  0  0  0  0  0
   36.2470   26.7250   43.2900 F   0  0  0  0  0  0  0  0  0  0  0  0
  1  2  1  0  0  0  0
  2  8  1  0  0  0  0
  3  2  2  0  0  0  0
  3  4  1  0  0  0  0
  4  5  2  0  0  0  0
  5  6  1  0  0  0  0
  5 20  1  0  0  0  0
  6  7  1  0  0  0  0
  8 10  1  0  0  0  0
  8  6  2  0  0  0  0
  9  4  1  0  0  0  0
 11 16  1  0  0  0  0
 12 13  1  0  0  0  0
 12 11  2  0  0  0  0
 13 14  2  0  0  0  0
 14 15  1  0  0  0  0
 15  3  1  0  0  0  0
 16 15  2  0  0  0  0
 17 11  1  0  0  0  0
 18 12  1  0  0  0  0
 19 13  1  0  0  0  0
 20 22  1  0  0  0  0
 20 23  1  0  0  0  0
 21 20  1  0  0  0  0
M  END
>  <minimizedAffinity>
-4.75808859

$$$$

 OpenBabel03252506033D

 23 24  0  0  0  0  0  0  0  0999 V2000
   37.4080   29.8060   37.4460 Cl  0  0  0  0  0  0  0  0  0  0  0  0
   37.4730   29.0410   39.0150 C   0  0  0  0  0  0  0  0  0  0  0  0
   37.8710   29.7500   40.1270 C   0  0  0  0  0  0  0  0  0  0  0  0
   37.8900   29.0570   41.3060 C   0  0  0  0  0  0  0  0  0  0  0  0
   37.5440   27.7310   41.4410 C   0  0  0  0  0  0  0  0  0  0  0  0
   37.1520   27.0510   40.3160 C   0  0  0  0  0  0  0  0  0  0  0  0
   36.7180   25.3710   40.5380 Cl  0  0  0  0  0  0  0  0  0  0  0  0
   37.1140   27.6960   39.1060 C   0  0  0  0  0  0  0  0  0  0  0  0
   38.2030   29.6080   42.1930 H   0  0  0  0  0  0  0  0  0  0  0  0
   36.8020   27.1320   38.2480 H   0  0  0  0  0  0  0  0  0  0  0  0
   39.9570   32.7510   39.9520 C   0  0  0  0  0  0  0  0  0  0  0  0
   39.0160   33.7820   39.8980 C   0  0  0  0  0  0  0  0  0  0  0  0
   37.6320   33.4500   39.9220 C   0  0  0  0  0  0  0  0  0  0  0  0
   37.3410   32.1330   39.9950 N   0  0  0  0  0  0  0  0  0  0  0  0
   38.2460   31.1550   40.0450 C   0  0  0  0  0  0  0  0  0  0  0  0
   39.5780   31.4610   40.0230 N   0  0  0  0  0  0  0  0  0  0  0  0
   40.9850   33.0730   39.9310 H   0  0  0  0  0  0  0  0  0  0  0  0
   39.2770   34.8290   39.8400 H   0  0  0  0  0  0  0  0  0  0  0  0
   36.8450   34.1910   39.8830 H   0  0  0  0  0  0  0  0  0  0  0  0
   37.6010   27.0700   42.7770 C   0  0  0  0  0  0  0  0  0  0  0  0
   38.2200   27.9360   43.6800 F   0  0  0  0  0  0  0  0  0  0  0  0
   36.3430   26.7430   43.2470 F   0  0  0  0  0  0  0  0  0  0  0  0
   38.3680   25.9120   42.7370 F   0  0  0  0  0  0  0  0  0  0  0  0
  1  2  1  0  0  0  0
  2  8  2  0  0  0  0
  2  3  1  0  0  0  0
  3  4  2  0  0  0  0
  4  5  1  0  0  0  0
  4  9  1  0  0  0  0
  5 20  1  0  0  0  0
  6  7  1  0  0  0  0
  6  5  2  0  0  0  0
  8  6  1  0  0  0  0
 10  8  1  0  0  0  0
 11 16  1  0  0  0  0
 12 13  1  0  0  0  0
 12 11  2  0  0  0  0
 13 14  2  0  0  0  0
 14 15  1  0  0  0  0
 15  3  1  0  0  0  0
 16 15  2  0  0  0  0
 17 11  1  0  0  0  0
 18 12  1  0  0  0  0
 19 13  1  0  0  0  0
 20 22  1  0  0  0  0
 20 21  1  0  0  0  0
 23 20  1  0  0  0  0
M  END
>  <minimizedAffinity>
-4.6712594

$$$$

 OpenBabel03252506033D

 23 24  0  0  0  0  0  0  0  0999 V2000
   36.5320   30.2600   41.4660 Cl  0  0  0  0  0  0  0  0  0  0  0  0
   36.3850   30.0090   39.7440 C   0  0  0  0  0  0  0  0  0  0  0  0
   37.0520   30.8230   38.8560 C   0  0  0  0  0  0  0  0  0  0  0  0
   36.8670   30.5440   37.5290 C   0  0  0  0  0  0  0  0  0  0  0  0
   36.0750   29.5260   37.0460 C   0  0  0  0  0  0  0  0  0  0  0  0
   35.4230   28.7320   37.9550 C   0  0  0  0  0  0  0  0  0  0  0  0
   34.4320   27.4500   37.2950 Cl  0  0  0  0  0  0  0  0  0  0  0  0
   35.5720   28.9660   39.2990 C   0  0  0  0  0  0  0  0  0  0  0  0
   37.3900   31.1810   36.8170 H   0  0  0  0  0  0  0  0  0  0  0  0
   35.0470   28.3250   39.9800 H   0  0  0  0  0  0  0  0  0  0  0  0
   38.0870   34.1610   39.9400 C   0  0  0  0  0  0  0  0  0  0  0  0
   39.4590   34.0080   40.1550 C   0  0  0  0  0  0  0  0  0  0  0  0
   40.0510   32.7330   39.9250 C   0  0  0  0  0  0  0  0  0  0  0  0
   39.2140   31.7580   39.5090 N   0  0  0  0  0  0  0  0  0  0  0  0
   37.9050   31.9130   39.3080 C   0  0  0  0  0  0  0  0  0  0  0  0
   37.3250   33.1310   39.5250 N   0  0  0  0  0  0  0  0  0  0  0  0
   37.7050   35.1500   40.1320 H   0  0  0  0  0  0  0  0  0  0  0  0
   40.1070   34.8060   40.4870 H   0  0  0  0  0  0  0  0  0  0  0  0
   41.1050   32.5370   40.0700 H   0  0  0  0  0  0  0  0  0  0  0  0
   35.9410   29.3080   35.5770 C   0  0  0  0  0  0  0  0  0  0  0  0
   34.5850   29.2900   35.2480 F   0  0  0  0  0  0  0  0  0  0  0  0
   36.5750   30.2950   34.8460 F   0  0  0  0  0  0  0  0  0  0  0  0
   36.4650   28.0780   35.1970 F   0  0  0  0  0  0  0  0  0  0  0  0
  2  1  1  0  0  0  0
  3 15  1  0  0  0  0
  3  2  2  0  0  0  0
  4  3  1  0  0  0  0
  5  4  2  0  0  0  0
  5  6  1  0  0  0  0
  6  8  2  0  0  0  0
  7  6  1  0  0  0  0
  8  2  1  0  0  0  0
  8 10  1  0  0  0  0
  9  4  1  0  0  0  0
 11 17  1  0  0  0  0
 11 12  1  0  0  0  0
 12 18  1  0  0  0  0
 13 19  1  0  0  0  0
 13 12  2  0  0  0  0
 14 13  1  0  0  0  0
 15 14  2  0  0  0  0
 15 16  1  0  0  0  0
 16 11  2  0  0  0  0
 20  5  1  0  0  0  0
 21 20  1  0  0  0  0
 22 20  1  0  0  0  0
 23 20  1  0  0  0  0
M  END
>  <minimizedAffinity>
-4.42394495

$$$$

 OpenBabel03252506033D

 23 24  0  0  0  0  0  0  0  0999 V2000
   36.1050   28.7100   37.3260 Cl  0  0  0  0  0  0  0  0  0  0  0  0
   36.5230   27.7250   38.7060 C   0  0  0  0  0  0  0  0  0  0  0  0
   37.1600   28.2750   39.7960 C   0  0  0  0  0  0  0  0  0  0  0  0
   37.4470   27.4160   40.8220 C   0  0  0  0  0  0  0  0  0  0  0  0
   37.1420   26.0730   40.8280 C   0  0  0  0  0  0  0  0  0  0  0  0
   36.5070   25.5530   39.7280 C   0  0  0  0  0  0  0  0  0  0  0  0
   36.1370   23.8450   39.7830 Cl  0  0  0  0  0  0  0  0  0  0  0  0
   36.1960   26.3690   38.6690 C   0  0  0  0  0  0  0  0  0  0  0  0
   37.9510   27.8410   41.6900 H   0  0  0  0  0  0  0  0  0  0  0  0
   35.6990   25.9270   37.8270 H   0  0  0  0  0  0  0  0  0  0  0  0
   36.8840   31.8640   40.4550 C   0  0  0  0  0  0  0  0  0  0  0  0
   38.0930   32.3650   39.9670 C   0  0  0  0  0  0  0  0  0  0  0  0
   39.0320   31.4570   39.3980 C   0  0  0  0  0  0  0  0  0  0  0  0
   38.6620   30.1580   39.3780 N   0  0  0  0  0  0  0  0  0  0  0  0
   37.5050   29.6890   39.8470 C   0  0  0  0  0  0  0  0  0  0  0  0
   36.5960   30.5490   40.3960 N   0  0  0  0  0  0  0  0  0  0  0  0
   36.2210   32.6040   40.8720 H   0  0  0  0  0  0  0  0  0  0  0  0
   38.3640   33.4100   39.9950 H   0  0  0  0  0  0  0  0  0  0  0  0
   39.9880   31.7690   39.0000 H   0  0  0  0  0  0  0  0  0  0  0  0
   37.5000   25.2250   42.0000 C   0  0  0  0  0  0  0  0  0  0  0  0
   38.1590   26.0170   42.9420 F   0  0  0  0  0  0  0  0  0  0  0  0
   36.3850   24.6530   42.5850 F   0  0  0  0  0  0  0  0  0  0  0  0
   38.3770   24.2090   41.6420 F   0  0  0  0  0  0  0  0  0  0  0  0
  1  2  1  0  0  0  0
  2  3  1  0  0  0  0
  3 15  1  0  0  0  0
  3  4  2  0  0  0  0
  4  5  1  0  0  0  0
  4  9  1  0  0  0  0
  5 20  1  0  0  0  0
  6  7  1  0  0  0  0
  6  5  2  0  0  0  0
  8  2  2  0  0  0  0
  8  6  1  0  0  0  0
 10  8  1  0  0  0  0
 11 17  1  0  0  0  0
 12 18  1  0  0  0  0
 12 11  2  0  0  0  0
 13 12  1  0  0  0  0
 14 13  2  0  0  0  0
 14 15  1  0  0  0  0
 15 16  2  0  0  0  0
 16 11  1  0  0  0  0
 19 13  1  0  0  0  0
 20 22  1  0  0  0  0
 20 21  1  0  0  0  0
 23 20  1  0  0  0  0
M  END
>  <minimizedAffinity>
-4.421772

$$$$

 OpenBabel03252506033D

 23 24  0  0  0  0  0  0  0  0999 V2000
   37.0460   30.3510   37.7460 Cl  0  0  0  0  0  0  0  0  0  0  0  0
   37.0190   29.3390   39.1690 C   0  0  0  0  0  0  0  0  0  0  0  0
   36.4330   28.0930   39.1350 C   0  0  0  0  0  0  0  0  0  0  0  0
   36.4630   27.3820   40.3040 C   0  0  0  0  0  0  0  0  0  0  0  0
   37.0290   27.8280   41.4780 C   0  0  0  0  0  0  0  0  0  0  0  0
   37.6060   29.0730   41.4810 C   0  0  0  0  0  0  0  0  0  0  0  0
   38.3150   29.5950   42.9920 Cl  0  0  0  0  0  0  0  0  0  0  0  0
   37.6050   29.8300   40.3360 C   0  0  0  0  0  0  0  0  0  0  0  0
   36.0030   26.3950   40.2890 H   0  0  0  0  0  0  0  0  0  0  0  0
   38.0650   30.7980   40.3770 H   0  0  0  0  0  0  0  0  0  0  0  0
   33.9190   27.4130   36.5640 C   0  0  0  0  0  0  0  0  0  0  0  0
   34.6100   26.6050   35.6590 C   0  0  0  0  0  0  0  0  0  0  0  0
   35.9700   26.2800   35.9280 C   0  0  0  0  0  0  0  0  0  0  0  0
   36.4880   26.7960   37.0640 N   0  0  0  0  0  0  0  0  0  0  0  0
   35.8210   27.5680   37.9220 C   0  0  0  0  0  0  0  0  0  0  0  0
   34.5150   27.8870   37.6760 N   0  0  0  0  0  0  0  0  0  0  0  0
   32.8950   27.6190   36.3000 H   0  0  0  0  0  0  0  0  0  0  0  0
   34.1710   26.2050   34.7570 H   0  0  0  0  0  0  0  0  0  0  0  0
   36.5700   25.6610   35.2750 H   0  0  0  0  0  0  0  0  0  0  0  0
   37.0070   26.9710   42.6980 C   0  0  0  0  0  0  0  0  0  0  0  0
   38.3060   26.8700   43.1990 F   0  0  0  0  0  0  0  0  0  0  0  0
   36.1780   27.4860   43.6780 F   0  0  0  0  0  0  0  0  0  0  0  0
   36.5860   25.6800   42.4030 F   0  0  0  0  0  0  0  0  0  0  0  0
  1  2  1  0  0  0  0
  2  8  1  0  0  0  0
  3  2  2  0  0  0  0
  3  4  1  0  0  0  0
  4  5  2  0  0  0  0
  5  6  1  0  0  0  0
  5 20  1  0  0  0  0
  6  7  1  0  0  0  0
  8 10  1  0  0  0  0
  8  6  2  0  0  0  0
  9  4  1  0  0  0  0
 11 16  1  0  0  0  0
 12 13  1  0  0  0  0
 12 11  2  0  0  0  0
 13 14  2  0  0  0  0
 14 15  1  0  0  0  0
 15  3  1  0  0  0  0
 16 15  2  0  0  0  0
 17 11  1  0  0  0  0
 18 12  1  0  0  0  0
 19 13  1  0  0  0  0
 20 21  1  0  0  0  0
 20 22  1  0  0  0  0
 23 20  1  0  0  0  0
M  END
>  <minimizedAffinity>
-4.40114069

$$$$

 OpenBabel03252506033D

 23 24  0  0  0  0  0  0  0  0999 V2000
   37.7040   27.1740   37.1100 Cl  0  0  0  0  0  0  0  0  0  0  0  0
   37.6260   27.2590   38.8530 C   0  0  0  0  0  0  0  0  0  0  0  0
   37.9300   28.4280   39.5140 C   0  0  0  0  0  0  0  0  0  0  0  0
   37.8420   28.3870   40.8790 C   0  0  0  0  0  0  0  0  0  0  0  0
   37.4750   27.2770   41.6070 C   0  0  0  0  0  0  0  0  0  0  0  0
   37.1780   26.1270   40.9210 C   0  0  0  0  0  0  0  0  0  0  0  0
   36.7140   24.7450   41.8880 Cl  0  0  0  0  0  0  0  0  0  0  0  0
   37.2500   26.1110   39.5500 C   0  0  0  0  0  0  0  0  0  0  0  0
   38.0800   29.3060   41.4130 H   0  0  0  0  0  0  0  0  0  0  0  0
   37.0100   25.1940   39.0480 H   0  0  0  0  0  0  0  0  0  0  0  0
   37.6590   31.5680   37.6540 C   0  0  0  0  0  0  0  0  0  0  0  0
   38.9930   31.9160   37.4340 C   0  0  0  0  0  0  0  0  0  0  0  0
   40.0170   31.0600   37.9320 C   0  0  0  0  0  0  0  0  0  0  0  0
   39.5980   29.9580   38.5910 N   0  0  0  0  0  0  0  0  0  0  0  0
   38.3220   29.6340   38.7970 C   0  0  0  0  0  0  0  0  0  0  0  0
   37.3290   30.4460   38.3250 N   0  0  0  0  0  0  0  0  0  0  0  0
   36.9360   32.2580   37.2510 H   0  0  0  0  0  0  0  0  0  0  0  0
   39.3010   32.8040   36.9020 H   0  0  0  0  0  0  0  0  0  0  0  0
   41.0720   31.2630   37.8010 H   0  0  0  0  0  0  0  0  0  0  0  0
   37.4110   27.3400   43.0960 C   0  0  0  0  0  0  0  0  0  0  0  0
   37.6200   28.6610   43.4980 F   0  0  0  0  0  0  0  0  0  0  0  0
   36.1920   26.9030   43.5810 F   0  0  0  0  0  0  0  0  0  0  0  0
   38.4140   26.5770   43.6800 F   0  0  0  0  0  0  0  0  0  0  0  0
  1  2  1  0  0  0  0
  2  3  2  0  0  0  0
  2  8  1  0  0  0  0
  3  4  1  0  0  0  0
  4  9  1  0  0  0  0
  4  5  2  0  0  0  0
  5 20  1  0  0  0  0
  6  5  1  0  0  0  0
  6  7  1  0  0  0  0
  8  6  2  0  0  0  0
 10  8  1  0  0  0  0
 11 16  1  0  0  0  0
 12 11  2  0  0  0  0
 12 13  1  0  0  0  0
 13 14  2  0  0  0  0
 14 15  1  0  0  0  0
 15  3  1  0  0  0  0
 16 15  2  0  0  0  0
 17 11  1  0  0  0  0
 18 12  1  0  0  0  0
 19 13  1  0  0  0  0
 20 21  1  0  0  0  0
 20 22  1  0  0  0  0
 20 23  1  0  0  0  0
M  END
>  <minimizedAffinity>
-4.38635445

$$$$

 OpenBabel03252506033D

 23 24  0  0  0  0  0  0  0  0999 V2000
   36.8590   24.2510   40.4460 Cl  0  0  0  0  0  0  0  0  0  0  0  0
   36.4340   25.6980   39.5660 C   0  0  0  0  0  0  0  0  0  0  0  0
   36.7540   26.9420   40.0630 C   0  0  0  0  0  0  0  0  0  0  0  0
   36.3740   28.0110   39.2980 C   0  0  0  0  0  0  0  0  0  0  0  0
   35.7100   27.9170   38.0950 C   0  0  0  0  0  0  0  0  0  0  0  0
   35.4050   26.6640   37.6250 C   0  0  0  0  0  0  0  0  0  0  0  0
   34.5650   26.5940   36.0930 Cl  0  0  0  0  0  0  0  0  0  0  0  0
   35.7620   25.5560   38.3520 C   0  0  0  0  0  0  0  0  0  0  0  0
   36.6220   29.0010   39.6800 H   0  0  0  0  0  0  0  0  0  0  0  0
   35.5070   24.5930   37.9540 H   0  0  0  0  0  0  0  0  0  0  0  0
   39.4920   27.0630   42.4880 C   0  0  0  0  0  0  0  0  0  0  0  0
   38.8390   27.3890   43.6790 C   0  0  0  0  0  0  0  0  0  0  0  0
   37.4270   27.5740   43.6590 C   0  0  0  0  0  0  0  0  0  0  0  0
   36.8270   27.4150   42.4600 N   0  0  0  0  0  0  0  0  0  0  0  0
   37.4580   27.1040   41.3280 C   0  0  0  0  0  0  0  0  0  0  0  0
   38.8130   26.9230   41.3330 N   0  0  0  0  0  0  0  0  0  0  0  0
   40.5590   26.9360   42.5750 H   0  0  0  0  0  0  0  0  0  0  0  0
   39.3450   27.5100   44.6260 H   0  0  0  0  0  0  0  0  0  0  0  0
   36.8520   27.8280   44.5390 H   0  0  0  0  0  0  0  0  0  0  0  0
   35.3410   29.1480   37.3390 C   0  0  0  0  0  0  0  0  0  0  0  0
   35.8470   30.2580   38.0180 F   0  0  0  0  0  0  0  0  0  0  0  0
   35.8390   29.1340   36.0500 F   0  0  0  0  0  0  0  0  0  0  0  0
   33.9620   29.3080   37.2740 F   0  0  0  0  0  0  0  0  0  0  0  0
  2  3  1  0  0  0  0
  2  1  1  0  0  0  0
  3 15  1  0  0  0  0
  4  9  1  0  0  0  0
  4  3  2  0  0  0  0
  5  4  1  0  0  0  0
  6  5  2  0  0  0  0
  6  8  1  0  0  0  0
  7  6  1  0  0  0  0
  8  2  2  0  0  0  0
 10  8  1  0  0  0  0
 11 17  1  0  0  0  0
 11 12  1  0  0  0  0
 12 18  1  0  0  0  0
 13 12  2  0  0  0  0
 13 19  1  0  0  0  0
 14 13  1  0  0  0  0
 15 16  1  0  0  0  0
 15 14  2  0  0  0  0
 16 11  2  0  0  0  0
 20 21  1  0  0  0  0
 20  5  1  0  0  0  0
 22 20  1  0  0  0  0
 23 20  1  0  0  0  0
M  END
>  <minimizedAffinity>
-4.30594492

$$$$

 OpenBabel03252506033D

 23 24  0  0  0  0  0  0  0  0999 V2000
   37.6970   28.3710   43.6750 Cl  0  0  0  0  0  0  0  0  0  0  0  0
   37.2400   28.0150   42.0270 C   0  0  0  0  0  0  0  0  0  0  0  0
   37.9550   27.1070   41.2800 C   0  0  0  0  0  0  0  0  0  0  0  0
   37.5160   26.9030   40.0000 C   0  0  0  0  0  0  0  0  0  0  0  0
   36.4310   27.5350   39.4340 C   0  0  0  0  0  0  0  0  0  0  0  0
   35.7380   28.4350   40.2040 C   0  0  0  0  0  0  0  0  0  0  0  0
   34.3660   29.2100   39.4440 Cl  0  0  0  0  0  0  0  0  0  0  0  0
   36.1340   28.6790   41.4950 C   0  0  0  0  0  0  0  0  0  0  0  0
   38.0740   26.1860   39.3980 H   0  0  0  0  0  0  0  0  0  0  0  0
   35.5680   29.3890   42.0660 H   0  0  0  0  0  0  0  0  0  0  0  0
   39.9280   24.6140   43.0920 C   0  0  0  0  0  0  0  0  0  0  0  0
   41.2410   25.0450   42.8850 C   0  0  0  0  0  0  0  0  0  0  0  0
   41.4630   26.2170   42.1070 C   0  0  0  0  0  0  0  0  0  0  0  0
   40.3580   26.8250   41.6240 N   0  0  0  0  0  0  0  0  0  0  0  0
   39.1090   26.4060   41.8250 C   0  0  0  0  0  0  0  0  0  0  0  0
   38.8810   25.2830   42.5700 N   0  0  0  0  0  0  0  0  0  0  0  0
   39.8310   23.7220   43.6890 H   0  0  0  0  0  0  0  0  0  0  0  0
   42.1070   24.5390   43.2850 H   0  0  0  0  0  0  0  0  0  0  0  0
   42.4500   26.6120   41.9030 H   0  0  0  0  0  0  0  0  0  0  0  0
   36.0360   27.2400   38.0270 C   0  0  0  0  0  0  0  0  0  0  0  0
   36.1040   28.4210   37.2850 F   0  0  0  0  0  0  0  0  0  0  0  0
   36.8560   26.2890   37.4470 F   0  0  0  0  0  0  0  0  0  0  0  0
   34.7230   26.7900   37.9520 F   0  0  0  0  0  0  0  0  0  0  0  0
  2  1  1  0  0  0  0
  3 15  1  0  0  0  0
  3  2  2  0  0  0  0
  4  3  1  0  0  0  0
  5  4  2  0  0  0  0
  5  6  1  0  0  0  0
  6  8  2  0  0  0  0
  7  6  1  0  0  0  0
  8  2  1  0  0  0  0
  8 10  1  0  0  0  0
  9  4  1  0  0  0  0
 11 17  1  0  0  0  0
 12 11  1  0  0  0  0
 12 18  1  0  0  0  0
 13 12  2  0  0  0  0
 14 15  2  0  0  0  0
 14 13  1  0  0  0  0
 15 16  1  0  0  0  0
 16 11  2  0  0  0  0
 19 13  1  0  0  0  0
 20  5  1  0  0  0  0
 21 20  1  0  0  0  0
 22 20  1  0  0  0  0
 23 20  1  0  0  0  0
M  END
>  <minimizedAffinity>
-4.27597046

$$$$
