
 OpenBabel03252502433D

 26 27  0  0  1  0  0  0  0  0999 V2000
   46.7470   32.7190   42.7430 C   0  0  0  0  0  0  0  0  0  0  0  0
   46.5890   31.6860   42.3700 H   0  0  0  0  0  0  0  0  0  0  0  0
   45.7820   33.2170   42.9750 H   0  0  0  0  0  0  0  0  0  0  0  0
   47.4580   33.5640   41.7310 C   0  0  1  0  0  0  0  0  0  0  0  0
   46.6350   34.5500   40.9630 C   0  0  0  0  0  0  0  0  0  0  0  0
   47.5680   35.0040   42.0130 C   0  0  2  0  0  0  0  0  0  0  0  0
   48.2550   32.9770   41.2040 H   0  0  0  0  0  0  0  0  0  0  0  0
   46.9210   34.6140   39.8910 H   0  0  0  0  0  0  0  0  0  0  0  0
   45.5310   34.5900   41.0420 H   0  0  0  0  0  0  0  0  0  0  0  0
   47.4210   35.5490   42.9150 H   0  0  0  0  0  0  0  0  0  0  0  0
   48.8780   35.5690   41.4290 C   0  0  0  0  0  0  0  0  0  0  0  0
   49.8940   34.6430   41.6850 F   0  0  0  0  0  0  0  0  0  0  0  0
   48.8270   35.6690   40.0530 F   0  0  0  0  0  0  0  0  0  0  0  0
   49.1770   36.8110   41.9020 F   0  0  0  0  0  0  0  0  0  0  0  0
   47.6850   32.6080   43.9200 C   0  0  0  0  0  0  0  0  0  0  0  0
   48.1200   33.6480   44.0660 H   0  0  0  0  0  0  0  0  0  0  0  0
   48.4140   31.8160   43.8540 H   0  0  0  0  0  0  0  0  0  0  0  0
   45.2840   33.6760   46.5860 C   0  0  0  0  0  0  0  0  0  0  0  0
   45.9770   33.6390   45.3630 C   0  0  0  0  0  0  0  0  0  0  0  0
   46.8880   32.6370   45.1830 C   0  0  0  0  0  0  0  0  0  0  0  0
   47.0870   31.7210   46.1720 N   0  0  0  0  0  0  0  0  0  0  0  0
   46.4240   31.7690   47.3160 C   0  0  0  0  0  0  0  0  0  0  0  0
   45.5230   32.7380   47.5370 N   0  0  0  0  0  0  0  0  0  0  0  0
   44.5430   34.3980   46.8760 H   0  0  0  0  0  0  0  0  0  0  0  0
   45.6390   34.4490   44.7450 H   0  0  0  0  0  0  0  0  0  0  0  0
   46.6830   30.9760   48.0170 H   0  0  0  0  0  0  0  0  0  0  0  0
  1  3  1  0  0  0  0
  1 15  1  0  0  0  0
  2  1  1  0  0  0  0
  4  7  1  6  0  0  0
  4  6  1  0  0  0  0
  4  1  1  0  0  0  0
  5  9  1  0  0  0  0
  5  4  1  0  0  0  0
  5  6  1  0  0  0  0
  6 10  1  1  0  0  0
  8  5  1  0  0  0  0
 11 12  1  0  0  0  0
 11 14  1  0  0  0  0
 11  6  1  0  0  0  0
 13 11  1  0  0  0  0
 15 16  1  0  0  0  0
 15 20  1  0  0  0  0
 17 15  1  0  0  0  0
 18 24  1  0  0  0  0
 18 23  1  0  0  0  0
 19 18  2  0  0  0  0
 20 19  1  0  0  0  0
 20 21  2  0  0  0  0
 21 22  1  0  0  0  0
 22 23  2  0  0  0  0
 22 26  1  0  0  0  0
 25 19  1  0  0  0  0
M  END
>  <minimizedAffinity>
-4.37062979

>  <minimizedRMSD>
2.8440764

$$$$
