
 OpenBabel03252508233D

 43 45  0  0  0  0  0  0  0  0999 V2000
   45.0060   34.1180   40.7900 C   0  0  0  0  0  0  0  0  0  0  0  0
   46.0850   34.4170   41.5930 C   0  0  0  0  0  0  0  0  0  0  0  0
   46.0460   35.2880   42.6550 C   0  0  0  0  0  0  0  0  0  0  0  0
   44.8050   35.8880   42.9020 C   0  0  0  0  0  0  0  0  0  0  0  0
   43.7050   35.6240   42.1370 C   0  0  0  0  0  0  0  0  0  0  0  0
   43.7910   34.7530   41.0910 C   0  0  0  0  0  0  0  0  0  0  0  0
   47.0680   33.9900   41.4760 H   0  0  0  0  0  0  0  0  0  0  0  0
   46.8620   35.5430   43.2980 H   0  0  0  0  0  0  0  0  0  0  0  0
   44.7130   36.5940   43.7380 H   0  0  0  0  0  0  0  0  0  0  0  0
   42.7760   36.1350   42.3980 H   0  0  0  0  0  0  0  0  0  0  0  0
   42.5960   34.5410   40.3680 N   0  0  0  0  0  0  0  0  0  0  0  0
   42.2330   35.2540   39.1780 C   0  0  0  0  0  0  0  0  0  0  0  0
   41.1830   34.5020   38.3880 C   0  0  0  0  0  0  0  0  0  0  0  0
   41.3640   33.0920   38.3820 N   0  0  0  0  0  0  0  0  0  0  0  0
   41.4570   32.4950   39.6560 C   0  0  0  0  0  0  0  0  0  0  0  0
   41.5530   33.5660   40.7230 C   0  0  0  0  0  0  0  0  0  0  0  0
   43.0430   35.6570   38.5730 H   0  0  0  0  0  0  0  0  0  0  0  0
   41.6960   36.1790   39.5520 H   0  0  0  0  0  0  0  0  0  0  0  0
   41.2290   34.8680   37.3480 H   0  0  0  0  0  0  0  0  0  0  0  0
   40.1680   34.6980   38.8030 H   0  0  0  0  0  0  0  0  0  0  0  0
   40.8550   32.6310   37.6410 H   0  0  0  0  0  0  0  0  0  0  0  0
   40.5390   31.9040   39.8690 H   0  0  0  0  0  0  0  0  0  0  0  0
   42.3070   31.7980   39.7540 H   0  0  0  0  0  0  0  0  0  0  0  0
   40.5780   34.0970   40.8300 H   0  0  0  0  0  0  0  0  0  0  0  0
   41.8720   33.0640   41.6660 H   0  0  0  0  0  0  0  0  0  0  0  0
   45.0560   33.1940   39.6580 C   0  0  0  0  0  0  0  0  0  0  0  0
   44.8500   33.6380   38.6860 H   0  0  0  0  0  0  0  0  0  0  0  0
   44.2170   32.4570   39.8290 H   0  0  0  0  0  0  0  0  0  0  0  0
   46.3610   32.4270   39.6140 C   0  0  0  0  0  0  0  0  0  0  0  0
   46.1560   31.3240   39.4670 H   0  0  0  0  0  0  0  0  0  0  0  0
   47.0110   32.5550   40.4650 H   0  0  0  0  0  0  0  0  0  0  0  0
   48.6860   34.2790   37.2870 C   0  0  0  0  0  0  0  0  0  0  0  0
   47.9680   33.9200   38.4530 C   0  0  0  0  0  0  0  0  0  0  0  0
   47.1180   32.8230   38.4040 C   0  0  0  0  0  0  0  0  0  0  0  0
   47.0230   32.1490   37.2170 N   0  0  0  0  0  0  0  0  0  0  0  0
   47.7060   32.5030   36.1300 C   0  0  0  0  0  0  0  0  0  0  0  0
   48.5370   33.5650   36.1590 N   0  0  0  0  0  0  0  0  0  0  0  0
   49.3520   35.1480   37.3470 H   0  0  0  0  0  0  0  0  0  0  0  0
   48.0790   34.4840   39.3600 H   0  0  0  0  0  0  0  0  0  0  0  0
   47.5050   31.6730   34.9010 C   0  0  0  0  0  0  0  0  0  0  0  0
   46.8670   32.3940   33.8880 F   0  0  0  0  0  0  0  0  0  0  0  0
   46.6870   30.5820   35.1530 F   0  0  0  0  0  0  0  0  0  0  0  0
   48.6980   31.2350   34.3570 F   0  0  0  0  0  0  0  0  0  0  0  0
  1  6  2  0  0  0  0
  1  2  1  0  0  0  0
  2  3  2  0  0  0  0
  3  4  1  0  0  0  0
  3  8  1  0  0  0  0
  4  9  1  0  0  0  0
  5 10  1  0  0  0  0
  5  4  2  0  0  0  0
  6  5  1  0  0  0  0
  7  2  1  0  0  0  0
 11 16  1  0  0  0  0
 11  6  1  0  0  0  0
 12 18  1  0  0  0  0
 12 11  1  0  0  0  0
 13 20  1  0  0  0  0
 13 12  1  0  0  0  0
 14 13  1  0  0  0  0
 14 15  1  0  0  0  0
 15 23  1  0  0  0  0
 15 22  1  0  0  0  0
 15 16  1  0  0  0  0
 16 24  1  0  0  0  0
 16 25  1  0  0  0  0
 17 12  1  0  0  0  0
 19 13  1  0  0  0  0
 21 14  1  0  0  0  0
 26 28  1  0  0  0  0
 26  1  1  0  0  0  0
 27 26  1  0  0  0  0
 29 26  1  0  0  0  0
 29 31  1  0  0  0  0
 30 29  1  0  0  0  0
 32 38  1  0  0  0  0
 32 33  1  0  0  0  0
 33 39  1  0  0  0  0
 34 33  2  0  0  0  0
 34 29  1  0  0  0  0
 35 34  1  0  0  0  0
 36 37  1  0  0  0  0
 36 35  2  0  0  0  0
 37 32  2  0  0  0  0
 40 42  1  0  0  0  0
 40 36  1  0  0  0  0
 41 40  1  0  0  0  0
 43 40  1  0  0  0  0
M  END
>  <minimizedAffinity>
-5.03699684

>  <minimizedRMSD>
7.29751921

$$$$
