
 OpenBabel03242519343D

 31 32  0  0  0  0  0  0  0  0999 V2000
   37.0690   27.8480   42.4760 C   0  0  0  0  0  0  0  0  0  0  0  0
   38.0370   28.4030   43.4590 C   0  0  0  0  0  0  0  0  0  0  0  0
   39.4060   27.8340   43.3080 C   0  0  0  0  0  0  0  0  0  0  0  0
   39.3880   26.3160   43.4050 C   0  0  0  0  0  0  0  0  0  0  0  0
   38.3230   25.6750   42.5730 C   0  0  0  0  0  0  0  0  0  0  0  0
   37.5920   26.6690   41.6990 C   0  0  0  0  0  0  0  0  0  0  0  0
   36.1640   27.5450   43.0310 H   0  0  0  0  0  0  0  0  0  0  0  0
   37.7140   28.2600   44.5260 H   0  0  0  0  0  0  0  0  0  0  0  0
   38.1000   29.5020   43.3200 H   0  0  0  0  0  0  0  0  0  0  0  0
   39.9780   28.1860   42.4470 H   0  0  0  0  0  0  0  0  0  0  0  0
   39.9940   28.1820   44.2080 H   0  0  0  0  0  0  0  0  0  0  0  0
   40.3880   25.9070   43.2450 H   0  0  0  0  0  0  0  0  0  0  0  0
   39.1300   26.0900   44.4800 H   0  0  0  0  0  0  0  0  0  0  0  0
   37.6240   25.0310   43.1220 H   0  0  0  0  0  0  0  0  0  0  0  0
   38.8550   24.9890   41.8620 H   0  0  0  0  0  0  0  0  0  0  0  0
   36.7460   26.1470   41.2110 H   0  0  0  0  0  0  0  0  0  0  0  0
   38.2880   26.9450   40.8900 H   0  0  0  0  0  0  0  0  0  0  0  0
   36.6300   28.8590   41.4770 C   0  0  0  0  0  0  0  0  0  0  0  0
   35.8120   28.3720   40.4350 C   0  0  0  0  0  0  0  0  0  0  0  0
   35.3680   29.2700   39.4650 C   0  0  0  0  0  0  0  0  0  0  0  0
   35.7570   30.5820   39.5830 N   0  0  0  0  0  0  0  0  0  0  0  0
   36.5460   31.0050   40.6030 C   0  0  0  0  0  0  0  0  0  0  0  0
   36.9870   30.1620   41.5510 N   0  0  0  0  0  0  0  0  0  0  0  0
   36.8690   32.3970   40.5940 N   0  0  0  0  0  0  0  0  0  0  0  0
   35.4900   27.3770   40.3060 H   0  0  0  0  0  0  0  0  0  0  0  0
   36.6550   32.8030   41.5390 H   0  0  0  0  0  0  0  0  0  0  0  0
   37.2510   32.7650   39.6730 H   0  0  0  0  0  0  0  0  0  0  0  0
   34.5080   28.8340   38.3410 C   0  0  0  0  0  0  0  0  0  0  0  0
   34.6560   27.4740   38.1490 F   0  0  0  0  0  0  0  0  0  0  0  0
   34.8930   29.4870   37.2030 F   0  0  0  0  0  0  0  0  0  0  0  0
   33.1840   29.0680   38.6660 F   0  0  0  0  0  0  0  0  0  0  0  0
  1  7  1  0  0  0  0
  1  2  1  0  0  0  0
  2  8  1  0  0  0  0
  3  4  1  0  0  0  0
  3  2  1  0  0  0  0
  3 11  1  0  0  0  0
  4 13  1  0  0  0  0
  5 14  1  0  0  0  0
  5  4  1  0  0  0  0
  6  1  1  0  0  0  0
  6  5  1  0  0  0  0
  9  2  1  0  0  0  0
 10  3  1  0  0  0  0
 12  4  1  0  0  0  0
 15  5  1  0  0  0  0
 16  6  1  0  0  0  0
 17  6  1  0  0  0  0
 18 23  1  0  0  0  0
 18  1  1  0  0  0  0
 19 18  2  0  0  0  0
 20 21  2  0  0  0  0
 20 19  1  0  0  0  0
 21 22  1  0  0  0  0
 22 23  2  0  0  0  0
 24 22  1  0  0  0  0
 24 26  1  0  0  0  0
 25 19  1  0  0  0  0
 27 24  1  0  0  0  0
 28 31  1  0  0  0  0
 28 20  1  0  0  0  0
 29 28  1  0  0  0  0
 30 28  1  0  0  0  0
M  END
>  <minimizedAffinity>
-5.44789696

$$$$

 OpenBabel03242519343D

 31 32  0  0  0  0  0  0  0  0999 V2000
   37.1690   29.4540   42.2340 C   0  0  0  0  0  0  0  0  0  0  0  0
   38.5230   29.4860   42.8490 C   0  0  0  0  0  0  0  0  0  0  0  0
   39.2390   28.1840   42.7370 C   0  0  0  0  0  0  0  0  0  0  0  0
   38.4260   27.0500   43.3440 C   0  0  0  0  0  0  0  0  0  0  0  0
   36.9940   27.0430   42.9110 C   0  0  0  0  0  0  0  0  0  0  0  0
   36.7030   28.0750   41.8450 C   0  0  0  0  0  0  0  0  0  0  0  0
   36.4600   29.8850   42.9630 H   0  0  0  0  0  0  0  0  0  0  0  0
   38.5090   29.7870   43.9310 H   0  0  0  0  0  0  0  0  0  0  0  0
   39.1300   30.2620   42.3390 H   0  0  0  0  0  0  0  0  0  0  0  0
   39.6230   27.9330   41.7460 H   0  0  0  0  0  0  0  0  0  0  0  0
   40.1580   28.2720   43.3890 H   0  0  0  0  0  0  0  0  0  0  0  0
   38.9380   26.0950   43.2140 H   0  0  0  0  0  0  0  0  0  0  0  0
   38.4200   27.2490   44.4540 H   0  0  0  0  0  0  0  0  0  0  0  0
   36.2580   27.0850   43.7240 H   0  0  0  0  0  0  0  0  0  0  0  0
   36.8240   26.0500   42.4160 H   0  0  0  0  0  0  0  0  0  0  0  0
   35.6110   28.0940   41.6670 H   0  0  0  0  0  0  0  0  0  0  0  0
   37.1590   27.7010   40.9140 H   0  0  0  0  0  0  0  0  0  0  0  0
   37.0790   30.2970   41.0120 C   0  0  0  0  0  0  0  0  0  0  0  0
   36.8670   29.5990   39.8030 C   0  0  0  0  0  0  0  0  0  0  0  0
   36.7760   30.3320   38.6210 C   0  0  0  0  0  0  0  0  0  0  0  0
   36.8990   31.6970   38.7040 N   0  0  0  0  0  0  0  0  0  0  0  0
   37.1040   32.3260   39.8900 C   0  0  0  0  0  0  0  0  0  0  0  0
   37.1960   31.6440   41.0430 N   0  0  0  0  0  0  0  0  0  0  0  0
   37.2140   33.7490   39.8200 N   0  0  0  0  0  0  0  0  0  0  0  0
   36.7660   28.5560   39.6940 H   0  0  0  0  0  0  0  0  0  0  0  0
   36.5600   34.1760   40.5220 H   0  0  0  0  0  0  0  0  0  0  0  0
   37.9070   34.1130   39.1010 H   0  0  0  0  0  0  0  0  0  0  0  0
   36.5540   29.6700   37.3140 C   0  0  0  0  0  0  0  0  0  0  0  0
   35.2040   29.4360   37.1410 F   0  0  0  0  0  0  0  0  0  0  0  0
   37.2180   28.4750   37.3000 F   0  0  0  0  0  0  0  0  0  0  0  0
   36.9640   30.5180   36.3010 F   0  0  0  0  0  0  0  0  0  0  0  0
  1  2  1  0  0  0  0
  1  7  1  0  0  0  0
  2  8  1  0  0  0  0
  3  2  1  0  0  0  0
  3  4  1  0  0  0  0
  3 11  1  0  0  0  0
  4 13  1  0  0  0  0
  5  4  1  0  0  0  0
  5 14  1  0  0  0  0
  6  1  1  0  0  0  0
  6  5  1  0  0  0  0
  9  2  1  0  0  0  0
 10  3  1  0  0  0  0
 12  4  1  0  0  0  0
 15  5  1  0  0  0  0
 16  6  1  0  0  0  0
 17  6  1  0  0  0  0
 18 23  1  0  0  0  0
 18  1  1  0  0  0  0
 19 18  2  0  0  0  0
 20 21  2  0  0  0  0
 20 19  1  0  0  0  0
 21 22  1  0  0  0  0
 22 23  2  0  0  0  0
 24 22  1  0  0  0  0
 24 26  1  0  0  0  0
 25 19  1  0  0  0  0
 27 24  1  0  0  0  0
 28 20  1  0  0  0  0
 29 28  1  0  0  0  0
 30 28  1  0  0  0  0
 31 28  1  0  0  0  0
M  END
>  <minimizedAffinity>
-5.37708712

$$$$

 OpenBabel03242519343D

 31 32  0  0  0  0  0  0  0  0999 V2000
   38.0570   27.2900   43.0290 C   0  0  0  0  0  0  0  0  0  0  0  0
   39.2590   26.5240   43.4540 C   0  0  0  0  0  0  0  0  0  0  0  0
   39.5720   25.3860   42.5440 C   0  0  0  0  0  0  0  0  0  0  0  0
   38.3850   24.4450   42.4060 C   0  0  0  0  0  0  0  0  0  0  0  0
   37.0910   25.1470   42.1450 C   0  0  0  0  0  0  0  0  0  0  0  0
   37.2690   26.6330   41.9260 C   0  0  0  0  0  0  0  0  0  0  0  0
   37.4080   27.4140   43.9140 H   0  0  0  0  0  0  0  0  0  0  0  0
   39.1800   26.1240   44.5010 H   0  0  0  0  0  0  0  0  0  0  0  0
   40.1320   27.2080   43.4700 H   0  0  0  0  0  0  0  0  0  0  0  0
   40.0030   25.6530   41.5760 H   0  0  0  0  0  0  0  0  0  0  0  0
   40.3740   24.7810   43.0600 H   0  0  0  0  0  0  0  0  0  0  0  0
   38.6100   23.6420   41.7000 H   0  0  0  0  0  0  0  0  0  0  0  0
   38.2800   23.9500   43.4140 H   0  0  0  0  0  0  0  0  0  0  0  0
   36.2920   24.9410   42.8680 H   0  0  0  0  0  0  0  0  0  0  0  0
   36.7100   24.7470   41.1690 H   0  0  0  0  0  0  0  0  0  0  0  0
   36.2670   27.0990   41.8630 H   0  0  0  0  0  0  0  0  0  0  0  0
   37.7230   26.7490   40.9280 H   0  0  0  0  0  0  0  0  0  0  0  0
   38.3930   28.6600   42.5580 C   0  0  0  0  0  0  0  0  0  0  0  0
   37.4790   29.2340   41.6470 C   0  0  0  0  0  0  0  0  0  0  0  0
   37.7380   30.5170   41.1670 C   0  0  0  0  0  0  0  0  0  0  0  0
   38.8740   31.1480   41.6120 N   0  0  0  0  0  0  0  0  0  0  0  0
   39.7250   30.5570   42.4880 C   0  0  0  0  0  0  0  0  0  0  0  0
   39.4990   29.3230   42.9670 N   0  0  0  0  0  0  0  0  0  0  0  0
   40.8640   31.3350   42.8590 N   0  0  0  0  0  0  0  0  0  0  0  0
   36.5980   28.7860   41.2820 H   0  0  0  0  0  0  0  0  0  0  0  0
   40.9360   31.3560   43.9070 H   0  0  0  0  0  0  0  0  0  0  0  0
   41.4160   31.7410   42.0460 H   0  0  0  0  0  0  0  0  0  0  0  0
   36.8260   31.1840   40.2090 C   0  0  0  0  0  0  0  0  0  0  0  0
   36.8910   32.5520   40.3900 F   0  0  0  0  0  0  0  0  0  0  0  0
   35.5460   30.7660   40.4450 F   0  0  0  0  0  0  0  0  0  0  0  0
   37.2450   30.9120   38.9200 F   0  0  0  0  0  0  0  0  0  0  0  0
  1  2  1  0  0  0  0
  1  7  1  0  0  0  0
  2  9  1  0  0  0  0
  2  8  1  0  0  0  0
  3 11  1  0  0  0  0
  3  2  1  0  0  0  0
  4  3  1  0  0  0  0
  4 13  1  0  0  0  0
  5  4  1  0  0  0  0
  5 14  1  0  0  0  0
  6  5  1  0  0  0  0
  6  1  1  0  0  0  0
 10  3  1  0  0  0  0
 12  4  1  0  0  0  0
 15  5  1  0  0  0  0
 16  6  1  0  0  0  0
 17  6  1  0  0  0  0
 18 23  1  0  0  0  0
 18  1  1  0  0  0  0
 19 18  2  0  0  0  0
 20 21  2  0  0  0  0
 20 19  1  0  0  0  0
 21 22  1  0  0  0  0
 22 24  1  0  0  0  0
 22 23  2  0  0  0  0
 24 26  1  0  0  0  0
 25 19  1  0  0  0  0
 27 24  1  0  0  0  0
 28 29  1  0  0  0  0
 28 30  1  0  0  0  0
 28 20  1  0  0  0  0
 31 28  1  0  0  0  0
M  END
>  <minimizedAffinity>
-5.24804688

$$$$

 OpenBabel03242519343D

 31 32  0  0  0  0  0  0  0  0999 V2000
   35.2370   28.2290   38.2330 C   0  0  0  0  0  0  0  0  0  0  0  0
   36.0690   28.3570   37.0070 C   0  0  0  0  0  0  0  0  0  0  0  0
   35.4130   29.1710   35.9450 C   0  0  0  0  0  0  0  0  0  0  0  0
   34.0460   28.6110   35.5830 C   0  0  0  0  0  0  0  0  0  0  0  0
   33.1970   28.2880   36.7710 C   0  0  0  0  0  0  0  0  0  0  0  0
   33.8260   28.7300   38.0730 C   0  0  0  0  0  0  0  0  0  0  0  0
   35.2130   27.1600   38.5120 H   0  0  0  0  0  0  0  0  0  0  0  0
   36.3540   27.3660   36.5620 H   0  0  0  0  0  0  0  0  0  0  0  0
   37.0290   28.8430   37.2750 H   0  0  0  0  0  0  0  0  0  0  0  0
   35.3850   30.2490   36.1190 H   0  0  0  0  0  0  0  0  0  0  0  0
   36.0420   29.0450   35.0160 H   0  0  0  0  0  0  0  0  0  0  0  0
   33.5550   29.2420   34.8390 H   0  0  0  0  0  0  0  0  0  0  0  0
   34.2540   27.6300   35.0660 H   0  0  0  0  0  0  0  0  0  0  0  0
   32.8440   27.2500   36.8270 H   0  0  0  0  0  0  0  0  0  0  0  0
   32.2660   28.9060   36.6650 H   0  0  0  0  0  0  0  0  0  0  0  0
   33.2040   28.3510   38.9060 H   0  0  0  0  0  0  0  0  0  0  0  0
   33.7400   29.8290   38.1040 H   0  0  0  0  0  0  0  0  0  0  0  0
   35.8200   28.9520   39.3940 C   0  0  0  0  0  0  0  0  0  0  0  0
   36.1610   28.1500   40.5050 C   0  0  0  0  0  0  0  0  0  0  0  0
   36.7110   28.7690   41.6270 C   0  0  0  0  0  0  0  0  0  0  0  0
   36.8870   30.1300   41.5830 N   0  0  0  0  0  0  0  0  0  0  0  0
   36.5430   30.8620   40.4930 C   0  0  0  0  0  0  0  0  0  0  0  0
   36.0130   30.2910   39.3990 N   0  0  0  0  0  0  0  0  0  0  0  0
   36.7850   32.2670   40.5940 N   0  0  0  0  0  0  0  0  0  0  0  0
   36.0430   27.1050   40.5800 H   0  0  0  0  0  0  0  0  0  0  0  0
   37.3230   32.5820   39.7480 H   0  0  0  0  0  0  0  0  0  0  0  0
   36.3960   32.7290   41.4690 H   0  0  0  0  0  0  0  0  0  0  0  0
   37.0940   27.9940   42.8300 C   0  0  0  0  0  0  0  0  0  0  0  0
   37.8960   26.9330   42.4560 F   0  0  0  0  0  0  0  0  0  0  0  0
   35.9640   27.5080   43.4260 F   0  0  0  0  0  0  0  0  0  0  0  0
   37.8340   28.8020   43.6730 F   0  0  0  0  0  0  0  0  0  0  0  0
  1  7  1  0  0  0  0
  1 18  1  0  0  0  0
  2  9  1  0  0  0  0
  2  1  1  0  0  0  0
  3 10  1  0  0  0  0
  3  2  1  0  0  0  0
  4  3  1  0  0  0  0
  4  5  1  0  0  0  0
  5 14  1  0  0  0  0
  5  6  1  0  0  0  0
  6 17  1  0  0  0  0
  6  1  1  0  0  0  0
  6 16  1  0  0  0  0
  8  2  1  0  0  0  0
 11  3  1  0  0  0  0
 12  4  1  0  0  0  0
 13  4  1  0  0  0  0
 15  5  1  0  0  0  0
 18 23  2  0  0  0  0
 18 19  1  0  0  0  0
 19 25  1  0  0  0  0
 19 20  2  0  0  0  0
 20 28  1  0  0  0  0
 21 20  1  0  0  0  0
 22 24  1  0  0  0  0
 22 21  2  0  0  0  0
 23 22  1  0  0  0  0
 24 27  1  0  0  0  0
 26 24  1  0  0  0  0
 28 30  1  0  0  0  0
 28 31  1  0  0  0  0
 29 28  1  0  0  0  0
M  END
>  <minimizedAffinity>
-5.20309925

$$$$

 OpenBabel03242519343D

 31 32  0  0  0  0  0  0  0  0999 V2000
   37.0240   28.9050   41.9760 C   0  0  0  0  0  0  0  0  0  0  0  0
   37.4580   28.4850   43.3360 C   0  0  0  0  0  0  0  0  0  0  0  0
   38.2990   27.2550   43.3210 C   0  0  0  0  0  0  0  0  0  0  0  0
   37.5840   26.1030   42.6310 C   0  0  0  0  0  0  0  0  0  0  0  0
   36.9620   26.4810   41.3240 C   0  0  0  0  0  0  0  0  0  0  0  0
   37.3100   27.8900   40.9000 C   0  0  0  0  0  0  0  0  0  0  0  0
   35.9370   29.0960   42.0160 H   0  0  0  0  0  0  0  0  0  0  0  0
   36.5990   28.3130   44.0400 H   0  0  0  0  0  0  0  0  0  0  0  0
   38.0490   29.3050   43.7920 H   0  0  0  0  0  0  0  0  0  0  0  0
   39.3230   27.3800   42.9600 H   0  0  0  0  0  0  0  0  0  0  0  0
   38.4090   26.9350   44.3980 H   0  0  0  0  0  0  0  0  0  0  0  0
   38.2270   25.2220   42.5830 H   0  0  0  0  0  0  0  0  0  0  0  0
   36.7330   25.8270   43.3190 H   0  0  0  0  0  0  0  0  0  0  0  0
   35.8840   26.2910   41.2460 H   0  0  0  0  0  0  0  0  0  0  0  0
   37.4310   25.8140   40.5520 H   0  0  0  0  0  0  0  0  0  0  0  0
   36.7200   28.1370   39.9970 H   0  0  0  0  0  0  0  0  0  0  0  0
   38.3650   27.8690   40.5810 H   0  0  0  0  0  0  0  0  0  0  0  0
   37.6590   30.1780   41.5440 C   0  0  0  0  0  0  0  0  0  0  0  0
   39.0380   30.2980   41.8250 C   0  0  0  0  0  0  0  0  0  0  0  0
   39.6920   31.4690   41.4460 C   0  0  0  0  0  0  0  0  0  0  0  0
   38.9510   32.4420   40.8210 N   0  0  0  0  0  0  0  0  0  0  0  0
   37.6260   32.2830   40.5730 C   0  0  0  0  0  0  0  0  0  0  0  0
   36.9710   31.1650   40.9260 N   0  0  0  0  0  0  0  0  0  0  0  0
   36.9870   33.3800   39.9160 N   0  0  0  0  0  0  0  0  0  0  0  0
   39.6430   29.5780   42.3000 H   0  0  0  0  0  0  0  0  0  0  0  0
   36.4560   33.0180   39.0850 H   0  0  0  0  0  0  0  0  0  0  0  0
   37.1540   34.3300   40.3620 H   0  0  0  0  0  0  0  0  0  0  0  0
   41.1370   31.6690   41.7060 C   0  0  0  0  0  0  0  0  0  0  0  0
   41.3870   31.5130   43.0560 F   0  0  0  0  0  0  0  0  0  0  0  0
   41.4870   32.9360   41.3330 F   0  0  0  0  0  0  0  0  0  0  0  0
   41.8570   30.6990   41.0330 F   0  0  0  0  0  0  0  0  0  0  0  0
  1  7  1  0  0  0  0
  1  2  1  0  0  0  0
  2  9  1  0  0  0  0
  2  8  1  0  0  0  0
  3  2  1  0  0  0  0
  3 11  1  0  0  0  0
  4 13  1  0  0  0  0
  4  3  1  0  0  0  0
  5  4  1  0  0  0  0
  6  5  1  0  0  0  0
  6  1  1  0  0  0  0
 10  3  1  0  0  0  0
 12  4  1  0  0  0  0
 14  5  1  0  0  0  0
 15  5  1  0  0  0  0
 16  6  1  0  0  0  0
 17  6  1  0  0  0  0
 18 19  1  0  0  0  0
 18  1  1  0  0  0  0
 19 25  1  0  0  0  0
 20 28  1  0  0  0  0
 20 19  2  0  0  0  0
 21 20  1  0  0  0  0
 22 21  2  0  0  0  0
 22 23  1  0  0  0  0
 23 18  2  0  0  0  0
 24 27  1  0  0  0  0
 24 22  1  0  0  0  0
 26 24  1  0  0  0  0
 28 29  1  0  0  0  0
 30 28  1  0  0  0  0
 31 28  1  0  0  0  0
M  END
>  <minimizedAffinity>
-5.17341805

$$$$

 OpenBabel03242519343D

 31 32  0  0  0  0  0  0  0  0999 V2000
   36.9720   28.7880   42.0350 C   0  0  0  0  0  0  0  0  0  0  0  0
   38.0180   29.2670   42.9780 C   0  0  0  0  0  0  0  0  0  0  0  0
   39.1620   28.3200   43.1030 C   0  0  0  0  0  0  0  0  0  0  0  0
   38.6920   26.9340   43.5170 C   0  0  0  0  0  0  0  0  0  0  0  0
   37.5220   26.4390   42.7290 C   0  0  0  0  0  0  0  0  0  0  0  0
   37.1550   27.3610   41.5890 C   0  0  0  0  0  0  0  0  0  0  0  0
   35.9950   28.8890   42.5390 H   0  0  0  0  0  0  0  0  0  0  0  0
   37.6210   29.4750   44.0090 H   0  0  0  0  0  0  0  0  0  0  0  0
   38.4090   30.2400   42.6160 H   0  0  0  0  0  0  0  0  0  0  0  0
   39.8490   28.2870   42.2540 H   0  0  0  0  0  0  0  0  0  0  0  0
   39.7880   28.6930   43.9660 H   0  0  0  0  0  0  0  0  0  0  0  0
   39.5320   26.2380   43.5590 H   0  0  0  0  0  0  0  0  0  0  0  0
   38.3320   27.0490   44.5810 H   0  0  0  0  0  0  0  0  0  0  0  0
   36.6400   26.1620   43.3220 H   0  0  0  0  0  0  0  0  0  0  0  0
   37.8560   25.4840   42.2430 H   0  0  0  0  0  0  0  0  0  0  0  0
   36.2150   26.9960   41.1330 H   0  0  0  0  0  0  0  0  0  0  0  0
   37.9370   27.2350   40.8210 H   0  0  0  0  0  0  0  0  0  0  0  0
   36.8960   29.6170   40.8020 C   0  0  0  0  0  0  0  0  0  0  0  0
   37.4440   30.9140   40.9050 C   0  0  0  0  0  0  0  0  0  0  0  0
   37.4010   31.7420   39.7830 C   0  0  0  0  0  0  0  0  0  0  0  0
   36.8250   31.2420   38.6410 N   0  0  0  0  0  0  0  0  0  0  0  0
   36.3100   29.9870   38.5900 C   0  0  0  0  0  0  0  0  0  0  0  0
   36.3380   29.1700   39.6540 N   0  0  0  0  0  0  0  0  0  0  0  0
   35.7430   29.6060   37.3340 N   0  0  0  0  0  0  0  0  0  0  0  0
   37.8940   31.3370   41.7580 H   0  0  0  0  0  0  0  0  0  0  0  0
   36.1480   28.6820   37.0440 H   0  0  0  0  0  0  0  0  0  0  0  0
   35.0420   30.2950   36.9300 H   0  0  0  0  0  0  0  0  0  0  0  0
   37.9550   33.1160   39.8130 C   0  0  0  0  0  0  0  0  0  0  0  0
   38.3540   33.4220   41.1000 F   0  0  0  0  0  0  0  0  0  0  0  0
   36.9840   33.9980   39.4270 F   0  0  0  0  0  0  0  0  0  0  0  0
   39.0750   33.1710   39.0040 F   0  0  0  0  0  0  0  0  0  0  0  0
  1  7  1  0  0  0  0
  1  2  1  0  0  0  0
  2  3  1  0  0  0  0
  2  8  1  0  0  0  0
  3  4  1  0  0  0  0
  3 11  1  0  0  0  0
  4 12  1  0  0  0  0
  4 13  1  0  0  0  0
  5 14  1  0  0  0  0
  5  4  1  0  0  0  0
  6  1  1  0  0  0  0
  6  5  1  0  0  0  0
  9  2  1  0  0  0  0
 10  3  1  0  0  0  0
 15  5  1  0  0  0  0
 16  6  1  0  0  0  0
 17  6  1  0  0  0  0
 18 19  1  0  0  0  0
 18  1  1  0  0  0  0
 19 25  1  0  0  0  0
 20 28  1  0  0  0  0
 20 19  2  0  0  0  0
 21 20  1  0  0  0  0
 22 21  2  0  0  0  0
 22 23  1  0  0  0  0
 23 18  2  0  0  0  0
 24 22  1  0  0  0  0
 26 24  1  0  0  0  0
 27 24  1  0  0  0  0
 28 29  1  0  0  0  0
 30 28  1  0  0  0  0
 31 28  1  0  0  0  0
M  END
>  <minimizedAffinity>
-5.09569979

$$$$

 OpenBabel03242519343D

 31 32  0  0  0  0  0  0  0  0999 V2000
   38.0320   26.4760   41.2830 C   0  0  0  0  0  0  0  0  0  0  0  0
   37.7830   26.0350   39.8840 C   0  0  0  0  0  0  0  0  0  0  0  0
   36.5000   25.2930   39.7300 C   0  0  0  0  0  0  0  0  0  0  0  0
   36.4390   24.0940   40.6650 C   0  0  0  0  0  0  0  0  0  0  0  0
   36.8430   24.4090   42.0700 C   0  0  0  0  0  0  0  0  0  0  0  0
   37.0800   25.8870   42.2900 C   0  0  0  0  0  0  0  0  0  0  0  0
   39.0650   26.1860   41.5460 H   0  0  0  0  0  0  0  0  0  0  0  0
   38.6090   25.3970   39.4690 H   0  0  0  0  0  0  0  0  0  0  0  0
   37.7490   26.9290   39.2280 H   0  0  0  0  0  0  0  0  0  0  0  0
   35.5910   25.8970   39.7720 H   0  0  0  0  0  0  0  0  0  0  0  0
   36.5110   24.8570   38.6880 H   0  0  0  0  0  0  0  0  0  0  0  0
   35.4760   23.5860   40.5790 H   0  0  0  0  0  0  0  0  0  0  0  0
   37.2080   23.3690   40.2700 H   0  0  0  0  0  0  0  0  0  0  0  0
   37.6690   23.8060   42.4670 H   0  0  0  0  0  0  0  0  0  0  0  0
   35.9600   24.1510   42.7130 H   0  0  0  0  0  0  0  0  0  0  0  0
   37.4910   26.0260   43.3080 H   0  0  0  0  0  0  0  0  0  0  0  0
   36.0870   26.3660   42.2930 H   0  0  0  0  0  0  0  0  0  0  0  0
   37.9580   27.9530   41.4350 C   0  0  0  0  0  0  0  0  0  0  0  0
   39.1710   28.5930   41.7710 C   0  0  0  0  0  0  0  0  0  0  0  0
   39.1680   29.9790   41.9310 C   0  0  0  0  0  0  0  0  0  0  0  0
   37.9780   30.6400   41.7510 N   0  0  0  0  0  0  0  0  0  0  0  0
   36.8350   29.9820   41.4290 C   0  0  0  0  0  0  0  0  0  0  0  0
   36.8100   28.6490   41.2690 N   0  0  0  0  0  0  0  0  0  0  0  0
   35.6760   30.8030   41.2750 N   0  0  0  0  0  0  0  0  0  0  0  0
   40.1040   28.1260   41.9180 H   0  0  0  0  0  0  0  0  0  0  0  0
   35.2180   30.5770   40.3570 H   0  0  0  0  0  0  0  0  0  0  0  0
   35.4870   31.4700   42.0800 H   0  0  0  0  0  0  0  0  0  0  0  0
   40.4010   30.7210   42.2830 C   0  0  0  0  0  0  0  0  0  0  0  0
   41.4050   29.8230   42.5910 F   0  0  0  0  0  0  0  0  0  0  0  0
   40.1540   31.5030   43.3760 F   0  0  0  0  0  0  0  0  0  0  0  0
   40.8170   31.4540   41.1870 F   0  0  0  0  0  0  0  0  0  0  0  0
  1 18  1  0  0  0  0
  1  7  1  0  0  0  0
  1  6  1  0  0  0  0
  2  1  1  0  0  0  0
  3 10  1  0  0  0  0
  3  2  1  0  0  0  0
  3  4  1  0  0  0  0
  4  5  1  0  0  0  0
  5  6  1  0  0  0  0
  5 14  1  0  0  0  0
  5 15  1  0  0  0  0
  6 17  1  0  0  0  0
  6 16  1  0  0  0  0
  8  2  1  0  0  0  0
  9  2  1  0  0  0  0
 11  3  1  0  0  0  0
 12  4  1  0  0  0  0
 13  4  1  0  0  0  0
 18 19  1  0  0  0  0
 19 25  1  0  0  0  0
 19 20  2  0  0  0  0
 20 28  1  0  0  0  0
 21 20  1  0  0  0  0
 22 21  2  0  0  0  0
 23 22  1  0  0  0  0
 23 18  2  0  0  0  0
 24 22  1  0  0  0  0
 24 27  1  0  0  0  0
 26 24  1  0  0  0  0
 28 29  1  0  0  0  0
 28 30  1  0  0  0  0
 31 28  1  0  0  0  0
M  END
>  <minimizedAffinity>
-4.99097443

$$$$

 OpenBabel03242519343D

 31 32  0  0  0  0  0  0  0  0999 V2000
   37.1220   25.3690   41.7500 C   0  0  0  0  0  0  0  0  0  0  0  0
   38.2150   24.4770   42.2200 C   0  0  0  0  0  0  0  0  0  0  0  0
   38.7660   23.6150   41.1370 C   0  0  0  0  0  0  0  0  0  0  0  0
   37.6730   22.7850   40.4800 C   0  0  0  0  0  0  0  0  0  0  0  0
   36.4540   23.5750   40.1250 C   0  0  0  0  0  0  0  0  0  0  0  0
   36.6320   25.0580   40.3600 C   0  0  0  0  0  0  0  0  0  0  0  0
   36.2820   25.2730   42.4610 H   0  0  0  0  0  0  0  0  0  0  0  0
   37.9080   23.8140   43.0730 H   0  0  0  0  0  0  0  0  0  0  0  0
   39.0400   25.1020   42.6210 H   0  0  0  0  0  0  0  0  0  0  0  0
   39.4010   24.1170   40.4030 H   0  0  0  0  0  0  0  0  0  0  0  0
   39.4440   22.8670   41.6430 H   0  0  0  0  0  0  0  0  0  0  0  0
   38.0800   22.1940   39.6570 H   0  0  0  0  0  0  0  0  0  0  0  0
   37.3520   22.0420   41.2650 H   0  0  0  0  0  0  0  0  0  0  0  0
   35.5150   23.2090   40.5610 H   0  0  0  0  0  0  0  0  0  0  0  0
   36.3220   23.4630   39.0160 H   0  0  0  0  0  0  0  0  0  0  0  0
   35.6580   25.5570   40.1940 H   0  0  0  0  0  0  0  0  0  0  0  0
   37.3010   25.4220   39.5630 H   0  0  0  0  0  0  0  0  0  0  0  0
   37.5150   26.8030   41.7550 C   0  0  0  0  0  0  0  0  0  0  0  0
   36.5790   27.6950   41.1870 C   0  0  0  0  0  0  0  0  0  0  0  0
   36.8890   29.0540   41.1600 C   0  0  0  0  0  0  0  0  0  0  0  0
   38.0950   29.4450   41.6900 N   0  0  0  0  0  0  0  0  0  0  0  0
   38.9650   28.5510   42.2250 C   0  0  0  0  0  0  0  0  0  0  0  0
   38.6910   27.2370   42.2640 N   0  0  0  0  0  0  0  0  0  0  0  0
   40.1790   29.1050   42.7360 N   0  0  0  0  0  0  0  0  0  0  0  0
   35.6450   27.4390   40.7720 H   0  0  0  0  0  0  0  0  0  0  0  0
   40.3280   28.7540   43.7150 H   0  0  0  0  0  0  0  0  0  0  0  0
   40.6970   29.7480   42.0670 H   0  0  0  0  0  0  0  0  0  0  0  0
   35.9580   30.0500   40.5810 C   0  0  0  0  0  0  0  0  0  0  0  0
   36.4030   30.4200   39.3270 F   0  0  0  0  0  0  0  0  0  0  0  0
   35.9280   31.1540   41.3860 F   0  0  0  0  0  0  0  0  0  0  0  0
   34.7120   29.4700   40.4280 F   0  0  0  0  0  0  0  0  0  0  0  0
  1 18  1  0  0  0  0
  1  2  1  0  0  0  0
  1  7  1  0  0  0  0
  2  9  1  0  0  0  0
  2  8  1  0  0  0  0
  3 11  1  0  0  0  0
  3  2  1  0  0  0  0
  4  3  1  0  0  0  0
  4 13  1  0  0  0  0
  5  6  1  0  0  0  0
  5  4  1  0  0  0  0
  5 14  1  0  0  0  0
  6  1  1  0  0  0  0
 10  3  1  0  0  0  0
 12  4  1  0  0  0  0
 15  5  1  0  0  0  0
 16  6  1  0  0  0  0
 17  6  1  0  0  0  0
 18 23  1  0  0  0  0
 19 18  2  0  0  0  0
 20 19  1  0  0  0  0
 20 21  2  0  0  0  0
 21 22  1  0  0  0  0
 22 23  2  0  0  0  0
 22 24  1  0  0  0  0
 24 26  1  0  0  0  0
 25 19  1  0  0  0  0
 27 24  1  0  0  0  0
 28 20  1  0  0  0  0
 28 30  1  0  0  0  0
 29 28  1  0  0  0  0
 31 28  1  0  0  0  0
M  END
>  <minimizedAffinity>
-4.93215895

$$$$

 OpenBabel03242519343D

 31 32  0  0  0  0  0  0  0  0999 V2000
   36.6170   29.2320   41.6190 C   0  0  0  0  0  0  0  0  0  0  0  0
   37.9380   29.7050   42.1120 C   0  0  0  0  0  0  0  0  0  0  0  0
   38.8070   28.5950   42.5960 C   0  0  0  0  0  0  0  0  0  0  0  0
   38.1150   27.7830   43.6800 C   0  0  0  0  0  0  0  0  0  0  0  0
   36.7080   27.4050   43.3390 C   0  0  0  0  0  0  0  0  0  0  0  0
   36.3300   27.7860   41.9260 C   0  0  0  0  0  0  0  0  0  0  0  0
   35.8400   29.8640   42.0850 H   0  0  0  0  0  0  0  0  0  0  0  0
   37.8550   30.4680   42.9330 H   0  0  0  0  0  0  0  0  0  0  0  0
   38.4640   30.2240   41.2850 H   0  0  0  0  0  0  0  0  0  0  0  0
   39.2480   27.9620   41.8230 H   0  0  0  0  0  0  0  0  0  0  0  0
   39.6880   29.0840   43.1070 H   0  0  0  0  0  0  0  0  0  0  0  0
   38.7410   26.9440   43.9920 H   0  0  0  0  0  0  0  0  0  0  0  0
   38.0510   28.4700   44.5720 H   0  0  0  0  0  0  0  0  0  0  0  0
   35.9480   27.7310   44.0610 H   0  0  0  0  0  0  0  0  0  0  0  0
   36.6720   26.2840   43.3650 H   0  0  0  0  0  0  0  0  0  0  0  0
   35.2490   27.5890   41.7890 H   0  0  0  0  0  0  0  0  0  0  0  0
   36.8550   27.0800   41.2610 H   0  0  0  0  0  0  0  0  0  0  0  0
   36.4660   29.3970   40.1490 C   0  0  0  0  0  0  0  0  0  0  0  0
   35.2110   29.0250   39.6190 C   0  0  0  0  0  0  0  0  0  0  0  0
   35.0070   29.1540   38.2460 C   0  0  0  0  0  0  0  0  0  0  0  0
   36.0450   29.6390   37.4880 N   0  0  0  0  0  0  0  0  0  0  0  0
   37.2350   29.9830   38.0410 C   0  0  0  0  0  0  0  0  0  0  0  0
   37.4590   29.8690   39.3600 N   0  0  0  0  0  0  0  0  0  0  0  0
   38.2200   30.4700   37.1280 N   0  0  0  0  0  0  0  0  0  0  0  0
   34.3900   28.6510   40.1620 H   0  0  0  0  0  0  0  0  0  0  0  0
   38.6010   31.3800   37.4900 H   0  0  0  0  0  0  0  0  0  0  0  0
   38.3890   29.8550   36.2780 H   0  0  0  0  0  0  0  0  0  0  0  0
   33.7180   28.7840   37.6160 C   0  0  0  0  0  0  0  0  0  0  0  0
   33.6300   29.3740   36.3700 F   0  0  0  0  0  0  0  0  0  0  0  0
   32.6920   29.2410   38.3970 F   0  0  0  0  0  0  0  0  0  0  0  0
   33.6780   27.4140   37.4350 F   0  0  0  0  0  0  0  0  0  0  0  0
  1  6  1  0  0  0  0
  1  7  1  0  0  0  0
  1  2  1  0  0  0  0
  2  3  1  0  0  0  0
  2  8  1  0  0  0  0
  3 11  1  0  0  0  0
  3  4  1  0  0  0  0
  4 12  1  0  0  0  0
  4 13  1  0  0  0  0
  5 15  1  0  0  0  0
  5  4  1  0  0  0  0
  5 14  1  0  0  0  0
  6  5  1  0  0  0  0
  9  2  1  0  0  0  0
 10  3  1  0  0  0  0
 16  6  1  0  0  0  0
 17  6  1  0  0  0  0
 18  1  1  0  0  0  0
 19 18  1  0  0  0  0
 19 25  1  0  0  0  0
 20 19  2  0  0  0  0
 21 22  2  0  0  0  0
 21 20  1  0  0  0  0
 22 23  1  0  0  0  0
 23 18  2  0  0  0  0
 24 26  1  0  0  0  0
 24 22  1  0  0  0  0
 27 24  1  0  0  0  0
 28 20  1  0  0  0  0
 28 30  1  0  0  0  0
 29 28  1  0  0  0  0
 31 28  1  0  0  0  0
M  END
>  <minimizedAffinity>
-4.92979527

$$$$
