
 OpenBabel03242522363D

 38 40  0  0  0  0  0  0  0  0999 V2000
   37.7430   29.9570   41.9470 C   0  0  0  0  0  0  0  0  0  0  0  0
   37.9950   30.9580   41.0490 C   0  0  0  0  0  0  0  0  0  0  0  0
   39.2950   31.4050   40.9150 C   0  0  0  0  0  0  0  0  0  0  0  0
   40.3680   30.9030   41.6360 C   0  0  0  0  0  0  0  0  0  0  0  0
   40.1060   29.8880   42.5470 C   0  0  0  0  0  0  0  0  0  0  0  0
   38.7910   29.4340   42.6850 C   0  0  0  0  0  0  0  0  0  0  0  0
   39.5690   32.1960   40.2210 H   0  0  0  0  0  0  0  0  0  0  0  0
   41.3730   31.2630   41.5180 H   0  0  0  0  0  0  0  0  0  0  0  0
   40.8950   29.4440   43.1480 H   0  0  0  0  0  0  0  0  0  0  0  0
   36.9360   31.5690   40.2220 C   0  0  0  0  0  0  0  0  0  0  0  0
   37.0760   32.6220   40.0040 H   0  0  0  0  0  0  0  0  0  0  0  0
   35.9860   31.5230   40.8330 H   0  0  0  0  0  0  0  0  0  0  0  0
   35.5110   29.0990   37.8650 C   0  0  0  0  0  0  0  0  0  0  0  0
   36.1900   29.3980   36.6840 C   0  0  0  0  0  0  0  0  0  0  0  0
   37.1180   30.4370   36.7240 C   0  0  0  0  0  0  0  0  0  0  0  0
   37.3110   31.0900   37.8860 N   0  0  0  0  0  0  0  0  0  0  0  0
   36.6360   30.7780   39.0160 C   0  0  0  0  0  0  0  0  0  0  0  0
   35.7450   29.7850   38.9860 N   0  0  0  0  0  0  0  0  0  0  0  0
   34.7700   28.2940   37.8940 H   0  0  0  0  0  0  0  0  0  0  0  0
   35.9350   28.7930   35.8310 H   0  0  0  0  0  0  0  0  0  0  0  0
   37.6320   30.6590   35.8200 H   0  0  0  0  0  0  0  0  0  0  0  0
   36.4770   29.4820   42.1140 O   0  0  0  0  0  0  0  0  0  0  0  0
   35.7940   29.9530   42.6780 H   0  0  0  0  0  0  0  0  0  0  0  0
   38.5450   28.4250   43.6010 O   0  0  0  0  0  0  0  0  0  0  0  0
   39.1500   27.2000   43.3840 C   0  0  0  0  0  0  0  0  0  0  0  0
   40.5110   27.1110   43.7180 C   0  0  0  0  0  0  0  0  0  0  0  0
   41.1810   25.9220   43.5320 C   0  0  0  0  0  0  0  0  0  0  0  0
   40.5230   24.8160   43.0210 C   0  0  0  0  0  0  0  0  0  0  0  0
   39.1900   24.9730   42.7140 C   0  0  0  0  0  0  0  0  0  0  0  0
   38.4430   26.1430   42.8730 C   0  0  0  0  0  0  0  0  0  0  0  0
   41.0220   27.9880   44.1210 H   0  0  0  0  0  0  0  0  0  0  0  0
   42.2260   25.9030   43.8030 H   0  0  0  0  0  0  0  0  0  0  0  0
   41.0300   23.8870   42.8730 H   0  0  0  0  0  0  0  0  0  0  0  0
   38.7040   24.0690   42.3110 H   0  0  0  0  0  0  0  0  0  0  0  0
   37.0380   26.1420   42.4550 C   0  0  0  0  0  0  0  0  0  0  0  0
   36.8960   26.6210   41.1400 F   0  0  0  0  0  0  0  0  0  0  0  0
   36.6200   24.7910   42.3200 F   0  0  0  0  0  0  0  0  0  0  0  0
   36.1280   26.6800   43.3120 F   0  0  0  0  0  0  0  0  0  0  0  0
  1 22  1  0  0  0  0
  1  6  1  0  0  0  0
  2  1  2  0  0  0  0
  3  2  1  0  0  0  0
  3  4  2  0  0  0  0
  4  5  1  0  0  0  0
  5  6  2  0  0  0  0
  5  9  1  0  0  0  0
  6 24  1  0  0  0  0
  7  3  1  0  0  0  0
  8  4  1  0  0  0  0
 10 12  1  0  0  0  0
 10  2  1  0  0  0  0
 11 10  1  0  0  0  0
 13 19  1  0  0  0  0
 13 18  1  0  0  0  0
 14 15  1  0  0  0  0
 14 13  2  0  0  0  0
 15 16  2  0  0  0  0
 16 17  1  0  0  0  0
 17 10  1  0  0  0  0
 18 17  2  0  0  0  0
 20 14  1  0  0  0  0
 21 15  1  0  0  0  0
 22 23  1  0  0  0  0
 25 24  1  0  0  0  0
 25 26  1  0  0  0  0
 26 31  1  0  0  0  0
 27 26  2  0  0  0  0
 27 32  1  0  0  0  0
 28 27  1  0  0  0  0
 29 30  1  0  0  0  0
 29 28  2  0  0  0  0
 30 25  2  0  0  0  0
 33 28  1  0  0  0  0
 34 29  1  0  0  0  0
 35 30  1  0  0  0  0
 35 38  1  0  0  0  0
 36 35  1  0  0  0  0
 37 35  1  0  0  0  0
M  END
>  <minimizedAffinity>
-6.33977556

$$$$

 OpenBabel03242522363D

 38 40  0  0  0  0  0  0  0  0999 V2000
   36.9020   29.4420   41.2740 C   0  0  0  0  0  0  0  0  0  0  0  0
   37.1090   30.3720   40.2920 C   0  0  0  0  0  0  0  0  0  0  0  0
   37.4350   29.9250   39.0260 C   0  0  0  0  0  0  0  0  0  0  0  0
   37.5660   28.5880   38.6840 C   0  0  0  0  0  0  0  0  0  0  0  0
   37.3540   27.6480   39.6840 C   0  0  0  0  0  0  0  0  0  0  0  0
   37.0250   28.0980   40.9660 C   0  0  0  0  0  0  0  0  0  0  0  0
   37.6140   30.6060   38.1980 H   0  0  0  0  0  0  0  0  0  0  0  0
   37.8200   28.2590   37.6930 H   0  0  0  0  0  0  0  0  0  0  0  0
   37.4380   26.5830   39.4920 H   0  0  0  0  0  0  0  0  0  0  0  0
   36.9960   31.8230   40.5350 C   0  0  0  0  0  0  0  0  0  0  0  0
   36.3910   32.0980   41.3910 H   0  0  0  0  0  0  0  0  0  0  0  0
   36.4510   32.2570   39.6440 H   0  0  0  0  0  0  0  0  0  0  0  0
   40.6060   32.5650   40.8710 C   0  0  0  0  0  0  0  0  0  0  0  0
   40.6690   33.8960   40.4600 C   0  0  0  0  0  0  0  0  0  0  0  0
   39.4750   34.5070   40.0800 C   0  0  0  0  0  0  0  0  0  0  0  0
   38.3360   33.7890   40.1270 N   0  0  0  0  0  0  0  0  0  0  0  0
   38.3050   32.4990   40.5290 C   0  0  0  0  0  0  0  0  0  0  0  0
   39.4450   31.9070   40.8960 N   0  0  0  0  0  0  0  0  0  0  0  0
   41.5100   32.0330   41.1810 H   0  0  0  0  0  0  0  0  0  0  0  0
   41.6470   34.3450   40.4730 H   0  0  0  0  0  0  0  0  0  0  0  0
   39.5320   35.5210   39.7680 H   0  0  0  0  0  0  0  0  0  0  0  0
   36.5760   29.8340   42.5380 O   0  0  0  0  0  0  0  0  0  0  0  0
   37.2630   30.1530   43.1970 H   0  0  0  0  0  0  0  0  0  0  0  0
   36.8220   27.1490   41.9550 O   0  0  0  0  0  0  0  0  0  0  0  0
   37.9340   26.4940   42.4540 C   0  0  0  0  0  0  0  0  0  0  0  0
   38.8120   27.2650   43.2330 C   0  0  0  0  0  0  0  0  0  0  0  0
   39.9400   26.6820   43.7650 C   0  0  0  0  0  0  0  0  0  0  0  0
   40.2130   25.3430   43.5400 C   0  0  0  0  0  0  0  0  0  0  0  0
   39.3110   24.6460   42.7680 C   0  0  0  0  0  0  0  0  0  0  0  0
   38.1480   25.1660   42.1940 C   0  0  0  0  0  0  0  0  0  0  0  0
   38.5890   28.3210   43.4050 H   0  0  0  0  0  0  0  0  0  0  0  0
   40.5850   27.3150   44.3560 H   0  0  0  0  0  0  0  0  0  0  0  0
   41.0840   24.8770   43.9490 H   0  0  0  0  0  0  0  0  0  0  0  0
   39.5640   23.5850   42.6140 H   0  0  0  0  0  0  0  0  0  0  0  0
   37.3200   24.2860   41.3630 C   0  0  0  0  0  0  0  0  0  0  0  0
   37.4860   24.5710   39.9950 F   0  0  0  0  0  0  0  0  0  0  0  0
   37.8490   22.9710   41.4540 F   0  0  0  0  0  0  0  0  0  0  0  0
   36.0140   24.1370   41.7150 F   0  0  0  0  0  0  0  0  0  0  0  0
  1 22  1  0  0  0  0
  2 10  1  0  0  0  0
  2  1  2  0  0  0  0
  3  2  1  0  0  0  0
  4  3  2  0  0  0  0
  4  5  1  0  0  0  0
  5  6  2  0  0  0  0
  6  1  1  0  0  0  0
  6 24  1  0  0  0  0
  7  3  1  0  0  0  0
  8  4  1  0  0  0  0
  9  5  1  0  0  0  0
 10 11  1  0  0  0  0
 12 10  1  0  0  0  0
 13 18  1  0  0  0  0
 13 19  1  0  0  0  0
 14 20  1  0  0  0  0
 14 13  2  0  0  0  0
 15 16  2  0  0  0  0
 15 14  1  0  0  0  0
 16 17  1  0  0  0  0
 17 10  1  0  0  0  0
 17 18  2  0  0  0  0
 21 15  1  0  0  0  0
 22 23  1  0  0  0  0
 24 25  1  0  0  0  0
 25 26  1  0  0  0  0
 26 31  1  0  0  0  0
 26 27  2  0  0  0  0
 27 32  1  0  0  0  0
 28 27  1  0  0  0  0
 28 33  1  0  0  0  0
 29 28  2  0  0  0  0
 30 25  2  0  0  0  0
 30 29  1  0  0  0  0
 34 29  1  0  0  0  0
 35 37  1  0  0  0  0
 35 38  1  0  0  0  0
 35 30  1  0  0  0  0
 36 35  1  0  0  0  0
M  END
>  <minimizedAffinity>
-6.33933735

$$$$

 OpenBabel03242522363D

 38 40  0  0  0  0  0  0  0  0999 V2000
   37.1460   29.3420   42.0810 C   0  0  0  0  0  0  0  0  0  0  0  0
   38.1550   28.9680   42.9270 C   0  0  0  0  0  0  0  0  0  0  0  0
   39.3350   29.6850   42.8950 C   0  0  0  0  0  0  0  0  0  0  0  0
   39.5650   30.7650   42.0570 C   0  0  0  0  0  0  0  0  0  0  0  0
   38.5380   31.1410   41.2020 C   0  0  0  0  0  0  0  0  0  0  0  0
   37.3430   30.4170   41.2310 C   0  0  0  0  0  0  0  0  0  0  0  0
   40.1780   29.4440   43.5380 H   0  0  0  0  0  0  0  0  0  0  0  0
   40.4900   31.3120   42.0470 H   0  0  0  0  0  0  0  0  0  0  0  0
   38.6440   31.9780   40.5170 H   0  0  0  0  0  0  0  0  0  0  0  0
   38.0260   27.8360   43.8650 C   0  0  0  0  0  0  0  0  0  0  0  0
   37.0780   27.7800   44.3880 H   0  0  0  0  0  0  0  0  0  0  0  0
   38.7960   28.0020   44.6760 H   0  0  0  0  0  0  0  0  0  0  0  0
   38.0240   24.7110   41.8830 C   0  0  0  0  0  0  0  0  0  0  0  0
   39.2700   24.1680   42.1930 C   0  0  0  0  0  0  0  0  0  0  0  0
   40.0790   24.8850   43.0730 C   0  0  0  0  0  0  0  0  0  0  0  0
   39.6230   26.0490   43.5730 N   0  0  0  0  0  0  0  0  0  0  0  0
   38.4090   26.5520   43.2530 C   0  0  0  0  0  0  0  0  0  0  0  0
   37.6270   25.8710   42.4110 N   0  0  0  0  0  0  0  0  0  0  0  0
   37.3440   24.1940   41.1980 H   0  0  0  0  0  0  0  0  0  0  0  0
   39.5040   23.2300   41.7210 H   0  0  0  0  0  0  0  0  0  0  0  0
   41.0280   24.4640   43.3050 H   0  0  0  0  0  0  0  0  0  0  0  0
   35.9620   28.6670   42.0770 O   0  0  0  0  0  0  0  0  0  0  0  0
   35.8400   27.7970   41.5920 H   0  0  0  0  0  0  0  0  0  0  0  0
   36.3300   30.8000   40.3680 O   0  0  0  0  0  0  0  0  0  0  0  0
   36.5520   30.6510   39.0110 C   0  0  0  0  0  0  0  0  0  0  0  0
   37.3680   31.6200   38.4050 C   0  0  0  0  0  0  0  0  0  0  0  0
   37.6360   31.5380   37.0570 C   0  0  0  0  0  0  0  0  0  0  0  0
   37.1090   30.5080   36.2960 C   0  0  0  0  0  0  0  0  0  0  0  0
   36.3170   29.5920   36.9530 C   0  0  0  0  0  0  0  0  0  0  0  0
   36.0000   29.6090   38.3130 C   0  0  0  0  0  0  0  0  0  0  0  0
   37.7800   32.4300   39.0120 H   0  0  0  0  0  0  0  0  0  0  0  0
   38.2680   32.3060   36.6360 H   0  0  0  0  0  0  0  0  0  0  0  0
   37.3100   30.4300   35.2490 H   0  0  0  0  0  0  0  0  0  0  0  0
   35.9190   28.7890   36.3120 H   0  0  0  0  0  0  0  0  0  0  0  0
   35.1050   28.5730   38.8390 C   0  0  0  0  0  0  0  0  0  0  0  0
   34.0860   29.1330   39.6300 F   0  0  0  0  0  0  0  0  0  0  0  0
   34.3680   28.0350   37.7510 F   0  0  0  0  0  0  0  0  0  0  0  0
   35.6790   27.4810   39.4150 F   0  0  0  0  0  0  0  0  0  0  0  0
  1  2  1  0  0  0  0
  2 10  1  0  0  0  0
  3  2  2  0  0  0  0
  3  7  1  0  0  0  0
  4  3  1  0  0  0  0
  5  6  1  0  0  0  0
  5  4  2  0  0  0  0
  6  1  2  0  0  0  0
  8  4  1  0  0  0  0
  9  5  1  0  0  0  0
 10 11  1  0  0  0  0
 10 12  1  0  0  0  0
 13 14  2  0  0  0  0
 13 18  1  0  0  0  0
 14 15  1  0  0  0  0
 15 21  1  0  0  0  0
 15 16  2  0  0  0  0
 17 16  1  0  0  0  0
 17 10  1  0  0  0  0
 18 17  2  0  0  0  0
 19 13  1  0  0  0  0
 20 14  1  0  0  0  0
 22  1  1  0  0  0  0
 23 22  1  0  0  0  0
 24  6  1  0  0  0  0
 25 24  1  0  0  0  0
 26 25  1  0  0  0  0
 26 31  1  0  0  0  0
 27 26  2  0  0  0  0
 28 29  2  0  0  0  0
 28 27  1  0  0  0  0
 29 30  1  0  0  0  0
 30 35  1  0  0  0  0
 30 25  2  0  0  0  0
 32 27  1  0  0  0  0
 33 28  1  0  0  0  0
 34 29  1  0  0  0  0
 35 38  1  0  0  0  0
 35 36  1  0  0  0  0
 37 35  1  0  0  0  0
M  END
>  <minimizedAffinity>
-6.22165298

$$$$

 OpenBabel03242522363D

 38 40  0  0  0  0  0  0  0  0999 V2000
   38.0170   31.5060   41.1210 C   0  0  0  0  0  0  0  0  0  0  0  0
   39.1760   32.2330   41.1290 C   0  0  0  0  0  0  0  0  0  0  0  0
   40.2880   31.6870   41.7390 C   0  0  0  0  0  0  0  0  0  0  0  0
   40.3060   30.4420   42.3480 C   0  0  0  0  0  0  0  0  0  0  0  0
   39.1280   29.7070   42.3380 C   0  0  0  0  0  0  0  0  0  0  0  0
   38.0010   30.2590   41.7220 C   0  0  0  0  0  0  0  0  0  0  0  0
   41.2410   32.2070   41.7830 H   0  0  0  0  0  0  0  0  0  0  0  0
   41.1810   30.0320   42.8180 H   0  0  0  0  0  0  0  0  0  0  0  0
   39.0650   28.7240   42.7950 H   0  0  0  0  0  0  0  0  0  0  0  0
   39.2790   33.5700   40.5100 C   0  0  0  0  0  0  0  0  0  0  0  0
   39.3690   34.3920   41.2100 H   0  0  0  0  0  0  0  0  0  0  0  0
   38.3010   33.7510   39.9730 H   0  0  0  0  0  0  0  0  0  0  0  0
   42.1670   34.5360   38.4080 C   0  0  0  0  0  0  0  0  0  0  0  0
   42.1240   33.5770   37.3960 C   0  0  0  0  0  0  0  0  0  0  0  0
   41.1080   32.6250   37.4590 C   0  0  0  0  0  0  0  0  0  0  0  0
   40.2310   32.6780   38.4790 N   0  0  0  0  0  0  0  0  0  0  0  0
   40.2970   33.6200   39.4470 C   0  0  0  0  0  0  0  0  0  0  0  0
   41.2680   34.5360   39.3940 N   0  0  0  0  0  0  0  0  0  0  0  0
   42.9410   35.3090   38.4120 H   0  0  0  0  0  0  0  0  0  0  0  0
   42.8890   33.6550   36.6440 H   0  0  0  0  0  0  0  0  0  0  0  0
   41.0830   31.8970   36.6840 H   0  0  0  0  0  0  0  0  0  0  0  0
   36.8940   32.0020   40.5300 O   0  0  0  0  0  0  0  0  0  0  0  0
   36.2950   32.6660   40.9830 H   0  0  0  0  0  0  0  0  0  0  0  0
   36.8310   29.5170   41.7240 O   0  0  0  0  0  0  0  0  0  0  0  0
   36.7530   28.4380   40.8620 C   0  0  0  0  0  0  0  0  0  0  0  0
   36.5950   28.7410   39.5000 C   0  0  0  0  0  0  0  0  0  0  0  0
   36.5110   27.7190   38.5810 C   0  0  0  0  0  0  0  0  0  0  0  0
   36.5830   26.3980   38.9890 C   0  0  0  0  0  0  0  0  0  0  0  0
   36.7380   26.1720   40.3390 C   0  0  0  0  0  0  0  0  0  0  0  0
   36.8290   27.1520   41.3300 C   0  0  0  0  0  0  0  0  0  0  0  0
   36.5390   29.7860   39.1870 H   0  0  0  0  0  0  0  0  0  0  0  0
   36.3890   28.0010   37.5460 H   0  0  0  0  0  0  0  0  0  0  0  0
   36.5210   25.5940   38.2870 H   0  0  0  0  0  0  0  0  0  0  0  0
   36.7910   25.1080   40.6210 H   0  0  0  0  0  0  0  0  0  0  0  0
   36.9520   26.7290   42.7280 C   0  0  0  0  0  0  0  0  0  0  0  0
   35.9750   27.3410   43.5340 F   0  0  0  0  0  0  0  0  0  0  0  0
   36.5790   25.3610   42.8080 F   0  0  0  0  0  0  0  0  0  0  0  0
   38.1920   26.7620   43.2880 F   0  0  0  0  0  0  0  0  0  0  0  0
  1  2  2  0  0  0  0
  1  6  1  0  0  0  0
  2  3  1  0  0  0  0
  3  7  1  0  0  0  0
  3  4  2  0  0  0  0
  4  8  1  0  0  0  0
  5  4  1  0  0  0  0
  5  9  1  0  0  0  0
  6 24  1  0  0  0  0
  6  5  2  0  0  0  0
 10  2  1  0  0  0  0
 10 11  1  0  0  0  0
 12 10  1  0  0  0  0
 13 19  1  0  0  0  0
 13 18  1  0  0  0  0
 14 15  1  0  0  0  0
 14 13  2  0  0  0  0
 15 16  2  0  0  0  0
 16 17  1  0  0  0  0
 17 10  1  0  0  0  0
 18 17  2  0  0  0  0
 20 14  1  0  0  0  0
 21 15  1  0  0  0  0
 22 23  1  0  0  0  0
 22  1  1  0  0  0  0
 25 30  1  0  0  0  0
 25 24  1  0  0  0  0
 26 25  2  0  0  0  0
 27 28  2  0  0  0  0
 27 26  1  0  0  0  0
 28 29  1  0  0  0  0
 29 34  1  0  0  0  0
 29 30  2  0  0  0  0
 30 35  1  0  0  0  0
 31 26  1  0  0  0  0
 32 27  1  0  0  0  0
 33 28  1  0  0  0  0
 35 37  1  0  0  0  0
 35 38  1  0  0  0  0
 35 36  1  0  0  0  0
M  END
>  <minimizedAffinity>
-6.18153048

$$$$

 OpenBabel03242522363D

 38 40  0  0  0  0  0  0  0  0999 V2000
   36.6580   29.5990   41.0950 C   0  0  0  0  0  0  0  0  0  0  0  0
   36.7850   30.4630   40.0410 C   0  0  0  0  0  0  0  0  0  0  0  0
   36.8640   29.9350   38.7670 C   0  0  0  0  0  0  0  0  0  0  0  0
   36.8230   28.5780   38.4850 C   0  0  0  0  0  0  0  0  0  0  0  0
   36.6940   27.7050   39.5580 C   0  0  0  0  0  0  0  0  0  0  0  0
   36.6150   28.2380   40.8480 C   0  0  0  0  0  0  0  0  0  0  0  0
   36.9660   30.5600   37.8840 H   0  0  0  0  0  0  0  0  0  0  0  0
   36.8860   28.1850   37.4870 H   0  0  0  0  0  0  0  0  0  0  0  0
   36.6550   26.6290   39.4150 H   0  0  0  0  0  0  0  0  0  0  0  0
   36.8370   31.9280   40.2160 C   0  0  0  0  0  0  0  0  0  0  0  0
   36.1940   32.3180   40.9960 H   0  0  0  0  0  0  0  0  0  0  0  0
   36.4400   32.3800   39.2580 H   0  0  0  0  0  0  0  0  0  0  0  0
   39.8920   33.9900   39.8870 C   0  0  0  0  0  0  0  0  0  0  0  0
   40.8280   33.2400   40.5980 C   0  0  0  0  0  0  0  0  0  0  0  0
   40.3900   32.0470   41.1710 C   0  0  0  0  0  0  0  0  0  0  0  0
   39.1030   31.6840   41.0110 N   0  0  0  0  0  0  0  0  0  0  0  0
   38.2170   32.4330   40.3160 C   0  0  0  0  0  0  0  0  0  0  0  0
   38.6280   33.5770   39.7640 N   0  0  0  0  0  0  0  0  0  0  0  0
   40.1760   34.9360   39.4140 H   0  0  0  0  0  0  0  0  0  0  0  0
   41.8210   33.6510   40.6430 H   0  0  0  0  0  0  0  0  0  0  0  0
   41.1100   31.4810   41.7110 H   0  0  0  0  0  0  0  0  0  0  0  0
   36.5740   30.0720   42.3690 O   0  0  0  0  0  0  0  0  0  0  0  0
   37.3820   30.3530   42.8940 H   0  0  0  0  0  0  0  0  0  0  0  0
   36.4920   27.3550   41.9080 O   0  0  0  0  0  0  0  0  0  0  0  0
   37.3950   26.3090   41.9800 C   0  0  0  0  0  0  0  0  0  0  0  0
   36.9220   25.0510   41.5710 C   0  0  0  0  0  0  0  0  0  0  0  0
   37.7640   23.9620   41.6140 C   0  0  0  0  0  0  0  0  0  0  0  0
   39.0690   24.0980   42.0540 C   0  0  0  0  0  0  0  0  0  0  0  0
   39.4670   25.3580   42.4410 C   0  0  0  0  0  0  0  0  0  0  0  0
   38.6750   26.5080   42.4280 C   0  0  0  0  0  0  0  0  0  0  0  0
   35.8910   24.9530   41.2240 H   0  0  0  0  0  0  0  0  0  0  0  0
   37.3550   23.0160   41.2900 H   0  0  0  0  0  0  0  0  0  0  0  0
   39.7340   23.2610   42.0910 H   0  0  0  0  0  0  0  0  0  0  0  0
   40.5120   25.4230   42.7840 H   0  0  0  0  0  0  0  0  0  0  0  0
   39.2520   27.7650   42.9140 C   0  0  0  0  0  0  0  0  0  0  0  0
   38.4150   28.3760   43.8670 F   0  0  0  0  0  0  0  0  0  0  0  0
   40.3970   27.4510   43.6930 F   0  0  0  0  0  0  0  0  0  0  0  0
   39.7200   28.6430   41.9850 F   0  0  0  0  0  0  0  0  0  0  0  0
  1 22  1  0  0  0  0
  2 10  1  0  0  0  0
  2  1  2  0  0  0  0
  3  2  1  0  0  0  0
  4  3  2  0  0  0  0
  4  5  1  0  0  0  0
  5  6  2  0  0  0  0
  6  1  1  0  0  0  0
  6 24  1  0  0  0  0
  7  3  1  0  0  0  0
  8  4  1  0  0  0  0
  9  5  1  0  0  0  0
 10 17  1  0  0  0  0
 10 11  1  0  0  0  0
 12 10  1  0  0  0  0
 13 14  1  0  0  0  0
 14 20  1  0  0  0  0
 14 15  2  0  0  0  0
 15 21  1  0  0  0  0
 16 15  1  0  0  0  0
 17 16  2  0  0  0  0
 18 13  2  0  0  0  0
 18 17  1  0  0  0  0
 19 13  1  0  0  0  0
 22 23  1  0  0  0  0
 24 25  1  0  0  0  0
 25 30  1  0  0  0  0
 26 27  1  0  0  0  0
 26 25  2  0  0  0  0
 27 28  2  0  0  0  0
 28 33  1  0  0  0  0
 28 29  1  0  0  0  0
 29 34  1  0  0  0  0
 30 29  2  0  0  0  0
 30 35  1  0  0  0  0
 31 26  1  0  0  0  0
 32 27  1  0  0  0  0
 35 37  1  0  0  0  0
 35 36  1  0  0  0  0
 38 35  1  0  0  0  0
M  END
>  <minimizedAffinity>
-6.08576775

$$$$

 OpenBabel03242522363D

 38 40  0  0  0  0  0  0  0  0999 V2000
   37.7950   28.9180   42.3910 C   0  0  0  0  0  0  0  0  0  0  0  0
   38.7410   28.1330   42.9920 C   0  0  0  0  0  0  0  0  0  0  0  0
   40.0520   28.5680   42.9860 C   0  0  0  0  0  0  0  0  0  0  0  0
   40.4740   29.7550   42.4080 C   0  0  0  0  0  0  0  0  0  0  0  0
   39.5100   30.5480   41.7990 C   0  0  0  0  0  0  0  0  0  0  0  0
   38.1830   30.1100   41.8030 C   0  0  0  0  0  0  0  0  0  0  0  0
   40.8560   27.9970   43.4440 H   0  0  0  0  0  0  0  0  0  0  0  0
   41.4990   30.0770   42.4130 H   0  0  0  0  0  0  0  0  0  0  0  0
   39.7650   31.4920   41.3250 H   0  0  0  0  0  0  0  0  0  0  0  0
   38.4120   26.8500   43.6430 C   0  0  0  0  0  0  0  0  0  0  0  0
   37.5890   26.8920   44.3470 H   0  0  0  0  0  0  0  0  0  0  0  0
   39.3130   26.5660   44.2660 H   0  0  0  0  0  0  0  0  0  0  0  0
   39.1250   24.1080   41.2620 C   0  0  0  0  0  0  0  0  0  0  0  0
   37.8430   23.7100   40.8850 C   0  0  0  0  0  0  0  0  0  0  0  0
   36.7680   24.3900   41.4530 C   0  0  0  0  0  0  0  0  0  0  0  0
   37.0170   25.3840   42.3270 N   0  0  0  0  0  0  0  0  0  0  0  0
   38.2720   25.7480   42.6750 C   0  0  0  0  0  0  0  0  0  0  0  0
   39.3080   25.1020   42.1350 N   0  0  0  0  0  0  0  0  0  0  0  0
   40.0090   23.6110   40.8490 H   0  0  0  0  0  0  0  0  0  0  0  0
   37.7930   22.9010   40.1770 H   0  0  0  0  0  0  0  0  0  0  0  0
   35.7940   24.0800   41.1600 H   0  0  0  0  0  0  0  0  0  0  0  0
   36.4880   28.5330   42.3720 O   0  0  0  0  0  0  0  0  0  0  0  0
   36.1330   27.8650   41.7140 H   0  0  0  0  0  0  0  0  0  0  0  0
   37.2340   30.9090   41.1870 O   0  0  0  0  0  0  0  0  0  0  0  0
   37.2560   30.9840   39.8060 C   0  0  0  0  0  0  0  0  0  0  0  0
   36.8380   29.8350   39.1140 C   0  0  0  0  0  0  0  0  0  0  0  0
   36.8310   29.8360   37.7370 C   0  0  0  0  0  0  0  0  0  0  0  0
   37.2310   30.9570   37.0320 C   0  0  0  0  0  0  0  0  0  0  0  0
   37.6290   32.0480   37.7720 C   0  0  0  0  0  0  0  0  0  0  0  0
   37.6640   32.1250   39.1660 C   0  0  0  0  0  0  0  0  0  0  0  0
   36.5240   28.9550   39.6790 H   0  0  0  0  0  0  0  0  0  0  0  0
   36.5020   28.9300   37.2500 H   0  0  0  0  0  0  0  0  0  0  0  0
   37.2290   30.9720   35.9630 H   0  0  0  0  0  0  0  0  0  0  0  0
   37.9380   32.9200   37.1720 H   0  0  0  0  0  0  0  0  0  0  0  0
   38.1560   33.3570   39.7910 C   0  0  0  0  0  0  0  0  0  0  0  0
   39.3710   33.7720   39.2140 F   0  0  0  0  0  0  0  0  0  0  0  0
   37.2830   34.4150   39.4230 F   0  0  0  0  0  0  0  0  0  0  0  0
   38.1750   33.4080   41.1500 F   0  0  0  0  0  0  0  0  0  0  0  0
  1  2  1  0  0  0  0
  2 10  1  0  0  0  0
  3  2  2  0  0  0  0
  3  7  1  0  0  0  0
  4  8  1  0  0  0  0
  4  3  1  0  0  0  0
  5  6  1  0  0  0  0
  5  4  2  0  0  0  0
  6  1  2  0  0  0  0
  9  5  1  0  0  0  0
 10 12  1  0  0  0  0
 10 11  1  0  0  0  0
 13 18  1  0  0  0  0
 14 13  2  0  0  0  0
 14 15  1  0  0  0  0
 15 16  2  0  0  0  0
 16 17  1  0  0  0  0
 17 10  1  0  0  0  0
 18 17  2  0  0  0  0
 19 13  1  0  0  0  0
 20 14  1  0  0  0  0
 21 15  1  0  0  0  0
 22  1  1  0  0  0  0
 23 22  1  0  0  0  0
 24  6  1  0  0  0  0
 25 24  1  0  0  0  0
 26 31  1  0  0  0  0
 26 25  2  0  0  0  0
 27 26  1  0  0  0  0
 28 27  2  0  0  0  0
 28 29  1  0  0  0  0
 29 30  2  0  0  0  0
 30 35  1  0  0  0  0
 30 25  1  0  0  0  0
 32 27  1  0  0  0  0
 33 28  1  0  0  0  0
 34 29  1  0  0  0  0
 35 38  1  0  0  0  0
 36 35  1  0  0  0  0
 37 35  1  0  0  0  0
M  END
>  <minimizedAffinity>
-6.01125765

$$$$

 OpenBabel03242522363D

 38 40  0  0  0  0  0  0  0  0999 V2000
   34.1960   28.8410   37.0600 C   0  0  0  0  0  0  0  0  0  0  0  0
   33.3960   28.9890   35.9590 C   0  0  0  0  0  0  0  0  0  0  0  0
   33.9860   29.3540   34.7650 C   0  0  0  0  0  0  0  0  0  0  0  0
   35.3450   29.5810   34.6070 C   0  0  0  0  0  0  0  0  0  0  0  0
   36.1530   29.4290   35.7270 C   0  0  0  0  0  0  0  0  0  0  0  0
   35.5580   29.0610   36.9370 C   0  0  0  0  0  0  0  0  0  0  0  0
   33.4120   29.4900   33.8520 H   0  0  0  0  0  0  0  0  0  0  0  0
   35.7860   29.8640   33.6700 H   0  0  0  0  0  0  0  0  0  0  0  0
   37.2260   29.5900   35.6800 H   0  0  0  0  0  0  0  0  0  0  0  0
   31.9370   28.7710   36.0040 C   0  0  0  0  0  0  0  0  0  0  0  0
   31.6270   27.8360   36.4540 H   0  0  0  0  0  0  0  0  0  0  0  0
   31.5890   28.7050   34.9300 H   0  0  0  0  0  0  0  0  0  0  0  0
   30.3760   32.0980   36.4390 C   0  0  0  0  0  0  0  0  0  0  0  0
   29.8310   31.9990   37.7190 C   0  0  0  0  0  0  0  0  0  0  0  0
   30.0130   30.7970   38.4010 C   0  0  0  0  0  0  0  0  0  0  0  0
   30.6960   29.8050   37.7970 N   0  0  0  0  0  0  0  0  0  0  0  0
   31.2120   29.9300   36.5540 C   0  0  0  0  0  0  0  0  0  0  0  0
   31.0430   31.0780   35.8940 N   0  0  0  0  0  0  0  0  0  0  0  0
   30.2660   33.0170   35.8550 H   0  0  0  0  0  0  0  0  0  0  0  0
   29.3110   32.8710   38.0760 H   0  0  0  0  0  0  0  0  0  0  0  0
   29.5950   30.7290   39.3760 H   0  0  0  0  0  0  0  0  0  0  0  0
   33.6610   28.4800   38.2600 O   0  0  0  0  0  0  0  0  0  0  0  0
   33.2080   29.1370   38.8670 H   0  0  0  0  0  0  0  0  0  0  0  0
   36.3750   28.9190   38.0450 O   0  0  0  0  0  0  0  0  0  0  0  0
   36.6550   30.0530   38.7870 C   0  0  0  0  0  0  0  0  0  0  0  0
   37.0310   31.1940   38.0590 C   0  0  0  0  0  0  0  0  0  0  0  0
   37.3230   32.3620   38.7280 C   0  0  0  0  0  0  0  0  0  0  0  0
   37.2470   32.4190   40.1090 C   0  0  0  0  0  0  0  0  0  0  0  0
   36.8730   31.2650   40.7600 C   0  0  0  0  0  0  0  0  0  0  0  0
   36.5630   30.0450   40.1540 C   0  0  0  0  0  0  0  0  0  0  0  0
   37.0880   31.1400   36.9690 H   0  0  0  0  0  0  0  0  0  0  0  0
   37.6080   33.2120   38.1260 H   0  0  0  0  0  0  0  0  0  0  0  0
   37.4700   33.3200   40.6410 H   0  0  0  0  0  0  0  0  0  0  0  0
   36.8250   31.3540   41.8570 H   0  0  0  0  0  0  0  0  0  0  0  0
   36.2220   28.9030   41.0070 C   0  0  0  0  0  0  0  0  0  0  0  0
   36.5200   29.1670   42.3560 F   0  0  0  0  0  0  0  0  0  0  0  0
   34.8060   28.7860   41.0390 F   0  0  0  0  0  0  0  0  0  0  0  0
   36.6410   27.6720   40.6060 F   0  0  0  0  0  0  0  0  0  0  0  0
  1 22  1  0  0  0  0
  2 10  1  0  0  0  0
  2  1  2  0  0  0  0
  3  2  1  0  0  0  0
  4  3  2  0  0  0  0
  4  5  1  0  0  0  0
  5  6  2  0  0  0  0
  6  1  1  0  0  0  0
  6 24  1  0  0  0  0
  7  3  1  0  0  0  0
  8  4  1  0  0  0  0
  9  5  1  0  0  0  0
 10 11  1  0  0  0  0
 10 17  1  0  0  0  0
 12 10  1  0  0  0  0
 13 14  1  0  0  0  0
 14 20  1  0  0  0  0
 14 15  2  0  0  0  0
 15 21  1  0  0  0  0
 16 15  1  0  0  0  0
 17 16  2  0  0  0  0
 18 13  2  0  0  0  0
 18 17  1  0  0  0  0
 19 13  1  0  0  0  0
 22 23  1  0  0  0  0
 24 25  1  0  0  0  0
 25 30  1  0  0  0  0
 26 27  1  0  0  0  0
 26 25  2  0  0  0  0
 27 28  2  0  0  0  0
 28 33  1  0  0  0  0
 28 29  1  0  0  0  0
 29 34  1  0  0  0  0
 30 29  2  0  0  0  0
 30 35  1  0  0  0  0
 31 26  1  0  0  0  0
 32 27  1  0  0  0  0
 35 37  1  0  0  0  0
 35 36  1  0  0  0  0
 38 35  1  0  0  0  0
M  END
>  <minimizedAffinity>
-5.75066376

$$$$

 OpenBabel03242522363D

 38 40  0  0  0  0  0  0  0  0999 V2000
   37.2160   28.7900   39.6320 C   0  0  0  0  0  0  0  0  0  0  0  0
   37.2860   29.8950   38.8280 C   0  0  0  0  0  0  0  0  0  0  0  0
   36.9900   31.1260   39.3780 C   0  0  0  0  0  0  0  0  0  0  0  0
   36.6250   31.3170   40.7020 C   0  0  0  0  0  0  0  0  0  0  0  0
   36.5550   30.1940   41.5150 C   0  0  0  0  0  0  0  0  0  0  0  0
   36.8530   28.9460   40.9590 C   0  0  0  0  0  0  0  0  0  0  0  0
   37.0260   32.0450   38.7990 H   0  0  0  0  0  0  0  0  0  0  0  0
   36.3990   32.2840   41.1130 H   0  0  0  0  0  0  0  0  0  0  0  0
   36.2760   30.2640   42.5620 H   0  0  0  0  0  0  0  0  0  0  0  0
   37.6660   29.8170   37.4030 C   0  0  0  0  0  0  0  0  0  0  0  0
   38.4780   29.1330   37.1830 H   0  0  0  0  0  0  0  0  0  0  0  0
   38.0610   30.8380   37.1200 H   0  0  0  0  0  0  0  0  0  0  0  0
   35.4040   29.7530   34.4760 C   0  0  0  0  0  0  0  0  0  0  0  0
   34.2550   29.1680   35.0080 C   0  0  0  0  0  0  0  0  0  0  0  0
   34.2840   28.8110   36.3550 C   0  0  0  0  0  0  0  0  0  0  0  0
   35.4040   29.0460   37.0650 N   0  0  0  0  0  0  0  0  0  0  0  0
   36.5040   29.6140   36.5210 C   0  0  0  0  0  0  0  0  0  0  0  0
   36.4850   29.9590   35.2320 N   0  0  0  0  0  0  0  0  0  0  0  0
   35.4410   30.0540   33.4240 H   0  0  0  0  0  0  0  0  0  0  0  0
   33.4340   29.0400   34.3240 H   0  0  0  0  0  0  0  0  0  0  0  0
   33.4040   28.3650   36.7530 H   0  0  0  0  0  0  0  0  0  0  0  0
   37.5000   27.5540   39.1350 O   0  0  0  0  0  0  0  0  0  0  0  0
   36.8370   27.0210   38.6040 H   0  0  0  0  0  0  0  0  0  0  0  0
   36.7740   27.8340   41.7810 O   0  0  0  0  0  0  0  0  0  0  0  0
   37.9550   27.3310   42.2970 C   0  0  0  0  0  0  0  0  0  0  0  0
   38.8870   28.2780   42.7510 C   0  0  0  0  0  0  0  0  0  0  0  0
   40.0860   27.8530   43.2800 C   0  0  0  0  0  0  0  0  0  0  0  0
   40.3770   26.5030   43.3680 C   0  0  0  0  0  0  0  0  0  0  0  0
   39.4190   25.6290   42.9040 C   0  0  0  0  0  0  0  0  0  0  0  0
   38.1840   25.9810   42.3550 C   0  0  0  0  0  0  0  0  0  0  0  0
   38.6500   29.3420   42.6780 H   0  0  0  0  0  0  0  0  0  0  0  0
   40.7700   28.6180   43.6150 H   0  0  0  0  0  0  0  0  0  0  0  0
   41.3020   26.1580   43.7770 H   0  0  0  0  0  0  0  0  0  0  0  0
   39.6890   24.5640   42.9930 H   0  0  0  0  0  0  0  0  0  0  0  0
   37.2990   24.9160   41.8730 C   0  0  0  0  0  0  0  0  0  0  0  0
   37.8990   23.6520   42.0120 F   0  0  0  0  0  0  0  0  0  0  0  0
   36.2010   24.8180   42.7690 F   0  0  0  0  0  0  0  0  0  0  0  0
   36.7120   25.0900   40.6570 F   0  0  0  0  0  0  0  0  0  0  0  0
  1  6  1  0  0  0  0
  2  3  1  0  0  0  0
  2  1  2  0  0  0  0
  3  4  2  0  0  0  0
  4  8  1  0  0  0  0
  4  5  1  0  0  0  0
  5  9  1  0  0  0  0
  6  5  2  0  0  0  0
  6 24  1  0  0  0  0
  7  3  1  0  0  0  0
 10  2  1  0  0  0  0
 11 10  1  0  0  0  0
 12 10  1  0  0  0  0
 13 14  2  0  0  0  0
 13 18  1  0  0  0  0
 14 15  1  0  0  0  0
 15 21  1  0  0  0  0
 15 16  2  0  0  0  0
 17 16  1  0  0  0  0
 17 10  1  0  0  0  0
 18 17  2  0  0  0  0
 19 13  1  0  0  0  0
 20 14  1  0  0  0  0
 22  1  1  0  0  0  0
 23 22  1  0  0  0  0
 24 25  1  0  0  0  0
 25 30  2  0  0  0  0
 25 26  1  0  0  0  0
 26 27  2  0  0  0  0
 27 28  1  0  0  0  0
 27 32  1  0  0  0  0
 28 33  1  0  0  0  0
 29 34  1  0  0  0  0
 29 28  2  0  0  0  0
 30 29  1  0  0  0  0
 31 26  1  0  0  0  0
 35 36  1  0  0  0  0
 35 30  1  0  0  0  0
 35 37  1  0  0  0  0
 38 35  1  0  0  0  0
M  END
>  <minimizedAffinity>
-5.70306492

$$$$

 OpenBabel03242522363D

 38 40  0  0  0  0  0  0  0  0999 V2000
   36.8510   29.6370   38.7010 C   0  0  0  0  0  0  0  0  0  0  0  0
   36.3830   29.1490   37.5110 C   0  0  0  0  0  0  0  0  0  0  0  0
   35.0670   28.7390   37.4440 C   0  0  0  0  0  0  0  0  0  0  0  0
   34.1820   28.7890   38.5110 C   0  0  0  0  0  0  0  0  0  0  0  0
   34.6610   29.2850   39.7160 C   0  0  0  0  0  0  0  0  0  0  0  0
   35.9940   29.7000   39.7870 C   0  0  0  0  0  0  0  0  0  0  0  0
   34.6280   28.3410   36.5320 H   0  0  0  0  0  0  0  0  0  0  0  0
   33.1600   28.4650   38.4390 H   0  0  0  0  0  0  0  0  0  0  0  0
   34.0270   29.3550   40.5950 H   0  0  0  0  0  0  0  0  0  0  0  0
   37.2300   29.0500   36.3060 C   0  0  0  0  0  0  0  0  0  0  0  0
   37.7520   29.9610   36.0370 H   0  0  0  0  0  0  0  0  0  0  0  0
   36.5320   28.8480   35.4390 H   0  0  0  0  0  0  0  0  0  0  0  0
   38.5740   25.6080   36.0980 C   0  0  0  0  0  0  0  0  0  0  0  0
   39.9100   25.7960   36.4480 C   0  0  0  0  0  0  0  0  0  0  0  0
   40.3180   27.0950   36.7470 C   0  0  0  0  0  0  0  0  0  0  0  0
   39.4120   28.0900   36.6830 N   0  0  0  0  0  0  0  0  0  0  0  0
   38.1220   27.8780   36.3400 C   0  0  0  0  0  0  0  0  0  0  0  0
   37.7230   26.6360   36.0520 N   0  0  0  0  0  0  0  0  0  0  0  0
   38.1950   24.6110   35.8530 H   0  0  0  0  0  0  0  0  0  0  0  0
   40.5210   24.9100   36.4570 H   0  0  0  0  0  0  0  0  0  0  0  0
   41.3380   27.2300   37.0120 H   0  0  0  0  0  0  0  0  0  0  0  0
   38.1420   30.0560   38.8170 O   0  0  0  0  0  0  0  0  0  0  0  0
   38.9060   29.4200   38.9530 H   0  0  0  0  0  0  0  0  0  0  0  0
   36.4590   30.1870   40.9970 O   0  0  0  0  0  0  0  0  0  0  0  0
   37.1120   29.3030   41.8370 C   0  0  0  0  0  0  0  0  0  0  0  0
   36.4120   28.1320   42.1720 C   0  0  0  0  0  0  0  0  0  0  0  0
   36.9980   27.2040   43.0030 C   0  0  0  0  0  0  0  0  0  0  0  0
   38.2700   27.4140   43.5070 C   0  0  0  0  0  0  0  0  0  0  0  0
   38.8990   28.5820   43.1390 C   0  0  0  0  0  0  0  0  0  0  0  0
   38.3720   29.5700   42.3040 C   0  0  0  0  0  0  0  0  0  0  0  0
   35.4090   27.9740   41.7690 H   0  0  0  0  0  0  0  0  0  0  0  0
   36.4210   26.3200   43.2320 H   0  0  0  0  0  0  0  0  0  0  0  0
   38.7380   26.7010   44.1520 H   0  0  0  0  0  0  0  0  0  0  0  0
   39.9090   28.7110   43.5610 H   0  0  0  0  0  0  0  0  0  0  0  0
   39.1690   30.7750   42.0490 C   0  0  0  0  0  0  0  0  0  0  0  0
   39.8350   31.2010   43.2130 F   0  0  0  0  0  0  0  0  0  0  0  0
   40.2540   30.4130   41.2080 F   0  0  0  0  0  0  0  0  0  0  0  0
   38.5660   31.7970   41.3830 F   0  0  0  0  0  0  0  0  0  0  0  0
  1 22  1  0  0  0  0
  1  6  1  0  0  0  0
  2  1  2  0  0  0  0
  3  2  1  0  0  0  0
  3  4  2  0  0  0  0
  4  5  1  0  0  0  0
  5  6  2  0  0  0  0
  5  9  1  0  0  0  0
  6 24  1  0  0  0  0
  7  3  1  0  0  0  0
  8  4  1  0  0  0  0
 10 17  1  0  0  0  0
 10  2  1  0  0  0  0
 11 10  1  0  0  0  0
 12 10  1  0  0  0  0
 13 14  1  0  0  0  0
 14 20  1  0  0  0  0
 14 15  2  0  0  0  0
 15 21  1  0  0  0  0
 16 15  1  0  0  0  0
 17 16  2  0  0  0  0
 18 13  2  0  0  0  0
 18 17  1  0  0  0  0
 19 13  1  0  0  0  0
 22 23  1  0  0  0  0
 24 25  1  0  0  0  0
 25 26  2  0  0  0  0
 25 30  1  0  0  0  0
 26 27  1  0  0  0  0
 27 32  1  0  0  0  0
 27 28  2  0  0  0  0
 28 33  1  0  0  0  0
 29 28  1  0  0  0  0
 29 34  1  0  0  0  0
 30 29  2  0  0  0  0
 31 26  1  0  0  0  0
 35 30  1  0  0  0  0
 35 36  1  0  0  0  0
 37 35  1  0  0  0  0
 38 35  1  0  0  0  0
M  END
>  <minimizedAffinity>
-5.64813375

$$$$
