
 OpenBabel03242511433D

 29 30  0  0  0  0  0  0  0  0999 V2000
   38.5010   28.9150   43.3520 C   0  0  0  0  0  0  0  0  0  0  0  0
   38.3780   29.2770   44.3920 H   0  0  0  0  0  0  0  0  0  0  0  0
   37.4910   28.6690   42.9800 H   0  0  0  0  0  0  0  0  0  0  0  0
   39.2470   27.6210   43.2670 C   0  0  0  0  0  0  0  0  0  0  0  0
   40.5980   27.3920   43.5820 C   0  0  0  0  0  0  0  0  0  0  0  0
   41.2080   26.1650   43.5640 C   0  0  0  0  0  0  0  0  0  0  0  0
   40.3960   25.1570   43.2150 C   0  0  0  0  0  0  0  0  0  0  0  0
   39.0830   25.3510   42.9000 C   0  0  0  0  0  0  0  0  0  0  0  0
   38.4140   26.5590   42.8930 C   0  0  0  0  0  0  0  0  0  0  0  0
   41.0230   28.3700   43.8310 H   0  0  0  0  0  0  0  0  0  0  0  0
   42.2270   26.3090   43.8450 H   0  0  0  0  0  0  0  0  0  0  0  0
   40.9360   24.2140   43.2270 H   0  0  0  0  0  0  0  0  0  0  0  0
   38.6490   24.3610   42.6550 H   0  0  0  0  0  0  0  0  0  0  0  0
   37.0290   26.3750   42.4150 C   0  0  0  0  0  0  0  0  0  0  0  0
   36.6220   25.0300   42.5260 F   0  0  0  0  0  0  0  0  0  0  0  0
   36.1070   26.8280   43.4650 F   0  0  0  0  0  0  0  0  0  0  0  0
   36.5260   27.0860   41.4140 F   0  0  0  0  0  0  0  0  0  0  0  0
   39.1930   29.9630   42.5130 C   0  0  0  0  0  0  0  0  0  0  0  0
   40.0030   29.3750   41.9720 H   0  0  0  0  0  0  0  0  0  0  0  0
   39.4560   30.8840   42.9620 H   0  0  0  0  0  0  0  0  0  0  0  0
   38.0270   30.7560   39.1240 C   0  0  0  0  0  0  0  0  0  0  0  0
   36.6220   30.8260   39.2920 C   0  0  0  0  0  0  0  0  0  0  0  0
   36.1350   30.5720   40.5600 C   0  0  0  0  0  0  0  0  0  0  0  0
   36.9810   30.2820   41.5490 N   0  0  0  0  0  0  0  0  0  0  0  0
   38.3190   30.2300   41.3350 C   0  0  0  0  0  0  0  0  0  0  0  0
   38.8400   30.4600   40.1540 N   0  0  0  0  0  0  0  0  0  0  0  0
   38.4060   30.9540   38.1340 H   0  0  0  0  0  0  0  0  0  0  0  0
   36.0260   31.0680   38.4350 H   0  0  0  0  0  0  0  0  0  0  0  0
   35.0660   30.6210   40.6980 H   0  0  0  0  0  0  0  0  0  0  0  0
  1  2  1  0  0  0  0
  3  1  1  0  0  0  0
  4  1  1  0  0  0  0
  4  5  1  0  0  0  0
  5 10  1  0  0  0  0
  6  5  2  0  0  0  0
  6 11  1  0  0  0  0
  7 12  1  0  0  0  0
  7  6  1  0  0  0  0
  8  7  2  0  0  0  0
  9  8  1  0  0  0  0
  9  4  2  0  0  0  0
 13  8  1  0  0  0  0
 14 15  1  0  0  0  0
 14  9  1  0  0  0  0
 14 16  1  0  0  0  0
 17 14  1  0  0  0  0
 18 20  1  0  0  0  0
 18  1  1  0  0  0  0
 19 18  1  0  0  0  0
 21 22  2  0  0  0  0
 21 26  1  0  0  0  0
 22 23  1  0  0  0  0
 23 29  1  0  0  0  0
 23 24  2  0  0  0  0
 25 24  1  0  0  0  0
 25 18  1  0  0  0  0
 26 25  2  0  0  0  0
 27 21  1  0  0  0  0
 28 22  1  0  0  0  0
M  END
>  <minimizedAffinity>
-5.30604219

$$$$

 OpenBabel03242511433D

 29 30  0  0  0  0  0  0  0  0999 V2000
   37.0150   27.3810   42.8420 C   0  0  0  0  0  0  0  0  0  0  0  0
   36.1560   26.9550   43.3960 H   0  0  0  0  0  0  0  0  0  0  0  0
   36.7290   27.3970   41.7750 H   0  0  0  0  0  0  0  0  0  0  0  0
   38.2280   26.5060   42.8820 C   0  0  0  0  0  0  0  0  0  0  0  0
   39.4120   26.7210   43.6080 C   0  0  0  0  0  0  0  0  0  0  0  0
   40.4610   25.8410   43.6720 C   0  0  0  0  0  0  0  0  0  0  0  0
   40.2720   24.7150   42.9680 C   0  0  0  0  0  0  0  0  0  0  0  0
   39.1350   24.4820   42.2510 C   0  0  0  0  0  0  0  0  0  0  0  0
   38.0510   25.3290   42.1420 C   0  0  0  0  0  0  0  0  0  0  0  0
   39.3040   27.7010   44.0840 H   0  0  0  0  0  0  0  0  0  0  0  0
   41.2100   26.2790   44.2920 H   0  0  0  0  0  0  0  0  0  0  0  0
   41.1340   24.0590   43.0660 H   0  0  0  0  0  0  0  0  0  0  0  0
   39.2400   23.4880   41.7750 H   0  0  0  0  0  0  0  0  0  0  0  0
   37.0530   24.7660   41.2100 C   0  0  0  0  0  0  0  0  0  0  0  0
   36.8900   25.5860   40.0760 F   0  0  0  0  0  0  0  0  0  0  0  0
   37.6850   23.6860   40.4430 F   0  0  0  0  0  0  0  0  0  0  0  0
   35.9930   24.0900   41.6340 F   0  0  0  0  0  0  0  0  0  0  0  0
   37.3540   28.7520   43.3760 C   0  0  0  0  0  0  0  0  0  0  0  0
   38.4610   28.6720   43.6280 H   0  0  0  0  0  0  0  0  0  0  0  0
   36.7070   29.1970   44.0870 H   0  0  0  0  0  0  0  0  0  0  0  0
   38.7170   31.0370   40.8470 C   0  0  0  0  0  0  0  0  0  0  0  0
   37.5620   31.4050   40.1130 C   0  0  0  0  0  0  0  0  0  0  0  0
   36.3680   30.8310   40.5050 C   0  0  0  0  0  0  0  0  0  0  0  0
   36.3470   29.9790   41.5310 N   0  0  0  0  0  0  0  0  0  0  0  0
   37.4820   29.6620   42.2020 C   0  0  0  0  0  0  0  0  0  0  0  0
   38.6450   30.1730   41.8760 N   0  0  0  0  0  0  0  0  0  0  0  0
   39.6480   31.4850   40.5400 H   0  0  0  0  0  0  0  0  0  0  0  0
   37.6820   32.0990   39.3050 H   0  0  0  0  0  0  0  0  0  0  0  0
   35.4830   31.1040   39.9510 H   0  0  0  0  0  0  0  0  0  0  0  0
  1  4  1  0  0  0  0
  1 18  1  0  0  0  0
  1  2  1  0  0  0  0
  3  1  1  0  0  0  0
  4  5  1  0  0  0  0
  5  6  2  0  0  0  0
  5 10  1  0  0  0  0
  6 11  1  0  0  0  0
  7 12  1  0  0  0  0
  7  6  1  0  0  0  0
  8  7  2  0  0  0  0
  9  8  1  0  0  0  0
  9  4  2  0  0  0  0
 13  8  1  0  0  0  0
 14 17  1  0  0  0  0
 14  9  1  0  0  0  0
 15 14  1  0  0  0  0
 16 14  1  0  0  0  0
 18 19  1  0  0  0  0
 18 20  1  0  0  0  0
 21 26  1  0  0  0  0
 22 23  1  0  0  0  0
 22 21  2  0  0  0  0
 23 24  2  0  0  0  0
 24 25  1  0  0  0  0
 25 18  1  0  0  0  0
 26 25  2  0  0  0  0
 27 21  1  0  0  0  0
 28 22  1  0  0  0  0
 29 23  1  0  0  0  0
M  END
>  <minimizedAffinity>
-5.1389308

$$$$

 OpenBabel03242511433D

 29 30  0  0  0  0  0  0  0  0999 V2000
   36.8640   27.0380   42.2460 C   0  0  0  0  0  0  0  0  0  0  0  0
   35.9860   26.6090   42.7660 H   0  0  0  0  0  0  0  0  0  0  0  0
   36.7100   26.8620   41.1660 H   0  0  0  0  0  0  0  0  0  0  0  0
   38.1380   26.3190   42.5560 C   0  0  0  0  0  0  0  0  0  0  0  0
   39.1980   26.7690   43.3630 C   0  0  0  0  0  0  0  0  0  0  0  0
   40.3070   26.0300   43.6800 C   0  0  0  0  0  0  0  0  0  0  0  0
   40.3120   24.7980   43.1500 C   0  0  0  0  0  0  0  0  0  0  0  0
   39.3000   24.3370   42.3600 C   0  0  0  0  0  0  0  0  0  0  0  0
   38.1640   25.0330   42.0000 C   0  0  0  0  0  0  0  0  0  0  0  0
   38.9410   27.7910   43.6600 H   0  0  0  0  0  0  0  0  0  0  0  0
   40.9300   26.6350   44.2990 H   0  0  0  0  0  0  0  0  0  0  0  0
   41.2120   24.2630   43.4440 H   0  0  0  0  0  0  0  0  0  0  0  0
   39.5540   23.3010   42.0640 H   0  0  0  0  0  0  0  0  0  0  0  0
   37.3460   24.2310   41.0680 C   0  0  0  0  0  0  0  0  0  0  0  0
   37.6740   22.8630   41.1430 F   0  0  0  0  0  0  0  0  0  0  0  0
   36.0180   24.0310   41.6620 F   0  0  0  0  0  0  0  0  0  0  0  0
   36.9480   24.7020   39.8930 F   0  0  0  0  0  0  0  0  0  0  0  0
   37.0060   28.5040   42.5820 C   0  0  0  0  0  0  0  0  0  0  0  0
   38.1280   28.6330   42.7280 H   0  0  0  0  0  0  0  0  0  0  0  0
   36.3530   28.9280   43.2990 H   0  0  0  0  0  0  0  0  0  0  0  0
   36.8840   29.3630   39.0150 C   0  0  0  0  0  0  0  0  0  0  0  0
   36.7650   30.7740   39.0440 C   0  0  0  0  0  0  0  0  0  0  0  0
   36.7070   31.3670   40.2910 C   0  0  0  0  0  0  0  0  0  0  0  0
   36.7660   30.6110   41.3880 N   0  0  0  0  0  0  0  0  0  0  0  0
   36.8820   29.2630   41.3050 C   0  0  0  0  0  0  0  0  0  0  0  0
   36.9400   28.6430   40.1510 N   0  0  0  0  0  0  0  0  0  0  0  0
   36.9280   28.9010   38.0420 H   0  0  0  0  0  0  0  0  0  0  0  0
   36.7260   31.2930   38.1080 H   0  0  0  0  0  0  0  0  0  0  0  0
   36.6150   32.4410   40.3240 H   0  0  0  0  0  0  0  0  0  0  0  0
  1  4  1  0  0  0  0
  1 18  1  0  0  0  0
  1  2  1  0  0  0  0
  3  1  1  0  0  0  0
  4  5  1  0  0  0  0
  5 10  1  0  0  0  0
  5  6  2  0  0  0  0
  6 11  1  0  0  0  0
  7 12  1  0  0  0  0
  7  6  1  0  0  0  0
  8  7  2  0  0  0  0
  9  8  1  0  0  0  0
  9  4  2  0  0  0  0
 13  8  1  0  0  0  0
 14 15  1  0  0  0  0
 14 16  1  0  0  0  0
 14  9  1  0  0  0  0
 17 14  1  0  0  0  0
 18 19  1  0  0  0  0
 18 20  1  0  0  0  0
 21 22  2  0  0  0  0
 21 26  1  0  0  0  0
 22 23  1  0  0  0  0
 23 29  1  0  0  0  0
 23 24  2  0  0  0  0
 25 24  1  0  0  0  0
 25 18  1  0  0  0  0
 26 25  2  0  0  0  0
 27 21  1  0  0  0  0
 28 22  1  0  0  0  0
M  END
>  <minimizedAffinity>
-5.01489687

$$$$

 OpenBabel03242511433D

 29 30  0  0  0  0  0  0  0  0999 V2000
   36.3910   27.7530   41.7190 C   0  0  0  0  0  0  0  0  0  0  0  0
   36.6670   28.7020   42.2200 H   0  0  0  0  0  0  0  0  0  0  0  0
   35.3970   27.4660   42.1070 H   0  0  0  0  0  0  0  0  0  0  0  0
   37.2770   26.6110   42.1020 C   0  0  0  0  0  0  0  0  0  0  0  0
   37.0340   25.2400   41.9090 C   0  0  0  0  0  0  0  0  0  0  0  0
   37.9210   24.2390   42.2050 C   0  0  0  0  0  0  0  0  0  0  0  0
   39.0850   24.6730   42.7090 C   0  0  0  0  0  0  0  0  0  0  0  0
   39.3470   25.9960   42.9110 C   0  0  0  0  0  0  0  0  0  0  0  0
   38.4950   27.0480   42.6400 C   0  0  0  0  0  0  0  0  0  0  0  0
   36.0250   25.1660   41.4900 H   0  0  0  0  0  0  0  0  0  0  0  0
   37.4560   23.3120   41.9540 H   0  0  0  0  0  0  0  0  0  0  0  0
   39.7450   23.8340   42.9150 H   0  0  0  0  0  0  0  0  0  0  0  0
   40.3700   26.0740   43.3280 H   0  0  0  0  0  0  0  0  0  0  0  0
   39.1010   28.3230   43.0730 C   0  0  0  0  0  0  0  0  0  0  0  0
   40.4170   28.1340   43.5400 F   0  0  0  0  0  0  0  0  0  0  0  0
   39.5400   29.0620   41.8820 F   0  0  0  0  0  0  0  0  0  0  0  0
   38.3860   29.2910   43.6320 F   0  0  0  0  0  0  0  0  0  0  0  0
   36.4030   27.9320   40.2190 C   0  0  0  0  0  0  0  0  0  0  0  0
   35.2980   27.9320   39.9450 H   0  0  0  0  0  0  0  0  0  0  0  0
   37.0650   27.3420   39.6410 H   0  0  0  0  0  0  0  0  0  0  0  0
   36.9020   31.5430   40.6490 C   0  0  0  0  0  0  0  0  0  0  0  0
   37.0640   31.9910   39.3150 C   0  0  0  0  0  0  0  0  0  0  0  0
   37.0180   31.0260   38.3260 C   0  0  0  0  0  0  0  0  0  0  0  0
   36.8280   29.7480   38.6560 N   0  0  0  0  0  0  0  0  0  0  0  0
   36.6760   29.3720   39.9500 C   0  0  0  0  0  0  0  0  0  0  0  0
   36.7120   30.2410   40.9310 N   0  0  0  0  0  0  0  0  0  0  0  0
   36.9380   32.2960   41.4190 H   0  0  0  0  0  0  0  0  0  0  0  0
   37.2110   33.0400   39.1520 H   0  0  0  0  0  0  0  0  0  0  0  0
   37.1420   31.3570   37.3070 H   0  0  0  0  0  0  0  0  0  0  0  0
  1  4  1  0  0  0  0
  1  3  1  0  0  0  0
  1  2  1  0  0  0  0
  4  9  1  0  0  0  0
  5  4  2  0  0  0  0
  5  6  1  0  0  0  0
  6  7  2  0  0  0  0
  7  8  1  0  0  0  0
  7 12  1  0  0  0  0
  8 13  1  0  0  0  0
  9  8  2  0  0  0  0
  9 14  1  0  0  0  0
 10  5  1  0  0  0  0
 11  6  1  0  0  0  0
 14 15  1  0  0  0  0
 14 17  1  0  0  0  0
 16 14  1  0  0  0  0
 18  1  1  0  0  0  0
 19 18  1  0  0  0  0
 20 18  1  0  0  0  0
 21 26  1  0  0  0  0
 21 27  1  0  0  0  0
 22 21  2  0  0  0  0
 23 24  2  0  0  0  0
 23 22  1  0  0  0  0
 24 25  1  0  0  0  0
 25 18  1  0  0  0  0
 25 26  2  0  0  0  0
 28 22  1  0  0  0  0
 29 23  1  0  0  0  0
M  END
>  <minimizedAffinity>
-4.97863626

$$$$

 OpenBabel03242511433D

 29 30  0  0  0  0  0  0  0  0999 V2000
   36.3800   28.1550   41.7850 C   0  0  0  0  0  0  0  0  0  0  0  0
   36.5620   27.2670   41.1480 H   0  0  0  0  0  0  0  0  0  0  0  0
   35.2840   28.2730   41.8600 H   0  0  0  0  0  0  0  0  0  0  0  0
   36.8440   29.4310   41.1580 C   0  0  0  0  0  0  0  0  0  0  0  0
   37.9110   30.2480   41.5710 C   0  0  0  0  0  0  0  0  0  0  0  0
   38.3430   31.3650   40.9060 C   0  0  0  0  0  0  0  0  0  0  0  0
   37.6550   31.6350   39.7880 C   0  0  0  0  0  0  0  0  0  0  0  0
   36.6130   30.8630   39.3650 C   0  0  0  0  0  0  0  0  0  0  0  0
   36.1270   29.7330   39.9920 C   0  0  0  0  0  0  0  0  0  0  0  0
   38.2920   29.8050   42.4970 H   0  0  0  0  0  0  0  0  0  0  0  0
   39.1600   31.7720   41.4590 H   0  0  0  0  0  0  0  0  0  0  0  0
   38.0510   32.5250   39.3050 H   0  0  0  0  0  0  0  0  0  0  0  0
   36.2310   31.3050   38.4240 H   0  0  0  0  0  0  0  0  0  0  0  0
   34.9390   29.2230   39.2790 C   0  0  0  0  0  0  0  0  0  0  0  0
   34.9280   29.6410   37.9340 F   0  0  0  0  0  0  0  0  0  0  0  0
   35.1720   27.8160   38.9270 F   0  0  0  0  0  0  0  0  0  0  0  0
   33.7670   29.0660   39.8810 F   0  0  0  0  0  0  0  0  0  0  0  0
   37.0410   27.9750   43.1320 C   0  0  0  0  0  0  0  0  0  0  0  0
   36.2310   27.4810   43.7600 H   0  0  0  0  0  0  0  0  0  0  0  0
   37.5750   28.7880   43.5490 H   0  0  0  0  0  0  0  0  0  0  0  0
   38.4100   24.6670   42.3230 C   0  0  0  0  0  0  0  0  0  0  0  0
   39.6570   24.6790   42.9960 C   0  0  0  0  0  0  0  0  0  0  0  0
   39.9830   25.8350   43.6780 C   0  0  0  0  0  0  0  0  0  0  0  0
   39.1360   26.8650   43.6800 N   0  0  0  0  0  0  0  0  0  0  0  0
   37.9530   26.8010   43.0210 C   0  0  0  0  0  0  0  0  0  0  0  0
   37.5890   25.7320   42.3550 N   0  0  0  0  0  0  0  0  0  0  0  0
   38.1570   23.7650   41.7910 H   0  0  0  0  0  0  0  0  0  0  0  0
   40.2670   23.8000   42.9360 H   0  0  0  0  0  0  0  0  0  0  0  0
   40.9310   25.8540   44.1920 H   0  0  0  0  0  0  0  0  0  0  0  0
  1  3  1  0  0  0  0
  1 18  1  0  0  0  0
  2  1  1  0  0  0  0
  4  5  1  0  0  0  0
  4  1  1  0  0  0  0
  5 10  1  0  0  0  0
  6 11  1  0  0  0  0
  6  5  2  0  0  0  0
  7  6  1  0  0  0  0
  8  7  2  0  0  0  0
  8  9  1  0  0  0  0
  9  4  2  0  0  0  0
 12  7  1  0  0  0  0
 13  8  1  0  0  0  0
 14 17  1  0  0  0  0
 14  9  1  0  0  0  0
 15 14  1  0  0  0  0
 16 14  1  0  0  0  0
 18 20  1  0  0  0  0
 18 19  1  0  0  0  0
 21 26  2  0  0  0  0
 21 22  1  0  0  0  0
 22 23  2  0  0  0  0
 23 24  1  0  0  0  0
 23 29  1  0  0  0  0
 25 18  1  0  0  0  0
 25 24  2  0  0  0  0
 26 25  1  0  0  0  0
 27 21  1  0  0  0  0
 28 22  1  0  0  0  0
M  END
>  <minimizedAffinity>
-4.96226025

$$$$

 OpenBabel03242511433D

 29 30  0  0  0  0  0  0  0  0999 V2000
   39.5600   30.4800   41.1740 C   0  0  0  0  0  0  0  0  0  0  0  0
   40.6600   30.5490   41.0710 H   0  0  0  0  0  0  0  0  0  0  0  0
   39.2240   29.6950   40.4720 H   0  0  0  0  0  0  0  0  0  0  0  0
   38.8500   31.7120   40.7110 C   0  0  0  0  0  0  0  0  0  0  0  0
   39.2830   33.0440   40.8310 C   0  0  0  0  0  0  0  0  0  0  0  0
   38.6280   34.1290   40.3120 C   0  0  0  0  0  0  0  0  0  0  0  0
   37.5010   33.8230   39.6540 C   0  0  0  0  0  0  0  0  0  0  0  0
   37.0530   32.5410   39.5260 C   0  0  0  0  0  0  0  0  0  0  0  0
   37.6630   31.4090   40.0290 C   0  0  0  0  0  0  0  0  0  0  0  0
   40.2160   33.0090   41.4040 H   0  0  0  0  0  0  0  0  0  0  0  0
   39.1940   34.9980   40.5660 H   0  0  0  0  0  0  0  0  0  0  0  0
   37.0340   34.7240   39.2620 H   0  0  0  0  0  0  0  0  0  0  0  0
   36.1140   32.5730   38.9400 H   0  0  0  0  0  0  0  0  0  0  0  0
   36.8340   30.2170   39.7590 C   0  0  0  0  0  0  0  0  0  0  0  0
   35.6780   30.2030   40.5640 F   0  0  0  0  0  0  0  0  0  0  0  0
   36.0730   30.4460   38.5240 F   0  0  0  0  0  0  0  0  0  0  0  0
   37.3650   29.0470   39.4290 F   0  0  0  0  0  0  0  0  0  0  0  0
   39.1860   30.1790   42.6060 C   0  0  0  0  0  0  0  0  0  0  0  0
   38.2490   30.8030   42.7700 H   0  0  0  0  0  0  0  0  0  0  0  0
   39.9430   30.2030   43.3460 H   0  0  0  0  0  0  0  0  0  0  0  0
   38.5160   26.6080   42.0830 C   0  0  0  0  0  0  0  0  0  0  0  0
   37.2020   26.4650   42.5930 C   0  0  0  0  0  0  0  0  0  0  0  0
   36.6120   27.6000   43.1170 C   0  0  0  0  0  0  0  0  0  0  0  0
   37.2830   28.7530   43.1220 N   0  0  0  0  0  0  0  0  0  0  0  0
   38.5390   28.8360   42.6190 C   0  0  0  0  0  0  0  0  0  0  0  0
   39.1510   27.7940   42.1090 N   0  0  0  0  0  0  0  0  0  0  0  0
   38.9740   25.7220   41.6740 H   0  0  0  0  0  0  0  0  0  0  0  0
   36.7470   25.4960   42.5430 H   0  0  0  0  0  0  0  0  0  0  0  0
   35.6120   27.5010   43.5090 H   0  0  0  0  0  0  0  0  0  0  0  0
  1 18  1  0  0  0  0
  2  1  1  0  0  0  0
  3  1  1  0  0  0  0
  4  5  1  0  0  0  0
  4  1  1  0  0  0  0
  5 10  1  0  0  0  0
  6 11  1  0  0  0  0
  6  5  2  0  0  0  0
  7  6  1  0  0  0  0
  8  7  2  0  0  0  0
  8  9  1  0  0  0  0
  9  4  2  0  0  0  0
 12  7  1  0  0  0  0
 13  8  1  0  0  0  0
 14  9  1  0  0  0  0
 14 15  1  0  0  0  0
 16 14  1  0  0  0  0
 17 14  1  0  0  0  0
 18 25  1  0  0  0  0
 18 19  1  0  0  0  0
 18 20  1  0  0  0  0
 21 26  2  0  0  0  0
 21 22  1  0  0  0  0
 22 23  2  0  0  0  0
 23 24  1  0  0  0  0
 23 29  1  0  0  0  0
 25 24  2  0  0  0  0
 26 25  1  0  0  0  0
 27 21  1  0  0  0  0
 28 22  1  0  0  0  0
M  END
>  <minimizedAffinity>
-4.85584354

$$$$

 OpenBabel03242511433D

 29 30  0  0  0  0  0  0  0  0999 V2000
   36.7910   30.9650   40.8660 C   0  0  0  0  0  0  0  0  0  0  0  0
   35.9420   30.4000   41.2980 H   0  0  0  0  0  0  0  0  0  0  0  0
   36.5930   32.0350   41.0590 H   0  0  0  0  0  0  0  0  0  0  0  0
   36.8600   30.8700   39.3750 C   0  0  0  0  0  0  0  0  0  0  0  0
   37.6450   31.6460   38.5050 C   0  0  0  0  0  0  0  0  0  0  0  0
   37.7310   31.4580   37.1500 C   0  0  0  0  0  0  0  0  0  0  0  0
   36.9870   30.4410   36.6930 C   0  0  0  0  0  0  0  0  0  0  0  0
   36.2120   29.6740   37.5130 C   0  0  0  0  0  0  0  0  0  0  0  0
   36.0790   29.8180   38.8790 C   0  0  0  0  0  0  0  0  0  0  0  0
   38.1440   32.3940   39.1310 H   0  0  0  0  0  0  0  0  0  0  0  0
   38.3970   32.1970   36.7650 H   0  0  0  0  0  0  0  0  0  0  0  0
   37.1040   30.3410   35.6160 H   0  0  0  0  0  0  0  0  0  0  0  0
   35.7120   28.9130   36.8820 H   0  0  0  0  0  0  0  0  0  0  0  0
   35.0860   28.8560   39.4010 C   0  0  0  0  0  0  0  0  0  0  0  0
   34.3290   28.2840   38.3590 F   0  0  0  0  0  0  0  0  0  0  0  0
   35.7720   27.5950   39.7080 F   0  0  0  0  0  0  0  0  0  0  0  0
   34.4860   29.0260   40.5720 F   0  0  0  0  0  0  0  0  0  0  0  0
   38.0930   30.4950   41.4710 C   0  0  0  0  0  0  0  0  0  0  0  0
   38.0640   30.9220   42.5250 H   0  0  0  0  0  0  0  0  0  0  0  0
   38.9840   30.6020   40.9090 H   0  0  0  0  0  0  0  0  0  0  0  0
   38.4300   26.8410   41.5700 C   0  0  0  0  0  0  0  0  0  0  0  0
   37.4160   26.4640   42.4840 C   0  0  0  0  0  0  0  0  0  0  0  0
   36.6750   27.4870   43.0460 C   0  0  0  0  0  0  0  0  0  0  0  0
   36.9350   28.7530   42.7140 N   0  0  0  0  0  0  0  0  0  0  0  0
   37.9170   29.0590   41.8310 C   0  0  0  0  0  0  0  0  0  0  0  0
   38.6540   28.1330   41.2670 N   0  0  0  0  0  0  0  0  0  0  0  0
   39.0070   26.0430   41.1330 H   0  0  0  0  0  0  0  0  0  0  0  0
   37.2840   25.4200   42.6850 H   0  0  0  0  0  0  0  0  0  0  0  0
   35.9010   27.2110   43.7440 H   0  0  0  0  0  0  0  0  0  0  0  0
  1  3  1  0  0  0  0
  1  2  1  0  0  0  0
  1 18  1  0  0  0  0
  4  1  1  0  0  0  0
  5 10  1  0  0  0  0
  5  4  2  0  0  0  0
  6  5  1  0  0  0  0
  7  6  2  0  0  0  0
  7  8  1  0  0  0  0
  8  9  2  0  0  0  0
  9  4  1  0  0  0  0
  9 14  1  0  0  0  0
 11  6  1  0  0  0  0
 12  7  1  0  0  0  0
 13  8  1  0  0  0  0
 14 16  1  0  0  0  0
 14 17  1  0  0  0  0
 15 14  1  0  0  0  0
 18 25  1  0  0  0  0
 18 19  1  0  0  0  0
 20 18  1  0  0  0  0
 21 22  1  0  0  0  0
 22 28  1  0  0  0  0
 22 23  2  0  0  0  0
 23 29  1  0  0  0  0
 24 23  1  0  0  0  0
 25 24  2  0  0  0  0
 26 21  2  0  0  0  0
 26 25  1  0  0  0  0
 27 21  1  0  0  0  0
M  END
>  <minimizedAffinity>
-4.85340214

$$$$

 OpenBabel03242511433D

 29 30  0  0  0  0  0  0  0  0999 V2000
   36.4660   28.0940   39.6990 C   0  0  0  0  0  0  0  0  0  0  0  0
   36.0250   28.7880   40.4410 H   0  0  0  0  0  0  0  0  0  0  0  0
   35.7120   27.9610   38.9020 H   0  0  0  0  0  0  0  0  0  0  0  0
   36.6740   26.7150   40.2390 C   0  0  0  0  0  0  0  0  0  0  0  0
   36.7350   25.5130   39.5120 C   0  0  0  0  0  0  0  0  0  0  0  0
   37.0120   24.2850   40.0530 C   0  0  0  0  0  0  0  0  0  0  0  0
   37.2340   24.3090   41.3760 C   0  0  0  0  0  0  0  0  0  0  0  0
   37.1770   25.4590   42.1070 C   0  0  0  0  0  0  0  0  0  0  0  0
   36.8970   26.7210   41.6230 C   0  0  0  0  0  0  0  0  0  0  0  0
   36.5200   25.7770   38.4710 H   0  0  0  0  0  0  0  0  0  0  0  0
   36.9850   23.5720   39.2610 H   0  0  0  0  0  0  0  0  0  0  0  0
   37.4540   23.3090   41.7400 H   0  0  0  0  0  0  0  0  0  0  0  0
   37.4010   25.1960   43.1590 H   0  0  0  0  0  0  0  0  0  0  0  0
   36.8420   27.6950   42.7320 C   0  0  0  0  0  0  0  0  0  0  0  0
   35.8440   27.3530   43.6660 F   0  0  0  0  0  0  0  0  0  0  0  0
   37.9350   27.4010   43.6680 F   0  0  0  0  0  0  0  0  0  0  0  0
   37.0990   28.9840   42.5540 F   0  0  0  0  0  0  0  0  0  0  0  0
   37.7730   28.6450   39.1800 C   0  0  0  0  0  0  0  0  0  0  0  0
   37.5880   28.7540   38.0630 H   0  0  0  0  0  0  0  0  0  0  0  0
   38.6770   28.1980   39.5000 H   0  0  0  0  0  0  0  0  0  0  0  0
   37.0520   32.2440   39.2480 C   0  0  0  0  0  0  0  0  0  0  0  0
   38.0430   32.7380   40.1320 C   0  0  0  0  0  0  0  0  0  0  0  0
   38.9010   31.8070   40.6860 C   0  0  0  0  0  0  0  0  0  0  0  0
   38.7690   30.5170   40.3750 N   0  0  0  0  0  0  0  0  0  0  0  0
   37.8040   30.0960   39.5210 C   0  0  0  0  0  0  0  0  0  0  0  0
   36.9600   30.9320   38.9650 N   0  0  0  0  0  0  0  0  0  0  0  0
   36.3830   32.9710   38.8170 H   0  0  0  0  0  0  0  0  0  0  0  0
   38.0680   33.7930   40.3180 H   0  0  0  0  0  0  0  0  0  0  0  0
   39.6580   32.1730   41.3620 H   0  0  0  0  0  0  0  0  0  0  0  0
  1  4  1  0  0  0  0
  1  2  1  0  0  0  0
  3  1  1  0  0  0  0
  4  9  1  0  0  0  0
  5  6  1  0  0  0  0
  5  4  2  0  0  0  0
  6  7  2  0  0  0  0
  7 12  1  0  0  0  0
  7  8  1  0  0  0  0
  8 13  1  0  0  0  0
  9  8  2  0  0  0  0
  9 14  1  0  0  0  0
 10  5  1  0  0  0  0
 11  6  1  0  0  0  0
 14 15  1  0  0  0  0
 14 16  1  0  0  0  0
 17 14  1  0  0  0  0
 18 20  1  0  0  0  0
 18 25  1  0  0  0  0
 18  1  1  0  0  0  0
 19 18  1  0  0  0  0
 21 22  1  0  0  0  0
 22 28  1  0  0  0  0
 22 23  2  0  0  0  0
 23 29  1  0  0  0  0
 24 23  1  0  0  0  0
 25 24  2  0  0  0  0
 26 21  2  0  0  0  0
 26 25  1  0  0  0  0
 27 21  1  0  0  0  0
M  END
>  <minimizedAffinity>
-4.8447485

$$$$

 OpenBabel03242511433D

 29 30  0  0  0  0  0  0  0  0999 V2000
   39.1670   30.5700   42.0930 C   0  0  0  0  0  0  0  0  0  0  0  0
   39.7470   30.9920   42.9370 H   0  0  0  0  0  0  0  0  0  0  0  0
   38.3290   31.2650   41.9040 H   0  0  0  0  0  0  0  0  0  0  0  0
   38.4990   29.2750   42.4320 C   0  0  0  0  0  0  0  0  0  0  0  0
   39.0100   28.2320   43.2240 C   0  0  0  0  0  0  0  0  0  0  0  0
   38.3170   27.1020   43.5700 C   0  0  0  0  0  0  0  0  0  0  0  0
   37.0680   27.0570   43.0850 C   0  0  0  0  0  0  0  0  0  0  0  0
   36.5480   28.0520   42.3100 C   0  0  0  0  0  0  0  0  0  0  0  0
   37.1950   29.2080   41.9230 C   0  0  0  0  0  0  0  0  0  0  0  0
   40.0330   28.5220   43.4840 H   0  0  0  0  0  0  0  0  0  0  0  0
   38.9630   26.5000   44.1690 H   0  0  0  0  0  0  0  0  0  0  0  0
   36.5720   26.1420   43.4000 H   0  0  0  0  0  0  0  0  0  0  0  0
   35.5100   27.7650   42.0520 H   0  0  0  0  0  0  0  0  0  0  0  0
   36.3350   29.9980   41.0180 C   0  0  0  0  0  0  0  0  0  0  0  0
   36.6990   29.8100   39.6700 F   0  0  0  0  0  0  0  0  0  0  0  0
   35.0550   29.2970   40.8580 F   0  0  0  0  0  0  0  0  0  0  0  0
   35.8500   31.1840   41.3610 F   0  0  0  0  0  0  0  0  0  0  0  0
   40.0560   30.3880   40.8860 C   0  0  0  0  0  0  0  0  0  0  0  0
   39.3290   30.0850   40.0650 H   0  0  0  0  0  0  0  0  0  0  0  0
   40.9530   29.8360   40.9930 H   0  0  0  0  0  0  0  0  0  0  0  0
   39.8690   33.9610   40.0640 C   0  0  0  0  0  0  0  0  0  0  0  0
   41.0300   34.1550   39.2760 C   0  0  0  0  0  0  0  0  0  0  0  0
   41.8410   33.0530   39.0820 C   0  0  0  0  0  0  0  0  0  0  0  0
   41.5080   31.8810   39.6270 N   0  0  0  0  0  0  0  0  0  0  0  0
   40.3830   31.7490   40.3720 C   0  0  0  0  0  0  0  0  0  0  0  0
   39.5750   32.7590   40.5920 N   0  0  0  0  0  0  0  0  0  0  0  0
   39.2380   34.8210   40.2150 H   0  0  0  0  0  0  0  0  0  0  0  0
   41.2100   35.1350   38.8810 H   0  0  0  0  0  0  0  0  0  0  0  0
   42.7280   33.1910   38.4850 H   0  0  0  0  0  0  0  0  0  0  0  0
  1  4  1  0  0  0  0
  1  2  1  0  0  0  0
  3  1  1  0  0  0  0
  4  5  1  0  0  0  0
  5 10  1  0  0  0  0
  5  6  2  0  0  0  0
  6 11  1  0  0  0  0
  7 12  1  0  0  0  0
  7  6  1  0  0  0  0
  8  7  2  0  0  0  0
  9  8  1  0  0  0  0
  9  4  2  0  0  0  0
 13  8  1  0  0  0  0
 14 17  1  0  0  0  0
 14  9  1  0  0  0  0
 15 14  1  0  0  0  0
 16 14  1  0  0  0  0
 18 20  1  0  0  0  0
 18  1  1  0  0  0  0
 19 18  1  0  0  0  0
 21 27  1  0  0  0  0
 21 26  1  0  0  0  0
 22 21  2  0  0  0  0
 23 22  1  0  0  0  0
 23 24  2  0  0  0  0
 24 25  1  0  0  0  0
 25 26  2  0  0  0  0
 25 18  1  0  0  0  0
 28 22  1  0  0  0  0
 29 23  1  0  0  0  0
M  END
>  <minimizedAffinity>
-4.83502579

$$$$
