
 OpenBabel03252500463D

 21 22  0  0  0  0  0  0  0  0999 V2000
   44.6780   35.2160   45.1870 C   0  0  0  0  0  0  0  0  0  0  0  0
   45.3830   35.0200   43.9970 C   0  0  0  0  0  0  0  0  0  0  0  0
   46.3240   34.0000   43.9040 C   0  0  0  0  0  0  0  0  0  0  0  0
   46.5260   33.2160   45.0050 N   0  0  0  0  0  0  0  0  0  0  0  0
   45.8320   33.4240   46.1470 C   0  0  0  0  0  0  0  0  0  0  0  0
   44.9250   34.4080   46.2310 N   0  0  0  0  0  0  0  0  0  0  0  0
   43.9530   36.0140   45.2350 H   0  0  0  0  0  0  0  0  0  0  0  0
   46.8790   33.8300   42.9970 H   0  0  0  0  0  0  0  0  0  0  0  0
   46.0750   32.5650   47.3010 C   0  0  0  0  0  0  0  0  0  0  0  0
   47.3160   32.1580   47.6660 C   0  0  0  0  0  0  0  0  0  0  0  0
   47.5630   31.3470   48.7540 C   0  0  0  0  0  0  0  0  0  0  0  0
   46.4810   30.9510   49.4770 N   0  0  0  0  0  0  0  0  0  0  0  0
   45.2430   31.3550   49.1130 C   0  0  0  0  0  0  0  0  0  0  0  0
   45.0000   32.1530   48.0440 N   0  0  0  0  0  0  0  0  0  0  0  0
   48.1620   32.4860   47.0780 H   0  0  0  0  0  0  0  0  0  0  0  0
   48.5460   31.0230   49.0480 H   0  0  0  0  0  0  0  0  0  0  0  0
   44.3360   31.0870   49.6310 H   0  0  0  0  0  0  0  0  0  0  0  0
   45.1320   35.9050   42.8080 C   0  0  0  0  0  0  0  0  0  0  0  0
   43.8120   35.7970   42.3800 F   0  0  0  0  0  0  0  0  0  0  0  0
   45.3110   37.2490   43.1630 F   0  0  0  0  0  0  0  0  0  0  0  0
   46.0190   35.5770   41.8110 F   0  0  0  0  0  0  0  0  0  0  0  0
  1  7  1  0  0  0  0
  1  6  1  0  0  0  0
  2  1  2  0  0  0  0
  3  2  1  0  0  0  0
  3  4  2  0  0  0  0
  4  5  1  0  0  0  0
  5  6  2  0  0  0  0
  5  9  1  0  0  0  0
  8  3  1  0  0  0  0
  9 10  2  0  0  0  0
  9 14  1  0  0  0  0
 10 11  1  0  0  0  0
 11 16  1  0  0  0  0
 11 12  2  0  0  0  0
 13 12  1  0  0  0  0
 13 17  1  0  0  0  0
 14 13  2  0  0  0  0
 15 10  1  0  0  0  0
 18 20  1  0  0  0  0
 18  2  1  0  0  0  0
 19 18  1  0  0  0  0
 21 18  1  0  0  0  0
M  END
>  <minimizedAffinity>
-5.24577093

>  <minimizedRMSD>
0.965811729

$$$$
