
 OpenBabel03252509123D

 27 29  0  0  0  0  0  0  0  0999 V2000
   45.6880   31.4660   42.8650 C   0  0  0  0  0  0  0  0  0  0  0  0
   45.3950   32.4870   41.9630 C   0  0  0  0  0  0  0  0  0  0  0  0
   44.1320   32.6690   41.4220 C   0  0  0  0  0  0  0  0  0  0  0  0
   43.1010   31.7910   41.7970 C   0  0  0  0  0  0  0  0  0  0  0  0
   41.7850   31.6620   41.4920 N   0  0  0  0  0  0  0  0  0  0  0  0
   41.2790   30.6080   42.1750 C   0  0  0  0  0  0  0  0  0  0  0  0
   42.2910   30.1050   42.8890 N   0  0  0  0  0  0  0  0  0  0  0  0
   43.4270   30.7990   42.6880 C   0  0  0  0  0  0  0  0  0  0  0  0
   44.6690   30.5990   43.2370 C   0  0  0  0  0  0  0  0  0  0  0  0
   46.7030   31.4110   43.2290 H   0  0  0  0  0  0  0  0  0  0  0  0
   41.2870   32.3000   40.8300 H   0  0  0  0  0  0  0  0  0  0  0  0
   40.2360   30.3420   42.0640 H   0  0  0  0  0  0  0  0  0  0  0  0
   44.9230   29.8310   43.9260 H   0  0  0  0  0  0  0  0  0  0  0  0
   48.0750   34.0740   40.0200 C   0  0  0  0  0  0  0  0  0  0  0  0
   48.4340   35.1520   40.8090 C   0  0  0  0  0  0  0  0  0  0  0  0
   47.7520   35.3340   42.0180 C   0  0  0  0  0  0  0  0  0  0  0  0
   46.7720   34.4410   42.3530 N   0  0  0  0  0  0  0  0  0  0  0  0
   46.4470   33.4020   41.5620 C   0  0  0  0  0  0  0  0  0  0  0  0
   47.0970   33.2210   40.3990 N   0  0  0  0  0  0  0  0  0  0  0  0
   48.5630   33.8810   39.0790 H   0  0  0  0  0  0  0  0  0  0  0  0
   49.2220   35.7910   40.4430 H   0  0  0  0  0  0  0  0  0  0  0  0
   48.0310   36.1620   42.6180 H   0  0  0  0  0  0  0  0  0  0  0  0
   43.7400   33.9660   40.2730 S   0  0  0  0  0  0  0  0  0  0  0  0
   42.7760   35.2950   40.9780 C   0  0  0  0  0  0  0  0  0  0  0  0
   41.8990   34.9040   41.9610 F   0  0  0  0  0  0  0  0  0  0  0  0
   43.6560   36.2650   41.4180 F   0  0  0  0  0  0  0  0  0  0  0  0
   42.0040   35.8740   39.9660 F   0  0  0  0  0  0  0  0  0  0  0  0
  1 10  1  0  0  0  0
  1  9  1  0  0  0  0
  2  1  2  0  0  0  0
  3  4  2  0  0  0  0
  3  2  1  0  0  0  0
  4  8  1  0  0  0  0
  5  4  1  0  0  0  0
  5  6  1  0  0  0  0
  6  7  2  0  0  0  0
  8  7  1  0  0  0  0
  8  9  2  0  0  0  0
  9 13  1  0  0  0  0
 11  5  1  0  0  0  0
 12  6  1  0  0  0  0
 14 19  2  0  0  0  0
 14 15  1  0  0  0  0
 15 16  2  0  0  0  0
 16 17  1  0  0  0  0
 16 22  1  0  0  0  0
 18  2  1  0  0  0  0
 18 17  2  0  0  0  0
 19 18  1  0  0  0  0
 20 14  1  0  0  0  0
 21 15  1  0  0  0  0
 23 24  1  0  0  0  0
 23  3  1  0  0  0  0
 24 26  1  0  0  0  0
 24 25  1  0  0  0  0
 27 24  1  0  0  0  0
M  END
>  <minimizedAffinity>
-3.99361491

>  <minimizedRMSD>
4.71461821

$$$$
