
 OpenBabel03252504233D

 27 29  0  0  0  0  0  0  0  0999 V2000
   37.0260   25.4080   40.6220 C   0  0  0  0  0  0  0  0  0  0  0  0
   36.5480   24.8900   39.4290 C   0  0  0  0  0  0  0  0  0  0  0  0
   36.0490   25.8010   38.4820 C   0  0  0  0  0  0  0  0  0  0  0  0
   36.0690   27.1230   38.7950 N   0  0  0  0  0  0  0  0  0  0  0  0
   36.5470   27.5780   39.9750 C   0  0  0  0  0  0  0  0  0  0  0  0
   37.0270   26.7170   40.8880 N   0  0  0  0  0  0  0  0  0  0  0  0
   36.5310   28.9790   40.2290 N   0  0  0  0  0  0  0  0  0  0  0  0
   36.1400   29.5870   41.3790 C   0  0  0  0  0  0  0  0  0  0  0  0
   36.2760   30.9330   41.2100 N   0  0  0  0  0  0  0  0  0  0  0  0
   36.7450   31.1230   39.9660 C   0  0  0  0  0  0  0  0  0  0  0  0
   37.0750   32.2350   39.2350 C   0  0  0  0  0  0  0  0  0  0  0  0
   37.5310   32.1640   37.9850 N   0  0  0  0  0  0  0  0  0  0  0  0
   37.6970   30.9810   37.3580 C   0  0  0  0  0  0  0  0  0  0  0  0
   37.3720   29.8900   38.0810 N   0  0  0  0  0  0  0  0  0  0  0  0
   36.9140   29.9000   39.3270 C   0  0  0  0  0  0  0  0  0  0  0  0
   36.4960   23.8670   39.1020 H   0  0  0  0  0  0  0  0  0  0  0  0
   35.6590   25.5250   37.5380 H   0  0  0  0  0  0  0  0  0  0  0  0
   35.7860   29.1060   42.2680 H   0  0  0  0  0  0  0  0  0  0  0  0
   38.0700   30.9490   36.3390 H   0  0  0  0  0  0  0  0  0  0  0  0
   36.9470   33.5360   39.7810 N   0  0  0  0  0  0  0  0  0  0  0  0
   35.9130   33.6910   39.7370 H   0  0  0  0  0  0  0  0  0  0  0  0
   37.6990   34.1950   40.1450 H   0  0  0  0  0  0  0  0  0  0  0  0
   37.6410   24.1610   41.7890 S   0  0  0  0  0  0  0  0  0  0  0  0
   39.1800   24.8670   42.4800 C   0  0  0  0  0  0  0  0  0  0  0  0
   38.9270   25.9170   43.3370 F   0  0  0  0  0  0  0  0  0  0  0  0
   39.7750   23.8640   43.2590 F   0  0  0  0  0  0  0  0  0  0  0  0
   40.0060   25.1660   41.4410 F   0  0  0  0  0  0  0  0  0  0  0  0
  1  6  1  0  0  0  0
  1 23  1  0  0  0  0
  2  1  2  0  0  0  0
  3  4  2  0  0  0  0
  3  2  1  0  0  0  0
  4  5  1  0  0  0  0
  5  7  1  0  0  0  0
  5  6  2  0  0  0  0
  7  8  1  0  0  0  0
  8 18  1  0  0  0  0
  9  8  2  0  0  0  0
 10  9  1  0  0  0  0
 11 20  1  0  0  0  0
 11 10  2  0  0  0  0
 12 11  1  0  0  0  0
 13 12  2  0  0  0  0
 13 14  1  0  0  0  0
 14 15  2  0  0  0  0
 15 10  1  0  0  0  0
 15  7  1  0  0  0  0
 16  2  1  0  0  0  0
 17  3  1  0  0  0  0
 19 13  1  0  0  0  0
 20 22  1  0  0  0  0
 21 20  1  0  0  0  0
 23 24  1  0  0  0  0
 24 26  1  0  0  0  0
 24 25  1  0  0  0  0
 27 24  1  0  0  0  0
M  END
>  <minimizedAffinity>
-5.61415195

$$$$

 OpenBabel03252504233D

 27 29  0  0  0  0  0  0  0  0999 V2000
   38.9290   27.4680   42.7390 C   0  0  0  0  0  0  0  0  0  0  0  0
   37.6340   27.1300   43.0980 C   0  0  0  0  0  0  0  0  0  0  0  0
   36.5860   27.7690   42.4150 C   0  0  0  0  0  0  0  0  0  0  0  0
   36.9070   28.6710   41.4510 N   0  0  0  0  0  0  0  0  0  0  0  0
   38.1880   28.9670   41.1370 C   0  0  0  0  0  0  0  0  0  0  0  0
   39.2000   28.3620   41.7830 N   0  0  0  0  0  0  0  0  0  0  0  0
   38.4430   29.9260   40.1160 N   0  0  0  0  0  0  0  0  0  0  0  0
   39.3500   30.9350   40.1640 C   0  0  0  0  0  0  0  0  0  0  0  0
   39.2780   31.6220   38.9890 N   0  0  0  0  0  0  0  0  0  0  0  0
   38.3320   31.0240   38.2480 C   0  0  0  0  0  0  0  0  0  0  0  0
   37.8180   31.2540   36.9970 C   0  0  0  0  0  0  0  0  0  0  0  0
   36.8560   30.5020   36.4660 N   0  0  0  0  0  0  0  0  0  0  0  0
   36.3240   29.4560   37.1330 C   0  0  0  0  0  0  0  0  0  0  0  0
   36.8330   29.2320   38.3620 N   0  0  0  0  0  0  0  0  0  0  0  0
   37.7900   29.9480   38.9410 C   0  0  0  0  0  0  0  0  0  0  0  0
   37.2930   26.4330   43.8430 H   0  0  0  0  0  0  0  0  0  0  0  0
   35.5590   27.5930   42.6010 H   0  0  0  0  0  0  0  0  0  0  0  0
   40.0130   31.1620   40.9750 H   0  0  0  0  0  0  0  0  0  0  0  0
   35.5400   28.8570   36.6790 H   0  0  0  0  0  0  0  0  0  0  0  0
   38.2930   32.3210   36.1940 N   0  0  0  0  0  0  0  0  0  0  0  0
   37.8400   33.1500   36.6440 H   0  0  0  0  0  0  0  0  0  0  0  0
   38.9420   32.2980   35.3510 H   0  0  0  0  0  0  0  0  0  0  0  0
   40.2190   26.6040   43.6790 S   0  0  0  0  0  0  0  0  0  0  0  0
   40.4870   25.0280   42.7900 C   0  0  0  0  0  0  0  0  0  0  0  0
   39.6700   24.0230   43.2630 F   0  0  0  0  0  0  0  0  0  0  0  0
   40.1070   25.2430   41.4570 F   0  0  0  0  0  0  0  0  0  0  0  0
   41.8180   24.7470   42.8280 F   0  0  0  0  0  0  0  0  0  0  0  0
  1  2  1  0  0  0  0
  1 23  1  0  0  0  0
  2 16  1  0  0  0  0
  3 17  1  0  0  0  0
  3  2  2  0  0  0  0
  4  3  1  0  0  0  0
  5  4  2  0  0  0  0
  5  6  1  0  0  0  0
  6  1  2  0  0  0  0
  7  8  1  0  0  0  0
  7  5  1  0  0  0  0
  8 18  1  0  0  0  0
  9  8  2  0  0  0  0
 10 15  1  0  0  0  0
 10  9  1  0  0  0  0
 11 10  2  0  0  0  0
 12 11  1  0  0  0  0
 12 13  2  0  0  0  0
 13 14  1  0  0  0  0
 14 15  2  0  0  0  0
 15  7  1  0  0  0  0
 19 13  1  0  0  0  0
 20 21  1  0  0  0  0
 20 11  1  0  0  0  0
 22 20  1  0  0  0  0
 24 27  1  0  0  0  0
 24 25  1  0  0  0  0
 24 23  1  0  0  0  0
 26 24  1  0  0  0  0
M  END
>  <minimizedAffinity>
-5.48661518

$$$$

 OpenBabel03252504233D

 27 29  0  0  0  0  0  0  0  0999 V2000
   38.5640   26.4760   42.3150 C   0  0  0  0  0  0  0  0  0  0  0  0
   37.9950   27.0960   43.4160 C   0  0  0  0  0  0  0  0  0  0  0  0
   37.8820   28.4960   43.3820 C   0  0  0  0  0  0  0  0  0  0  0  0
   38.3340   29.1480   42.2790 N   0  0  0  0  0  0  0  0  0  0  0  0
   38.8820   28.4950   41.2290 C   0  0  0  0  0  0  0  0  0  0  0  0
   38.9960   27.1560   41.2490 N   0  0  0  0  0  0  0  0  0  0  0  0
   39.3350   29.2500   40.1100 N   0  0  0  0  0  0  0  0  0  0  0  0
   40.5090   29.0860   39.4470 C   0  0  0  0  0  0  0  0  0  0  0  0
   40.5570   30.0070   38.4430 N   0  0  0  0  0  0  0  0  0  0  0  0
   39.4170   30.7140   38.5110 C   0  0  0  0  0  0  0  0  0  0  0  0
   38.9010   31.7550   37.7830 C   0  0  0  0  0  0  0  0  0  0  0  0
   37.7170   32.3030   38.0510 N   0  0  0  0  0  0  0  0  0  0  0  0
   36.9460   31.8600   39.0670 C   0  0  0  0  0  0  0  0  0  0  0  0
   37.4580   30.8360   39.7800 N   0  0  0  0  0  0  0  0  0  0  0  0
   38.6290   30.2520   39.5580 C   0  0  0  0  0  0  0  0  0  0  0  0
   37.6140   26.6610   44.3230 H   0  0  0  0  0  0  0  0  0  0  0  0
   37.4660   29.0790   44.1610 H   0  0  0  0  0  0  0  0  0  0  0  0
   41.2710   28.3650   39.6640 H   0  0  0  0  0  0  0  0  0  0  0  0
   35.9840   32.3230   39.2670 H   0  0  0  0  0  0  0  0  0  0  0  0
   39.6120   32.3090   36.6890 N   0  0  0  0  0  0  0  0  0  0  0  0
   40.3450   32.8790   37.1720 H   0  0  0  0  0  0  0  0  0  0  0  0
   39.4520   32.1860   35.6440 H   0  0  0  0  0  0  0  0  0  0  0  0
   38.6800   24.6690   42.4480 S   0  0  0  0  0  0  0  0  0  0  0  0
   37.4320   24.0200   41.2800 C   0  0  0  0  0  0  0  0  0  0  0  0
   37.5410   24.6000   40.0330 F   0  0  0  0  0  0  0  0  0  0  0  0
   37.7100   22.6580   41.1000 F   0  0  0  0  0  0  0  0  0  0  0  0
   36.2080   24.1460   41.8620 F   0  0  0  0  0  0  0  0  0  0  0  0
  1 23  1  0  0  0  0
  1  2  1  0  0  0  0
  2 16  1  0  0  0  0
  3  2  2  0  0  0  0
  3 17  1  0  0  0  0
  4  3  1  0  0  0  0
  5  6  1  0  0  0  0
  5  4  2  0  0  0  0
  6  1  2  0  0  0  0
  7  5  1  0  0  0  0
  8 18  1  0  0  0  0
  8  7  1  0  0  0  0
  9 10  1  0  0  0  0
  9  8  2  0  0  0  0
 10 15  1  0  0  0  0
 11 12  1  0  0  0  0
 11 10  2  0  0  0  0
 12 13  2  0  0  0  0
 13 19  1  0  0  0  0
 13 14  1  0  0  0  0
 15 14  2  0  0  0  0
 15  7  1  0  0  0  0
 20 21  1  0  0  0  0
 20 11  1  0  0  0  0
 22 20  1  0  0  0  0
 24 27  1  0  0  0  0
 24 23  1  0  0  0  0
 25 24  1  0  0  0  0
 26 24  1  0  0  0  0
M  END
>  <minimizedAffinity>
-5.43260098

$$$$

 OpenBabel03252504233D

 27 29  0  0  0  0  0  0  0  0999 V2000
   38.4650   26.4680   42.4800 C   0  0  0  0  0  0  0  0  0  0  0  0
   37.1530   26.5120   42.9220 C   0  0  0  0  0  0  0  0  0  0  0  0
   36.5710   27.7800   43.0910 C   0  0  0  0  0  0  0  0  0  0  0  0
   37.3260   28.8740   42.8110 N   0  0  0  0  0  0  0  0  0  0  0  0
   38.6050   28.7770   42.3820 C   0  0  0  0  0  0  0  0  0  0  0  0
   39.1730   27.5700   42.2160 N   0  0  0  0  0  0  0  0  0  0  0  0
   39.3320   29.9710   42.1120 N   0  0  0  0  0  0  0  0  0  0  0  0
   40.6100   30.2400   42.4860 C   0  0  0  0  0  0  0  0  0  0  0  0
   40.9260   31.4860   42.0320 N   0  0  0  0  0  0  0  0  0  0  0  0
   39.8420   31.9530   41.3930 C   0  0  0  0  0  0  0  0  0  0  0  0
   39.5560   33.1250   40.7400 C   0  0  0  0  0  0  0  0  0  0  0  0
   38.3750   33.3610   40.1710 N   0  0  0  0  0  0  0  0  0  0  0  0
   37.3790   32.4510   40.2030 C   0  0  0  0  0  0  0  0  0  0  0  0
   37.6640   31.3000   40.8470 N   0  0  0  0  0  0  0  0  0  0  0  0
   38.8210   31.0110   41.4310 C   0  0  0  0  0  0  0  0  0  0  0  0
   36.4880   25.7030   43.1650 H   0  0  0  0  0  0  0  0  0  0  0  0
   35.5780   27.9400   43.4230 H   0  0  0  0  0  0  0  0  0  0  0  0
   41.2640   29.5960   43.0380 H   0  0  0  0  0  0  0  0  0  0  0  0
   36.4240   32.6660   39.7330 H   0  0  0  0  0  0  0  0  0  0  0  0
   40.5190   34.1590   40.6330 N   0  0  0  0  0  0  0  0  0  0  0  0
   40.5010   34.5740   41.5940 H   0  0  0  0  0  0  0  0  0  0  0  0
   41.1130   34.4500   39.7990 H   0  0  0  0  0  0  0  0  0  0  0  0
   39.1410   24.7930   42.3000 S   0  0  0  0  0  0  0  0  0  0  0  0
   38.2190   24.0500   40.9060 C   0  0  0  0  0  0  0  0  0  0  0  0
   38.8190   22.8980   40.4450 F   0  0  0  0  0  0  0  0  0  0  0  0
   36.9670   23.6630   41.4060 F   0  0  0  0  0  0  0  0  0  0  0  0
   38.0370   25.0150   39.9640 F   0  0  0  0  0  0  0  0  0  0  0  0
  1  2  1  0  0  0  0
  2  3  2  0  0  0  0
  2 16  1  0  0  0  0
  3 17  1  0  0  0  0
  4  3  1  0  0  0  0
  5  4  2  0  0  0  0
  6  5  1  0  0  0  0
  6  1  2  0  0  0  0
  7  5  1  0  0  0  0
  7  8  1  0  0  0  0
  8 18  1  0  0  0  0
  9  8  2  0  0  0  0
 10 15  1  0  0  0  0
 10  9  1  0  0  0  0
 11 10  2  0  0  0  0
 12 13  2  0  0  0  0
 12 11  1  0  0  0  0
 13 14  1  0  0  0  0
 14 15  2  0  0  0  0
 15  7  1  0  0  0  0
 19 13  1  0  0  0  0
 20 11  1  0  0  0  0
 20 21  1  0  0  0  0
 22 20  1  0  0  0  0
 23  1  1  0  0  0  0
 24 26  1  0  0  0  0
 24 23  1  0  0  0  0
 25 24  1  0  0  0  0
 27 24  1  0  0  0  0
M  END
>  <minimizedAffinity>
-5.25658798

$$$$

 OpenBabel03252504233D

 27 29  0  0  0  0  0  0  0  0999 V2000
   43.0590   33.1570   39.2090 C   0  0  0  0  0  0  0  0  0  0  0  0
   43.7800   33.1560   40.3920 C   0  0  0  0  0  0  0  0  0  0  0  0
   43.0730   32.9020   41.5800 C   0  0  0  0  0  0  0  0  0  0  0  0
   41.7360   32.6750   41.4920 N   0  0  0  0  0  0  0  0  0  0  0  0
   41.0780   32.6870   40.3110 C   0  0  0  0  0  0  0  0  0  0  0  0
   41.7440   32.9280   39.1680 N   0  0  0  0  0  0  0  0  0  0  0  0
   39.6760   32.4420   40.3030 N   0  0  0  0  0  0  0  0  0  0  0  0
   38.7390   33.1360   39.6070 C   0  0  0  0  0  0  0  0  0  0  0  0
   37.5210   32.5830   39.8740 N   0  0  0  0  0  0  0  0  0  0  0  0
   37.7350   31.5670   40.7240 C   0  0  0  0  0  0  0  0  0  0  0  0
   36.9160   30.6550   41.3400 C   0  0  0  0  0  0  0  0  0  0  0  0
   37.3780   29.7160   42.1640 N   0  0  0  0  0  0  0  0  0  0  0  0
   38.6920   29.6040   42.4460 C   0  0  0  0  0  0  0  0  0  0  0  0
   39.4950   30.5030   41.8380 N   0  0  0  0  0  0  0  0  0  0  0  0
   39.0910   31.4580   41.0090 C   0  0  0  0  0  0  0  0  0  0  0  0
   44.8300   33.3250   40.5510 H   0  0  0  0  0  0  0  0  0  0  0  0
   43.5140   32.8760   42.5410 H   0  0  0  0  0  0  0  0  0  0  0  0
   38.9120   33.9720   38.9590 H   0  0  0  0  0  0  0  0  0  0  0  0
   39.0450   28.8310   43.1220 H   0  0  0  0  0  0  0  0  0  0  0  0
   35.5160   30.6640   41.1240 N   0  0  0  0  0  0  0  0  0  0  0  0
   35.2120   31.4800   41.7050 H   0  0  0  0  0  0  0  0  0  0  0  0
   34.9170   30.0160   40.5290 H   0  0  0  0  0  0  0  0  0  0  0  0
   44.0490   33.5030   37.7270 S   0  0  0  0  0  0  0  0  0  0  0  0
   44.3970   31.8670   36.9890 C   0  0  0  0  0  0  0  0  0  0  0  0
   44.5990   30.8990   37.9510 F   0  0  0  0  0  0  0  0  0  0  0  0
   43.2460   31.4820   36.2870 F   0  0  0  0  0  0  0  0  0  0  0  0
   45.4220   32.0150   36.1060 F   0  0  0  0  0  0  0  0  0  0  0  0
  1  2  1  0  0  0  0
  2 16  1  0  0  0  0
  2  3  2  0  0  0  0
  3 17  1  0  0  0  0
  4  3  1  0  0  0  0
  5  4  2  0  0  0  0
  6  1  2  0  0  0  0
  6  5  1  0  0  0  0
  7  5  1  0  0  0  0
  7 15  1  0  0  0  0
  8  9  2  0  0  0  0
  8  7  1  0  0  0  0
  9 10  1  0  0  0  0
 10 15  2  0  0  0  0
 10 11  1  0  0  0  0
 11 12  2  0  0  0  0
 12 13  1  0  0  0  0
 13 19  1  0  0  0  0
 14 13  2  0  0  0  0
 15 14  1  0  0  0  0
 18  8  1  0  0  0  0
 20 11  1  0  0  0  0
 20 21  1  0  0  0  0
 22 20  1  0  0  0  0
 23  1  1  0  0  0  0
 24 23  1  0  0  0  0
 24 25  1  0  0  0  0
 26 24  1  0  0  0  0
 27 24  1  0  0  0  0
M  END
>  <minimizedAffinity>
-5.18428946

$$$$

 OpenBabel03252504233D

 27 29  0  0  0  0  0  0  0  0999 V2000
   39.2960   28.0640   41.2670 C   0  0  0  0  0  0  0  0  0  0  0  0
   40.1830   27.8490   42.3100 C   0  0  0  0  0  0  0  0  0  0  0  0
   41.4000   28.5520   42.2790 C   0  0  0  0  0  0  0  0  0  0  0  0
   41.6270   29.3920   41.2360 N   0  0  0  0  0  0  0  0  0  0  0  0
   40.7280   29.5670   40.2410 C   0  0  0  0  0  0  0  0  0  0  0  0
   39.5600   28.9000   40.2590 N   0  0  0  0  0  0  0  0  0  0  0  0
   41.0410   30.4630   39.1800 N   0  0  0  0  0  0  0  0  0  0  0  0
   40.8570   30.2410   37.8530 C   0  0  0  0  0  0  0  0  0  0  0  0
   41.2850   31.3450   37.1780 N   0  0  0  0  0  0  0  0  0  0  0  0
   41.7220   32.2180   38.1000 C   0  0  0  0  0  0  0  0  0  0  0  0
   42.2590   33.4780   38.0360 C   0  0  0  0  0  0  0  0  0  0  0  0
   42.6250   34.1600   39.1200 N   0  0  0  0  0  0  0  0  0  0  0  0
   42.4870   33.6460   40.3590 C   0  0  0  0  0  0  0  0  0  0  0  0
   41.9580   32.4060   40.4190 N   0  0  0  0  0  0  0  0  0  0  0  0
   41.5770   31.6810   39.3740 C   0  0  0  0  0  0  0  0  0  0  0  0
   40.0850   27.2080   43.1680 H   0  0  0  0  0  0  0  0  0  0  0  0
   42.1530   28.4700   43.0180 H   0  0  0  0  0  0  0  0  0  0  0  0
   40.4480   29.3580   37.4040 H   0  0  0  0  0  0  0  0  0  0  0  0
   42.7940   34.2200   41.2290 H   0  0  0  0  0  0  0  0  0  0  0  0
   42.4530   34.1300   36.7920 N   0  0  0  0  0  0  0  0  0  0  0  0
   43.3000   33.6410   36.4200 H   0  0  0  0  0  0  0  0  0  0  0  0
   41.8910   34.9140   36.3430 H   0  0  0  0  0  0  0  0  0  0  0  0
   37.7570   27.1090   41.3810 S   0  0  0  0  0  0  0  0  0  0  0  0
   36.5760   28.2030   42.2480 C   0  0  0  0  0  0  0  0  0  0  0  0
   35.4920   28.5210   41.4580 F   0  0  0  0  0  0  0  0  0  0  0  0
   36.0660   27.4750   43.3320 F   0  0  0  0  0  0  0  0  0  0  0  0
   37.2690   29.2740   42.7230 F   0  0  0  0  0  0  0  0  0  0  0  0
  1 23  1  0  0  0  0
  1  2  1  0  0  0  0
  2 16  1  0  0  0  0
  3  2  2  0  0  0  0
  3 17  1  0  0  0  0
  4  3  1  0  0  0  0
  5  6  1  0  0  0  0
  5  4  2  0  0  0  0
  6  1  2  0  0  0  0
  7 15  1  0  0  0  0
  7  5  1  0  0  0  0
  8  7  1  0  0  0  0
  9  8  2  0  0  0  0
  9 10  1  0  0  0  0
 10 15  1  0  0  0  0
 11 10  2  0  0  0  0
 11 12  1  0  0  0  0
 12 13  2  0  0  0  0
 13 14  1  0  0  0  0
 13 19  1  0  0  0  0
 15 14  2  0  0  0  0
 18  8  1  0  0  0  0
 20 11  1  0  0  0  0
 21 20  1  0  0  0  0
 22 20  1  0  0  0  0
 23 24  1  0  0  0  0
 24 27  1  0  0  0  0
 24 26  1  0  0  0  0
 25 24  1  0  0  0  0
M  END
>  <minimizedAffinity>
-5.16560841

$$$$

 OpenBabel03252504233D

 27 29  0  0  0  0  0  0  0  0999 V2000
   33.1820   28.8970   37.1890 C   0  0  0  0  0  0  0  0  0  0  0  0
   33.7390   27.9610   36.3320 C   0  0  0  0  0  0  0  0  0  0  0  0
   35.0050   27.4510   36.6680 C   0  0  0  0  0  0  0  0  0  0  0  0
   35.5970   27.9050   37.8030 N   0  0  0  0  0  0  0  0  0  0  0  0
   35.0100   28.8210   38.6060 C   0  0  0  0  0  0  0  0  0  0  0  0
   33.7990   29.3160   38.2970 N   0  0  0  0  0  0  0  0  0  0  0  0
   35.6970   29.2480   39.7790 N   0  0  0  0  0  0  0  0  0  0  0  0
   35.8270   30.5270   40.2170 C   0  0  0  0  0  0  0  0  0  0  0  0
   36.5530   30.5030   41.3710 N   0  0  0  0  0  0  0  0  0  0  0  0
   36.8530   29.2170   41.6150 C   0  0  0  0  0  0  0  0  0  0  0  0
   37.5490   28.5760   42.6070 C   0  0  0  0  0  0  0  0  0  0  0  0
   37.7140   27.2540   42.6300 N   0  0  0  0  0  0  0  0  0  0  0  0
   37.2010   26.4600   41.6690 C   0  0  0  0  0  0  0  0  0  0  0  0
   36.5160   27.0940   40.6950 N   0  0  0  0  0  0  0  0  0  0  0  0
   36.3200   28.4050   40.6200 C   0  0  0  0  0  0  0  0  0  0  0  0
   33.3430   27.5500   35.4210 H   0  0  0  0  0  0  0  0  0  0  0  0
   35.5290   26.7340   36.0920 H   0  0  0  0  0  0  0  0  0  0  0  0
   35.4330   31.4070   39.7500 H   0  0  0  0  0  0  0  0  0  0  0  0
   37.3490   25.3850   41.7090 H   0  0  0  0  0  0  0  0  0  0  0  0
   38.1350   29.2980   43.6760 N   0  0  0  0  0  0  0  0  0  0  0  0
   38.9770   29.7190   43.2190 H   0  0  0  0  0  0  0  0  0  0  0  0
   37.8130   29.3960   44.6860 H   0  0  0  0  0  0  0  0  0  0  0  0
   31.5520   29.5090   36.6740 S   0  0  0  0  0  0  0  0  0  0  0  0
   30.6990   29.9650   38.2250 C   0  0  0  0  0  0  0  0  0  0  0  0
   31.4980   29.7690   39.3320 F   0  0  0  0  0  0  0  0  0  0  0  0
   30.4510   31.3440   38.1650 F   0  0  0  0  0  0  0  0  0  0  0  0
   29.5080   29.3060   38.2580 F   0  0  0  0  0  0  0  0  0  0  0  0
  1  6  1  0  0  0  0
  2  3  1  0  0  0  0
  2  1  2  0  0  0  0
  3  4  2  0  0  0  0
  4  5  1  0  0  0  0
  5  7  1  0  0  0  0
  6  5  2  0  0  0  0
  7  8  1  0  0  0  0
  7 15  1  0  0  0  0
  8  9  2  0  0  0  0
  9 10  1  0  0  0  0
 10 11  1  0  0  0  0
 11 12  2  0  0  0  0
 11 20  1  0  0  0  0
 13 19  1  0  0  0  0
 13 12  1  0  0  0  0
 14 13  2  0  0  0  0
 15 14  1  0  0  0  0
 15 10  2  0  0  0  0
 16  2  1  0  0  0  0
 17  3  1  0  0  0  0
 18  8  1  0  0  0  0
 20 22  1  0  0  0  0
 21 20  1  0  0  0  0
 23  1  1  0  0  0  0
 23 24  1  0  0  0  0
 24 27  1  0  0  0  0
 24 25  1  0  0  0  0
 26 24  1  0  0  0  0
M  END
>  <minimizedAffinity>
-5.00942469

$$$$

 OpenBabel03252504233D

 27 29  0  0  0  0  0  0  0  0999 V2000
   38.0960   30.4030   40.9140 C   0  0  0  0  0  0  0  0  0  0  0  0
   38.6640   29.5370   41.8340 C   0  0  0  0  0  0  0  0  0  0  0  0
   40.0590   29.3680   41.7860 C   0  0  0  0  0  0  0  0  0  0  0  0
   40.7550   30.0600   40.8470 N   0  0  0  0  0  0  0  0  0  0  0  0
   40.1520   30.8940   39.9710 C   0  0  0  0  0  0  0  0  0  0  0  0
   38.8190   31.0650   40.0070 N   0  0  0  0  0  0  0  0  0  0  0  0
   40.9510   31.5820   39.0140 N   0  0  0  0  0  0  0  0  0  0  0  0
   40.6800   31.7310   37.6920 C   0  0  0  0  0  0  0  0  0  0  0  0
   41.6930   32.4510   37.1330 N   0  0  0  0  0  0  0  0  0  0  0  0
   42.5620   32.7280   38.1190 C   0  0  0  0  0  0  0  0  0  0  0  0
   43.7510   33.4080   38.1730 C   0  0  0  0  0  0  0  0  0  0  0  0
   44.4470   33.5510   39.3000 N   0  0  0  0  0  0  0  0  0  0  0  0
   44.0170   33.0290   40.4680 C   0  0  0  0  0  0  0  0  0  0  0  0
   42.8460   32.3620   40.4100 N   0  0  0  0  0  0  0  0  0  0  0  0
   42.1120   32.1880   39.3180 C   0  0  0  0  0  0  0  0  0  0  0  0
   38.1920   28.9540   42.6040 H   0  0  0  0  0  0  0  0  0  0  0  0
   40.6040   28.7350   42.4350 H   0  0  0  0  0  0  0  0  0  0  0  0
   39.8240   31.3550   37.1680 H   0  0  0  0  0  0  0  0  0  0  0  0
   44.6020   33.1580   41.3740 H   0  0  0  0  0  0  0  0  0  0  0  0
   44.3090   34.0050   37.0150 N   0  0  0  0  0  0  0  0  0  0  0  0
   44.6910   33.1740   36.5050 H   0  0  0  0  0  0  0  0  0  0  0  0
   44.3380   35.0280   36.7270 H   0  0  0  0  0  0  0  0  0  0  0  0
   36.2910   30.5530   41.0410 S   0  0  0  0  0  0  0  0  0  0  0  0
   35.6490   28.8600   40.7920 C   0  0  0  0  0  0  0  0  0  0  0  0
   36.3820   28.1620   39.8550 F   0  0  0  0  0  0  0  0  0  0  0  0
   35.8200   28.1760   42.0050 F   0  0  0  0  0  0  0  0  0  0  0  0
   34.3180   28.9510   40.5230 F   0  0  0  0  0  0  0  0  0  0  0  0
  1 23  1  0  0  0  0
  1  2  1  0  0  0  0
  2 16  1  0  0  0  0
  3  2  2  0  0  0  0
  3 17  1  0  0  0  0
  4  3  1  0  0  0  0
  5  6  1  0  0  0  0
  5  4  2  0  0  0  0
  6  1  2  0  0  0  0
  7 15  1  0  0  0  0
  7  5  1  0  0  0  0
  8  7  1  0  0  0  0
  9  8  2  0  0  0  0
  9 10  1  0  0  0  0
 10 11  2  0  0  0  0
 10 15  1  0  0  0  0
 11 12  1  0  0  0  0
 12 13  2  0  0  0  0
 13 19  1  0  0  0  0
 14 13  1  0  0  0  0
 15 14  2  0  0  0  0
 18  8  1  0  0  0  0
 20 11  1  0  0  0  0
 21 20  1  0  0  0  0
 22 20  1  0  0  0  0
 24 23  1  0  0  0  0
 24 26  1  0  0  0  0
 25 24  1  0  0  0  0
 27 24  1  0  0  0  0
M  END
>  <minimizedAffinity>
-4.99882936

$$$$

 OpenBabel03252504233D

 27 29  0  0  0  0  0  0  0  0999 V2000
   38.7570   26.1770   39.8810 C   0  0  0  0  0  0  0  0  0  0  0  0
   40.1300   26.0650   39.7320 C   0  0  0  0  0  0  0  0  0  0  0  0
   40.8430   27.2340   39.4150 C   0  0  0  0  0  0  0  0  0  0  0  0
   40.1450   28.3920   39.2780 N   0  0  0  0  0  0  0  0  0  0  0  0
   38.8030   28.4480   39.4340 C   0  0  0  0  0  0  0  0  0  0  0  0
   38.1100   27.3370   39.7370 N   0  0  0  0  0  0  0  0  0  0  0  0
   38.1440   29.6990   39.2710 N   0  0  0  0  0  0  0  0  0  0  0  0
   36.9950   29.9230   38.5820 C   0  0  0  0  0  0  0  0  0  0  0  0
   36.7040   31.2510   38.6700 N   0  0  0  0  0  0  0  0  0  0  0  0
   37.6750   31.8130   39.4070 C   0  0  0  0  0  0  0  0  0  0  0  0
   37.9260   33.0930   39.8300 C   0  0  0  0  0  0  0  0  0  0  0  0
   38.9860   33.4100   40.5720 N   0  0  0  0  0  0  0  0  0  0  0  0
   39.8850   32.4810   40.9560 C   0  0  0  0  0  0  0  0  0  0  0  0
   39.6340   31.2230   40.5370 N   0  0  0  0  0  0  0  0  0  0  0  0
   38.5970   30.8500   39.7980 C   0  0  0  0  0  0  0  0  0  0  0  0
   40.7580   25.1960   39.8220 H   0  0  0  0  0  0  0  0  0  0  0  0
   41.8920   27.2730   39.2770 H   0  0  0  0  0  0  0  0  0  0  0  0
   36.4100   29.1930   38.0580 H   0  0  0  0  0  0  0  0  0  0  0  0
   40.7420   32.7630   41.5610 H   0  0  0  0  0  0  0  0  0  0  0  0
   37.0550   34.1610   39.4960 N   0  0  0  0  0  0  0  0  0  0  0  0
   37.3010   34.3370   38.4940 H   0  0  0  0  0  0  0  0  0  0  0  0
   36.3350   34.6610   40.0980 H   0  0  0  0  0  0  0  0  0  0  0  0
   37.9160   24.6180   40.2790 S   0  0  0  0  0  0  0  0  0  0  0  0
   37.5490   24.7130   42.0670 C   0  0  0  0  0  0  0  0  0  0  0  0
   38.4150   23.9430   42.8140 F   0  0  0  0  0  0  0  0  0  0  0  0
   37.7720   26.0410   42.4590 F   0  0  0  0  0  0  0  0  0  0  0  0
   36.2310   24.4190   42.2400 F   0  0  0  0  0  0  0  0  0  0  0  0
  1 23  1  0  0  0  0
  2 16  1  0  0  0  0
  2  1  2  0  0  0  0
  3  2  1  0  0  0  0
  4  3  2  0  0  0  0
  4  5  1  0  0  0  0
  5  6  2  0  0  0  0
  6  1  1  0  0  0  0
  7  5  1  0  0  0  0
  7 15  1  0  0  0  0
  8  9  2  0  0  0  0
  8  7  1  0  0  0  0
  9 10  1  0  0  0  0
 10 15  2  0  0  0  0
 10 11  1  0  0  0  0
 11 12  2  0  0  0  0
 12 13  1  0  0  0  0
 13 19  1  0  0  0  0
 14 13  2  0  0  0  0
 15 14  1  0  0  0  0
 17  3  1  0  0  0  0
 18  8  1  0  0  0  0
 20 11  1  0  0  0  0
 20 22  1  0  0  0  0
 21 20  1  0  0  0  0
 23 24  1  0  0  0  0
 24 27  1  0  0  0  0
 24 26  1  0  0  0  0
 24 25  1  0  0  0  0
M  END
>  <minimizedAffinity>
-4.97040367

$$$$
