
 OpenBabel03252509123D

 27 29  0  0  0  0  0  0  0  0999 V2000
   45.9520   34.3210   44.9090 C   0  0  0  0  0  0  0  0  0  0  0  0
   46.7960   33.5050   44.1570 C   0  0  0  0  0  0  0  0  0  0  0  0
   47.1660   32.2340   44.5650 C   0  0  0  0  0  0  0  0  0  0  0  0
   46.6730   31.7420   45.7860 C   0  0  0  0  0  0  0  0  0  0  0  0
   46.8070   30.5880   46.4870 N   0  0  0  0  0  0  0  0  0  0  0  0
   46.0780   30.6800   47.6240 C   0  0  0  0  0  0  0  0  0  0  0  0
   45.5080   31.8880   47.6060 N   0  0  0  0  0  0  0  0  0  0  0  0
   45.8450   32.5740   46.4980 C   0  0  0  0  0  0  0  0  0  0  0  0
   45.4640   33.8360   46.1140 C   0  0  0  0  0  0  0  0  0  0  0  0
   45.7240   35.2950   44.5020 H   0  0  0  0  0  0  0  0  0  0  0  0
   47.3910   29.7860   46.1580 H   0  0  0  0  0  0  0  0  0  0  0  0
   46.0570   29.8520   48.3210 H   0  0  0  0  0  0  0  0  0  0  0  0
   44.8230   34.4810   46.6650 H   0  0  0  0  0  0  0  0  0  0  0  0
   49.0040   35.0640   41.6730 C   0  0  0  0  0  0  0  0  0  0  0  0
   48.2990   34.9120   40.4930 C   0  0  0  0  0  0  0  0  0  0  0  0
   47.0550   34.2710   40.5510 C   0  0  0  0  0  0  0  0  0  0  0  0
   46.6060   33.8310   41.7660 N   0  0  0  0  0  0  0  0  0  0  0  0
   47.3180   33.9950   42.8960 C   0  0  0  0  0  0  0  0  0  0  0  0
   48.5120   34.6090   42.8480 N   0  0  0  0  0  0  0  0  0  0  0  0
   49.9650   35.5480   41.6930 H   0  0  0  0  0  0  0  0  0  0  0  0
   48.7520   35.2970   39.5930 H   0  0  0  0  0  0  0  0  0  0  0  0
   46.5200   34.1570   39.6420 H   0  0  0  0  0  0  0  0  0  0  0  0
   48.2380   31.1790   43.6200 S   0  0  0  0  0  0  0  0  0  0  0  0
   47.4330   30.3680   42.2460 C   0  0  0  0  0  0  0  0  0  0  0  0
   47.6920   29.0200   42.1480 F   0  0  0  0  0  0  0  0  0  0  0  0
   46.0810   30.6350   42.3350 F   0  0  0  0  0  0  0  0  0  0  0  0
   47.8870   30.9470   41.0550 F   0  0  0  0  0  0  0  0  0  0  0  0
  1  9  1  0  0  0  0
  2  3  1  0  0  0  0
  2  1  2  0  0  0  0
  3  4  2  0  0  0  0
  4  5  1  0  0  0  0
  4  8  1  0  0  0  0
  5  6  1  0  0  0  0
  6 12  1  0  0  0  0
  7  6  2  0  0  0  0
  8  7  1  0  0  0  0
  9  8  2  0  0  0  0
  9 13  1  0  0  0  0
 10  1  1  0  0  0  0
 11  5  1  0  0  0  0
 14 20  1  0  0  0  0
 14 19  1  0  0  0  0
 15 16  1  0  0  0  0
 15 14  2  0  0  0  0
 16 17  2  0  0  0  0
 17 18  1  0  0  0  0
 18  2  1  0  0  0  0
 19 18  2  0  0  0  0
 21 15  1  0  0  0  0
 22 16  1  0  0  0  0
 23  3  1  0  0  0  0
 24 26  1  0  0  0  0
 24 23  1  0  0  0  0
 25 24  1  0  0  0  0
 27 24  1  0  0  0  0
M  END
>  <minimizedAffinity>
-4.16430187

>  <minimizedRMSD>
4.10879278

$$$$
