
 OpenBabel03252509073D

 36 38  0  0  0  0  0  0  0  0999 V2000
   45.2800   35.2810   43.1060 Cl  0  0  0  0  0  0  0  0  0  0  0  0
   45.1660   34.5370   41.5400 C   0  0  0  0  0  0  0  0  0  0  0  0
   46.2820   34.1610   40.8690 C   0  0  0  0  0  0  0  0  0  0  0  0
   46.0800   33.5640   39.6320 C   0  0  0  0  0  0  0  0  0  0  0  0
   44.8290   33.3620   39.1080 C   0  0  0  0  0  0  0  0  0  0  0  0
   43.7290   33.7480   39.8010 C   0  0  0  0  0  0  0  0  0  0  0  0
   43.9110   34.3420   41.0310 C   0  0  0  0  0  0  0  0  0  0  0  0
   44.6980   32.8890   38.1270 H   0  0  0  0  0  0  0  0  0  0  0  0
   42.7280   33.6000   39.4100 H   0  0  0  0  0  0  0  0  0  0  0  0
   43.0240   34.6420   41.5680 H   0  0  0  0  0  0  0  0  0  0  0  0
   47.8020   31.8890   38.9730 C   0  0  0  0  0  0  0  0  0  0  0  0
   47.2430   33.1270   38.8660 C   0  0  0  0  0  0  0  0  0  0  0  0
   47.7780   34.0490   37.9850 C   0  0  0  0  0  0  0  0  0  0  0  0
   48.8710   33.7050   37.2240 C   0  0  0  0  0  0  0  0  0  0  0  0
   49.4680   32.4530   37.3070 C   0  0  0  0  0  0  0  0  0  0  0  0
   48.9050   31.5520   38.2010 C   0  0  0  0  0  0  0  0  0  0  0  0
   47.3370   35.0440   37.8910 H   0  0  0  0  0  0  0  0  0  0  0  0
   49.2450   34.4630   36.5560 H   0  0  0  0  0  0  0  0  0  0  0  0
   50.3170   32.1860   36.7160 H   0  0  0  0  0  0  0  0  0  0  0  0
   49.3780   30.5850   38.2560 H   0  0  0  0  0  0  0  0  0  0  0  0
   47.2010   30.7160   40.0030 S   0  0  0  0  0  0  0  0  0  0  0  0
   46.9660   29.4250   39.2160 O   0  0  0  0  0  0  0  0  0  0  0  0
   48.3730   30.3610   40.9510 O   0  0  0  0  0  0  0  0  0  0  0  0
   45.8600   30.6470   40.9820 C   0  0  0  0  0  0  0  0  0  0  0  0
   45.6800   31.3340   42.1340 F   0  0  0  0  0  0  0  0  0  0  0  0
   45.8700   29.3710   41.5790 F   0  0  0  0  0  0  0  0  0  0  0  0
   44.6130   30.4830   40.3080 F   0  0  0  0  0  0  0  0  0  0  0  0
   49.5530   35.7470   41.8810 C   0  0  0  0  0  0  0  0  0  0  0  0
   48.2950   35.5500   41.3000 C   0  0  0  0  0  0  0  0  0  0  0  0
   47.5790   34.3780   41.4580 C   0  0  0  0  0  0  0  0  0  0  0  0
   48.1880   33.4350   42.2190 N   0  0  0  0  0  0  0  0  0  0  0  0
   49.3990   33.6210   42.7800 C   0  0  0  0  0  0  0  0  0  0  0  0
   50.0680   34.7670   42.6080 N   0  0  0  0  0  0  0  0  0  0  0  0
   49.9810   36.7160   41.6620 H   0  0  0  0  0  0  0  0  0  0  0  0
   47.8200   36.3130   40.6930 H   0  0  0  0  0  0  0  0  0  0  0  0
   49.8700   32.8600   43.3820 H   0  0  0  0  0  0  0  0  0  0  0  0
  2  1  1  0  0  0  0
  3 30  1  0  0  0  0
  3  2  2  0  0  0  0
  4  3  1  0  0  0  0
  5  4  2  0  0  0  0
  5  6  1  0  0  0  0
  6  7  2  0  0  0  0
  7  2  1  0  0  0  0
  7 10  1  0  0  0  0
  8  5  1  0  0  0  0
  9  6  1  0  0  0  0
 11 21  1  0  0  0  0
 12 11  1  0  0  0  0
 12  4  1  0  0  0  0
 13 12  2  0  0  0  0
 14 15  2  0  0  0  0
 14 13  1  0  0  0  0
 15 16  1  0  0  0  0
 16 20  1  0  0  0  0
 16 11  2  0  0  0  0
 17 13  1  0  0  0  0
 18 14  1  0  0  0  0
 19 15  1  0  0  0  0
 21 23  2  0  0  0  0
 21 24  1  0  0  0  0
 22 21  2  0  0  0  0
 24 26  1  0  0  0  0
 24 25  1  0  0  0  0
 27 24  1  0  0  0  0
 28 33  1  0  0  0  0
 29 30  1  0  0  0  0
 29 28  2  0  0  0  0
 30 31  2  0  0  0  0
 31 32  1  0  0  0  0
 32 36  1  0  0  0  0
 33 32  2  0  0  0  0
 34 28  1  0  0  0  0
 35 29  1  0  0  0  0
M  END
>  <minimizedAffinity>
-4.51283312

>  <minimizedRMSD>
0.480625123

$$$$
