
 OpenBabel03242517583D

 38 39  0  0  0  0  0  0  0  0999 V2000
   37.4380   28.5600   43.6140 C   0  0  0  0  0  0  0  0  0  0  0  0
   37.6330   27.1780   43.4700 C   0  0  0  0  0  0  0  0  0  0  0  0
   38.3890   26.7070   42.4280 C   0  0  0  0  0  0  0  0  0  0  0  0
   38.8990   27.6320   41.5980 N   0  0  0  0  0  0  0  0  0  0  0  0
   38.7130   28.9380   41.7380 C   0  0  0  0  0  0  0  0  0  0  0  0
   37.9830   29.3980   42.7460 N   0  0  0  0  0  0  0  0  0  0  0  0
   36.8420   28.9370   44.4350 H   0  0  0  0  0  0  0  0  0  0  0  0
   37.1740   26.5590   44.1950 H   0  0  0  0  0  0  0  0  0  0  0  0
   38.6920   25.2860   42.1980 C   0  0  0  0  0  0  0  0  0  0  0  0
   39.1080   25.2240   41.1650 H   0  0  0  0  0  0  0  0  0  0  0  0
   39.4940   24.8940   42.8600 H   0  0  0  0  0  0  0  0  0  0  0  0
   37.4760   24.4170   42.2560 C   0  0  0  0  0  0  0  0  0  0  0  0
   36.8130   24.8990   43.0470 H   0  0  0  0  0  0  0  0  0  0  0  0
   37.6770   23.4300   42.6400 H   0  0  0  0  0  0  0  0  0  0  0  0
   36.6630   24.4100   41.0440 C   0  0  0  0  0  3  0  0  0  0  0  0
   36.3180   23.6130   40.0430 C   0  0  0  0  0  3  0  0  0  0  0  0
   35.4750   23.9950   38.8360 C   0  0  0  0  0  0  0  0  0  0  0  0
   36.1050   24.2450   37.9830 H   0  0  0  0  0  0  0  0  0  0  0  0
   34.8850   24.9110   39.1250 H   0  0  0  0  0  0  0  0  0  0  0  0
   34.7800   23.1630   38.7200 H   0  0  0  0  0  0  0  0  0  0  0  0
   39.2420   29.8700   40.8780 O   0  0  0  0  0  0  0  0  0  0  0  0
   37.5500   31.1110   39.6040 C   0  0  0  0  0  0  0  0  0  0  0  0
   38.6160   31.0280   40.4320 C   0  0  0  0  0  0  0  0  0  0  0  0
   39.1860   32.1870   40.9220 C   0  0  0  0  0  0  0  0  0  0  0  0
   38.7150   33.4350   40.6080 C   0  0  0  0  0  0  0  0  0  0  0  0
   37.6210   33.5320   39.7600 C   0  0  0  0  0  0  0  0  0  0  0  0
   37.0520   32.3680   39.2700 C   0  0  0  0  0  0  0  0  0  0  0  0
   40.0380   32.1980   41.5860 H   0  0  0  0  0  0  0  0  0  0  0  0
   39.1380   34.3600   40.9740 H   0  0  0  0  0  0  0  0  0  0  0  0
   37.1980   34.4780   39.4710 H   0  0  0  0  0  0  0  0  0  0  0  0
   36.2070   32.4210   38.6160 H   0  0  0  0  0  0  0  0  0  0  0  0
   36.9520   29.6390   38.9300 S   0  0  0  0  0  0  0  0  0  0  0  0
   37.9960   28.7820   38.3180 O   0  0  0  0  0  0  0  0  0  0  0  0
   36.0620   30.0750   37.7430 O   0  0  0  0  0  0  0  0  0  0  0  0
   35.7400   28.7760   39.8750 C   0  0  0  0  0  0  0  0  0  0  0  0
   34.6470   28.6530   38.9690 F   0  0  0  0  0  0  0  0  0  0  0  0
   35.3020   29.5310   40.8990 F   0  0  0  0  0  0  0  0  0  0  0  0
   36.0310   27.4660   40.1460 F   0  0  0  0  0  0  0  0  0  0  0  0
  1  7  1  0  0  0  0
  2  1  1  0  0  0  0
  2  8  1  0  0  0  0
  3  2  2  0  0  0  0
  4  5  2  0  0  0  0
  4  3  1  0  0  0  0
  5  6  1  0  0  0  0
  6  1  2  0  0  0  0
  9 12  1  0  0  0  0
  9  3  1  0  0  0  0
  9 11  1  0  0  0  0
 10  9  1  0  0  0  0
 12 14  1  0  0  0  0
 12 13  1  0  0  0  0
 15 12  1  0  0  0  0
 16 15  2  0  0  0  0
 17 19  1  0  0  0  0
 17 16  1  0  0  0  0
 18 17  1  0  0  0  0
 20 17  1  0  0  0  0
 21  5  1  0  0  0  0
 22 23  1  0  0  0  0
 23 21  1  0  0  0  0
 23 24  2  0  0  0  0
 24 28  1  0  0  0  0
 25 24  1  0  0  0  0
 25 29  1  0  0  0  0
 26 25  2  0  0  0  0
 27 22  2  0  0  0  0
 27 26  1  0  0  0  0
 30 26  1  0  0  0  0
 31 27  1  0  0  0  0
 32 22  1  0  0  0  0
 32 35  1  0  0  0  0
 33 32  2  0  0  0  0
 34 32  2  0  0  0  0
 35 38  1  0  0  0  0
 35 37  1  0  0  0  0
 36 35  1  0  0  0  0
M  END
>  <minimizedAffinity>
-5.56879377

$$$$

 OpenBabel03242517583D

 38 39  0  0  0  0  0  0  0  0999 V2000
   36.7670   29.0750   36.2420 C   0  0  0  0  0  0  0  0  0  0  0  0
   35.3740   29.1810   36.3740 C   0  0  0  0  0  0  0  0  0  0  0  0
   34.7770   28.8090   37.5510 C   0  0  0  0  0  0  0  0  0  0  0  0
   35.5950   28.3570   38.5160 N   0  0  0  0  0  0  0  0  0  0  0  0
   36.9120   28.2590   38.3870 C   0  0  0  0  0  0  0  0  0  0  0  0
   37.4940   28.6200   37.2500 N   0  0  0  0  0  0  0  0  0  0  0  0
   37.2430   29.3670   35.3150 H   0  0  0  0  0  0  0  0  0  0  0  0
   34.8470   29.5530   35.5360 H   0  0  0  0  0  0  0  0  0  0  0  0
   33.3340   28.9100   37.8180 C   0  0  0  0  0  0  0  0  0  0  0  0
   33.0740   28.0240   38.4420 H   0  0  0  0  0  0  0  0  0  0  0  0
   33.0620   29.7930   38.4350 H   0  0  0  0  0  0  0  0  0  0  0  0
   32.5080   28.8530   36.5720 C   0  0  0  0  0  0  0  0  0  0  0  0
   31.7220   28.0550   36.7820 H   0  0  0  0  0  0  0  0  0  0  0  0
   33.0500   28.4760   35.7200 H   0  0  0  0  0  0  0  0  0  0  0  0
   31.7440   30.0610   36.2820 C   0  0  0  0  0  3  0  0  0  0  0  0
   30.8200   30.8470   36.8190 C   0  0  0  0  0  3  0  0  0  0  0  0
   30.1510   32.0380   36.1520 C   0  0  0  0  0  0  0  0  0  0  0  0
   29.1910   31.7580   35.7230 H   0  0  0  0  0  0  0  0  0  0  0  0
   30.8320   32.3710   35.3170 H   0  0  0  0  0  0  0  0  0  0  0  0
   30.1530   32.8120   36.9200 H   0  0  0  0  0  0  0  0  0  0  0  0
   37.7330   27.7940   39.3850 O   0  0  0  0  0  0  0  0  0  0  0  0
   37.7560   29.1570   41.4270 C   0  0  0  0  0  0  0  0  0  0  0  0
   37.5690   28.0010   40.7500 C   0  0  0  0  0  0  0  0  0  0  0  0
   37.1670   26.8720   41.4350 C   0  0  0  0  0  0  0  0  0  0  0  0
   36.9430   26.8640   42.7880 C   0  0  0  0  0  0  0  0  0  0  0  0
   37.1320   28.0450   43.4920 C   0  0  0  0  0  0  0  0  0  0  0  0
   37.5360   29.1760   42.8020 C   0  0  0  0  0  0  0  0  0  0  0  0
   36.9970   25.9150   40.9620 H   0  0  0  0  0  0  0  0  0  0  0  0
   36.6290   25.9980   43.3530 H   0  0  0  0  0  0  0  0  0  0  0  0
   36.9760   28.1140   44.5540 H   0  0  0  0  0  0  0  0  0  0  0  0
   37.6860   30.0960   43.3260 H   0  0  0  0  0  0  0  0  0  0  0  0
   38.3710   30.5040   40.5410 S   0  0  0  0  0  0  0  0  0  0  0  0
   39.5110   30.1790   39.6510 O   0  0  0  0  0  0  0  0  0  0  0  0
   38.9690   31.4470   41.6110 O   0  0  0  0  0  0  0  0  0  0  0  0
   37.1770   31.6020   39.8500 C   0  0  0  0  0  0  0  0  0  0  0  0
   35.9380   31.0600   40.2980 F   0  0  0  0  0  0  0  0  0  0  0  0
   37.1660   31.5160   38.5070 F   0  0  0  0  0  0  0  0  0  0  0  0
   37.1510   32.8570   40.3940 F   0  0  0  0  0  0  0  0  0  0  0  0
  1  2  2  0  0  0  0
  1  6  1  0  0  0  0
  2  3  1  0  0  0  0
  3  9  1  0  0  0  0
  3  4  2  0  0  0  0
  5  4  1  0  0  0  0
  5 21  1  0  0  0  0
  6  5  2  0  0  0  0
  7  1  1  0  0  0  0
  8  2  1  0  0  0  0
  9 11  1  0  0  0  0
  9 10  1  0  0  0  0
 12 13  1  0  0  0  0
 12  9  1  0  0  0  0
 14 12  1  0  0  0  0
 15 12  1  0  0  0  0
 15 16  2  0  0  0  0
 17 16  1  0  0  0  0
 17 20  1  0  0  0  0
 18 17  1  0  0  0  0
 19 17  1  0  0  0  0
 21 23  1  0  0  0  0
 22 27  1  0  0  0  0
 23 22  2  0  0  0  0
 23 24  1  0  0  0  0
 24 25  2  0  0  0  0
 25 29  1  0  0  0  0
 25 26  1  0  0  0  0
 26 30  1  0  0  0  0
 27 31  1  0  0  0  0
 27 26  2  0  0  0  0
 28 24  1  0  0  0  0
 32 22  1  0  0  0  0
 32 34  2  0  0  0  0
 33 32  2  0  0  0  0
 35 36  1  0  0  0  0
 35 38  1  0  0  0  0
 35 32  1  0  0  0  0
 37 35  1  0  0  0  0
M  END
>  <minimizedAffinity>
-5.47341824

$$$$

 OpenBabel03242517583D

 38 39  0  0  0  0  0  0  0  0999 V2000
   37.3290   28.5330   43.8670 C   0  0  0  0  0  0  0  0  0  0  0  0
   37.0180   27.1920   43.5930 C   0  0  0  0  0  0  0  0  0  0  0  0
   37.3400   26.6600   42.3720 C   0  0  0  0  0  0  0  0  0  0  0  0
   37.9460   27.4870   41.5040 N   0  0  0  0  0  0  0  0  0  0  0  0
   38.2380   28.7540   41.7660 C   0  0  0  0  0  0  0  0  0  0  0  0
   37.9300   29.2730   42.9480 N   0  0  0  0  0  0  0  0  0  0  0  0
   37.0770   28.9580   44.8300 H   0  0  0  0  0  0  0  0  0  0  0  0
   36.5400   26.6520   44.3660 H   0  0  0  0  0  0  0  0  0  0  0  0
   37.0980   25.2610   41.9860 C   0  0  0  0  0  0  0  0  0  0  0  0
   36.8250   24.7260   42.9250 H   0  0  0  0  0  0  0  0  0  0  0  0
   36.2230   25.1360   41.3130 H   0  0  0  0  0  0  0  0  0  0  0  0
   38.3120   24.5990   41.4160 C   0  0  0  0  0  0  0  0  0  0  0  0
   38.5070   25.1450   40.4360 H   0  0  0  0  0  0  0  0  0  0  0  0
   38.1400   23.5760   41.1230 H   0  0  0  0  0  0  0  0  0  0  0  0
   39.5350   24.7800   42.1920 C   0  0  0  0  0  3  0  0  0  0  0  0
   40.7550   25.2880   42.0830 C   0  0  0  0  0  3  0  0  0  0  0  0
   41.8590   25.2120   43.1260 C   0  0  0  0  0  0  0  0  0  0  0  0
   42.5410   24.3900   42.9130 H   0  0  0  0  0  0  0  0  0  0  0  0
   41.3600   25.0150   44.1180 H   0  0  0  0  0  0  0  0  0  0  0  0
   42.2770   26.2180   43.1490 H   0  0  0  0  0  0  0  0  0  0  0  0
   38.8570   29.5860   40.8650 O   0  0  0  0  0  0  0  0  0  0  0  0
   37.4170   30.9930   39.4610 C   0  0  0  0  0  0  0  0  0  0  0  0
   38.3720   30.8020   40.3990 C   0  0  0  0  0  0  0  0  0  0  0  0
   38.9640   31.8980   40.9970 C   0  0  0  0  0  0  0  0  0  0  0  0
   38.6240   33.1880   40.6840 C   0  0  0  0  0  0  0  0  0  0  0  0
   37.6440   33.3950   39.7230 C   0  0  0  0  0  0  0  0  0  0  0  0
   37.0530   32.2940   39.1240 C   0  0  0  0  0  0  0  0  0  0  0  0
   39.7320   31.8230   41.7530 H   0  0  0  0  0  0  0  0  0  0  0  0
   39.0670   34.0650   41.1320 H   0  0  0  0  0  0  0  0  0  0  0  0
   37.3260   34.3800   39.4270 H   0  0  0  0  0  0  0  0  0  0  0  0
   36.2950   32.4330   38.3830 H   0  0  0  0  0  0  0  0  0  0  0  0
   36.7960   29.5930   38.6640 S   0  0  0  0  0  0  0  0  0  0  0  0
   37.8350   28.6300   38.2290 O   0  0  0  0  0  0  0  0  0  0  0  0
   36.1800   30.1230   37.3490 O   0  0  0  0  0  0  0  0  0  0  0  0
   35.3520   28.8650   39.3650 C   0  0  0  0  0  0  0  0  0  0  0  0
   35.6210   27.4680   39.2880 F   0  0  0  0  0  0  0  0  0  0  0  0
   34.2760   29.0880   38.5900 F   0  0  0  0  0  0  0  0  0  0  0  0
   35.1990   29.0480   40.7130 F   0  0  0  0  0  0  0  0  0  0  0  0
  1  7  1  0  0  0  0
  2  1  1  0  0  0  0
  2  8  1  0  0  0  0
  3  2  2  0  0  0  0
  4  5  2  0  0  0  0
  4  3  1  0  0  0  0
  5  6  1  0  0  0  0
  6  1  2  0  0  0  0
  9  3  1  0  0  0  0
  9 10  1  0  0  0  0
 11  9  1  0  0  0  0
 12  9  1  0  0  0  0
 12 15  1  0  0  0  0
 13 12  1  0  0  0  0
 14 12  1  0  0  0  0
 16 15  2  0  0  0  0
 16 17  1  0  0  0  0
 17 20  1  0  0  0  0
 17 19  1  0  0  0  0
 18 17  1  0  0  0  0
 21  5  1  0  0  0  0
 22 23  1  0  0  0  0
 23 21  1  0  0  0  0
 23 24  2  0  0  0  0
 24 28  1  0  0  0  0
 25 24  1  0  0  0  0
 25 29  1  0  0  0  0
 26 25  2  0  0  0  0
 27 22  2  0  0  0  0
 27 26  1  0  0  0  0
 30 26  1  0  0  0  0
 31 27  1  0  0  0  0
 32 35  1  0  0  0  0
 32 22  1  0  0  0  0
 33 32  2  0  0  0  0
 34 32  2  0  0  0  0
 35 38  1  0  0  0  0
 36 35  1  0  0  0  0
 37 35  1  0  0  0  0
M  END
>  <minimizedAffinity>
-5.45467234

$$$$

 OpenBabel03242517583D

 38 39  0  0  0  0  0  0  0  0999 V2000
   35.3060   26.1170   37.2670 C   0  0  0  0  0  0  0  0  0  0  0  0
   34.2260   27.0100   37.2050 C   0  0  0  0  0  0  0  0  0  0  0  0
   34.2540   28.1570   37.9560 C   0  0  0  0  0  0  0  0  0  0  0  0
   35.3440   28.3420   38.7190 N   0  0  0  0  0  0  0  0  0  0  0  0
   36.3630   27.4940   38.7750 C   0  0  0  0  0  0  0  0  0  0  0  0
   36.3410   26.3840   38.0480 N   0  0  0  0  0  0  0  0  0  0  0  0
   35.2890   25.2100   36.6760 H   0  0  0  0  0  0  0  0  0  0  0  0
   33.4290   26.7440   36.5630 H   0  0  0  0  0  0  0  0  0  0  0  0
   33.2000   29.1830   37.9440 C   0  0  0  0  0  0  0  0  0  0  0  0
   32.5550   28.9720   38.8290 H   0  0  0  0  0  0  0  0  0  0  0  0
   33.5870   30.2130   38.1020 H   0  0  0  0  0  0  0  0  0  0  0  0
   32.3390   29.1160   36.7230 C   0  0  0  0  0  0  0  0  0  0  0  0
   31.7170   28.1710   36.8580 H   0  0  0  0  0  0  0  0  0  0  0  0
   32.8980   28.9420   35.8180 H   0  0  0  0  0  0  0  0  0  0  0  0
   31.3600   30.1910   36.5980 C   0  0  0  0  0  3  0  0  0  0  0  0
   31.0830   31.2470   35.8460 C   0  0  0  0  0  3  0  0  0  0  0  0
   29.9670   32.2530   36.0790 C   0  0  0  0  0  0  0  0  0  0  0  0
   30.3370   33.1340   36.6000 H   0  0  0  0  0  0  0  0  0  0  0  0
   29.2010   31.7450   36.7330 H   0  0  0  0  0  0  0  0  0  0  0  0
   29.5280   32.3990   35.0920 H   0  0  0  0  0  0  0  0  0  0  0  0
   37.4700   27.6990   39.5620 O   0  0  0  0  0  0  0  0  0  0  0  0
   37.7380   29.0430   41.5990 C   0  0  0  0  0  0  0  0  0  0  0  0
   37.4770   27.8920   40.9390 C   0  0  0  0  0  0  0  0  0  0  0  0
   37.1750   26.7520   41.6570 C   0  0  0  0  0  0  0  0  0  0  0  0
   37.1230   26.7300   43.0270 C   0  0  0  0  0  0  0  0  0  0  0  0
   37.3890   27.9050   43.7150 C   0  0  0  0  0  0  0  0  0  0  0  0
   37.6920   29.0470   42.9910 C   0  0  0  0  0  0  0  0  0  0  0  0
   36.9560   25.7980   41.1990 H   0  0  0  0  0  0  0  0  0  0  0  0
   36.8900   25.8550   43.6180 H   0  0  0  0  0  0  0  0  0  0  0  0
   37.3660   27.9620   44.7890 H   0  0  0  0  0  0  0  0  0  0  0  0
   37.8990   29.9640   43.5030 H   0  0  0  0  0  0  0  0  0  0  0  0
   38.2240   30.4050   40.6570 S   0  0  0  0  0  0  0  0  0  0  0  0
   39.3070   30.1190   39.6870 O   0  0  0  0  0  0  0  0  0  0  0  0
   38.8580   31.3860   41.6710 O   0  0  0  0  0  0  0  0  0  0  0  0
   36.9340   31.4420   40.0500 C   0  0  0  0  0  0  0  0  0  0  0  0
   36.9680   31.2140   38.6440 F   0  0  0  0  0  0  0  0  0  0  0  0
   37.2340   32.7400   40.2320 F   0  0  0  0  0  0  0  0  0  0  0  0
   35.6640   31.0440   40.3700 F   0  0  0  0  0  0  0  0  0  0  0  0
  1  6  1  0  0  0  0
  2  1  2  0  0  0  0
  2  3  1  0  0  0  0
  3  4  2  0  0  0  0
  4  5  1  0  0  0  0
  5 21  1  0  0  0  0
  6  5  2  0  0  0  0
  7  1  1  0  0  0  0
  8  2  1  0  0  0  0
  9  3  1  0  0  0  0
  9 11  1  0  0  0  0
  9 10  1  0  0  0  0
 12 13  1  0  0  0  0
 12  9  1  0  0  0  0
 14 12  1  0  0  0  0
 15 12  1  0  0  0  0
 16 17  1  0  0  0  0
 16 15  2  0  0  0  0
 17 18  1  0  0  0  0
 17 19  1  0  0  0  0
 20 17  1  0  0  0  0
 21 23  1  0  0  0  0
 22 27  1  0  0  0  0
 23 22  2  0  0  0  0
 23 24  1  0  0  0  0
 24 25  2  0  0  0  0
 25 29  1  0  0  0  0
 25 26  1  0  0  0  0
 26 30  1  0  0  0  0
 27 31  1  0  0  0  0
 27 26  2  0  0  0  0
 28 24  1  0  0  0  0
 32 22  1  0  0  0  0
 32 34  2  0  0  0  0
 33 32  2  0  0  0  0
 35 37  1  0  0  0  0
 35 38  1  0  0  0  0
 35 32  1  0  0  0  0
 36 35  1  0  0  0  0
M  END
>  <minimizedAffinity>
-5.38807726

$$$$

 OpenBabel03242517583D

 38 39  0  0  0  0  0  0  0  0999 V2000
   40.4530   31.3210   41.5340 C   0  0  0  0  0  0  0  0  0  0  0  0
   39.3910   31.8080   40.7570 C   0  0  0  0  0  0  0  0  0  0  0  0
   38.1520   31.2320   40.8680 C   0  0  0  0  0  0  0  0  0  0  0  0
   38.0460   30.2120   41.7370 N   0  0  0  0  0  0  0  0  0  0  0  0
   39.0530   29.7540   42.4710 C   0  0  0  0  0  0  0  0  0  0  0  0
   40.2530   30.3110   42.3670 N   0  0  0  0  0  0  0  0  0  0  0  0
   41.4330   31.7720   41.4500 H   0  0  0  0  0  0  0  0  0  0  0  0
   39.6110   32.6170   40.1120 H   0  0  0  0  0  0  0  0  0  0  0  0
   36.9580   31.6800   40.1350 C   0  0  0  0  0  0  0  0  0  0  0  0
   36.0860   31.2260   40.6600 H   0  0  0  0  0  0  0  0  0  0  0  0
   36.7950   32.7780   40.1900 H   0  0  0  0  0  0  0  0  0  0  0  0
   36.9380   31.2060   38.7170 C   0  0  0  0  0  0  0  0  0  0  0  0
   38.0200   30.9390   38.4840 H   0  0  0  0  0  0  0  0  0  0  0  0
   36.6970   31.9840   38.0110 H   0  0  0  0  0  0  0  0  0  0  0  0
   36.1930   29.9710   38.4900 C   0  0  0  0  0  3  0  0  0  0  0  0
   35.5720   29.3090   37.5240 C   0  0  0  0  0  3  0  0  0  0  0  0
   34.7810   28.0190   37.6800 C   0  0  0  0  0  0  0  0  0  0  0  0
   33.7150   28.2230   37.7730 H   0  0  0  0  0  0  0  0  0  0  0  0
   35.1360   27.5300   38.6310 H   0  0  0  0  0  0  0  0  0  0  0  0
   35.1030   27.4040   36.8390 H   0  0  0  0  0  0  0  0  0  0  0  0
   38.9260   28.7100   43.3530 O   0  0  0  0  0  0  0  0  0  0  0  0
   38.9130   26.3330   42.7390 C   0  0  0  0  0  0  0  0  0  0  0  0
   39.4990   27.4500   43.2270 C   0  0  0  0  0  0  0  0  0  0  0  0
   40.8110   27.3940   43.6560 C   0  0  0  0  0  0  0  0  0  0  0  0
   41.5580   26.2470   43.6110 C   0  0  0  0  0  0  0  0  0  0  0  0
   40.9660   25.0950   43.1120 C   0  0  0  0  0  0  0  0  0  0  0  0
   39.6500   25.1530   42.6830 C   0  0  0  0  0  0  0  0  0  0  0  0
   41.3440   28.2450   44.0570 H   0  0  0  0  0  0  0  0  0  0  0  0
   42.5850   26.1700   43.9400 H   0  0  0  0  0  0  0  0  0  0  0  0
   41.4920   24.1590   43.0470 H   0  0  0  0  0  0  0  0  0  0  0  0
   39.1770   24.2770   42.2940 H   0  0  0  0  0  0  0  0  0  0  0  0
   37.2390   26.4320   42.3270 S   0  0  0  0  0  0  0  0  0  0  0  0
   36.3880   27.0390   43.3770 O   0  0  0  0  0  0  0  0  0  0  0  0
   36.7630   24.9630   42.2390 O   0  0  0  0  0  0  0  0  0  0  0  0
   36.8640   26.9370   40.6800 C   0  0  0  0  0  0  0  0  0  0  0  0
   35.8860   27.9550   40.8660 F   0  0  0  0  0  0  0  0  0  0  0  0
   36.2580   25.9460   40.0010 F   0  0  0  0  0  0  0  0  0  0  0  0
   37.8610   27.6160   40.0340 F   0  0  0  0  0  0  0  0  0  0  0  0
  1  6  1  0  0  0  0
  2  3  1  0  0  0  0
  2  1  2  0  0  0  0
  3  4  2  0  0  0  0
  4  5  1  0  0  0  0
  5 21  1  0  0  0  0
  6  5  2  0  0  0  0
  7  1  1  0  0  0  0
  8  2  1  0  0  0  0
  9 11  1  0  0  0  0
  9 10  1  0  0  0  0
  9  3  1  0  0  0  0
 12  9  1  0  0  0  0
 13 12  1  0  0  0  0
 14 12  1  0  0  0  0
 15 12  1  0  0  0  0
 16 17  1  0  0  0  0
 16 15  2  0  0  0  0
 17 18  1  0  0  0  0
 17 19  1  0  0  0  0
 20 17  1  0  0  0  0
 22 23  1  0  0  0  0
 23 21  1  0  0  0  0
 23 24  2  0  0  0  0
 24 28  1  0  0  0  0
 25 24  1  0  0  0  0
 25 29  1  0  0  0  0
 26 25  2  0  0  0  0
 27 22  2  0  0  0  0
 27 26  1  0  0  0  0
 30 26  1  0  0  0  0
 31 27  1  0  0  0  0
 32 22  1  0  0  0  0
 32 33  2  0  0  0  0
 34 32  2  0  0  0  0
 35 36  1  0  0  0  0
 35 32  1  0  0  0  0
 37 35  1  0  0  0  0
 38 35  1  0  0  0  0
M  END
>  <minimizedAffinity>
-5.37495661

$$$$

 OpenBabel03242517583D

 38 39  0  0  0  0  0  0  0  0999 V2000
   35.3600   27.2060   37.1500 C   0  0  0  0  0  0  0  0  0  0  0  0
   35.8170   25.8940   37.3460 C   0  0  0  0  0  0  0  0  0  0  0  0
   36.3120   25.5280   38.5710 C   0  0  0  0  0  0  0  0  0  0  0  0
   36.3250   26.4810   39.5170 N   0  0  0  0  0  0  0  0  0  0  0  0
   35.8920   27.7210   39.3280 C   0  0  0  0  0  0  0  0  0  0  0  0
   35.4100   28.0790   38.1450 N   0  0  0  0  0  0  0  0  0  0  0  0
   34.9680   27.5010   36.1860 H   0  0  0  0  0  0  0  0  0  0  0  0
   35.7500   25.2420   36.5160 H   0  0  0  0  0  0  0  0  0  0  0  0
   36.7840   24.1740   38.9040 C   0  0  0  0  0  0  0  0  0  0  0  0
   36.1850   23.4760   38.2750 H   0  0  0  0  0  0  0  0  0  0  0  0
   37.8420   23.9940   38.6170 H   0  0  0  0  0  0  0  0  0  0  0  0
   36.5500   23.8160   40.3380 C   0  0  0  0  0  0  0  0  0  0  0  0
   36.2660   22.7130   40.3180 H   0  0  0  0  0  0  0  0  0  0  0  0
   35.6890   24.3060   40.7630 H   0  0  0  0  0  0  0  0  0  0  0  0
   37.7320   23.8810   41.1910 C   0  0  0  0  0  3  0  0  0  0  0  0
   38.1420   24.4000   42.3400 C   0  0  0  0  0  3  0  0  0  0  0  0
   39.5530   24.3350   42.9060 C   0  0  0  0  0  0  0  0  0  0  0  0
   40.1080   25.2430   42.6760 H   0  0  0  0  0  0  0  0  0  0  0  0
   40.0660   23.4650   42.4040 H   0  0  0  0  0  0  0  0  0  0  0  0
   39.4080   24.0850   43.9570 H   0  0  0  0  0  0  0  0  0  0  0  0
   35.9140   28.6830   40.3080 O   0  0  0  0  0  0  0  0  0  0  0  0
   37.7710   29.4650   41.7090 C   0  0  0  0  0  0  0  0  0  0  0  0
   36.7040   28.6760   41.4510 C   0  0  0  0  0  0  0  0  0  0  0  0
   36.3050   27.7470   42.3920 C   0  0  0  0  0  0  0  0  0  0  0  0
   36.9470   27.5830   43.5920 C   0  0  0  0  0  0  0  0  0  0  0  0
   38.0440   28.3880   43.8670 C   0  0  0  0  0  0  0  0  0  0  0  0
   38.4410   29.3190   42.9210 C   0  0  0  0  0  0  0  0  0  0  0  0
   35.4630   27.0830   42.2560 H   0  0  0  0  0  0  0  0  0  0  0  0
   36.6610   26.8660   44.3480 H   0  0  0  0  0  0  0  0  0  0  0  0
   38.5950   28.3160   44.7880 H   0  0  0  0  0  0  0  0  0  0  0  0
   39.2830   29.9500   43.1150 H   0  0  0  0  0  0  0  0  0  0  0  0
   38.2950   30.5260   40.4520 S   0  0  0  0  0  0  0  0  0  0  0  0
   38.9580   29.8430   39.3160 O   0  0  0  0  0  0  0  0  0  0  0  0
   39.4090   31.3860   41.0930 O   0  0  0  0  0  0  0  0  0  0  0  0
   37.1840   31.8170   39.9990 C   0  0  0  0  0  0  0  0  0  0  0  0
   36.1880   31.7630   41.0160 F   0  0  0  0  0  0  0  0  0  0  0  0
   36.5610   31.5310   38.8410 F   0  0  0  0  0  0  0  0  0  0  0  0
   37.6710   33.0880   40.1470 F   0  0  0  0  0  0  0  0  0  0  0  0
  1  2  2  0  0  0  0
  1  6  1  0  0  0  0
  2  3  1  0  0  0  0
  3  9  1  0  0  0  0
  3  4  2  0  0  0  0
  5  4  1  0  0  0  0
  5 21  1  0  0  0  0
  6  5  2  0  0  0  0
  7  1  1  0  0  0  0
  8  2  1  0  0  0  0
  9 12  1  0  0  0  0
 10  9  1  0  0  0  0
 11  9  1  0  0  0  0
 12 14  1  0  0  0  0
 12 15  1  0  0  0  0
 13 12  1  0  0  0  0
 15 16  2  0  0  0  0
 16 17  1  0  0  0  0
 17 20  1  0  0  0  0
 18 17  1  0  0  0  0
 19 17  1  0  0  0  0
 21 23  1  0  0  0  0
 22 27  1  0  0  0  0
 23 22  2  0  0  0  0
 23 24  1  0  0  0  0
 24 25  2  0  0  0  0
 25 26  1  0  0  0  0
 25 29  1  0  0  0  0
 26 30  1  0  0  0  0
 27 31  1  0  0  0  0
 27 26  2  0  0  0  0
 28 24  1  0  0  0  0
 32 34  2  0  0  0  0
 32 22  1  0  0  0  0
 33 32  2  0  0  0  0
 35 38  1  0  0  0  0
 35 32  1  0  0  0  0
 35 36  1  0  0  0  0
 37 35  1  0  0  0  0
M  END
>  <minimizedAffinity>
-5.34494543

$$$$

 OpenBabel03242517583D

 38 39  0  0  0  0  0  0  0  0999 V2000
   38.3060   22.4610   40.3820 C   0  0  0  0  0  0  0  0  0  0  0  0
   37.1540   22.3770   39.5850 C   0  0  0  0  0  0  0  0  0  0  0  0
   36.1460   23.2890   39.7570 C   0  0  0  0  0  0  0  0  0  0  0  0
   36.3410   24.2210   40.7060 N   0  0  0  0  0  0  0  0  0  0  0  0
   37.4330   24.2970   41.4570 C   0  0  0  0  0  0  0  0  0  0  0  0
   38.4120   23.4170   41.2920 N   0  0  0  0  0  0  0  0  0  0  0  0
   39.1060   21.7440   40.2490 H   0  0  0  0  0  0  0  0  0  0  0  0
   37.1280   21.5940   38.8750 H   0  0  0  0  0  0  0  0  0  0  0  0
   34.9110   23.3230   38.9580 C   0  0  0  0  0  0  0  0  0  0  0  0
   34.5010   24.3540   39.0700 H   0  0  0  0  0  0  0  0  0  0  0  0
   35.0890   23.1950   37.8690 H   0  0  0  0  0  0  0  0  0  0  0  0
   33.8760   22.3610   39.4490 C   0  0  0  0  0  0  0  0  0  0  0  0
   34.1020   22.2330   40.5580 H   0  0  0  0  0  0  0  0  0  0  0  0
   33.9870   21.3710   39.0370 H   0  0  0  0  0  0  0  0  0  0  0  0
   32.5030   22.8550   39.4040 C   0  0  0  0  0  3  0  0  0  0  0  0
   31.3330   22.6930   40.0040 C   0  0  0  0  0  3  0  0  0  0  0  0
   30.0180   23.3480   39.6100 C   0  0  0  0  0  0  0  0  0  0  0  0
   29.4200   22.6820   38.9900 H   0  0  0  0  0  0  0  0  0  0  0  0
   30.2780   24.2630   39.0040 H   0  0  0  0  0  0  0  0  0  0  0  0
   29.5880   23.6770   40.5560 H   0  0  0  0  0  0  0  0  0  0  0  0
   37.6150   25.2560   42.4230 O   0  0  0  0  0  0  0  0  0  0  0  0
   39.0290   27.2360   42.0920 C   0  0  0  0  0  0  0  0  0  0  0  0
   38.7600   26.0200   42.6190 C   0  0  0  0  0  0  0  0  0  0  0  0
   39.6840   25.4240   43.4550 C   0  0  0  0  0  0  0  0  0  0  0  0
   40.8770   26.0140   43.7830 C   0  0  0  0  0  0  0  0  0  0  0  0
   41.1630   27.2620   43.2470 C   0  0  0  0  0  0  0  0  0  0  0  0
   40.2340   27.8570   42.4090 C   0  0  0  0  0  0  0  0  0  0  0  0
   39.5380   24.4560   43.9120 H   0  0  0  0  0  0  0  0  0  0  0  0
   41.6200   25.5740   44.4320 H   0  0  0  0  0  0  0  0  0  0  0  0
   42.0790   27.7840   43.4610 H   0  0  0  0  0  0  0  0  0  0  0  0
   40.4350   28.8190   41.9880 H   0  0  0  0  0  0  0  0  0  0  0  0
   37.8920   27.8800   40.9640 S   0  0  0  0  0  0  0  0  0  0  0  0
   37.7910   27.1150   39.6980 O   0  0  0  0  0  0  0  0  0  0  0  0
   38.4770   29.2490   40.5460 O   0  0  0  0  0  0  0  0  0  0  0  0
   36.3550   28.4330   41.6250 C   0  0  0  0  0  0  0  0  0  0  0  0
   36.5970   29.8070   41.9100 F   0  0  0  0  0  0  0  0  0  0  0  0
   36.0980   27.8390   42.8050 F   0  0  0  0  0  0  0  0  0  0  0  0
   35.3240   28.5070   40.7270 F   0  0  0  0  0  0  0  0  0  0  0  0
  1  6  1  0  0  0  0
  2  3  1  0  0  0  0
  2  1  2  0  0  0  0
  3  4  2  0  0  0  0
  4  5  1  0  0  0  0
  5 21  1  0  0  0  0
  6  5  2  0  0  0  0
  7  1  1  0  0  0  0
  8  2  1  0  0  0  0
  9 10  1  0  0  0  0
  9 12  1  0  0  0  0
  9  3  1  0  0  0  0
 11  9  1  0  0  0  0
 12 13  1  0  0  0  0
 14 12  1  0  0  0  0
 15 12  1  0  0  0  0
 15 16  2  0  0  0  0
 17 16  1  0  0  0  0
 17 20  1  0  0  0  0
 18 17  1  0  0  0  0
 19 17  1  0  0  0  0
 21 23  1  0  0  0  0
 22 27  2  0  0  0  0
 22 23  1  0  0  0  0
 23 24  2  0  0  0  0
 24 25  1  0  0  0  0
 24 28  1  0  0  0  0
 25 29  1  0  0  0  0
 26 30  1  0  0  0  0
 26 25  2  0  0  0  0
 27 26  1  0  0  0  0
 31 27  1  0  0  0  0
 32 35  1  0  0  0  0
 32 22  1  0  0  0  0
 33 32  2  0  0  0  0
 34 32  2  0  0  0  0
 35 36  1  0  0  0  0
 35 37  1  0  0  0  0
 38 35  1  0  0  0  0
M  END
>  <minimizedAffinity>
-5.33687258

$$$$

 OpenBabel03242517583D

 38 39  0  0  0  0  0  0  0  0999 V2000
   41.2430   27.9560   42.6900 C   0  0  0  0  0  0  0  0  0  0  0  0
   40.1150   27.6470   43.4660 C   0  0  0  0  0  0  0  0  0  0  0  0
   38.8900   28.1460   43.1060 C   0  0  0  0  0  0  0  0  0  0  0  0
   38.8620   28.9170   42.0060 N   0  0  0  0  0  0  0  0  0  0  0  0
   39.9310   29.2070   41.2740 C   0  0  0  0  0  0  0  0  0  0  0  0
   41.1180   28.7240   41.6190 N   0  0  0  0  0  0  0  0  0  0  0  0
   42.2120   27.5640   42.9700 H   0  0  0  0  0  0  0  0  0  0  0  0
   40.2760   27.0280   44.3080 H   0  0  0  0  0  0  0  0  0  0  0  0
   37.6350   27.8610   43.8180 C   0  0  0  0  0  0  0  0  0  0  0  0
   37.9140   27.2260   44.6910 H   0  0  0  0  0  0  0  0  0  0  0  0
   37.1620   28.7670   44.2540 H   0  0  0  0  0  0  0  0  0  0  0  0
   36.6570   27.0940   42.9860 C   0  0  0  0  0  0  0  0  0  0  0  0
   36.4720   27.7530   42.0750 H   0  0  0  0  0  0  0  0  0  0  0  0
   35.6890   26.9980   43.4480 H   0  0  0  0  0  0  0  0  0  0  0  0
   37.1630   25.8390   42.4390 C   0  0  0  0  0  3  0  0  0  0  0  0
   36.9080   24.9580   41.4820 C   0  0  0  0  0  3  0  0  0  0  0  0
   37.6340   23.6410   41.2510 C   0  0  0  0  0  0  0  0  0  0  0  0
   37.0920   22.8120   41.7030 H   0  0  0  0  0  0  0  0  0  0  0  0
   38.6380   23.7290   41.7560 H   0  0  0  0  0  0  0  0  0  0  0  0
   37.7950   23.6090   40.1740 H   0  0  0  0  0  0  0  0  0  0  0  0
   39.8830   29.9980   40.1530 O   0  0  0  0  0  0  0  0  0  0  0  0
   37.9110   31.0400   39.1270 C   0  0  0  0  0  0  0  0  0  0  0  0
   39.0040   31.0500   39.9240 C   0  0  0  0  0  0  0  0  0  0  0  0
   39.3290   32.2010   40.6140 C   0  0  0  0  0  0  0  0  0  0  0  0
   38.5860   33.3500   40.5310 C   0  0  0  0  0  0  0  0  0  0  0  0
   37.4630   33.3510   39.7170 C   0  0  0  0  0  0  0  0  0  0  0  0
   37.1400   32.1940   39.0250 C   0  0  0  0  0  0  0  0  0  0  0  0
   40.1850   32.2830   41.2680 H   0  0  0  0  0  0  0  0  0  0  0  0
   38.8140   34.2670   41.0570 H   0  0  0  0  0  0  0  0  0  0  0  0
   36.8340   34.2160   39.6030 H   0  0  0  0  0  0  0  0  0  0  0  0
   36.2770   32.1740   38.3930 H   0  0  0  0  0  0  0  0  0  0  0  0
   37.6190   29.6140   38.1990 S   0  0  0  0  0  0  0  0  0  0  0  0
   38.7200   29.2530   37.2740 O   0  0  0  0  0  0  0  0  0  0  0  0
   36.4350   29.9750   37.2730 O   0  0  0  0  0  0  0  0  0  0  0  0
   36.8900   28.2550   39.0540 C   0  0  0  0  0  0  0  0  0  0  0  0
   36.3500   28.8590   40.2250 F   0  0  0  0  0  0  0  0  0  0  0  0
   37.8310   27.3890   39.4720 F   0  0  0  0  0  0  0  0  0  0  0  0
   35.7720   27.7250   38.4670 F   0  0  0  0  0  0  0  0  0  0  0  0
  1  7  1  0  0  0  0
  1  2  1  0  0  0  0
  2  8  1  0  0  0  0
  3  2  2  0  0  0  0
  3  9  1  0  0  0  0
  4  3  1  0  0  0  0
  5  6  1  0  0  0  0
  5  4  2  0  0  0  0
  6  1  2  0  0  0  0
  9 11  1  0  0  0  0
  9 10  1  0  0  0  0
 12 14  1  0  0  0  0
 12  9  1  0  0  0  0
 13 12  1  0  0  0  0
 15 12  1  0  0  0  0
 16 15  2  0  0  0  0
 17 16  1  0  0  0  0
 17 18  1  0  0  0  0
 17 19  1  0  0  0  0
 20 17  1  0  0  0  0
 21  5  1  0  0  0  0
 22 23  1  0  0  0  0
 23 21  1  0  0  0  0
 23 24  2  0  0  0  0
 24 28  1  0  0  0  0
 25 24  1  0  0  0  0
 25 29  1  0  0  0  0
 26 25  2  0  0  0  0
 27 22  2  0  0  0  0
 27 26  1  0  0  0  0
 30 26  1  0  0  0  0
 31 27  1  0  0  0  0
 32 35  1  0  0  0  0
 32 22  1  0  0  0  0
 33 32  2  0  0  0  0
 34 32  2  0  0  0  0
 35 37  1  0  0  0  0
 35 36  1  0  0  0  0
 38 35  1  0  0  0  0
M  END
>  <minimizedAffinity>
-5.20037413

$$$$

 OpenBabel03242517583D

 38 39  0  0  0  0  0  0  0  0999 V2000
   36.1770   28.9140   35.2750 C   0  0  0  0  0  0  0  0  0  0  0  0
   34.7930   28.8330   35.4920 C   0  0  0  0  0  0  0  0  0  0  0  0
   34.3030   28.9320   36.7680 C   0  0  0  0  0  0  0  0  0  0  0  0
   35.2110   29.1020   37.7430 N   0  0  0  0  0  0  0  0  0  0  0  0
   36.5200   29.1780   37.5340 C   0  0  0  0  0  0  0  0  0  0  0  0
   36.9980   29.0850   36.2990 N   0  0  0  0  0  0  0  0  0  0  0  0
   36.5690   28.8370   34.2690 H   0  0  0  0  0  0  0  0  0  0  0  0
   34.1880   28.6990   34.6350 H   0  0  0  0  0  0  0  0  0  0  0  0
   32.8730   28.9000   37.1130 C   0  0  0  0  0  0  0  0  0  0  0  0
   32.6660   27.8630   37.4690 H   0  0  0  0  0  0  0  0  0  0  0  0
   32.6120   29.5600   37.9680 H   0  0  0  0  0  0  0  0  0  0  0  0
   31.9870   29.1680   35.9390 C   0  0  0  0  0  0  0  0  0  0  0  0
   31.2580   28.2930   35.9200 H   0  0  0  0  0  0  0  0  0  0  0  0
   32.5030   29.1070   34.9940 H   0  0  0  0  0  0  0  0  0  0  0  0
   31.1430   30.3530   36.0600 C   0  0  0  0  0  3  0  0  0  0  0  0
   30.9170   31.5180   35.4700 C   0  0  0  0  0  3  0  0  0  0  0  0
   29.9700   32.6050   35.9540 C   0  0  0  0  0  0  0  0  0  0  0  0
   30.5060   33.3680   36.5170 H   0  0  0  0  0  0  0  0  0  0  0  0
   29.2270   32.1090   36.6420 H   0  0  0  0  0  0  0  0  0  0  0  0
   29.4430   32.9220   35.0540 H   0  0  0  0  0  0  0  0  0  0  0  0
   37.4340   29.3510   38.5430 O   0  0  0  0  0  0  0  0  0  0  0  0
   37.9210   30.6050   40.5970 C   0  0  0  0  0  0  0  0  0  0  0  0
   37.6410   30.5130   39.2770 C   0  0  0  0  0  0  0  0  0  0  0  0
   37.5430   31.6660   38.5230 C   0  0  0  0  0  0  0  0  0  0  0  0
   37.7190   32.9180   39.0550 C   0  0  0  0  0  0  0  0  0  0  0  0
   38.0070   33.0230   40.4080 C   0  0  0  0  0  0  0  0  0  0  0  0
   38.1050   31.8640   41.1620 C   0  0  0  0  0  0  0  0  0  0  0  0
   37.3230   31.6710   37.4650 H   0  0  0  0  0  0  0  0  0  0  0  0
   37.6490   33.8380   38.4930 H   0  0  0  0  0  0  0  0  0  0  0  0
   38.1580   33.9710   40.8930 H   0  0  0  0  0  0  0  0  0  0  0  0
   38.3270   31.9240   42.2060 H   0  0  0  0  0  0  0  0  0  0  0  0
   37.9160   29.1410   41.5120 S   0  0  0  0  0  0  0  0  0  0  0  0
   38.5600   29.2520   42.8420 O   0  0  0  0  0  0  0  0  0  0  0  0
   38.8240   28.1720   40.7200 O   0  0  0  0  0  0  0  0  0  0  0  0
   36.4260   28.2010   41.4830 C   0  0  0  0  0  0  0  0  0  0  0  0
   35.4430   29.1580   41.1000 F   0  0  0  0  0  0  0  0  0  0  0  0
   36.0930   27.7880   42.7190 F   0  0  0  0  0  0  0  0  0  0  0  0
   36.3330   27.2810   40.4730 F   0  0  0  0  0  0  0  0  0  0  0  0
  1  2  2  0  0  0  0
  1  6  1  0  0  0  0
  2  3  1  0  0  0  0
  3  9  1  0  0  0  0
  3  4  2  0  0  0  0
  5  4  1  0  0  0  0
  5 21  1  0  0  0  0
  6  5  2  0  0  0  0
  7  1  1  0  0  0  0
  8  2  1  0  0  0  0
  9 10  1  0  0  0  0
  9 11  1  0  0  0  0
 12 15  1  0  0  0  0
 12  9  1  0  0  0  0
 13 12  1  0  0  0  0
 14 12  1  0  0  0  0
 16 17  1  0  0  0  0
 16 15  2  0  0  0  0
 17 18  1  0  0  0  0
 17 19  1  0  0  0  0
 20 17  1  0  0  0  0
 21 23  1  0  0  0  0
 22 27  1  0  0  0  0
 22 32  1  0  0  0  0
 23 22  2  0  0  0  0
 24 25  2  0  0  0  0
 24 23  1  0  0  0  0
 25 26  1  0  0  0  0
 26 30  1  0  0  0  0
 26 27  2  0  0  0  0
 27 31  1  0  0  0  0
 28 24  1  0  0  0  0
 29 25  1  0  0  0  0
 32 33  2  0  0  0  0
 34 32  2  0  0  0  0
 35 32  1  0  0  0  0
 35 37  1  0  0  0  0
 36 35  1  0  0  0  0
 38 35  1  0  0  0  0
M  END
>  <minimizedAffinity>
-5.14625454

$$$$
