
 OpenBabel03252509123D

 27 29  0  0  0  0  0  0  0  0999 V2000
   43.3820   31.2980   42.4440 C   0  0  0  0  0  0  0  0  0  0  0  0
   44.5900   31.5770   43.0800 C   0  0  0  0  0  0  0  0  0  0  0  0
   45.2040   30.6870   43.9470 C   0  0  0  0  0  0  0  0  0  0  0  0
   44.5860   29.4500   44.1980 C   0  0  0  0  0  0  0  0  0  0  0  0
   44.8760   28.3620   44.9540 N   0  0  0  0  0  0  0  0  0  0  0  0
   43.8930   27.4440   44.7970 C   0  0  0  0  0  0  0  0  0  0  0  0
   43.0130   27.9810   43.9460 N   0  0  0  0  0  0  0  0  0  0  0  0
   43.3980   29.2100   43.5530 C   0  0  0  0  0  0  0  0  0  0  0  0
   42.7720   30.0760   42.6910 C   0  0  0  0  0  0  0  0  0  0  0  0
   42.9890   32.0580   41.7870 H   0  0  0  0  0  0  0  0  0  0  0  0
   45.7350   28.2910   45.5470 H   0  0  0  0  0  0  0  0  0  0  0  0
   43.9450   26.5000   45.3230 H   0  0  0  0  0  0  0  0  0  0  0  0
   41.8510   29.8920   42.1910 H   0  0  0  0  0  0  0  0  0  0  0  0
   45.7110   35.0500   43.4860 C   0  0  0  0  0  0  0  0  0  0  0  0
   46.4940   35.2560   42.3650 C   0  0  0  0  0  0  0  0  0  0  0  0
   46.6380   34.1950   41.4620 C   0  0  0  0  0  0  0  0  0  0  0  0
   45.9990   33.0170   41.7360 N   0  0  0  0  0  0  0  0  0  0  0  0
   45.2430   32.8500   42.8360 C   0  0  0  0  0  0  0  0  0  0  0  0
   45.1010   33.8630   43.7080 N   0  0  0  0  0  0  0  0  0  0  0  0
   45.5620   35.8260   44.2170 H   0  0  0  0  0  0  0  0  0  0  0  0
   46.9520   36.2260   42.2540 H   0  0  0  0  0  0  0  0  0  0  0  0
   47.2410   34.3590   40.6060 H   0  0  0  0  0  0  0  0  0  0  0  0
   46.7450   31.0240   44.7640 S   0  0  0  0  0  0  0  0  0  0  0  0
   48.1700   30.9390   43.6910 C   0  0  0  0  0  0  0  0  0  0  0  0
   48.6810   32.1610   43.3210 F   0  0  0  0  0  0  0  0  0  0  0  0
   49.1160   30.1450   44.3110 F   0  0  0  0  0  0  0  0  0  0  0  0
   47.8040   30.2890   42.5080 F   0  0  0  0  0  0  0  0  0  0  0  0
  1  9  2  0  0  0  0
  1  2  1  0  0  0  0
  2  3  2  0  0  0  0
  3  4  1  0  0  0  0
  3 23  1  0  0  0  0
  4  5  1  0  0  0  0
  5 11  1  0  0  0  0
  6  5  1  0  0  0  0
  6 12  1  0  0  0  0
  7  6  2  0  0  0  0
  8  7  1  0  0  0  0
  8  4  2  0  0  0  0
  9  8  1  0  0  0  0
 10  1  1  0  0  0  0
 13  9  1  0  0  0  0
 14 19  1  0  0  0  0
 14 20  1  0  0  0  0
 15 14  2  0  0  0  0
 16 17  2  0  0  0  0
 16 15  1  0  0  0  0
 17 18  1  0  0  0  0
 18  2  1  0  0  0  0
 18 19  2  0  0  0  0
 21 15  1  0  0  0  0
 22 16  1  0  0  0  0
 24 26  1  0  0  0  0
 24 23  1  0  0  0  0
 25 24  1  0  0  0  0
 27 24  1  0  0  0  0
M  END
>  <minimizedAffinity>
-2.97105956

>  <minimizedRMSD>
4.84731674

$$$$
