
 OpenBabel03242520023D

 20 21  0  0  0  0  0  0  0  0999 V2000
   46.0340   32.9590   46.0520 C   0  0  0  0  0  0  0  0  0  0  0  0
   46.9230   31.9230   45.7560 C   0  0  0  0  0  0  0  0  0  0  0  0
   46.9840   31.1090   46.8480 C   0  0  0  0  0  0  0  0  0  0  0  0
   46.1670   31.6240   47.7800 N   0  0  0  0  0  0  0  0  0  0  0  0
   45.5930   32.7460   47.2890 N   0  0  0  0  0  0  0  0  0  0  0  0
   47.4660   31.7920   44.8200 H   0  0  0  0  0  0  0  0  0  0  0  0
   47.5970   30.2040   46.9310 H   0  0  0  0  0  0  0  0  0  0  0  0
   44.4730   36.0040   44.7230 C   0  0  0  0  0  0  0  0  0  0  0  0
   45.0300   36.0970   43.4370 C   0  0  0  0  0  0  0  0  0  0  0  0
   45.9470   35.1010   43.0330 C   0  0  0  0  0  0  0  0  0  0  0  0
   46.2370   34.1070   43.9190 N   0  0  0  0  0  0  0  0  0  0  0  0
   45.6830   34.0500   45.1490 C   0  0  0  0  0  0  0  0  0  0  0  0
   44.8020   34.9930   45.5540 N   0  0  0  0  0  0  0  0  0  0  0  0
   43.7750   36.7740   45.0100 H   0  0  0  0  0  0  0  0  0  0  0  0
   44.7910   36.8920   42.7420 H   0  0  0  0  0  0  0  0  0  0  0  0
   46.4220   35.1000   42.0550 H   0  0  0  0  0  0  0  0  0  0  0  0
   45.9430   31.0500   49.1040 C   0  0  0  0  0  0  0  0  0  0  0  0
   45.1650   29.8880   49.0110 F   0  0  0  0  0  0  0  0  0  0  0  0
   47.1540   30.6710   49.6540 F   0  0  0  0  0  0  0  0  0  0  0  0
   45.2360   31.8930   49.9140 F   0  0  0  0  0  0  0  0  0  0  0  0
  1  5  2  0  0  0  0
  2  1  1  0  0  0  0
  2  3  2  0  0  0  0
  3  7  1  0  0  0  0
  3  4  1  0  0  0  0
  4 17  1  0  0  0  0
  5  4  1  0  0  0  0
  6  2  1  0  0  0  0
  8 14  1  0  0  0  0
  8 13  1  0  0  0  0
  9  8  2  0  0  0  0
 10  9  1  0  0  0  0
 10 11  2  0  0  0  0
 11 12  1  0  0  0  0
 12 13  2  0  0  0  0
 12  1  1  0  0  0  0
 15  9  1  0  0  0  0
 16 10  1  0  0  0  0
 17 19  1  0  0  0  0
 17 20  1  0  0  0  0
 18 17  1  0  0  0  0
M  END
>  <minimizedAffinity>
-5.22314453

>  <minimizedRMSD>
1.23851907

$$$$
