
 OpenBabel03252509073D

 36 38  0  0  0  0  0  0  0  0999 V2000
   45.3830   35.3610   43.2040 Cl  0  0  0  0  0  0  0  0  0  0  0  0
   45.2050   34.6020   41.6510 C   0  0  0  0  0  0  0  0  0  0  0  0
   46.2910   34.1830   40.9560 C   0  0  0  0  0  0  0  0  0  0  0  0
   46.0380   33.5780   39.7320 C   0  0  0  0  0  0  0  0  0  0  0  0
   44.7670   33.4080   39.2440 C   0  0  0  0  0  0  0  0  0  0  0  0
   43.6990   33.8360   39.9610 C   0  0  0  0  0  0  0  0  0  0  0  0
   43.9310   34.4390   41.1780 C   0  0  0  0  0  0  0  0  0  0  0  0
   44.5960   32.9270   38.2740 H   0  0  0  0  0  0  0  0  0  0  0  0
   42.6830   33.7150   39.6000 H   0  0  0  0  0  0  0  0  0  0  0  0
   43.0680   34.7730   41.7350 H   0  0  0  0  0  0  0  0  0  0  0  0
   47.5890   31.8020   38.9330 C   0  0  0  0  0  0  0  0  0  0  0  0
   47.1650   33.0960   38.9410 C   0  0  0  0  0  0  0  0  0  0  0  0
   47.8140   34.0370   38.1630 C   0  0  0  0  0  0  0  0  0  0  0  0
   48.8820   33.6540   37.3860 C   0  0  0  0  0  0  0  0  0  0  0  0
   49.3420   32.3440   37.3520 C   0  0  0  0  0  0  0  0  0  0  0  0
   48.6690   31.4250   38.1460 C   0  0  0  0  0  0  0  0  0  0  0  0
   47.4810   35.0780   38.1620 H   0  0  0  0  0  0  0  0  0  0  0  0
   49.3480   34.4290   36.8000 H   0  0  0  0  0  0  0  0  0  0  0  0
   50.1730   32.0460   36.7480 H   0  0  0  0  0  0  0  0  0  0  0  0
   49.0360   30.4130   38.1110 H   0  0  0  0  0  0  0  0  0  0  0  0
   46.8460   30.6050   39.8350 S   0  0  0  0  0  0  0  0  0  0  0  0
   45.5850   30.1330   39.1080 O   0  0  0  0  0  0  0  0  0  0  0  0
   47.7940   29.3830   39.7590 O   0  0  0  0  0  0  0  0  0  0  0  0
   46.2570   30.5570   41.3890 C   0  0  0  0  0  0  0  0  0  0  0  0
   46.9920   30.6770   42.5200 F   0  0  0  0  0  0  0  0  0  0  0  0
   45.8570   29.2280   41.6220 F   0  0  0  0  0  0  0  0  0  0  0  0
   44.9680   31.1340   41.5780 F   0  0  0  0  0  0  0  0  0  0  0  0
   49.5910   35.7190   41.9500 C   0  0  0  0  0  0  0  0  0  0  0  0
   48.3110   35.5540   41.4060 C   0  0  0  0  0  0  0  0  0  0  0  0
   47.6090   34.3680   41.5080 C   0  0  0  0  0  0  0  0  0  0  0  0
   48.2530   33.3780   42.1730 N   0  0  0  0  0  0  0  0  0  0  0  0
   49.4840   33.5320   42.6980 C   0  0  0  0  0  0  0  0  0  0  0  0
   50.1400   34.6930   42.5840 N   0  0  0  0  0  0  0  0  0  0  0  0
   50.0050   36.7040   41.7850 H   0  0  0  0  0  0  0  0  0  0  0  0
   47.8090   36.3550   40.8760 H   0  0  0  0  0  0  0  0  0  0  0  0
   49.9830   32.7340   43.2250 H   0  0  0  0  0  0  0  0  0  0  0  0
  2  1  1  0  0  0  0
  3 30  1  0  0  0  0
  3  2  2  0  0  0  0
  4  3  1  0  0  0  0
  5  4  2  0  0  0  0
  5  6  1  0  0  0  0
  6  7  2  0  0  0  0
  7  2  1  0  0  0  0
  7 10  1  0  0  0  0
  8  5  1  0  0  0  0
  9  6  1  0  0  0  0
 11 12  1  0  0  0  0
 11 21  1  0  0  0  0
 12  4  1  0  0  0  0
 13 12  2  0  0  0  0
 14 13  1  0  0  0  0
 15 14  2  0  0  0  0
 15 16  1  0  0  0  0
 16 11  2  0  0  0  0
 17 13  1  0  0  0  0
 18 14  1  0  0  0  0
 19 15  1  0  0  0  0
 20 16  1  0  0  0  0
 21 24  1  0  0  0  0
 22 21  2  0  0  0  0
 23 21  2  0  0  0  0
 24 27  1  0  0  0  0
 24 26  1  0  0  0  0
 24 25  1  0  0  0  0
 28 33  1  0  0  0  0
 29 30  1  0  0  0  0
 29 28  2  0  0  0  0
 30 31  2  0  0  0  0
 31 32  1  0  0  0  0
 32 36  1  0  0  0  0
 33 32  2  0  0  0  0
 34 28  1  0  0  0  0
 35 29  1  0  0  0  0
M  END
>  <minimizedAffinity>
-4.50229931

>  <minimizedRMSD>
0.815556884

$$$$
