
 OpenBabel03252509073D

 36 38  0  0  0  0  0  0  0  0999 V2000
   45.4680   35.3040   43.2190 Cl  0  0  0  0  0  0  0  0  0  0  0  0
   45.2480   34.5750   41.6580 C   0  0  0  0  0  0  0  0  0  0  0  0
   46.3130   34.1560   40.9320 C   0  0  0  0  0  0  0  0  0  0  0  0
   46.0270   33.5750   39.7040 C   0  0  0  0  0  0  0  0  0  0  0  0
   44.7450   33.4290   39.2400 C   0  0  0  0  0  0  0  0  0  0  0  0
   43.6970   33.8570   39.9870 C   0  0  0  0  0  0  0  0  0  0  0  0
   43.9620   34.4350   41.2090 C   0  0  0  0  0  0  0  0  0  0  0  0
   44.5470   32.9680   38.2650 H   0  0  0  0  0  0  0  0  0  0  0  0
   42.6720   33.7540   39.6450 H   0  0  0  0  0  0  0  0  0  0  0  0
   43.1150   34.7700   41.7900 H   0  0  0  0  0  0  0  0  0  0  0  0
   47.4630   31.7800   38.7460 C   0  0  0  0  0  0  0  0  0  0  0  0
   47.1320   33.0950   38.8810 C   0  0  0  0  0  0  0  0  0  0  0  0
   47.8600   34.0600   38.2090 C   0  0  0  0  0  0  0  0  0  0  0  0
   48.9130   33.6790   37.4090 C   0  0  0  0  0  0  0  0  0  0  0  0
   49.2790   32.3500   37.2470 C   0  0  0  0  0  0  0  0  0  0  0  0
   48.5270   31.4070   37.9360 C   0  0  0  0  0  0  0  0  0  0  0  0
   47.6030   35.1160   38.3110 H   0  0  0  0  0  0  0  0  0  0  0  0
   49.4440   34.4740   36.9100 H   0  0  0  0  0  0  0  0  0  0  0  0
   50.0970   32.0550   36.6260 H   0  0  0  0  0  0  0  0  0  0  0  0
   48.8210   30.3790   37.8020 H   0  0  0  0  0  0  0  0  0  0  0  0
   46.6190   30.5560   39.5120 S   0  0  0  0  0  0  0  0  0  0  0  0
   45.3030   30.3080   38.7720 O   0  0  0  0  0  0  0  0  0  0  0  0
   47.4370   29.2670   39.2530 O   0  0  0  0  0  0  0  0  0  0  0  0
   46.0580   30.3670   41.0660 C   0  0  0  0  0  0  0  0  0  0  0  0
   45.7490   29.1920   41.6620 F   0  0  0  0  0  0  0  0  0  0  0  0
   44.7470   30.8800   41.0780 F   0  0  0  0  0  0  0  0  0  0  0  0
   46.5810   31.2830   42.0260 F   0  0  0  0  0  0  0  0  0  0  0  0
   49.6070   35.6650   41.9900 C   0  0  0  0  0  0  0  0  0  0  0  0
   48.3130   35.5260   41.4720 C   0  0  0  0  0  0  0  0  0  0  0  0
   47.6450   34.3160   41.4590 C   0  0  0  0  0  0  0  0  0  0  0  0
   48.3370   33.2750   41.9860 N   0  0  0  0  0  0  0  0  0  0  0  0
   49.5820   33.4050   42.4850 C   0  0  0  0  0  0  0  0  0  0  0  0
   50.2030   34.5900   42.4840 N   0  0  0  0  0  0  0  0  0  0  0  0
   49.9890   36.6740   41.9260 H   0  0  0  0  0  0  0  0  0  0  0  0
   47.7710   36.3660   41.0540 H   0  0  0  0  0  0  0  0  0  0  0  0
   50.1190   32.5670   42.9000 H   0  0  0  0  0  0  0  0  0  0  0  0
  2  1  1  0  0  0  0
  3 30  1  0  0  0  0
  3  2  2  0  0  0  0
  4  3  1  0  0  0  0
  5  4  2  0  0  0  0
  5  6  1  0  0  0  0
  6  7  2  0  0  0  0
  7  2  1  0  0  0  0
  7 10  1  0  0  0  0
  8  5  1  0  0  0  0
  9  6  1  0  0  0  0
 11 12  1  0  0  0  0
 11 21  1  0  0  0  0
 12  4  1  0  0  0  0
 13 17  1  0  0  0  0
 13 12  2  0  0  0  0
 14 13  1  0  0  0  0
 15 14  2  0  0  0  0
 15 16  1  0  0  0  0
 16 11  2  0  0  0  0
 18 14  1  0  0  0  0
 19 15  1  0  0  0  0
 20 16  1  0  0  0  0
 21 24  1  0  0  0  0
 22 21  2  0  0  0  0
 23 21  2  0  0  0  0
 24 26  1  0  0  0  0
 24 25  1  0  0  0  0
 24 27  1  0  0  0  0
 28 33  1  0  0  0  0
 29 28  2  0  0  0  0
 30 29  1  0  0  0  0
 30 31  2  0  0  0  0
 31 32  1  0  0  0  0
 32 36  1  0  0  0  0
 33 32  2  0  0  0  0
 34 28  1  0  0  0  0
 35 29  1  0  0  0  0
M  END
>  <minimizedAffinity>
-4.51299477

>  <minimizedRMSD>
0.707260907

$$$$
