
 OpenBabel03252509123D

 27 29  0  0  0  0  0  0  0  0999 V2000
   44.2200   30.9250   43.0890 C   0  0  0  0  0  0  0  0  0  0  0  0
   44.0000   31.9990   42.2290 C   0  0  0  0  0  0  0  0  0  0  0  0
   42.8940   32.0770   41.3970 C   0  0  0  0  0  0  0  0  0  0  0  0
   41.9530   31.0330   41.4180 C   0  0  0  0  0  0  0  0  0  0  0  0
   40.7890   30.7700   40.7750 N   0  0  0  0  0  0  0  0  0  0  0  0
   40.3030   29.5850   41.2150 C   0  0  0  0  0  0  0  0  0  0  0  0
   41.1770   29.1370   42.1220 N   0  0  0  0  0  0  0  0  0  0  0  0
   42.2040   29.9940   42.2790 C   0  0  0  0  0  0  0  0  0  0  0  0
   43.2910   29.8940   43.1120 C   0  0  0  0  0  0  0  0  0  0  0  0
   45.1120   30.9610   43.6960 H   0  0  0  0  0  0  0  0  0  0  0  0
   40.3730   31.4110   40.0610 H   0  0  0  0  0  0  0  0  0  0  0  0
   39.3730   29.2000   40.8170 H   0  0  0  0  0  0  0  0  0  0  0  0
   43.4860   29.0890   43.7790 H   0  0  0  0  0  0  0  0  0  0  0  0
   46.8350   34.1050   41.2260 C   0  0  0  0  0  0  0  0  0  0  0  0
   46.7710   35.1580   42.1200 C   0  0  0  0  0  0  0  0  0  0  0  0
   45.7470   35.1440   43.0760 C   0  0  0  0  0  0  0  0  0  0  0  0
   44.8690   34.0950   43.0730 N   0  0  0  0  0  0  0  0  0  0  0  0
   44.9600   33.0850   42.1890 C   0  0  0  0  0  0  0  0  0  0  0  0
   45.9400   33.0910   41.2690 N   0  0  0  0  0  0  0  0  0  0  0  0
   47.5990   34.0580   40.4680 H   0  0  0  0  0  0  0  0  0  0  0  0
   47.5160   35.9320   42.0260 H   0  0  0  0  0  0  0  0  0  0  0  0
   45.7030   35.9550   43.7570 H   0  0  0  0  0  0  0  0  0  0  0  0
   42.5950   33.4390   40.2950 S   0  0  0  0  0  0  0  0  0  0  0  0
   41.5040   34.6860   40.9610 C   0  0  0  0  0  0  0  0  0  0  0  0
   40.8870   35.4710   40.0140 F   0  0  0  0  0  0  0  0  0  0  0  0
   40.5930   34.0520   41.7840 F   0  0  0  0  0  0  0  0  0  0  0  0
   42.2500   35.5510   41.7690 F   0  0  0  0  0  0  0  0  0  0  0  0
  1  9  1  0  0  0  0
  1 10  1  0  0  0  0
  2  1  2  0  0  0  0
  3  4  2  0  0  0  0
  3  2  1  0  0  0  0
  4  8  1  0  0  0  0
  5  6  1  0  0  0  0
  5  4  1  0  0  0  0
  6  7  2  0  0  0  0
  7  8  1  0  0  0  0
  8  9  2  0  0  0  0
  9 13  1  0  0  0  0
 11  5  1  0  0  0  0
 12  6  1  0  0  0  0
 14 19  2  0  0  0  0
 14 15  1  0  0  0  0
 15 16  2  0  0  0  0
 16 22  1  0  0  0  0
 17 16  1  0  0  0  0
 18  2  1  0  0  0  0
 18 17  2  0  0  0  0
 19 18  1  0  0  0  0
 20 14  1  0  0  0  0
 21 15  1  0  0  0  0
 23 24  1  0  0  0  0
 23  3  1  0  0  0  0
 24 27  1  0  0  0  0
 24 26  1  0  0  0  0
 25 24  1  0  0  0  0
M  END
>  <minimizedAffinity>
-3.66342688

>  <minimizedRMSD>
5.65653658

$$$$
