
 OpenBabel03252507123D

 23 23  0  0  0  0  0  0  0  0999 V2000
   44.1090   34.1540   40.0270 C   0  0  0  0  0  0  0  0  0  0  0  0
   44.7280   33.9880   41.2630 C   0  0  0  0  0  0  0  0  0  0  0  0
   44.1320   34.5780   42.3790 C   0  0  0  0  0  0  0  0  0  0  0  0
   42.9940   35.2770   42.2180 N   0  0  0  0  0  0  0  0  0  0  0  0
   42.4190   35.4220   41.0280 C   0  0  0  0  0  0  0  0  0  0  0  0
   42.9850   34.8540   39.9250 N   0  0  0  0  0  0  0  0  0  0  0  0
   44.6430   34.4230   43.2960 H   0  0  0  0  0  0  0  0  0  0  0  0
   41.5020   35.9910   40.9300 H   0  0  0  0  0  0  0  0  0  0  0  0
   43.9760   32.4260   38.2530 C   0  0  0  0  0  0  0  0  0  0  0  0
   43.6110   31.5060   39.0340 O   0  0  0  0  0  0  0  0  0  0  0  0
   44.2510   33.8040   38.6450 N   0  0  0  0  0  0  0  0  0  0  0  0
   44.1080   32.2090   37.1810 H   0  0  0  0  0  0  0  0  0  0  0  0
   44.5390   34.4810   37.9130 H   0  0  0  0  0  0  0  0  0  0  0  0
   45.8920   33.2450   41.2700 O   0  0  0  0  0  0  0  0  0  0  0  0
   48.5020   32.9450   41.0680 O   0  0  0  0  0  0  0  0  0  0  0  0
   47.3990   33.9530   40.8310 P   0  0  1  0  0  0  0  0  0  0  0  0
   47.3890   34.3140   39.1940 O   0  0  0  0  0  0  0  0  0  0  0  0
   47.9650   35.0900   38.9860 H   0  0  0  0  0  0  0  0  0  0  0  0
   47.6990   35.3450   41.7330 O   0  0  0  0  0  0  0  0  0  0  0  0
   48.9960   35.7590   41.3670 C   0  0  0  0  0  0  0  0  0  0  0  0
   49.0080   35.8820   40.0000 F   0  0  0  0  0  0  0  0  0  0  0  0
   49.9300   34.8480   41.8240 F   0  0  0  0  0  0  0  0  0  0  0  0
   49.2090   36.9900   41.9590 F   0  0  0  0  0  0  0  0  0  0  0  0
  1  2  1  0  0  0  0
  2 14  1  0  0  0  0
  2  3  2  0  0  0  0
  3  7  1  0  0  0  0
  4  3  1  0  0  0  0
  5  4  2  0  0  0  0
  6  1  2  0  0  0  0
  6  5  1  0  0  0  0
  8  5  1  0  0  0  0
  9 11  1  0  0  0  0
  9 10  2  0  0  0  0
 11  1  1  0  0  0  0
 12  9  1  0  0  0  0
 13 11  1  0  0  0  0
 16 15  2  1  0  0  0
 16 14  1  0  0  0  0
 16 19  1  0  0  0  0
 17 16  1  0  0  0  0
 18 17  1  0  0  0  0
 20 19  1  0  0  0  0
 20 22  1  0  0  0  0
 20 23  1  0  0  0  0
 21 20  1  0  0  0  0
M  END
>  <minimizedAffinity>
-4.43967819

>  <minimizedRMSD>
3.77650476

$$$$
