
 OpenBabel03252508063D

 39 41  0  0  0  0  0  0  0  0999 V2000
   45.3070   36.1530   42.7710 C   0  0  0  0  0  0  0  0  0  0  0  0
   45.5020   34.7820   42.7560 C   0  0  0  0  0  0  0  0  0  0  0  0
   45.2330   34.0390   43.8790 C   0  0  0  0  0  0  0  0  0  0  0  0
   44.7700   34.7240   44.9860 N   0  0  0  0  0  0  0  0  0  0  0  0
   44.5850   36.0400   44.9940 C   0  0  0  0  0  0  0  0  0  0  0  0
   44.8590   36.7460   43.8760 N   0  0  0  0  0  0  0  0  0  0  0  0
   45.5220   36.7540   41.8770 H   0  0  0  0  0  0  0  0  0  0  0  0
   44.2210   36.5590   45.8720 H   0  0  0  0  0  0  0  0  0  0  0  0
   45.3780   32.6390   44.0260 C   0  0  0  0  0  0  0  0  0  0  0  0
   44.8560   31.7000   43.1310 C   0  0  0  0  0  0  0  0  0  0  0  0
   44.9370   30.3440   43.3050 C   0  0  0  0  0  0  0  0  0  0  0  0
   45.5640   29.8360   44.4200 C   0  0  0  0  0  0  0  0  0  0  0  0
   46.1020   30.7740   45.3420 C   0  0  0  0  0  0  0  0  0  0  0  0
   46.7250   30.2830   46.4590 C   0  0  0  0  0  0  0  0  0  0  0  0
   47.2700   31.1350   47.3960 C   0  0  0  0  0  0  0  0  0  0  0  0
   47.1840   32.5250   47.1970 C   0  0  0  0  0  0  0  0  0  0  0  0
   46.5340   32.9810   46.0350 C   0  0  0  0  0  0  0  0  0  0  0  0
   46.0010   32.1100   45.1270 C   0  0  0  0  0  0  0  0  0  0  0  0
   44.3550   32.0450   42.2430 H   0  0  0  0  0  0  0  0  0  0  0  0
   44.5230   29.6470   42.5940 H   0  0  0  0  0  0  0  0  0  0  0  0
   45.6640   28.7920   44.6250 H   0  0  0  0  0  0  0  0  0  0  0  0
   46.7880   29.2030   46.6030 H   0  0  0  0  0  0  0  0  0  0  0  0
   47.7520   30.6880   48.2660 H   0  0  0  0  0  0  0  0  0  0  0  0
   47.6340   33.0890   47.9730 H   0  0  0  0  0  0  0  0  0  0  0  0
   46.5910   34.0490   46.0520 H   0  0  0  0  0  0  0  0  0  0  0  0
   45.9600   34.2280   41.5950 O   0  0  0  0  0  0  0  0  0  0  0  0
   47.8250   32.4430   41.1580 O   0  0  0  0  0  0  0  0  0  0  0  0
   47.5890   33.9090   41.2560 P   0  0  1  0  0  0  0  0  0  0  0  0
   48.0420   34.5860   39.7730 O   0  0  0  0  0  0  0  0  0  0  0  0
   47.6710   33.7800   38.7030 C   0  0  0  0  0  0  0  0  0  0  0  0
   48.5870   32.7380   38.6410 F   0  0  0  0  0  0  0  0  0  0  0  0
   46.4010   33.2700   38.8510 F   0  0  0  0  0  0  0  0  0  0  0  0
   47.8230   34.5360   37.5560 F   0  0  0  0  0  0  0  0  0  0  0  0
   48.5230   34.5940   42.4690 O   0  0  0  0  0  0  0  0  0  0  0  0
   49.7260   35.2620   42.3110 C   0  0  0  0  0  0  0  0  0  0  0  0
   49.4110   36.3790   41.8640 O   0  0  0  0  0  0  0  0  0  0  0  0
   50.8340   34.4290   42.7160 N   0  0  0  0  0  0  0  0  0  0  0  0
   50.9400   34.2570   43.7510 H   0  0  0  0  0  0  0  0  0  0  0  0
   51.5670   33.9550   42.1180 H   0  0  0  0  0  0  0  0  0  0  0  0
  1  6  1  0  0  0  0
  2  1  2  0  0  0  0
  2  3  1  0  0  0  0
  3  9  1  0  0  0  0
  3  4  2  0  0  0  0
  4  5  1  0  0  0  0
  5  8  1  0  0  0  0
  6  5  2  0  0  0  0
  7  1  1  0  0  0  0
  9 18  1  0  0  0  0
 10 11  1  0  0  0  0
 10  9  2  0  0  0  0
 11 12  2  0  0  0  0
 12 21  1  0  0  0  0
 12 13  1  0  0  0  0
 13 14  1  0  0  0  0
 14 22  1  0  0  0  0
 14 15  2  0  0  0  0
 15 23  1  0  0  0  0
 16 15  1  0  0  0  0
 16 24  1  0  0  0  0
 17 25  1  0  0  0  0
 17 16  2  0  0  0  0
 18 13  2  0  0  0  0
 18 17  1  0  0  0  0
 19 10  1  0  0  0  0
 20 11  1  0  0  0  0
 26  2  1  0  0  0  0
 28 27  2  6  0  0  0
 28 26  1  0  0  0  0
 28 34  1  0  0  0  0
 29 28  1  0  0  0  0
 30 32  1  0  0  0  0
 30 29  1  0  0  0  0
 31 30  1  0  0  0  0
 33 30  1  0  0  0  0
 35 34  1  0  0  0  0
 35 37  1  0  0  0  0
 36 35  2  0  0  0  0
 37 38  1  0  0  0  0
 39 37  1  0  0  0  0
M  END
>  <minimizedAffinity>
-5.85405684

>  <minimizedRMSD>
0.463549614

$$$$
