
 OpenBabel03242518273D

 16 16  0  0  0  0  0  0  0  0999 V2000
   46.1190   34.6110   43.5110 C   0  0  0  0  0  0  0  0  0  0  0  0
   45.2220   35.6580   43.6150 C   0  0  0  0  0  0  0  0  0  0  0  0
   44.5190   35.7640   44.8340 C   0  0  0  0  0  0  0  0  0  0  0  0
   44.7540   34.8600   45.8060 N   0  0  0  0  0  0  0  0  0  0  0  0
   45.6500   33.8450   45.6510 C   0  0  0  0  0  0  0  0  0  0  0  0
   46.3190   33.7420   44.4970 N   0  0  0  0  0  0  0  0  0  0  0  0
   44.9900   36.4140   42.8760 H   0  0  0  0  0  0  0  0  0  0  0  0
   43.7970   36.5440   45.0190 H   0  0  0  0  0  0  0  0  0  0  0  0
   45.8580   33.1060   46.4140 H   0  0  0  0  0  0  0  0  0  0  0  0
   46.7930   34.5610   42.2550 C   0  0  0  0  0  0  0  0  0  0  0  0
   46.7910   33.6450   41.4130 O   0  0  0  0  0  0  0  0  0  0  0  0
   47.5540   35.7010   41.9460 O   0  0  0  0  0  0  0  0  0  0  0  0
   48.8060   35.5610   41.2850 C   0  0  0  0  0  0  0  0  0  0  0  0
   49.5480   34.5270   41.7900 F   0  0  0  0  0  0  0  0  0  0  0  0
   49.4830   36.7560   41.5590 F   0  0  0  0  0  0  0  0  0  0  0  0
   48.6810   35.4780   39.9240 F   0  0  0  0  0  0  0  0  0  0  0  0
  1  2  2  0  0  0  0
  1  6  1  0  0  0  0
  2  3  1  0  0  0  0
  3  8  1  0  0  0  0
  3  4  2  0  0  0  0
  5  4  1  0  0  0  0
  5  9  1  0  0  0  0
  6  5  2  0  0  0  0
  7  2  1  0  0  0  0
 10  1  1  0  0  0  0
 11 10  2  0  0  0  0
 12 10  1  0  0  0  0
 13 15  1  0  0  0  0
 13 14  1  0  0  0  0
 13 12  1  0  0  0  0
 16 13  1  0  0  0  0
M  END
>  <minimizedAffinity>
-4.73798609

>  <minimizedRMSD>
2.21788764

$$$$
