
 OpenBabel03252508093D

 39 41  0  0  0  0  0  0  0  0999 V2000
   37.7840   30.0680   37.3800 C   0  0  0  0  0  0  0  0  0  0  0  0
   38.0220   29.6090   38.6650 C   0  0  0  0  0  0  0  0  0  0  0  0
   36.9930   29.0820   39.4060 C   0  0  0  0  0  0  0  0  0  0  0  0
   35.7480   29.0410   38.8080 N   0  0  0  0  0  0  0  0  0  0  0  0
   35.5260   29.4840   37.5750 C   0  0  0  0  0  0  0  0  0  0  0  0
   36.5560   29.9980   36.8690 N   0  0  0  0  0  0  0  0  0  0  0  0
   38.6020   30.4930   36.7810 H   0  0  0  0  0  0  0  0  0  0  0  0
   34.5420   29.4430   37.1230 H   0  0  0  0  0  0  0  0  0  0  0  0
   37.0700   28.5730   40.7240 C   0  0  0  0  0  0  0  0  0  0  0  0
   37.2700   29.3670   41.8590 C   0  0  0  0  0  0  0  0  0  0  0  0
   37.4120   28.8720   43.1280 C   0  0  0  0  0  0  0  0  0  0  0  0
   37.3610   27.5140   43.3400 C   0  0  0  0  0  0  0  0  0  0  0  0
   37.1570   26.6900   42.2000 C   0  0  0  0  0  0  0  0  0  0  0  0
   37.1090   25.3340   42.3950 C   0  0  0  0  0  0  0  0  0  0  0  0
   36.9160   24.4740   41.3350 C   0  0  0  0  0  0  0  0  0  0  0  0
   36.7640   25.0010   40.0390 C   0  0  0  0  0  0  0  0  0  0  0  0
   36.8220   26.3990   39.8890 C   0  0  0  0  0  0  0  0  0  0  0  0
   37.0190   27.2240   40.9610 C   0  0  0  0  0  0  0  0  0  0  0  0
   37.3180   30.4370   41.7470 H   0  0  0  0  0  0  0  0  0  0  0  0
   37.5650   29.5140   43.9810 H   0  0  0  0  0  0  0  0  0  0  0  0
   37.4650   27.0550   44.2990 H   0  0  0  0  0  0  0  0  0  0  0  0
   37.2260   24.9360   43.4040 H   0  0  0  0  0  0  0  0  0  0  0  0
   36.8870   23.4060   41.5490 H   0  0  0  0  0  0  0  0  0  0  0  0
   36.6200   24.2570   39.2980 H   0  0  0  0  0  0  0  0  0  0  0  0
   36.6650   26.6020   38.8510 H   0  0  0  0  0  0  0  0  0  0  0  0
   39.3010   29.7030   39.1360 O   0  0  0  0  0  0  0  0  0  0  0  0
   40.4120   31.0480   41.0880 O   0  0  0  0  0  0  0  0  0  0  0  0
   40.0340   31.1410   39.6510 P   0  0  1  0  0  0  0  0  0  0  0  0
   41.4530   31.4410   38.7810 O   0  0  0  0  0  0  0  0  0  0  0  0
   41.2560   31.3170   37.4110 C   0  0  0  0  0  0  0  0  0  0  0  0
   42.3960   31.8120   36.7910 F   0  0  0  0  0  0  0  0  0  0  0  0
   41.0510   30.0120   37.0280 F   0  0  0  0  0  0  0  0  0  0  0  0
   40.2070   32.1540   37.0760 F   0  0  0  0  0  0  0  0  0  0  0  0
   38.9620   32.4030   39.3870 O   0  0  0  0  0  0  0  0  0  0  0  0
   38.1070   32.9740   40.3160 C   0  0  0  0  0  0  0  0  0  0  0  0
   36.9730   32.5900   39.9800 O   0  0  0  0  0  0  0  0  0  0  0  0
   38.8450   33.7610   41.2760 N   0  0  0  0  0  0  0  0  0  0  0  0
   39.4250   33.2260   41.9770 H   0  0  0  0  0  0  0  0  0  0  0  0
   38.8910   34.8120   41.3830 H   0  0  0  0  0  0  0  0  0  0  0  0
  1  2  1  0  0  0  0
  2 26  1  0  0  0  0
  2  3  2  0  0  0  0
  3  9  1  0  0  0  0
  4  3  1  0  0  0  0
  5  4  2  0  0  0  0
  6  1  2  0  0  0  0
  6  5  1  0  0  0  0
  7  1  1  0  0  0  0
  8  5  1  0  0  0  0
  9 18  2  0  0  0  0
  9 10  1  0  0  0  0
 10 11  2  0  0  0  0
 11 12  1  0  0  0  0
 11 20  1  0  0  0  0
 12 21  1  0  0  0  0
 13 14  1  0  0  0  0
 13 12  2  0  0  0  0
 14 22  1  0  0  0  0
 15 23  1  0  0  0  0
 15 14  2  0  0  0  0
 16 15  1  0  0  0  0
 17 16  2  0  0  0  0
 17 18  1  0  0  0  0
 18 13  1  0  0  0  0
 19 10  1  0  0  0  0
 24 16  1  0  0  0  0
 25 17  1  0  0  0  0
 26 28  1  0  0  0  0
 28 27  2  1  0  0  0
 29 28  1  0  0  0  0
 30 29  1  0  0  0  0
 31 30  1  0  0  0  0
 32 30  1  0  0  0  0
 33 30  1  0  0  0  0
 34 28  1  0  0  0  0
 34 35  1  0  0  0  0
 35 37  1  0  0  0  0
 36 35  2  0  0  0  0
 37 39  1  0  0  0  0
 37 38  1  0  0  0  0
M  END
>  <minimizedAffinity>
-5.944942

$$$$

 OpenBabel03252508093D

 39 41  0  0  0  0  0  0  0  0999 V2000
   37.3660   29.8110   37.3960 C   0  0  0  0  0  0  0  0  0  0  0  0
   37.5970   29.2610   38.6470 C   0  0  0  0  0  0  0  0  0  0  0  0
   36.5910   28.5880   39.2950 C   0  0  0  0  0  0  0  0  0  0  0  0
   35.3760   28.4970   38.6420 N   0  0  0  0  0  0  0  0  0  0  0  0
   35.1620   29.0280   37.4430 C   0  0  0  0  0  0  0  0  0  0  0  0
   36.1690   29.6850   36.8280 N   0  0  0  0  0  0  0  0  0  0  0  0
   38.1660   30.3520   36.8720 H   0  0  0  0  0  0  0  0  0  0  0  0
   34.2020   28.9450   36.9470 H   0  0  0  0  0  0  0  0  0  0  0  0
   36.6640   27.9730   40.5680 C   0  0  0  0  0  0  0  0  0  0  0  0
   36.6280   28.6730   41.7780 C   0  0  0  0  0  0  0  0  0  0  0  0
   36.7660   28.0890   43.0090 C   0  0  0  0  0  0  0  0  0  0  0  0
   36.9520   26.7290   43.1010 C   0  0  0  0  0  0  0  0  0  0  0  0
   36.9910   25.9990   41.8820 C   0  0  0  0  0  0  0  0  0  0  0  0
   37.1810   24.6440   41.9580 C   0  0  0  0  0  0  0  0  0  0  0  0
   37.2300   23.8730   40.8160 C   0  0  0  0  0  0  0  0  0  0  0  0
   37.0800   24.4900   39.5600 C   0  0  0  0  0  0  0  0  0  0  0  0
   36.8870   25.8830   39.5340 C   0  0  0  0  0  0  0  0  0  0  0  0
   36.8480   26.6200   40.6850 C   0  0  0  0  0  0  0  0  0  0  0  0
   36.4840   29.7410   41.7620 H   0  0  0  0  0  0  0  0  0  0  0  0
   36.7320   28.6600   43.9240 H   0  0  0  0  0  0  0  0  0  0  0  0
   37.0690   26.2030   44.0240 H   0  0  0  0  0  0  0  0  0  0  0  0
   37.2950   24.1760   42.9370 H   0  0  0  0  0  0  0  0  0  0  0  0
   37.3860   22.8000   40.9360 H   0  0  0  0  0  0  0  0  0  0  0  0
   37.1310   23.8090   38.7500 H   0  0  0  0  0  0  0  0  0  0  0  0
   36.7730   26.1570   38.5070 H   0  0  0  0  0  0  0  0  0  0  0  0
   38.8450   29.4190   39.1790 O   0  0  0  0  0  0  0  0  0  0  0  0
   40.8690   31.0550   39.4630 O   0  0  0  0  0  0  0  0  0  0  0  0
   39.4390   30.8660   39.8290 P   0  0  1  0  0  0  0  0  0  0  0  0
   38.5900   32.1960   39.2180 O   0  0  0  0  0  0  0  0  0  0  0  0
   37.7210   32.7320   40.1610 C   0  0  0  0  0  0  0  0  0  0  0  0
   36.9930   33.7270   39.5210 F   0  0  0  0  0  0  0  0  0  0  0  0
   36.8610   31.7890   40.6740 F   0  0  0  0  0  0  0  0  0  0  0  0
   38.4980   33.3440   41.1260 F   0  0  0  0  0  0  0  0  0  0  0  0
   39.2400   30.8180   41.4930 O   0  0  0  0  0  0  0  0  0  0  0  0
   40.2230   30.5740   42.4390 C   0  0  0  0  0  0  0  0  0  0  0  0
   39.9850   29.4260   42.8530 O   0  0  0  0  0  0  0  0  0  0  0  0
   41.1060   31.7090   42.5650 N   0  0  0  0  0  0  0  0  0  0  0  0
   41.7690   31.8820   41.7620 H   0  0  0  0  0  0  0  0  0  0  0  0
   41.1890   32.4070   43.3560 H   0  0  0  0  0  0  0  0  0  0  0  0
  1  2  1  0  0  0  0
  2 26  1  0  0  0  0
  2  3  2  0  0  0  0
  3  9  1  0  0  0  0
  4  3  1  0  0  0  0
  5  4  2  0  0  0  0
  6  1  2  0  0  0  0
  6  5  1  0  0  0  0
  7  1  1  0  0  0  0
  8  5  1  0  0  0  0
  9 18  2  0  0  0  0
  9 10  1  0  0  0  0
 10 11  2  0  0  0  0
 11 12  1  0  0  0  0
 11 20  1  0  0  0  0
 12 21  1  0  0  0  0
 13 14  1  0  0  0  0
 13 12  2  0  0  0  0
 14 22  1  0  0  0  0
 15 23  1  0  0  0  0
 15 14  2  0  0  0  0
 16 15  1  0  0  0  0
 17 16  2  0  0  0  0
 17 18  1  0  0  0  0
 18 13  1  0  0  0  0
 19 10  1  0  0  0  0
 24 16  1  0  0  0  0
 25 17  1  0  0  0  0
 26 28  1  0  0  0  0
 28 27  2  6  0  0  0
 28 34  1  0  0  0  0
 29 28  1  0  0  0  0
 29 30  1  0  0  0  0
 30 32  1  0  0  0  0
 30 33  1  0  0  0  0
 31 30  1  0  0  0  0
 34 35  1  0  0  0  0
 35 37  1  0  0  0  0
 35 36  2  0  0  0  0
 37 39  1  0  0  0  0
 38 37  1  0  0  0  0
M  END
>  <minimizedAffinity>
-5.93289089

$$$$

 OpenBabel03252508093D

 39 41  0  0  0  0  0  0  0  0999 V2000
   38.1630   29.6340   42.8760 C   0  0  0  0  0  0  0  0  0  0  0  0
   37.4480   29.6950   41.6910 C   0  0  0  0  0  0  0  0  0  0  0  0
   36.6470   28.6450   41.3180 C   0  0  0  0  0  0  0  0  0  0  0  0
   36.6010   27.5590   42.1720 N   0  0  0  0  0  0  0  0  0  0  0  0
   37.2900   27.5060   43.3070 C   0  0  0  0  0  0  0  0  0  0  0  0
   38.0710   28.5530   43.6480 N   0  0  0  0  0  0  0  0  0  0  0  0
   38.8070   30.4700   43.1800 H   0  0  0  0  0  0  0  0  0  0  0  0
   37.2410   26.6450   43.9630 H   0  0  0  0  0  0  0  0  0  0  0  0
   35.8580   28.5520   40.1460 C   0  0  0  0  0  0  0  0  0  0  0  0
   34.6280   29.1960   39.9800 C   0  0  0  0  0  0  0  0  0  0  0  0
   33.8300   29.0550   38.8750 C   0  0  0  0  0  0  0  0  0  0  0  0
   34.2310   28.2370   37.8450 C   0  0  0  0  0  0  0  0  0  0  0  0
   35.4790   27.5730   37.9950 C   0  0  0  0  0  0  0  0  0  0  0  0
   35.8890   26.7500   36.9780 C   0  0  0  0  0  0  0  0  0  0  0  0
   37.0880   26.0750   37.0560 C   0  0  0  0  0  0  0  0  0  0  0  0
   37.8980   26.2370   38.1960 C   0  0  0  0  0  0  0  0  0  0  0  0
   37.4340   27.0920   39.2130 C   0  0  0  0  0  0  0  0  0  0  0  0
   36.2380   27.7450   39.1060 C   0  0  0  0  0  0  0  0  0  0  0  0
   34.2680   29.8480   40.7570 H   0  0  0  0  0  0  0  0  0  0  0  0
   32.8860   29.5680   38.7780 H   0  0  0  0  0  0  0  0  0  0  0  0
   33.6620   28.0750   36.9540 H   0  0  0  0  0  0  0  0  0  0  0  0
   35.2530   26.6330   36.0990 H   0  0  0  0  0  0  0  0  0  0  0  0
   37.3630   25.4330   36.2190 H   0  0  0  0  0  0  0  0  0  0  0  0
   38.7960   25.6770   38.1550 H   0  0  0  0  0  0  0  0  0  0  0  0
   38.1870   27.1020   39.9710 H   0  0  0  0  0  0  0  0  0  0  0  0
   37.5790   30.8290   40.9400 O   0  0  0  0  0  0  0  0  0  0  0  0
   40.1380   30.6410   40.4180 O   0  0  0  0  0  0  0  0  0  0  0  0
   38.8480   31.1260   39.8570 P   0  0  1  0  0  0  0  0  0  0  0  0
   38.6000   30.3070   38.3970 O   0  0  0  0  0  0  0  0  0  0  0  0
   37.5880   30.8890   37.6440 C   0  0  0  0  0  0  0  0  0  0  0  0
   37.1770   29.9390   36.7160 F   0  0  0  0  0  0  0  0  0  0  0  0
   36.5160   31.2730   38.4160 F   0  0  0  0  0  0  0  0  0  0  0  0
   38.1560   31.9350   36.9410 F   0  0  0  0  0  0  0  0  0  0  0  0
   38.9020   32.7740   39.5490 O   0  0  0  0  0  0  0  0  0  0  0  0
   38.2080   33.7660   40.2210 C   0  0  0  0  0  0  0  0  0  0  0  0
   37.1980   33.9710   39.5260 O   0  0  0  0  0  0  0  0  0  0  0  0
   38.9070   34.1580   41.4220 N   0  0  0  0  0  0  0  0  0  0  0  0
   38.9010   33.4640   42.2170 H   0  0  0  0  0  0  0  0  0  0  0  0
   39.4340   35.0520   41.6280 H   0  0  0  0  0  0  0  0  0  0  0  0
  1  7  1  0  0  0  0
  1  6  1  0  0  0  0
  2  1  2  0  0  0  0
  3  2  1  0  0  0  0
  3  4  2  0  0  0  0
  4  5  1  0  0  0  0
  5  6  2  0  0  0  0
  5  8  1  0  0  0  0
  9  3  1  0  0  0  0
 10  9  1  0  0  0  0
 10 19  1  0  0  0  0
 11 10  2  0  0  0  0
 12 13  2  0  0  0  0
 12 11  1  0  0  0  0
 13 18  1  0  0  0  0
 14 15  2  0  0  0  0
 14 13  1  0  0  0  0
 15 16  1  0  0  0  0
 16 17  2  0  0  0  0
 17 25  1  0  0  0  0
 18 17  1  0  0  0  0
 18  9  2  0  0  0  0
 20 11  1  0  0  0  0
 21 12  1  0  0  0  0
 22 14  1  0  0  0  0
 23 15  1  0  0  0  0
 24 16  1  0  0  0  0
 26  2  1  0  0  0  0
 28 27  2  1  0  0  0
 28 26  1  0  0  0  0
 29 28  1  0  0  0  0
 30 29  1  0  0  0  0
 30 32  1  0  0  0  0
 31 30  1  0  0  0  0
 33 30  1  0  0  0  0
 34 28  1  0  0  0  0
 34 35  1  0  0  0  0
 35 37  1  0  0  0  0
 36 35  2  0  0  0  0
 37 39  1  0  0  0  0
 37 38  1  0  0  0  0
M  END
>  <minimizedAffinity>
-5.88227463

$$$$

 OpenBabel03252508093D

 39 41  0  0  0  0  0  0  0  0999 V2000
   41.0020   29.3580   39.0680 C   0  0  0  0  0  0  0  0  0  0  0  0
   39.8410   28.9990   39.7330 C   0  0  0  0  0  0  0  0  0  0  0  0
   39.9100   28.4930   41.0080 C   0  0  0  0  0  0  0  0  0  0  0  0
   41.1690   28.3690   41.5650 N   0  0  0  0  0  0  0  0  0  0  0  0
   42.2790   28.7150   40.9210 C   0  0  0  0  0  0  0  0  0  0  0  0
   42.1810   29.2100   39.6680 N   0  0  0  0  0  0  0  0  0  0  0  0
   40.9550   29.7630   38.0480 H   0  0  0  0  0  0  0  0  0  0  0  0
   43.2570   28.6110   41.3750 H   0  0  0  0  0  0  0  0  0  0  0  0
   38.8250   28.0810   41.8180 C   0  0  0  0  0  0  0  0  0  0  0  0
   38.2830   28.8540   42.8500 C   0  0  0  0  0  0  0  0  0  0  0  0
   37.2780   28.4320   43.6800 C   0  0  0  0  0  0  0  0  0  0  0  0
   36.7430   27.1750   43.5180 C   0  0  0  0  0  0  0  0  0  0  0  0
   37.2800   26.3740   42.4740 C   0  0  0  0  0  0  0  0  0  0  0  0
   36.7600   25.1170   42.3040 C   0  0  0  0  0  0  0  0  0  0  0  0
   37.2340   24.2850   41.3120 C   0  0  0  0  0  0  0  0  0  0  0  0
   38.2620   24.7390   40.4640 C   0  0  0  0  0  0  0  0  0  0  0  0
   38.7630   26.0360   40.6780 C   0  0  0  0  0  0  0  0  0  0  0  0
   38.2740   26.8350   41.6740 C   0  0  0  0  0  0  0  0  0  0  0  0
   38.6660   29.8460   43.0190 H   0  0  0  0  0  0  0  0  0  0  0  0
   36.8820   29.0550   44.4660 H   0  0  0  0  0  0  0  0  0  0  0  0
   35.9600   26.7760   44.1260 H   0  0  0  0  0  0  0  0  0  0  0  0
   35.9630   24.7770   42.9660 H   0  0  0  0  0  0  0  0  0  0  0  0
   36.7840   23.2960   41.2240 H   0  0  0  0  0  0  0  0  0  0  0  0
   38.5510   24.0250   39.7370 H   0  0  0  0  0  0  0  0  0  0  0  0
   39.5100   26.2020   39.9320 H   0  0  0  0  0  0  0  0  0  0  0  0
   38.6600   29.1770   39.0700 O   0  0  0  0  0  0  0  0  0  0  0  0
   37.0410   30.8730   37.9060 O   0  0  0  0  0  0  0  0  0  0  0  0
   37.6710   30.5450   39.2130 P   0  0  1  0  0  0  0  0  0  0  0  0
   36.4170   30.2710   40.3160 O   0  0  0  0  0  0  0  0  0  0  0  0
   35.6770   29.1420   39.9860 C   0  0  0  0  0  0  0  0  0  0  0  0
   34.6650   29.5580   39.1300 F   0  0  0  0  0  0  0  0  0  0  0  0
   36.4390   28.1800   39.3650 F   0  0  0  0  0  0  0  0  0  0  0  0
   35.0780   28.6960   41.1490 F   0  0  0  0  0  0  0  0  0  0  0  0
   38.6100   31.8180   39.7700 O   0  0  0  0  0  0  0  0  0  0  0  0
   38.1560   32.9990   40.3340 C   0  0  0  0  0  0  0  0  0  0  0  0
   39.0980   33.3940   41.0420 O   0  0  0  0  0  0  0  0  0  0  0  0
   36.8140   33.2960   39.8910 N   0  0  0  0  0  0  0  0  0  0  0  0
   36.7070   33.6060   38.8880 H   0  0  0  0  0  0  0  0  0  0  0  0
   35.9060   33.2470   40.4320 H   0  0  0  0  0  0  0  0  0  0  0  0
  1  6  2  0  0  0  0
  1  2  1  0  0  0  0
  2  3  2  0  0  0  0
  3  4  1  0  0  0  0
  3  9  1  0  0  0  0
  5  8  1  0  0  0  0
  5  4  2  0  0  0  0
  6  5  1  0  0  0  0
  7  1  1  0  0  0  0
  9 10  1  0  0  0  0
 10 19  1  0  0  0  0
 10 11  2  0  0  0  0
 11 20  1  0  0  0  0
 12 11  1  0  0  0  0
 12 21  1  0  0  0  0
 13 12  2  0  0  0  0
 14 13  1  0  0  0  0
 14 22  1  0  0  0  0
 15 14  2  0  0  0  0
 16 17  2  0  0  0  0
 16 15  1  0  0  0  0
 17 18  1  0  0  0  0
 18  9  2  0  0  0  0
 18 13  1  0  0  0  0
 23 15  1  0  0  0  0
 24 16  1  0  0  0  0
 25 17  1  0  0  0  0
 26 28  1  0  0  0  0
 26  2  1  0  0  0  0
 28 27  2  6  0  0  0
 28 34  1  0  0  0  0
 28 29  1  0  0  0  0
 30 29  1  0  0  0  0
 30 33  1  0  0  0  0
 31 30  1  0  0  0  0
 32 30  1  0  0  0  0
 34 35  1  0  0  0  0
 35 36  2  0  0  0  0
 37 35  1  0  0  0  0
 37 39  1  0  0  0  0
 38 37  1  0  0  0  0
M  END
>  <minimizedAffinity>
-5.87666035

$$$$

 OpenBabel03252508093D

 39 41  0  0  0  0  0  0  0  0999 V2000
   37.1420   29.8070   37.5750 C   0  0  0  0  0  0  0  0  0  0  0  0
   37.4100   29.1870   38.7840 C   0  0  0  0  0  0  0  0  0  0  0  0
   36.4510   28.4080   39.3830 C   0  0  0  0  0  0  0  0  0  0  0  0
   35.2430   28.2860   38.7230 N   0  0  0  0  0  0  0  0  0  0  0  0
   34.9920   28.8840   37.5630 C   0  0  0  0  0  0  0  0  0  0  0  0
   35.9530   29.6450   36.9970 N   0  0  0  0  0  0  0  0  0  0  0  0
   37.9050   30.4320   37.0900 H   0  0  0  0  0  0  0  0  0  0  0  0
   34.0380   28.7760   37.0610 H   0  0  0  0  0  0  0  0  0  0  0  0
   36.5660   27.7120   40.6090 C   0  0  0  0  0  0  0  0  0  0  0  0
   36.3610   28.2980   41.8630 C   0  0  0  0  0  0  0  0  0  0  0  0
   36.5370   27.6450   43.0540 C   0  0  0  0  0  0  0  0  0  0  0  0
   36.9400   26.3300   43.0580 C   0  0  0  0  0  0  0  0  0  0  0  0
   37.1530   25.7160   41.7940 C   0  0  0  0  0  0  0  0  0  0  0  0
   37.5590   24.4070   41.7820 C   0  0  0  0  0  0  0  0  0  0  0  0
   37.7860   23.7480   40.5930 C   0  0  0  0  0  0  0  0  0  0  0  0
   37.5930   24.4330   39.3780 C   0  0  0  0  0  0  0  0  0  0  0  0
   37.1760   25.7750   39.4420 C   0  0  0  0  0  0  0  0  0  0  0  0
   36.9640   26.4010   40.6380 C   0  0  0  0  0  0  0  0  0  0  0  0
   36.0450   29.3260   41.9160 H   0  0  0  0  0  0  0  0  0  0  0  0
   36.3690   28.1270   44.0040 H   0  0  0  0  0  0  0  0  0  0  0  0
   37.0990   25.7570   43.9460 H   0  0  0  0  0  0  0  0  0  0  0  0
   37.7040   23.8860   42.7300 H   0  0  0  0  0  0  0  0  0  0  0  0
   38.1090   22.7090   40.6440 H   0  0  0  0  0  0  0  0  0  0  0  0
   37.7920   23.8370   38.5250 H   0  0  0  0  0  0  0  0  0  0  0  0
   37.0650   26.1090   38.4320 H   0  0  0  0  0  0  0  0  0  0  0  0
   38.6480   29.3850   39.3280 O   0  0  0  0  0  0  0  0  0  0  0  0
   37.9700   31.3070   40.9720 O   0  0  0  0  0  0  0  0  0  0  0  0
   39.1130   30.7730   40.1820 P   0  0  1  0  0  0  0  0  0  0  0  0
   40.3520   30.4200   41.2780 O   0  0  0  0  0  0  0  0  0  0  0  0
   39.9490   29.4950   42.2340 C   0  0  0  0  0  0  0  0  0  0  0  0
   41.0550   29.2310   43.0330 F   0  0  0  0  0  0  0  0  0  0  0  0
   38.9180   29.9650   43.0140 F   0  0  0  0  0  0  0  0  0  0  0  0
   39.6370   28.3280   41.5620 F   0  0  0  0  0  0  0  0  0  0  0  0
   39.6730   31.9070   39.0810 O   0  0  0  0  0  0  0  0  0  0  0  0
   40.3530   31.6510   37.9020 C   0  0  0  0  0  0  0  0  0  0  0  0
   41.3190   30.9460   38.2410 O   0  0  0  0  0  0  0  0  0  0  0  0
   39.6940   32.2830   36.7820 N   0  0  0  0  0  0  0  0  0  0  0  0
   38.7790   31.8570   36.4740 H   0  0  0  0  0  0  0  0  0  0  0  0
   39.9980   33.1230   36.2160 H   0  0  0  0  0  0  0  0  0  0  0  0
  1  2  1  0  0  0  0
  2 26  1  0  0  0  0
  2  3  2  0  0  0  0
  3  9  1  0  0  0  0
  4  3  1  0  0  0  0
  5  4  2  0  0  0  0
  6  5  1  0  0  0  0
  6  1  2  0  0  0  0
  7  1  1  0  0  0  0
  8  5  1  0  0  0  0
  9 18  2  0  0  0  0
  9 10  1  0  0  0  0
 10 19  1  0  0  0  0
 10 11  2  0  0  0  0
 11 12  1  0  0  0  0
 11 20  1  0  0  0  0
 12 21  1  0  0  0  0
 13 12  2  0  0  0  0
 14 13  1  0  0  0  0
 14 22  1  0  0  0  0
 15 23  1  0  0  0  0
 15 14  2  0  0  0  0
 16 17  2  0  0  0  0
 16 15  1  0  0  0  0
 17 18  1  0  0  0  0
 18 13  1  0  0  0  0
 24 16  1  0  0  0  0
 25 17  1  0  0  0  0
 26 28  1  0  0  0  0
 28 27  2  1  0  0  0
 28 29  1  0  0  0  0
 29 30  1  0  0  0  0
 30 32  1  0  0  0  0
 30 31  1  0  0  0  0
 33 30  1  0  0  0  0
 34 28  1  0  0  0  0
 35 36  2  0  0  0  0
 35 34  1  0  0  0  0
 37 35  1  0  0  0  0
 38 37  1  0  0  0  0
 39 37  1  0  0  0  0
M  END
>  <minimizedAffinity>
-5.77155495

$$$$

 OpenBabel03252508093D

 39 41  0  0  0  0  0  0  0  0999 V2000
   38.8340   27.5520   37.0560 C   0  0  0  0  0  0  0  0  0  0  0  0
   38.7490   27.8030   38.4160 C   0  0  0  0  0  0  0  0  0  0  0  0
   38.0480   26.9460   39.2290 C   0  0  0  0  0  0  0  0  0  0  0  0
   37.4540   25.8550   38.6230 N   0  0  0  0  0  0  0  0  0  0  0  0
   37.5390   25.6210   37.3170 C   0  0  0  0  0  0  0  0  0  0  0  0
   38.2340   26.4800   36.5420 N   0  0  0  0  0  0  0  0  0  0  0  0
   39.3920   28.2340   36.4000 H   0  0  0  0  0  0  0  0  0  0  0  0
   37.0670   24.7590   36.8610 H   0  0  0  0  0  0  0  0  0  0  0  0
   37.8670   27.0590   40.6270 C   0  0  0  0  0  0  0  0  0  0  0  0
   36.7460   27.6430   41.2260 C   0  0  0  0  0  0  0  0  0  0  0  0
   36.5970   27.8150   42.5770 C   0  0  0  0  0  0  0  0  0  0  0  0
   37.5930   27.4000   43.4300 C   0  0  0  0  0  0  0  0  0  0  0  0
   38.7410   26.8040   42.8410 C   0  0  0  0  0  0  0  0  0  0  0  0
   39.7440   26.3900   43.6790 C   0  0  0  0  0  0  0  0  0  0  0  0
   40.8870   25.8040   43.1780 C   0  0  0  0  0  0  0  0  0  0  0  0
   41.0190   25.6290   41.7870 C   0  0  0  0  0  0  0  0  0  0  0  0
   39.9630   26.0700   40.9690 C   0  0  0  0  0  0  0  0  0  0  0  0
   38.8440   26.6510   41.4970 C   0  0  0  0  0  0  0  0  0  0  0  0
   35.9370   27.9850   40.6020 H   0  0  0  0  0  0  0  0  0  0  0  0
   35.7180   28.2690   43.0060 H   0  0  0  0  0  0  0  0  0  0  0  0
   37.5500   27.5030   44.4930 H   0  0  0  0  0  0  0  0  0  0  0  0
   39.6310   26.5300   44.7550 H   0  0  0  0  0  0  0  0  0  0  0  0
   41.6520   25.4960   43.8900 H   0  0  0  0  0  0  0  0  0  0  0  0
   41.9310   25.1690   41.5070 H   0  0  0  0  0  0  0  0  0  0  0  0
   40.2360   25.8320   39.9630 H   0  0  0  0  0  0  0  0  0  0  0  0
   39.3860   28.9150   38.8880 O   0  0  0  0  0  0  0  0  0  0  0  0
   37.7240   30.6680   37.8790 O   0  0  0  0  0  0  0  0  0  0  0  0
   38.6870   30.4550   38.9930 P   0  0  1  0  0  0  0  0  0  0  0  0
   37.8230   30.6280   40.4370 O   0  0  0  0  0  0  0  0  0  0  0  0
   36.5270   31.0770   40.2130 C   0  0  0  0  0  0  0  0  0  0  0  0
   36.6280   32.3590   39.6870 F   0  0  0  0  0  0  0  0  0  0  0  0
   35.8390   30.2720   39.3350 F   0  0  0  0  0  0  0  0  0  0  0  0
   35.9160   31.1840   41.4480 F   0  0  0  0  0  0  0  0  0  0  0  0
   39.9160   31.5950   38.9590 O   0  0  0  0  0  0  0  0  0  0  0  0
   40.8040   31.8260   37.9210 C   0  0  0  0  0  0  0  0  0  0  0  0
   41.9030   31.4360   38.3540 O   0  0  0  0  0  0  0  0  0  0  0  0
   40.1270   32.4060   36.7850 N   0  0  0  0  0  0  0  0  0  0  0  0
   39.4890   31.7660   36.2410 H   0  0  0  0  0  0  0  0  0  0  0  0
   40.1770   33.3940   36.4110 H   0  0  0  0  0  0  0  0  0  0  0  0
  1  2  1  0  0  0  0
  2 26  1  0  0  0  0
  2  3  2  0  0  0  0
  3  9  1  0  0  0  0
  4  3  1  0  0  0  0
  5  4  2  0  0  0  0
  6  1  2  0  0  0  0
  6  5  1  0  0  0  0
  7  1  1  0  0  0  0
  8  5  1  0  0  0  0
  9 10  2  0  0  0  0
  9 18  1  0  0  0  0
 10 11  1  0  0  0  0
 11 20  1  0  0  0  0
 11 12  2  0  0  0  0
 12 21  1  0  0  0  0
 13 12  1  0  0  0  0
 13 14  1  0  0  0  0
 14 22  1  0  0  0  0
 15 14  2  0  0  0  0
 15 23  1  0  0  0  0
 16 15  1  0  0  0  0
 17 18  1  0  0  0  0
 17 16  2  0  0  0  0
 18 13  2  0  0  0  0
 19 10  1  0  0  0  0
 24 16  1  0  0  0  0
 25 17  1  0  0  0  0
 26 28  1  0  0  0  0
 28 27  2  6  0  0  0
 28 29  1  0  0  0  0
 30 29  1  0  0  0  0
 30 33  1  0  0  0  0
 31 30  1  0  0  0  0
 32 30  1  0  0  0  0
 34 28  1  0  0  0  0
 35 36  2  0  0  0  0
 35 34  1  0  0  0  0
 37 35  1  0  0  0  0
 38 37  1  0  0  0  0
 39 37  1  0  0  0  0
M  END
>  <minimizedAffinity>
-5.62408781

$$$$

 OpenBabel03252508093D

 39 41  0  0  0  0  0  0  0  0999 V2000
   37.7210   29.3400   37.0170 C   0  0  0  0  0  0  0  0  0  0  0  0
   37.9600   28.8870   38.3040 C   0  0  0  0  0  0  0  0  0  0  0  0
   36.9120   28.7000   39.1710 C   0  0  0  0  0  0  0  0  0  0  0  0
   35.6470   28.9800   38.6920 N   0  0  0  0  0  0  0  0  0  0  0  0
   35.4240   29.4140   37.4560 C   0  0  0  0  0  0  0  0  0  0  0  0
   36.4730   29.5910   36.6250 N   0  0  0  0  0  0  0  0  0  0  0  0
   38.5550   29.4940   36.3180 H   0  0  0  0  0  0  0  0  0  0  0  0
   34.4230   29.6280   37.0990 H   0  0  0  0  0  0  0  0  0  0  0  0
   36.9880   28.2470   40.5100 C   0  0  0  0  0  0  0  0  0  0  0  0
   37.2160   29.0840   41.6070 C   0  0  0  0  0  0  0  0  0  0  0  0
   37.3570   28.6420   42.8950 C   0  0  0  0  0  0  0  0  0  0  0  0
   37.2740   27.2950   43.1660 C   0  0  0  0  0  0  0  0  0  0  0  0
   37.0420   26.4280   42.0650 C   0  0  0  0  0  0  0  0  0  0  0  0
   36.9630   25.0830   42.3200 C   0  0  0  0  0  0  0  0  0  0  0  0
   36.7400   24.1830   41.2990 C   0  0  0  0  0  0  0  0  0  0  0  0
   36.5900   24.6570   39.9820 C   0  0  0  0  0  0  0  0  0  0  0  0
   36.6800   26.0450   39.7710 C   0  0  0  0  0  0  0  0  0  0  0  0
   36.9060   26.9110   40.8050 C   0  0  0  0  0  0  0  0  0  0  0  0
   37.2890   30.1460   41.4490 H   0  0  0  0  0  0  0  0  0  0  0  0
   37.5310   29.3150   43.7190 H   0  0  0  0  0  0  0  0  0  0  0  0
   37.3750   26.8760   44.1440 H   0  0  0  0  0  0  0  0  0  0  0  0
   37.0780   24.7270   43.3450 H   0  0  0  0  0  0  0  0  0  0  0  0
   36.6870   23.1260   41.5600 H   0  0  0  0  0  0  0  0  0  0  0  0
   36.4220   23.8850   39.2760 H   0  0  0  0  0  0  0  0  0  0  0  0
   36.5200   26.2070   38.7270 H   0  0  0  0  0  0  0  0  0  0  0  0
   39.2590   28.6430   38.6500 O   0  0  0  0  0  0  0  0  0  0  0  0
   41.4400   29.5100   39.8100 O   0  0  0  0  0  0  0  0  0  0  0  0
   40.4750   29.8210   38.7210 P   0  0  1  0  0  0  0  0  0  0  0  0
   41.3540   29.8700   37.2760 O   0  0  0  0  0  0  0  0  0  0  0  0
   41.7000   28.5980   36.8380 C   0  0  0  0  0  0  0  0  0  0  0  0
   42.6420   28.7580   35.8300 F   0  0  0  0  0  0  0  0  0  0  0  0
   42.2290   27.8240   37.8460 F   0  0  0  0  0  0  0  0  0  0  0  0
   40.5700   28.0460   36.2640 F   0  0  0  0  0  0  0  0  0  0  0  0
   39.7490   31.3140   38.9610 O   0  0  0  0  0  0  0  0  0  0  0  0
   40.0430   32.4950   38.3000 C   0  0  0  0  0  0  0  0  0  0  0  0
   40.3690   33.2880   39.2000 O   0  0  0  0  0  0  0  0  0  0  0  0
   39.8620   32.3440   36.8750 N   0  0  0  0  0  0  0  0  0  0  0  0
   40.5780   31.7560   36.3700 H   0  0  0  0  0  0  0  0  0  0  0  0
   39.1050   32.7420   36.2520 H   0  0  0  0  0  0  0  0  0  0  0  0
  1  2  1  0  0  0  0
  2 26  1  0  0  0  0
  2  3  2  0  0  0  0
  3  9  1  0  0  0  0
  4  3  1  0  0  0  0
  5  4  2  0  0  0  0
  6  1  2  0  0  0  0
  6  5  1  0  0  0  0
  7  1  1  0  0  0  0
  8  5  1  0  0  0  0
  9 18  2  0  0  0  0
  9 10  1  0  0  0  0
 10 11  2  0  0  0  0
 11 12  1  0  0  0  0
 11 20  1  0  0  0  0
 12 21  1  0  0  0  0
 13 14  1  0  0  0  0
 13 12  2  0  0  0  0
 14 22  1  0  0  0  0
 15 23  1  0  0  0  0
 15 14  2  0  0  0  0
 16 15  1  0  0  0  0
 17 16  2  0  0  0  0
 17 18  1  0  0  0  0
 18 13  1  0  0  0  0
 19 10  1  0  0  0  0
 24 16  1  0  0  0  0
 25 17  1  0  0  0  0
 26 28  1  0  0  0  0
 28 34  1  0  0  0  0
 28 27  2  1  0  0  0
 29 28  1  0  0  0  0
 30 29  1  0  0  0  0
 30 32  1  0  0  0  0
 31 30  1  0  0  0  0
 33 30  1  0  0  0  0
 35 34  1  0  0  0  0
 35 36  2  0  0  0  0
 37 35  1  0  0  0  0
 38 37  1  0  0  0  0
 39 37  1  0  0  0  0
M  END
>  <minimizedAffinity>
-5.58885765

$$$$

 OpenBabel03252508093D

 39 41  0  0  0  0  0  0  0  0999 V2000
   37.3240   31.3020   38.1820 C   0  0  0  0  0  0  0  0  0  0  0  0
   37.3890   30.1720   38.9810 C   0  0  0  0  0  0  0  0  0  0  0  0
   37.5100   30.3010   40.3420 C   0  0  0  0  0  0  0  0  0  0  0  0
   37.5590   31.5870   40.8470 N   0  0  0  0  0  0  0  0  0  0  0  0
   37.4970   32.6670   40.0750 C   0  0  0  0  0  0  0  0  0  0  0  0
   37.3790   32.5110   38.7390 N   0  0  0  0  0  0  0  0  0  0  0  0
   37.2290   31.2070   37.0910 H   0  0  0  0  0  0  0  0  0  0  0  0
   37.5370   33.6670   40.4900 H   0  0  0  0  0  0  0  0  0  0  0  0
   37.5880   29.2540   41.2910 C   0  0  0  0  0  0  0  0  0  0  0  0
   36.4790   28.5560   41.7780 C   0  0  0  0  0  0  0  0  0  0  0  0
   36.5440   27.5880   42.7460 C   0  0  0  0  0  0  0  0  0  0  0  0
   37.7600   27.2560   43.2960 C   0  0  0  0  0  0  0  0  0  0  0  0
   38.9000   27.9540   42.8140 C   0  0  0  0  0  0  0  0  0  0  0  0
   40.1170   27.6380   43.3580 C   0  0  0  0  0  0  0  0  0  0  0  0
   41.2660   28.2750   42.9390 C   0  0  0  0  0  0  0  0  0  0  0  0
   41.1810   29.2620   41.9390 C   0  0  0  0  0  0  0  0  0  0  0  0
   39.9090   29.5530   41.4120 C   0  0  0  0  0  0  0  0  0  0  0  0
   38.7880   28.9040   41.8530 C   0  0  0  0  0  0  0  0  0  0  0  0
   35.5040   28.7780   41.3800 H   0  0  0  0  0  0  0  0  0  0  0  0
   35.6680   27.0670   43.0980 H   0  0  0  0  0  0  0  0  0  0  0  0
   37.8890   26.5150   44.0550 H   0  0  0  0  0  0  0  0  0  0  0  0
   40.1720   26.8700   44.1320 H   0  0  0  0  0  0  0  0  0  0  0  0
   42.2060   27.9840   43.4070 H   0  0  0  0  0  0  0  0  0  0  0  0
   42.1180   29.6880   41.6890 H   0  0  0  0  0  0  0  0  0  0  0  0
   40.0520   30.3000   40.6610 H   0  0  0  0  0  0  0  0  0  0  0  0
   37.3240   28.9600   38.3550 O   0  0  0  0  0  0  0  0  0  0  0  0
   35.7550   26.8640   38.3910 O   0  0  0  0  0  0  0  0  0  0  0  0
   35.8940   28.2300   37.8160 P   0  0  1  0  0  0  0  0  0  0  0  0
   34.5400   29.1170   38.3080 O   0  0  0  0  0  0  0  0  0  0  0  0
   33.4350   28.8600   37.5050 C   0  0  0  0  0  0  0  0  0  0  0  0
   33.4010   27.4880   37.2900 F   0  0  0  0  0  0  0  0  0  0  0  0
   32.2570   29.2640   38.0920 F   0  0  0  0  0  0  0  0  0  0  0  0
   33.6710   29.4650   36.2850 F   0  0  0  0  0  0  0  0  0  0  0  0
   35.9270   28.1810   36.1400 O   0  0  0  0  0  0  0  0  0  0  0  0
   36.8700   28.7670   35.3120 C   0  0  0  0  0  0  0  0  0  0  0  0
   36.2200   29.5510   34.5980 O   0  0  0  0  0  0  0  0  0  0  0  0
   38.1900   28.2560   35.5940 N   0  0  0  0  0  0  0  0  0  0  0  0
   38.6320   28.5690   36.5000 H   0  0  0  0  0  0  0  0  0  0  0  0
   38.7910   27.6030   35.0180 H   0  0  0  0  0  0  0  0  0  0  0  0
  1  6  2  0  0  0  0
  1  2  1  0  0  0  0
  2  3  2  0  0  0  0
  3  4  1  0  0  0  0
  3  9  1  0  0  0  0
  5  8  1  0  0  0  0
  5  4  2  0  0  0  0
  6  5  1  0  0  0  0
  7  1  1  0  0  0  0
  9 10  2  0  0  0  0
  9 18  1  0  0  0  0
 10 11  1  0  0  0  0
 11 20  1  0  0  0  0
 11 12  2  0  0  0  0
 12 21  1  0  0  0  0
 13 12  1  0  0  0  0
 13 14  1  0  0  0  0
 14 22  1  0  0  0  0
 15 14  2  0  0  0  0
 15 23  1  0  0  0  0
 16 15  1  0  0  0  0
 17 18  1  0  0  0  0
 17 16  2  0  0  0  0
 18 13  2  0  0  0  0
 19 10  1  0  0  0  0
 24 16  1  0  0  0  0
 25 17  1  0  0  0  0
 26  2  1  0  0  0  0
 28 29  1  0  0  0  0
 28 26  1  0  0  0  0
 28 27  2  1  0  0  0
 30 32  1  0  0  0  0
 30 29  1  0  0  0  0
 31 30  1  0  0  0  0
 33 30  1  0  0  0  0
 34 28  1  0  0  0  0
 35 37  1  0  0  0  0
 35 34  1  0  0  0  0
 36 35  2  0  0  0  0
 37 38  1  0  0  0  0
 39 37  1  0  0  0  0
M  END
>  <minimizedAffinity>
-5.55476999

$$$$

 OpenBabel03252508093D

 39 41  0  0  0  0  0  0  0  0999 V2000
   42.2620   28.9610   40.3660 C   0  0  0  0  0  0  0  0  0  0  0  0
   40.9420   28.8830   40.7790 C   0  0  0  0  0  0  0  0  0  0  0  0
   40.5740   27.9630   41.7290 C   0  0  0  0  0  0  0  0  0  0  0  0
   41.5710   27.1480   42.2310 N   0  0  0  0  0  0  0  0  0  0  0  0
   42.8360   27.2270   41.8300 C   0  0  0  0  0  0  0  0  0  0  0  0
   43.1700   28.1410   40.8940 N   0  0  0  0  0  0  0  0  0  0  0  0
   42.5640   29.6940   39.6050 H   0  0  0  0  0  0  0  0  0  0  0  0
   43.6040   26.5790   42.2360 H   0  0  0  0  0  0  0  0  0  0  0  0
   39.2760   27.7570   42.2540 C   0  0  0  0  0  0  0  0  0  0  0  0
   38.6300   28.6500   43.1150 C   0  0  0  0  0  0  0  0  0  0  0  0
   37.4030   28.4240   43.6790 C   0  0  0  0  0  0  0  0  0  0  0  0
   36.7320   27.2550   43.4040 C   0  0  0  0  0  0  0  0  0  0  0  0
   37.3720   26.3330   42.5310 C   0  0  0  0  0  0  0  0  0  0  0  0
   36.7180   25.1620   42.2530 C   0  0  0  0  0  0  0  0  0  0  0  0
   37.2780   24.2220   41.4140 C   0  0  0  0  0  0  0  0  0  0  0  0
   38.5380   24.4750   40.8380 C   0  0  0  0  0  0  0  0  0  0  0  0
   39.1690   25.6910   41.1550 C   0  0  0  0  0  0  0  0  0  0  0  0
   38.5880   26.6010   41.9940 C   0  0  0  0  0  0  0  0  0  0  0  0
   39.1130   29.5810   43.3620 H   0  0  0  0  0  0  0  0  0  0  0  0
   36.9330   29.1360   44.3390 H   0  0  0  0  0  0  0  0  0  0  0  0
   35.7740   27.0070   43.8080 H   0  0  0  0  0  0  0  0  0  0  0  0
   35.7410   24.9760   42.7030 H   0  0  0  0  0  0  0  0  0  0  0  0
   36.7140   23.3070   41.2300 H   0  0  0  0  0  0  0  0  0  0  0  0
   38.8770   23.6920   40.2110 H   0  0  0  0  0  0  0  0  0  0  0  0
   40.0900   25.7090   40.6110 H   0  0  0  0  0  0  0  0  0  0  0  0
   40.0560   29.7510   40.2060 O   0  0  0  0  0  0  0  0  0  0  0  0
   40.4210   31.6590   41.9610 O   0  0  0  0  0  0  0  0  0  0  0  0
   39.9520   31.4020   40.5730 P   0  0  1  0  0  0  0  0  0  0  0  0
   40.9330   32.3130   39.5390 O   0  0  0  0  0  0  0  0  0  0  0  0
   40.7500   31.9600   38.2080 C   0  0  0  0  0  0  0  0  0  0  0  0
   41.7110   31.0030   37.9070 F   0  0  0  0  0  0  0  0  0  0  0  0
   39.4960   31.4440   37.9710 F   0  0  0  0  0  0  0  0  0  0  0  0
   41.0300   33.0800   37.4480 F   0  0  0  0  0  0  0  0  0  0  0  0
   38.3590   31.8860   40.3710 O   0  0  0  0  0  0  0  0  0  0  0  0
   37.8900   33.1880   40.3090 C   0  0  0  0  0  0  0  0  0  0  0  0
   36.9250   33.1390   39.5270 O   0  0  0  0  0  0  0  0  0  0  0  0
   38.6790   34.0580   41.1480 N   0  0  0  0  0  0  0  0  0  0  0  0
   38.5540   33.9480   42.1900 H   0  0  0  0  0  0  0  0  0  0  0  0
   39.3770   34.8030   40.8690 H   0  0  0  0  0  0  0  0  0  0  0  0
  1  2  2  0  0  0  0
  1  6  1  0  0  0  0
  2  3  1  0  0  0  0
  3  4  2  0  0  0  0
  3  9  1  0  0  0  0
  5  4  1  0  0  0  0
  5  8  1  0  0  0  0
  6  5  2  0  0  0  0
  7  1  1  0  0  0  0
  9 10  1  0  0  0  0
 10 19  1  0  0  0  0
 10 11  2  0  0  0  0
 11 20  1  0  0  0  0
 12 11  1  0  0  0  0
 12 21  1  0  0  0  0
 13 12  2  0  0  0  0
 14 13  1  0  0  0  0
 14 22  1  0  0  0  0
 15 14  2  0  0  0  0
 16 17  2  0  0  0  0
 16 15  1  0  0  0  0
 17 18  1  0  0  0  0
 18  9  2  0  0  0  0
 18 13  1  0  0  0  0
 23 15  1  0  0  0  0
 24 16  1  0  0  0  0
 25 17  1  0  0  0  0
 26 28  1  0  0  0  0
 26  2  1  0  0  0  0
 28 27  2  1  0  0  0
 29 28  1  0  0  0  0
 30 29  1  0  0  0  0
 31 30  1  0  0  0  0
 32 30  1  0  0  0  0
 33 30  1  0  0  0  0
 34 28  1  0  0  0  0
 35 34  1  0  0  0  0
 35 37  1  0  0  0  0
 36 35  2  0  0  0  0
 37 38  1  0  0  0  0
 39 37  1  0  0  0  0
M  END
>  <minimizedAffinity>
-5.54206371

$$$$
