
 OpenBabel03252508063D

 39 41  0  0  0  0  0  0  0  0999 V2000
   45.3160   36.2570   42.7630 C   0  0  0  0  0  0  0  0  0  0  0  0
   45.4900   34.8840   42.7030 C   0  0  0  0  0  0  0  0  0  0  0  0
   45.2040   34.1090   43.7990 C   0  0  0  0  0  0  0  0  0  0  0  0
   44.7470   34.7640   44.9270 N   0  0  0  0  0  0  0  0  0  0  0  0
   44.5830   36.0820   44.9780 C   0  0  0  0  0  0  0  0  0  0  0  0
   44.8720   36.8200   43.8850 N   0  0  0  0  0  0  0  0  0  0  0  0
   45.5440   36.8850   41.8900 H   0  0  0  0  0  0  0  0  0  0  0  0
   44.2230   36.5770   45.8720 H   0  0  0  0  0  0  0  0  0  0  0  0
   45.3270   32.7030   43.9000 C   0  0  0  0  0  0  0  0  0  0  0  0
   44.7810   31.8020   42.9800 C   0  0  0  0  0  0  0  0  0  0  0  0
   44.8400   30.4390   43.1100 C   0  0  0  0  0  0  0  0  0  0  0  0
   45.4690   29.8860   44.2010 C   0  0  0  0  0  0  0  0  0  0  0  0
   46.0310   30.7850   45.1480 C   0  0  0  0  0  0  0  0  0  0  0  0
   46.6550   30.2470   46.2430 C   0  0  0  0  0  0  0  0  0  0  0  0
   47.2230   31.0590   47.2020 C   0  0  0  0  0  0  0  0  0  0  0  0
   47.1590   32.4560   47.0480 C   0  0  0  0  0  0  0  0  0  0  0  0
   46.5070   32.9600   45.9080 C   0  0  0  0  0  0  0  0  0  0  0  0
   45.9500   32.1280   44.9770 C   0  0  0  0  0  0  0  0  0  0  0  0
   44.2790   32.1840   42.1080 H   0  0  0  0  0  0  0  0  0  0  0  0
   44.4090   29.7730   42.3810 H   0  0  0  0  0  0  0  0  0  0  0  0
   45.5530   28.8340   44.3720 H   0  0  0  0  0  0  0  0  0  0  0  0
   46.7010   29.1620   46.3520 H   0  0  0  0  0  0  0  0  0  0  0  0
   47.7050   30.5770   48.0530 H   0  0  0  0  0  0  0  0  0  0  0  0
   47.6250   32.9870   47.8370 H   0  0  0  0  0  0  0  0  0  0  0  0
   46.5810   34.0260   45.9580 H   0  0  0  0  0  0  0  0  0  0  0  0
   45.9450   34.3620   41.5250 O   0  0  0  0  0  0  0  0  0  0  0  0
   47.7370   32.5090   41.0690 O   0  0  0  0  0  0  0  0  0  0  0  0
   47.5630   33.9810   41.2010 P   0  0  1  0  0  0  0  0  0  0  0  0
   48.0670   34.6750   39.7420 O   0  0  0  0  0  0  0  0  0  0  0  0
   47.7560   33.8700   38.6530 C   0  0  0  0  0  0  0  0  0  0  0  0
   46.4510   33.4280   38.8360 F   0  0  0  0  0  0  0  0  0  0  0  0
   47.8480   34.5500   37.4600 F   0  0  0  0  0  0  0  0  0  0  0  0
   48.5810   32.7640   38.7160 F   0  0  0  0  0  0  0  0  0  0  0  0
   48.5080   34.5940   42.4440 O   0  0  0  0  0  0  0  0  0  0  0  0
   49.7090   35.2710   42.3160 C   0  0  0  0  0  0  0  0  0  0  0  0
   49.3950   36.3930   41.8830 O   0  0  0  0  0  0  0  0  0  0  0  0
   50.8150   34.4350   42.7220 N   0  0  0  0  0  0  0  0  0  0  0  0
   50.9070   34.2460   43.7560 H   0  0  0  0  0  0  0  0  0  0  0  0
   51.5590   33.9760   42.1270 H   0  0  0  0  0  0  0  0  0  0  0  0
  1  6  1  0  0  0  0
  2  1  2  0  0  0  0
  2  3  1  0  0  0  0
  3  9  1  0  0  0  0
  3  4  2  0  0  0  0
  4  5  1  0  0  0  0
  5  8  1  0  0  0  0
  6  5  2  0  0  0  0
  7  1  1  0  0  0  0
  9 18  1  0  0  0  0
 10 11  1  0  0  0  0
 10  9  2  0  0  0  0
 11 12  2  0  0  0  0
 12 21  1  0  0  0  0
 12 13  1  0  0  0  0
 13 14  1  0  0  0  0
 14 22  1  0  0  0  0
 14 15  2  0  0  0  0
 15 23  1  0  0  0  0
 16 15  1  0  0  0  0
 16 24  1  0  0  0  0
 17 25  1  0  0  0  0
 17 16  2  0  0  0  0
 18 13  2  0  0  0  0
 18 17  1  0  0  0  0
 19 10  1  0  0  0  0
 20 11  1  0  0  0  0
 26  2  1  0  0  0  0
 28 27  2  6  0  0  0
 28 26  1  0  0  0  0
 28 34  1  0  0  0  0
 29 28  1  0  0  0  0
 30 33  1  0  0  0  0
 30 31  1  0  0  0  0
 30 29  1  0  0  0  0
 32 30  1  0  0  0  0
 35 34  1  0  0  0  0
 35 37  1  0  0  0  0
 36 35  2  0  0  0  0
 37 38  1  0  0  0  0
 39 37  1  0  0  0  0
M  END
>  <minimizedAffinity>
-5.85199833

>  <minimizedRMSD>
0.542293727

$$$$
