
 OpenBabel03252508063D

 39 41  0  0  0  0  0  0  0  0999 V2000
   45.3100   36.1480   42.7620 C   0  0  0  0  0  0  0  0  0  0  0  0
   45.5060   34.7770   42.7480 C   0  0  0  0  0  0  0  0  0  0  0  0
   45.2390   34.0340   43.8710 C   0  0  0  0  0  0  0  0  0  0  0  0
   44.7780   34.7200   44.9790 N   0  0  0  0  0  0  0  0  0  0  0  0
   44.5930   36.0360   44.9870 C   0  0  0  0  0  0  0  0  0  0  0  0
   44.8640   36.7410   43.8680 N   0  0  0  0  0  0  0  0  0  0  0  0
   45.5230   36.7500   41.8670 H   0  0  0  0  0  0  0  0  0  0  0  0
   44.2300   36.5550   45.8660 H   0  0  0  0  0  0  0  0  0  0  0  0
   45.3860   32.6350   44.0190 C   0  0  0  0  0  0  0  0  0  0  0  0
   44.8670   31.6950   43.1220 C   0  0  0  0  0  0  0  0  0  0  0  0
   44.9490   30.3390   43.2960 C   0  0  0  0  0  0  0  0  0  0  0  0
   45.5730   29.8320   44.4120 C   0  0  0  0  0  0  0  0  0  0  0  0
   46.1080   30.7700   45.3360 C   0  0  0  0  0  0  0  0  0  0  0  0
   46.7280   30.2790   46.4550 C   0  0  0  0  0  0  0  0  0  0  0  0
   47.2690   31.1310   47.3940 C   0  0  0  0  0  0  0  0  0  0  0  0
   47.1820   32.5220   47.1940 C   0  0  0  0  0  0  0  0  0  0  0  0
   46.5350   32.9780   46.0310 C   0  0  0  0  0  0  0  0  0  0  0  0
   46.0050   32.1060   45.1210 C   0  0  0  0  0  0  0  0  0  0  0  0
   44.3690   32.0400   42.2320 H   0  0  0  0  0  0  0  0  0  0  0  0
   44.5380   29.6420   42.5830 H   0  0  0  0  0  0  0  0  0  0  0  0
   45.6740   28.7880   44.6170 H   0  0  0  0  0  0  0  0  0  0  0  0
   46.7910   29.1990   46.5990 H   0  0  0  0  0  0  0  0  0  0  0  0
   47.7490   30.6850   48.2650 H   0  0  0  0  0  0  0  0  0  0  0  0
   47.6290   33.0860   47.9720 H   0  0  0  0  0  0  0  0  0  0  0  0
   46.5910   34.0450   46.0480 H   0  0  0  0  0  0  0  0  0  0  0  0
   45.9610   34.2230   41.5850 O   0  0  0  0  0  0  0  0  0  0  0  0
   47.8470   32.4780   41.0820 O   0  0  0  0  0  0  0  0  0  0  0  0
   47.5930   33.9370   41.2290 P   0  0  1  0  0  0  0  0  0  0  0  0
   48.0300   34.6680   39.7680 O   0  0  0  0  0  0  0  0  0  0  0  0
   47.7650   33.8460   38.6790 C   0  0  0  0  0  0  0  0  0  0  0  0
   46.4890   33.3280   38.8650 F   0  0  0  0  0  0  0  0  0  0  0  0
   47.8170   34.5290   37.4850 F   0  0  0  0  0  0  0  0  0  0  0  0
   48.6540   32.7910   38.7410 F   0  0  0  0  0  0  0  0  0  0  0  0
   48.5240   34.5930   42.4600 O   0  0  0  0  0  0  0  0  0  0  0  0
   49.7270   35.2640   42.3220 C   0  0  0  0  0  0  0  0  0  0  0  0
   49.4140   36.3880   41.8910 O   0  0  0  0  0  0  0  0  0  0  0  0
   50.8330   34.4240   42.7190 N   0  0  0  0  0  0  0  0  0  0  0  0
   50.9330   34.2360   43.7530 H   0  0  0  0  0  0  0  0  0  0  0  0
   51.5700   33.9610   42.1180 H   0  0  0  0  0  0  0  0  0  0  0  0
  1  6  1  0  0  0  0
  2  1  2  0  0  0  0
  2  3  1  0  0  0  0
  3  9  1  0  0  0  0
  3  4  2  0  0  0  0
  4  5  1  0  0  0  0
  5  8  1  0  0  0  0
  6  5  2  0  0  0  0
  7  1  1  0  0  0  0
  9 18  1  0  0  0  0
 10 11  1  0  0  0  0
 10  9  2  0  0  0  0
 11 12  2  0  0  0  0
 12 21  1  0  0  0  0
 12 13  1  0  0  0  0
 13 14  1  0  0  0  0
 14 22  1  0  0  0  0
 14 15  2  0  0  0  0
 15 23  1  0  0  0  0
 16 15  1  0  0  0  0
 16 24  1  0  0  0  0
 17 25  1  0  0  0  0
 17 16  2  0  0  0  0
 18 13  2  0  0  0  0
 18 17  1  0  0  0  0
 19 10  1  0  0  0  0
 20 11  1  0  0  0  0
 26  2  1  0  0  0  0
 28 27  2  6  0  0  0
 28 26  1  0  0  0  0
 28 34  1  0  0  0  0
 29 28  1  0  0  0  0
 30 33  1  0  0  0  0
 30 31  1  0  0  0  0
 30 29  1  0  0  0  0
 32 30  1  0  0  0  0
 35 34  1  0  0  0  0
 35 37  1  0  0  0  0
 36 35  2  0  0  0  0
 37 38  1  0  0  0  0
 39 37  1  0  0  0  0
M  END
>  <minimizedAffinity>
-5.87363625

>  <minimizedRMSD>
0.408188075

$$$$
