
 OpenBabel03252507503D

 40 41  0  0  0  0  0  0  0  0999 V2000
   36.3480   28.6620   39.8330 C   0  0  0  0  0  0  0  0  0  0  0  0
   36.9290   29.3850   39.2330 H   0  0  0  0  0  0  0  0  0  0  0  0
   36.4170   27.6830   39.3200 H   0  0  0  0  0  0  0  0  0  0  0  0
   36.8960   28.6180   41.1940 C   0  0  0  0  0  0  0  0  0  0  0  0
   37.9540   29.4790   41.4770 C   0  0  0  0  0  0  0  0  0  0  0  0
   38.5310   29.5040   42.7340 C   0  0  0  0  0  0  0  0  0  0  0  0
   38.0070   28.6410   43.6750 N   0  0  0  0  0  0  0  0  0  0  0  0
   36.9750   27.8200   43.3580 C   0  0  0  0  0  0  0  0  0  0  0  0
   36.4440   27.8210   42.1430 N   0  0  0  0  0  0  0  0  0  0  0  0
   39.3410   30.1460   42.9910 H   0  0  0  0  0  0  0  0  0  0  0  0
   36.6120   27.1670   44.1460 H   0  0  0  0  0  0  0  0  0  0  0  0
   38.5780   30.5700   40.1970 S   0  0  0  0  0  0  0  0  0  0  0  0
   37.9950   32.2550   40.4880 C   0  0  0  0  0  0  0  0  0  0  0  0
   37.2430   32.2720   41.3150 H   0  0  0  0  0  0  0  0  0  0  0  0
   38.8660   32.8470   40.8570 H   0  0  0  0  0  0  0  0  0  0  0  0
   37.4000   32.7890   39.2160 C   0  0  0  0  0  0  0  0  0  0  0  0
   36.5300   32.1660   38.9510 H   0  0  0  0  0  0  0  0  0  0  0  0
   38.1020   32.8040   38.3770 H   0  0  0  0  0  0  0  0  0  0  0  0
   36.9380   34.1210   39.4470 N   0  0  0  0  0  0  0  0  0  0  0  0
   37.6840   34.8280   39.5920 H   0  0  0  0  0  0  0  0  0  0  0  0
   36.1460   34.1930   40.0980 H   0  0  0  0  0  0  0  0  0  0  0  0
   34.8990   29.0730   39.7820 C   0  0  0  0  0  0  0  0  0  0  0  0
   34.3440   28.3510   40.4170 H   0  0  0  0  0  0  0  0  0  0  0  0
   34.7680   30.0650   40.2730 H   0  0  0  0  0  0  0  0  0  0  0  0
   34.3040   29.0140   38.4340 C   0  0  0  0  0  0  0  0  0  0  0  0
   35.1390   28.7830   37.3010 C   0  0  0  0  0  0  0  0  0  0  0  0
   33.9690   28.7970   35.9000 S   0  0  0  0  0  0  0  0  0  0  0  0
   32.5100   29.1190   37.0980 C   0  0  0  0  0  0  0  0  0  0  0  0
   33.0480   29.1500   38.1010 N   0  0  0  0  0  0  0  0  0  0  0  0
   36.2060   28.6370   37.2900 H   0  0  0  0  0  0  0  0  0  0  0  0
   31.1920   29.2540   36.6720 O   0  0  0  0  0  0  0  0  0  0  0  0
   28.7050   29.5300   37.5200 O   0  0  0  0  0  0  0  0  0  0  0  0
   30.1300   30.0850   37.6880 P   0  0  1  0  0  0  0  0  0  0  0  0
   30.6130   29.8420   39.3020 O   0  0  0  0  0  0  0  0  0  0  0  0
   31.1450   30.5920   39.6610 H   0  0  0  0  0  0  0  0  0  0  0  0
   30.1950   31.7440   37.3550 O   0  0  0  0  0  0  0  0  0  0  0  0
   30.0810   31.9260   35.9850 C   0  0  0  0  0  0  0  0  0  0  0  0
   29.3240   30.8820   35.4610 F   0  0  0  0  0  0  0  0  0  0  0  0
   31.3370   31.9490   35.4120 F   0  0  0  0  0  0  0  0  0  0  0  0
   29.3570   33.0880   35.7080 F   0  0  0  0  0  0  0  0  0  0  0  0
  1  4  1  0  0  0  0
  2  1  1  0  0  0  0
  3  1  1  0  0  0  0
  4  5  2  0  0  0  0
  4  9  1  0  0  0  0
  5  6  1  0  0  0  0
  6 10  1  0  0  0  0
  6  7  2  0  0  0  0
  8  7  1  0  0  0  0
  8 11  1  0  0  0  0
  9  8  2  0  0  0  0
 12 13  1  0  0  0  0
 12  5  1  0  0  0  0
 13 15  1  0  0  0  0
 13 14  1  0  0  0  0
 16 19  1  0  0  0  0
 16 13  1  0  0  0  0
 17 16  1  0  0  0  0
 18 16  1  0  0  0  0
 19 20  1  0  0  0  0
 19 21  1  0  0  0  0
 22  1  1  0  0  0  0
 22 24  1  0  0  0  0
 22 23  1  0  0  0  0
 25 22  1  0  0  0  0
 26 25  2  0  0  0  0
 27 28  1  0  0  0  0
 27 26  1  0  0  0  0
 28 29  2  0  0  0  0
 29 25  1  0  0  0  0
 30 26  1  0  0  0  0
 31 28  1  0  0  0  0
 31 33  1  0  0  0  0
 33 32  2  6  0  0  0
 33 34  1  0  0  0  0
 34 35  1  0  0  0  0
 36 33  1  0  0  0  0
 37 36  1  0  0  0  0
 38 37  1  0  0  0  0
 39 37  1  0  0  0  0
 40 37  1  0  0  0  0
M  END
>  <minimizedAffinity>
-5.171134

$$$$

 OpenBabel03252507503D

 40 41  0  0  0  0  0  0  0  0999 V2000
   40.4050   27.5210   43.3340 C   0  0  0  0  0  0  0  0  0  0  0  0
   39.9700   28.4920   43.6280 H   0  0  0  0  0  0  0  0  0  0  0  0
   40.9800   27.1450   44.2030 H   0  0  0  0  0  0  0  0  0  0  0  0
   39.3210   26.6080   42.9460 C   0  0  0  0  0  0  0  0  0  0  0  0
   38.0430   27.1520   42.8470 C   0  0  0  0  0  0  0  0  0  0  0  0
   36.9640   26.3650   42.4870 C   0  0  0  0  0  0  0  0  0  0  0  0
   37.2230   25.0330   42.2370 N   0  0  0  0  0  0  0  0  0  0  0  0
   38.4840   24.5440   42.3450 C   0  0  0  0  0  0  0  0  0  0  0  0
   39.4970   25.3260   42.6910 N   0  0  0  0  0  0  0  0  0  0  0  0
   35.9710   26.7420   42.4010 H   0  0  0  0  0  0  0  0  0  0  0  0
   38.6160   23.4870   42.1340 H   0  0  0  0  0  0  0  0  0  0  0  0
   37.7900   28.8950   43.1910 S   0  0  0  0  0  0  0  0  0  0  0  0
   37.7100   29.8200   41.6410 C   0  0  0  0  0  0  0  0  0  0  0  0
   38.0180   30.8830   41.8030 H   0  0  0  0  0  0  0  0  0  0  0  0
   38.4750   29.3850   40.9550 H   0  0  0  0  0  0  0  0  0  0  0  0
   36.3090   29.7470   41.1040 C   0  0  0  0  0  0  0  0  0  0  0  0
   35.7490   29.0050   41.6960 H   0  0  0  0  0  0  0  0  0  0  0  0
   36.2590   29.4760   40.0450 H   0  0  0  0  0  0  0  0  0  0  0  0
   35.6820   31.0190   41.2770 N   0  0  0  0  0  0  0  0  0  0  0  0
   36.0520   31.7790   40.6750 H   0  0  0  0  0  0  0  0  0  0  0  0
   35.5200   31.2870   42.2570 H   0  0  0  0  0  0  0  0  0  0  0  0
   41.4020   27.7710   42.2340 C   0  0  0  0  0  0  0  0  0  0  0  0
   42.4060   27.5860   42.6710 H   0  0  0  0  0  0  0  0  0  0  0  0
   41.2810   27.0060   41.4310 H   0  0  0  0  0  0  0  0  0  0  0  0
   41.3990   29.1530   41.7200 C   0  0  0  0  0  0  0  0  0  0  0  0
   41.5910   30.2420   42.6190 C   0  0  0  0  0  0  0  0  0  0  0  0
   41.5070   31.7090   41.5360 S   0  0  0  0  0  0  0  0  0  0  0  0
   41.2210   30.5870   40.0100 C   0  0  0  0  0  0  0  0  0  0  0  0
   41.2370   29.5530   40.4870 N   0  0  0  0  0  0  0  0  0  0  0  0
   41.7460   30.1960   43.6840 H   0  0  0  0  0  0  0  0  0  0  0  0
   41.0560   31.0840   38.7210 O   0  0  0  0  0  0  0  0  0  0  0  0
   39.0340   32.6770   39.3220 O   0  0  0  0  0  0  0  0  0  0  0  0
   39.5180   31.6370   38.2950 P   0  0  1  0  0  0  0  0  0  0  0  0
   39.6080   32.3890   36.7720 O   0  0  0  0  0  0  0  0  0  0  0  0
   39.3250   31.7980   36.0330 H   0  0  0  0  0  0  0  0  0  0  0  0
   38.4470   30.3300   38.1830 O   0  0  0  0  0  0  0  0  0  0  0  0
   37.2330   30.7910   37.6980 C   0  0  0  0  0  0  0  0  0  0  0  0
   37.3400   30.9550   36.3200 F   0  0  0  0  0  0  0  0  0  0  0  0
   36.9140   31.9910   38.3040 F   0  0  0  0  0  0  0  0  0  0  0  0
   36.2380   29.8290   37.8830 F   0  0  0  0  0  0  0  0  0  0  0  0
  1  2  1  0  0  0  0
  1  3  1  0  0  0  0
  4  1  1  0  0  0  0
  5  4  1  0  0  0  0
  5 12  1  0  0  0  0
  6  5  2  0  0  0  0
  7  8  2  0  0  0  0
  7  6  1  0  0  0  0
  8  9  1  0  0  0  0
  9  4  2  0  0  0  0
 10  6  1  0  0  0  0
 11  8  1  0  0  0  0
 13 14  1  0  0  0  0
 13 12  1  0  0  0  0
 15 13  1  0  0  0  0
 16 19  1  0  0  0  0
 16 13  1  0  0  0  0
 16 17  1  0  0  0  0
 18 16  1  0  0  0  0
 19 21  1  0  0  0  0
 20 19  1  0  0  0  0
 22 23  1  0  0  0  0
 22  1  1  0  0  0  0
 24 22  1  0  0  0  0
 25 22  1  0  0  0  0
 25 26  2  0  0  0  0
 26 30  1  0  0  0  0
 27 26  1  0  0  0  0
 28 29  2  0  0  0  0
 28 27  1  0  0  0  0
 29 25  1  0  0  0  0
 31 28  1  0  0  0  0
 33 31  1  0  0  0  0
 33 32  2  1  0  0  0
 34 33  1  0  0  0  0
 35 34  1  0  0  0  0
 36 33  1  0  0  0  0
 37 40  1  0  0  0  0
 37 36  1  0  0  0  0
 37 39  1  0  0  0  0
 38 37  1  0  0  0  0
M  END
>  <minimizedAffinity>
-5.13162088

$$$$

 OpenBabel03252507503D

 40 41  0  0  0  0  0  0  0  0999 V2000
   36.9450   27.5920   42.6470 C   0  0  0  0  0  0  0  0  0  0  0  0
   36.6970   28.4000   41.9360 H   0  0  0  0  0  0  0  0  0  0  0  0
   36.0900   27.4990   43.3450 H   0  0  0  0  0  0  0  0  0  0  0  0
   37.1910   26.3530   41.8980 C   0  0  0  0  0  0  0  0  0  0  0  0
   37.2920   26.4620   40.5130 C   0  0  0  0  0  0  0  0  0  0  0  0
   37.5230   25.3450   39.7290 C   0  0  0  0  0  0  0  0  0  0  0  0
   37.6440   24.1380   40.3880 N   0  0  0  0  0  0  0  0  0  0  0  0
   37.5400   24.0770   41.7390 C   0  0  0  0  0  0  0  0  0  0  0  0
   37.3190   25.1670   42.4610 N   0  0  0  0  0  0  0  0  0  0  0  0
   37.6060   25.3860   38.6680 H   0  0  0  0  0  0  0  0  0  0  0  0
   37.6460   23.0960   42.1920 H   0  0  0  0  0  0  0  0  0  0  0  0
   37.1210   28.0680   39.7330 S   0  0  0  0  0  0  0  0  0  0  0  0
   35.5020   28.7700   40.1230 C   0  0  0  0  0  0  0  0  0  0  0  0
   34.7230   28.3670   39.4300 H   0  0  0  0  0  0  0  0  0  0  0  0
   35.2200   28.4080   41.1400 H   0  0  0  0  0  0  0  0  0  0  0  0
   35.5840   30.2670   40.0190 C   0  0  0  0  0  0  0  0  0  0  0  0
   34.6310   30.6390   39.6090 H   0  0  0  0  0  0  0  0  0  0  0  0
   36.4090   30.6180   39.3920 H   0  0  0  0  0  0  0  0  0  0  0  0
   35.7470   30.8120   41.3300 N   0  0  0  0  0  0  0  0  0  0  0  0
   36.6660   30.6240   41.7750 H   0  0  0  0  0  0  0  0  0  0  0  0
   34.9360   30.6870   41.9500 H   0  0  0  0  0  0  0  0  0  0  0  0
   38.1240   28.0400   43.4690 C   0  0  0  0  0  0  0  0  0  0  0  0
   37.7110   28.6000   44.3340 H   0  0  0  0  0  0  0  0  0  0  0  0
   38.6420   27.1540   43.9060 H   0  0  0  0  0  0  0  0  0  0  0  0
   39.0420   28.9510   42.7600 C   0  0  0  0  0  0  0  0  0  0  0  0
   40.3210   28.4810   42.3400 C   0  0  0  0  0  0  0  0  0  0  0  0
   41.0650   29.9370   41.5300 S   0  0  0  0  0  0  0  0  0  0  0  0
   39.4930   30.9670   41.8970 C   0  0  0  0  0  0  0  0  0  0  0  0
   38.8460   30.2020   42.4370 N   0  0  0  0  0  0  0  0  0  0  0  0
   40.7360   27.4960   42.4760 H   0  0  0  0  0  0  0  0  0  0  0  0
   39.3540   32.3010   41.5230 O   0  0  0  0  0  0  0  0  0  0  0  0
   37.3400   33.2100   40.0740 O   0  0  0  0  0  0  0  0  0  0  0  0
   38.7560   32.6140   39.9750 P   0  0  1  0  0  0  0  0  0  0  0  0
   39.7660   33.7540   39.2180 O   0  0  0  0  0  0  0  0  0  0  0  0
   40.4220   33.3410   38.6070 H   0  0  0  0  0  0  0  0  0  0  0  0
   38.7690   31.1930   39.0550 O   0  0  0  0  0  0  0  0  0  0  0  0
   38.3730   31.4980   37.7620 C   0  0  0  0  0  0  0  0  0  0  0  0
   39.4590   32.0380   37.0810 F   0  0  0  0  0  0  0  0  0  0  0  0
   37.3260   32.3990   37.7960 F   0  0  0  0  0  0  0  0  0  0  0  0
   38.0380   30.3330   37.0680 F   0  0  0  0  0  0  0  0  0  0  0  0
  1  3  1  0  0  0  0
  1 22  1  0  0  0  0
  2  1  1  0  0  0  0
  4  9  1  0  0  0  0
  4  1  1  0  0  0  0
  5  4  2  0  0  0  0
  6  7  2  0  0  0  0
  6  5  1  0  0  0  0
  7  8  1  0  0  0  0
  8 11  1  0  0  0  0
  8  9  2  0  0  0  0
 10  6  1  0  0  0  0
 12 13  1  0  0  0  0
 12  5  1  0  0  0  0
 13 15  1  0  0  0  0
 14 13  1  0  0  0  0
 16 13  1  0  0  0  0
 16 19  1  0  0  0  0
 17 16  1  0  0  0  0
 18 16  1  0  0  0  0
 19 20  1  0  0  0  0
 19 21  1  0  0  0  0
 22 24  1  0  0  0  0
 22 23  1  0  0  0  0
 25 22  1  0  0  0  0
 26 30  1  0  0  0  0
 26 25  2  0  0  0  0
 27 28  1  0  0  0  0
 27 26  1  0  0  0  0
 28 29  2  0  0  0  0
 29 25  1  0  0  0  0
 31 28  1  0  0  0  0
 33 32  2  1  0  0  0
 33 31  1  0  0  0  0
 34 33  1  0  0  0  0
 35 34  1  0  0  0  0
 36 33  1  0  0  0  0
 37 39  1  0  0  0  0
 37 36  1  0  0  0  0
 38 37  1  0  0  0  0
 40 37  1  0  0  0  0
M  END
>  <minimizedAffinity>
-5.08209515

$$$$

 OpenBabel03252507503D

 40 41  0  0  0  0  0  0  0  0999 V2000
   36.6610   31.1050   40.7650 C   0  0  0  0  0  0  0  0  0  0  0  0
   37.3690   31.1980   41.6070 H   0  0  0  0  0  0  0  0  0  0  0  0
   35.8680   31.8620   40.9220 H   0  0  0  0  0  0  0  0  0  0  0  0
   37.3850   31.3080   39.5040 C   0  0  0  0  0  0  0  0  0  0  0  0
   38.6650   31.8500   39.5920 C   0  0  0  0  0  0  0  0  0  0  0  0
   39.4180   32.0760   38.4530 C   0  0  0  0  0  0  0  0  0  0  0  0
   38.8380   31.7390   37.2470 N   0  0  0  0  0  0  0  0  0  0  0  0
   37.5880   31.2130   37.2080 C   0  0  0  0  0  0  0  0  0  0  0  0
   36.8930   31.0090   38.3180 N   0  0  0  0  0  0  0  0  0  0  0  0
   40.4000   32.4890   38.4770 H   0  0  0  0  0  0  0  0  0  0  0  0
   37.1930   30.9710   36.2260 H   0  0  0  0  0  0  0  0  0  0  0  0
   39.3480   32.2620   41.1990 S   0  0  0  0  0  0  0  0  0  0  0  0
   40.9250   31.4130   41.4320 C   0  0  0  0  0  0  0  0  0  0  0  0
   40.9080   30.8060   42.3710 H   0  0  0  0  0  0  0  0  0  0  0  0
   41.0330   30.6800   40.5980 H   0  0  0  0  0  0  0  0  0  0  0  0
   42.0250   32.4360   41.4780 C   0  0  0  0  0  0  0  0  0  0  0  0
   41.5790   33.4320   41.3210 H   0  0  0  0  0  0  0  0  0  0  0  0
   42.8100   32.2710   40.7350 H   0  0  0  0  0  0  0  0  0  0  0  0
   42.6180   32.4160   42.7790 N   0  0  0  0  0  0  0  0  0  0  0  0
   43.1710   31.5660   42.9980 H   0  0  0  0  0  0  0  0  0  0  0  0
   42.0000   32.7340   43.5360 H   0  0  0  0  0  0  0  0  0  0  0  0
   35.9950   29.7580   40.8640 C   0  0  0  0  0  0  0  0  0  0  0  0
   34.9980   29.9310   41.3210 H   0  0  0  0  0  0  0  0  0  0  0  0
   35.7900   29.3590   39.8430 H   0  0  0  0  0  0  0  0  0  0  0  0
   36.7060   28.7950   41.7260 C   0  0  0  0  0  0  0  0  0  0  0  0
   37.6490   29.2680   42.6870 C   0  0  0  0  0  0  0  0  0  0  0  0
   38.2460   27.7400   43.4850 S   0  0  0  0  0  0  0  0  0  0  0  0
   37.0990   26.6870   42.3690 C   0  0  0  0  0  0  0  0  0  0  0  0
   36.5950   27.4940   41.7450 N   0  0  0  0  0  0  0  0  0  0  0  0
   37.9310   30.2890   42.8820 H   0  0  0  0  0  0  0  0  0  0  0  0
   37.0330   25.2990   42.4430 O   0  0  0  0  0  0  0  0  0  0  0  0
   39.2400   25.3570   40.9900 O   0  0  0  0  0  0  0  0  0  0  0  0
   38.3400   24.4270   41.8240 P   0  0  1  0  0  0  0  0  0  0  0  0
   39.2550   23.8170   43.1220 O   0  0  0  0  0  0  0  0  0  0  0  0
   39.0480   22.8750   43.3300 H   0  0  0  0  0  0  0  0  0  0  0  0
   37.7770   23.1200   40.9060 O   0  0  0  0  0  0  0  0  0  0  0  0
   36.7170   23.5520   40.1230 C   0  0  0  0  0  0  0  0  0  0  0  0
   36.4220   22.5620   39.1910 F   0  0  0  0  0  0  0  0  0  0  0  0
   37.0570   24.7300   39.4870 F   0  0  0  0  0  0  0  0  0  0  0  0
   35.5640   23.6890   40.8990 F   0  0  0  0  0  0  0  0  0  0  0  0
  1 22  1  0  0  0  0
  1  3  1  0  0  0  0
  1  2  1  0  0  0  0
  4  5  1  0  0  0  0
  4  1  1  0  0  0  0
  5 12  1  0  0  0  0
  6 10  1  0  0  0  0
  6  5  2  0  0  0  0
  7  6  1  0  0  0  0
  8  7  2  0  0  0  0
  8  9  1  0  0  0  0
  9  4  2  0  0  0  0
 11  8  1  0  0  0  0
 12 13  1  0  0  0  0
 13 16  1  0  0  0  0
 13 14  1  0  0  0  0
 15 13  1  0  0  0  0
 16 19  1  0  0  0  0
 17 16  1  0  0  0  0
 18 16  1  0  0  0  0
 19 20  1  0  0  0  0
 19 21  1  0  0  0  0
 22 23  1  0  0  0  0
 22 25  1  0  0  0  0
 24 22  1  0  0  0  0
 25 29  1  0  0  0  0
 25 26  2  0  0  0  0
 26 30  1  0  0  0  0
 26 27  1  0  0  0  0
 28 31  1  0  0  0  0
 28 27  1  0  0  0  0
 29 28  2  0  0  0  0
 33 32  2  6  0  0  0
 33 31  1  0  0  0  0
 33 34  1  0  0  0  0
 34 35  1  0  0  0  0
 36 33  1  0  0  0  0
 37 40  1  0  0  0  0
 37 36  1  0  0  0  0
 38 37  1  0  0  0  0
 39 37  1  0  0  0  0
M  END
>  <minimizedAffinity>
-4.99900723

$$$$

 OpenBabel03252507503D

 40 41  0  0  0  0  0  0  0  0999 V2000
   35.4570   29.8880   39.9010 C   0  0  0  0  0  0  0  0  0  0  0  0
   36.2940   30.5660   40.1450 H   0  0  0  0  0  0  0  0  0  0  0  0
   34.5200   30.4500   40.0860 H   0  0  0  0  0  0  0  0  0  0  0  0
   35.5800   29.4550   38.5040 C   0  0  0  0  0  0  0  0  0  0  0  0
   36.6040   30.0290   37.7530 C   0  0  0  0  0  0  0  0  0  0  0  0
   36.7930   29.6780   36.4280 C   0  0  0  0  0  0  0  0  0  0  0  0
   35.9240   28.7430   35.9030 N   0  0  0  0  0  0  0  0  0  0  0  0
   34.9410   28.2090   36.6700 C   0  0  0  0  0  0  0  0  0  0  0  0
   34.7870   28.5660   37.9380 N   0  0  0  0  0  0  0  0  0  0  0  0
   37.5620   30.0940   35.8200 H   0  0  0  0  0  0  0  0  0  0  0  0
   34.2930   27.4790   36.1930 H   0  0  0  0  0  0  0  0  0  0  0  0
   37.6910   31.2380   38.5110 S   0  0  0  0  0  0  0  0  0  0  0  0
   38.9190   31.7970   37.3090 C   0  0  0  0  0  0  0  0  0  0  0  0
   39.1290   30.9930   36.5610 H   0  0  0  0  0  0  0  0  0  0  0  0
   38.4610   32.6350   36.7330 H   0  0  0  0  0  0  0  0  0  0  0  0
   40.1720   32.1850   38.0410 C   0  0  0  0  0  0  0  0  0  0  0  0
   40.7150   31.2640   38.3100 H   0  0  0  0  0  0  0  0  0  0  0  0
   39.9880   32.7730   38.9450 H   0  0  0  0  0  0  0  0  0  0  0  0
   41.0020   32.9490   37.1630 N   0  0  0  0  0  0  0  0  0  0  0  0
   40.6440   33.8950   36.9310 H   0  0  0  0  0  0  0  0  0  0  0  0
   41.3770   32.4230   36.3630 H   0  0  0  0  0  0  0  0  0  0  0  0
   35.4770   28.7500   40.8870 C   0  0  0  0  0  0  0  0  0  0  0  0
   34.6590   28.9460   41.6120 H   0  0  0  0  0  0  0  0  0  0  0  0
   35.2000   27.7990   40.3750 H   0  0  0  0  0  0  0  0  0  0  0  0
   36.7280   28.6450   41.6610 C   0  0  0  0  0  0  0  0  0  0  0  0
   37.4540   29.8260   41.9960 C   0  0  0  0  0  0  0  0  0  0  0  0
   38.8880   29.1940   42.9310 S   0  0  0  0  0  0  0  0  0  0  0  0
   38.2610   27.3970   42.7130 C   0  0  0  0  0  0  0  0  0  0  0  0
   37.3070   27.5650   42.1150 N   0  0  0  0  0  0  0  0  0  0  0  0
   37.2020   30.8440   41.7490 H   0  0  0  0  0  0  0  0  0  0  0  0
   38.9320   26.2910   43.2240 O   0  0  0  0  0  0  0  0  0  0  0  0
   39.4260   25.0230   40.9590 O   0  0  0  0  0  0  0  0  0  0  0  0
   38.8130   24.8450   42.3600 P   0  0  1  0  0  0  0  0  0  0  0  0
   39.6930   23.6420   43.1810 O   0  0  0  0  0  0  0  0  0  0  0  0
   39.1220   23.0620   43.7400 H   0  0  0  0  0  0  0  0  0  0  0  0
   37.1940   24.3570   42.2730 O   0  0  0  0  0  0  0  0  0  0  0  0
   36.9100   23.9920   40.9660 C   0  0  0  0  0  0  0  0  0  0  0  0
   35.5650   23.6480   40.8830 F   0  0  0  0  0  0  0  0  0  0  0  0
   37.7070   22.9260   40.5960 F   0  0  0  0  0  0  0  0  0  0  0  0
   37.0690   25.0850   40.1110 F   0  0  0  0  0  0  0  0  0  0  0  0
  1  3  1  0  0  0  0
  1  2  1  0  0  0  0
  1 22  1  0  0  0  0
  4  1  1  0  0  0  0
  5  4  2  0  0  0  0
  5 12  1  0  0  0  0
  6  5  1  0  0  0  0
  7  6  2  0  0  0  0
  7  8  1  0  0  0  0
  8  9  2  0  0  0  0
  9  4  1  0  0  0  0
 10  6  1  0  0  0  0
 11  8  1  0  0  0  0
 13 16  1  0  0  0  0
 13 12  1  0  0  0  0
 14 13  1  0  0  0  0
 15 13  1  0  0  0  0
 16 17  1  0  0  0  0
 16 18  1  0  0  0  0
 19 16  1  0  0  0  0
 20 19  1  0  0  0  0
 21 19  1  0  0  0  0
 22 23  1  0  0  0  0
 22 25  1  0  0  0  0
 24 22  1  0  0  0  0
 25 26  2  0  0  0  0
 25 29  1  0  0  0  0
 26 27  1  0  0  0  0
 28 27  1  0  0  0  0
 28 31  1  0  0  0  0
 29 28  2  0  0  0  0
 30 26  1  0  0  0  0
 33 32  2  6  0  0  0
 33 34  1  0  0  0  0
 33 31  1  0  0  0  0
 34 35  1  0  0  0  0
 36 33  1  0  0  0  0
 37 36  1  0  0  0  0
 38 37  1  0  0  0  0
 39 37  1  0  0  0  0
 40 37  1  0  0  0  0
M  END
>  <minimizedAffinity>
-4.93823195

$$$$

 OpenBabel03252507503D

 40 41  0  0  0  0  0  0  0  0999 V2000
   36.9850   29.4400   38.8600 C   0  0  0  0  0  0  0  0  0  0  0  0
   36.9160   29.5100   37.7600 H   0  0  0  0  0  0  0  0  0  0  0  0
   37.7210   28.6450   39.0900 H   0  0  0  0  0  0  0  0  0  0  0  0
   37.3880   30.7460   39.3990 C   0  0  0  0  0  0  0  0  0  0  0  0
   38.3760   30.7450   40.3820 C   0  0  0  0  0  0  0  0  0  0  0  0
   38.8160   31.9300   40.9450 C   0  0  0  0  0  0  0  0  0  0  0  0
   38.2290   33.0920   40.4850 N   0  0  0  0  0  0  0  0  0  0  0  0
   37.2710   33.0470   39.5260 C   0  0  0  0  0  0  0  0  0  0  0  0
   36.8720   31.8940   39.0060 N   0  0  0  0  0  0  0  0  0  0  0  0
   39.5680   31.9730   41.6980 H   0  0  0  0  0  0  0  0  0  0  0  0
   36.8530   33.9980   39.2100 H   0  0  0  0  0  0  0  0  0  0  0  0
   39.0870   29.1910   40.9260 S   0  0  0  0  0  0  0  0  0  0  0  0
   39.3470   29.2270   42.7140 C   0  0  0  0  0  0  0  0  0  0  0  0
   40.3490   28.8040   42.9720 H   0  0  0  0  0  0  0  0  0  0  0  0
   39.3810   30.2990   43.0210 H   0  0  0  0  0  0  0  0  0  0  0  0
   38.2500   28.4450   43.3790 C   0  0  0  0  0  0  0  0  0  0  0  0
   38.5270   28.2860   44.4340 H   0  0  0  0  0  0  0  0  0  0  0  0
   38.0530   27.4780   42.9070 H   0  0  0  0  0  0  0  0  0  0  0  0
   37.0480   29.2180   43.3480 N   0  0  0  0  0  0  0  0  0  0  0  0
   36.6240   29.3360   42.4080 H   0  0  0  0  0  0  0  0  0  0  0  0
   37.0750   30.0730   43.9180 H   0  0  0  0  0  0  0  0  0  0  0  0
   35.6560   28.9600   39.3810 C   0  0  0  0  0  0  0  0  0  0  0  0
   35.8670   28.0680   40.0070 H   0  0  0  0  0  0  0  0  0  0  0  0
   35.2240   29.7180   40.0770 H   0  0  0  0  0  0  0  0  0  0  0  0
   34.7130   28.5400   38.3280 C   0  0  0  0  0  0  0  0  0  0  0  0
   34.8520   27.2550   37.7250 C   0  0  0  0  0  0  0  0  0  0  0  0
   33.4860   27.2030   36.5160 S   0  0  0  0  0  0  0  0  0  0  0  0
   32.9360   28.9630   37.0330 C   0  0  0  0  0  0  0  0  0  0  0  0
   33.7040   29.2100   37.8360 N   0  0  0  0  0  0  0  0  0  0  0  0
   35.5930   26.5040   37.9420 H   0  0  0  0  0  0  0  0  0  0  0  0
   31.8490   29.6180   36.4630 O   0  0  0  0  0  0  0  0  0  0  0  0
   29.3770   29.0990   37.2390 O   0  0  0  0  0  0  0  0  0  0  0  0
   30.5720   30.0370   37.4860 P   0  0  1  0  0  0  0  0  0  0  0  0
   31.0790   29.8470   39.0990 O   0  0  0  0  0  0  0  0  0  0  0  0
   31.3600   30.6970   39.5160 H   0  0  0  0  0  0  0  0  0  0  0  0
   30.1500   31.6580   37.2450 O   0  0  0  0  0  0  0  0  0  0  0  0
   30.0770   31.9000   35.8820 C   0  0  0  0  0  0  0  0  0  0  0  0
   29.2910   33.0290   35.6720 F   0  0  0  0  0  0  0  0  0  0  0  0
   29.5320   30.8040   35.2420 F   0  0  0  0  0  0  0  0  0  0  0  0
   31.3390   32.2250   35.3780 F   0  0  0  0  0  0  0  0  0  0  0  0
  1  3  1  0  0  0  0
  1 22  1  0  0  0  0
  1  4  1  0  0  0  0
  2  1  1  0  0  0  0
  4  5  1  0  0  0  0
  5 12  1  0  0  0  0
  5  6  2  0  0  0  0
  6 10  1  0  0  0  0
  7  6  1  0  0  0  0
  8  7  2  0  0  0  0
  9  4  2  0  0  0  0
  9  8  1  0  0  0  0
 11  8  1  0  0  0  0
 12 13  1  0  0  0  0
 13 14  1  0  0  0  0
 13 15  1  0  0  0  0
 13 16  1  0  0  0  0
 16 17  1  0  0  0  0
 18 16  1  0  0  0  0
 19 16  1  0  0  0  0
 19 21  1  0  0  0  0
 20 19  1  0  0  0  0
 22 23  1  0  0  0  0
 22 24  1  0  0  0  0
 25 22  1  0  0  0  0
 26 30  1  0  0  0  0
 26 25  2  0  0  0  0
 27 28  1  0  0  0  0
 27 26  1  0  0  0  0
 28 29  2  0  0  0  0
 29 25  1  0  0  0  0
 31 28  1  0  0  0  0
 31 33  1  0  0  0  0
 33 32  2  6  0  0  0
 33 34  1  0  0  0  0
 34 35  1  0  0  0  0
 36 33  1  0  0  0  0
 37 36  1  0  0  0  0
 38 37  1  0  0  0  0
 39 37  1  0  0  0  0
 40 37  1  0  0  0  0
M  END
>  <minimizedAffinity>
-4.84893799

$$$$

 OpenBabel03252507503D

 40 41  0  0  0  0  0  0  0  0999 V2000
   36.8210   27.3430   41.3760 C   0  0  0  0  0  0  0  0  0  0  0  0
   35.8710   27.2110   41.9240 H   0  0  0  0  0  0  0  0  0  0  0  0
   36.9910   28.4340   41.2780 H   0  0  0  0  0  0  0  0  0  0  0  0
   37.8980   26.6750   42.1170 C   0  0  0  0  0  0  0  0  0  0  0  0
   38.7190   27.4820   42.9020 C   0  0  0  0  0  0  0  0  0  0  0  0
   39.7590   26.9370   43.6330 C   0  0  0  0  0  0  0  0  0  0  0  0
   39.9340   25.5710   43.5410 N   0  0  0  0  0  0  0  0  0  0  0  0
   39.1110   24.8220   42.7650 C   0  0  0  0  0  0  0  0  0  0  0  0
   38.1220   25.3770   42.0770 N   0  0  0  0  0  0  0  0  0  0  0  0
   40.4090   27.5190   44.2450 H   0  0  0  0  0  0  0  0  0  0  0  0
   39.3040   23.7540   42.7390 H   0  0  0  0  0  0  0  0  0  0  0  0
   38.4260   29.2510   42.9660 S   0  0  0  0  0  0  0  0  0  0  0  0
   39.6240   30.1100   41.9210 C   0  0  0  0  0  0  0  0  0  0  0  0
   40.1910   29.3790   41.2930 H   0  0  0  0  0  0  0  0  0  0  0  0
   39.0460   30.7400   41.2050 H   0  0  0  0  0  0  0  0  0  0  0  0
   40.5570   30.8960   42.7980 C   0  0  0  0  0  0  0  0  0  0  0  0
   41.4180   30.2560   43.0500 H   0  0  0  0  0  0  0  0  0  0  0  0
   40.0930   31.2560   43.7200 H   0  0  0  0  0  0  0  0  0  0  0  0
   41.0420   32.0220   42.0620 N   0  0  0  0  0  0  0  0  0  0  0  0
   40.3370   32.7570   41.8670 H   0  0  0  0  0  0  0  0  0  0  0  0
   41.6480   31.7850   41.2670 H   0  0  0  0  0  0  0  0  0  0  0  0
   36.6320   26.8100   39.9800 C   0  0  0  0  0  0  0  0  0  0  0  0
   37.1960   25.8560   39.9280 H   0  0  0  0  0  0  0  0  0  0  0  0
   35.5630   26.5340   39.8200 H   0  0  0  0  0  0  0  0  0  0  0  0
   37.1640   27.6890   38.9230 C   0  0  0  0  0  0  0  0  0  0  0  0
   36.4820   27.7860   37.6740 C   0  0  0  0  0  0  0  0  0  0  0  0
   37.5010   28.9640   36.7230 S   0  0  0  0  0  0  0  0  0  0  0  0
   38.7090   29.1400   38.1990 C   0  0  0  0  0  0  0  0  0  0  0  0
   38.2330   28.4400   38.9610 N   0  0  0  0  0  0  0  0  0  0  0  0
   35.5800   27.2770   37.3770 H   0  0  0  0  0  0  0  0  0  0  0  0
   39.8320   29.9600   38.1690 O   0  0  0  0  0  0  0  0  0  0  0  0
   40.7020   32.2220   39.2230 O   0  0  0  0  0  0  0  0  0  0  0  0
   39.5840   31.6210   38.3520 P   0  0  1  0  0  0  0  0  0  0  0  0
   39.6440   32.3560   36.8190 O   0  0  0  0  0  0  0  0  0  0  0  0
   38.7490   32.5200   36.4360 H   0  0  0  0  0  0  0  0  0  0  0  0
   38.0550   31.9040   39.0220 O   0  0  0  0  0  0  0  0  0  0  0  0
   38.0630   33.1460   39.6370 C   0  0  0  0  0  0  0  0  0  0  0  0
   38.1810   32.9600   41.0110 F   0  0  0  0  0  0  0  0  0  0  0  0
   36.8960   33.8230   39.3380 F   0  0  0  0  0  0  0  0  0  0  0  0
   39.1980   33.8670   39.2600 F   0  0  0  0  0  0  0  0  0  0  0  0
  1  2  1  0  0  0  0
  1  4  1  0  0  0  0
  3  1  1  0  0  0  0
  4  5  1  0  0  0  0
  5 12  1  0  0  0  0
  5  6  2  0  0  0  0
  6 10  1  0  0  0  0
  7  6  1  0  0  0  0
  8  7  2  0  0  0  0
  9  4  2  0  0  0  0
  9  8  1  0  0  0  0
 11  8  1  0  0  0  0
 13 16  1  0  0  0  0
 13 12  1  0  0  0  0
 14 13  1  0  0  0  0
 15 13  1  0  0  0  0
 16 17  1  0  0  0  0
 16 18  1  0  0  0  0
 19 16  1  0  0  0  0
 20 19  1  0  0  0  0
 21 19  1  0  0  0  0
 22  1  1  0  0  0  0
 23 22  1  0  0  0  0
 24 22  1  0  0  0  0
 25 29  1  0  0  0  0
 25 22  1  0  0  0  0
 26 25  2  0  0  0  0
 27 26  1  0  0  0  0
 27 28  1  0  0  0  0
 28 29  2  0  0  0  0
 30 26  1  0  0  0  0
 31 28  1  0  0  0  0
 31 33  1  0  0  0  0
 33 36  1  0  0  0  0
 33 32  2  1  0  0  0
 34 33  1  0  0  0  0
 35 34  1  0  0  0  0
 36 37  1  0  0  0  0
 37 38  1  0  0  0  0
 39 37  1  0  0  0  0
 40 37  1  0  0  0  0
M  END
>  <minimizedAffinity>
-4.82812691

$$$$

 OpenBabel03252507503D

 40 41  0  0  0  0  0  0  0  0999 V2000
   41.6820   30.6440   41.4180 C   0  0  0  0  0  0  0  0  0  0  0  0
   40.6790   30.9890   41.1110 H   0  0  0  0  0  0  0  0  0  0  0  0
   42.1140   30.0940   40.5590 H   0  0  0  0  0  0  0  0  0  0  0  0
   42.4930   31.8070   41.8010 C   0  0  0  0  0  0  0  0  0  0  0  0
   42.2010   33.0150   41.1720 C   0  0  0  0  0  0  0  0  0  0  0  0
   42.9160   34.1610   41.4720 C   0  0  0  0  0  0  0  0  0  0  0  0
   43.9170   34.0400   42.4140 N   0  0  0  0  0  0  0  0  0  0  0  0
   44.1680   32.8440   43.0030 C   0  0  0  0  0  0  0  0  0  0  0  0
   43.4630   31.7640   42.6930 N   0  0  0  0  0  0  0  0  0  0  0  0
   42.7240   35.1040   41.0140 H   0  0  0  0  0  0  0  0  0  0  0  0
   44.9690   32.8200   43.7350 H   0  0  0  0  0  0  0  0  0  0  0  0
   40.8830   33.0880   39.9560 S   0  0  0  0  0  0  0  0  0  0  0  0
   41.5280   33.7170   38.3890 C   0  0  0  0  0  0  0  0  0  0  0  0
   40.9000   34.5650   38.0200 H   0  0  0  0  0  0  0  0  0  0  0  0
   42.5340   34.1510   38.5960 H   0  0  0  0  0  0  0  0  0  0  0  0
   41.5510   32.5950   37.3900 C   0  0  0  0  0  0  0  0  0  0  0  0
   41.8720   31.6760   37.9070 H   0  0  0  0  0  0  0  0  0  0  0  0
   42.2120   32.7800   36.5390 H   0  0  0  0  0  0  0  0  0  0  0  0
   40.2240   32.3880   36.9000 N   0  0  0  0  0  0  0  0  0  0  0  0
   39.8550   33.1450   36.2940 H   0  0  0  0  0  0  0  0  0  0  0  0
   39.5590   32.0350   37.6000 H   0  0  0  0  0  0  0  0  0  0  0  0
   41.5100   29.6410   42.5270 C   0  0  0  0  0  0  0  0  0  0  0  0
   42.2020   28.8020   42.3040 H   0  0  0  0  0  0  0  0  0  0  0  0
   41.8670   30.0740   43.4910 H   0  0  0  0  0  0  0  0  0  0  0  0
   40.1530   29.0710   42.6200 C   0  0  0  0  0  0  0  0  0  0  0  0
   39.9790   27.7250   43.0560 C   0  0  0  0  0  0  0  0  0  0  0  0
   38.1690   27.4910   43.0050 S   0  0  0  0  0  0  0  0  0  0  0  0
   37.9360   29.2900   42.3910 C   0  0  0  0  0  0  0  0  0  0  0  0
   39.0140   29.6520   42.3470 N   0  0  0  0  0  0  0  0  0  0  0  0
   40.7440   27.0230   43.3430 H   0  0  0  0  0  0  0  0  0  0  0  0
   36.6890   29.8450   42.1180 O   0  0  0  0  0  0  0  0  0  0  0  0
   37.0220   28.8460   39.6940 O   0  0  0  0  0  0  0  0  0  0  0  0
   36.1730   29.8370   40.5100 P   0  0  1  0  0  0  0  0  0  0  0  0
   34.5520   29.3240   40.4580 O   0  0  0  0  0  0  0  0  0  0  0  0
   33.9130   30.0740   40.3960 H   0  0  0  0  0  0  0  0  0  0  0  0
   36.2600   31.4030   39.8710 O   0  0  0  0  0  0  0  0  0  0  0  0
   37.2570   31.4330   38.9080 C   0  0  0  0  0  0  0  0  0  0  0  0
   37.5640   32.7620   38.6300 F   0  0  0  0  0  0  0  0  0  0  0  0
   36.8240   30.7870   37.7660 F   0  0  0  0  0  0  0  0  0  0  0  0
   38.4350   30.8750   39.4100 F   0  0  0  0  0  0  0  0  0  0  0  0
  1  4  1  0  0  0  0
  1 22  1  0  0  0  0
  2  1  1  0  0  0  0
  3  1  1  0  0  0  0
  4  9  1  0  0  0  0
  5  6  1  0  0  0  0
  5  4  2  0  0  0  0
  6  7  2  0  0  0  0
  7  8  1  0  0  0  0
  8 11  1  0  0  0  0
  9  8  2  0  0  0  0
 10  6  1  0  0  0  0
 12  5  1  0  0  0  0
 13 15  1  0  0  0  0
 13 12  1  0  0  0  0
 14 13  1  0  0  0  0
 16 17  1  0  0  0  0
 16 13  1  0  0  0  0
 18 16  1  0  0  0  0
 19 16  1  0  0  0  0
 19 21  1  0  0  0  0
 20 19  1  0  0  0  0
 22 25  1  0  0  0  0
 22 24  1  0  0  0  0
 23 22  1  0  0  0  0
 25 26  2  0  0  0  0
 26 30  1  0  0  0  0
 27 26  1  0  0  0  0
 28 27  1  0  0  0  0
 29 28  2  0  0  0  0
 29 25  1  0  0  0  0
 31 28  1  0  0  0  0
 33 32  2  6  0  0  0
 33 31  1  0  0  0  0
 34 33  1  0  0  0  0
 35 34  1  0  0  0  0
 36 33  1  0  0  0  0
 37 40  1  0  0  0  0
 37 36  1  0  0  0  0
 38 37  1  0  0  0  0
 39 37  1  0  0  0  0
M  END
>  <minimizedAffinity>
-4.80554199

$$$$

 OpenBabel03252507503D

 40 41  0  0  0  0  0  0  0  0999 V2000
   36.6320   27.6040   42.7610 C   0  0  0  0  0  0  0  0  0  0  0  0
   36.3490   28.4930   42.1710 H   0  0  0  0  0  0  0  0  0  0  0  0
   35.7770   27.3680   43.4250 H   0  0  0  0  0  0  0  0  0  0  0  0
   36.9480   26.5000   41.8460 C   0  0  0  0  0  0  0  0  0  0  0  0
   36.9390   26.7880   40.4830 C   0  0  0  0  0  0  0  0  0  0  0  0
   37.2250   25.8080   39.5500 C   0  0  0  0  0  0  0  0  0  0  0  0
   37.5130   24.5500   40.0380 N   0  0  0  0  0  0  0  0  0  0  0  0
   37.5110   24.3120   41.3740 C   0  0  0  0  0  0  0  0  0  0  0  0
   37.2330   25.2750   42.2430 N   0  0  0  0  0  0  0  0  0  0  0  0
   37.2290   25.9870   38.4990 H   0  0  0  0  0  0  0  0  0  0  0  0
   37.7470   23.3010   41.6890 H   0  0  0  0  0  0  0  0  0  0  0  0
   36.5530   28.4500   39.9290 S   0  0  0  0  0  0  0  0  0  0  0  0
   35.0810   28.4210   38.8810 C   0  0  0  0  0  0  0  0  0  0  0  0
   34.7920   27.3680   38.6410 H   0  0  0  0  0  0  0  0  0  0  0  0
   34.2390   28.8370   39.4830 H   0  0  0  0  0  0  0  0  0  0  0  0
   35.3640   29.1950   37.6250 C   0  0  0  0  0  0  0  0  0  0  0  0
   34.4830   29.8170   37.3950 H   0  0  0  0  0  0  0  0  0  0  0  0
   35.5960   28.5630   36.7640 H   0  0  0  0  0  0  0  0  0  0  0  0
   36.4720   30.0670   37.8620 N   0  0  0  0  0  0  0  0  0  0  0  0
   37.3880   29.5930   37.9770 H   0  0  0  0  0  0  0  0  0  0  0  0
   36.2890   30.8190   38.5380 H   0  0  0  0  0  0  0  0  0  0  0  0
   37.7800   27.9860   43.6590 C   0  0  0  0  0  0  0  0  0  0  0  0
   37.3490   28.6000   44.4770 H   0  0  0  0  0  0  0  0  0  0  0  0
   38.1940   27.0770   44.1540 H   0  0  0  0  0  0  0  0  0  0  0  0
   38.8140   28.8040   42.9990 C   0  0  0  0  0  0  0  0  0  0  0  0
   40.0800   28.2270   42.6880 C   0  0  0  0  0  0  0  0  0  0  0  0
   40.9920   29.5980   41.9020 S   0  0  0  0  0  0  0  0  0  0  0  0
   39.4800   30.7540   42.1240 C   0  0  0  0  0  0  0  0  0  0  0  0
   38.7390   30.0560   42.6320 N   0  0  0  0  0  0  0  0  0  0  0  0
   40.4080   27.2180   42.8790 H   0  0  0  0  0  0  0  0  0  0  0  0
   39.4720   32.0820   41.7080 O   0  0  0  0  0  0  0  0  0  0  0  0
   38.7620   31.1750   39.3300 O   0  0  0  0  0  0  0  0  0  0  0  0
   38.7380   32.4260   40.2270 P   0  0  1  0  0  0  0  0  0  0  0  0
   37.1150   32.8550   40.5060 O   0  0  0  0  0  0  0  0  0  0  0  0
   36.9720   33.8310   40.5170 H   0  0  0  0  0  0  0  0  0  0  0  0
   39.5170   33.7350   39.4890 O   0  0  0  0  0  0  0  0  0  0  0  0
   40.8880   33.5450   39.5820 C   0  0  0  0  0  0  0  0  0  0  0  0
   41.1570   32.1860   39.4490 F   0  0  0  0  0  0  0  0  0  0  0  0
   41.3420   34.0120   40.8000 F   0  0  0  0  0  0  0  0  0  0  0  0
   41.5380   34.1610   38.5100 F   0  0  0  0  0  0  0  0  0  0  0  0
  1  3  1  0  0  0  0
  1 22  1  0  0  0  0
  2  1  1  0  0  0  0
  4  9  1  0  0  0  0
  4  1  1  0  0  0  0
  5  4  2  0  0  0  0
  6  7  2  0  0  0  0
  6  5  1  0  0  0  0
  7  8  1  0  0  0  0
  8 11  1  0  0  0  0
  8  9  2  0  0  0  0
 10  6  1  0  0  0  0
 12  5  1  0  0  0  0
 13 15  1  0  0  0  0
 13 12  1  0  0  0  0
 14 13  1  0  0  0  0
 16 19  1  0  0  0  0
 16 13  1  0  0  0  0
 17 16  1  0  0  0  0
 18 16  1  0  0  0  0
 19 20  1  0  0  0  0
 19 21  1  0  0  0  0
 22 24  1  0  0  0  0
 22 23  1  0  0  0  0
 25 22  1  0  0  0  0
 26 30  1  0  0  0  0
 26 25  2  0  0  0  0
 27 28  1  0  0  0  0
 27 26  1  0  0  0  0
 28 29  2  0  0  0  0
 29 25  1  0  0  0  0
 31 28  1  0  0  0  0
 33 32  2  6  0  0  0
 33 34  1  0  0  0  0
 33 31  1  0  0  0  0
 34 35  1  0  0  0  0
 36 37  1  0  0  0  0
 36 33  1  0  0  0  0
 37 39  1  0  0  0  0
 38 37  1  0  0  0  0
 40 37  1  0  0  0  0
M  END
>  <minimizedAffinity>
-4.74153042

$$$$
