
 OpenBabel03252508073D

 39 41  0  0  0  0  0  0  0  0999 V2000
   45.0740   35.3970   43.4260 C   0  0  0  0  0  0  0  0  0  0  0  0
   45.5190   34.0860   43.4800 C   0  0  0  0  0  0  0  0  0  0  0  0
   45.5050   33.4060   44.6720 C   0  0  0  0  0  0  0  0  0  0  0  0
   45.0330   34.0890   45.7770 N   0  0  0  0  0  0  0  0  0  0  0  0
   44.6070   35.3470   45.7180 C   0  0  0  0  0  0  0  0  0  0  0  0
   44.6330   35.9920   44.5330 N   0  0  0  0  0  0  0  0  0  0  0  0
   45.0840   35.9480   42.4750 H   0  0  0  0  0  0  0  0  0  0  0  0
   44.2400   35.8660   46.5960 H   0  0  0  0  0  0  0  0  0  0  0  0
   45.9230   32.0720   44.8950 C   0  0  0  0  0  0  0  0  0  0  0  0
   45.6330   31.0080   44.0350 C   0  0  0  0  0  0  0  0  0  0  0  0
   45.9780   29.7050   44.2790 C   0  0  0  0  0  0  0  0  0  0  0  0
   46.6530   29.3850   45.4340 C   0  0  0  0  0  0  0  0  0  0  0  0
   46.9580   30.4530   46.3220 C   0  0  0  0  0  0  0  0  0  0  0  0
   47.6260   30.1470   47.4790 C   0  0  0  0  0  0  0  0  0  0  0  0
   47.9540   31.1320   48.3860 C   0  0  0  0  0  0  0  0  0  0  0  0
   47.5970   32.4670   48.1140 C   0  0  0  0  0  0  0  0  0  0  0  0
   46.9130   32.7300   46.9140 C   0  0  0  0  0  0  0  0  0  0  0  0
   46.5980   31.7290   46.0360 C   0  0  0  0  0  0  0  0  0  0  0  0
   45.1060   31.2050   43.1160 H   0  0  0  0  0  0  0  0  0  0  0  0
   45.7390   28.9080   43.5940 H   0  0  0  0  0  0  0  0  0  0  0  0
   46.9530   28.3930   45.6950 H   0  0  0  0  0  0  0  0  0  0  0  0
   47.8980   29.1100   47.6790 H   0  0  0  0  0  0  0  0  0  0  0  0
   48.4840   30.8320   49.2900 H   0  0  0  0  0  0  0  0  0  0  0  0
   47.8960   33.1440   48.8720 H   0  0  0  0  0  0  0  0  0  0  0  0
   46.7530   33.7860   46.8770 H   0  0  0  0  0  0  0  0  0  0  0  0
   45.9560   33.5260   42.3130 O   0  0  0  0  0  0  0  0  0  0  0  0
   48.3260   32.4850   41.9160 O   0  0  0  0  0  0  0  0  0  0  0  0
   47.5170   33.7120   41.6810 P   0  0  1  0  0  0  0  0  0  0  0  0
   47.4650   33.9600   40.0080 O   0  0  0  0  0  0  0  0  0  0  0  0
   46.3410   33.3780   39.4340 C   0  0  0  0  0  0  0  0  0  0  0  0
   46.3560   32.0340   39.7880 F   0  0  0  0  0  0  0  0  0  0  0  0
   45.1720   33.9570   39.8730 F   0  0  0  0  0  0  0  0  0  0  0  0
   46.5020   33.4480   38.0630 F   0  0  0  0  0  0  0  0  0  0  0  0
   48.2220   35.0520   42.4030 O   0  0  0  0  0  0  0  0  0  0  0  0
   49.5120   35.5160   42.2060 C   0  0  0  0  0  0  0  0  0  0  0  0
   49.3800   36.5150   41.4770 O   0  0  0  0  0  0  0  0  0  0  0  0
   50.4680   34.6880   42.9020 N   0  0  0  0  0  0  0  0  0  0  0  0
   50.4830   34.7690   43.9540 H   0  0  0  0  0  0  0  0  0  0  0  0
   51.1680   33.9990   42.5080 H   0  0  0  0  0  0  0  0  0  0  0  0
  1  2  2  0  0  0  0
  1  6  1  0  0  0  0
  2  3  1  0  0  0  0
  3  9  1  0  0  0  0
  3  4  2  0  0  0  0
  5  4  1  0  0  0  0
  5  8  1  0  0  0  0
  6  5  2  0  0  0  0
  7  1  1  0  0  0  0
  9 18  1  0  0  0  0
 10 11  1  0  0  0  0
 10  9  2  0  0  0  0
 11 12  2  0  0  0  0
 12 21  1  0  0  0  0
 12 13  1  0  0  0  0
 13 14  1  0  0  0  0
 14 22  1  0  0  0  0
 14 15  2  0  0  0  0
 15 23  1  0  0  0  0
 16 15  1  0  0  0  0
 16 24  1  0  0  0  0
 17 16  2  0  0  0  0
 18 13  2  0  0  0  0
 18 17  1  0  0  0  0
 19 10  1  0  0  0  0
 20 11  1  0  0  0  0
 25 17  1  0  0  0  0
 26  2  1  0  0  0  0
 28 27  2  1  0  0  0
 28 26  1  0  0  0  0
 28 34  1  0  0  0  0
 29 28  1  0  0  0  0
 30 31  1  0  0  0  0
 30 32  1  0  0  0  0
 30 29  1  0  0  0  0
 33 30  1  0  0  0  0
 35 34  1  0  0  0  0
 35 37  1  0  0  0  0
 36 35  2  0  0  0  0
 37 38  1  0  0  0  0
 39 37  1  0  0  0  0
M  END
>  <minimizedAffinity>
-5.89189529

>  <minimizedRMSD>
1.00315964

$$$$
