
 OpenBabel03252507123D

 23 23  0  0  0  0  0  0  0  0999 V2000
   37.0440   30.8530   40.7200 C   0  0  0  0  0  0  0  0  0  0  0  0
   38.2830   30.2200   40.6600 C   0  0  0  0  0  0  0  0  0  0  0  0
   39.3820   30.9710   40.2410 C   0  0  0  0  0  0  0  0  0  0  0  0
   39.2030   32.2640   39.9160 N   0  0  0  0  0  0  0  0  0  0  0  0
   38.0110   32.8490   39.9810 C   0  0  0  0  0  0  0  0  0  0  0  0
   36.9240   32.1330   40.3880 N   0  0  0  0  0  0  0  0  0  0  0  0
   40.3020   30.4430   40.2120 H   0  0  0  0  0  0  0  0  0  0  0  0
   37.8990   33.8930   39.7120 H   0  0  0  0  0  0  0  0  0  0  0  0
   34.9310   29.6450   40.2400 C   0  0  0  0  0  0  0  0  0  0  0  0
   35.4020   29.0010   39.2640 O   0  0  0  0  0  0  0  0  0  0  0  0
   35.6710   30.6050   41.0520 N   0  0  0  0  0  0  0  0  0  0  0  0
   33.8790   29.4990   40.5330 H   0  0  0  0  0  0  0  0  0  0  0  0
   35.1830   31.0740   41.8390 H   0  0  0  0  0  0  0  0  0  0  0  0
   38.3080   28.8890   41.0250 O   0  0  0  0  0  0  0  0  0  0  0  0
   39.7690   28.8360   43.2170 O   0  0  0  0  0  0  0  0  0  0  0  0
   38.4160   28.4250   42.6800 P   0  0  1  0  0  0  0  0  0  0  0  0
   37.2520   29.2450   43.5650 O   0  0  0  0  0  0  0  0  0  0  0  0
   36.9530   28.7240   44.3500 H   0  0  0  0  0  0  0  0  0  0  0  0
   38.2170   26.7600   42.8570 O   0  0  0  0  0  0  0  0  0  0  0  0
   36.8480   26.5180   42.6280 C   0  0  0  0  0  0  0  0  0  0  0  0
   36.5290   27.1080   41.4310 F   0  0  0  0  0  0  0  0  0  0  0  0
   36.0980   27.0140   43.6780 F   0  0  0  0  0  0  0  0  0  0  0  0
   36.6880   25.1480   42.5430 F   0  0  0  0  0  0  0  0  0  0  0  0
  1 11  1  0  0  0  0
  2  1  1  0  0  0  0
  2 14  1  0  0  0  0
  3  2  2  0  0  0  0
  4  5  2  0  0  0  0
  4  3  1  0  0  0  0
  5  6  1  0  0  0  0
  6  1  2  0  0  0  0
  7  3  1  0  0  0  0
  8  5  1  0  0  0  0
  9 12  1  0  0  0  0
  9 11  1  0  0  0  0
 10  9  2  0  0  0  0
 11 13  1  0  0  0  0
 14 16  1  0  0  0  0
 16 19  1  0  0  0  0
 16 15  2  1  0  0  0
 16 17  1  0  0  0  0
 17 18  1  0  0  0  0
 20 19  1  0  0  0  0
 20 22  1  0  0  0  0
 21 20  1  0  0  0  0
 23 20  1  0  0  0  0
M  END
>  <minimizedAffinity>
-4.99622011

$$$$

 OpenBabel03252507123D

 23 23  0  0  0  0  0  0  0  0999 V2000
   37.1130   31.9330   39.6390 C   0  0  0  0  0  0  0  0  0  0  0  0
   36.7490   30.6160   39.9090 C   0  0  0  0  0  0  0  0  0  0  0  0
   36.7070   29.7160   38.8430 C   0  0  0  0  0  0  0  0  0  0  0  0
   37.0180   30.1510   37.6090 N   0  0  0  0  0  0  0  0  0  0  0  0
   37.3650   31.4140   37.3730 C   0  0  0  0  0  0  0  0  0  0  0  0
   37.4110   32.3090   38.4010 N   0  0  0  0  0  0  0  0  0  0  0  0
   36.4240   28.7260   39.1020 H   0  0  0  0  0  0  0  0  0  0  0  0
   37.6090   31.7340   36.3680 H   0  0  0  0  0  0  0  0  0  0  0  0
   38.6630   33.5420   40.7170 C   0  0  0  0  0  0  0  0  0  0  0  0
   39.6830   32.8170   40.5640 O   0  0  0  0  0  0  0  0  0  0  0  0
   37.3130   33.1970   40.2840 N   0  0  0  0  0  0  0  0  0  0  0  0
   38.7590   34.5200   41.2140 H   0  0  0  0  0  0  0  0  0  0  0  0
   36.5460   33.8750   40.4560 H   0  0  0  0  0  0  0  0  0  0  0  0
   36.4570   30.3200   41.2260 O   0  0  0  0  0  0  0  0  0  0  0  0
   38.7790   30.2750   42.4710 O   0  0  0  0  0  0  0  0  0  0  0  0
   37.5600   29.4230   42.1980 P   0  0  1  0  0  0  0  0  0  0  0  0
   36.8460   29.0770   43.6750 O   0  0  0  0  0  0  0  0  0  0  0  0
   37.1880   28.2330   44.0590 H   0  0  0  0  0  0  0  0  0  0  0  0
   38.0250   27.9970   41.4270 O   0  0  0  0  0  0  0  0  0  0  0  0
   36.9520   27.1020   41.6110 C   0  0  0  0  0  0  0  0  0  0  0  0
   37.0730   26.1270   40.6530 F   0  0  0  0  0  0  0  0  0  0  0  0
   35.7500   27.7800   41.5270 F   0  0  0  0  0  0  0  0  0  0  0  0
   37.0950   26.5530   42.8710 F   0  0  0  0  0  0  0  0  0  0  0  0
  1  2  1  0  0  0  0
  1 11  1  0  0  0  0
  2 14  1  0  0  0  0
  3  7  1  0  0  0  0
  3  2  2  0  0  0  0
  4  3  1  0  0  0  0
  5  4  2  0  0  0  0
  5  6  1  0  0  0  0
  6  1  2  0  0  0  0
  8  5  1  0  0  0  0
  9 12  1  0  0  0  0
 10  9  2  0  0  0  0
 11 13  1  0  0  0  0
 11  9  1  0  0  0  0
 14 16  1  0  0  0  0
 16 15  2  1  0  0  0
 16 17  1  0  0  0  0
 17 18  1  0  0  0  0
 19 20  1  0  0  0  0
 19 16  1  0  0  0  0
 20 23  1  0  0  0  0
 21 20  1  0  0  0  0
 22 20  1  0  0  0  0
M  END
>  <minimizedAffinity>
-4.87754011

$$$$

 OpenBabel03252507123D

 23 23  0  0  0  0  0  0  0  0999 V2000
   38.3880   31.2610   38.5020 C   0  0  0  0  0  0  0  0  0  0  0  0
   38.3420   29.9710   39.0240 C   0  0  0  0  0  0  0  0  0  0  0  0
   39.5120   29.2110   38.9980 C   0  0  0  0  0  0  0  0  0  0  0  0
   40.6290   29.7510   38.4770 N   0  0  0  0  0  0  0  0  0  0  0  0
   40.6510   30.9860   37.9840 C   0  0  0  0  0  0  0  0  0  0  0  0
   39.5180   31.7450   37.9990 N   0  0  0  0  0  0  0  0  0  0  0  0
   39.4240   28.2360   39.4070 H   0  0  0  0  0  0  0  0  0  0  0  0
   41.5660   31.3920   37.5700 H   0  0  0  0  0  0  0  0  0  0  0  0
   37.3370   33.3230   39.3940 C   0  0  0  0  0  0  0  0  0  0  0  0
   37.8170   33.1890   40.5520 O   0  0  0  0  0  0  0  0  0  0  0  0
   37.5630   32.4120   38.2780 N   0  0  0  0  0  0  0  0  0  0  0  0
   36.6900   34.1860   39.1700 H   0  0  0  0  0  0  0  0  0  0  0  0
   37.1220   32.6250   37.3640 H   0  0  0  0  0  0  0  0  0  0  0  0
   37.1230   29.5570   39.5250 O   0  0  0  0  0  0  0  0  0  0  0  0
   37.9830   30.1400   41.9460 O   0  0  0  0  0  0  0  0  0  0  0  0
   36.7280   29.7730   41.1870 P   0  0  1  0  0  0  0  0  0  0  0  0
   35.6540   31.0510   41.3420 O   0  0  0  0  0  0  0  0  0  0  0  0
   35.0580   30.9370   42.1220 H   0  0  0  0  0  0  0  0  0  0  0  0
   36.0610   28.3680   41.8380 O   0  0  0  0  0  0  0  0  0  0  0  0
   37.1210   27.7230   42.5060 C   0  0  0  0  0  0  0  0  0  0  0  0
   37.3860   28.4520   43.6380 F   0  0  0  0  0  0  0  0  0  0  0  0
   38.2180   27.6260   41.6700 F   0  0  0  0  0  0  0  0  0  0  0  0
   36.6750   26.4590   42.8460 F   0  0  0  0  0  0  0  0  0  0  0  0
  1  2  1  0  0  0  0
  2 14  1  0  0  0  0
  3  2  2  0  0  0  0
  3  7  1  0  0  0  0
  4  3  1  0  0  0  0
  5  6  1  0  0  0  0
  5  4  2  0  0  0  0
  6  1  2  0  0  0  0
  8  5  1  0  0  0  0
  9 10  2  0  0  0  0
 11  1  1  0  0  0  0
 11  9  1  0  0  0  0
 12  9  1  0  0  0  0
 13 11  1  0  0  0  0
 14 16  1  0  0  0  0
 16 17  1  0  0  0  0
 16 19  1  0  0  0  0
 16 15  2  1  0  0  0
 17 18  1  0  0  0  0
 19 20  1  0  0  0  0
 20 23  1  0  0  0  0
 20 21  1  0  0  0  0
 22 20  1  0  0  0  0
M  END
>  <minimizedAffinity>
-4.66061211

$$$$

 OpenBabel03252507123D

 23 23  0  0  0  0  0  0  0  0999 V2000
   36.8610   30.7810   41.0330 C   0  0  0  0  0  0  0  0  0  0  0  0
   38.1470   30.4530   41.4530 C   0  0  0  0  0  0  0  0  0  0  0  0
   39.1770   31.3530   41.1760 C   0  0  0  0  0  0  0  0  0  0  0  0
   38.8890   32.4920   40.5210 N   0  0  0  0  0  0  0  0  0  0  0  0
   37.6530   32.7870   40.1290 C   0  0  0  0  0  0  0  0  0  0  0  0
   36.6320   31.9200   40.3900 N   0  0  0  0  0  0  0  0  0  0  0  0
   40.1370   31.0560   41.5160 H   0  0  0  0  0  0  0  0  0  0  0  0
   37.4530   33.7120   39.6030 H   0  0  0  0  0  0  0  0  0  0  0  0
   35.1470   29.2910   40.0350 C   0  0  0  0  0  0  0  0  0  0  0  0
   35.9200   28.8220   39.1560 O   0  0  0  0  0  0  0  0  0  0  0  0
   35.5170   30.2830   41.0390 N   0  0  0  0  0  0  0  0  0  0  0  0
   34.1010   28.9490   40.0790 H   0  0  0  0  0  0  0  0  0  0  0  0
   34.7980   30.5940   41.7200 H   0  0  0  0  0  0  0  0  0  0  0  0
   38.2860   29.2480   42.1140 O   0  0  0  0  0  0  0  0  0  0  0  0
   39.1170   28.1940   39.8470 O   0  0  0  0  0  0  0  0  0  0  0  0
   38.7790   27.8280   41.2750 P   0  0  1  0  0  0  0  0  0  0  0  0
   40.1720   27.2190   41.9810 O   0  0  0  0  0  0  0  0  0  0  0  0
   40.2350   26.2370   41.8820 H   0  0  0  0  0  0  0  0  0  0  0  0
   37.5600   26.6630   41.2880 O   0  0  0  0  0  0  0  0  0  0  0  0
   37.0900   26.6250   42.6170 C   0  0  0  0  0  0  0  0  0  0  0  0
   36.1510   27.6190   42.7390 F   0  0  0  0  0  0  0  0  0  0  0  0
   38.1440   26.7830   43.4970 F   0  0  0  0  0  0  0  0  0  0  0  0
   36.5020   25.3880   42.8030 F   0  0  0  0  0  0  0  0  0  0  0  0
  1 11  1  0  0  0  0
  1  2  1  0  0  0  0
  2 14  1  0  0  0  0
  3  2  2  0  0  0  0
  3  7  1  0  0  0  0
  4  3  1  0  0  0  0
  5  6  1  0  0  0  0
  5  4  2  0  0  0  0
  6  1  2  0  0  0  0
  8  5  1  0  0  0  0
  9 12  1  0  0  0  0
  9 11  1  0  0  0  0
 10  9  2  0  0  0  0
 11 13  1  0  0  0  0
 16 15  2  6  0  0  0
 16 19  1  0  0  0  0
 16 17  1  0  0  0  0
 16 14  1  0  0  0  0
 18 17  1  0  0  0  0
 19 20  1  0  0  0  0
 20 21  1  0  0  0  0
 20 23  1  0  0  0  0
 20 22  1  0  0  0  0
M  END
>  <minimizedAffinity>
-4.53629017

$$$$

 OpenBabel03252507123D

 23 23  0  0  0  0  0  0  0  0999 V2000
   38.0590   26.8800   41.3760 C   0  0  0  0  0  0  0  0  0  0  0  0
   37.5760   27.9660   42.1020 C   0  0  0  0  0  0  0  0  0  0  0  0
   38.4400   28.5850   43.0070 C   0  0  0  0  0  0  0  0  0  0  0  0
   39.6930   28.1130   43.1400 N   0  0  0  0  0  0  0  0  0  0  0  0
   40.1340   27.0740   42.4360 C   0  0  0  0  0  0  0  0  0  0  0  0
   39.3050   26.4550   41.5470 N   0  0  0  0  0  0  0  0  0  0  0  0
   38.0250   29.4070   43.5350 H   0  0  0  0  0  0  0  0  0  0  0  0
   41.1480   26.7170   42.5670 H   0  0  0  0  0  0  0  0  0  0  0  0
   36.9300   24.7420   40.8220 C   0  0  0  0  0  0  0  0  0  0  0  0
   36.6100   24.4840   42.0140 O   0  0  0  0  0  0  0  0  0  0  0  0
   37.6590   25.9270   40.3830 N   0  0  0  0  0  0  0  0  0  0  0  0
   36.6540   24.0380   40.0210 H   0  0  0  0  0  0  0  0  0  0  0  0
   37.8630   26.0400   39.3720 H   0  0  0  0  0  0  0  0  0  0  0  0
   36.2690   28.3340   41.8560 O   0  0  0  0  0  0  0  0  0  0  0  0
   34.6090   29.1140   39.9640 O   0  0  0  0  0  0  0  0  0  0  0  0
   35.8900   29.5150   40.6610 P   0  0  1  0  0  0  0  0  0  0  0  0
   35.6170   30.9920   41.4060 O   0  0  0  0  0  0  0  0  0  0  0  0
   35.8550   31.7500   40.8160 H   0  0  0  0  0  0  0  0  0  0  0  0
   37.1320   29.6530   39.5300 O   0  0  0  0  0  0  0  0  0  0  0  0
   37.5960   30.9790   39.6380 C   0  0  0  0  0  0  0  0  0  0  0  0
   37.9990   31.1600   40.9380 F   0  0  0  0  0  0  0  0  0  0  0  0
   36.5970   31.8610   39.2670 F   0  0  0  0  0  0  0  0  0  0  0  0
   38.6740   31.1020   38.7830 F   0  0  0  0  0  0  0  0  0  0  0  0
  1  6  2  0  0  0  0
  1  2  1  0  0  0  0
  2  3  2  0  0  0  0
  3  4  1  0  0  0  0
  3  7  1  0  0  0  0
  5  8  1  0  0  0  0
  5  4  2  0  0  0  0
  6  5  1  0  0  0  0
  9 10  2  0  0  0  0
 11  9  1  0  0  0  0
 11  1  1  0  0  0  0
 12  9  1  0  0  0  0
 13 11  1  0  0  0  0
 14  2  1  0  0  0  0
 16 15  2  6  0  0  0
 16 17  1  0  0  0  0
 16 14  1  0  0  0  0
 18 17  1  0  0  0  0
 19 20  1  0  0  0  0
 19 16  1  0  0  0  0
 20 21  1  0  0  0  0
 22 20  1  0  0  0  0
 23 20  1  0  0  0  0
M  END
>  <minimizedAffinity>
-4.47849703

$$$$

 OpenBabel03252507123D

 23 23  0  0  0  0  0  0  0  0999 V2000
   36.8460   29.1220   41.9100 C   0  0  0  0  0  0  0  0  0  0  0  0
   38.1040   29.7030   42.0440 C   0  0  0  0  0  0  0  0  0  0  0  0
   39.1140   28.9480   42.6410 C   0  0  0  0  0  0  0  0  0  0  0  0
   38.8360   27.7000   43.0580 N   0  0  0  0  0  0  0  0  0  0  0  0
   37.6270   27.1630   42.9190 C   0  0  0  0  0  0  0  0  0  0  0  0
   36.6260   27.8840   42.3390 N   0  0  0  0  0  0  0  0  0  0  0  0
   40.0530   29.4360   42.7200 H   0  0  0  0  0  0  0  0  0  0  0  0
   37.4350   26.1540   43.2660 H   0  0  0  0  0  0  0  0  0  0  0  0
   35.2610   29.1540   40.0020 C   0  0  0  0  0  0  0  0  0  0  0  0
   36.0960   28.7100   39.1690 O   0  0  0  0  0  0  0  0  0  0  0  0
   35.5290   29.3970   41.4150 N   0  0  0  0  0  0  0  0  0  0  0  0
   34.2360   29.3900   39.6730 H   0  0  0  0  0  0  0  0  0  0  0  0
   34.7610   29.7580   42.0130 H   0  0  0  0  0  0  0  0  0  0  0  0
   38.2350   30.9920   41.5680 O   0  0  0  0  0  0  0  0  0  0  0  0
   40.5010   31.1480   40.2320 O   0  0  0  0  0  0  0  0  0  0  0  0
   39.0070   31.3070   40.0610 P   0  0  1  0  0  0  0  0  0  0  0  0
   38.5050   30.1730   38.9320 O   0  0  0  0  0  0  0  0  0  0  0  0
   38.5180   30.5400   38.0140 H   0  0  0  0  0  0  0  0  0  0  0  0
   38.6610   32.8640   39.5170 O   0  0  0  0  0  0  0  0  0  0  0  0
   37.2890   32.8550   39.1940 C   0  0  0  0  0  0  0  0  0  0  0  0
   36.8680   34.1610   39.1880 F   0  0  0  0  0  0  0  0  0  0  0  0
   36.5940   32.0790   40.1030 F   0  0  0  0  0  0  0  0  0  0  0  0
   37.1750   32.3110   37.9280 F   0  0  0  0  0  0  0  0  0  0  0  0
  1  2  2  0  0  0  0
  1  6  1  0  0  0  0
  2  3  1  0  0  0  0
  3  7  1  0  0  0  0
  3  4  2  0  0  0  0
  5  4  1  0  0  0  0
  5  8  1  0  0  0  0
  6  5  2  0  0  0  0
  9 11  1  0  0  0  0
 10  9  2  0  0  0  0
 11  1  1  0  0  0  0
 11 13  1  0  0  0  0
 12  9  1  0  0  0  0
 14  2  1  0  0  0  0
 16 15  2  1  0  0  0
 16 14  1  0  0  0  0
 17 16  1  0  0  0  0
 18 17  1  0  0  0  0
 19 16  1  0  0  0  0
 20 19  1  0  0  0  0
 20 22  1  0  0  0  0
 21 20  1  0  0  0  0
 23 20  1  0  0  0  0
M  END
>  <minimizedAffinity>
-4.41333008

$$$$

 OpenBabel03252507123D

 23 23  0  0  0  0  0  0  0  0999 V2000
   38.1020   26.9290   42.0220 C   0  0  0  0  0  0  0  0  0  0  0  0
   36.9610   27.1610   41.2590 C   0  0  0  0  0  0  0  0  0  0  0  0
   36.6920   26.2920   40.2010 C   0  0  0  0  0  0  0  0  0  0  0  0
   37.5380   25.2740   39.9620 N   0  0  0  0  0  0  0  0  0  0  0  0
   38.6230   25.0700   40.7040 C   0  0  0  0  0  0  0  0  0  0  0  0
   38.9040   25.9080   41.7420 N   0  0  0  0  0  0  0  0  0  0  0  0
   35.8110   26.5120   39.6510 H   0  0  0  0  0  0  0  0  0  0  0  0
   39.2860   24.2410   40.4860 H   0  0  0  0  0  0  0  0  0  0  0  0
   39.6050   28.6690   42.9530 C   0  0  0  0  0  0  0  0  0  0  0  0
   39.6880   29.3190   41.8750 O   0  0  0  0  0  0  0  0  0  0  0  0
   38.8280   27.4500   43.1430 N   0  0  0  0  0  0  0  0  0  0  0  0
   40.1500   29.0210   43.8430 H   0  0  0  0  0  0  0  0  0  0  0  0
   38.8260   27.0010   44.0790 H   0  0  0  0  0  0  0  0  0  0  0  0
   36.1900   28.2460   41.6260 O   0  0  0  0  0  0  0  0  0  0  0  0
   34.6890   29.2750   39.7210 O   0  0  0  0  0  0  0  0  0  0  0  0
   35.9290   29.5570   40.5400 P   0  0  1  0  0  0  0  0  0  0  0  0
   35.6450   30.9580   41.4170 O   0  0  0  0  0  0  0  0  0  0  0  0
   35.9440   31.7630   40.9280 H   0  0  0  0  0  0  0  0  0  0  0  0
   37.2510   29.7670   39.5160 O   0  0  0  0  0  0  0  0  0  0  0  0
   36.8270   30.6890   38.5370 C   0  0  0  0  0  0  0  0  0  0  0  0
   36.4770   31.8420   39.1950 F   0  0  0  0  0  0  0  0  0  0  0  0
   35.7790   30.1570   37.8090 F   0  0  0  0  0  0  0  0  0  0  0  0
   37.9070   30.9230   37.7070 F   0  0  0  0  0  0  0  0  0  0  0  0
  1 11  1  0  0  0  0
  2 14  1  0  0  0  0
  2  1  2  0  0  0  0
  3  2  1  0  0  0  0
  4  3  2  0  0  0  0
  4  5  1  0  0  0  0
  5  6  2  0  0  0  0
  6  1  1  0  0  0  0
  7  3  1  0  0  0  0
  8  5  1  0  0  0  0
  9 11  1  0  0  0  0
  9 12  1  0  0  0  0
 10  9  2  0  0  0  0
 11 13  1  0  0  0  0
 16 15  2  6  0  0  0
 16 17  1  0  0  0  0
 16 14  1  0  0  0  0
 18 17  1  0  0  0  0
 19 16  1  0  0  0  0
 20 21  1  0  0  0  0
 20 19  1  0  0  0  0
 22 20  1  0  0  0  0
 23 20  1  0  0  0  0
M  END
>  <minimizedAffinity>
-4.37358809

$$$$

 OpenBabel03252507123D

 23 23  0  0  0  0  0  0  0  0999 V2000
   37.2360   28.4140   40.8950 C   0  0  0  0  0  0  0  0  0  0  0  0
   38.0040   29.4050   41.5000 C   0  0  0  0  0  0  0  0  0  0  0  0
   38.2710   29.2840   42.8650 C   0  0  0  0  0  0  0  0  0  0  0  0
   37.7810   28.2250   43.5350 N   0  0  0  0  0  0  0  0  0  0  0  0
   37.0500   27.2890   42.9360 C   0  0  0  0  0  0  0  0  0  0  0  0
   36.7770   27.3890   41.6040 N   0  0  0  0  0  0  0  0  0  0  0  0
   38.8600   30.0640   43.2780 H   0  0  0  0  0  0  0  0  0  0  0  0
   36.6690   26.4480   43.5030 H   0  0  0  0  0  0  0  0  0  0  0  0
   35.3200   28.4510   39.3200 C   0  0  0  0  0  0  0  0  0  0  0  0
   34.5750   29.1250   40.0830 O   0  0  0  0  0  0  0  0  0  0  0  0
   36.6850   28.0390   39.6250 N   0  0  0  0  0  0  0  0  0  0  0  0
   34.9430   28.1300   38.3360 H   0  0  0  0  0  0  0  0  0  0  0  0
   37.2100   27.4910   38.9180 H   0  0  0  0  0  0  0  0  0  0  0  0
   38.4350   30.4300   40.6820 O   0  0  0  0  0  0  0  0  0  0  0  0
   36.9150   31.3160   38.7210 O   0  0  0  0  0  0  0  0  0  0  0  0
   37.3450   31.6450   40.1330 P   0  0  1  0  0  0  0  0  0  0  0  0
   35.9710   31.6350   41.0940 O   0  0  0  0  0  0  0  0  0  0  0  0
   35.5570   32.5310   41.1510 H   0  0  0  0  0  0  0  0  0  0  0  0
   38.0690   33.1670   40.1660 O   0  0  0  0  0  0  0  0  0  0  0  0
   39.4400   32.9380   39.9310 C   0  0  0  0  0  0  0  0  0  0  0  0
   39.5270   32.0970   38.8500 F   0  0  0  0  0  0  0  0  0  0  0  0
   40.0320   32.4070   41.0620 F   0  0  0  0  0  0  0  0  0  0  0  0
   40.0090   34.1610   39.6310 F   0  0  0  0  0  0  0  0  0  0  0  0
  1  2  2  0  0  0  0
  1  6  1  0  0  0  0
  2  3  1  0  0  0  0
  3  7  1  0  0  0  0
  3  4  2  0  0  0  0
  5  8  1  0  0  0  0
  5  4  1  0  0  0  0
  6  5  2  0  0  0  0
  9 11  1  0  0  0  0
  9 10  2  0  0  0  0
 11  1  1  0  0  0  0
 12  9  1  0  0  0  0
 13 11  1  0  0  0  0
 14  2  1  0  0  0  0
 16 15  2  6  0  0  0
 16 19  1  0  0  0  0
 16 14  1  0  0  0  0
 16 17  1  0  0  0  0
 17 18  1  0  0  0  0
 20 19  1  0  0  0  0
 20 22  1  0  0  0  0
 21 20  1  0  0  0  0
 23 20  1  0  0  0  0
M  END
>  <minimizedAffinity>
-4.36321783

$$$$

 OpenBabel03252507123D

 23 23  0  0  0  0  0  0  0  0999 V2000
   37.5410   30.5230   39.7230 C   0  0  0  0  0  0  0  0  0  0  0  0
   38.4800   30.7780   40.7190 C   0  0  0  0  0  0  0  0  0  0  0  0
   38.7560   32.1090   41.0340 C   0  0  0  0  0  0  0  0  0  0  0  0
   38.1100   33.0850   40.3700 N   0  0  0  0  0  0  0  0  0  0  0  0
   37.2160   32.8190   39.4220 C   0  0  0  0  0  0  0  0  0  0  0  0
   36.9320   31.5250   39.0980 N   0  0  0  0  0  0  0  0  0  0  0  0
   39.4780   32.2490   41.7990 H   0  0  0  0  0  0  0  0  0  0  0  0
   36.7130   33.6270   38.9040 H   0  0  0  0  0  0  0  0  0  0  0  0
   37.6600   28.7470   37.9950 C   0  0  0  0  0  0  0  0  0  0  0  0
   38.8450   29.0140   37.6570 O   0  0  0  0  0  0  0  0  0  0  0  0
   36.9030   29.4420   39.0310 N   0  0  0  0  0  0  0  0  0  0  0  0
   37.1210   27.9310   37.4900 H   0  0  0  0  0  0  0  0  0  0  0  0
   35.9330   29.1320   39.2310 H   0  0  0  0  0  0  0  0  0  0  0  0
   39.0590   29.6730   41.3100 O   0  0  0  0  0  0  0  0  0  0  0  0
   39.0400   28.0750   43.4050 O   0  0  0  0  0  0  0  0  0  0  0  0
   38.1400   28.6240   42.3200 P   0  0  1  0  0  0  0  0  0  0  0  0
   36.9220   29.4990   43.0700 O   0  0  0  0  0  0  0  0  0  0  0  0
   36.1320   28.9380   43.2610 H   0  0  0  0  0  0  0  0  0  0  0  0
   37.4810   27.3510   41.4320 O   0  0  0  0  0  0  0  0  0  0  0  0
   37.2490   26.3210   42.3650 C   0  0  0  0  0  0  0  0  0  0  0  0
   36.4110   26.8290   43.3260 F   0  0  0  0  0  0  0  0  0  0  0  0
   38.4490   25.8790   42.8910 F   0  0  0  0  0  0  0  0  0  0  0  0
   36.6260   25.2920   41.6850 F   0  0  0  0  0  0  0  0  0  0  0  0
  1  2  1  0  0  0  0
  2  3  2  0  0  0  0
  2 14  1  0  0  0  0
  3  7  1  0  0  0  0
  4  3  1  0  0  0  0
  5  4  2  0  0  0  0
  6  5  1  0  0  0  0
  6  1  2  0  0  0  0
  8  5  1  0  0  0  0
  9 11  1  0  0  0  0
 10  9  2  0  0  0  0
 11 13  1  0  0  0  0
 11  1  1  0  0  0  0
 12  9  1  0  0  0  0
 14 16  1  0  0  0  0
 16 17  1  0  0  0  0
 16 15  2  1  0  0  0
 17 18  1  0  0  0  0
 19 16  1  0  0  0  0
 19 20  1  0  0  0  0
 20 22  1  0  0  0  0
 20 21  1  0  0  0  0
 23 20  1  0  0  0  0
M  END
>  <minimizedAffinity>
-4.34580946

$$$$
