
 OpenBabel03252508063D

 39 41  0  0  0  0  0  0  0  0999 V2000
   45.3100   36.1510   42.7640 C   0  0  0  0  0  0  0  0  0  0  0  0
   45.5050   34.7800   42.7480 C   0  0  0  0  0  0  0  0  0  0  0  0
   45.2390   34.0360   43.8710 C   0  0  0  0  0  0  0  0  0  0  0  0
   44.7780   34.7210   44.9800 N   0  0  0  0  0  0  0  0  0  0  0  0
   44.5930   36.0370   44.9880 C   0  0  0  0  0  0  0  0  0  0  0  0
   44.8640   36.7430   43.8700 N   0  0  0  0  0  0  0  0  0  0  0  0
   45.5220   36.7530   41.8690 H   0  0  0  0  0  0  0  0  0  0  0  0
   44.2300   36.5560   45.8680 H   0  0  0  0  0  0  0  0  0  0  0  0
   45.3850   32.6360   44.0180 C   0  0  0  0  0  0  0  0  0  0  0  0
   44.8660   31.6980   43.1200 C   0  0  0  0  0  0  0  0  0  0  0  0
   44.9470   30.3410   43.2930 C   0  0  0  0  0  0  0  0  0  0  0  0
   45.5720   29.8330   44.4090 C   0  0  0  0  0  0  0  0  0  0  0  0
   46.1070   30.7710   45.3330 C   0  0  0  0  0  0  0  0  0  0  0  0
   46.7270   30.2790   46.4520 C   0  0  0  0  0  0  0  0  0  0  0  0
   47.2680   31.1310   47.3920 C   0  0  0  0  0  0  0  0  0  0  0  0
   47.1810   32.5210   47.1930 C   0  0  0  0  0  0  0  0  0  0  0  0
   46.5350   32.9780   46.0300 C   0  0  0  0  0  0  0  0  0  0  0  0
   46.0050   32.1070   45.1190 C   0  0  0  0  0  0  0  0  0  0  0  0
   44.3680   32.0430   42.2300 H   0  0  0  0  0  0  0  0  0  0  0  0
   44.5360   29.6450   42.5800 H   0  0  0  0  0  0  0  0  0  0  0  0
   45.6720   28.7890   44.6140 H   0  0  0  0  0  0  0  0  0  0  0  0
   46.7900   29.1990   46.5950 H   0  0  0  0  0  0  0  0  0  0  0  0
   47.7480   30.6840   48.2630 H   0  0  0  0  0  0  0  0  0  0  0  0
   47.6290   33.0850   47.9710 H   0  0  0  0  0  0  0  0  0  0  0  0
   46.5900   34.0450   46.0480 H   0  0  0  0  0  0  0  0  0  0  0  0
   45.9610   34.2260   41.5850 O   0  0  0  0  0  0  0  0  0  0  0  0
   47.8440   32.4780   41.0830 O   0  0  0  0  0  0  0  0  0  0  0  0
   47.5920   33.9380   41.2300 P   0  0  1  0  0  0  0  0  0  0  0  0
   48.0310   34.6680   39.7680 O   0  0  0  0  0  0  0  0  0  0  0  0
   47.7640   33.8450   38.6800 C   0  0  0  0  0  0  0  0  0  0  0  0
   46.4880   33.3270   38.8680 F   0  0  0  0  0  0  0  0  0  0  0  0
   47.8130   34.5260   37.4860 F   0  0  0  0  0  0  0  0  0  0  0  0
   48.6540   32.7890   38.7430 F   0  0  0  0  0  0  0  0  0  0  0  0
   48.5230   34.5940   42.4610 O   0  0  0  0  0  0  0  0  0  0  0  0
   49.7270   35.2650   42.3220 C   0  0  0  0  0  0  0  0  0  0  0  0
   49.4140   36.3880   41.8910 O   0  0  0  0  0  0  0  0  0  0  0  0
   50.8320   34.4250   42.7190 N   0  0  0  0  0  0  0  0  0  0  0  0
   50.9320   34.2360   43.7530 H   0  0  0  0  0  0  0  0  0  0  0  0
   51.5690   33.9610   42.1180 H   0  0  0  0  0  0  0  0  0  0  0  0
  1  6  1  0  0  0  0
  2  1  2  0  0  0  0
  2  3  1  0  0  0  0
  3  9  1  0  0  0  0
  3  4  2  0  0  0  0
  4  5  1  0  0  0  0
  5  8  1  0  0  0  0
  6  5  2  0  0  0  0
  7  1  1  0  0  0  0
  9 18  1  0  0  0  0
 10 11  1  0  0  0  0
 10  9  2  0  0  0  0
 11 12  2  0  0  0  0
 12 21  1  0  0  0  0
 12 13  1  0  0  0  0
 13 14  1  0  0  0  0
 14 22  1  0  0  0  0
 14 15  2  0  0  0  0
 15 23  1  0  0  0  0
 16 15  1  0  0  0  0
 16 24  1  0  0  0  0
 17 25  1  0  0  0  0
 17 16  2  0  0  0  0
 18 13  2  0  0  0  0
 18 17  1  0  0  0  0
 19 10  1  0  0  0  0
 20 11  1  0  0  0  0
 26  2  1  0  0  0  0
 28 27  2  6  0  0  0
 28 26  1  0  0  0  0
 28 34  1  0  0  0  0
 29 28  1  0  0  0  0
 30 33  1  0  0  0  0
 30 31  1  0  0  0  0
 30 29  1  0  0  0  0
 32 30  1  0  0  0  0
 35 34  1  0  0  0  0
 35 37  1  0  0  0  0
 36 35  2  0  0  0  0
 37 38  1  0  0  0  0
 39 37  1  0  0  0  0
M  END
>  <minimizedAffinity>
-5.87251902

>  <minimizedRMSD>
0.447939992

$$$$
