
 OpenBabel03252509313D

 22 22  0  0  0  0  0  0  0  0999 V2000
   46.6530   33.1110   42.1140 C   0  0  0  0  0  0  0  0  0  0  0  0
   46.1090   33.7630   42.8320 H   0  0  0  0  0  0  0  0  0  0  0  0
   46.3140   33.3990   41.1070 H   0  0  0  0  0  0  0  0  0  0  0  0
   50.3700   32.8010   42.2610 C   0  0  0  0  0  0  0  0  0  0  0  0
   49.0110   32.4540   42.1460 C   0  0  0  0  0  0  0  0  0  0  0  0
   48.0750   33.4590   42.2330 C   0  0  0  0  0  0  0  0  0  0  0  0
   48.4900   34.7600   42.4280 N   0  0  0  0  0  0  0  0  0  0  0  0
   49.8190   35.0580   42.5360 C   0  0  0  0  0  0  0  0  0  0  0  0
   50.7260   34.0880   42.4520 N   0  0  0  0  0  0  0  0  0  0  0  0
   51.1590   32.0770   42.2030 H   0  0  0  0  0  0  0  0  0  0  0  0
   48.7950   31.4220   41.9970 H   0  0  0  0  0  0  0  0  0  0  0  0
   50.0010   36.1180   42.6870 H   0  0  0  0  0  0  0  0  0  0  0  0
   46.4300   31.7720   42.4290 O   0  0  0  0  0  0  0  0  0  0  0  0
   45.2020   30.3710   44.2610 O   0  0  0  0  0  0  0  0  0  0  0  0
   45.2690   31.7500   43.6590 P   0  0  2  0  0  0  0  0  0  0  0  0
   43.8040   32.2280   42.9520 O   0  0  0  0  0  0  0  0  0  0  0  0
   43.0740   31.5700   43.1140 H   0  0  0  0  0  0  0  0  0  0  0  0
   45.7230   32.8420   44.8500 O   0  0  0  0  0  0  0  0  0  0  0  0
   46.5230   32.2200   45.8190 C   0  0  0  0  0  0  0  0  0  0  0  0
   47.0410   33.1970   46.6490 F   0  0  0  0  0  0  0  0  0  0  0  0
   47.5760   31.5520   45.1840 F   0  0  0  0  0  0  0  0  0  0  0  0
   45.7940   31.3070   46.5250 F   0  0  0  0  0  0  0  0  0  0  0  0
  1  6  1  0  0  0  0
  1 13  1  0  0  0  0
  1  2  1  0  0  0  0
  3  1  1  0  0  0  0
  4  9  1  0  0  0  0
  5  6  1  0  0  0  0
  5  4  2  0  0  0  0
  6  7  2  0  0  0  0
  7  8  1  0  0  0  0
  8 12  1  0  0  0  0
  9  8  2  0  0  0  0
 10  4  1  0  0  0  0
 11  5  1  0  0  0  0
 13 15  1  0  0  0  0
 15 14  2  1  0  0  0
 15 18  1  0  0  0  0
 16 17  1  0  0  0  0
 16 15  1  0  0  0  0
 18 19  1  0  0  0  0
 19 22  1  0  0  0  0
 19 20  1  0  0  0  0
 21 19  1  0  0  0  0
M  END
>  <minimizedAffinity>
-3.35188365

>  <minimizedRMSD>
5.99165773

$$$$
