
 OpenBabel03252505003D

 32 33  0  0  1  0  0  0  0  0999 V2000
   38.7930   29.3870   42.6820 N   0  0  0  0  0  0  0  0  0  0  0  0
   39.4560   28.1410   42.6980 C   0  0  0  0  0  0  0  0  0  0  0  0
   38.4340   27.2360   43.2740 C   0  0  0  0  0  0  0  0  0  0  0  0
   37.1680   28.0430   43.5280 C   0  0  0  0  0  0  0  0  0  0  0  0
   37.3950   29.2590   42.6200 C   0  0  2  0  0  0  0  0  0  0  0  0
   40.3990   27.6890   42.4420 H   0  0  0  0  0  0  0  0  0  0  0  0
   38.4720   26.1850   43.4850 H   0  0  0  0  0  0  0  0  0  0  0  0
   36.3320   27.4500   43.1500 H   0  0  0  0  0  0  0  0  0  0  0  0
   37.1010   28.3260   44.5900 H   0  0  0  0  0  0  0  0  0  0  0  0
   36.8520   30.1420   42.9460 H   0  0  0  0  0  0  0  0  0  0  0  0
   39.5240   30.5480   42.7610 C   0  0  0  0  0  0  0  0  0  0  0  0
   39.1820   31.2680   43.5380 H   0  0  0  0  0  0  0  0  0  0  0  0
   40.5450   30.2800   43.1320 H   0  0  0  0  0  0  0  0  0  0  0  0
   40.3440   31.7750   39.2730 C   0  0  0  0  0  0  0  0  0  0  0  0
   40.3750   30.9390   40.4310 C   0  0  0  0  0  0  0  0  0  0  0  0
   39.6080   31.3130   41.5310 C   0  0  0  0  0  0  0  0  0  0  0  0
   38.8840   32.4490   41.4300 N   0  0  0  0  0  0  0  0  0  0  0  0
   38.8640   33.2450   40.3070 C   0  0  0  0  0  0  0  0  0  0  0  0
   39.5890   32.9080   39.2400 N   0  0  0  0  0  0  0  0  0  0  0  0
   40.9310   31.4980   38.4170 H   0  0  0  0  0  0  0  0  0  0  0  0
   40.9600   30.0520   40.4720 H   0  0  0  0  0  0  0  0  0  0  0  0
   38.2370   34.1410   40.3460 H   0  0  0  0  0  0  0  0  0  0  0  0
   37.0930   28.8340   41.3180 O   0  0  0  0  0  0  0  0  0  0  0  0
   37.0300   30.5180   39.2630 O   0  0  0  0  0  0  0  0  0  0  0  0
   36.2490   29.9390   40.4160 P   0  0  2  0  0  0  0  0  0  0  0  0
   35.8240   31.2370   41.4300 O   0  0  0  0  0  0  0  0  0  0  0  0
   36.5370   31.9460   41.3560 H   0  0  0  0  0  0  0  0  0  0  0  0
   34.7670   29.2850   39.8700 O   0  0  0  0  0  0  0  0  0  0  0  0
   34.8420   28.7570   38.6080 C   0  0  0  0  0  0  0  0  0  0  0  0
   33.5950   28.1660   38.3630 F   0  0  0  0  0  0  0  0  0  0  0  0
   35.0450   29.6620   37.6080 F   0  0  0  0  0  0  0  0  0  0  0  0
   35.7460   27.7000   38.5530 F   0  0  0  0  0  0  0  0  0  0  0  0
  1  2  1  0  0  0  0
  1 11  1  0  0  0  0
  2  3  2  0  0  0  0
  3  7  1  0  0  0  0
  3  4  1  0  0  0  0
  4  9  1  0  0  0  0
  5  1  1  0  0  0  0
  5 10  1  1  0  0  0
  5  4  1  0  0  0  0
  6  2  1  0  0  0  0
  8  4  1  0  0  0  0
 11 13  1  0  0  0  0
 11 12  1  0  0  0  0
 14 15  1  0  0  0  0
 15 21  1  0  0  0  0
 15 16  2  0  0  0  0
 16 11  1  0  0  0  0
 17 16  1  0  0  0  0
 18 22  1  0  0  0  0
 18 17  2  0  0  0  0
 19 14  2  0  0  0  0
 19 18  1  0  0  0  0
 20 14  1  0  0  0  0
 23  5  1  0  0  0  0
 25 24  2  6  0  0  0
 25 23  1  0  0  0  0
 25 26  1  0  0  0  0
 27 26  1  0  0  0  0
 28 25  1  0  0  0  0
 29 28  1  0  0  0  0
 30 29  1  0  0  0  0
 31 29  1  0  0  0  0
 32 29  1  0  0  0  0
M  END
>  <minimizedAffinity>
-5.00877762

$$$$

 OpenBabel03252505003D

 32 33  0  0  1  0  0  0  0  0999 V2000
   37.3090   28.1150   41.4370 N   0  0  0  0  0  0  0  0  0  0  0  0
   36.5690   27.8890   42.6180 C   0  0  0  0  0  0  0  0  0  0  0  0
   37.4520   28.4470   43.6670 C   0  0  0  0  0  0  0  0  0  0  0  0
   38.6880   29.0300   42.9940 C   0  0  0  0  0  0  0  0  0  0  0  0
   38.1960   29.1980   41.5510 C   0  0  2  0  0  0  0  0  0  0  0  0
   35.6370   27.4670   42.9560 H   0  0  0  0  0  0  0  0  0  0  0  0
   37.3220   28.5060   44.7310 H   0  0  0  0  0  0  0  0  0  0  0  0
   38.8620   30.0100   43.4430 H   0  0  0  0  0  0  0  0  0  0  0  0
   39.5300   28.3240   43.0650 H   0  0  0  0  0  0  0  0  0  0  0  0
   39.0020   29.1930   40.8220 H   0  0  0  0  0  0  0  0  0  0  0  0
   37.1360   27.2860   40.3550 C   0  0  0  0  0  0  0  0  0  0  0  0
   36.0970   27.2400   39.9570 H   0  0  0  0  0  0  0  0  0  0  0  0
   37.6910   27.7360   39.4930 H   0  0  0  0  0  0  0  0  0  0  0  0
   37.2160   23.5090   40.6230 C   0  0  0  0  0  0  0  0  0  0  0  0
   36.6800   24.8170   40.4160 C   0  0  0  0  0  0  0  0  0  0  0  0
   37.5360   25.9070   40.5600 C   0  0  0  0  0  0  0  0  0  0  0  0
   38.8210   25.6520   40.8880 N   0  0  0  0  0  0  0  0  0  0  0  0
   39.3230   24.3850   41.0850 C   0  0  0  0  0  0  0  0  0  0  0  0
   38.5240   23.3250   40.9520 N   0  0  0  0  0  0  0  0  0  0  0  0
   36.5670   22.6600   40.5160 H   0  0  0  0  0  0  0  0  0  0  0  0
   35.6610   24.9760   40.1590 H   0  0  0  0  0  0  0  0  0  0  0  0
   40.3820   24.3070   41.3480 H   0  0  0  0  0  0  0  0  0  0  0  0
   37.4090   30.3590   41.5410 O   0  0  0  0  0  0  0  0  0  0  0  0
   39.2040   32.3100   41.3620 O   0  0  0  0  0  0  0  0  0  0  0  0
   38.0540   31.6170   40.6750 P   0  0  2  0  0  0  0  0  0  0  0  0
   36.8370   32.7810   40.4450 O   0  0  0  0  0  0  0  0  0  0  0  0
   36.8980   33.4590   41.1890 H   0  0  0  0  0  0  0  0  0  0  0  0
   38.5060   31.1150   39.1050 O   0  0  0  0  0  0  0  0  0  0  0  0
   37.4490   31.0500   38.2340 C   0  0  0  0  0  0  0  0  0  0  0  0
   37.8560   30.1980   37.1980 F   0  0  0  0  0  0  0  0  0  0  0  0
   36.3030   30.5180   38.7460 F   0  0  0  0  0  0  0  0  0  0  0  0
   37.2280   32.2760   37.6120 F   0  0  0  0  0  0  0  0  0  0  0  0
  1  5  1  0  0  0  0
  1  2  1  0  0  0  0
  2  6  1  0  0  0  0
  2  3  2  0  0  0  0
  3  7  1  0  0  0  0
  4  9  1  0  0  0  0
  4  8  1  0  0  0  0
  4  3  1  0  0  0  0
  5 10  1  6  0  0  0
  5  4  1  0  0  0  0
 11 16  1  0  0  0  0
 11  1  1  0  0  0  0
 12 11  1  0  0  0  0
 13 11  1  0  0  0  0
 14 19  1  0  0  0  0
 15 16  1  0  0  0  0
 15 14  2  0  0  0  0
 16 17  2  0  0  0  0
 17 18  1  0  0  0  0
 18 22  1  0  0  0  0
 19 18  2  0  0  0  0
 20 14  1  0  0  0  0
 21 15  1  0  0  0  0
 23  5  1  0  0  0  0
 25 24  2  1  0  0  0
 25 23  1  0  0  0  0
 26 25  1  0  0  0  0
 26 27  1  0  0  0  0
 28 25  1  0  0  0  0
 29 31  1  0  0  0  0
 29 28  1  0  0  0  0
 30 29  1  0  0  0  0
 32 29  1  0  0  0  0
M  END
>  <minimizedAffinity>
-4.95238066

$$$$

 OpenBabel03252505003D

 32 33  0  0  1  0  0  0  0  0999 V2000
   36.8410   27.1910   41.0300 N   0  0  0  0  0  0  0  0  0  0  0  0
   37.2470   26.4900   39.8730 C   0  0  0  0  0  0  0  0  0  0  0  0
   36.3800   27.0680   38.8210 C   0  0  0  0  0  0  0  0  0  0  0  0
   35.5140   28.1500   39.4540 C   0  0  0  0  0  0  0  0  0  0  0  0
   36.2970   28.4530   40.7380 C   0  0  2  0  0  0  0  0  0  0  0  0
   37.9360   25.7270   39.5540 H   0  0  0  0  0  0  0  0  0  0  0  0
   36.3170   26.8530   37.7720 H   0  0  0  0  0  0  0  0  0  0  0  0
   35.5470   29.0140   38.7870 H   0  0  0  0  0  0  0  0  0  0  0  0
   34.5070   27.7580   39.6660 H   0  0  0  0  0  0  0  0  0  0  0  0
   35.6770   28.8650   41.5290 H   0  0  0  0  0  0  0  0  0  0  0  0
   36.9690   26.6010   42.2640 C   0  0  0  0  0  0  0  0  0  0  0  0
   36.4370   27.1210   43.0930 H   0  0  0  0  0  0  0  0  0  0  0  0
   36.4290   25.6210   42.2280 H   0  0  0  0  0  0  0  0  0  0  0  0
   40.4480   27.1250   43.6660 C   0  0  0  0  0  0  0  0  0  0  0  0
   39.1310   27.4500   43.2170 C   0  0  0  0  0  0  0  0  0  0  0  0
   38.3320   26.4210   42.7280 C   0  0  0  0  0  0  0  0  0  0  0  0
   38.8580   25.1770   42.7090 N   0  0  0  0  0  0  0  0  0  0  0  0
   40.1290   24.8780   43.1450 C   0  0  0  0  0  0  0  0  0  0  0  0
   40.9150   25.8460   43.6180 N   0  0  0  0  0  0  0  0  0  0  0  0
   41.0760   27.9100   44.0450 H   0  0  0  0  0  0  0  0  0  0  0  0
   38.7540   28.4440   43.2470 H   0  0  0  0  0  0  0  0  0  0  0  0
   40.4430   23.8320   43.0790 H   0  0  0  0  0  0  0  0  0  0  0  0
   37.3720   29.2690   40.3540 O   0  0  0  0  0  0  0  0  0  0  0  0
   38.1690   31.6820   41.1310 O   0  0  0  0  0  0  0  0  0  0  0  0
   37.0700   30.8950   40.4630 P   0  0  2  0  0  0  0  0  0  0  0  0
   35.6650   31.1120   41.3960 O   0  0  0  0  0  0  0  0  0  0  0  0
   35.9390   31.2510   42.3570 H   0  0  0  0  0  0  0  0  0  0  0  0
   36.7030   31.5570   38.9300 O   0  0  0  0  0  0  0  0  0  0  0  0
   37.5320   31.1070   37.9350 C   0  0  0  0  0  0  0  0  0  0  0  0
   37.5520   32.1180   36.9650 F   0  0  0  0  0  0  0  0  0  0  0  0
   38.8290   30.9020   38.3060 F   0  0  0  0  0  0  0  0  0  0  0  0
   36.9910   30.0040   37.2810 F   0  0  0  0  0  0  0  0  0  0  0  0
  1 11  1  0  0  0  0
  2  1  1  0  0  0  0
  3  4  1  0  0  0  0
  3  2  2  0  0  0  0
  4  9  1  0  0  0  0
  4  5  1  0  0  0  0
  5  1  1  0  0  0  0
  5 10  1  1  0  0  0
  6  2  1  0  0  0  0
  7  3  1  0  0  0  0
  8  4  1  0  0  0  0
 11 16  1  0  0  0  0
 11 12  1  0  0  0  0
 13 11  1  0  0  0  0
 14 20  1  0  0  0  0
 15 21  1  0  0  0  0
 15 14  2  0  0  0  0
 16 15  1  0  0  0  0
 17 16  2  0  0  0  0
 17 18  1  0  0  0  0
 18 19  2  0  0  0  0
 19 14  1  0  0  0  0
 22 18  1  0  0  0  0
 23 25  1  0  0  0  0
 23  5  1  0  0  0  0
 25 24  2  1  0  0  0
 25 26  1  0  0  0  0
 26 27  1  0  0  0  0
 28 25  1  0  0  0  0
 29 31  1  0  0  0  0
 29 28  1  0  0  0  0
 30 29  1  0  0  0  0
 32 29  1  0  0  0  0
M  END
>  <minimizedAffinity>
-4.94826698

$$$$

 OpenBabel03252505003D

 32 33  0  0  1  0  0  0  0  0999 V2000
   37.0290   30.7590   40.2750 N   0  0  0  0  0  0  0  0  0  0  0  0
   37.0430   29.9930   39.0890 C   0  0  0  0  0  0  0  0  0  0  0  0
   37.1300   31.0270   38.0340 C   0  0  0  0  0  0  0  0  0  0  0  0
   37.2100   32.3920   38.7050 C   0  0  0  0  0  0  0  0  0  0  0  0
   37.6540   32.0080   40.1220 C   0  0  2  0  0  0  0  0  0  0  0  0
   37.0090   28.9710   38.7500 H   0  0  0  0  0  0  0  0  0  0  0  0
   37.1670   30.9340   36.9650 H   0  0  0  0  0  0  0  0  0  0  0  0
   38.0060   32.9470   38.2050 H   0  0  0  0  0  0  0  0  0  0  0  0
   36.2220   32.8790   38.6990 H   0  0  0  0  0  0  0  0  0  0  0  0
   37.3720   32.7420   40.8720 H   0  0  0  0  0  0  0  0  0  0  0  0
   36.4100   30.2650   41.3980 C   0  0  0  0  0  0  0  0  0  0  0  0
   36.2330   31.0120   42.2050 H   0  0  0  0  0  0  0  0  0  0  0  0
   35.3640   29.9860   41.1130 H   0  0  0  0  0  0  0  0  0  0  0  0
   37.3110   26.8720   42.8170 C   0  0  0  0  0  0  0  0  0  0  0  0
   36.5230   27.8850   42.1900 C   0  0  0  0  0  0  0  0  0  0  0  0
   37.0830   29.1510   42.0380 C   0  0  0  0  0  0  0  0  0  0  0  0
   38.3390   29.3380   42.4990 N   0  0  0  0  0  0  0  0  0  0  0  0
   39.0860   28.3510   43.1030 C   0  0  0  0  0  0  0  0  0  0  0  0
   38.5730   27.1300   43.2590 N   0  0  0  0  0  0  0  0  0  0  0  0
   36.8910   25.8910   42.9410 H   0  0  0  0  0  0  0  0  0  0  0  0
   35.5360   27.6990   41.8410 H   0  0  0  0  0  0  0  0  0  0  0  0
   40.0920   28.6240   43.4350 H   0  0  0  0  0  0  0  0  0  0  0  0
   39.0320   31.7540   40.0420 O   0  0  0  0  0  0  0  0  0  0  0  0
   41.1540   32.6650   41.3560 O   0  0  0  0  0  0  0  0  0  0  0  0
   39.9900   33.0370   40.4730 P   0  0  2  0  0  0  0  0  0  0  0  0
   39.0360   34.1410   41.3450 O   0  0  0  0  0  0  0  0  0  0  0  0
   39.1270   33.9360   42.3280 H   0  0  0  0  0  0  0  0  0  0  0  0
   40.5300   33.8920   39.0940 O   0  0  0  0  0  0  0  0  0  0  0  0
   41.1200   33.0860   38.1560 C   0  0  0  0  0  0  0  0  0  0  0  0
   41.8690   33.9380   37.3330 F   0  0  0  0  0  0  0  0  0  0  0  0
   41.9910   32.1590   38.6480 F   0  0  0  0  0  0  0  0  0  0  0  0
   40.1750   32.5200   37.3050 F   0  0  0  0  0  0  0  0  0  0  0  0
  1 11  1  0  0  0  0
  2  1  1  0  0  0  0
  3  4  1  0  0  0  0
  3  2  2  0  0  0  0
  4  5  1  0  0  0  0
  5  1  1  0  0  0  0
  5 10  1  1  0  0  0
  6  2  1  0  0  0  0
  7  3  1  0  0  0  0
  8  4  1  0  0  0  0
  9  4  1  0  0  0  0
 11 16  1  0  0  0  0
 11 12  1  0  0  0  0
 13 11  1  0  0  0  0
 14 20  1  0  0  0  0
 14 19  1  0  0  0  0
 15 14  2  0  0  0  0
 16 15  1  0  0  0  0
 16 17  2  0  0  0  0
 17 18  1  0  0  0  0
 18 19  2  0  0  0  0
 18 22  1  0  0  0  0
 21 15  1  0  0  0  0
 23  5  1  0  0  0  0
 23 25  1  0  0  0  0
 25 26  1  0  0  0  0
 25 24  2  1  0  0  0
 26 27  1  0  0  0  0
 28 25  1  0  0  0  0
 29 31  1  0  0  0  0
 29 28  1  0  0  0  0
 30 29  1  0  0  0  0
 32 29  1  0  0  0  0
M  END
>  <minimizedAffinity>
-4.91567993

$$$$

 OpenBabel03252505003D

 32 33  0  0  1  0  0  0  0  0999 V2000
   39.0260   28.5900   42.2750 N   0  0  0  0  0  0  0  0  0  0  0  0
   40.2780   29.1320   42.6420 C   0  0  0  0  0  0  0  0  0  0  0  0
   40.8890   29.4540   41.3320 C   0  0  0  0  0  0  0  0  0  0  0  0
   39.8910   29.1020   40.2370 C   0  0  0  0  0  0  0  0  0  0  0  0
   38.5770   29.0550   41.0280 C   0  0  2  0  0  0  0  0  0  0  0  0
   40.8710   29.3610   43.5110 H   0  0  0  0  0  0  0  0  0  0  0  0
   41.8430   29.8840   41.0940 H   0  0  0  0  0  0  0  0  0  0  0  0
   39.8740   29.9430   39.5400 H   0  0  0  0  0  0  0  0  0  0  0  0
   40.1400   28.1270   39.7910 H   0  0  0  0  0  0  0  0  0  0  0  0
   37.8220   28.4270   40.5640 H   0  0  0  0  0  0  0  0  0  0  0  0
   38.4090   27.6820   43.1010 C   0  0  0  0  0  0  0  0  0  0  0  0
   38.9010   27.5330   44.0890 H   0  0  0  0  0  0  0  0  0  0  0  0
   37.4220   28.1150   43.4020 H   0  0  0  0  0  0  0  0  0  0  0  0
   36.9820   24.4500   41.7370 C   0  0  0  0  0  0  0  0  0  0  0  0
   37.0020   25.7560   42.3160 C   0  0  0  0  0  0  0  0  0  0  0  0
   38.2390   26.3530   42.5450 C   0  0  0  0  0  0  0  0  0  0  0  0
   39.3430   25.6530   42.2050 N   0  0  0  0  0  0  0  0  0  0  0  0
   39.3080   24.3940   41.6480 C   0  0  0  0  0  0  0  0  0  0  0  0
   38.1350   23.8010   41.4180 N   0  0  0  0  0  0  0  0  0  0  0  0
   36.0340   23.9780   41.5550 H   0  0  0  0  0  0  0  0  0  0  0  0
   36.1100   26.2750   42.5710 H   0  0  0  0  0  0  0  0  0  0  0  0
   40.2700   23.9280   41.4160 H   0  0  0  0  0  0  0  0  0  0  0  0
   38.1900   30.3900   41.2180 O   0  0  0  0  0  0  0  0  0  0  0  0
   37.0010   32.1210   39.5900 O   0  0  0  0  0  0  0  0  0  0  0  0
   36.8400   30.8390   40.3660 P   0  0  2  0  0  0  0  0  0  0  0  0
   35.5730   31.0830   41.4730 O   0  0  0  0  0  0  0  0  0  0  0  0
   35.5540   32.0590   41.7260 H   0  0  0  0  0  0  0  0  0  0  0  0
   36.3110   29.5770   39.3410 O   0  0  0  0  0  0  0  0  0  0  0  0
   35.3230   28.8070   39.8980 C   0  0  0  0  0  0  0  0  0  0  0  0
   35.3360   27.5960   39.1930 F   0  0  0  0  0  0  0  0  0  0  0  0
   35.5010   28.4910   41.2130 F   0  0  0  0  0  0  0  0  0  0  0  0
   34.0620   29.3420   39.6510 F   0  0  0  0  0  0  0  0  0  0  0  0
  1  2  1  0  0  0  0
  1 11  1  0  0  0  0
  2  6  1  0  0  0  0
  3  2  2  0  0  0  0
  4  5  1  0  0  0  0
  4  3  1  0  0  0  0
  5 10  1  6  0  0  0
  5 23  1  0  0  0  0
  5  1  1  0  0  0  0
  7  3  1  0  0  0  0
  8  4  1  0  0  0  0
  9  4  1  0  0  0  0
 11 13  1  0  0  0  0
 11 12  1  0  0  0  0
 14 15  1  0  0  0  0
 15 16  2  0  0  0  0
 15 21  1  0  0  0  0
 16 11  1  0  0  0  0
 17 16  1  0  0  0  0
 18 17  2  0  0  0  0
 19 18  1  0  0  0  0
 19 14  2  0  0  0  0
 20 14  1  0  0  0  0
 22 18  1  0  0  0  0
 25 24  2  6  0  0  0
 25 23  1  0  0  0  0
 25 26  1  0  0  0  0
 26 27  1  0  0  0  0
 28 29  1  0  0  0  0
 28 25  1  0  0  0  0
 29 31  1  0  0  0  0
 30 29  1  0  0  0  0
 32 29  1  0  0  0  0
M  END
>  <minimizedAffinity>
-4.89946127

$$$$

 OpenBabel03252505003D

 32 33  0  0  1  0  0  0  0  0999 V2000
   38.0730   27.0390   41.8430 N   0  0  0  0  0  0  0  0  0  0  0  0
   37.1850   26.4820   42.7890 C   0  0  0  0  0  0  0  0  0  0  0  0
   36.8930   27.6310   43.6760 C   0  0  0  0  0  0  0  0  0  0  0  0
   37.6290   28.8520   43.1390 C   0  0  0  0  0  0  0  0  0  0  0  0
   37.9070   28.4260   41.6920 C   0  0  2  0  0  0  0  0  0  0  0  0
   36.7010   25.5540   43.0390 H   0  0  0  0  0  0  0  0  0  0  0  0
   36.2670   27.7000   44.5460 H   0  0  0  0  0  0  0  0  0  0  0  0
   36.9200   29.6820   43.1520 H   0  0  0  0  0  0  0  0  0  0  0  0
   38.5580   29.0180   43.7080 H   0  0  0  0  0  0  0  0  0  0  0  0
   38.7630   28.9330   41.2550 H   0  0  0  0  0  0  0  0  0  0  0  0
   38.9930   26.2340   41.2150 C   0  0  0  0  0  0  0  0  0  0  0  0
   39.6310   26.7470   40.4610 H   0  0  0  0  0  0  0  0  0  0  0  0
   39.7500   25.9260   41.9800 H   0  0  0  0  0  0  0  0  0  0  0  0
   38.0220   22.7150   40.2070 C   0  0  0  0  0  0  0  0  0  0  0  0
   38.6460   23.7610   40.9540 C   0  0  0  0  0  0  0  0  0  0  0  0
   38.4440   25.0750   40.5380 C   0  0  0  0  0  0  0  0  0  0  0  0
   37.6700   25.2730   39.4500 N   0  0  0  0  0  0  0  0  0  0  0  0
   37.0750   24.2550   38.7390 C   0  0  0  0  0  0  0  0  0  0  0  0
   37.2520   22.9880   39.1170 N   0  0  0  0  0  0  0  0  0  0  0  0
   38.1700   21.6980   40.5160 H   0  0  0  0  0  0  0  0  0  0  0  0
   39.2500   23.5630   41.8060 H   0  0  0  0  0  0  0  0  0  0  0  0
   36.4700   24.5420   37.8740 H   0  0  0  0  0  0  0  0  0  0  0  0
   36.7030   28.6080   40.9960 O   0  0  0  0  0  0  0  0  0  0  0  0
   37.8360   30.8400   40.1030 O   0  0  0  0  0  0  0  0  0  0  0  0
   36.5350   30.1020   40.2980 P   0  0  2  0  0  0  0  0  0  0  0  0
   35.5700   31.0590   41.3190 O   0  0  0  0  0  0  0  0  0  0  0  0
   36.1750   31.5800   41.9350 H   0  0  0  0  0  0  0  0  0  0  0  0
   35.6750   30.0000   38.8240 O   0  0  0  0  0  0  0  0  0  0  0  0
   34.7240   29.0120   38.8210 C   0  0  0  0  0  0  0  0  0  0  0  0
   33.9350   29.2410   37.6860 F   0  0  0  0  0  0  0  0  0  0  0  0
   35.2050   27.7400   38.7090 F   0  0  0  0  0  0  0  0  0  0  0  0
   33.8450   29.1500   39.8920 F   0  0  0  0  0  0  0  0  0  0  0  0
  1  2  1  0  0  0  0
  2  6  1  0  0  0  0
  2  3  2  0  0  0  0
  3  7  1  0  0  0  0
  4  8  1  0  0  0  0
  4  3  1  0  0  0  0
  4  9  1  0  0  0  0
  5 10  1  6  0  0  0
  5  1  1  0  0  0  0
  5  4  1  0  0  0  0
 11  1  1  0  0  0  0
 11 13  1  0  0  0  0
 12 11  1  0  0  0  0
 14 20  1  0  0  0  0
 14 15  1  0  0  0  0
 15 21  1  0  0  0  0
 16 15  2  0  0  0  0
 16 11  1  0  0  0  0
 17 16  1  0  0  0  0
 18 19  1  0  0  0  0
 18 17  2  0  0  0  0
 19 14  2  0  0  0  0
 22 18  1  0  0  0  0
 23  5  1  0  0  0  0
 25 24  2  6  0  0  0
 25 23  1  0  0  0  0
 25 26  1  0  0  0  0
 26 27  1  0  0  0  0
 28 25  1  0  0  0  0
 29 28  1  0  0  0  0
 29 32  1  0  0  0  0
 30 29  1  0  0  0  0
 31 29  1  0  0  0  0
M  END
>  <minimizedAffinity>
-4.86546135

$$$$

 OpenBabel03252505003D

 32 33  0  0  1  0  0  0  0  0999 V2000
   36.6990   29.2750   41.5940 N   0  0  0  0  0  0  0  0  0  0  0  0
   37.7770   29.7340   42.3820 C   0  0  0  0  0  0  0  0  0  0  0  0
   37.8860   28.6890   43.4250 C   0  0  0  0  0  0  0  0  0  0  0  0
   36.8450   27.6150   43.1390 C   0  0  0  0  0  0  0  0  0  0  0  0
   36.5320   27.8810   41.6610 C   0  0  2  0  0  0  0  0  0  0  0  0
   38.4810   30.5460   42.4490 H   0  0  0  0  0  0  0  0  0  0  0  0
   38.5600   28.5980   44.2550 H   0  0  0  0  0  0  0  0  0  0  0  0
   37.3450   26.6500   43.2440 H   0  0  0  0  0  0  0  0  0  0  0  0
   35.9610   27.7580   43.7820 H   0  0  0  0  0  0  0  0  0  0  0  0
   35.5450   27.5360   41.3650 H   0  0  0  0  0  0  0  0  0  0  0  0
   35.9290   30.1760   40.9000 C   0  0  0  0  0  0  0  0  0  0  0  0
   34.9180   29.8100   40.6120 H   0  0  0  0  0  0  0  0  0  0  0  0
   35.6770   31.0130   41.6000 H   0  0  0  0  0  0  0  0  0  0  0  0
   37.6350   32.3290   38.2930 C   0  0  0  0  0  0  0  0  0  0  0  0
   37.0590   31.9650   39.5490 C   0  0  0  0  0  0  0  0  0  0  0  0
   36.5210   30.6880   39.6790 C   0  0  0  0  0  0  0  0  0  0  0  0
   36.5790   29.8740   38.6030 N   0  0  0  0  0  0  0  0  0  0  0  0
   37.1370   30.2380   37.3980 C   0  0  0  0  0  0  0  0  0  0  0  0
   37.6600   31.4560   37.2480 N   0  0  0  0  0  0  0  0  0  0  0  0
   38.0540   33.3110   38.1790 H   0  0  0  0  0  0  0  0  0  0  0  0
   37.0330   32.6370   40.3730 H   0  0  0  0  0  0  0  0  0  0  0  0
   37.1240   29.4900   36.5990 H   0  0  0  0  0  0  0  0  0  0  0  0
   37.5910   27.3190   40.9330 O   0  0  0  0  0  0  0  0  0  0  0  0
   38.1840   26.0730   38.6620 O   0  0  0  0  0  0  0  0  0  0  0  0
   37.1170   26.3180   39.7000 P   0  0  2  0  0  0  0  0  0  0  0  0
   35.8040   27.0450   38.9010 O   0  0  0  0  0  0  0  0  0  0  0  0
   36.1600   27.5830   38.1270 H   0  0  0  0  0  0  0  0  0  0  0  0
   36.5170   24.8360   40.3060 O   0  0  0  0  0  0  0  0  0  0  0  0
   37.2990   24.3010   41.2950 C   0  0  0  0  0  0  0  0  0  0  0  0
   37.3050   22.9170   41.0750 F   0  0  0  0  0  0  0  0  0  0  0  0
   38.6040   24.6990   41.2870 F   0  0  0  0  0  0  0  0  0  0  0  0
   36.7100   24.4530   42.5470 F   0  0  0  0  0  0  0  0  0  0  0  0
  1  5  1  0  0  0  0
  1  2  1  0  0  0  0
  2  6  1  0  0  0  0
  2  3  2  0  0  0  0
  3  7  1  0  0  0  0
  4  8  1  0  0  0  0
  4  3  1  0  0  0  0
  4  9  1  0  0  0  0
  5 10  1  6  0  0  0
  5  4  1  0  0  0  0
 11  1  1  0  0  0  0
 11 13  1  0  0  0  0
 12 11  1  0  0  0  0
 14 15  1  0  0  0  0
 15 16  2  0  0  0  0
 15 21  1  0  0  0  0
 16 11  1  0  0  0  0
 17 16  1  0  0  0  0
 18 17  2  0  0  0  0
 19 18  1  0  0  0  0
 19 14  2  0  0  0  0
 20 14  1  0  0  0  0
 22 18  1  0  0  0  0
 23  5  1  0  0  0  0
 25 24  2  6  0  0  0
 25 28  1  0  0  0  0
 25 23  1  0  0  0  0
 26 25  1  0  0  0  0
 27 26  1  0  0  0  0
 28 29  1  0  0  0  0
 29 32  1  0  0  0  0
 30 29  1  0  0  0  0
 31 29  1  0  0  0  0
M  END
>  <minimizedAffinity>
-4.74601746

$$$$

 OpenBabel03252505003D

 32 33  0  0  1  0  0  0  0  0999 V2000
   36.0650   29.0450   39.0450 N   0  0  0  0  0  0  0  0  0  0  0  0
   36.3570   27.7480   38.5690 C   0  0  0  0  0  0  0  0  0  0  0  0
   36.1850   27.8910   37.1050 C   0  0  0  0  0  0  0  0  0  0  0  0
   35.8300   29.3420   36.8040 C   0  0  0  0  0  0  0  0  0  0  0  0
   36.3030   30.0420   38.0840 C   0  0  2  0  0  0  0  0  0  0  0  0
   36.6400   26.7700   38.9200 H   0  0  0  0  0  0  0  0  0  0  0  0
   36.2960   27.1740   36.3150 H   0  0  0  0  0  0  0  0  0  0  0  0
   36.4500   29.6520   35.9610 H   0  0  0  0  0  0  0  0  0  0  0  0
   34.7440   29.4460   36.6520 H   0  0  0  0  0  0  0  0  0  0  0  0
   35.7840   30.9780   38.2750 H   0  0  0  0  0  0  0  0  0  0  0  0
   35.5680   29.2090   40.3150 C   0  0  0  0  0  0  0  0  0  0  0  0
   35.1080   30.2030   40.5160 H   0  0  0  0  0  0  0  0  0  0  0  0
   34.6880   28.5250   40.4250 H   0  0  0  0  0  0  0  0  0  0  0  0
   37.5150   27.8030   43.2430 C   0  0  0  0  0  0  0  0  0  0  0  0
   36.4960   27.9000   42.2460 C   0  0  0  0  0  0  0  0  0  0  0  0
   36.5210   28.9960   41.3870 C   0  0  0  0  0  0  0  0  0  0  0  0
   37.5110   29.8990   41.5560 N   0  0  0  0  0  0  0  0  0  0  0  0
   38.4870   29.7930   42.5220 C   0  0  0  0  0  0  0  0  0  0  0  0
   38.4850   28.7520   43.3560 N   0  0  0  0  0  0  0  0  0  0  0  0
   37.5080   26.9640   43.9130 H   0  0  0  0  0  0  0  0  0  0  0  0
   35.7320   27.1670   42.1470 H   0  0  0  0  0  0  0  0  0  0  0  0
   39.2360   30.5890   42.5590 H   0  0  0  0  0  0  0  0  0  0  0  0
   37.6960   30.1590   37.9710 O   0  0  0  0  0  0  0  0  0  0  0  0
   37.2170   32.6940   38.6100 O   0  0  0  0  0  0  0  0  0  0  0  0
   38.2800   31.6850   38.2540 P   0  0  2  0  0  0  0  0  0  0  0  0
   39.0330   32.2360   36.8330 O   0  0  0  0  0  0  0  0  0  0  0  0
   38.3580   32.7570   36.2950 H   0  0  0  0  0  0  0  0  0  0  0  0
   39.5100   31.6620   39.4420 O   0  0  0  0  0  0  0  0  0  0  0  0
   39.6120   32.8400   40.1350 C   0  0  0  0  0  0  0  0  0  0  0  0
   40.7900   32.7410   40.8890 F   0  0  0  0  0  0  0  0  0  0  0  0
   39.7380   33.9600   39.3660 F   0  0  0  0  0  0  0  0  0  0  0  0
   38.6000   32.9630   41.0820 F   0  0  0  0  0  0  0  0  0  0  0  0
  1 11  1  0  0  0  0
  2  6  1  0  0  0  0
  2  1  1  0  0  0  0
  3  2  2  0  0  0  0
  4  3  1  0  0  0  0
  4  5  1  0  0  0  0
  5 10  1  1  0  0  0
  5  1  1  0  0  0  0
  7  3  1  0  0  0  0
  8  4  1  0  0  0  0
  9  4  1  0  0  0  0
 11 13  1  0  0  0  0
 11 12  1  0  0  0  0
 11 16  1  0  0  0  0
 14 19  1  0  0  0  0
 14 20  1  0  0  0  0
 15 14  2  0  0  0  0
 16 17  2  0  0  0  0
 16 15  1  0  0  0  0
 17 18  1  0  0  0  0
 18 22  1  0  0  0  0
 18 19  2  0  0  0  0
 21 15  1  0  0  0  0
 23  5  1  0  0  0  0
 23 25  1  0  0  0  0
 25 24  2  1  0  0  0
 25 28  1  0  0  0  0
 26 25  1  0  0  0  0
 27 26  1  0  0  0  0
 28 29  1  0  0  0  0
 29 30  1  0  0  0  0
 29 32  1  0  0  0  0
 31 29  1  0  0  0  0
M  END
>  <minimizedAffinity>
-4.73883629

$$$$

 OpenBabel03252505003D

 32 33  0  0  1  0  0  0  0  0999 V2000
   36.7550   28.0380   39.1190 N   0  0  0  0  0  0  0  0  0  0  0  0
   37.4330   27.7870   37.9050 C   0  0  0  0  0  0  0  0  0  0  0  0
   36.8550   28.8000   36.9930 C   0  0  0  0  0  0  0  0  0  0  0  0
   35.8620   29.6440   37.7820 C   0  0  0  0  0  0  0  0  0  0  0  0
   36.3040   29.3640   39.2240 C   0  0  2  0  0  0  0  0  0  0  0  0
   38.1780   27.1360   37.4800 H   0  0  0  0  0  0  0  0  0  0  0  0
   37.0530   29.0020   35.9580 H   0  0  0  0  0  0  0  0  0  0  0  0
   36.0610   30.6870   37.5290 H   0  0  0  0  0  0  0  0  0  0  0  0
   34.8330   29.3020   37.5910 H   0  0  0  0  0  0  0  0  0  0  0  0
   35.5080   29.5080   39.9490 H   0  0  0  0  0  0  0  0  0  0  0  0
   36.5730   27.0190   40.0210 C   0  0  0  0  0  0  0  0  0  0  0  0
   35.5110   26.7830   40.2580 H   0  0  0  0  0  0  0  0  0  0  0  0
   36.9130   26.0700   39.5330 H   0  0  0  0  0  0  0  0  0  0  0  0
   37.3280   27.6420   43.6800 C   0  0  0  0  0  0  0  0  0  0  0  0
   36.5590   27.5200   42.4810 C   0  0  0  0  0  0  0  0  0  0  0  0
   37.2280   27.2000   41.3030 C   0  0  0  0  0  0  0  0  0  0  0  0
   38.5650   27.0260   41.3720 N   0  0  0  0  0  0  0  0  0  0  0  0
   39.2940   27.1470   42.5340 C   0  0  0  0  0  0  0  0  0  0  0  0
   38.6760   27.4530   43.6760 N   0  0  0  0  0  0  0  0  0  0  0  0
   36.8250   27.8900   44.5960 H   0  0  0  0  0  0  0  0  0  0  0  0
   35.5060   27.6660   42.4690 H   0  0  0  0  0  0  0  0  0  0  0  0
   40.3730   26.9830   42.4620 H   0  0  0  0  0  0  0  0  0  0  0  0
   37.4420   30.1550   39.4420 O   0  0  0  0  0  0  0  0  0  0  0  0
   38.2800   30.5440   41.9330 O   0  0  0  0  0  0  0  0  0  0  0  0
   37.3910   31.0600   40.8300 P   0  0  2  0  0  0  0  0  0  0  0  0
   35.7980   31.0340   41.4220 O   0  0  0  0  0  0  0  0  0  0  0  0
   35.7170   30.2810   42.0880 H   0  0  0  0  0  0  0  0  0  0  0  0
   37.7280   32.7050   40.5050 O   0  0  0  0  0  0  0  0  0  0  0  0
   38.6930   32.8790   39.5470 C   0  0  0  0  0  0  0  0  0  0  0  0
   39.7520   32.0360   39.9100 F   0  0  0  0  0  0  0  0  0  0  0  0
   38.3300   32.5210   38.2810 F   0  0  0  0  0  0  0  0  0  0  0  0
   39.2330   34.1610   39.5970 F   0  0  0  0  0  0  0  0  0  0  0  0
  1  5  1  0  0  0  0
  1 11  1  0  0  0  0
  2  1  1  0  0  0  0
  3  4  1  0  0  0  0
  3  2  2  0  0  0  0
  4  5  1  0  0  0  0
  5 23  1  0  0  0  0
  5 10  1  1  0  0  0
  6  2  1  0  0  0  0
  7  3  1  0  0  0  0
  8  4  1  0  0  0  0
  9  4  1  0  0  0  0
 11 12  1  0  0  0  0
 11 16  1  0  0  0  0
 13 11  1  0  0  0  0
 14 20  1  0  0  0  0
 15 14  2  0  0  0  0
 16 17  2  0  0  0  0
 16 15  1  0  0  0  0
 17 18  1  0  0  0  0
 18 19  2  0  0  0  0
 19 14  1  0  0  0  0
 21 15  1  0  0  0  0
 22 18  1  0  0  0  0
 23 25  1  0  0  0  0
 25 26  1  0  0  0  0
 25 24  2  1  0  0  0
 26 27  1  0  0  0  0
 28 25  1  0  0  0  0
 29 32  1  0  0  0  0
 29 30  1  0  0  0  0
 29 28  1  0  0  0  0
 31 29  1  0  0  0  0
M  END
>  <minimizedAffinity>
-4.71747541

$$$$
