
 OpenBabel03252509313D

 22 22  0  0  0  0  0  0  0  0999 V2000
   46.8610   34.8080   41.9990 C   0  0  0  0  0  0  0  0  0  0  0  0
   46.1810   34.3340   41.2570 H   0  0  0  0  0  0  0  0  0  0  0  0
   47.0370   35.8380   41.6510 H   0  0  0  0  0  0  0  0  0  0  0  0
   45.5890   33.9600   45.4040 C   0  0  0  0  0  0  0  0  0  0  0  0
   46.3110   33.8850   44.1980 C   0  0  0  0  0  0  0  0  0  0  0  0
   46.1140   34.8740   43.2620 C   0  0  0  0  0  0  0  0  0  0  0  0
   45.2290   35.8970   43.5290 N   0  0  0  0  0  0  0  0  0  0  0  0
   44.5460   35.9360   44.7110 C   0  0  0  0  0  0  0  0  0  0  0  0
   44.7340   34.9810   45.6190 N   0  0  0  0  0  0  0  0  0  0  0  0
   45.6870   33.2290   46.1830 H   0  0  0  0  0  0  0  0  0  0  0  0
   46.9690   33.0550   44.0890 H   0  0  0  0  0  0  0  0  0  0  0  0
   43.8850   36.7940   44.7860 H   0  0  0  0  0  0  0  0  0  0  0  0
   48.0200   34.0460   42.1330 O   0  0  0  0  0  0  0  0  0  0  0  0
   47.3910   32.2940   40.2980 O   0  0  0  0  0  0  0  0  0  0  0  0
   48.3600   33.4060   40.6030 P   0  0  2  0  0  0  0  0  0  0  0  0
   49.9700   32.8790   40.6450 O   0  0  0  0  0  0  0  0  0  0  0  0
   50.0630   31.9260   40.3700 H   0  0  0  0  0  0  0  0  0  0  0  0
   48.1750   34.6190   39.4580 O   0  0  0  0  0  0  0  0  0  0  0  0
   48.1370   34.0810   38.1640 C   0  0  0  0  0  0  0  0  0  0  0  0
   48.4810   35.0780   37.2670 F   0  0  0  0  0  0  0  0  0  0  0  0
   46.8360   33.6440   37.8860 F   0  0  0  0  0  0  0  0  0  0  0  0
   48.9820   33.0150   38.0640 F   0  0  0  0  0  0  0  0  0  0  0  0
  1 13  1  0  0  0  0
  1  6  1  0  0  0  0
  2  1  1  0  0  0  0
  3  1  1  0  0  0  0
  4  9  1  0  0  0  0
  4 10  1  0  0  0  0
  5  4  2  0  0  0  0
  6  7  2  0  0  0  0
  6  5  1  0  0  0  0
  7  8  1  0  0  0  0
  8 12  1  0  0  0  0
  8  9  2  0  0  0  0
 11  5  1  0  0  0  0
 15 14  2  6  0  0  0
 15 16  1  0  0  0  0
 15 13  1  0  0  0  0
 17 16  1  0  0  0  0
 18 15  1  0  0  0  0
 19 18  1  0  0  0  0
 20 19  1  0  0  0  0
 21 19  1  0  0  0  0
 22 19  1  0  0  0  0
M  END
>  <minimizedAffinity>
-4.3392663

>  <minimizedRMSD>
2.14507246

$$$$
