
 OpenBabel03242521543D

 43 46  0  0  0  0  0  0  0  0999 V2000
   46.0130   32.2430   46.1030 C   0  0  0  0  0  0  0  0  0  0  0  0
   45.8590   32.9090   47.3170 C   0  0  0  0  0  0  0  0  0  0  0  0
   46.1100   32.3020   48.5540 C   0  0  0  0  0  0  0  0  0  0  0  0
   46.5290   31.0010   48.6220 C   0  0  0  0  0  0  0  0  0  0  0  0
   46.6840   30.3040   47.4060 C   0  0  0  0  0  0  0  0  0  0  0  0
   47.0470   28.9970   47.5170 C   0  0  0  0  0  0  0  0  0  0  0  0
   47.1370   28.2570   46.3340 C   0  0  0  0  0  0  0  0  0  0  0  0
   46.8370   28.9100   45.0860 C   0  0  0  0  0  0  0  0  0  0  0  0
   46.4830   30.2370   45.1470 C   0  0  0  0  0  0  0  0  0  0  0  0
   46.4010   30.9970   46.2270 C   0  0  0  0  0  0  0  0  0  0  0  0
   45.5240   33.9580   47.2750 H   0  0  0  0  0  0  0  0  0  0  0  0
   45.9680   32.8850   49.4700 H   0  0  0  0  0  0  0  0  0  0  0  0
   46.7330   30.5230   49.5720 H   0  0  0  0  0  0  0  0  0  0  0  0
   47.2560   28.5560   48.4810 H   0  0  0  0  0  0  0  0  0  0  0  0
   47.4340   27.2330   46.4990 H   0  0  0  0  0  0  0  0  0  0  0  0
   46.9860   28.1120   44.3750 H   0  0  0  0  0  0  0  0  0  0  0  0
   44.5720   29.7860   43.8880 C   0  0  0  0  0  0  0  0  0  0  0  0
   45.9510   30.2220   43.8000 C   0  0  0  0  0  0  0  0  0  0  0  0
   46.3250   30.3320   42.5280 C   0  0  0  0  0  0  0  0  0  0  0  0
   45.5380   30.0700   41.4270 C   0  0  0  0  0  0  0  0  0  0  0  0
   44.2360   29.6530   41.5340 C   0  0  0  0  0  0  0  0  0  0  0  0
   43.7540   29.5120   42.8090 C   0  0  0  0  0  0  0  0  0  0  0  0
   47.3730   30.6690   42.5590 H   0  0  0  0  0  0  0  0  0  0  0  0
   46.0480   30.2250   40.4880 H   0  0  0  0  0  0  0  0  0  0  0  0
   43.6700   29.4620   40.6330 H   0  0  0  0  0  0  0  0  0  0  0  0
   43.8300   29.5680   45.0830 O   0  0  0  0  0  0  0  0  0  0  0  0
   44.3190   28.9660   45.7450 H   0  0  0  0  0  0  0  0  0  0  0  0
   42.4430   29.0880   42.8550 O   0  0  0  0  0  0  0  0  0  0  0  0
   42.0730   27.7050   42.8000 C   0  0  0  0  0  0  0  0  0  0  0  0
   43.1900   26.9400   43.1100 F   0  0  0  0  0  0  0  0  0  0  0  0
   41.0360   27.5210   43.6930 F   0  0  0  0  0  0  0  0  0  0  0  0
   41.6810   27.4560   41.4830 F   0  0  0  0  0  0  0  0  0  0  0  0
   45.2610   34.1150   42.9640 C   0  0  0  0  0  0  0  0  0  0  0  0
   46.5710   34.5120   42.6020 C   0  0  0  0  0  0  0  0  0  0  0  0
   47.5870   34.0910   43.4300 C   0  0  0  0  0  0  0  0  0  0  0  0
   47.2030   33.3620   44.4740 N   0  0  0  0  0  0  0  0  0  0  0  0
   45.9900   32.9740   44.8460 C   0  0  0  0  0  0  0  0  0  0  0  0
   45.0400   33.3740   44.0530 N   0  0  0  0  0  0  0  0  0  0  0  0
   44.4490   34.4370   42.3240 H   0  0  0  0  0  0  0  0  0  0  0  0
   46.7720   35.1100   41.7300 H   0  0  0  0  0  0  0  0  0  0  0  0
   48.9470   34.3620   43.1480 N   0  0  0  0  0  0  0  0  0  0  0  0
   49.4950   34.6730   44.0040 H   0  0  0  0  0  0  0  0  0  0  0  0
   49.1780   34.2040   42.1230 H   0  0  0  0  0  0  0  0  0  0  0  0
  1 10  2  0  0  0  0
  1  2  1  0  0  0  0
  2  3  2  0  0  0  0
  3  4  1  0  0  0  0
  3 12  1  0  0  0  0
  4 13  1  0  0  0  0
  5  6  1  0  0  0  0
  5  4  2  0  0  0  0
  6 14  1  0  0  0  0
  7 15  1  0  0  0  0
  7  6  2  0  0  0  0
  8  9  2  0  0  0  0
  8  7  1  0  0  0  0
  9 10  1  0  0  0  0
 10  5  1  0  0  0  0
 11  2  1  0  0  0  0
 16  8  1  0  0  0  0
 17 26  1  0  0  0  0
 18 17  1  0  0  0  0
 18  9  1  0  0  0  0
 19 23  1  0  0  0  0
 19 18  2  0  0  0  0
 20 21  2  0  0  0  0
 20 19  1  0  0  0  0
 21 22  1  0  0  0  0
 22 28  1  0  0  0  0
 22 17  2  0  0  0  0
 24 20  1  0  0  0  0
 25 21  1  0  0  0  0
 26 27  1  0  0  0  0
 29 28  1  0  0  0  0
 29 30  1  0  0  0  0
 29 31  1  0  0  0  0
 32 29  1  0  0  0  0
 33 38  1  0  0  0  0
 34 33  2  0  0  0  0
 34 35  1  0  0  0  0
 35 36  2  0  0  0  0
 36 37  1  0  0  0  0
 37  1  1  0  0  0  0
 38 37  2  0  0  0  0
 39 33  1  0  0  0  0
 40 34  1  0  0  0  0
 41 35  1  0  0  0  0
 41 42  1  0  0  0  0
 43 41  1  0  0  0  0
M  END
>  <minimizedAffinity>
-4.72589922

>  <minimizedRMSD>
0.460450262

$$$$
