
 OpenBabel03252509313D

 22 22  0  0  0  0  0  0  0  0999 V2000
   46.8590   34.8010   41.9920 C   0  0  0  0  0  0  0  0  0  0  0  0
   46.1810   34.3210   41.2540 H   0  0  0  0  0  0  0  0  0  0  0  0
   47.0350   35.8290   41.6370 H   0  0  0  0  0  0  0  0  0  0  0  0
   45.5770   33.9730   45.3980 C   0  0  0  0  0  0  0  0  0  0  0  0
   46.3000   33.8890   44.1930 C   0  0  0  0  0  0  0  0  0  0  0  0
   46.1110   34.8770   43.2540 C   0  0  0  0  0  0  0  0  0  0  0  0
   45.2320   35.9060   43.5170 N   0  0  0  0  0  0  0  0  0  0  0  0
   44.5480   35.9540   44.6980 C   0  0  0  0  0  0  0  0  0  0  0  0
   44.7280   35.0000   45.6080 N   0  0  0  0  0  0  0  0  0  0  0  0
   45.6690   33.2440   46.1790 H   0  0  0  0  0  0  0  0  0  0  0  0
   46.9530   33.0550   44.0880 H   0  0  0  0  0  0  0  0  0  0  0  0
   43.8930   36.8160   44.7690 H   0  0  0  0  0  0  0  0  0  0  0  0
   48.0190   34.0420   42.1330 O   0  0  0  0  0  0  0  0  0  0  0  0
   47.4010   32.3000   40.2860 O   0  0  0  0  0  0  0  0  0  0  0  0
   48.3710   33.4070   40.6050 P   0  0  2  0  0  0  0  0  0  0  0  0
   49.9790   32.8720   40.6610 O   0  0  0  0  0  0  0  0  0  0  0  0
   50.0710   31.9200   40.3840 H   0  0  0  0  0  0  0  0  0  0  0  0
   48.2030   34.6240   39.4620 O   0  0  0  0  0  0  0  0  0  0  0  0
   48.1290   34.0880   38.1690 C   0  0  0  0  0  0  0  0  0  0  0  0
   49.0530   33.0650   38.0650 F   0  0  0  0  0  0  0  0  0  0  0  0
   48.4440   35.0860   37.2400 F   0  0  0  0  0  0  0  0  0  0  0  0
   46.8660   33.6410   37.9090 F   0  0  0  0  0  0  0  0  0  0  0  0
  1 13  1  0  0  0  0
  1  6  1  0  0  0  0
  2  1  1  0  0  0  0
  3  1  1  0  0  0  0
  4  9  1  0  0  0  0
  4 10  1  0  0  0  0
  5  4  2  0  0  0  0
  6  7  2  0  0  0  0
  6  5  1  0  0  0  0
  7  8  1  0  0  0  0
  8 12  1  0  0  0  0
  8  9  2  0  0  0  0
 11  5  1  0  0  0  0
 15 14  2  6  0  0  0
 15 16  1  0  0  0  0
 15 13  1  0  0  0  0
 17 16  1  0  0  0  0
 18 15  1  0  0  0  0
 19 18  1  0  0  0  0
 20 19  1  0  0  0  0
 21 19  1  0  0  0  0
 22 19  1  0  0  0  0
M  END
>  <minimizedAffinity>
-4.34692621

>  <minimizedRMSD>
2.14764833

$$$$
