
 OpenBabel03252507363D

 27 29  0  0  0  0  0  0  0  0999 V2000
   40.1170   30.8710   41.6370 C   0  0  0  0  0  0  0  0  0  0  0  0
   38.8960   30.1930   41.6740 C   0  0  0  0  0  0  0  0  0  0  0  0
   37.8040   30.8300   41.1650 C   0  0  0  0  0  0  0  0  0  0  0  0
   37.8540   32.0980   40.6230 C   0  0  0  0  0  0  0  0  0  0  0  0
   36.8850   32.8860   40.0780 N   0  0  0  0  0  0  0  0  0  0  0  0
   37.5070   34.0640   39.6960 C   0  0  0  0  0  0  0  0  0  0  0  0
   38.8180   33.9640   40.0150 N   0  0  0  0  0  0  0  0  0  0  0  0
   39.0570   32.7670   40.5860 C   0  0  0  0  0  0  0  0  0  0  0  0
   40.1790   32.1530   41.0910 C   0  0  0  0  0  0  0  0  0  0  0  0
   41.0050   30.4030   42.0280 H   0  0  0  0  0  0  0  0  0  0  0  0
   36.8510   30.3090   41.1910 H   0  0  0  0  0  0  0  0  0  0  0  0
   35.8550   32.6730   39.9530 H   0  0  0  0  0  0  0  0  0  0  0  0
   36.9820   34.8900   39.2270 H   0  0  0  0  0  0  0  0  0  0  0  0
   41.1270   32.6730   41.0650 H   0  0  0  0  0  0  0  0  0  0  0  0
   37.9520   26.7140   42.7560 C   0  0  0  0  0  0  0  0  0  0  0  0
   37.8340   27.9840   42.1460 C   0  0  0  0  0  0  0  0  0  0  0  0
   38.8940   28.8640   42.2520 C   0  0  0  0  0  0  0  0  0  0  0  0
   40.0030   28.4780   42.9350 N   0  0  0  0  0  0  0  0  0  0  0  0
   40.0910   27.2520   43.5120 C   0  0  0  0  0  0  0  0  0  0  0  0
   39.0790   26.3930   43.4200 N   0  0  0  0  0  0  0  0  0  0  0  0
   36.9490   28.2910   41.6020 H   0  0  0  0  0  0  0  0  0  0  0  0
   40.9550   26.9190   44.0580 H   0  0  0  0  0  0  0  0  0  0  0  0
   36.8960   25.8350   42.6560 O   0  0  0  0  0  0  0  0  0  0  0  0
   37.1660   24.6700   41.8620 C   0  0  0  0  0  0  0  0  0  0  0  0
   38.0070   23.8390   42.6010 F   0  0  0  0  0  0  0  0  0  0  0  0
   37.8840   25.1740   40.7730 F   0  0  0  0  0  0  0  0  0  0  0  0
   36.0350   24.0460   41.4280 F   0  0  0  0  0  0  0  0  0  0  0  0
  1  2  1  0  0  0  0
  1 10  1  0  0  0  0
  2 17  1  0  0  0  0
  3 11  1  0  0  0  0
  3  2  2  0  0  0  0
  4  3  1  0  0  0  0
  5  4  1  0  0  0  0
  6  7  2  0  0  0  0
  6  5  1  0  0  0  0
  7  8  1  0  0  0  0
  8  4  2  0  0  0  0
  8  9  1  0  0  0  0
  9  1  2  0  0  0  0
 12  5  1  0  0  0  0
 13  6  1  0  0  0  0
 14  9  1  0  0  0  0
 15 20  1  0  0  0  0
 16 17  1  0  0  0  0
 16 15  2  0  0  0  0
 17 18  2  0  0  0  0
 18 19  1  0  0  0  0
 19 22  1  0  0  0  0
 20 19  2  0  0  0  0
 21 16  1  0  0  0  0
 23 15  1  0  0  0  0
 24 25  1  0  0  0  0
 24 23  1  0  0  0  0
 26 24  1  0  0  0  0
 27 24  1  0  0  0  0
M  END
>  <minimizedAffinity>
-5.45902824

$$$$

 OpenBabel03252507363D

 27 29  0  0  0  0  0  0  0  0999 V2000
   36.8840   30.0600   40.8760 C   0  0  0  0  0  0  0  0  0  0  0  0
   38.1010   29.7940   41.5070 C   0  0  0  0  0  0  0  0  0  0  0  0
   39.0090   30.8070   41.5810 C   0  0  0  0  0  0  0  0  0  0  0  0
   38.7800   32.0660   41.0650 C   0  0  0  0  0  0  0  0  0  0  0  0
   39.5540   33.1870   41.0400 N   0  0  0  0  0  0  0  0  0  0  0  0
   38.8130   34.1610   40.3890 C   0  0  0  0  0  0  0  0  0  0  0  0
   37.6260   33.6140   40.0390 N   0  0  0  0  0  0  0  0  0  0  0  0
   37.5800   32.3300   40.4420 C   0  0  0  0  0  0  0  0  0  0  0  0
   36.6410   31.3290   40.3500 C   0  0  0  0  0  0  0  0  0  0  0  0
   36.1380   29.2870   40.7960 H   0  0  0  0  0  0  0  0  0  0  0  0
   39.9580   30.6070   42.0720 H   0  0  0  0  0  0  0  0  0  0  0  0
   40.5280   33.3240   41.4310 H   0  0  0  0  0  0  0  0  0  0  0  0
   39.1750   35.1690   40.2180 H   0  0  0  0  0  0  0  0  0  0  0  0
   35.6970   31.5290   39.8630 H   0  0  0  0  0  0  0  0  0  0  0  0
   37.6720   26.1800   42.4680 C   0  0  0  0  0  0  0  0  0  0  0  0
   37.3670   27.4420   41.9090 C   0  0  0  0  0  0  0  0  0  0  0  0
   38.2950   28.4570   42.0340 C   0  0  0  0  0  0  0  0  0  0  0  0
   39.4600   28.2070   42.6870 N   0  0  0  0  0  0  0  0  0  0  0  0
   39.7290   26.9860   43.2160 C   0  0  0  0  0  0  0  0  0  0  0  0
   38.8460   25.9960   43.1030 N   0  0  0  0  0  0  0  0  0  0  0  0
   36.4380   27.6410   41.3880 H   0  0  0  0  0  0  0  0  0  0  0  0
   40.6400   26.7570   43.7360 H   0  0  0  0  0  0  0  0  0  0  0  0
   36.7490   25.1650   42.3470 O   0  0  0  0  0  0  0  0  0  0  0  0
   36.9450   24.3140   41.2080 C   0  0  0  0  0  0  0  0  0  0  0  0
   35.7090   23.7660   40.8710 F   0  0  0  0  0  0  0  0  0  0  0  0
   37.7660   23.2940   41.6990 F   0  0  0  0  0  0  0  0  0  0  0  0
   37.5580   24.9480   40.1680 F   0  0  0  0  0  0  0  0  0  0  0  0
  1  2  1  0  0  0  0
  2  3  2  0  0  0  0
  2 17  1  0  0  0  0
  3 11  1  0  0  0  0
  4  3  1  0  0  0  0
  5  4  1  0  0  0  0
  5 12  1  0  0  0  0
  6  5  1  0  0  0  0
  7  6  2  0  0  0  0
  7  8  1  0  0  0  0
  8  4  2  0  0  0  0
  9  8  1  0  0  0  0
  9  1  2  0  0  0  0
 10  1  1  0  0  0  0
 13  6  1  0  0  0  0
 14  9  1  0  0  0  0
 15 20  1  0  0  0  0
 16 17  1  0  0  0  0
 16 15  2  0  0  0  0
 17 18  2  0  0  0  0
 18 19  1  0  0  0  0
 19 22  1  0  0  0  0
 20 19  2  0  0  0  0
 21 16  1  0  0  0  0
 23 15  1  0  0  0  0
 24 26  1  0  0  0  0
 24 23  1  0  0  0  0
 25 24  1  0  0  0  0
 27 24  1  0  0  0  0
M  END
>  <minimizedAffinity>
-5.38092709

$$$$

 OpenBabel03252507363D

 27 29  0  0  0  0  0  0  0  0999 V2000
   40.6470   32.2320   41.1080 C   0  0  0  0  0  0  0  0  0  0  0  0
   39.6690   31.8870   40.1730 C   0  0  0  0  0  0  0  0  0  0  0  0
   39.8740   32.2580   38.8780 C   0  0  0  0  0  0  0  0  0  0  0  0
   40.9900   32.9520   38.4590 C   0  0  0  0  0  0  0  0  0  0  0  0
   41.3630   33.4050   37.2290 N   0  0  0  0  0  0  0  0  0  0  0  0
   42.5850   34.0380   37.3990 C   0  0  0  0  0  0  0  0  0  0  0  0
   42.9180   33.9540   38.7080 N   0  0  0  0  0  0  0  0  0  0  0  0
   41.9560   33.2920   39.3800 C   0  0  0  0  0  0  0  0  0  0  0  0
   41.7800   32.9320   40.6960 C   0  0  0  0  0  0  0  0  0  0  0  0
   40.5240   31.9560   42.1420 H   0  0  0  0  0  0  0  0  0  0  0  0
   39.1160   31.9930   38.1440 H   0  0  0  0  0  0  0  0  0  0  0  0
   40.8500   33.3110   36.3080 H   0  0  0  0  0  0  0  0  0  0  0  0
   43.1340   34.5020   36.5860 H   0  0  0  0  0  0  0  0  0  0  0  0
   42.5340   33.1970   41.4240 H   0  0  0  0  0  0  0  0  0  0  0  0
   37.3370   29.7050   42.1660 C   0  0  0  0  0  0  0  0  0  0  0  0
   38.5290   30.3680   41.7930 C   0  0  0  0  0  0  0  0  0  0  0  0
   38.5140   31.1580   40.6600 C   0  0  0  0  0  0  0  0  0  0  0  0
   37.3610   31.2680   39.9500 N   0  0  0  0  0  0  0  0  0  0  0  0
   36.2290   30.6210   40.3300 C   0  0  0  0  0  0  0  0  0  0  0  0
   36.2270   29.8560   41.4180 N   0  0  0  0  0  0  0  0  0  0  0  0
   39.4480   30.2790   42.3600 H   0  0  0  0  0  0  0  0  0  0  0  0
   35.3030   30.6890   39.7900 H   0  0  0  0  0  0  0  0  0  0  0  0
   37.3480   28.9130   43.2930 O   0  0  0  0  0  0  0  0  0  0  0  0
   37.4470   27.5060   43.0300 C   0  0  0  0  0  0  0  0  0  0  0  0
   37.4890   27.3350   41.6470 F   0  0  0  0  0  0  0  0  0  0  0  0
   36.2340   26.9970   43.5050 F   0  0  0  0  0  0  0  0  0  0  0  0
   38.4880   26.9130   43.6800 F   0  0  0  0  0  0  0  0  0  0  0  0
  1 10  1  0  0  0  0
  2 17  1  0  0  0  0
  2  1  2  0  0  0  0
  3  2  1  0  0  0  0
  4  3  2  0  0  0  0
  4  8  1  0  0  0  0
  5  6  1  0  0  0  0
  5  4  1  0  0  0  0
  6  7  2  0  0  0  0
  7  8  1  0  0  0  0
  8  9  2  0  0  0  0
  9  1  1  0  0  0  0
  9 14  1  0  0  0  0
 11  3  1  0  0  0  0
 12  5  1  0  0  0  0
 13  6  1  0  0  0  0
 15 23  1  0  0  0  0
 16 15  1  0  0  0  0
 16 21  1  0  0  0  0
 17 16  2  0  0  0  0
 18 19  2  0  0  0  0
 18 17  1  0  0  0  0
 19 20  1  0  0  0  0
 20 15  2  0  0  0  0
 22 19  1  0  0  0  0
 24 23  1  0  0  0  0
 24 26  1  0  0  0  0
 24 27  1  0  0  0  0
 25 24  1  0  0  0  0
M  END
>  <minimizedAffinity>
-5.37003613

$$$$

 OpenBabel03252507363D

 27 29  0  0  0  0  0  0  0  0999 V2000
   37.2470   30.5810   40.7930 C   0  0  0  0  0  0  0  0  0  0  0  0
   38.3340   30.0850   41.5150 C   0  0  0  0  0  0  0  0  0  0  0  0
   39.4310   30.8840   41.6350 C   0  0  0  0  0  0  0  0  0  0  0  0
   39.5110   32.1450   41.0810 C   0  0  0  0  0  0  0  0  0  0  0  0
   40.5070   33.0750   41.0910 N   0  0  0  0  0  0  0  0  0  0  0  0
   40.0360   34.1610   40.3700 C   0  0  0  0  0  0  0  0  0  0  0  0
   38.7850   33.8670   39.9460 N   0  0  0  0  0  0  0  0  0  0  0  0
   38.4390   32.6360   40.3690 C   0  0  0  0  0  0  0  0  0  0  0  0
   37.3160   31.8540   40.2280 C   0  0  0  0  0  0  0  0  0  0  0  0
   36.3600   29.9810   40.6750 H   0  0  0  0  0  0  0  0  0  0  0  0
   40.2820   30.5040   42.1960 H   0  0  0  0  0  0  0  0  0  0  0  0
   41.4600   33.0150   41.5470 H   0  0  0  0  0  0  0  0  0  0  0  0
   40.6150   35.0640   40.2060 H   0  0  0  0  0  0  0  0  0  0  0  0
   36.4710   32.2340   39.6710 H   0  0  0  0  0  0  0  0  0  0  0  0
   39.0040   26.7560   43.1400 C   0  0  0  0  0  0  0  0  0  0  0  0
   39.2570   28.0460   42.6220 C   0  0  0  0  0  0  0  0  0  0  0  0
   38.2030   28.7550   42.0790 C   0  0  0  0  0  0  0  0  0  0  0  0
   36.9690   28.1890   42.0630 N   0  0  0  0  0  0  0  0  0  0  0  0
   36.7510   26.9470   42.5670 C   0  0  0  0  0  0  0  0  0  0  0  0
   37.7560   26.2510   43.0940 N   0  0  0  0  0  0  0  0  0  0  0  0
   40.2430   28.4980   42.6350 H   0  0  0  0  0  0  0  0  0  0  0  0
   35.7870   26.4730   42.5690 H   0  0  0  0  0  0  0  0  0  0  0  0
   40.0520   26.0440   43.6800 O   0  0  0  0  0  0  0  0  0  0  0  0
   40.4950   24.9390   42.8790 C   0  0  0  0  0  0  0  0  0  0  0  0
   41.8790   24.8470   43.0110 F   0  0  0  0  0  0  0  0  0  0  0  0
   40.1980   25.3390   41.5730 F   0  0  0  0  0  0  0  0  0  0  0  0
   39.8460   23.7750   43.1700 F   0  0  0  0  0  0  0  0  0  0  0  0
  1  2  1  0  0  0  0
  2  3  2  0  0  0  0
  2 17  1  0  0  0  0
  3 11  1  0  0  0  0
  4  5  1  0  0  0  0
  4  3  1  0  0  0  0
  5 12  1  0  0  0  0
  6  5  1  0  0  0  0
  7  8  1  0  0  0  0
  7  6  2  0  0  0  0
  8  4  2  0  0  0  0
  9  8  1  0  0  0  0
  9  1  2  0  0  0  0
 10  1  1  0  0  0  0
 13  6  1  0  0  0  0
 14  9  1  0  0  0  0
 15 23  1  0  0  0  0
 16 21  1  0  0  0  0
 16 15  2  0  0  0  0
 17 16  1  0  0  0  0
 18 17  2  0  0  0  0
 18 19  1  0  0  0  0
 19 22  1  0  0  0  0
 19 20  2  0  0  0  0
 20 15  1  0  0  0  0
 24 25  1  0  0  0  0
 24 27  1  0  0  0  0
 24 23  1  0  0  0  0
 26 24  1  0  0  0  0
M  END
>  <minimizedAffinity>
-5.10968876

$$$$

 OpenBabel03252507363D

 27 29  0  0  0  0  0  0  0  0999 V2000
   37.9860   29.6750   38.5890 C   0  0  0  0  0  0  0  0  0  0  0  0
   36.6380   29.3120   38.5690 C   0  0  0  0  0  0  0  0  0  0  0  0
   36.0570   28.9740   39.7540 C   0  0  0  0  0  0  0  0  0  0  0  0
   36.7350   28.9760   40.9550 C   0  0  0  0  0  0  0  0  0  0  0  0
   36.3320   28.6710   42.2210 N   0  0  0  0  0  0  0  0  0  0  0  0
   37.4380   28.8480   43.0380 C   0  0  0  0  0  0  0  0  0  0  0  0
   38.4690   29.2490   42.2590 N   0  0  0  0  0  0  0  0  0  0  0  0
   38.0640   29.3350   40.9770 C   0  0  0  0  0  0  0  0  0  0  0  0
   38.6820   29.6820   39.7980 C   0  0  0  0  0  0  0  0  0  0  0  0
   38.4840   29.9510   37.6740 H   0  0  0  0  0  0  0  0  0  0  0  0
   35.0070   28.6890   39.7450 H   0  0  0  0  0  0  0  0  0  0  0  0
   35.3750   28.3600   42.5510 H   0  0  0  0  0  0  0  0  0  0  0  0
   37.4200   28.6790   44.1090 H   0  0  0  0  0  0  0  0  0  0  0  0
   39.7250   29.9650   39.8080 H   0  0  0  0  0  0  0  0  0  0  0  0
   35.8300   29.6360   34.9070 C   0  0  0  0  0  0  0  0  0  0  0  0
   36.5920   29.6580   36.0970 C   0  0  0  0  0  0  0  0  0  0  0  0
   35.9680   29.3250   37.2830 C   0  0  0  0  0  0  0  0  0  0  0  0
   34.6510   28.9920   37.2620 N   0  0  0  0  0  0  0  0  0  0  0  0
   33.9410   28.9780   36.1050 C   0  0  0  0  0  0  0  0  0  0  0  0
   34.5280   29.2960   34.9530 N   0  0  0  0  0  0  0  0  0  0  0  0
   37.6430   29.9240   36.1130 H   0  0  0  0  0  0  0  0  0  0  0  0
   32.8990   28.7180   36.0560 H   0  0  0  0  0  0  0  0  0  0  0  0
   36.4480   29.9700   33.7220 O   0  0  0  0  0  0  0  0  0  0  0  0
   36.4150   31.3690   33.4070 C   0  0  0  0  0  0  0  0  0  0  0  0
   36.9750   32.0580   34.4820 F   0  0  0  0  0  0  0  0  0  0  0  0
   35.0490   31.6620   33.3550 F   0  0  0  0  0  0  0  0  0  0  0  0
   37.0020   31.6620   32.2130 F   0  0  0  0  0  0  0  0  0  0  0  0
  1  9  1  0  0  0  0
  2  1  2  0  0  0  0
  2  3  1  0  0  0  0
  3  4  2  0  0  0  0
  4  8  1  0  0  0  0
  4  5  1  0  0  0  0
  5 12  1  0  0  0  0
  5  6  1  0  0  0  0
  6 13  1  0  0  0  0
  7  6  2  0  0  0  0
  8  7  1  0  0  0  0
  9 14  1  0  0  0  0
  9  8  2  0  0  0  0
 10  1  1  0  0  0  0
 11  3  1  0  0  0  0
 15 20  2  0  0  0  0
 15 16  1  0  0  0  0
 16 21  1  0  0  0  0
 16 17  2  0  0  0  0
 17  2  1  0  0  0  0
 18 17  1  0  0  0  0
 19 18  2  0  0  0  0
 20 19  1  0  0  0  0
 22 19  1  0  0  0  0
 23 15  1  0  0  0  0
 24 23  1  0  0  0  0
 24 25  1  0  0  0  0
 26 24  1  0  0  0  0
 27 24  1  0  0  0  0
M  END
>  <minimizedAffinity>
-5.08144808

$$$$

 OpenBabel03252507363D

 27 29  0  0  0  0  0  0  0  0999 V2000
   40.1490   32.1360   40.4400 C   0  0  0  0  0  0  0  0  0  0  0  0
   39.8340   31.2120   41.4380 C   0  0  0  0  0  0  0  0  0  0  0  0
   40.7340   31.0400   42.4470 C   0  0  0  0  0  0  0  0  0  0  0  0
   41.9260   31.7310   42.5210 C   0  0  0  0  0  0  0  0  0  0  0  0
   42.9360   31.6930   43.4340 N   0  0  0  0  0  0  0  0  0  0  0  0
   43.8890   32.6030   43.0020 C   0  0  0  0  0  0  0  0  0  0  0  0
   43.4390   33.1610   41.8540 N   0  0  0  0  0  0  0  0  0  0  0  0
   42.2370   32.6430   41.5370 C   0  0  0  0  0  0  0  0  0  0  0  0
   41.3500   32.8410   40.5050 C   0  0  0  0  0  0  0  0  0  0  0  0
   39.4630   32.3030   39.6250 H   0  0  0  0  0  0  0  0  0  0  0  0
   40.4950   30.3220   43.2270 H   0  0  0  0  0  0  0  0  0  0  0  0
   43.0120   31.1020   44.3090 H   0  0  0  0  0  0  0  0  0  0  0  0
   44.8160   32.7930   43.5340 H   0  0  0  0  0  0  0  0  0  0  0  0
   41.5890   33.5560   39.7290 H   0  0  0  0  0  0  0  0  0  0  0  0
   37.1480   28.5770   41.3210 C   0  0  0  0  0  0  0  0  0  0  0  0
   38.4350   29.1450   41.4650 C   0  0  0  0  0  0  0  0  0  0  0  0
   38.5700   30.5110   41.3180 C   0  0  0  0  0  0  0  0  0  0  0  0
   37.4670   31.2550   41.0420 N   0  0  0  0  0  0  0  0  0  0  0  0
   36.2420   30.6860   40.9090 C   0  0  0  0  0  0  0  0  0  0  0  0
   36.0950   29.3700   41.0480 N   0  0  0  0  0  0  0  0  0  0  0  0
   39.3150   28.5500   41.6840 H   0  0  0  0  0  0  0  0  0  0  0  0
   35.3520   31.2470   40.6920 H   0  0  0  0  0  0  0  0  0  0  0  0
   37.0090   27.2140   41.4640 O   0  0  0  0  0  0  0  0  0  0  0  0
   36.9220   26.7650   42.8240 C   0  0  0  0  0  0  0  0  0  0  0  0
   38.2130   26.7540   43.3500 F   0  0  0  0  0  0  0  0  0  0  0  0
   36.4800   25.4440   42.7060 F   0  0  0  0  0  0  0  0  0  0  0  0
   36.0410   27.4890   43.5700 F   0  0  0  0  0  0  0  0  0  0  0  0
  1  9  2  0  0  0  0
  1  2  1  0  0  0  0
  2  3  2  0  0  0  0
  3  4  1  0  0  0  0
  3 11  1  0  0  0  0
  4  5  1  0  0  0  0
  5 12  1  0  0  0  0
  6  5  1  0  0  0  0
  6 13  1  0  0  0  0
  7  6  2  0  0  0  0
  8  7  1  0  0  0  0
  8  4  2  0  0  0  0
  9  8  1  0  0  0  0
 10  1  1  0  0  0  0
 14  9  1  0  0  0  0
 15 23  1  0  0  0  0
 15 16  1  0  0  0  0
 16 21  1  0  0  0  0
 17  2  1  0  0  0  0
 17 16  2  0  0  0  0
 18 17  1  0  0  0  0
 19 18  2  0  0  0  0
 19 20  1  0  0  0  0
 20 15  2  0  0  0  0
 22 19  1  0  0  0  0
 23 24  1  0  0  0  0
 24 25  1  0  0  0  0
 24 27  1  0  0  0  0
 26 24  1  0  0  0  0
M  END
>  <minimizedAffinity>
-5.04834843

$$$$

 OpenBabel03252507363D

 27 29  0  0  0  0  0  0  0  0999 V2000
   36.0220   27.3510   38.9910 C   0  0  0  0  0  0  0  0  0  0  0  0
   35.3180   28.5570   38.9640 C   0  0  0  0  0  0  0  0  0  0  0  0
   35.4780   29.4060   40.0170 C   0  0  0  0  0  0  0  0  0  0  0  0
   36.2950   29.1280   41.0940 C   0  0  0  0  0  0  0  0  0  0  0  0
   36.5750   29.8380   42.2220 N   0  0  0  0  0  0  0  0  0  0  0  0
   37.4630   29.0700   42.9590 C   0  0  0  0  0  0  0  0  0  0  0  0
   37.6950   27.9290   42.2700 N   0  0  0  0  0  0  0  0  0  0  0  0
   36.9900   27.9390   41.1220 C   0  0  0  0  0  0  0  0  0  0  0  0
   36.8510   27.0590   40.0740 C   0  0  0  0  0  0  0  0  0  0  0  0
   35.9250   26.6520   38.1770 H   0  0  0  0  0  0  0  0  0  0  0  0
   34.9330   30.3470   40.0030 H   0  0  0  0  0  0  0  0  0  0  0  0
   36.2090   30.7890   42.5110 H   0  0  0  0  0  0  0  0  0  0  0  0
   37.8680   29.3810   43.9160 H   0  0  0  0  0  0  0  0  0  0  0  0
   37.3940   26.1240   40.0900 H   0  0  0  0  0  0  0  0  0  0  0  0
   32.3840   29.1580   36.6840 C   0  0  0  0  0  0  0  0  0  0  0  0
   33.0990   28.9170   37.8790 C   0  0  0  0  0  0  0  0  0  0  0  0
   34.4740   28.8050   37.8110 C   0  0  0  0  0  0  0  0  0  0  0  0
   35.0850   28.9290   36.6050 N   0  0  0  0  0  0  0  0  0  0  0  0
   34.3760   29.1610   35.4700 C   0  0  0  0  0  0  0  0  0  0  0  0
   33.0500   29.2710   35.5180 N   0  0  0  0  0  0  0  0  0  0  0  0
   32.6100   28.8180   38.8420 H   0  0  0  0  0  0  0  0  0  0  0  0
   34.8300   29.2640   34.5020 H   0  0  0  0  0  0  0  0  0  0  0  0
   31.0130   29.2680   36.7460 O   0  0  0  0  0  0  0  0  0  0  0  0
   30.5340   30.5890   37.0370 C   0  0  0  0  0  0  0  0  0  0  0  0
   30.5820   30.7620   38.4200 F   0  0  0  0  0  0  0  0  0  0  0  0
   29.1940   30.5480   36.6400 F   0  0  0  0  0  0  0  0  0  0  0  0
   31.1970   31.5600   36.3480 F   0  0  0  0  0  0  0  0  0  0  0  0
  1  9  1  0  0  0  0
  2  1  2  0  0  0  0
  2  3  1  0  0  0  0
  3  4  2  0  0  0  0
  4  8  1  0  0  0  0
  4  5  1  0  0  0  0
  5 12  1  0  0  0  0
  5  6  1  0  0  0  0
  6 13  1  0  0  0  0
  7  6  2  0  0  0  0
  8  7  1  0  0  0  0
  9 14  1  0  0  0  0
  9  8  2  0  0  0  0
 10  1  1  0  0  0  0
 11  3  1  0  0  0  0
 15 23  1  0  0  0  0
 15 16  1  0  0  0  0
 16 21  1  0  0  0  0
 17 16  2  0  0  0  0
 17  2  1  0  0  0  0
 18 17  1  0  0  0  0
 19 20  1  0  0  0  0
 19 18  2  0  0  0  0
 20 15  2  0  0  0  0
 22 19  1  0  0  0  0
 23 24  1  0  0  0  0
 24 25  1  0  0  0  0
 26 24  1  0  0  0  0
 27 24  1  0  0  0  0
M  END
>  <minimizedAffinity>
-5.00410366

$$$$

 OpenBabel03252507363D

 27 29  0  0  0  0  0  0  0  0999 V2000
   35.7890   29.3000   37.1490 C   0  0  0  0  0  0  0  0  0  0  0  0
   35.0510   29.1860   38.3290 C   0  0  0  0  0  0  0  0  0  0  0  0
   33.7210   28.9110   38.2180 C   0  0  0  0  0  0  0  0  0  0  0  0
   33.0840   28.7420   37.0060 C   0  0  0  0  0  0  0  0  0  0  0  0
   31.7840   28.4700   36.6990 N   0  0  0  0  0  0  0  0  0  0  0  0
   31.7130   28.4120   35.3150 C   0  0  0  0  0  0  0  0  0  0  0  0
   32.9510   28.6470   34.8250 N   0  0  0  0  0  0  0  0  0  0  0  0
   33.8110   28.8540   35.8420 C   0  0  0  0  0  0  0  0  0  0  0  0
   35.1560   29.1310   35.9180 C   0  0  0  0  0  0  0  0  0  0  0  0
   36.8440   29.5160   37.1930 H   0  0  0  0  0  0  0  0  0  0  0  0
   33.1390   28.8210   39.1320 H   0  0  0  0  0  0  0  0  0  0  0  0
   30.9680   28.3240   37.3570 H   0  0  0  0  0  0  0  0  0  0  0  0
   30.7940   28.2080   34.7750 H   0  0  0  0  0  0  0  0  0  0  0  0
   35.7330   29.2200   35.0080 H   0  0  0  0  0  0  0  0  0  0  0  0
   36.5730   28.7060   41.7380 C   0  0  0  0  0  0  0  0  0  0  0  0
   35.8490   28.4050   40.5610 C   0  0  0  0  0  0  0  0  0  0  0  0
   35.7640   29.3710   39.5780 C   0  0  0  0  0  0  0  0  0  0  0  0
   36.3750   30.5680   39.7770 N   0  0  0  0  0  0  0  0  0  0  0  0
   37.0650   30.8320   40.9160 C   0  0  0  0  0  0  0  0  0  0  0  0
   37.1570   29.9120   41.8730 N   0  0  0  0  0  0  0  0  0  0  0  0
   35.3620   27.4500   40.4030 H   0  0  0  0  0  0  0  0  0  0  0  0
   37.5580   31.7680   41.1020 H   0  0  0  0  0  0  0  0  0  0  0  0
   36.6590   27.7460   42.7230 O   0  0  0  0  0  0  0  0  0  0  0  0
   37.7190   26.7970   42.5380 C   0  0  0  0  0  0  0  0  0  0  0  0
   37.1570   25.5220   42.5660 F   0  0  0  0  0  0  0  0  0  0  0  0
   38.5090   26.9610   43.6800 F   0  0  0  0  0  0  0  0  0  0  0  0
   38.4600   27.0360   41.4180 F   0  0  0  0  0  0  0  0  0  0  0  0
  1 10  1  0  0  0  0
  1  2  1  0  0  0  0
  2 17  1  0  0  0  0
  3  2  2  0  0  0  0
  3 11  1  0  0  0  0
  4  3  1  0  0  0  0
  5  4  1  0  0  0  0
  5 12  1  0  0  0  0
  6  5  1  0  0  0  0
  7  6  2  0  0  0  0
  7  8  1  0  0  0  0
  8  9  1  0  0  0  0
  8  4  2  0  0  0  0
  9  1  2  0  0  0  0
 13  6  1  0  0  0  0
 14  9  1  0  0  0  0
 15 20  1  0  0  0  0
 15 23  1  0  0  0  0
 16 15  2  0  0  0  0
 17 18  2  0  0  0  0
 17 16  1  0  0  0  0
 18 19  1  0  0  0  0
 19 22  1  0  0  0  0
 19 20  2  0  0  0  0
 21 16  1  0  0  0  0
 24 25  1  0  0  0  0
 24 23  1  0  0  0  0
 24 26  1  0  0  0  0
 27 24  1  0  0  0  0
M  END
>  <minimizedAffinity>
-4.9795599

$$$$

 OpenBabel03252507363D

 27 29  0  0  0  0  0  0  0  0999 V2000
   36.5970   26.2120   39.7990 C   0  0  0  0  0  0  0  0  0  0  0  0
   37.5250   26.2940   40.8390 C   0  0  0  0  0  0  0  0  0  0  0  0
   38.1020   25.1350   41.2640 C   0  0  0  0  0  0  0  0  0  0  0  0
   37.8120   23.9020   40.7180 C   0  0  0  0  0  0  0  0  0  0  0  0
   38.2760   22.6540   41.0060 N   0  0  0  0  0  0  0  0  0  0  0  0
   37.6330   21.7860   40.1370 C   0  0  0  0  0  0  0  0  0  0  0  0
   36.8070   22.5180   39.3550 N   0  0  0  0  0  0  0  0  0  0  0  0
   36.8970   23.8200   39.6910 C   0  0  0  0  0  0  0  0  0  0  0  0
   36.2960   24.9710   39.2380 C   0  0  0  0  0  0  0  0  0  0  0  0
   36.1180   27.1050   39.4320 H   0  0  0  0  0  0  0  0  0  0  0  0
   38.8250   25.1920   42.0740 H   0  0  0  0  0  0  0  0  0  0  0  0
   38.9850   22.3680   41.7380 H   0  0  0  0  0  0  0  0  0  0  0  0
   37.8030   20.7150   40.1310 H   0  0  0  0  0  0  0  0  0  0  0  0
   35.5770   24.9130   38.4320 H   0  0  0  0  0  0  0  0  0  0  0  0
   38.1540   29.9820   41.2560 C   0  0  0  0  0  0  0  0  0  0  0  0
   37.8800   28.7540   40.6100 C   0  0  0  0  0  0  0  0  0  0  0  0
   37.7980   27.6110   41.3810 C   0  0  0  0  0  0  0  0  0  0  0  0
   37.9840   27.7080   42.7230 N   0  0  0  0  0  0  0  0  0  0  0  0
   38.2450   28.8990   43.3190 C   0  0  0  0  0  0  0  0  0  0  0  0
   38.3270   30.0100   42.5910 N   0  0  0  0  0  0  0  0  0  0  0  0
   37.7320   28.6780   39.5390 H   0  0  0  0  0  0  0  0  0  0  0  0
   38.3960   29.0080   44.3770 H   0  0  0  0  0  0  0  0  0  0  0  0
   38.2390   31.1240   40.4910 O   0  0  0  0  0  0  0  0  0  0  0  0
   36.9800   31.7650   40.2370 C   0  0  0  0  0  0  0  0  0  0  0  0
   36.6400   31.5200   38.9080 F   0  0  0  0  0  0  0  0  0  0  0  0
   37.2700   33.1260   40.3790 F   0  0  0  0  0  0  0  0  0  0  0  0
   36.0080   31.4000   41.1200 F   0  0  0  0  0  0  0  0  0  0  0  0
  1  2  1  0  0  0  0
  2  3  2  0  0  0  0
  2 17  1  0  0  0  0
  3 11  1  0  0  0  0
  4  5  1  0  0  0  0
  4  3  1  0  0  0  0
  5 12  1  0  0  0  0
  6  5  1  0  0  0  0
  7  8  1  0  0  0  0
  7  6  2  0  0  0  0
  8  4  2  0  0  0  0
  9  8  1  0  0  0  0
  9  1  2  0  0  0  0
 10  1  1  0  0  0  0
 13  6  1  0  0  0  0
 14  9  1  0  0  0  0
 15 20  1  0  0  0  0
 16 15  2  0  0  0  0
 16 17  1  0  0  0  0
 17 18  2  0  0  0  0
 18 19  1  0  0  0  0
 19 22  1  0  0  0  0
 20 19  2  0  0  0  0
 21 16  1  0  0  0  0
 23 15  1  0  0  0  0
 24 26  1  0  0  0  0
 24 23  1  0  0  0  0
 24 27  1  0  0  0  0
 25 24  1  0  0  0  0
M  END
>  <minimizedAffinity>
-4.94772816

$$$$
