
 OpenBabel03252501363D

 20 20  0  0  0  0  0  0  0  0999 V2000
   36.3890   28.7220   41.3920 C   0  0  0  0  0  0  0  0  0  0  0  0
   36.9320   28.2120   42.5450 C   0  0  0  0  0  0  0  0  0  0  0  0
   37.3140   26.8750   42.5020 C   0  0  0  0  0  0  0  0  0  0  0  0
   37.1290   26.1980   41.3610 N   0  0  0  0  0  0  0  0  0  0  0  0
   36.5950   26.7330   40.2520 C   0  0  0  0  0  0  0  0  0  0  0  0
   36.2070   28.0360   40.2520 N   0  0  0  0  0  0  0  0  0  0  0  0
   37.7420   26.4680   43.4090 H   0  0  0  0  0  0  0  0  0  0  0  0
   36.4820   26.1110   39.3750 H   0  0  0  0  0  0  0  0  0  0  0  0
   37.0360   30.8980   40.8200 C   0  0  0  0  0  0  0  0  0  0  0  0
   38.1180   30.2320   40.7010 O   0  0  0  0  0  0  0  0  0  0  0  0
   35.9270   30.0950   41.2360 N   0  0  0  0  0  0  0  0  0  0  0  0
   34.9970   30.5070   41.3760 H   0  0  0  0  0  0  0  0  0  0  0  0
   36.9000   32.2720   40.5810 O   0  0  0  0  0  0  0  0  0  0  0  0
   37.3250   32.8000   39.3350 C   0  0  0  0  0  0  0  0  0  0  0  0
   38.7070   33.0020   39.3380 F   0  0  0  0  0  0  0  0  0  0  0  0
   36.9320   31.9730   38.3060 F   0  0  0  0  0  0  0  0  0  0  0  0
   36.7740   34.0660   39.2650 F   0  0  0  0  0  0  0  0  0  0  0  0
   37.0490   29.0730   43.6520 N   0  0  0  0  0  0  0  0  0  0  0  0
   36.4610   28.9050   44.5000 H   0  0  0  0  0  0  0  0  0  0  0  0
   37.6910   29.8950   43.7100 H   0  0  0  0  0  0  0  0  0  0  0  0
  1  2  1  0  0  0  0
  2 18  1  0  0  0  0
  3  2  2  0  0  0  0
  3  7  1  0  0  0  0
  4  3  1  0  0  0  0
  5  6  1  0  0  0  0
  5  4  2  0  0  0  0
  6  1  2  0  0  0  0
  8  5  1  0  0  0  0
  9 11  1  0  0  0  0
 10  9  2  0  0  0  0
 11 12  1  0  0  0  0
 11  1  1  0  0  0  0
 13  9  1  0  0  0  0
 14 15  1  0  0  0  0
 14 13  1  0  0  0  0
 16 14  1  0  0  0  0
 17 14  1  0  0  0  0
 18 20  1  0  0  0  0
 18 19  1  0  0  0  0
M  END
>  <minimizedAffinity>
-4.80050707

$$$$

 OpenBabel03252501363D

 20 20  0  0  0  0  0  0  0  0999 V2000
   36.5990   29.8350   39.3880 C   0  0  0  0  0  0  0  0  0  0  0  0
   36.4380   30.9800   40.1270 C   0  0  0  0  0  0  0  0  0  0  0  0
   36.9590   32.1440   39.5720 C   0  0  0  0  0  0  0  0  0  0  0  0
   37.5680   32.0640   38.3810 N   0  0  0  0  0  0  0  0  0  0  0  0
   37.7070   30.9230   37.6880 C   0  0  0  0  0  0  0  0  0  0  0  0
   37.2120   29.7620   38.1950 N   0  0  0  0  0  0  0  0  0  0  0  0
   36.8340   33.0500   40.1520 H   0  0  0  0  0  0  0  0  0  0  0  0
   38.2130   30.9500   36.7340 H   0  0  0  0  0  0  0  0  0  0  0  0
   37.1420   27.9020   40.5930 C   0  0  0  0  0  0  0  0  0  0  0  0
   38.1770   28.6350   40.7360 O   0  0  0  0  0  0  0  0  0  0  0  0
   36.1260   28.5180   39.7950 N   0  0  0  0  0  0  0  0  0  0  0  0
   35.2430   28.0350   39.5960 H   0  0  0  0  0  0  0  0  0  0  0  0
   36.9730   26.6230   41.1390 O   0  0  0  0  0  0  0  0  0  0  0  0
   36.9490   26.4730   42.5500 C   0  0  0  0  0  0  0  0  0  0  0  0
   38.2490   26.4740   43.0610 F   0  0  0  0  0  0  0  0  0  0  0  0
   36.1740   27.4590   43.1210 F   0  0  0  0  0  0  0  0  0  0  0  0
   36.4700   25.1970   42.7760 F   0  0  0  0  0  0  0  0  0  0  0  0
   35.7700   30.8760   41.3610 N   0  0  0  0  0  0  0  0  0  0  0  0
   36.3020   31.0290   42.2480 H   0  0  0  0  0  0  0  0  0  0  0  0
   34.7570   30.6520   41.4810 H   0  0  0  0  0  0  0  0  0  0  0  0
  1 11  1  0  0  0  0
  1  2  1  0  0  0  0
  2 18  1  0  0  0  0
  3  2  2  0  0  0  0
  3  7  1  0  0  0  0
  4  3  1  0  0  0  0
  5  6  1  0  0  0  0
  5  4  2  0  0  0  0
  6  1  2  0  0  0  0
  8  5  1  0  0  0  0
  9 10  2  0  0  0  0
  9 13  1  0  0  0  0
 11  9  1  0  0  0  0
 12 11  1  0  0  0  0
 13 14  1  0  0  0  0
 14 17  1  0  0  0  0
 14 15  1  0  0  0  0
 14 16  1  0  0  0  0
 18 20  1  0  0  0  0
 18 19  1  0  0  0  0
M  END
>  <minimizedAffinity>
-4.50698709

$$$$

 OpenBabel03252501363D

 20 20  0  0  0  0  0  0  0  0999 V2000
   38.2430   31.3400   40.4910 C   0  0  0  0  0  0  0  0  0  0  0  0
   39.0160   32.2310   41.1940 C   0  0  0  0  0  0  0  0  0  0  0  0
   38.8720   33.5700   40.8480 C   0  0  0  0  0  0  0  0  0  0  0  0
   38.0070   33.8870   39.8750 N   0  0  0  0  0  0  0  0  0  0  0  0
   37.2680   32.9850   39.2100 C   0  0  0  0  0  0  0  0  0  0  0  0
   37.3780   31.6650   39.5170 N   0  0  0  0  0  0  0  0  0  0  0  0
   39.4810   34.2760   41.3990 H   0  0  0  0  0  0  0  0  0  0  0  0
   36.5940   33.3300   38.4380 H   0  0  0  0  0  0  0  0  0  0  0  0
   37.0580   29.5420   41.4100 C   0  0  0  0  0  0  0  0  0  0  0  0
   36.3170   30.5460   41.6770 O   0  0  0  0  0  0  0  0  0  0  0  0
   38.2490   29.8980   40.7020 N   0  0  0  0  0  0  0  0  0  0  0  0
   38.9370   29.1860   40.4300 H   0  0  0  0  0  0  0  0  0  0  0  0
   36.7770   28.2140   41.7550 O   0  0  0  0  0  0  0  0  0  0  0  0
   37.2000   27.7240   43.0180 C   0  0  0  0  0  0  0  0  0  0  0  0
   37.9180   26.5360   42.8640 F   0  0  0  0  0  0  0  0  0  0  0  0
   37.9350   28.6830   43.6800 F   0  0  0  0  0  0  0  0  0  0  0  0
   36.0410   27.3650   43.6800 F   0  0  0  0  0  0  0  0  0  0  0  0
   39.8730   31.7170   42.1850 N   0  0  0  0  0  0  0  0  0  0  0  0
   40.9080   31.7640   42.0460 H   0  0  0  0  0  0  0  0  0  0  0  0
   39.5630   31.2750   43.0790 H   0  0  0  0  0  0  0  0  0  0  0  0
  1 11  1  0  0  0  0
  1  2  1  0  0  0  0
  2 18  1  0  0  0  0
  3  2  2  0  0  0  0
  3  7  1  0  0  0  0
  4  3  1  0  0  0  0
  5  6  1  0  0  0  0
  5  4  2  0  0  0  0
  6  1  2  0  0  0  0
  8  5  1  0  0  0  0
  9 10  2  0  0  0  0
  9 13  1  0  0  0  0
 11  9  1  0  0  0  0
 12 11  1  0  0  0  0
 13 14  1  0  0  0  0
 14 16  1  0  0  0  0
 14 17  1  0  0  0  0
 15 14  1  0  0  0  0
 18 20  1  0  0  0  0
 19 18  1  0  0  0  0
M  END
>  <minimizedAffinity>
-4.46700859

$$$$

 OpenBabel03252501363D

 20 20  0  0  0  0  0  0  0  0999 V2000
   38.1930   31.0520   41.2950 C   0  0  0  0  0  0  0  0  0  0  0  0
   37.0560   31.5730   40.7280 C   0  0  0  0  0  0  0  0  0  0  0  0
   37.2440   32.6270   39.8410 C   0  0  0  0  0  0  0  0  0  0  0  0
   38.4940   33.0490   39.6090 N   0  0  0  0  0  0  0  0  0  0  0  0
   39.5820   32.5130   40.1840 C   0  0  0  0  0  0  0  0  0  0  0  0
   39.4430   31.4810   41.0580 N   0  0  0  0  0  0  0  0  0  0  0  0
   36.3500   33.0420   39.3910 H   0  0  0  0  0  0  0  0  0  0  0  0
   40.5550   32.9170   39.9380 H   0  0  0  0  0  0  0  0  0  0  0  0
   38.3250   28.7260   41.5150 C   0  0  0  0  0  0  0  0  0  0  0  0
   38.3790   28.9020   40.2520 O   0  0  0  0  0  0  0  0  0  0  0  0
   38.2070   29.9490   42.2470 N   0  0  0  0  0  0  0  0  0  0  0  0
   38.1480   29.9500   43.2720 H   0  0  0  0  0  0  0  0  0  0  0  0
   38.3730   27.4840   42.1620 O   0  0  0  0  0  0  0  0  0  0  0  0
   37.1570   26.8250   42.4820 C   0  0  0  0  0  0  0  0  0  0  0  0
   37.3500   25.4430   42.5230 F   0  0  0  0  0  0  0  0  0  0  0  0
   36.6520   27.3060   43.6700 F   0  0  0  0  0  0  0  0  0  0  0  0
   36.3260   27.0440   41.4000 F   0  0  0  0  0  0  0  0  0  0  0  0
   35.8210   31.0030   41.0900 N   0  0  0  0  0  0  0  0  0  0  0  0
   35.1420   31.5630   41.6540 H   0  0  0  0  0  0  0  0  0  0  0  0
   35.5070   30.0380   40.8420 H   0  0  0  0  0  0  0  0  0  0  0  0
  1 11  1  0  0  0  0
  2 18  1  0  0  0  0
  2  1  2  0  0  0  0
  3  2  1  0  0  0  0
  4  3  2  0  0  0  0
  4  5  1  0  0  0  0
  5  6  2  0  0  0  0
  6  1  1  0  0  0  0
  7  3  1  0  0  0  0
  8  5  1  0  0  0  0
  9 13  1  0  0  0  0
  9 11  1  0  0  0  0
 10  9  2  0  0  0  0
 11 12  1  0  0  0  0
 13 14  1  0  0  0  0
 14 15  1  0  0  0  0
 14 16  1  0  0  0  0
 17 14  1  0  0  0  0
 18 19  1  0  0  0  0
 20 18  1  0  0  0  0
M  END
>  <minimizedAffinity>
-4.42733669

$$$$

 OpenBabel03252501363D

 20 20  0  0  0  0  0  0  0  0999 V2000
   36.9670   28.7720   42.0320 C   0  0  0  0  0  0  0  0  0  0  0  0
   36.8060   27.7120   41.1750 C   0  0  0  0  0  0  0  0  0  0  0  0
   37.3710   26.5080   41.5800 C   0  0  0  0  0  0  0  0  0  0  0  0
   38.0170   26.4710   42.7540 N   0  0  0  0  0  0  0  0  0  0  0  0
   38.1520   27.5310   43.5650 C   0  0  0  0  0  0  0  0  0  0  0  0
   37.6160   28.7280   43.2060 N   0  0  0  0  0  0  0  0  0  0  0  0
   37.2480   25.6680   40.9070 H   0  0  0  0  0  0  0  0  0  0  0  0
   38.6910   27.4120   44.4950 H   0  0  0  0  0  0  0  0  0  0  0  0
   37.4180   30.8330   41.0170 C   0  0  0  0  0  0  0  0  0  0  0  0
   38.4590   30.1440   40.7510 O   0  0  0  0  0  0  0  0  0  0  0  0
   36.4510   30.1130   41.7880 N   0  0  0  0  0  0  0  0  0  0  0  0
   35.5690   30.5530   42.0760 H   0  0  0  0  0  0  0  0  0  0  0  0
   37.2010   32.1590   40.6180 O   0  0  0  0  0  0  0  0  0  0  0  0
   37.2970   32.4890   39.2410 C   0  0  0  0  0  0  0  0  0  0  0  0
   38.6340   32.6430   38.8710 F   0  0  0  0  0  0  0  0  0  0  0  0
   36.6600   31.5370   38.4760 F   0  0  0  0  0  0  0  0  0  0  0  0
   36.7410   33.7490   39.1270 F   0  0  0  0  0  0  0  0  0  0  0  0
   36.0970   27.9350   39.9800 N   0  0  0  0  0  0  0  0  0  0  0  0
   36.6020   27.8950   39.0660 H   0  0  0  0  0  0  0  0  0  0  0  0
   35.0760   28.1450   39.9160 H   0  0  0  0  0  0  0  0  0  0  0  0
  1  6  1  0  0  0  0
  2  3  1  0  0  0  0
  2  1  2  0  0  0  0
  3  4  2  0  0  0  0
  4  5  1  0  0  0  0
  5  8  1  0  0  0  0
  6  5  2  0  0  0  0
  7  3  1  0  0  0  0
  9 11  1  0  0  0  0
 10  9  2  0  0  0  0
 11  1  1  0  0  0  0
 11 12  1  0  0  0  0
 13  9  1  0  0  0  0
 14 13  1  0  0  0  0
 15 14  1  0  0  0  0
 16 14  1  0  0  0  0
 17 14  1  0  0  0  0
 18  2  1  0  0  0  0
 19 18  1  0  0  0  0
 20 18  1  0  0  0  0
M  END
>  <minimizedAffinity>
-4.37985277

$$$$

 OpenBabel03252501363D

 20 20  0  0  0  0  0  0  0  0999 V2000
   41.2170   33.5830   38.7090 C   0  0  0  0  0  0  0  0  0  0  0  0
   41.4310   32.8960   37.5390 C   0  0  0  0  0  0  0  0  0  0  0  0
   42.7550   32.7810   37.1310 C   0  0  0  0  0  0  0  0  0  0  0  0
   43.7060   33.3360   37.8940 N   0  0  0  0  0  0  0  0  0  0  0  0
   43.4570   34.0000   39.0330 C   0  0  0  0  0  0  0  0  0  0  0  0
   42.1760   34.1370   39.4680 N   0  0  0  0  0  0  0  0  0  0  0  0
   42.9280   32.2410   36.2080 H   0  0  0  0  0  0  0  0  0  0  0  0
   44.2880   34.4170   39.5870 H   0  0  0  0  0  0  0  0  0  0  0  0
   39.5740   32.6810   40.1110 C   0  0  0  0  0  0  0  0  0  0  0  0
   40.4780   31.7790   40.1040 O   0  0  0  0  0  0  0  0  0  0  0  0
   39.9060   33.8130   39.3010 N   0  0  0  0  0  0  0  0  0  0  0  0
   39.2630   34.6080   39.2130 H   0  0  0  0  0  0  0  0  0  0  0  0
   38.3670   32.6130   40.8190 O   0  0  0  0  0  0  0  0  0  0  0  0
   37.1920   32.1960   40.1430 C   0  0  0  0  0  0  0  0  0  0  0  0
   37.5140   31.3310   39.0950 F   0  0  0  0  0  0  0  0  0  0  0  0
   36.3100   31.6180   41.0290 F   0  0  0  0  0  0  0  0  0  0  0  0
   36.6950   33.3340   39.5350 F   0  0  0  0  0  0  0  0  0  0  0  0
   40.3070   32.3800   36.8660 N   0  0  0  0  0  0  0  0  0  0  0  0
   40.0300   32.7840   35.9430 H   0  0  0  0  0  0  0  0  0  0  0  0
   39.7000   31.6050   37.2150 H   0  0  0  0  0  0  0  0  0  0  0  0
  1 11  1  0  0  0  0
  1  6  1  0  0  0  0
  2  1  2  0  0  0  0
  3  2  1  0  0  0  0
  3  4  2  0  0  0  0
  4  5  1  0  0  0  0
  5  6  2  0  0  0  0
  5  8  1  0  0  0  0
  7  3  1  0  0  0  0
  9 13  1  0  0  0  0
 10  9  2  0  0  0  0
 11  9  1  0  0  0  0
 12 11  1  0  0  0  0
 14 13  1  0  0  0  0
 14 16  1  0  0  0  0
 15 14  1  0  0  0  0
 17 14  1  0  0  0  0
 18 20  1  0  0  0  0
 18  2  1  0  0  0  0
 19 18  1  0  0  0  0
M  END
>  <minimizedAffinity>
-4.376966

$$$$

 OpenBabel03252501363D

 20 20  0  0  0  0  0  0  0  0999 V2000
   37.3240   29.1240   42.3840 C   0  0  0  0  0  0  0  0  0  0  0  0
   38.6050   29.0680   42.8750 C   0  0  0  0  0  0  0  0  0  0  0  0
   39.0680   27.8060   43.2310 C   0  0  0  0  0  0  0  0  0  0  0  0
   38.2470   26.7590   43.0730 N   0  0  0  0  0  0  0  0  0  0  0  0
   36.9990   26.8550   42.5890 C   0  0  0  0  0  0  0  0  0  0  0  0
   36.5070   28.0700   42.2290 N   0  0  0  0  0  0  0  0  0  0  0  0
   40.0780   27.7560   43.6190 H   0  0  0  0  0  0  0  0  0  0  0  0
   36.4050   25.9560   42.4950 H   0  0  0  0  0  0  0  0  0  0  0  0
   37.0780   30.6470   40.6240 C   0  0  0  0  0  0  0  0  0  0  0  0
   37.9100   29.7970   40.1590 O   0  0  0  0  0  0  0  0  0  0  0  0
   36.6580   30.3480   41.9580 N   0  0  0  0  0  0  0  0  0  0  0  0
   35.9950   30.9550   42.4540 H   0  0  0  0  0  0  0  0  0  0  0  0
   36.5990   31.7700   39.9360 O   0  0  0  0  0  0  0  0  0  0  0  0
   37.4720   32.8660   39.7110 C   0  0  0  0  0  0  0  0  0  0  0  0
   36.7460   33.9920   39.3170 F   0  0  0  0  0  0  0  0  0  0  0  0
   38.2280   33.1120   40.8360 F   0  0  0  0  0  0  0  0  0  0  0  0
   38.2240   32.5150   38.6070 F   0  0  0  0  0  0  0  0  0  0  0  0
   39.3240   30.2740   42.9730 N   0  0  0  0  0  0  0  0  0  0  0  0
   39.5610   30.6560   43.9160 H   0  0  0  0  0  0  0  0  0  0  0  0
   39.6550   30.8450   42.1630 H   0  0  0  0  0  0  0  0  0  0  0  0
  1  2  1  0  0  0  0
  2 18  1  0  0  0  0
  2  3  2  0  0  0  0
  3  7  1  0  0  0  0
  4  3  1  0  0  0  0
  5  4  2  0  0  0  0
  6  1  2  0  0  0  0
  6  5  1  0  0  0  0
  8  5  1  0  0  0  0
  9 11  1  0  0  0  0
 10  9  2  0  0  0  0
 11  1  1  0  0  0  0
 11 12  1  0  0  0  0
 13  9  1  0  0  0  0
 14 13  1  0  0  0  0
 14 16  1  0  0  0  0
 15 14  1  0  0  0  0
 17 14  1  0  0  0  0
 18 19  1  0  0  0  0
 20 18  1  0  0  0  0
M  END
>  <minimizedAffinity>
-4.3604846

$$$$

 OpenBabel03252501363D

 20 20  0  0  0  0  0  0  0  0999 V2000
   39.1830   32.1010   40.1700 C   0  0  0  0  0  0  0  0  0  0  0  0
   39.4050   33.4410   40.3690 C   0  0  0  0  0  0  0  0  0  0  0  0
   40.3260   34.0400   39.5170 C   0  0  0  0  0  0  0  0  0  0  0  0
   40.9170   33.2820   38.5840 N   0  0  0  0  0  0  0  0  0  0  0  0
   40.6730   31.9730   38.4210 C   0  0  0  0  0  0  0  0  0  0  0  0
   39.7800   31.3470   39.2330 N   0  0  0  0  0  0  0  0  0  0  0  0
   40.5050   35.0980   39.6700 H   0  0  0  0  0  0  0  0  0  0  0  0
   41.1970   31.4370   37.6410 H   0  0  0  0  0  0  0  0  0  0  0  0
   36.9590   31.3990   40.3700 C   0  0  0  0  0  0  0  0  0  0  0  0
   36.9340   32.1550   39.3420 O   0  0  0  0  0  0  0  0  0  0  0  0
   38.2590   31.2940   40.9570 N   0  0  0  0  0  0  0  0  0  0  0  0
   38.4180   30.7210   41.7930 H   0  0  0  0  0  0  0  0  0  0  0  0
   35.8540   30.7230   40.9040 O   0  0  0  0  0  0  0  0  0  0  0  0
   35.5840   29.3970   40.4780 C   0  0  0  0  0  0  0  0  0  0  0  0
   34.2310   29.2540   40.1630 F   0  0  0  0  0  0  0  0  0  0  0  0
   36.3940   29.0630   39.4140 F   0  0  0  0  0  0  0  0  0  0  0  0
   35.7830   28.6050   41.5920 F   0  0  0  0  0  0  0  0  0  0  0  0
   38.6920   34.0780   41.4020 N   0  0  0  0  0  0  0  0  0  0  0  0
   39.2060   34.4240   42.2440 H   0  0  0  0  0  0  0  0  0  0  0  0
   37.6610   34.2450   41.4080 H   0  0  0  0  0  0  0  0  0  0  0  0
  1  2  1  0  0  0  0
  1 11  1  0  0  0  0
  2 18  1  0  0  0  0
  3  7  1  0  0  0  0
  3  2  2  0  0  0  0
  4  3  1  0  0  0  0
  5  4  2  0  0  0  0
  5  6  1  0  0  0  0
  6  1  2  0  0  0  0
  8  5  1  0  0  0  0
  9 13  1  0  0  0  0
  9 11  1  0  0  0  0
 10  9  2  0  0  0  0
 11 12  1  0  0  0  0
 14 13  1  0  0  0  0
 14 17  1  0  0  0  0
 15 14  1  0  0  0  0
 16 14  1  0  0  0  0
 18 20  1  0  0  0  0
 18 19  1  0  0  0  0
M  END
>  <minimizedAffinity>
-4.27414846

$$$$

 OpenBabel03252501363D

 20 20  0  0  0  0  0  0  0  0999 V2000
   38.0730   29.3120   42.0760 C   0  0  0  0  0  0  0  0  0  0  0  0
   36.9760   28.4860   42.0960 C   0  0  0  0  0  0  0  0  0  0  0  0
   37.1380   27.2700   42.7500 C   0  0  0  0  0  0  0  0  0  0  0  0
   38.3290   26.9980   43.3020 N   0  0  0  0  0  0  0  0  0  0  0  0
   39.3790   27.8320   43.2610 C   0  0  0  0  0  0  0  0  0  0  0  0
   39.2630   29.0320   42.6320 N   0  0  0  0  0  0  0  0  0  0  0  0
   36.2760   26.6150   42.7680 H   0  0  0  0  0  0  0  0  0  0  0  0
   40.3030   27.5310   43.7340 H   0  0  0  0  0  0  0  0  0  0  0  0
   38.4100   30.4460   40.0560 C   0  0  0  0  0  0  0  0  0  0  0  0
   38.5790   29.2220   39.7350 O   0  0  0  0  0  0  0  0  0  0  0  0
   38.1050   30.6230   41.4430 N   0  0  0  0  0  0  0  0  0  0  0  0
   37.9510   31.5590   41.8360 H   0  0  0  0  0  0  0  0  0  0  0  0
   38.5040   31.5340   39.1790 O   0  0  0  0  0  0  0  0  0  0  0  0
   37.3340   31.9920   38.5200 C   0  0  0  0  0  0  0  0  0  0  0  0
   36.9040   33.1990   39.0750 F   0  0  0  0  0  0  0  0  0  0  0  0
   37.5630   32.1050   37.1660 F   0  0  0  0  0  0  0  0  0  0  0  0
   36.3510   31.0760   38.8370 F   0  0  0  0  0  0  0  0  0  0  0  0
   35.8030   28.9370   41.4620 N   0  0  0  0  0  0  0  0  0  0  0  0
   35.4700   28.4570   40.5950 H   0  0  0  0  0  0  0  0  0  0  0  0
   35.2130   29.7360   41.7850 H   0  0  0  0  0  0  0  0  0  0  0  0
  1  2  2  0  0  0  0
  1  6  1  0  0  0  0
  2  3  1  0  0  0  0
  3  7  1  0  0  0  0
  3  4  2  0  0  0  0
  5  4  1  0  0  0  0
  5  8  1  0  0  0  0
  6  5  2  0  0  0  0
  9 11  1  0  0  0  0
 10  9  2  0  0  0  0
 11 12  1  0  0  0  0
 11  1  1  0  0  0  0
 13  9  1  0  0  0  0
 14 17  1  0  0  0  0
 14 15  1  0  0  0  0
 14 13  1  0  0  0  0
 16 14  1  0  0  0  0
 18 20  1  0  0  0  0
 18  2  1  0  0  0  0
 19 18  1  0  0  0  0
M  END
>  <minimizedAffinity>
-4.10528517

$$$$
