
 OpenBabel03252509313D

 22 22  0  0  0  0  0  0  0  0999 V2000
   46.5040   34.2280   42.3330 C   0  0  0  0  0  0  0  0  0  0  0  0
   46.1380   33.2220   42.0370 H   0  0  0  0  0  0  0  0  0  0  0  0
   46.1510   34.9320   41.5620 H   0  0  0  0  0  0  0  0  0  0  0  0
   45.3330   34.0420   45.8720 C   0  0  0  0  0  0  0  0  0  0  0  0
   45.9840   33.7130   44.6680 C   0  0  0  0  0  0  0  0  0  0  0  0
   45.8300   34.5600   43.5950 C   0  0  0  0  0  0  0  0  0  0  0  0
   45.0530   35.6910   43.7280 N   0  0  0  0  0  0  0  0  0  0  0  0
   44.4360   35.9780   44.9120 C   0  0  0  0  0  0  0  0  0  0  0  0
   44.5830   35.1610   45.9520 N   0  0  0  0  0  0  0  0  0  0  0  0
   45.4040   33.4340   46.7530 H   0  0  0  0  0  0  0  0  0  0  0  0
   46.5600   32.8170   44.6690 H   0  0  0  0  0  0  0  0  0  0  0  0
   43.8590   36.8960   44.8740 H   0  0  0  0  0  0  0  0  0  0  0  0
   47.8890   34.2020   42.4870 O   0  0  0  0  0  0  0  0  0  0  0  0
   49.6130   33.2260   40.7830 O   0  0  0  0  0  0  0  0  0  0  0  0
   48.5510   34.2840   40.9320 P   0  0  2  0  0  0  0  0  0  0  0  0
   49.1610   35.8550   40.7470 O   0  0  0  0  0  0  0  0  0  0  0  0
   50.1190   35.8590   40.4730 H   0  0  0  0  0  0  0  0  0  0  0  0
   47.3360   33.9970   39.8110 O   0  0  0  0  0  0  0  0  0  0  0  0
   47.8640   33.8940   38.5170 C   0  0  0  0  0  0  0  0  0  0  0  0
   48.6830   32.7810   38.4670 F   0  0  0  0  0  0  0  0  0  0  0  0
   48.6240   35.0360   38.2410 F   0  0  0  0  0  0  0  0  0  0  0  0
   46.8590   33.8100   37.5970 F   0  0  0  0  0  0  0  0  0  0  0  0
  1 13  1  0  0  0  0
  1  6  1  0  0  0  0
  2  1  1  0  0  0  0
  3  1  1  0  0  0  0
  4  9  1  0  0  0  0
  4 10  1  0  0  0  0
  5 11  1  0  0  0  0
  5  4  2  0  0  0  0
  6  7  2  0  0  0  0
  6  5  1  0  0  0  0
  7  8  1  0  0  0  0
  8  9  2  0  0  0  0
 12  8  1  0  0  0  0
 15 14  2  6  0  0  0
 15 13  1  0  0  0  0
 16 15  1  0  0  0  0
 17 16  1  0  0  0  0
 18 15  1  0  0  0  0
 19 18  1  0  0  0  0
 20 19  1  0  0  0  0
 21 19  1  0  0  0  0
 22 19  1  0  0  0  0
M  END
>  <minimizedAffinity>
-4.16811657

>  <minimizedRMSD>
1.82015693

$$$$
