
 OpenBabel03242517053D

 28 29  0  0  0  0  0  0  0  0999 V2000
   37.3740   31.4650   39.8780 C   0  0  0  0  0  0  0  0  0  0  0  0
   37.2460   32.7770   39.4540 C   0  0  0  0  0  0  0  0  0  0  0  0
   38.1360   33.7140   39.9360 C   0  0  0  0  0  0  0  0  0  0  0  0
   39.1100   33.3480   40.8070 C   0  0  0  0  0  0  0  0  0  0  0  0
   39.2640   32.0450   41.2500 C   0  0  0  0  0  0  0  0  0  0  0  0
   38.3530   31.1110   40.7510 C   0  0  0  0  0  0  0  0  0  0  0  0
   36.4800   33.1010   38.7600 H   0  0  0  0  0  0  0  0  0  0  0  0
   38.1210   34.7570   39.6680 H   0  0  0  0  0  0  0  0  0  0  0  0
   39.8590   34.0170   41.2430 H   0  0  0  0  0  0  0  0  0  0  0  0
   39.9840   31.6330   41.9280 H   0  0  0  0  0  0  0  0  0  0  0  0
   35.3450   29.2130   37.6270 C   0  0  0  0  0  0  0  0  0  0  0  0
   36.3390   30.1400   38.0220 C   0  0  0  0  0  0  0  0  0  0  0  0
   36.3990   30.5170   39.3340 C   0  0  0  0  0  0  0  0  0  0  0  0
   35.4870   29.9700   40.1940 N   0  0  0  0  0  0  0  0  0  0  0  0
   34.5400   29.0880   39.8230 C   0  0  0  0  0  0  0  0  0  0  0  0
   34.4690   28.7030   38.5190 N   0  0  0  0  0  0  0  0  0  0  0  0
   35.3070   28.9250   36.5960 H   0  0  0  0  0  0  0  0  0  0  0  0
   37.0500   30.5600   37.3250 H   0  0  0  0  0  0  0  0  0  0  0  0
   33.8440   28.6860   40.5420 H   0  0  0  0  0  0  0  0  0  0  0  0
   38.3610   29.0270   42.3250 C   0  0  0  0  0  0  0  0  0  0  0  0
   38.3570   29.5160   43.4450 O   0  0  0  0  0  0  0  0  0  0  0  0
   38.3800   29.7500   41.1200 N   0  0  0  0  0  0  0  0  0  0  0  0
   38.4260   29.2490   40.1930 H   0  0  0  0  0  0  0  0  0  0  0  0
   38.3460   27.6330   42.2360 O   0  0  0  0  0  0  0  0  0  0  0  0
   37.0920   26.9940   42.0770 C   0  0  0  0  0  0  0  0  0  0  0  0
   36.8860   26.9030   40.7020 F   0  0  0  0  0  0  0  0  0  0  0  0
   37.0600   25.7330   42.6380 F   0  0  0  0  0  0  0  0  0  0  0  0
   36.0380   27.7460   42.5630 F   0  0  0  0  0  0  0  0  0  0  0  0
  1  6  1  0  0  0  0
  2  1  2  0  0  0  0
  2  3  1  0  0  0  0
  3  4  2  0  0  0  0
  4  9  1  0  0  0  0
  4  5  1  0  0  0  0
  5 10  1  0  0  0  0
  6 22  1  0  0  0  0
  6  5  2  0  0  0  0
  7  2  1  0  0  0  0
  8  3  1  0  0  0  0
 11 12  2  0  0  0  0
 11 16  1  0  0  0  0
 12 13  1  0  0  0  0
 13  1  1  0  0  0  0
 13 14  2  0  0  0  0
 15 14  1  0  0  0  0
 15 19  1  0  0  0  0
 16 15  2  0  0  0  0
 17 11  1  0  0  0  0
 18 12  1  0  0  0  0
 20 21  2  0  0  0  0
 22 20  1  0  0  0  0
 23 22  1  0  0  0  0
 24 20  1  0  0  0  0
 25 24  1  0  0  0  0
 25 28  1  0  0  0  0
 25 27  1  0  0  0  0
 26 25  1  0  0  0  0
M  END
>  <minimizedAffinity>
-5.24625397

$$$$

 OpenBabel03242517053D

 28 29  0  0  0  0  0  0  0  0999 V2000
   37.0200   28.3380   41.1140 C   0  0  0  0  0  0  0  0  0  0  0  0
   36.9410   26.9920   41.4280 C   0  0  0  0  0  0  0  0  0  0  0  0
   37.3310   26.5870   42.6880 C   0  0  0  0  0  0  0  0  0  0  0  0
   37.7800   27.4960   43.5900 C   0  0  0  0  0  0  0  0  0  0  0  0
   37.8700   28.8480   43.3060 C   0  0  0  0  0  0  0  0  0  0  0  0
   37.4710   29.2380   42.0250 C   0  0  0  0  0  0  0  0  0  0  0  0
   36.5880   26.2430   40.7310 H   0  0  0  0  0  0  0  0  0  0  0  0
   37.3080   25.5660   43.0300 H   0  0  0  0  0  0  0  0  0  0  0  0
   38.1110   27.2710   44.6100 H   0  0  0  0  0  0  0  0  0  0  0  0
   38.2040   29.6570   43.9250 H   0  0  0  0  0  0  0  0  0  0  0  0
   35.0180   29.1610   38.0200 C   0  0  0  0  0  0  0  0  0  0  0  0
   35.2910   28.7930   39.3600 C   0  0  0  0  0  0  0  0  0  0  0  0
   36.5940   28.7070   39.7620 C   0  0  0  0  0  0  0  0  0  0  0  0
   37.5640   28.9850   38.8370 N   0  0  0  0  0  0  0  0  0  0  0  0
   37.3080   29.3360   37.5630 C   0  0  0  0  0  0  0  0  0  0  0  0
   36.0140   29.4250   37.1480 N   0  0  0  0  0  0  0  0  0  0  0  0
   33.9930   29.2240   37.7150 H   0  0  0  0  0  0  0  0  0  0  0  0
   34.5090   28.5780   40.0730 H   0  0  0  0  0  0  0  0  0  0  0  0
   38.1110   29.5450   36.8740 H   0  0  0  0  0  0  0  0  0  0  0  0
   38.5060   31.4550   41.1090 C   0  0  0  0  0  0  0  0  0  0  0  0
   39.6930   31.1900   40.9990 O   0  0  0  0  0  0  0  0  0  0  0  0
   37.5170   30.5800   41.5900 N   0  0  0  0  0  0  0  0  0  0  0  0
   36.5190   30.9020   41.6950 H   0  0  0  0  0  0  0  0  0  0  0  0
   38.0970   32.7340   40.7250 O   0  0  0  0  0  0  0  0  0  0  0  0
   37.4280   32.8700   39.4840 C   0  0  0  0  0  0  0  0  0  0  0  0
   38.3880   32.6180   38.5070 F   0  0  0  0  0  0  0  0  0  0  0  0
   36.3760   31.9880   39.3450 F   0  0  0  0  0  0  0  0  0  0  0  0
   36.9870   34.1600   39.2480 F   0  0  0  0  0  0  0  0  0  0  0  0
  1  2  2  0  0  0  0
  1  6  1  0  0  0  0
  2  3  1  0  0  0  0
  3  8  1  0  0  0  0
  3  4  2  0  0  0  0
  4  9  1  0  0  0  0
  5  4  1  0  0  0  0
  5 10  1  0  0  0  0
  6  5  2  0  0  0  0
  7  2  1  0  0  0  0
 11 12  1  0  0  0  0
 12 13  2  0  0  0  0
 12 18  1  0  0  0  0
 13  1  1  0  0  0  0
 14 13  1  0  0  0  0
 15 14  2  0  0  0  0
 16 15  1  0  0  0  0
 16 11  2  0  0  0  0
 17 11  1  0  0  0  0
 19 15  1  0  0  0  0
 20 22  1  0  0  0  0
 21 20  2  0  0  0  0
 22 23  1  0  0  0  0
 22  6  1  0  0  0  0
 24 20  1  0  0  0  0
 25 24  1  0  0  0  0
 26 25  1  0  0  0  0
 27 25  1  0  0  0  0
 28 25  1  0  0  0  0
M  END
>  <minimizedAffinity>
-5.13029671

$$$$

 OpenBabel03242517053D

 28 29  0  0  0  0  0  0  0  0999 V2000
   37.4050   30.5210   38.1590 C   0  0  0  0  0  0  0  0  0  0  0  0
   37.2970   30.8200   36.8120 C   0  0  0  0  0  0  0  0  0  0  0  0
   36.8390   29.8400   35.9550 C   0  0  0  0  0  0  0  0  0  0  0  0
   36.5060   28.6150   36.4330 C   0  0  0  0  0  0  0  0  0  0  0  0
   36.6030   28.2850   37.7740 C   0  0  0  0  0  0  0  0  0  0  0  0
   37.0690   29.2900   38.6250 C   0  0  0  0  0  0  0  0  0  0  0  0
   37.5540   31.7870   36.4000 H   0  0  0  0  0  0  0  0  0  0  0  0
   36.7190   29.9730   34.8930 H   0  0  0  0  0  0  0  0  0  0  0  0
   36.1350   27.7760   35.8330 H   0  0  0  0  0  0  0  0  0  0  0  0
   36.3740   27.3640   38.2710 H   0  0  0  0  0  0  0  0  0  0  0  0
   37.8790   33.7740   40.0160 C   0  0  0  0  0  0  0  0  0  0  0  0
   37.2950   32.8180   39.1490 C   0  0  0  0  0  0  0  0  0  0  0  0
   37.8980   31.5990   39.0180 C   0  0  0  0  0  0  0  0  0  0  0  0
   39.0390   31.3740   39.7400 N   0  0  0  0  0  0  0  0  0  0  0  0
   39.5960   32.2800   40.5650 C   0  0  0  0  0  0  0  0  0  0  0  0
   39.0060   33.4990   40.7050 N   0  0  0  0  0  0  0  0  0  0  0  0
   37.3980   34.7270   40.1100 H   0  0  0  0  0  0  0  0  0  0  0  0
   36.3930   33.0180   38.5890 H   0  0  0  0  0  0  0  0  0  0  0  0
   40.4970   32.0510   41.1120 H   0  0  0  0  0  0  0  0  0  0  0  0
   36.3790   28.8810   41.1110 C   0  0  0  0  0  0  0  0  0  0  0  0
   35.1590   28.8570   41.0680 O   0  0  0  0  0  0  0  0  0  0  0  0
   37.2300   29.0960   40.0140 N   0  0  0  0  0  0  0  0  0  0  0  0
   38.2750   29.1450   40.1450 H   0  0  0  0  0  0  0  0  0  0  0  0
   36.9790   28.6780   42.3570 O   0  0  0  0  0  0  0  0  0  0  0  0
   37.0400   27.3530   42.8540 C   0  0  0  0  0  0  0  0  0  0  0  0
   35.9260   27.2080   43.6790 F   0  0  0  0  0  0  0  0  0  0  0  0
   37.0050   26.4040   41.8520 F   0  0  0  0  0  0  0  0  0  0  0  0
   38.1370   27.1310   43.6660 F   0  0  0  0  0  0  0  0  0  0  0  0
  1  6  1  0  0  0  0
  1 13  1  0  0  0  0
  2  1  2  0  0  0  0
  3  4  2  0  0  0  0
  3  2  1  0  0  0  0
  4  5  1  0  0  0  0
  5 10  1  0  0  0  0
  5  6  2  0  0  0  0
  6 22  1  0  0  0  0
  7  2  1  0  0  0  0
  8  3  1  0  0  0  0
  9  4  1  0  0  0  0
 11 17  1  0  0  0  0
 11 16  1  0  0  0  0
 12 11  2  0  0  0  0
 13 12  1  0  0  0  0
 13 14  2  0  0  0  0
 14 15  1  0  0  0  0
 15 16  2  0  0  0  0
 15 19  1  0  0  0  0
 18 12  1  0  0  0  0
 20 24  1  0  0  0  0
 21 20  2  0  0  0  0
 22 23  1  0  0  0  0
 22 20  1  0  0  0  0
 24 25  1  0  0  0  0
 25 28  1  0  0  0  0
 25 26  1  0  0  0  0
 27 25  1  0  0  0  0
M  END
>  <minimizedAffinity>
-5.00526428

$$$$

 OpenBabel03242517053D

 28 29  0  0  0  0  0  0  0  0999 V2000
   36.9120   26.2430   40.7260 C   0  0  0  0  0  0  0  0  0  0  0  0
   36.8990   24.9400   41.1920 C   0  0  0  0  0  0  0  0  0  0  0  0
   36.4400   23.9460   40.3520 C   0  0  0  0  0  0  0  0  0  0  0  0
   36.0130   24.2510   39.1010 C   0  0  0  0  0  0  0  0  0  0  0  0
   36.0140   25.5440   38.6060 C   0  0  0  0  0  0  0  0  0  0  0  0
   36.4820   26.5360   39.4710 C   0  0  0  0  0  0  0  0  0  0  0  0
   37.2330   24.6640   42.1840 H   0  0  0  0  0  0  0  0  0  0  0  0
   36.3890   22.9040   40.6190 H   0  0  0  0  0  0  0  0  0  0  0  0
   35.6320   23.5340   38.3650 H   0  0  0  0  0  0  0  0  0  0  0  0
   35.7060   25.9100   37.6470 H   0  0  0  0  0  0  0  0  0  0  0  0
   37.3910   28.5670   43.6620 C   0  0  0  0  0  0  0  0  0  0  0  0
   36.8070   27.5670   42.8490 C   0  0  0  0  0  0  0  0  0  0  0  0
   37.4080   27.2540   41.6620 C   0  0  0  0  0  0  0  0  0  0  0  0
   38.5490   27.9320   41.3300 N   0  0  0  0  0  0  0  0  0  0  0  0
   39.1080   28.8840   42.1010 C   0  0  0  0  0  0  0  0  0  0  0  0
   38.5200   29.2060   43.2860 N   0  0  0  0  0  0  0  0  0  0  0  0
   36.9110   28.8050   44.5900 H   0  0  0  0  0  0  0  0  0  0  0  0
   35.9040   27.0440   43.1310 H   0  0  0  0  0  0  0  0  0  0  0  0
   40.0090   29.3890   41.7920 H   0  0  0  0  0  0  0  0  0  0  0  0
   35.5970   28.9320   38.9260 C   0  0  0  0  0  0  0  0  0  0  0  0
   34.3850   28.8170   39.0220 O   0  0  0  0  0  0  0  0  0  0  0  0
   36.5320   27.8980   39.1090 N   0  0  0  0  0  0  0  0  0  0  0  0
   37.5620   28.0730   38.9650 H   0  0  0  0  0  0  0  0  0  0  0  0
   36.0970   30.1980   38.6080 O   0  0  0  0  0  0  0  0  0  0  0  0
   36.8200   30.8950   39.6070 C   0  0  0  0  0  0  0  0  0  0  0  0
   36.6170   32.2480   39.3460 F   0  0  0  0  0  0  0  0  0  0  0  0
   36.3890   30.5950   40.8840 F   0  0  0  0  0  0  0  0  0  0  0  0
   38.1860   30.6990   39.5190 F   0  0  0  0  0  0  0  0  0  0  0  0
  1  2  1  0  0  0  0
  1 13  1  0  0  0  0
  2  7  1  0  0  0  0
  3  8  1  0  0  0  0
  3  2  2  0  0  0  0
  4  3  1  0  0  0  0
  5  4  2  0  0  0  0
  5  6  1  0  0  0  0
  6  1  2  0  0  0  0
  9  4  1  0  0  0  0
 10  5  1  0  0  0  0
 11 17  1  0  0  0  0
 12 18  1  0  0  0  0
 12 11  2  0  0  0  0
 13 12  1  0  0  0  0
 14 13  2  0  0  0  0
 14 15  1  0  0  0  0
 15 16  2  0  0  0  0
 16 11  1  0  0  0  0
 19 15  1  0  0  0  0
 20 21  2  0  0  0  0
 20 22  1  0  0  0  0
 22  6  1  0  0  0  0
 23 22  1  0  0  0  0
 24 20  1  0  0  0  0
 24 25  1  0  0  0  0
 25 27  1  0  0  0  0
 26 25  1  0  0  0  0
 28 25  1  0  0  0  0
M  END
>  <minimizedAffinity>
-4.79535532

$$$$

 OpenBabel03242517053D

 28 29  0  0  0  0  0  0  0  0999 V2000
   40.5830   29.5650   42.4750 C   0  0  0  0  0  0  0  0  0  0  0  0
   41.4660   28.6090   42.9480 C   0  0  0  0  0  0  0  0  0  0  0  0
   42.6620   29.0300   43.4910 C   0  0  0  0  0  0  0  0  0  0  0  0
   42.9570   30.3530   43.5530 C   0  0  0  0  0  0  0  0  0  0  0  0
   42.0970   31.3330   43.0890 C   0  0  0  0  0  0  0  0  0  0  0  0
   40.8910   30.8870   42.5420 C   0  0  0  0  0  0  0  0  0  0  0  0
   41.2600   27.5470   42.9130 H   0  0  0  0  0  0  0  0  0  0  0  0
   43.4140   28.3670   43.8860 H   0  0  0  0  0  0  0  0  0  0  0  0
   43.8780   30.7810   43.9640 H   0  0  0  0  0  0  0  0  0  0  0  0
   42.2120   32.3980   43.0810 H   0  0  0  0  0  0  0  0  0  0  0  0
   37.9520   28.0130   40.2560 C   0  0  0  0  0  0  0  0  0  0  0  0
   39.2260   28.4580   40.6860 C   0  0  0  0  0  0  0  0  0  0  0  0
   39.3320   29.0590   41.9080 C   0  0  0  0  0  0  0  0  0  0  0  0
   38.1900   29.1940   42.6500 N   0  0  0  0  0  0  0  0  0  0  0  0
   36.9780   28.7720   42.2460 C   0  0  0  0  0  0  0  0  0  0  0  0
   36.8570   28.1720   41.0300 N   0  0  0  0  0  0  0  0  0  0  0  0
   37.8810   27.5440   39.2960 H   0  0  0  0  0  0  0  0  0  0  0  0
   40.1150   28.3400   40.0820 H   0  0  0  0  0  0  0  0  0  0  0  0
   36.1080   28.9040   42.8700 H   0  0  0  0  0  0  0  0  0  0  0  0
   39.8610   32.7000   40.9700 C   0  0  0  0  0  0  0  0  0  0  0  0
   40.7860   32.9930   40.2290 O   0  0  0  0  0  0  0  0  0  0  0  0
   39.9210   31.7680   42.0200 N   0  0  0  0  0  0  0  0  0  0  0  0
   39.0850   31.6040   42.6420 H   0  0  0  0  0  0  0  0  0  0  0  0
   38.6400   33.3460   40.7560 O   0  0  0  0  0  0  0  0  0  0  0  0
   37.6160   32.6240   40.0950 C   0  0  0  0  0  0  0  0  0  0  0  0
   38.2700   31.7200   39.2610 F   0  0  0  0  0  0  0  0  0  0  0  0
   36.7940   31.9420   40.9690 F   0  0  0  0  0  0  0  0  0  0  0  0
   36.8510   33.4170   39.2590 F   0  0  0  0  0  0  0  0  0  0  0  0
  1  6  2  0  0  0  0
  1  2  1  0  0  0  0
  2  3  2  0  0  0  0
  3  4  1  0  0  0  0
  3  8  1  0  0  0  0
  4  9  1  0  0  0  0
  5  4  2  0  0  0  0
  6  5  1  0  0  0  0
  7  2  1  0  0  0  0
 10  5  1  0  0  0  0
 11 12  2  0  0  0  0
 11 16  1  0  0  0  0
 12 13  1  0  0  0  0
 13  1  1  0  0  0  0
 13 14  2  0  0  0  0
 15 14  1  0  0  0  0
 15 19  1  0  0  0  0
 16 15  2  0  0  0  0
 17 11  1  0  0  0  0
 18 12  1  0  0  0  0
 20 22  1  0  0  0  0
 21 20  2  0  0  0  0
 22  6  1  0  0  0  0
 22 23  1  0  0  0  0
 24 20  1  0  0  0  0
 25 24  1  0  0  0  0
 25 27  1  0  0  0  0
 26 25  1  0  0  0  0
 28 25  1  0  0  0  0
M  END
>  <minimizedAffinity>
-4.68394232

$$$$

 OpenBabel03242517053D

 28 29  0  0  0  0  0  0  0  0999 V2000
   39.8490   31.1730   41.1070 C   0  0  0  0  0  0  0  0  0  0  0  0
   40.6530   32.0910   40.4540 C   0  0  0  0  0  0  0  0  0  0  0  0
   41.8500   32.4510   41.0390 C   0  0  0  0  0  0  0  0  0  0  0  0
   42.2180   31.9130   42.2290 C   0  0  0  0  0  0  0  0  0  0  0  0
   41.4360   30.9940   42.9070 C   0  0  0  0  0  0  0  0  0  0  0  0
   40.2290   30.6420   42.2980 C   0  0  0  0  0  0  0  0  0  0  0  0
   40.3880   32.5380   39.5040 H   0  0  0  0  0  0  0  0  0  0  0  0
   42.5450   33.1550   40.6120 H   0  0  0  0  0  0  0  0  0  0  0  0
   43.1450   32.1370   42.7690 H   0  0  0  0  0  0  0  0  0  0  0  0
   41.6140   30.5010   43.8410 H   0  0  0  0  0  0  0  0  0  0  0  0
   37.2260   29.9430   38.6870 C   0  0  0  0  0  0  0  0  0  0  0  0
   38.5080   30.2160   39.2210 C   0  0  0  0  0  0  0  0  0  0  0  0
   38.5910   30.8320   40.4390 C   0  0  0  0  0  0  0  0  0  0  0  0
   37.4210   31.1480   41.0720 N   0  0  0  0  0  0  0  0  0  0  0  0
   36.2000   30.8880   40.5680 C   0  0  0  0  0  0  0  0  0  0  0  0
   36.1010   30.2760   39.3560 N   0  0  0  0  0  0  0  0  0  0  0  0
   37.1720   29.4610   37.7320 H   0  0  0  0  0  0  0  0  0  0  0  0
   39.4190   29.9570   38.7020 H   0  0  0  0  0  0  0  0  0  0  0  0
   35.3080   31.1590   41.1090 H   0  0  0  0  0  0  0  0  0  0  0  0
   39.1880   28.3280   42.9180 C   0  0  0  0  0  0  0  0  0  0  0  0
   39.9110   27.5280   42.3450 O   0  0  0  0  0  0  0  0  0  0  0  0
   39.3250   29.7260   42.8760 N   0  0  0  0  0  0  0  0  0  0  0  0
   38.6300   30.3490   43.3660 H   0  0  0  0  0  0  0  0  0  0  0  0
   38.1370   27.8090   43.6800 O   0  0  0  0  0  0  0  0  0  0  0  0
   37.0370   27.2430   42.9910 C   0  0  0  0  0  0  0  0  0  0  0  0
   36.8870   27.9990   41.8310 F   0  0  0  0  0  0  0  0  0  0  0  0
   37.2390   25.9170   42.6620 F   0  0  0  0  0  0  0  0  0  0  0  0
   35.8450   27.3740   43.6790 F   0  0  0  0  0  0  0  0  0  0  0  0
  1  6  1  0  0  0  0
  2  3  1  0  0  0  0
  2  1  2  0  0  0  0
  3  4  2  0  0  0  0
  4  9  1  0  0  0  0
  4  5  1  0  0  0  0
  5 10  1  0  0  0  0
  6 22  1  0  0  0  0
  6  5  2  0  0  0  0
  7  2  1  0  0  0  0
  8  3  1  0  0  0  0
 11 12  2  0  0  0  0
 11 16  1  0  0  0  0
 12 13  1  0  0  0  0
 13 14  2  0  0  0  0
 13  1  1  0  0  0  0
 15 14  1  0  0  0  0
 15 19  1  0  0  0  0
 16 15  2  0  0  0  0
 17 11  1  0  0  0  0
 18 12  1  0  0  0  0
 20 24  1  0  0  0  0
 21 20  2  0  0  0  0
 22 20  1  0  0  0  0
 22 23  1  0  0  0  0
 25 28  1  0  0  0  0
 25 24  1  0  0  0  0
 26 25  1  0  0  0  0
 27 25  1  0  0  0  0
M  END
>  <minimizedAffinity>
-4.66082096

$$$$

 OpenBabel03242517053D

 28 29  0  0  0  0  0  0  0  0999 V2000
   39.1870   31.2730   38.9730 C   0  0  0  0  0  0  0  0  0  0  0  0
   39.9570   32.2750   38.4080 C   0  0  0  0  0  0  0  0  0  0  0  0
   40.6350   33.1360   39.2460 C   0  0  0  0  0  0  0  0  0  0  0  0
   40.5410   32.9950   40.5920 C   0  0  0  0  0  0  0  0  0  0  0  0
   39.7810   32.0040   41.1880 C   0  0  0  0  0  0  0  0  0  0  0  0
   39.1020   31.1430   40.3230 C   0  0  0  0  0  0  0  0  0  0  0  0
   40.0530   32.4140   37.3390 H   0  0  0  0  0  0  0  0  0  0  0  0
   41.2590   33.9460   38.9060 H   0  0  0  0  0  0  0  0  0  0  0  0
   41.0400   33.6280   41.3350 H   0  0  0  0  0  0  0  0  0  0  0  0
   39.6270   31.7900   42.2260 H   0  0  0  0  0  0  0  0  0  0  0  0
   36.7850   29.7890   36.4670 C   0  0  0  0  0  0  0  0  0  0  0  0
   37.3610   30.7380   37.3460 C   0  0  0  0  0  0  0  0  0  0  0  0
   38.4900   30.3920   38.0340 C   0  0  0  0  0  0  0  0  0  0  0  0
   39.0000   29.1400   37.8290 N   0  0  0  0  0  0  0  0  0  0  0  0
   38.4560   28.2350   36.9940 C   0  0  0  0  0  0  0  0  0  0  0  0
   37.3310   28.5650   36.3020 N   0  0  0  0  0  0  0  0  0  0  0  0
   35.9000   30.0700   35.9340 H   0  0  0  0  0  0  0  0  0  0  0  0
   36.9400   31.7230   37.4920 H   0  0  0  0  0  0  0  0  0  0  0  0
   38.8990   27.2600   36.8690 H   0  0  0  0  0  0  0  0  0  0  0  0
   36.9480   29.9630   41.2140 C   0  0  0  0  0  0  0  0  0  0  0  0
   36.1460   30.8780   41.3200 O   0  0  0  0  0  0  0  0  0  0  0  0
   38.2800   30.0930   40.7850 N   0  0  0  0  0  0  0  0  0  0  0  0
   38.9220   29.2560   40.7630 H   0  0  0  0  0  0  0  0  0  0  0  0
   36.5040   28.6810   41.5470 O   0  0  0  0  0  0  0  0  0  0  0  0
   37.0070   28.0940   42.7340 C   0  0  0  0  0  0  0  0  0  0  0  0
   37.3990   29.1560   43.5440 F   0  0  0  0  0  0  0  0  0  0  0  0
   36.0650   27.3270   43.3910 F   0  0  0  0  0  0  0  0  0  0  0  0
   38.1500   27.3440   42.5230 F   0  0  0  0  0  0  0  0  0  0  0  0
  1  6  1  0  0  0  0
  2  1  2  0  0  0  0
  2  3  1  0  0  0  0
  3  4  2  0  0  0  0
  4  5  1  0  0  0  0
  4  9  1  0  0  0  0
  5 10  1  0  0  0  0
  6 22  1  0  0  0  0
  6  5  2  0  0  0  0
  7  2  1  0  0  0  0
  8  3  1  0  0  0  0
 11 12  1  0  0  0  0
 12 18  1  0  0  0  0
 12 13  2  0  0  0  0
 13  1  1  0  0  0  0
 14 13  1  0  0  0  0
 15 14  2  0  0  0  0
 16 11  2  0  0  0  0
 16 15  1  0  0  0  0
 17 11  1  0  0  0  0
 19 15  1  0  0  0  0
 20 21  2  0  0  0  0
 20 24  1  0  0  0  0
 22 20  1  0  0  0  0
 23 22  1  0  0  0  0
 24 25  1  0  0  0  0
 25 27  1  0  0  0  0
 25 26  1  0  0  0  0
 28 25  1  0  0  0  0
M  END
>  <minimizedAffinity>
-4.65243053

$$$$

 OpenBabel03242517053D

 28 29  0  0  0  0  0  0  0  0999 V2000
   36.8060   26.7850   40.1330 C   0  0  0  0  0  0  0  0  0  0  0  0
   36.9700   25.4130   40.2130 C   0  0  0  0  0  0  0  0  0  0  0  0
   37.0650   24.8330   41.4610 C   0  0  0  0  0  0  0  0  0  0  0  0
   36.9990   25.6000   42.5780 C   0  0  0  0  0  0  0  0  0  0  0  0
   36.8350   26.9740   42.5320 C   0  0  0  0  0  0  0  0  0  0  0  0
   36.7410   27.5420   41.2590 C   0  0  0  0  0  0  0  0  0  0  0  0
   37.0260   24.7730   39.3410 H   0  0  0  0  0  0  0  0  0  0  0  0
   37.1930   23.7770   41.6300 H   0  0  0  0  0  0  0  0  0  0  0  0
   37.0650   25.2320   43.6080 H   0  0  0  0  0  0  0  0  0  0  0  0
   36.7690   27.6820   43.3330 H   0  0  0  0  0  0  0  0  0  0  0  0
   35.6670   27.8000   36.6800 C   0  0  0  0  0  0  0  0  0  0  0  0
   35.6250   27.2110   37.9660 C   0  0  0  0  0  0  0  0  0  0  0  0
   36.7130   27.3430   38.7820 C   0  0  0  0  0  0  0  0  0  0  0  0
   37.7860   28.0440   38.3030 N   0  0  0  0  0  0  0  0  0  0  0  0
   37.8290   28.6060   37.0800 C   0  0  0  0  0  0  0  0  0  0  0  0
   36.7520   28.4830   36.2560 N   0  0  0  0  0  0  0  0  0  0  0  0
   34.8090   27.6900   36.0480 H   0  0  0  0  0  0  0  0  0  0  0  0
   34.7670   26.6610   38.3240 H   0  0  0  0  0  0  0  0  0  0  0  0
   38.7010   29.1490   36.7510 H   0  0  0  0  0  0  0  0  0  0  0  0
   37.2830   30.0920   41.4210 C   0  0  0  0  0  0  0  0  0  0  0  0
   38.2840   30.1270   42.1190 O   0  0  0  0  0  0  0  0  0  0  0  0
   36.5840   28.9290   41.0560 N   0  0  0  0  0  0  0  0  0  0  0  0
   35.7000   28.9900   40.4830 H   0  0  0  0  0  0  0  0  0  0  0  0
   36.7920   31.3110   40.9450 O   0  0  0  0  0  0  0  0  0  0  0  0
   36.9700   31.6050   39.5710 C   0  0  0  0  0  0  0  0  0  0  0  0
   38.2980   31.2980   39.2880 F   0  0  0  0  0  0  0  0  0  0  0  0
   36.1350   30.8690   38.7550 F   0  0  0  0  0  0  0  0  0  0  0  0
   36.8290   32.9510   39.2860 F   0  0  0  0  0  0  0  0  0  0  0  0
  1  2  2  0  0  0  0
  1  6  1  0  0  0  0
  2  3  1  0  0  0  0
  3  8  1  0  0  0  0
  3  4  2  0  0  0  0
  4  9  1  0  0  0  0
  5  4  1  0  0  0  0
  5 10  1  0  0  0  0
  6  5  2  0  0  0  0
  7  2  1  0  0  0  0
 11 12  1  0  0  0  0
 12 18  1  0  0  0  0
 12 13  2  0  0  0  0
 13  1  1  0  0  0  0
 14 13  1  0  0  0  0
 15 14  2  0  0  0  0
 16 11  2  0  0  0  0
 16 15  1  0  0  0  0
 17 11  1  0  0  0  0
 19 15  1  0  0  0  0
 20 21  2  0  0  0  0
 22  6  1  0  0  0  0
 22 20  1  0  0  0  0
 23 22  1  0  0  0  0
 24 20  1  0  0  0  0
 25 24  1  0  0  0  0
 26 25  1  0  0  0  0
 27 25  1  0  0  0  0
 28 25  1  0  0  0  0
M  END
>  <minimizedAffinity>
-4.63973284

$$$$

 OpenBabel03242517053D

 28 29  0  0  0  0  0  0  0  0999 V2000
   36.9500   30.1800   38.2190 C   0  0  0  0  0  0  0  0  0  0  0  0
   36.9660   30.4830   36.8680 C   0  0  0  0  0  0  0  0  0  0  0  0
   36.2760   29.6620   36.0010 C   0  0  0  0  0  0  0  0  0  0  0  0
   35.6020   28.5820   36.4720 C   0  0  0  0  0  0  0  0  0  0  0  0
   35.5670   28.2520   37.8150 C   0  0  0  0  0  0  0  0  0  0  0  0
   36.2710   29.0960   38.6780 C   0  0  0  0  0  0  0  0  0  0  0  0
   37.4930   31.3370   36.4620 H   0  0  0  0  0  0  0  0  0  0  0  0
   36.2270   29.8110   34.9350 H   0  0  0  0  0  0  0  0  0  0  0  0
   35.0290   27.8740   35.8630 H   0  0  0  0  0  0  0  0  0  0  0  0
   35.0760   27.4360   38.3070 H   0  0  0  0  0  0  0  0  0  0  0  0
   38.1430   33.1390   40.2360 C   0  0  0  0  0  0  0  0  0  0  0  0
   37.3230   32.3680   39.3780 C   0  0  0  0  0  0  0  0  0  0  0  0
   37.7010   31.0860   39.0900 C   0  0  0  0  0  0  0  0  0  0  0  0
   38.8570   30.6230   39.6540 N   0  0  0  0  0  0  0  0  0  0  0  0
   39.6390   31.3530   40.4710 C   0  0  0  0  0  0  0  0  0  0  0  0
   39.2760   32.6310   40.7670 N   0  0  0  0  0  0  0  0  0  0  0  0
   37.8380   34.1420   40.4550 H   0  0  0  0  0  0  0  0  0  0  0  0
   36.4130   32.7550   38.9430 H   0  0  0  0  0  0  0  0  0  0  0  0
   40.5430   30.9390   40.8900 H   0  0  0  0  0  0  0  0  0  0  0  0
   36.5730   27.7810   40.9150 C   0  0  0  0  0  0  0  0  0  0  0  0
   36.7610   26.6320   40.5460 O   0  0  0  0  0  0  0  0  0  0  0  0
   36.3340   28.8790   40.0700 N   0  0  0  0  0  0  0  0  0  0  0  0
   36.1390   29.8340   40.4720 H   0  0  0  0  0  0  0  0  0  0  0  0
   36.6000   28.0250   42.2900 O   0  0  0  0  0  0  0  0  0  0  0  0
   37.8640   28.1560   42.9150 C   0  0  0  0  0  0  0  0  0  0  0  0
   38.7950   28.1960   41.8800 F   0  0  0  0  0  0  0  0  0  0  0  0
   37.9660   29.3010   43.6800 F   0  0  0  0  0  0  0  0  0  0  0  0
   38.2050   27.0550   43.6800 F   0  0  0  0  0  0  0  0  0  0  0  0
  1  6  1  0  0  0  0
  1 13  1  0  0  0  0
  2  1  2  0  0  0  0
  3  4  2  0  0  0  0
  3  2  1  0  0  0  0
  4  5  1  0  0  0  0
  5 10  1  0  0  0  0
  5  6  2  0  0  0  0
  6 22  1  0  0  0  0
  7  2  1  0  0  0  0
  8  3  1  0  0  0  0
  9  4  1  0  0  0  0
 11 17  1  0  0  0  0
 11 16  1  0  0  0  0
 12 11  2  0  0  0  0
 13 12  1  0  0  0  0
 13 14  2  0  0  0  0
 14 15  1  0  0  0  0
 15 16  2  0  0  0  0
 15 19  1  0  0  0  0
 18 12  1  0  0  0  0
 20 24  1  0  0  0  0
 21 20  2  0  0  0  0
 22 23  1  0  0  0  0
 22 20  1  0  0  0  0
 24 25  1  0  0  0  0
 25 27  1  0  0  0  0
 25 28  1  0  0  0  0
 26 25  1  0  0  0  0
M  END
>  <minimizedAffinity>
-4.63729239

$$$$
