
 OpenBabel03252507293D

 40 42  0  0  1  0  0  0  0  0999 V2000
   47.6100   31.7100   46.2940 C   0  0  2  0  0  0  0  0  0  0  0  0
   47.5670   30.3350   45.6390 C   0  0  0  0  0  0  0  0  0  0  0  0
   48.4310   29.4110   46.4620 C   0  0  0  0  0  0  0  0  0  0  0  0
   48.1280   29.4340   47.9400 C   0  0  0  0  0  0  0  0  0  0  0  0
   48.0100   30.8040   48.4800 C   0  0  0  0  0  0  0  0  0  0  0  0
   47.0370   31.6050   47.6620 C   0  0  2  0  0  0  0  0  0  0  0  0
   48.6970   31.9510   46.3430 H   0  0  0  0  0  0  0  0  0  0  0  0
   48.1230   30.4590   44.6650 H   0  0  0  0  0  0  0  0  0  0  0  0
   46.5690   29.9770   45.4180 H   0  0  0  0  0  0  0  0  0  0  0  0
   48.3350   28.3790   46.0900 H   0  0  0  0  0  0  0  0  0  0  0  0
   49.4970   29.7140   46.2920 H   0  0  0  0  0  0  0  0  0  0  0  0
   49.0280   28.9620   48.4310 H   0  0  0  0  0  0  0  0  0  0  0  0
   47.2950   28.7580   48.1310 H   0  0  0  0  0  0  0  0  0  0  0  0
   47.8460   30.8140   49.5550 H   0  0  0  0  0  0  0  0  0  0  0  0
   49.0070   31.3080   48.3300 H   0  0  0  0  0  0  0  0  0  0  0  0
   47.0820   32.6220   48.1290 H   0  0  0  0  0  0  0  0  0  0  0  0
   46.9670   32.7380   45.4820 C   0  0  0  0  0  0  0  0  0  0  0  0
   45.8510   33.4190   46.0220 C   0  0  0  0  0  0  0  0  0  0  0  0
   45.2220   34.3960   45.2310 C   0  0  0  0  0  0  0  0  0  0  0  0
   45.7400   34.6290   43.9680 N   0  0  0  0  0  0  0  0  0  0  0  0
   46.8070   33.9360   43.5280 C   0  0  0  0  0  0  0  0  0  0  0  0
   47.4350   32.9950   44.2560 N   0  0  0  0  0  0  0  0  0  0  0  0
   45.4200   33.2860   46.9680 H   0  0  0  0  0  0  0  0  0  0  0  0
   44.3740   34.9560   45.5620 H   0  0  0  0  0  0  0  0  0  0  0  0
   47.2980   34.2270   42.1650 C   0  0  0  0  0  0  0  0  0  0  0  0
   48.2350   35.1590   41.9170 C   0  0  0  0  0  0  0  0  0  0  0  0
   48.6900   35.4240   40.6340 C   0  0  0  0  0  0  0  0  0  0  0  0
   48.1540   34.7020   39.6080 C   0  0  0  0  0  0  0  0  0  0  0  0
   47.2020   33.7510   39.8400 C   0  0  0  0  0  0  0  0  0  0  0  0
   46.7710   33.5090   41.1140 N   0  0  0  0  0  0  0  0  0  0  0  0
   48.6260   35.7020   42.7630 H   0  0  0  0  0  0  0  0  0  0  0  0
   49.4510   36.1890   40.4700 H   0  0  0  0  0  0  0  0  0  0  0  0
   48.5080   34.9080   38.6060 H   0  0  0  0  0  0  0  0  0  0  0  0
   46.8180   33.2180   39.0020 H   0  0  0  0  0  0  0  0  0  0  0  0
   45.7300   31.0520   47.6450 N   0  0  0  0  0  0  0  0  0  0  0  0
   45.8570   29.9950   47.5920 H   0  0  0  0  0  0  0  0  0  0  0  0
   44.9470   31.2810   48.8090 C   0  0  0  0  0  0  0  0  0  0  0  0
   45.5330   32.0940   49.7520 F   0  0  0  0  0  0  0  0  0  0  0  0
   44.7930   30.0380   49.4390 F   0  0  0  0  0  0  0  0  0  0  0  0
   43.7120   31.8340   48.5340 F   0  0  0  0  0  0  0  0  0  0  0  0
  1  7  1  1  0  0  0
  1  6  1  0  0  0  0
  2  1  1  0  0  0  0
  2  3  1  0  0  0  0
  3  4  1  0  0  0  0
  4 13  1  0  0  0  0
  4 12  1  0  0  0  0
  4  5  1  0  0  0  0
  5 14  1  0  0  0  0
  6 16  1  1  0  0  0
  6  5  1  0  0  0  0
  8  2  1  0  0  0  0
  9  2  1  0  0  0  0
 10  3  1  0  0  0  0
 11  3  1  0  0  0  0
 15  5  1  0  0  0  0
 17 18  1  0  0  0  0
 17  1  1  0  0  0  0
 18 23  1  0  0  0  0
 19 24  1  0  0  0  0
 19 18  2  0  0  0  0
 20 19  1  0  0  0  0
 21 20  2  0  0  0  0
 21 22  1  0  0  0  0
 22 17  2  0  0  0  0
 25 21  1  0  0  0  0
 26 25  1  0  0  0  0
 26 31  1  0  0  0  0
 27 26  2  0  0  0  0
 28 29  2  0  0  0  0
 28 27  1  0  0  0  0
 29 30  1  0  0  0  0
 30 25  2  0  0  0  0
 32 27  1  0  0  0  0
 33 28  1  0  0  0  0
 34 29  1  0  0  0  0
 35  6  1  0  0  0  0
 35 37  1  0  0  0  0
 36 35  1  0  0  0  0
 37 39  1  0  0  0  0
 37 38  1  0  0  0  0
 40 37  1  0  0  0  0
M  END
>  <minimizedAffinity>
-5.84713697

>  <minimizedRMSD>
1.35313082

$$$$
