
 OpenBabel03242519363D

 19 19  0  0  0  0  0  0  0  0999 V2000
   38.5580   30.0700   40.6740 O   0  0  0  0  0  0  0  0  0  0  0  0
   39.3850   33.6420   40.6660 C   0  0  0  0  0  0  0  0  0  0  0  0
   39.5040   32.2480   40.8960 C   0  0  0  0  0  0  0  0  0  0  0  0
   38.4560   31.4420   40.4550 C   0  0  0  0  0  0  0  0  0  0  0  0
   37.3870   32.0120   39.8350 N   0  0  0  0  0  0  0  0  0  0  0  0
   37.3180   33.3490   39.6360 C   0  0  0  0  0  0  0  0  0  0  0  0
   38.3030   34.1600   40.0450 N   0  0  0  0  0  0  0  0  0  0  0  0
   40.2240   34.2220   41.0270 H   0  0  0  0  0  0  0  0  0  0  0  0
   40.3560   31.8190   41.3870 H   0  0  0  0  0  0  0  0  0  0  0  0
   36.4500   33.7720   39.1380 H   0  0  0  0  0  0  0  0  0  0  0  0
   38.2730   29.5690   43.2450 O   0  0  0  0  0  0  0  0  0  0  0  0
   37.5930   29.3420   41.8990 P   0  0  1  0  0  0  0  0  0  0  0  0
   36.0610   29.9970   41.8390 O   0  0  0  0  0  0  0  0  0  0  0  0
   36.0470   30.9160   42.1490 H   0  0  0  0  0  0  0  0  0  0  0  0
   37.5690   27.6820   41.6070 O   0  0  0  0  0  0  0  0  0  0  0  0
   37.2830   26.9490   42.7380 C   0  0  0  0  0  0  0  0  0  0  0  0
   38.3670   26.8090   43.5920 F   0  0  0  0  0  0  0  0  0  0  0  0
   36.1700   27.4650   43.3680 F   0  0  0  0  0  0  0  0  0  0  0  0
   36.9610   25.6620   42.3050 F   0  0  0  0  0  0  0  0  0  0  0  0
  1 12  1  0  0  0  0
  2  3  1  0  0  0  0
  2  8  1  0  0  0  0
  3  9  1  0  0  0  0
  4  1  1  0  0  0  0
  4  3  2  0  0  0  0
  5  4  1  0  0  0  0
  6  5  2  0  0  0  0
  6  7  1  0  0  0  0
  7  2  2  0  0  0  0
 10  6  1  0  0  0  0
 12 11  2  1  0  0  0
 13 12  1  0  0  0  0
 13 14  1  0  0  0  0
 15 12  1  0  0  0  0
 15 16  1  0  0  0  0
 16 18  1  0  0  0  0
 16 17  1  0  0  0  0
 19 16  1  0  0  0  0
M  END
>  <minimizedAffinity>
-4.36401987

$$$$

 OpenBabel03242519363D

 19 19  0  0  0  0  0  0  0  0999 V2000
   38.0570   29.9750   40.5040 O   0  0  0  0  0  0  0  0  0  0  0  0
   39.4170   27.8090   43.1310 C   0  0  0  0  0  0  0  0  0  0  0  0
   39.3750   28.7200   42.0450 C   0  0  0  0  0  0  0  0  0  0  0  0
   38.1160   29.0810   41.5710 C   0  0  0  0  0  0  0  0  0  0  0  0
   37.0030   28.5580   42.1560 N   0  0  0  0  0  0  0  0  0  0  0  0
   37.0930   27.6910   43.1920 C   0  0  0  0  0  0  0  0  0  0  0  0
   38.2850   27.3170   43.6790 N   0  0  0  0  0  0  0  0  0  0  0  0
   40.4180   27.5620   43.4620 H   0  0  0  0  0  0  0  0  0  0  0  0
   40.2640   29.1210   41.5990 H   0  0  0  0  0  0  0  0  0  0  0  0
   36.1860   27.2920   43.6360 H   0  0  0  0  0  0  0  0  0  0  0  0
   35.8390   29.6400   39.1220 O   0  0  0  0  0  0  0  0  0  0  0  0
   36.5350   30.6340   40.0450 P   0  0  1  0  0  0  0  0  0  0  0  0
   35.6490   30.9560   41.4210 O   0  0  0  0  0  0  0  0  0  0  0  0
   35.3470   30.1430   41.8560 H   0  0  0  0  0  0  0  0  0  0  0  0
   36.8350   32.0370   39.1600 O   0  0  0  0  0  0  0  0  0  0  0  0
   37.7860   32.8430   39.7490 C   0  0  0  0  0  0  0  0  0  0  0  0
   37.8970   32.6520   41.1180 F   0  0  0  0  0  0  0  0  0  0  0  0
   38.9900   32.7120   39.0910 F   0  0  0  0  0  0  0  0  0  0  0  0
   37.3530   34.1580   39.5740 F   0  0  0  0  0  0  0  0  0  0  0  0
  1  4  1  0  0  0  0
  2  8  1  0  0  0  0
  2  7  1  0  0  0  0
  3  2  2  0  0  0  0
  4  3  1  0  0  0  0
  4  5  2  0  0  0  0
  5  6  1  0  0  0  0
  6 10  1  0  0  0  0
  6  7  2  0  0  0  0
  9  3  1  0  0  0  0
 12 11  2  6  0  0  0
 12  1  1  0  0  0  0
 12 13  1  0  0  0  0
 13 14  1  0  0  0  0
 15 16  1  0  0  0  0
 15 12  1  0  0  0  0
 16 17  1  0  0  0  0
 18 16  1  0  0  0  0
 19 16  1  0  0  0  0
M  END
>  <minimizedAffinity>
-4.35165644

$$$$

 OpenBabel03242519363D

 19 19  0  0  0  0  0  0  0  0999 V2000
   37.8860   30.1100   40.1800 O   0  0  0  0  0  0  0  0  0  0  0  0
   39.6880   33.2790   40.5810 C   0  0  0  0  0  0  0  0  0  0  0  0
   39.4170   31.8870   40.6140 C   0  0  0  0  0  0  0  0  0  0  0  0
   38.1670   31.4750   40.1550 C   0  0  0  0  0  0  0  0  0  0  0  0
   37.2790   32.4020   39.7040 N   0  0  0  0  0  0  0  0  0  0  0  0
   37.5820   33.7210   39.6920 C   0  0  0  0  0  0  0  0  0  0  0  0
   38.7720   34.1610   40.1240 N   0  0  0  0  0  0  0  0  0  0  0  0
   40.6700   33.5460   40.9470 H   0  0  0  0  0  0  0  0  0  0  0  0
   40.1320   31.1730   40.9720 H   0  0  0  0  0  0  0  0  0  0  0  0
   36.8500   34.4350   39.3260 H   0  0  0  0  0  0  0  0  0  0  0  0
   37.0400   28.8880   42.3560 O   0  0  0  0  0  0  0  0  0  0  0  0
   36.5310   29.5510   41.0800 P   0  0  1  0  0  0  0  0  0  0  0  0
   35.5190   30.8390   41.3910 O   0  0  0  0  0  0  0  0  0  0  0  0
   35.9000   31.4510   42.0400 H   0  0  0  0  0  0  0  0  0  0  0  0
   35.7610   28.3680   40.1570 O   0  0  0  0  0  0  0  0  0  0  0  0
   34.8860   28.9000   39.2350 C   0  0  0  0  0  0  0  0  0  0  0  0
   33.6650   29.2670   39.7830 F   0  0  0  0  0  0  0  0  0  0  0  0
   35.4930   29.9290   38.5460 F   0  0  0  0  0  0  0  0  0  0  0  0
   34.6110   27.8850   38.3180 F   0  0  0  0  0  0  0  0  0  0  0  0
  1 12  1  0  0  0  0
  2  3  1  0  0  0  0
  2  8  1  0  0  0  0
  3  9  1  0  0  0  0
  4  1  1  0  0  0  0
  4  3  2  0  0  0  0
  5  4  1  0  0  0  0
  6  5  2  0  0  0  0
  6  7  1  0  0  0  0
  7  2  2  0  0  0  0
 10  6  1  0  0  0  0
 12 13  1  0  0  0  0
 12 11  2  1  0  0  0
 13 14  1  0  0  0  0
 15 12  1  0  0  0  0
 16 17  1  0  0  0  0
 16 15  1  0  0  0  0
 18 16  1  0  0  0  0
 19 16  1  0  0  0  0
M  END
>  <minimizedAffinity>
-4.27893448

$$$$

 OpenBabel03242519363D

 19 19  0  0  0  0  0  0  0  0999 V2000
   36.0090   28.3020   41.7070 O   0  0  0  0  0  0  0  0  0  0  0  0
   39.0730   26.3530   42.2210 C   0  0  0  0  0  0  0  0  0  0  0  0
   37.7400   26.6670   41.8500 C   0  0  0  0  0  0  0  0  0  0  0  0
   37.3160   27.9770   42.0670 C   0  0  0  0  0  0  0  0  0  0  0  0
   38.1760   28.8790   42.6120 N   0  0  0  0  0  0  0  0  0  0  0  0
   39.4400   28.5330   42.9500 C   0  0  0  0  0  0  0  0  0  0  0  0
   39.8890   27.2850   42.7590 N   0  0  0  0  0  0  0  0  0  0  0  0
   39.3520   25.3250   42.0320 H   0  0  0  0  0  0  0  0  0  0  0  0
   37.0790   25.9410   41.4210 H   0  0  0  0  0  0  0  0  0  0  0  0
   40.1010   29.2770   43.3840 H   0  0  0  0  0  0  0  0  0  0  0  0
   34.4770   29.2320   39.7760 O   0  0  0  0  0  0  0  0  0  0  0  0
   35.7430   29.5570   40.5610 P   0  0  1  0  0  0  0  0  0  0  0  0
   35.6380   31.0130   41.3690 O   0  0  0  0  0  0  0  0  0  0  0  0
   34.8160   31.0850   41.8790 H   0  0  0  0  0  0  0  0  0  0  0  0
   37.0380   29.5410   39.4810 O   0  0  0  0  0  0  0  0  0  0  0  0
   36.8550   30.4030   38.4210 C   0  0  0  0  0  0  0  0  0  0  0  0
   35.9240   29.9500   37.4970 F   0  0  0  0  0  0  0  0  0  0  0  0
   36.5740   31.6710   38.8850 F   0  0  0  0  0  0  0  0  0  0  0  0
   38.0740   30.4640   37.7460 F   0  0  0  0  0  0  0  0  0  0  0  0
  1  4  1  0  0  0  0
  2  7  1  0  0  0  0
  3  4  1  0  0  0  0
  3  2  2  0  0  0  0
  4  5  2  0  0  0  0
  5  6  1  0  0  0  0
  6 10  1  0  0  0  0
  7  6  2  0  0  0  0
  8  2  1  0  0  0  0
  9  3  1  0  0  0  0
 12 11  2  6  0  0  0
 12 13  1  0  0  0  0
 12  1  1  0  0  0  0
 13 14  1  0  0  0  0
 15 12  1  0  0  0  0
 16 18  1  0  0  0  0
 16 15  1  0  0  0  0
 17 16  1  0  0  0  0
 19 16  1  0  0  0  0
M  END
>  <minimizedAffinity>
-4.2383194

$$$$

 OpenBabel03242519363D

 19 19  0  0  0  0  0  0  0  0999 V2000
   38.4230   29.1370   40.6640 O   0  0  0  0  0  0  0  0  0  0  0  0
   37.3830   31.5300   38.0870 C   0  0  0  0  0  0  0  0  0  0  0  0
   37.7880   30.3110   38.6870 C   0  0  0  0  0  0  0  0  0  0  0  0
   38.0240   30.3280   40.0600 C   0  0  0  0  0  0  0  0  0  0  0  0
   37.8580   31.4870   40.7540 N   0  0  0  0  0  0  0  0  0  0  0  0
   37.4680   32.6280   40.1390 C   0  0  0  0  0  0  0  0  0  0  0  0
   37.2320   32.6550   38.8200 N   0  0  0  0  0  0  0  0  0  0  0  0
   37.2130   31.4630   37.0210 H   0  0  0  0  0  0  0  0  0  0  0  0
   37.9120   29.4080   38.1210 H   0  0  0  0  0  0  0  0  0  0  0  0
   37.3460   33.5360   40.7220 H   0  0  0  0  0  0  0  0  0  0  0  0
   39.4530   29.5510   43.0540 O   0  0  0  0  0  0  0  0  0  0  0  0
   38.2300   28.9540   42.3640 P   0  0  1  0  0  0  0  0  0  0  0  0
   36.8100   29.6940   42.8290 O   0  0  0  0  0  0  0  0  0  0  0  0
   36.8710   30.6610   42.7790 H   0  0  0  0  0  0  0  0  0  0  0  0
   38.2060   27.3020   42.6970 O   0  0  0  0  0  0  0  0  0  0  0  0
   36.9440   26.7580   42.5910 C   0  0  0  0  0  0  0  0  0  0  0  0
   36.1290   27.0400   43.6770 F   0  0  0  0  0  0  0  0  0  0  0  0
   36.3740   27.1170   41.3880 F   0  0  0  0  0  0  0  0  0  0  0  0
   37.1100   25.3720   42.5800 F   0  0  0  0  0  0  0  0  0  0  0  0
  1 12  1  0  0  0  0
  2  3  2  0  0  0  0
  2  7  1  0  0  0  0
  3  4  1  0  0  0  0
  4  1  1  0  0  0  0
  4  5  2  0  0  0  0
  6 10  1  0  0  0  0
  6  5  1  0  0  0  0
  7  6  2  0  0  0  0
  8  2  1  0  0  0  0
  9  3  1  0  0  0  0
 12 15  1  0  0  0  0
 12 13  1  0  0  0  0
 12 11  2  1  0  0  0
 14 13  1  0  0  0  0
 16 15  1  0  0  0  0
 16 17  1  0  0  0  0
 18 16  1  0  0  0  0
 19 16  1  0  0  0  0
M  END
>  <minimizedAffinity>
-4.18872309

$$$$

 OpenBabel03242519363D

 19 19  0  0  0  0  0  0  0  0999 V2000
   37.6260   29.7300   42.7290 O   0  0  0  0  0  0  0  0  0  0  0  0
   40.8980   28.0750   42.6700 C   0  0  0  0  0  0  0  0  0  0  0  0
   39.9130   29.0830   42.5180 C   0  0  0  0  0  0  0  0  0  0  0  0
   38.6070   28.7500   42.8720 C   0  0  0  0  0  0  0  0  0  0  0  0
   38.3370   27.5000   43.3380 N   0  0  0  0  0  0  0  0  0  0  0  0
   39.3110   26.5700   43.4670 C   0  0  0  0  0  0  0  0  0  0  0  0
   40.5800   26.8490   43.1380 N   0  0  0  0  0  0  0  0  0  0  0  0
   41.8950   28.3850   42.3820 H   0  0  0  0  0  0  0  0  0  0  0  0
   40.1470   30.0630   42.1490 H   0  0  0  0  0  0  0  0  0  0  0  0
   39.0620   25.5820   43.8420 H   0  0  0  0  0  0  0  0  0  0  0  0
   36.1690   28.4340   40.9560 O   0  0  0  0  0  0  0  0  0  0  0  0
   36.7370   29.8170   41.2590 P   0  0  1  0  0  0  0  0  0  0  0  0
   35.5470   30.9750   41.4160 O   0  0  0  0  0  0  0  0  0  0  0  0
   34.8390   30.6880   42.0140 H   0  0  0  0  0  0  0  0  0  0  0  0
   37.8230   30.2090   40.0300 O   0  0  0  0  0  0  0  0  0  0  0  0
   37.2080   30.7950   38.9450 C   0  0  0  0  0  0  0  0  0  0  0  0
   38.0060   30.8270   37.8110 F   0  0  0  0  0  0  0  0  0  0  0  0
   35.9820   30.2040   38.7200 F   0  0  0  0  0  0  0  0  0  0  0  0
   36.9740   32.1260   39.2940 F   0  0  0  0  0  0  0  0  0  0  0  0
  1  4  1  0  0  0  0
  2  7  1  0  0  0  0
  3  2  2  0  0  0  0
  3  4  1  0  0  0  0
  4  5  2  0  0  0  0
  5  6  1  0  0  0  0
  6 10  1  0  0  0  0
  7  6  2  0  0  0  0
  8  2  1  0  0  0  0
  9  3  1  0  0  0  0
 12 11  2  6  0  0  0
 12 13  1  0  0  0  0
 12  1  1  0  0  0  0
 13 14  1  0  0  0  0
 15 12  1  0  0  0  0
 16 19  1  0  0  0  0
 16 15  1  0  0  0  0
 17 16  1  0  0  0  0
 18 16  1  0  0  0  0
M  END
>  <minimizedAffinity>
-4.17661953

$$$$

 OpenBabel03242519363D

 19 19  0  0  0  0  0  0  0  0999 V2000
   37.2940   29.0010   41.2570 O   0  0  0  0  0  0  0  0  0  0  0  0
   37.1100   25.4500   42.1560 C   0  0  0  0  0  0  0  0  0  0  0  0
   37.0750   26.8620   42.2890 C   0  0  0  0  0  0  0  0  0  0  0  0
   37.3250   27.6120   41.1420 C   0  0  0  0  0  0  0  0  0  0  0  0
   37.5840   26.9760   39.9680 N   0  0  0  0  0  0  0  0  0  0  0  0
   37.6070   25.6250   39.8880 C   0  0  0  0  0  0  0  0  0  0  0  0
   37.3730   24.8650   40.9670 N   0  0  0  0  0  0  0  0  0  0  0  0
   36.9100   24.9150   43.0750 H   0  0  0  0  0  0  0  0  0  0  0  0
   36.8680   27.3440   43.2250 H   0  0  0  0  0  0  0  0  0  0  0  0
   37.8180   25.1480   38.9350 H   0  0  0  0  0  0  0  0  0  0  0  0
   34.8000   28.9370   40.4090 O   0  0  0  0  0  0  0  0  0  0  0  0
   35.9980   29.8730   40.5350 P   0  0  1  0  0  0  0  0  0  0  0  0
   35.6650   31.2150   41.4670 O   0  0  0  0  0  0  0  0  0  0  0  0
   35.2470   30.9760   42.3100 H   0  0  0  0  0  0  0  0  0  0  0  0
   36.4810   30.3040   38.9780 O   0  0  0  0  0  0  0  0  0  0  0  0
   37.3210   31.3970   38.9670 C   0  0  0  0  0  0  0  0  0  0  0  0
   36.6620   32.6000   39.1790 F   0  0  0  0  0  0  0  0  0  0  0  0
   38.3660   31.1990   39.8440 F   0  0  0  0  0  0  0  0  0  0  0  0
   37.8590   31.4700   37.6820 F   0  0  0  0  0  0  0  0  0  0  0  0
  2  3  1  0  0  0  0
  2  8  1  0  0  0  0
  3  9  1  0  0  0  0
  4  1  1  0  0  0  0
  4  3  2  0  0  0  0
  5  4  1  0  0  0  0
  6  5  2  0  0  0  0
  6  7  1  0  0  0  0
  7  2  2  0  0  0  0
 10  6  1  0  0  0  0
 12 11  2  6  0  0  0
 12  1  1  0  0  0  0
 12 13  1  0  0  0  0
 13 14  1  0  0  0  0
 15 12  1  0  0  0  0
 16 15  1  0  0  0  0
 16 17  1  0  0  0  0
 16 18  1  0  0  0  0
 19 16  1  0  0  0  0
M  END
>  <minimizedAffinity>
-4.06155109

$$$$

 OpenBabel03242519363D

 19 19  0  0  0  0  0  0  0  0999 V2000
   38.3870   28.2550   41.3360 O   0  0  0  0  0  0  0  0  0  0  0  0
   38.2730   31.3040   39.3020 C   0  0  0  0  0  0  0  0  0  0  0  0
   38.7630   30.1030   39.8760 C   0  0  0  0  0  0  0  0  0  0  0  0
   37.9210   29.4360   40.7630 C   0  0  0  0  0  0  0  0  0  0  0  0
   36.6900   29.9510   41.0350 N   0  0  0  0  0  0  0  0  0  0  0  0
   36.2650   31.1010   40.4620 C   0  0  0  0  0  0  0  0  0  0  0  0
   37.0440   31.7740   39.6040 N   0  0  0  0  0  0  0  0  0  0  0  0
   38.9650   31.7820   38.6210 H   0  0  0  0  0  0  0  0  0  0  0  0
   39.7360   29.7140   39.6480 H   0  0  0  0  0  0  0  0  0  0  0  0
   35.2780   31.4850   40.7010 H   0  0  0  0  0  0  0  0  0  0  0  0
   39.1880   27.3530   43.6790 O   0  0  0  0  0  0  0  0  0  0  0  0
   37.9510   27.8800   42.9580 P   0  0  1  0  0  0  0  0  0  0  0  0
   37.3260   29.2480   43.6790 O   0  0  0  0  0  0  0  0  0  0  0  0
   38.0110   29.9140   43.8470 H   0  0  0  0  0  0  0  0  0  0  0  0
   36.8160   26.6340   42.9040 O   0  0  0  0  0  0  0  0  0  0  0  0
   37.1350   25.6660   41.9760 C   0  0  0  0  0  0  0  0  0  0  0  0
   38.5010   25.4810   41.8210 F   0  0  0  0  0  0  0  0  0  0  0  0
   36.4660   24.4960   42.2650 F   0  0  0  0  0  0  0  0  0  0  0  0
   36.6630   26.1260   40.7470 F   0  0  0  0  0  0  0  0  0  0  0  0
  1 12  1  0  0  0  0
  2  7  2  0  0  0  0
  2  3  1  0  0  0  0
  3  4  2  0  0  0  0
  4  5  1  0  0  0  0
  4  1  1  0  0  0  0
  6 10  1  0  0  0  0
  6  5  2  0  0  0  0
  7  6  1  0  0  0  0
  8  2  1  0  0  0  0
  9  3  1  0  0  0  0
 12 11  2  1  0  0  0
 12 13  1  0  0  0  0
 13 14  1  0  0  0  0
 15 12  1  0  0  0  0
 16 18  1  0  0  0  0
 16 15  1  0  0  0  0
 17 16  1  0  0  0  0
 19 16  1  0  0  0  0
M  END
>  <minimizedAffinity>
-4.05667877

$$$$

 OpenBabel03242519363D

 19 19  0  0  0  0  0  0  0  0999 V2000
   38.3950   26.4150   43.2490 O   0  0  0  0  0  0  0  0  0  0  0  0
   36.6490   29.1620   41.5590 C   0  0  0  0  0  0  0  0  0  0  0  0
   36.9080   27.8680   42.0810 C   0  0  0  0  0  0  0  0  0  0  0  0
   38.1260   27.6800   42.7310 C   0  0  0  0  0  0  0  0  0  0  0  0
   38.9970   28.7200   42.8370 N   0  0  0  0  0  0  0  0  0  0  0  0
   38.7060   29.9390   42.3230 C   0  0  0  0  0  0  0  0  0  0  0  0
   37.5460   30.1630   41.6900 N   0  0  0  0  0  0  0  0  0  0  0  0
   35.6910   29.2550   41.0650 H   0  0  0  0  0  0  0  0  0  0  0  0
   36.2070   27.0620   41.9870 H   0  0  0  0  0  0  0  0  0  0  0  0
   39.4240   30.7480   42.4240 H   0  0  0  0  0  0  0  0  0  0  0  0
   40.4830   25.8370   41.7500 O   0  0  0  0  0  0  0  0  0  0  0  0
   39.1690   25.2470   42.2510 P   0  0  1  0  0  0  0  0  0  0  0  0
   39.3910   23.8470   43.1300 O   0  0  0  0  0  0  0  0  0  0  0  0
   40.0730   23.9520   43.8120 H   0  0  0  0  0  0  0  0  0  0  0  0
   38.1770   24.9870   40.9120 O   0  0  0  0  0  0  0  0  0  0  0  0
   37.0600   24.2400   41.2170 C   0  0  0  0  0  0  0  0  0  0  0  0
   36.5800   24.4660   42.4990 F   0  0  0  0  0  0  0  0  0  0  0  0
   36.0950   24.4150   40.2470 F   0  0  0  0  0  0  0  0  0  0  0  0
   37.4550   22.9030   41.1800 F   0  0  0  0  0  0  0  0  0  0  0  0
  2  7  2  0  0  0  0
  2  3  1  0  0  0  0
  3  4  2  0  0  0  0
  4  5  1  0  0  0  0
  4  1  1  0  0  0  0
  6 10  1  0  0  0  0
  6  5  2  0  0  0  0
  7  6  1  0  0  0  0
  8  2  1  0  0  0  0
  9  3  1  0  0  0  0
 12 11  2  6  0  0  0
 12 13  1  0  0  0  0
 12  1  1  0  0  0  0
 13 14  1  0  0  0  0
 15 16  1  0  0  0  0
 15 12  1  0  0  0  0
 16 17  1  0  0  0  0
 18 16  1  0  0  0  0
 19 16  1  0  0  0  0
M  END
>  <minimizedAffinity>
-4.00485754

$$$$
