
 OpenBabel03252501203D

 21 21  0  0  0  0  0  0  0  0999 V2000
   44.7140   35.4390   45.4560 C   0  0  0  0  0  0  0  0  0  0  0  0
   45.1740   35.6770   44.1560 C   0  0  0  0  0  0  0  0  0  0  0  0
   45.8840   34.6470   43.5550 C   0  0  0  0  0  0  0  0  0  0  0  0
   46.0970   33.4840   44.2430 N   0  0  0  0  0  0  0  0  0  0  0  0
   45.6400   33.2980   45.4870 C   0  0  0  0  0  0  0  0  0  0  0  0
   44.9450   34.2810   46.0980 N   0  0  0  0  0  0  0  0  0  0  0  0
   44.1460   36.1910   46.0070 H   0  0  0  0  0  0  0  0  0  0  0  0
   45.8570   32.3470   45.9510 H   0  0  0  0  0  0  0  0  0  0  0  0
   46.3500   34.9080   42.1910 C   0  0  0  0  0  0  0  0  0  0  0  0
   47.0180   33.7810   41.7060 F   0  0  0  0  0  0  0  0  0  0  0  0
   47.2990   35.8910   42.2780 F   0  0  0  0  0  0  0  0  0  0  0  0
   45.3320   35.1700   41.3310 F   0  0  0  0  0  0  0  0  0  0  0  0
   44.9190   36.9510   43.4850 C   0  0  0  0  0  0  0  0  0  0  0  0
   45.6750   37.3090   42.7970 H   0  0  0  0  0  0  0  0  0  0  0  0
   43.9050   37.0160   43.0440 H   0  0  0  0  0  0  0  0  0  0  0  0
   45.0360   38.0360   44.4700 N   0  0  0  0  0  0  0  0  0  0  0  0
   44.2320   38.0930   45.0990 H   0  0  0  0  0  0  0  0  0  0  0  0
   45.3550   39.2890   43.8140 C   0  0  0  0  0  0  0  0  0  0  0  0
   46.7300   39.4460   43.7510 F   0  0  0  0  0  0  0  0  0  0  0  0
   44.8760   40.3240   44.5770 F   0  0  0  0  0  0  0  0  0  0  0  0
   44.8700   39.3250   42.5240 F   0  0  0  0  0  0  0  0  0  0  0  0
  1  7  1  0  0  0  0
  1  6  1  0  0  0  0
  2  1  2  0  0  0  0
  3  2  1  0  0  0  0
  3  4  2  0  0  0  0
  4  5  1  0  0  0  0
  5  8  1  0  0  0  0
  5  6  2  0  0  0  0
  9 11  1  0  0  0  0
  9  3  1  0  0  0  0
 10  9  1  0  0  0  0
 12  9  1  0  0  0  0
 13  2  1  0  0  0  0
 13 16  1  0  0  0  0
 14 13  1  0  0  0  0
 15 13  1  0  0  0  0
 16 17  1  0  0  0  0
 18 16  1  0  0  0  0
 18 20  1  0  0  0  0
 19 18  1  0  0  0  0
 21 18  1  0  0  0  0
M  END
>  <minimizedAffinity>
-4.22048759

>  <minimizedRMSD>
1.17529464

$$$$
