
 OpenBabel03252509313D

 22 22  0  0  0  0  0  0  0  0999 V2000
   46.4830   34.1570   42.2870 C   0  0  0  0  0  0  0  0  0  0  0  0
   46.1330   33.1350   42.0260 H   0  0  0  0  0  0  0  0  0  0  0  0
   46.1020   34.8300   41.5030 H   0  0  0  0  0  0  0  0  0  0  0  0
   45.3510   34.0340   45.8420 C   0  0  0  0  0  0  0  0  0  0  0  0
   45.9890   33.6830   44.6370 C   0  0  0  0  0  0  0  0  0  0  0  0
   45.8230   34.5110   43.5500 C   0  0  0  0  0  0  0  0  0  0  0  0
   45.0470   35.6450   43.6720 N   0  0  0  0  0  0  0  0  0  0  0  0
   44.4430   35.9520   44.8580 C   0  0  0  0  0  0  0  0  0  0  0  0
   44.6020   35.1540   45.9100 N   0  0  0  0  0  0  0  0  0  0  0  0
   45.4320   33.4420   46.7320 H   0  0  0  0  0  0  0  0  0  0  0  0
   46.5650   32.7880   44.6470 H   0  0  0  0  0  0  0  0  0  0  0  0
   43.8660   36.8700   44.8090 H   0  0  0  0  0  0  0  0  0  0  0  0
   47.8700   34.1640   42.4180 O   0  0  0  0  0  0  0  0  0  0  0  0
   49.5550   33.1770   40.6810 O   0  0  0  0  0  0  0  0  0  0  0  0
   48.5050   34.2440   40.8520 P   0  0  2  0  0  0  0  0  0  0  0  0
   49.1250   35.8100   40.6580 O   0  0  0  0  0  0  0  0  0  0  0  0
   50.0770   35.8060   40.3670 H   0  0  0  0  0  0  0  0  0  0  0  0
   47.2670   33.9690   39.7530 O   0  0  0  0  0  0  0  0  0  0  0  0
   47.7700   33.8680   38.4480 C   0  0  0  0  0  0  0  0  0  0  0  0
   46.7020   33.7840   37.5730 F   0  0  0  0  0  0  0  0  0  0  0  0
   48.5410   32.7040   38.3440 F   0  0  0  0  0  0  0  0  0  0  0  0
   48.5640   34.9400   38.1570 F   0  0  0  0  0  0  0  0  0  0  0  0
  1 13  1  0  0  0  0
  1  6  1  0  0  0  0
  2  1  1  0  0  0  0
  3  1  1  0  0  0  0
  4  9  1  0  0  0  0
  4 10  1  0  0  0  0
  5 11  1  0  0  0  0
  5  4  2  0  0  0  0
  6  7  2  0  0  0  0
  6  5  1  0  0  0  0
  7  8  1  0  0  0  0
  8  9  2  0  0  0  0
 12  8  1  0  0  0  0
 15 14  2  6  0  0  0
 15 13  1  0  0  0  0
 16 15  1  0  0  0  0
 17 16  1  0  0  0  0
 18 15  1  0  0  0  0
 19 18  1  0  0  0  0
 20 19  1  0  0  0  0
 21 19  1  0  0  0  0
 22 19  1  0  0  0  0
M  END
>  <minimizedAffinity>
-4.14880896

>  <minimizedRMSD>
1.89734602

$$$$
