
 OpenBabel03252502573D

 32 33  0  0  0  0  0  0  0  0999 V2000
   40.5570   30.3320   40.9380 Br  0  0  0  0  0  0  0  0  0  0  0  0
   39.1550   31.5080   40.3660 C   0  0  0  0  0  0  0  0  0  0  0  0
   39.4650   32.8490   40.3530 C   0  0  0  0  0  0  0  0  0  0  0  0
   38.4270   33.6850   39.9320 C   0  0  0  0  0  0  0  0  0  0  0  0
   37.1870   33.2280   39.5560 C   0  0  0  0  0  0  0  0  0  0  0  0
   36.9450   31.8770   39.5930 C   0  0  0  0  0  0  0  0  0  0  0  0
   37.9200   31.0010   39.9950 C   0  0  0  0  0  0  0  0  0  0  0  0
   38.5990   34.7480   39.8980 H   0  0  0  0  0  0  0  0  0  0  0  0
   36.4310   33.9240   39.2430 H   0  0  0  0  0  0  0  0  0  0  0  0
   35.9520   31.5400   39.2890 H   0  0  0  0  0  0  0  0  0  0  0  0
   40.7340   33.4600   40.7250 C   0  0  0  0  0  0  0  0  0  0  0  0
   41.2060   32.8220   41.5090 H   0  0  0  0  0  0  0  0  0  0  0  0
   40.6480   34.4640   41.1740 H   0  0  0  0  0  0  0  0  0  0  0  0
   42.2850   33.5830   37.3270 C   0  0  0  0  0  0  0  0  0  0  0  0
   43.6350   33.7070   37.6350 C   0  0  0  0  0  0  0  0  0  0  0  0
   44.0030   33.7480   38.9730 C   0  0  0  0  0  0  0  0  0  0  0  0
   43.0390   33.6650   39.9020 N   0  0  0  0  0  0  0  0  0  0  0  0
   41.7160   33.5440   39.6050 C   0  0  0  0  0  0  0  0  0  0  0  0
   41.3830   33.5060   38.2960 N   0  0  0  0  0  0  0  0  0  0  0  0
   41.9330   33.5460   36.2910 H   0  0  0  0  0  0  0  0  0  0  0  0
   44.3760   33.7700   36.8460 H   0  0  0  0  0  0  0  0  0  0  0  0
   45.0360   33.8430   39.2710 H   0  0  0  0  0  0  0  0  0  0  0  0
   37.6800   29.6300   40.0350 O   0  0  0  0  0  0  0  0  0  0  0  0
   35.3120   28.9700   40.8780 O   0  0  0  0  0  0  0  0  0  0  0  0
   36.7760   28.8820   41.2740 P   0  0  2  0  0  0  0  0  0  0  0  0
   37.0330   29.7400   42.6950 O   0  0  0  0  0  0  0  0  0  0  0  0
   37.9050   29.5340   43.0910 H   0  0  0  0  0  0  0  0  0  0  0  0
   37.1680   27.2580   41.4400 O   0  0  0  0  0  0  0  0  0  0  0  0
   36.9930   26.7990   42.7390 C   0  0  0  0  0  0  0  0  0  0  0  0
   36.7080   25.4460   42.7080 F   0  0  0  0  0  0  0  0  0  0  0  0
   35.8960   27.4360   43.2790 F   0  0  0  0  0  0  0  0  0  0  0  0
   38.0880   27.0710   43.5350 F   0  0  0  0  0  0  0  0  0  0  0  0
  2  1  1  0  0  0  0
  3  2  1  0  0  0  0
  3 11  1  0  0  0  0
  4  3  2  0  0  0  0
  5  6  2  0  0  0  0
  5  4  1  0  0  0  0
  6  7  1  0  0  0  0
  7 23  1  0  0  0  0
  7  2  2  0  0  0  0
  8  4  1  0  0  0  0
  9  5  1  0  0  0  0
 10  6  1  0  0  0  0
 11 13  1  0  0  0  0
 11 12  1  0  0  0  0
 14 15  2  0  0  0  0
 14 19  1  0  0  0  0
 15 16  1  0  0  0  0
 16 22  1  0  0  0  0
 16 17  2  0  0  0  0
 18 17  1  0  0  0  0
 18 11  1  0  0  0  0
 19 18  2  0  0  0  0
 20 14  1  0  0  0  0
 21 15  1  0  0  0  0
 23 25  1  0  0  0  0
 25 24  2  6  0  0  0
 25 28  1  0  0  0  0
 25 26  1  0  0  0  0
 26 27  1  0  0  0  0
 28 29  1  0  0  0  0
 29 31  1  0  0  0  0
 29 32  1  0  0  0  0
 30 29  1  0  0  0  0
M  END
>  <minimizedAffinity>
-5.57695246

$$$$

 OpenBabel03252502573D

 32 33  0  0  0  0  0  0  0  0999 V2000
   39.1820   29.6610   42.9070 Br  0  0  0  0  0  0  0  0  0  0  0  0
   37.5910   29.6070   41.8380 C   0  0  0  0  0  0  0  0  0  0  0  0
   36.8430   28.4550   41.9340 C   0  0  0  0  0  0  0  0  0  0  0  0
   35.6890   28.4410   41.1460 C   0  0  0  0  0  0  0  0  0  0  0  0
   35.3110   29.4830   40.3320 C   0  0  0  0  0  0  0  0  0  0  0  0
   36.1040   30.6020   40.2840 C   0  0  0  0  0  0  0  0  0  0  0  0
   37.2500   30.6810   41.0320 C   0  0  0  0  0  0  0  0  0  0  0  0
   35.0540   27.5710   41.1700 H   0  0  0  0  0  0  0  0  0  0  0  0
   34.4110   29.4090   39.7500 H   0  0  0  0  0  0  0  0  0  0  0  0
   35.7810   31.4140   39.6300 H   0  0  0  0  0  0  0  0  0  0  0  0
   37.1310   27.2870   42.7540 C   0  0  0  0  0  0  0  0  0  0  0  0
   36.1910   26.9950   43.2780 H   0  0  0  0  0  0  0  0  0  0  0  0
   37.8740   27.4550   43.5510 H   0  0  0  0  0  0  0  0  0  0  0  0
   37.3910   23.8350   41.3430 C   0  0  0  0  0  0  0  0  0  0  0  0
   38.4640   23.9660   40.4690 C   0  0  0  0  0  0  0  0  0  0  0  0
   39.0820   25.2040   40.3670 C   0  0  0  0  0  0  0  0  0  0  0  0
   38.6140   26.2140   41.1160 N   0  0  0  0  0  0  0  0  0  0  0  0
   37.5630   26.0920   41.9720 C   0  0  0  0  0  0  0  0  0  0  0  0
   36.9780   24.8760   42.0540 N   0  0  0  0  0  0  0  0  0  0  0  0
   36.8620   22.8850   41.4670 H   0  0  0  0  0  0  0  0  0  0  0  0
   38.8040   23.1170   39.8860 H   0  0  0  0  0  0  0  0  0  0  0  0
   39.9200   25.3640   39.7050 H   0  0  0  0  0  0  0  0  0  0  0  0
   38.0580   31.8140   40.9870 O   0  0  0  0  0  0  0  0  0  0  0  0
   39.4150   33.6530   39.7510 O   0  0  0  0  0  0  0  0  0  0  0  0
   38.1340   32.8470   39.6300 P   0  0  2  0  0  0  0  0  0  0  0  0
   36.8070   33.8750   39.6870 O   0  0  0  0  0  0  0  0  0  0  0  0
   35.9860   33.4240   39.4030 H   0  0  0  0  0  0  0  0  0  0  0  0
   38.2000   31.9850   38.1910 O   0  0  0  0  0  0  0  0  0  0  0  0
   39.4160   31.3390   38.0140 C   0  0  0  0  0  0  0  0  0  0  0  0
   40.2430   32.1310   37.2400 F   0  0  0  0  0  0  0  0  0  0  0  0
   39.1900   30.1740   37.3110 F   0  0  0  0  0  0  0  0  0  0  0  0
   40.0070   31.0110   39.2190 F   0  0  0  0  0  0  0  0  0  0  0  0
  2  3  1  0  0  0  0
  2  1  1  0  0  0  0
  3 11  1  0  0  0  0
  4  8  1  0  0  0  0
  4  3  2  0  0  0  0
  5  4  1  0  0  0  0
  6  5  2  0  0  0  0
  6  7  1  0  0  0  0
  7  2  2  0  0  0  0
  9  5  1  0  0  0  0
 10  6  1  0  0  0  0
 11 12  1  0  0  0  0
 11 13  1  0  0  0  0
 14 20  1  0  0  0  0
 14 19  1  0  0  0  0
 15 14  2  0  0  0  0
 16 15  1  0  0  0  0
 16 17  2  0  0  0  0
 17 18  1  0  0  0  0
 18 19  2  0  0  0  0
 18 11  1  0  0  0  0
 21 15  1  0  0  0  0
 22 16  1  0  0  0  0
 23  7  1  0  0  0  0
 25 26  1  0  0  0  0
 25 24  2  1  0  0  0
 25 23  1  0  0  0  0
 27 26  1  0  0  0  0
 28 25  1  0  0  0  0
 29 28  1  0  0  0  0
 29 32  1  0  0  0  0
 30 29  1  0  0  0  0
 31 29  1  0  0  0  0
M  END
>  <minimizedAffinity>
-5.43948507

$$$$

 OpenBabel03252502573D

 32 33  0  0  0  0  0  0  0  0999 V2000
   40.3810   31.1610   42.5400 Br  0  0  0  0  0  0  0  0  0  0  0  0
   38.6550   30.9870   41.7230 C   0  0  0  0  0  0  0  0  0  0  0  0
   38.2810   32.0150   40.8870 C   0  0  0  0  0  0  0  0  0  0  0  0
   37.0190   31.8640   40.3040 C   0  0  0  0  0  0  0  0  0  0  0  0
   36.1990   30.7840   40.5340 C   0  0  0  0  0  0  0  0  0  0  0  0
   36.6350   29.7960   41.3800 C   0  0  0  0  0  0  0  0  0  0  0  0
   37.8620   29.8810   41.9850 C   0  0  0  0  0  0  0  0  0  0  0  0
   36.6610   32.6300   39.6370 H   0  0  0  0  0  0  0  0  0  0  0  0
   35.2400   30.7290   40.0540 H   0  0  0  0  0  0  0  0  0  0  0  0
   35.9650   28.9500   41.5450 H   0  0  0  0  0  0  0  0  0  0  0  0
   39.0520   33.2060   40.5610 C   0  0  0  0  0  0  0  0  0  0  0  0
   39.6950   33.4500   41.4390 H   0  0  0  0  0  0  0  0  0  0  0  0
   38.4480   34.1110   40.3780 H   0  0  0  0  0  0  0  0  0  0  0  0
   40.7140   31.9120   37.4730 C   0  0  0  0  0  0  0  0  0  0  0  0
   41.7490   32.8250   37.3050 C   0  0  0  0  0  0  0  0  0  0  0  0
   41.8730   33.8560   38.2240 C   0  0  0  0  0  0  0  0  0  0  0  0
   40.9890   33.9220   39.2310 N   0  0  0  0  0  0  0  0  0  0  0  0
   39.9740   33.0310   39.4010 C   0  0  0  0  0  0  0  0  0  0  0  0
   39.8740   32.0360   38.4920 N   0  0  0  0  0  0  0  0  0  0  0  0
   40.5640   31.0780   36.7810 H   0  0  0  0  0  0  0  0  0  0  0  0
   42.4380   32.7270   36.4720 H   0  0  0  0  0  0  0  0  0  0  0  0
   42.6580   34.5940   38.1440 H   0  0  0  0  0  0  0  0  0  0  0  0
   38.3090   28.8810   42.8440 O   0  0  0  0  0  0  0  0  0  0  0  0
   40.5320   27.5450   42.9970 O   0  0  0  0  0  0  0  0  0  0  0  0
   39.1800   27.5160   42.3060 P   0  0  2  0  0  0  0  0  0  0  0  0
   39.3880   27.6540   40.6450 O   0  0  0  0  0  0  0  0  0  0  0  0
   38.5690   27.4280   40.1570 H   0  0  0  0  0  0  0  0  0  0  0  0
   38.4160   26.0810   42.7270 O   0  0  0  0  0  0  0  0  0  0  0  0
   37.0560   26.1020   42.4510 C   0  0  0  0  0  0  0  0  0  0  0  0
   36.4090   26.8600   43.4100 F   0  0  0  0  0  0  0  0  0  0  0  0
   36.5730   24.8150   42.5550 F   0  0  0  0  0  0  0  0  0  0  0  0
   36.7940   26.5620   41.1760 F   0  0  0  0  0  0  0  0  0  0  0  0
  2  7  1  0  0  0  0
  2  1  1  0  0  0  0
  3  2  2  0  0  0  0
  4  5  2  0  0  0  0
  4  3  1  0  0  0  0
  5  6  1  0  0  0  0
  6 10  1  0  0  0  0
  6  7  2  0  0  0  0
  7 23  1  0  0  0  0
  8  4  1  0  0  0  0
  9  5  1  0  0  0  0
 11  3  1  0  0  0  0
 11 12  1  0  0  0  0
 13 11  1  0  0  0  0
 14 19  1  0  0  0  0
 15 14  2  0  0  0  0
 15 16  1  0  0  0  0
 16 17  2  0  0  0  0
 17 18  1  0  0  0  0
 18 11  1  0  0  0  0
 19 18  2  0  0  0  0
 20 14  1  0  0  0  0
 21 15  1  0  0  0  0
 22 16  1  0  0  0  0
 25 28  1  0  0  0  0
 25 23  1  0  0  0  0
 25 24  2  1  0  0  0
 26 25  1  0  0  0  0
 27 26  1  0  0  0  0
 29 31  1  0  0  0  0
 29 28  1  0  0  0  0
 29 30  1  0  0  0  0
 32 29  1  0  0  0  0
M  END
>  <minimizedAffinity>
-5.39074373

$$$$

 OpenBabel03252502573D

 32 33  0  0  0  0  0  0  0  0999 V2000
   39.3780   28.2710   39.2440 Br  0  0  0  0  0  0  0  0  0  0  0  0
   38.8430   28.0470   41.0720 C   0  0  0  0  0  0  0  0  0  0  0  0
   39.0250   26.7880   41.6000 C   0  0  0  0  0  0  0  0  0  0  0  0
   38.6290   26.6510   42.9330 C   0  0  0  0  0  0  0  0  0  0  0  0
   38.0960   27.6770   43.6780 C   0  0  0  0  0  0  0  0  0  0  0  0
   37.9420   28.9060   43.0880 C   0  0  0  0  0  0  0  0  0  0  0  0
   38.3110   29.1100   41.7830 C   0  0  0  0  0  0  0  0  0  0  0  0
   38.7420   25.6930   43.4130 H   0  0  0  0  0  0  0  0  0  0  0  0
   37.8100   27.5050   44.6990 H   0  0  0  0  0  0  0  0  0  0  0  0
   37.5160   29.7040   43.7010 H   0  0  0  0  0  0  0  0  0  0  0  0
   39.5760   25.6230   40.9220 C   0  0  0  0  0  0  0  0  0  0  0  0
   40.2370   25.0860   41.6440 H   0  0  0  0  0  0  0  0  0  0  0  0
   40.2150   25.8540   40.0530 H   0  0  0  0  0  0  0  0  0  0  0  0
   37.7270   22.4510   40.2250 C   0  0  0  0  0  0  0  0  0  0  0  0
   36.5660   22.9250   39.6250 C   0  0  0  0  0  0  0  0  0  0  0  0
   36.4210   24.2960   39.4650 C   0  0  0  0  0  0  0  0  0  0  0  0
   37.4080   25.0960   39.8950 N   0  0  0  0  0  0  0  0  0  0  0  0
   38.5470   24.6370   40.4830 C   0  0  0  0  0  0  0  0  0  0  0  0
   38.6640   23.2980   40.6280 N   0  0  0  0  0  0  0  0  0  0  0  0
   37.8980   21.3810   40.3790 H   0  0  0  0  0  0  0  0  0  0  0  0
   35.7970   22.2360   39.2940 H   0  0  0  0  0  0  0  0  0  0  0  0
   35.5410   24.7210   39.0060 H   0  0  0  0  0  0  0  0  0  0  0  0
   38.1560   30.3550   41.1800 O   0  0  0  0  0  0  0  0  0  0  0  0
   36.9830   32.1750   39.7450 O   0  0  0  0  0  0  0  0  0  0  0  0
   36.7060   30.8460   40.4250 P   0  0  2  0  0  0  0  0  0  0  0  0
   35.5430   31.0500   41.6180 O   0  0  0  0  0  0  0  0  0  0  0  0
   35.1880   30.1920   41.9300 H   0  0  0  0  0  0  0  0  0  0  0  0
   36.2150   29.7560   39.2460 O   0  0  0  0  0  0  0  0  0  0  0  0
   35.2480   28.8730   39.7090 C   0  0  0  0  0  0  0  0  0  0  0  0
   35.5650   28.4880   40.9990 F   0  0  0  0  0  0  0  0  0  0  0  0
   35.2850   27.7410   38.9230 F   0  0  0  0  0  0  0  0  0  0  0  0
   33.9790   29.4120   39.6350 F   0  0  0  0  0  0  0  0  0  0  0  0
  1  2  1  0  0  0  0
  2  3  2  0  0  0  0
  2  7  1  0  0  0  0
  3  4  1  0  0  0  0
  4  8  1  0  0  0  0
  4  5  2  0  0  0  0
  5  9  1  0  0  0  0
  6  5  1  0  0  0  0
  6 10  1  0  0  0  0
  7  6  2  0  0  0  0
 11  3  1  0  0  0  0
 11 12  1  0  0  0  0
 13 11  1  0  0  0  0
 14 20  1  0  0  0  0
 14 19  1  0  0  0  0
 15 14  2  0  0  0  0
 16 15  1  0  0  0  0
 16 17  2  0  0  0  0
 17 18  1  0  0  0  0
 18 19  2  0  0  0  0
 18 11  1  0  0  0  0
 21 15  1  0  0  0  0
 22 16  1  0  0  0  0
 23  7  1  0  0  0  0
 25 24  2  6  0  0  0
 25 23  1  0  0  0  0
 25 26  1  0  0  0  0
 26 27  1  0  0  0  0
 28 29  1  0  0  0  0
 28 25  1  0  0  0  0
 29 30  1  0  0  0  0
 31 29  1  0  0  0  0
 32 29  1  0  0  0  0
M  END
>  <minimizedAffinity>
-5.25891399

$$$$

 OpenBabel03252502573D

 32 33  0  0  0  0  0  0  0  0999 V2000
   36.8430   27.1720   43.0200 Br  0  0  0  0  0  0  0  0  0  0  0  0
   38.6410   27.8200   42.8580 C   0  0  0  0  0  0  0  0  0  0  0  0
   39.6310   26.8680   42.9500 C   0  0  0  0  0  0  0  0  0  0  0  0
   40.9320   27.3650   42.8280 C   0  0  0  0  0  0  0  0  0  0  0  0
   41.2230   28.6950   42.6330 C   0  0  0  0  0  0  0  0  0  0  0  0
   40.1860   29.5900   42.5520 C   0  0  0  0  0  0  0  0  0  0  0  0
   38.8860   29.1690   42.6620 C   0  0  0  0  0  0  0  0  0  0  0  0
   41.7590   26.6770   42.8900 H   0  0  0  0  0  0  0  0  0  0  0  0
   42.2460   29.0120   42.5490 H   0  0  0  0  0  0  0  0  0  0  0  0
   40.4450   30.6390   42.3960 H   0  0  0  0  0  0  0  0  0  0  0  0
   39.4580   25.4360   43.1540 C   0  0  0  0  0  0  0  0  0  0  0  0
   38.5860   25.2900   43.8350 H   0  0  0  0  0  0  0  0  0  0  0  0
   40.3060   24.9350   43.6480 H   0  0  0  0  0  0  0  0  0  0  0  0
   39.5790   24.0490   39.6850 C   0  0  0  0  0  0  0  0  0  0  0  0
   38.4530   23.2330   39.6670 C   0  0  0  0  0  0  0  0  0  0  0  0
   37.6750   23.1610   40.8130 C   0  0  0  0  0  0  0  0  0  0  0  0
   38.0450   23.8810   41.8820 N   0  0  0  0  0  0  0  0  0  0  0  0
   39.1460   24.6810   41.9060 C   0  0  0  0  0  0  0  0  0  0  0  0
   39.8890   24.7350   40.7770 N   0  0  0  0  0  0  0  0  0  0  0  0
   40.2330   24.1460   38.8130 H   0  0  0  0  0  0  0  0  0  0  0  0
   38.1970   22.6700   38.7760 H   0  0  0  0  0  0  0  0  0  0  0  0
   36.7890   22.5440   40.8560 H   0  0  0  0  0  0  0  0  0  0  0  0
   37.8310   30.0730   42.5800 O   0  0  0  0  0  0  0  0  0  0  0  0
   37.9960   31.9280   40.7690 O   0  0  0  0  0  0  0  0  0  0  0  0
   37.2250   30.6610   41.0970 P   0  0  2  0  0  0  0  0  0  0  0  0
   35.5990   31.0230   41.3070 O   0  0  0  0  0  0  0  0  0  0  0  0
   35.0450   30.2150   41.3090 H   0  0  0  0  0  0  0  0  0  0  0  0
   37.4710   29.5700   39.8450 O   0  0  0  0  0  0  0  0  0  0  0  0
   37.3870   30.1680   38.5950 C   0  0  0  0  0  0  0  0  0  0  0  0
   37.0740   29.2060   37.6510 F   0  0  0  0  0  0  0  0  0  0  0  0
   38.6300   30.6680   38.2700 F   0  0  0  0  0  0  0  0  0  0  0  0
   36.4820   31.2100   38.5800 F   0  0  0  0  0  0  0  0  0  0  0  0
  2  3  1  0  0  0  0
  2  1  1  0  0  0  0
  3 11  1  0  0  0  0
  4  8  1  0  0  0  0
  4  3  2  0  0  0  0
  5  4  1  0  0  0  0
  6  5  2  0  0  0  0
  6  7  1  0  0  0  0
  7  2  2  0  0  0  0
  9  5  1  0  0  0  0
 10  6  1  0  0  0  0
 11 13  1  0  0  0  0
 11 12  1  0  0  0  0
 14 19  1  0  0  0  0
 15 14  2  0  0  0  0
 15 16  1  0  0  0  0
 16 22  1  0  0  0  0
 16 17  2  0  0  0  0
 17 18  1  0  0  0  0
 18 11  1  0  0  0  0
 19 18  2  0  0  0  0
 20 14  1  0  0  0  0
 21 15  1  0  0  0  0
 23  7  1  0  0  0  0
 25 24  2  6  0  0  0
 25 26  1  0  0  0  0
 25 23  1  0  0  0  0
 26 27  1  0  0  0  0
 28 25  1  0  0  0  0
 29 28  1  0  0  0  0
 30 29  1  0  0  0  0
 31 29  1  0  0  0  0
 32 29  1  0  0  0  0
M  END
>  <minimizedAffinity>
-5.25567865

$$$$

 OpenBabel03252502573D

 32 33  0  0  0  0  0  0  0  0999 V2000
   38.0540   30.1230   37.8740 Br  0  0  0  0  0  0  0  0  0  0  0  0
   38.5990   31.6370   38.9180 C   0  0  0  0  0  0  0  0  0  0  0  0
   37.8500   31.8890   40.0450 C   0  0  0  0  0  0  0  0  0  0  0  0
   38.2670   32.9970   40.7880 C   0  0  0  0  0  0  0  0  0  0  0  0
   39.3380   33.7860   40.4410 C   0  0  0  0  0  0  0  0  0  0  0  0
   40.0410   33.4780   39.3030 C   0  0  0  0  0  0  0  0  0  0  0  0
   39.6850   32.4040   38.5280 C   0  0  0  0  0  0  0  0  0  0  0  0
   37.7270   33.2540   41.6840 H   0  0  0  0  0  0  0  0  0  0  0  0
   39.6070   34.6250   41.0560 H   0  0  0  0  0  0  0  0  0  0  0  0
   40.8860   34.1210   39.0500 H   0  0  0  0  0  0  0  0  0  0  0  0
   36.7000   31.1340   40.5220 C   0  0  0  0  0  0  0  0  0  0  0  0
   36.2080   30.6620   39.6380 H   0  0  0  0  0  0  0  0  0  0  0  0
   35.9170   31.7420   41.0050 H   0  0  0  0  0  0  0  0  0  0  0  0
   38.3550   29.0460   43.1440 C   0  0  0  0  0  0  0  0  0  0  0  0
   37.5890   27.8870   43.1080 C   0  0  0  0  0  0  0  0  0  0  0  0
   36.5340   27.8230   42.2090 C   0  0  0  0  0  0  0  0  0  0  0  0
   36.3040   28.8820   41.4190 N   0  0  0  0  0  0  0  0  0  0  0  0
   37.0500   30.0200   41.4500 C   0  0  0  0  0  0  0  0  0  0  0  0
   38.0720   30.0580   42.3340 N   0  0  0  0  0  0  0  0  0  0  0  0
   39.1990   29.1570   43.8310 H   0  0  0  0  0  0  0  0  0  0  0  0
   37.8160   27.0570   43.7690 H   0  0  0  0  0  0  0  0  0  0  0  0
   35.9060   26.9470   42.1370 H   0  0  0  0  0  0  0  0  0  0  0  0
   40.3950   32.0870   37.3740 O   0  0  0  0  0  0  0  0  0  0  0  0
   42.6790   32.0830   38.6110 O   0  0  0  0  0  0  0  0  0  0  0  0
   42.0820   32.3030   37.2330 P   0  0  2  0  0  0  0  0  0  0  0  0
   42.3630   33.8830   36.7370 O   0  0  0  0  0  0  0  0  0  0  0  0
   42.1840   34.0010   35.7820 H   0  0  0  0  0  0  0  0  0  0  0  0
   42.7710   31.1840   36.1870 O   0  0  0  0  0  0  0  0  0  0  0  0
   42.6110   29.8780   36.6280 C   0  0  0  0  0  0  0  0  0  0  0  0
   43.6420   29.5610   37.4950 F   0  0  0  0  0  0  0  0  0  0  0  0
   42.7210   29.0370   35.5400 F   0  0  0  0  0  0  0  0  0  0  0  0
   41.3760   29.6750   37.2100 F   0  0  0  0  0  0  0  0  0  0  0  0
  1  2  1  0  0  0  0
  2  3  1  0  0  0  0
  3 11  1  0  0  0  0
  3  4  2  0  0  0  0
  4  8  1  0  0  0  0
  5  4  1  0  0  0  0
  5  9  1  0  0  0  0
  6  5  2  0  0  0  0
  7  2  2  0  0  0  0
  7  6  1  0  0  0  0
 10  6  1  0  0  0  0
 11 13  1  0  0  0  0
 11 18  1  0  0  0  0
 12 11  1  0  0  0  0
 14 20  1  0  0  0  0
 15 14  1  0  0  0  0
 15 21  1  0  0  0  0
 16 15  2  0  0  0  0
 17 18  2  0  0  0  0
 17 16  1  0  0  0  0
 18 19  1  0  0  0  0
 19 14  2  0  0  0  0
 22 16  1  0  0  0  0
 23  7  1  0  0  0  0
 25 23  1  0  0  0  0
 25 24  2  1  0  0  0
 26 25  1  0  0  0  0
 27 26  1  0  0  0  0
 28 29  1  0  0  0  0
 28 25  1  0  0  0  0
 29 32  1  0  0  0  0
 29 30  1  0  0  0  0
 31 29  1  0  0  0  0
M  END
>  <minimizedAffinity>
-5.24674034

$$$$

 OpenBabel03252502573D

 32 33  0  0  0  0  0  0  0  0999 V2000
   39.6500   29.5320   42.6910 Br  0  0  0  0  0  0  0  0  0  0  0  0
   37.9280   29.4360   41.8530 C   0  0  0  0  0  0  0  0  0  0  0  0
   37.1970   28.2990   42.1130 C   0  0  0  0  0  0  0  0  0  0  0  0
   35.9470   28.2530   41.4900 C   0  0  0  0  0  0  0  0  0  0  0  0
   35.4640   29.2520   40.6790 C   0  0  0  0  0  0  0  0  0  0  0  0
   36.2460   30.3590   40.4620 C   0  0  0  0  0  0  0  0  0  0  0  0
   37.4830   30.4680   41.0420 C   0  0  0  0  0  0  0  0  0  0  0  0
   35.3190   27.3920   41.6480 H   0  0  0  0  0  0  0  0  0  0  0  0
   34.4930   29.1550   40.2290 H   0  0  0  0  0  0  0  0  0  0  0  0
   35.8390   31.1380   39.8140 H   0  0  0  0  0  0  0  0  0  0  0  0
   37.5910   27.1740   42.9490 C   0  0  0  0  0  0  0  0  0  0  0  0
   36.7220   26.9050   43.5950 H   0  0  0  0  0  0  0  0  0  0  0  0
   38.4210   27.3850   43.6450 H   0  0  0  0  0  0  0  0  0  0  0  0
   37.5010   23.7670   41.4150 C   0  0  0  0  0  0  0  0  0  0  0  0
   38.7090   23.7340   40.7270 C   0  0  0  0  0  0  0  0  0  0  0  0
   39.5310   24.8500   40.7870 C   0  0  0  0  0  0  0  0  0  0  0  0
   39.1210   25.9060   41.5060 N   0  0  0  0  0  0  0  0  0  0  0  0
   37.9400   25.9430   42.1820 C   0  0  0  0  0  0  0  0  0  0  0  0
   37.1570   24.8440   42.1080 N   0  0  0  0  0  0  0  0  0  0  0  0
   36.8110   22.9180   41.4050 H   0  0  0  0  0  0  0  0  0  0  0  0
   38.9940   22.8550   40.1590 H   0  0  0  0  0  0  0  0  0  0  0  0
   40.4800   24.8810   40.2720 H   0  0  0  0  0  0  0  0  0  0  0  0
   38.2800   31.5890   40.8250 O   0  0  0  0  0  0  0  0  0  0  0  0
   40.6370   31.2920   39.7740 O   0  0  0  0  0  0  0  0  0  0  0  0
   39.2430   31.7860   39.4300 P   0  0  2  0  0  0  0  0  0  0  0  0
   39.2950   33.4240   39.0630 O   0  0  0  0  0  0  0  0  0  0  0  0
   38.4670   33.7270   38.6370 H   0  0  0  0  0  0  0  0  0  0  0  0
   38.6740   30.8710   38.1430 O   0  0  0  0  0  0  0  0  0  0  0  0
   37.7210   31.5450   37.3920 C   0  0  0  0  0  0  0  0  0  0  0  0
   37.0000   32.3860   38.2200 F   0  0  0  0  0  0  0  0  0  0  0  0
   36.8360   30.6180   36.8820 F   0  0  0  0  0  0  0  0  0  0  0  0
   38.2860   32.2310   36.3360 F   0  0  0  0  0  0  0  0  0  0  0  0
  2  3  1  0  0  0  0
  2  1  1  0  0  0  0
  3 11  1  0  0  0  0
  4  8  1  0  0  0  0
  4  3  2  0  0  0  0
  5  4  1  0  0  0  0
  6  5  2  0  0  0  0
  6  7  1  0  0  0  0
  7  2  2  0  0  0  0
  9  5  1  0  0  0  0
 10  6  1  0  0  0  0
 11 12  1  0  0  0  0
 11 13  1  0  0  0  0
 14 19  1  0  0  0  0
 15 16  1  0  0  0  0
 15 14  2  0  0  0  0
 16 17  2  0  0  0  0
 17 18  1  0  0  0  0
 18 11  1  0  0  0  0
 19 18  2  0  0  0  0
 20 14  1  0  0  0  0
 21 15  1  0  0  0  0
 22 16  1  0  0  0  0
 23  7  1  0  0  0  0
 25 24  2  1  0  0  0
 25 23  1  0  0  0  0
 26 25  1  0  0  0  0
 27 26  1  0  0  0  0
 28 25  1  0  0  0  0
 29 28  1  0  0  0  0
 29 30  1  0  0  0  0
 31 29  1  0  0  0  0
 32 29  1  0  0  0  0
M  END
>  <minimizedAffinity>
-5.18976259

$$$$

 OpenBabel03252502573D

 32 33  0  0  0  0  0  0  0  0999 V2000
   35.3820   28.9120   40.6530 Br  0  0  0  0  0  0  0  0  0  0  0  0
   37.0920   29.0400   41.5110 C   0  0  0  0  0  0  0  0  0  0  0  0
   37.6070   27.8610   42.0010 C   0  0  0  0  0  0  0  0  0  0  0  0
   38.8530   27.9810   42.6220 C   0  0  0  0  0  0  0  0  0  0  0  0
   39.5310   29.1710   42.7450 C   0  0  0  0  0  0  0  0  0  0  0  0
   38.9590   30.3090   42.2330 C   0  0  0  0  0  0  0  0  0  0  0  0
   37.7380   30.2620   41.6110 C   0  0  0  0  0  0  0  0  0  0  0  0
   39.3170   27.0980   43.0300 H   0  0  0  0  0  0  0  0  0  0  0  0
   40.4870   29.1950   43.2340 H   0  0  0  0  0  0  0  0  0  0  0  0
   39.5170   31.2410   42.3440 H   0  0  0  0  0  0  0  0  0  0  0  0
   36.9940   26.5410   41.9360 C   0  0  0  0  0  0  0  0  0  0  0  0
   35.9730   26.6570   41.5030 H   0  0  0  0  0  0  0  0  0  0  0  0
   36.8460   26.0530   42.9140 H   0  0  0  0  0  0  0  0  0  0  0  0
   38.8030   24.9970   39.0530 C   0  0  0  0  0  0  0  0  0  0  0  0
   39.0430   23.7110   39.5240 C   0  0  0  0  0  0  0  0  0  0  0  0
   38.5960   23.3830   40.7960 C   0  0  0  0  0  0  0  0  0  0  0  0
   37.9550   24.3220   41.5080 N   0  0  0  0  0  0  0  0  0  0  0  0
   37.7180   25.5820   41.0520 C   0  0  0  0  0  0  0  0  0  0  0  0
   38.1630   25.8780   39.8100 N   0  0  0  0  0  0  0  0  0  0  0  0
   39.1310   25.3160   38.0590 H   0  0  0  0  0  0  0  0  0  0  0  0
   39.5660   22.9890   38.9070 H   0  0  0  0  0  0  0  0  0  0  0  0
   38.7540   22.3990   41.2130 H   0  0  0  0  0  0  0  0  0  0  0  0
   37.1530   31.4130   41.0910 O   0  0  0  0  0  0  0  0  0  0  0  0
   39.0700   33.1370   40.7650 O   0  0  0  0  0  0  0  0  0  0  0  0
   37.9560   32.4470   39.9960 P   0  0  2  0  0  0  0  0  0  0  0  0
   36.8500   33.5880   39.4530 O   0  0  0  0  0  0  0  0  0  0  0  0
   36.2410   33.2130   38.7830 H   0  0  0  0  0  0  0  0  0  0  0  0
   38.6550   31.5960   38.7290 O   0  0  0  0  0  0  0  0  0  0  0  0
   37.7210   31.1710   37.7950 C   0  0  0  0  0  0  0  0  0  0  0  0
   38.1820   30.0220   37.1800 F   0  0  0  0  0  0  0  0  0  0  0  0
   37.6120   32.1410   36.8200 F   0  0  0  0  0  0  0  0  0  0  0  0
   36.4750   30.9820   38.3590 F   0  0  0  0  0  0  0  0  0  0  0  0
  1  2  1  0  0  0  0
  2  7  2  0  0  0  0
  2  3  1  0  0  0  0
  3  4  2  0  0  0  0
  4  5  1  0  0  0  0
  4  8  1  0  0  0  0
  5  9  1  0  0  0  0
  6 10  1  0  0  0  0
  6  5  2  0  0  0  0
  7  6  1  0  0  0  0
 11  3  1  0  0  0  0
 11 13  1  0  0  0  0
 12 11  1  0  0  0  0
 14 15  2  0  0  0  0
 14 19  1  0  0  0  0
 15 16  1  0  0  0  0
 16 22  1  0  0  0  0
 16 17  2  0  0  0  0
 18 17  1  0  0  0  0
 18 11  1  0  0  0  0
 19 18  2  0  0  0  0
 20 14  1  0  0  0  0
 21 15  1  0  0  0  0
 23  7  1  0  0  0  0
 25 24  2  1  0  0  0
 25 23  1  0  0  0  0
 26 25  1  0  0  0  0
 27 26  1  0  0  0  0
 28 25  1  0  0  0  0
 29 32  1  0  0  0  0
 29 28  1  0  0  0  0
 30 29  1  0  0  0  0
 31 29  1  0  0  0  0
M  END
>  <minimizedAffinity>
-5.17775249

$$$$

 OpenBabel03252502573D

 32 33  0  0  0  0  0  0  0  0999 V2000
   40.0880   28.1250   40.3530 Br  0  0  0  0  0  0  0  0  0  0  0  0
   38.6310   27.7400   41.5380 C   0  0  0  0  0  0  0  0  0  0  0  0
   38.3680   26.4060   41.7520 C   0  0  0  0  0  0  0  0  0  0  0  0
   37.3010   26.1520   42.6190 C   0  0  0  0  0  0  0  0  0  0  0  0
   36.5600   27.1400   43.2230 C   0  0  0  0  0  0  0  0  0  0  0  0
   36.8770   28.4500   42.9650 C   0  0  0  0  0  0  0  0  0  0  0  0
   37.9110   28.7700   42.1240 C   0  0  0  0  0  0  0  0  0  0  0  0
   37.0380   25.1300   42.8330 H   0  0  0  0  0  0  0  0  0  0  0  0
   35.7510   26.8780   43.8790 H   0  0  0  0  0  0  0  0  0  0  0  0
   36.2720   29.2160   43.4560 H   0  0  0  0  0  0  0  0  0  0  0  0
   39.0740   25.2690   41.1780 C   0  0  0  0  0  0  0  0  0  0  0  0
   39.4020   24.6090   42.0160 H   0  0  0  0  0  0  0  0  0  0  0  0
   39.9950   25.5270   40.6290 H   0  0  0  0  0  0  0  0  0  0  0  0
   36.7940   24.1090   38.4530 C   0  0  0  0  0  0  0  0  0  0  0  0
   36.7120   22.7460   38.7130 C   0  0  0  0  0  0  0  0  0  0  0  0
   37.4200   22.2380   39.7920 C   0  0  0  0  0  0  0  0  0  0  0  0
   38.1480   23.0870   40.5330 N   0  0  0  0  0  0  0  0  0  0  0  0
   38.2320   24.4230   40.2840 C   0  0  0  0  0  0  0  0  0  0  0  0
   37.5340   24.8930   39.2260 N   0  0  0  0  0  0  0  0  0  0  0  0
   36.2590   24.5680   37.6160 H   0  0  0  0  0  0  0  0  0  0  0  0
   36.1090   22.1020   38.0820 H   0  0  0  0  0  0  0  0  0  0  0  0
   37.3940   21.1880   40.0420 H   0  0  0  0  0  0  0  0  0  0  0  0
   38.2360   30.0970   41.8590 O   0  0  0  0  0  0  0  0  0  0  0  0
   37.9770   32.4520   40.7930 O   0  0  0  0  0  0  0  0  0  0  0  0
   37.3610   31.0650   40.7590 P   0  0  2  0  0  0  0  0  0  0  0  0
   35.7680   31.1380   41.2860 O   0  0  0  0  0  0  0  0  0  0  0  0
   35.2790   30.3140   41.0800 H   0  0  0  0  0  0  0  0  0  0  0  0
   37.4770   30.4870   39.1870 O   0  0  0  0  0  0  0  0  0  0  0  0
   37.5820   31.5080   38.2520 C   0  0  0  0  0  0  0  0  0  0  0  0
   36.7470   32.5470   38.6180 F   0  0  0  0  0  0  0  0  0  0  0  0
   37.1340   31.0310   37.0380 F   0  0  0  0  0  0  0  0  0  0  0  0
   38.8860   31.9340   38.0960 F   0  0  0  0  0  0  0  0  0  0  0  0
  1  2  1  0  0  0  0
  2  3  2  0  0  0  0
  2  7  1  0  0  0  0
  3  4  1  0  0  0  0
  4  8  1  0  0  0  0
  4  5  2  0  0  0  0
  5  9  1  0  0  0  0
  6  5  1  0  0  0  0
  6 10  1  0  0  0  0
  7  6  2  0  0  0  0
 11  3  1  0  0  0  0
 11 12  1  0  0  0  0
 13 11  1  0  0  0  0
 14 15  2  0  0  0  0
 14 19  1  0  0  0  0
 15 16  1  0  0  0  0
 16 22  1  0  0  0  0
 16 17  2  0  0  0  0
 18 17  1  0  0  0  0
 18 11  1  0  0  0  0
 19 18  2  0  0  0  0
 20 14  1  0  0  0  0
 21 15  1  0  0  0  0
 23  7  1  0  0  0  0
 25 24  2  1  0  0  0
 25 26  1  0  0  0  0
 25 23  1  0  0  0  0
 27 26  1  0  0  0  0
 28 25  1  0  0  0  0
 29 30  1  0  0  0  0
 29 28  1  0  0  0  0
 31 29  1  0  0  0  0
 32 29  1  0  0  0  0
M  END
>  <minimizedAffinity>
-5.14316988

$$$$
