
 OpenBabel03252509313D

 22 22  0  0  0  0  0  0  0  0999 V2000
   46.5760   34.9100   41.9930 C   0  0  0  0  0  0  0  0  0  0  0  0
   45.7630   34.9540   41.2370 H   0  0  0  0  0  0  0  0  0  0  0  0
   47.1630   35.8350   41.8790 H   0  0  0  0  0  0  0  0  0  0  0  0
   45.5430   33.9700   45.4540 C   0  0  0  0  0  0  0  0  0  0  0  0
   46.1760   33.9250   44.1970 C   0  0  0  0  0  0  0  0  0  0  0  0
   45.9230   34.9440   43.3080 C   0  0  0  0  0  0  0  0  0  0  0  0
   45.0690   35.9650   43.6680 N   0  0  0  0  0  0  0  0  0  0  0  0
   44.4730   35.9740   44.8970 C   0  0  0  0  0  0  0  0  0  0  0  0
   44.7160   34.9900   45.7600 N   0  0  0  0  0  0  0  0  0  0  0  0
   45.6890   33.2150   46.2020 H   0  0  0  0  0  0  0  0  0  0  0  0
   46.8170   33.0940   44.0170 H   0  0  0  0  0  0  0  0  0  0  0  0
   43.8280   36.8340   45.0450 H   0  0  0  0  0  0  0  0  0  0  0  0
   47.3170   33.7420   41.8240 O   0  0  0  0  0  0  0  0  0  0  0  0
   49.2610   32.8560   40.3170 O   0  0  0  0  0  0  0  0  0  0  0  0
   48.2220   33.9430   40.4070 P   0  0  2  0  0  0  0  0  0  0  0  0
   48.9010   35.4940   40.4810 O   0  0  0  0  0  0  0  0  0  0  0  0
   49.8900   35.4800   40.3610 H   0  0  0  0  0  0  0  0  0  0  0  0
   47.1920   33.8210   39.0880 O   0  0  0  0  0  0  0  0  0  0  0  0
   47.9060   33.9280   37.8860 C   0  0  0  0  0  0  0  0  0  0  0  0
   48.7250   32.8210   37.7650 F   0  0  0  0  0  0  0  0  0  0  0  0
   48.6960   35.0830   37.9240 F   0  0  0  0  0  0  0  0  0  0  0  0
   47.0480   34.0270   36.8280 F   0  0  0  0  0  0  0  0  0  0  0  0
  1  6  1  0  0  0  0
  2  1  1  0  0  0  0
  3  1  1  0  0  0  0
  4  9  1  0  0  0  0
  4 10  1  0  0  0  0
  5  4  2  0  0  0  0
  6  7  2  0  0  0  0
  6  5  1  0  0  0  0
  7  8  1  0  0  0  0
  8 12  1  0  0  0  0
  8  9  2  0  0  0  0
 11  5  1  0  0  0  0
 13  1  1  0  0  0  0
 15 14  2  6  0  0  0
 15 16  1  0  0  0  0
 15 13  1  0  0  0  0
 17 16  1  0  0  0  0
 18 15  1  0  0  0  0
 19 21  1  0  0  0  0
 19 18  1  0  0  0  0
 20 19  1  0  0  0  0
 22 19  1  0  0  0  0
M  END
>  <minimizedAffinity>
-4.43345785

>  <minimizedRMSD>
2.1380856

$$$$
