
 OpenBabel03252509313D

 22 22  0  0  0  0  0  0  0  0999 V2000
   46.5840   34.1440   42.4470 C   0  0  0  0  0  0  0  0  0  0  0  0
   46.4230   33.0530   42.3030 H   0  0  0  0  0  0  0  0  0  0  0  0
   46.0890   34.6500   41.6030 H   0  0  0  0  0  0  0  0  0  0  0  0
   45.3040   34.0530   45.9520 C   0  0  0  0  0  0  0  0  0  0  0  0
   45.9910   33.6910   44.7780 C   0  0  0  0  0  0  0  0  0  0  0  0
   45.8720   34.5090   43.6780 C   0  0  0  0  0  0  0  0  0  0  0  0
   45.0920   35.6440   43.7570 N   0  0  0  0  0  0  0  0  0  0  0  0
   44.4390   35.9620   44.9130 C   0  0  0  0  0  0  0  0  0  0  0  0
   44.5530   35.1730   45.9790 N   0  0  0  0  0  0  0  0  0  0  0  0
   45.3470   33.4690   46.8500 H   0  0  0  0  0  0  0  0  0  0  0  0
   46.5660   32.7960   44.8210 H   0  0  0  0  0  0  0  0  0  0  0  0
   43.8640   36.8790   44.8320 H   0  0  0  0  0  0  0  0  0  0  0  0
   47.9480   34.4120   42.5490 O   0  0  0  0  0  0  0  0  0  0  0  0
   49.6070   33.3230   40.8490 O   0  0  0  0  0  0  0  0  0  0  0  0
   48.5640   34.4020   40.9730 P   0  0  2  0  0  0  0  0  0  0  0  0
   49.1880   35.9520   40.6870 O   0  0  0  0  0  0  0  0  0  0  0  0
   50.1370   35.9280   40.3850 H   0  0  0  0  0  0  0  0  0  0  0  0
   47.3110   34.0740   39.9060 O   0  0  0  0  0  0  0  0  0  0  0  0
   47.8020   33.8580   38.6110 C   0  0  0  0  0  0  0  0  0  0  0  0
   48.5440   34.9630   38.2350 F   0  0  0  0  0  0  0  0  0  0  0  0
   46.7240   33.7100   37.7310 F   0  0  0  0  0  0  0  0  0  0  0  0
   48.5550   32.7200   38.5680 F   0  0  0  0  0  0  0  0  0  0  0  0
  1 13  1  0  0  0  0
  1  6  1  0  0  0  0
  2  1  1  0  0  0  0
  3  1  1  0  0  0  0
  4  9  1  0  0  0  0
  4 10  1  0  0  0  0
  5 11  1  0  0  0  0
  5  4  2  0  0  0  0
  6  7  2  0  0  0  0
  6  5  1  0  0  0  0
  7  8  1  0  0  0  0
  8  9  2  0  0  0  0
 12  8  1  0  0  0  0
 15 14  2  6  0  0  0
 15 13  1  0  0  0  0
 16 15  1  0  0  0  0
 17 16  1  0  0  0  0
 18 15  1  0  0  0  0
 19 18  1  0  0  0  0
 20 19  1  0  0  0  0
 21 19  1  0  0  0  0
 22 19  1  0  0  0  0
M  END
>  <minimizedAffinity>
-4.1636982

>  <minimizedRMSD>
1.84670544

$$$$
