
 OpenBabel03252509313D

 22 22  0  0  0  0  0  0  0  0999 V2000
   45.9740   34.0710   42.9530 C   0  0  0  0  0  0  0  0  0  0  0  0
   45.9570   33.7680   44.0220 H   0  0  0  0  0  0  0  0  0  0  0  0
   45.3720   34.9900   42.8760 H   0  0  0  0  0  0  0  0  0  0  0  0
   49.7000   33.9230   42.7920 C   0  0  0  0  0  0  0  0  0  0  0  0
   48.3680   33.5860   43.0990 C   0  0  0  0  0  0  0  0  0  0  0  0
   47.3680   34.4110   42.6390 C   0  0  0  0  0  0  0  0  0  0  0  0
   47.6940   35.5290   41.9020 N   0  0  0  0  0  0  0  0  0  0  0  0
   48.9990   35.8250   41.6240 C   0  0  0  0  0  0  0  0  0  0  0  0
   49.9690   35.0280   42.0670 N   0  0  0  0  0  0  0  0  0  0  0  0
   50.5350   33.3310   43.1120 H   0  0  0  0  0  0  0  0  0  0  0  0
   48.2230   32.7010   43.6740 H   0  0  0  0  0  0  0  0  0  0  0  0
   49.1080   36.7310   41.0370 H   0  0  0  0  0  0  0  0  0  0  0  0
   45.5150   33.0230   42.1560 O   0  0  0  0  0  0  0  0  0  0  0  0
   45.9700   30.5240   42.7690 O   0  0  0  0  0  0  0  0  0  0  0  0
   45.1810   31.7330   43.1990 P   0  0  2  0  0  0  0  0  0  0  0  0
   43.5060   31.4780   43.1340 O   0  0  0  0  0  0  0  0  0  0  0  0
   43.2750   30.5360   42.9110 H   0  0  0  0  0  0  0  0  0  0  0  0
   45.6450   32.1600   44.7540 O   0  0  0  0  0  0  0  0  0  0  0  0
   45.9010   31.0220   45.5300 C   0  0  0  0  0  0  0  0  0  0  0  0
   45.7580   31.3600   46.8630 F   0  0  0  0  0  0  0  0  0  0  0  0
   47.2160   30.5980   45.3020 F   0  0  0  0  0  0  0  0  0  0  0  0
   45.0550   30.0070   45.1840 F   0  0  0  0  0  0  0  0  0  0  0  0
  1  2  1  0  0  0  0
  3  1  1  0  0  0  0
  4  5  1  0  0  0  0
  4 10  1  0  0  0  0
  5 11  1  0  0  0  0
  6  1  1  0  0  0  0
  6  5  2  0  0  0  0
  7  6  1  0  0  0  0
  8  7  2  0  0  0  0
  8  9  1  0  0  0  0
  9  4  2  0  0  0  0
 12  8  1  0  0  0  0
 13  1  1  0  0  0  0
 13 15  1  0  0  0  0
 15 14  2  6  0  0  0
 15 18  1  0  0  0  0
 16 15  1  0  0  0  0
 17 16  1  0  0  0  0
 18 19  1  0  0  0  0
 19 20  1  0  0  0  0
 21 19  1  0  0  0  0
 22 19  1  0  0  0  0
M  END
>  <minimizedAffinity>
-3.07758474

>  <minimizedRMSD>
6.00947666

$$$$
