
 OpenBabel03252502223D

 29 30  0  0  1  0  0  0  0  0999 V2000
   46.8580   34.6400   42.2800 N   0  0  0  0  0  0  0  0  0  0  0  0
   48.3240   34.6590   42.3680 C   0  0  0  0  0  0  0  0  0  0  0  0
   48.7430   35.4530   41.1200 C   0  0  0  0  0  0  0  0  0  0  0  0
   48.3900   34.6800   39.8900 C   0  0  0  0  0  0  0  0  0  0  0  0
   47.0540   34.0350   39.9250 C   0  0  0  0  0  0  0  0  0  0  0  0
   46.1510   34.4470   41.0700 C   0  0  1  0  0  0  0  0  0  0  0  0
   48.7390   33.6480   42.2490 H   0  0  0  0  0  0  0  0  0  0  0  0
   48.6710   35.1660   43.2800 H   0  0  0  0  0  0  0  0  0  0  0  0
   49.8510   35.5740   41.1270 H   0  0  0  0  0  0  0  0  0  0  0  0
   48.2300   36.4430   41.1640 H   0  0  0  0  0  0  0  0  0  0  0  0
   48.5340   35.3470   39.0060 H   0  0  0  0  0  0  0  0  0  0  0  0
   49.1530   33.8780   39.7730 H   0  0  0  0  0  0  0  0  0  0  0  0
   46.5120   34.3240   38.9970 H   0  0  0  0  0  0  0  0  0  0  0  0
   47.1120   32.9240   39.9120 H   0  0  0  0  0  0  0  0  0  0  0  0
   45.5970   35.3630   40.7840 H   0  0  0  0  0  0  0  0  0  0  0  0
   44.4710   35.9430   44.8350 C   0  0  0  0  0  0  0  0  0  0  0  0
   45.1870   35.8800   43.6220 C   0  0  0  0  0  0  0  0  0  0  0  0
   46.0850   34.8150   43.4690 C   0  0  0  0  0  0  0  0  0  0  0  0
   46.1920   33.9240   44.5100 N   0  0  0  0  0  0  0  0  0  0  0  0
   45.4880   34.0240   45.6510 C   0  0  0  0  0  0  0  0  0  0  0  0
   44.6240   35.0440   45.8050 N   0  0  0  0  0  0  0  0  0  0  0  0
   43.7640   36.7720   44.9700 H   0  0  0  0  0  0  0  0  0  0  0  0
   45.0740   36.6030   42.8230 H   0  0  0  0  0  0  0  0  0  0  0  0
   45.6510   33.2630   46.4100 H   0  0  0  0  0  0  0  0  0  0  0  0
   45.2150   33.4270   41.2170 O   0  0  0  0  0  0  0  0  0  0  0  0
   43.9450   33.7040   40.8170 C   0  0  0  0  0  0  0  0  0  0  0  0
   43.9190   35.0780   40.5150 F   0  0  0  0  0  0  0  0  0  0  0  0
   43.0390   33.5830   41.8790 F   0  0  0  0  0  0  0  0  0  0  0  0
   43.5410   33.0130   39.7280 F   0  0  0  0  0  0  0  0  0  0  0  0
  1  2  1  0  0  0  0
  1 18  1  0  0  0  0
  2  8  1  0  0  0  0
  3  9  1  0  0  0  0
  3 10  1  0  0  0  0
  3  2  1  0  0  0  0
  4  5  1  0  0  0  0
  4  3  1  0  0  0  0
  5  6  1  0  0  0  0
  6 15  1  6  0  0  0
  6 25  1  0  0  0  0
  6  1  1  0  0  0  0
  7  2  1  0  0  0  0
 11  4  1  0  0  0  0
 12  4  1  0  0  0  0
 13  5  1  0  0  0  0
 14  5  1  0  0  0  0
 16 22  1  0  0  0  0
 16 21  1  0  0  0  0
 17 16  2  0  0  0  0
 18 17  1  0  0  0  0
 18 19  2  0  0  0  0
 19 20  1  0  0  0  0
 20 21  2  0  0  0  0
 20 24  1  0  0  0  0
 23 17  1  0  0  0  0
 26 25  1  0  0  0  0
 26 28  1  0  0  0  0
 27 26  1  0  0  0  0
 29 26  1  0  0  0  0
M  END
>  <minimizedAffinity>
-5.11275816

>  <minimizedRMSD>
0.278421134

$$$$
