
 OpenBabel03252507363D

 27 29  0  0  0  0  0  0  0  0999 V2000
   48.0650   35.1220   41.9510 C   0  0  0  0  0  0  0  0  0  0  0  0
   46.8820   34.4030   42.1330 C   0  0  0  0  0  0  0  0  0  0  0  0
   46.3340   33.8000   41.0410 C   0  0  0  0  0  0  0  0  0  0  0  0
   46.8910   33.8700   39.7810 C   0  0  0  0  0  0  0  0  0  0  0  0
   46.4950   33.3450   38.5880 N   0  0  0  0  0  0  0  0  0  0  0  0
   47.4400   33.7380   37.6530 C   0  0  0  0  0  0  0  0  0  0  0  0
   48.3720   34.4810   38.2930 N   0  0  0  0  0  0  0  0  0  0  0  0
   48.0590   34.5780   39.6000 C   0  0  0  0  0  0  0  0  0  0  0  0
   48.6390   35.1980   40.6820 C   0  0  0  0  0  0  0  0  0  0  0  0
   48.5320   35.6130   42.7890 H   0  0  0  0  0  0  0  0  0  0  0  0
   45.4120   33.2390   41.1760 H   0  0  0  0  0  0  0  0  0  0  0  0
   45.6440   32.7510   38.3790 H   0  0  0  0  0  0  0  0  0  0  0  0
   47.3890   33.4670   36.6040 H   0  0  0  0  0  0  0  0  0  0  0  0
   49.5550   35.7560   40.5460 H   0  0  0  0  0  0  0  0  0  0  0  0
   46.2180   33.6040   45.7510 C   0  0  0  0  0  0  0  0  0  0  0  0
   46.8410   33.5610   44.4830 C   0  0  0  0  0  0  0  0  0  0  0  0
   46.3340   34.3580   43.4750 C   0  0  0  0  0  0  0  0  0  0  0  0
   45.2610   35.1480   43.7380 N   0  0  0  0  0  0  0  0  0  0  0  0
   44.6810   35.1720   44.9650 C   0  0  0  0  0  0  0  0  0  0  0  0
   45.1570   34.4100   45.9480 N   0  0  0  0  0  0  0  0  0  0  0  0
   47.6970   32.9300   44.2740 H   0  0  0  0  0  0  0  0  0  0  0  0
   43.8320   35.7860   45.2040 H   0  0  0  0  0  0  0  0  0  0  0  0
   46.7180   32.8090   46.7590 O   0  0  0  0  0  0  0  0  0  0  0  0
   45.8920   31.6860   47.0960 C   0  0  0  0  0  0  0  0  0  0  0  0
   46.7000   30.7370   47.7200 F   0  0  0  0  0  0  0  0  0  0  0  0
   45.4970   31.1840   45.8520 F   0  0  0  0  0  0  0  0  0  0  0  0
   44.7970   32.0300   47.8300 F   0  0  0  0  0  0  0  0  0  0  0  0
  1  2  1  0  0  0  0
  1 10  1  0  0  0  0
  2 17  1  0  0  0  0
  3 11  1  0  0  0  0
  3  2  2  0  0  0  0
  4  3  1  0  0  0  0
  5  4  1  0  0  0  0
  6  7  2  0  0  0  0
  6  5  1  0  0  0  0
  7  8  1  0  0  0  0
  8  4  2  0  0  0  0
  8  9  1  0  0  0  0
  9  1  2  0  0  0  0
 12  5  1  0  0  0  0
 13  6  1  0  0  0  0
 14  9  1  0  0  0  0
 15 20  1  0  0  0  0
 15 23  1  0  0  0  0
 16 15  2  0  0  0  0
 17 18  2  0  0  0  0
 17 16  1  0  0  0  0
 18 19  1  0  0  0  0
 19 22  1  0  0  0  0
 19 20  2  0  0  0  0
 21 16  1  0  0  0  0
 23 24  1  0  0  0  0
 24 25  1  0  0  0  0
 24 27  1  0  0  0  0
 26 24  1  0  0  0  0
M  END
>  <minimizedAffinity>
-5.81826973

>  <minimizedRMSD>
2.93779135

$$$$
