
 OpenBabel03242521573D

 43 46  0  0  0  0  0  0  0  0999 V2000
   36.5960   27.0370   39.8950 C   0  0  0  0  0  0  0  0  0  0  0  0
   36.6320   25.6440   39.8600 C   0  0  0  0  0  0  0  0  0  0  0  0
   36.9490   24.8630   40.9780 C   0  0  0  0  0  0  0  0  0  0  0  0
   37.2400   25.4500   42.1800 C   0  0  0  0  0  0  0  0  0  0  0  0
   37.2160   26.8590   42.2380 C   0  0  0  0  0  0  0  0  0  0  0  0
   37.5650   27.4070   43.4340 C   0  0  0  0  0  0  0  0  0  0  0  0
   37.6250   28.8020   43.5040 C   0  0  0  0  0  0  0  0  0  0  0  0
   37.3260   29.5660   42.3220 C   0  0  0  0  0  0  0  0  0  0  0  0
   36.9910   28.8590   41.1910 C   0  0  0  0  0  0  0  0  0  0  0  0
   36.8970   27.5460   41.0650 C   0  0  0  0  0  0  0  0  0  0  0  0
   36.3990   25.1610   38.8970 H   0  0  0  0  0  0  0  0  0  0  0  0
   36.9610   23.7740   40.8790 H   0  0  0  0  0  0  0  0  0  0  0  0
   37.4790   24.8570   43.0530 H   0  0  0  0  0  0  0  0  0  0  0  0
   37.7860   26.7840   44.2890 H   0  0  0  0  0  0  0  0  0  0  0  0
   37.9020   29.1630   44.4820 H   0  0  0  0  0  0  0  0  0  0  0  0
   37.4530   30.5790   42.6720 H   0  0  0  0  0  0  0  0  0  0  0  0
   38.6090   30.0590   40.0140 C   0  0  0  0  0  0  0  0  0  0  0  0
   37.1970   30.0090   40.3350 C   0  0  0  0  0  0  0  0  0  0  0  0
   36.5740   31.0890   39.8680 C   0  0  0  0  0  0  0  0  0  0  0  0
   37.1620   32.1290   39.1800 C   0  0  0  0  0  0  0  0  0  0  0  0
   38.5020   32.1570   38.8920 C   0  0  0  0  0  0  0  0  0  0  0  0
   39.2340   31.0840   39.3290 C   0  0  0  0  0  0  0  0  0  0  0  0
   35.5180   30.9630   40.1520 H   0  0  0  0  0  0  0  0  0  0  0  0
   36.4650   32.9040   38.8970 H   0  0  0  0  0  0  0  0  0  0  0  0
   38.9050   33.0020   38.3490 H   0  0  0  0  0  0  0  0  0  0  0  0
   39.5850   29.0770   40.3430 O   0  0  0  0  0  0  0  0  0  0  0  0
   39.5670   28.8210   41.3300 H   0  0  0  0  0  0  0  0  0  0  0  0
   40.5720   31.1690   39.0140 O   0  0  0  0  0  0  0  0  0  0  0  0
   41.0930   30.7870   37.7340 C   0  0  0  0  0  0  0  0  0  0  0  0
   40.3130   29.7520   37.2340 F   0  0  0  0  0  0  0  0  0  0  0  0
   41.0700   31.9090   36.9300 F   0  0  0  0  0  0  0  0  0  0  0  0
   42.3940   30.3320   37.9600 F   0  0  0  0  0  0  0  0  0  0  0  0
   34.6010   29.1100   37.5180 C   0  0  0  0  0  0  0  0  0  0  0  0
   35.5430   29.2490   36.4720 C   0  0  0  0  0  0  0  0  0  0  0  0
   36.7500   28.6100   36.6480 C   0  0  0  0  0  0  0  0  0  0  0  0
   36.8770   27.9430   37.7910 N   0  0  0  0  0  0  0  0  0  0  0  0
   36.0210   27.7930   38.7940 C   0  0  0  0  0  0  0  0  0  0  0  0
   34.8830   28.3980   38.6130 N   0  0  0  0  0  0  0  0  0  0  0  0
   33.6450   29.6050   37.3970 H   0  0  0  0  0  0  0  0  0  0  0  0
   35.3370   29.8180   35.5820 H   0  0  0  0  0  0  0  0  0  0  0  0
   37.7550   28.6120   35.6510 N   0  0  0  0  0  0  0  0  0  0  0  0
   38.7280   28.7830   36.0420 H   0  0  0  0  0  0  0  0  0  0  0  0
   37.3520   28.4400   34.6830 H   0  0  0  0  0  0  0  0  0  0  0  0
  1 10  1  0  0  0  0
  2  1  2  0  0  0  0
  2  3  1  0  0  0  0
  3  4  2  0  0  0  0
  4  5  1  0  0  0  0
  4 13  1  0  0  0  0
  5  6  1  0  0  0  0
  6  7  2  0  0  0  0
  6 14  1  0  0  0  0
  7 15  1  0  0  0  0
  8 16  1  0  0  0  0
  8  7  1  0  0  0  0
  9  8  2  0  0  0  0
 10  9  1  0  0  0  0
 10  5  2  0  0  0  0
 11  2  1  0  0  0  0
 12  3  1  0  0  0  0
 17 18  1  0  0  0  0
 17 26  1  0  0  0  0
 18  9  1  0  0  0  0
 19 23  1  0  0  0  0
 19 18  2  0  0  0  0
 20 19  1  0  0  0  0
 21 20  2  0  0  0  0
 21 22  1  0  0  0  0
 22 17  2  0  0  0  0
 24 20  1  0  0  0  0
 25 21  1  0  0  0  0
 26 27  1  0  0  0  0
 28 22  1  0  0  0  0
 29 32  1  0  0  0  0
 29 28  1  0  0  0  0
 30 29  1  0  0  0  0
 31 29  1  0  0  0  0
 33 38  1  0  0  0  0
 34 35  1  0  0  0  0
 34 33  2  0  0  0  0
 35 36  2  0  0  0  0
 36 37  1  0  0  0  0
 37  1  1  0  0  0  0
 38 37  2  0  0  0  0
 39 33  1  0  0  0  0
 40 34  1  0  0  0  0
 41 42  1  0  0  0  0
 41 35  1  0  0  0  0
 43 41  1  0  0  0  0
M  END
>  <minimizedAffinity>
-6.85736704

$$$$

 OpenBabel03242521573D

 43 46  0  0  0  0  0  0  0  0999 V2000
   37.9580   29.9100   38.6270 C   0  0  0  0  0  0  0  0  0  0  0  0
   38.2470   30.0450   37.2710 C   0  0  0  0  0  0  0  0  0  0  0  0
   37.2800   29.8970   36.2690 C   0  0  0  0  0  0  0  0  0  0  0  0
   35.9810   29.6100   36.5890 C   0  0  0  0  0  0  0  0  0  0  0  0
   35.6660   29.4610   37.9550 C   0  0  0  0  0  0  0  0  0  0  0  0
   34.3770   29.1210   38.2300 C   0  0  0  0  0  0  0  0  0  0  0  0
   34.0500   28.8910   39.5700 C   0  0  0  0  0  0  0  0  0  0  0  0
   35.0820   29.0210   40.5650 C   0  0  0  0  0  0  0  0  0  0  0  0
   36.3350   29.3710   40.1210 C   0  0  0  0  0  0  0  0  0  0  0  0
   36.7040   29.6200   38.8760 C   0  0  0  0  0  0  0  0  0  0  0  0
   39.2910   30.2780   37.0010 H   0  0  0  0  0  0  0  0  0  0  0  0
   37.5780   30.0160   35.2220 H   0  0  0  0  0  0  0  0  0  0  0  0
   35.2230   29.5000   35.8240 H   0  0  0  0  0  0  0  0  0  0  0  0
   33.6430   29.0320   37.4420 H   0  0  0  0  0  0  0  0  0  0  0  0
   33.0120   28.6320   39.7110 H   0  0  0  0  0  0  0  0  0  0  0  0
   34.5460   28.7900   41.4730 H   0  0  0  0  0  0  0  0  0  0  0  0
   37.1260   27.5320   41.3210 C   0  0  0  0  0  0  0  0  0  0  0  0
   36.9560   28.9710   41.3670 C   0  0  0  0  0  0  0  0  0  0  0  0
   37.2890   29.4420   42.5670 C   0  0  0  0  0  0  0  0  0  0  0  0
   37.7280   28.6930   43.6370 C   0  0  0  0  0  0  0  0  0  0  0  0
   37.8750   27.3310   43.5730 C   0  0  0  0  0  0  0  0  0  0  0  0
   37.5610   26.7490   42.3720 C   0  0  0  0  0  0  0  0  0  0  0  0
   37.1340   30.5300   42.5070 H   0  0  0  0  0  0  0  0  0  0  0  0
   37.9390   29.2830   44.5160 H   0  0  0  0  0  0  0  0  0  0  0  0
   38.2230   26.7980   44.4480 H   0  0  0  0  0  0  0  0  0  0  0  0
   36.8780   26.6890   40.2030 O   0  0  0  0  0  0  0  0  0  0  0  0
   35.9560   26.8400   39.7930 H   0  0  0  0  0  0  0  0  0  0  0  0
   37.7260   25.3810   42.3680 O   0  0  0  0  0  0  0  0  0  0  0  0
   39.0070   24.7550   42.2300 C   0  0  0  0  0  0  0  0  0  0  0  0
   39.4970   24.4760   43.5000 F   0  0  0  0  0  0  0  0  0  0  0  0
   38.8300   23.6190   41.4660 F   0  0  0  0  0  0  0  0  0  0  0  0
   39.8330   25.6870   41.5990 F   0  0  0  0  0  0  0  0  0  0  0  0
   40.7640   30.3700   41.0440 C   0  0  0  0  0  0  0  0  0  0  0  0
   40.5050   31.6960   41.4630 C   0  0  0  0  0  0  0  0  0  0  0  0
   39.3960   32.3030   40.9170 C   0  0  0  0  0  0  0  0  0  0  0  0
   38.7080   31.5590   40.0560 N   0  0  0  0  0  0  0  0  0  0  0  0
   38.9220   30.3180   39.6370 C   0  0  0  0  0  0  0  0  0  0  0  0
   39.9690   29.7550   40.1640 N   0  0  0  0  0  0  0  0  0  0  0  0
   41.6320   29.8760   41.4630 H   0  0  0  0  0  0  0  0  0  0  0  0
   41.1320   32.2110   42.1700 H   0  0  0  0  0  0  0  0  0  0  0  0
   38.9850   33.6020   41.3000 N   0  0  0  0  0  0  0  0  0  0  0  0
   38.7000   34.2080   40.4740 H   0  0  0  0  0  0  0  0  0  0  0  0
   39.0350   33.7400   42.3520 H   0  0  0  0  0  0  0  0  0  0  0  0
  1 10  1  0  0  0  0
  1 37  1  0  0  0  0
  2  1  2  0  0  0  0
  3  4  2  0  0  0  0
  3  2  1  0  0  0  0
  4  5  1  0  0  0  0
  5  6  2  0  0  0  0
  5 10  1  0  0  0  0
  6  7  1  0  0  0  0
  7 15  1  0  0  0  0
  7  8  2  0  0  0  0
  8 16  1  0  0  0  0
  9  8  1  0  0  0  0
  9 18  1  0  0  0  0
 10  9  2  0  0  0  0
 11  2  1  0  0  0  0
 12  3  1  0  0  0  0
 13  4  1  0  0  0  0
 14  6  1  0  0  0  0
 17 18  2  0  0  0  0
 17 22  1  0  0  0  0
 18 19  1  0  0  0  0
 19 20  2  0  0  0  0
 20 24  1  0  0  0  0
 21 20  1  0  0  0  0
 21 25  1  0  0  0  0
 22 21  2  0  0  0  0
 23 19  1  0  0  0  0
 26 17  1  0  0  0  0
 27 26  1  0  0  0  0
 28 22  1  0  0  0  0
 29 28  1  0  0  0  0
 29 30  1  0  0  0  0
 31 29  1  0  0  0  0
 32 29  1  0  0  0  0
 33 39  1  0  0  0  0
 33 34  1  0  0  0  0
 34 40  1  0  0  0  0
 35 41  1  0  0  0  0
 35 34  2  0  0  0  0
 36 35  1  0  0  0  0
 37 36  2  0  0  0  0
 37 38  1  0  0  0  0
 38 33  2  0  0  0  0
 41 43  1  0  0  0  0
 42 41  1  0  0  0  0
M  END
>  <minimizedAffinity>
-6.79174995

$$$$

 OpenBabel03242521573D

 43 46  0  0  0  0  0  0  0  0999 V2000
   37.9980   31.4650   40.5600 C   0  0  0  0  0  0  0  0  0  0  0  0
   37.8850   32.7330   39.9940 C   0  0  0  0  0  0  0  0  0  0  0  0
   38.9240   33.6730   40.0190 C   0  0  0  0  0  0  0  0  0  0  0  0
   40.1200   33.3750   40.6120 C   0  0  0  0  0  0  0  0  0  0  0  0
   40.2560   32.1000   41.1990 C   0  0  0  0  0  0  0  0  0  0  0  0
   41.4380   31.8610   41.8280 C   0  0  0  0  0  0  0  0  0  0  0  0
   41.5760   30.6350   42.4850 C   0  0  0  0  0  0  0  0  0  0  0  0
   40.4720   29.7120   42.4640 C   0  0  0  0  0  0  0  0  0  0  0  0
   39.3440   30.1070   41.7840 C   0  0  0  0  0  0  0  0  0  0  0  0
   39.1580   31.2390   41.1270 C   0  0  0  0  0  0  0  0  0  0  0  0
   36.9250   32.9840   39.5120 H   0  0  0  0  0  0  0  0  0  0  0  0
   38.7660   34.6510   39.5550 H   0  0  0  0  0  0  0  0  0  0  0  0
   40.9330   34.0900   40.6320 H   0  0  0  0  0  0  0  0  0  0  0  0
   42.2340   32.5940   41.8170 H   0  0  0  0  0  0  0  0  0  0  0  0
   42.5400   30.5150   42.9550 H   0  0  0  0  0  0  0  0  0  0  0  0
   40.8620   28.8840   43.0360 H   0  0  0  0  0  0  0  0  0  0  0  0
   38.5880   27.9120   41.5470 C   0  0  0  0  0  0  0  0  0  0  0  0
   38.5340   29.0790   42.4060 C   0  0  0  0  0  0  0  0  0  0  0  0
   37.6670   28.8880   43.3970 C   0  0  0  0  0  0  0  0  0  0  0  0
   36.9070   27.7570   43.6020 C   0  0  0  0  0  0  0  0  0  0  0  0
   36.9700   26.6670   42.7740 C   0  0  0  0  0  0  0  0  0  0  0  0
   37.8410   26.7630   41.7200 C   0  0  0  0  0  0  0  0  0  0  0  0
   37.6970   29.8140   43.9930 H   0  0  0  0  0  0  0  0  0  0  0  0
   36.2680   27.8210   44.4700 H   0  0  0  0  0  0  0  0  0  0  0  0
   36.3470   25.8080   42.9860 H   0  0  0  0  0  0  0  0  0  0  0  0
   39.4070   27.7480   40.3950 O   0  0  0  0  0  0  0  0  0  0  0  0
   39.3280   28.5290   39.7430 H   0  0  0  0  0  0  0  0  0  0  0  0
   37.8590   25.6400   40.9210 O   0  0  0  0  0  0  0  0  0  0  0  0
   38.5440   24.4360   41.2910 C   0  0  0  0  0  0  0  0  0  0  0  0
   39.5750   24.7690   42.1600 F   0  0  0  0  0  0  0  0  0  0  0  0
   37.6130   23.5950   41.8660 F   0  0  0  0  0  0  0  0  0  0  0  0
   39.0710   23.9070   40.1120 F   0  0  0  0  0  0  0  0  0  0  0  0
   35.0780   29.1480   40.3820 C   0  0  0  0  0  0  0  0  0  0  0  0
   35.4040   28.4430   39.1990 C   0  0  0  0  0  0  0  0  0  0  0  0
   36.5860   28.7920   38.5860 C   0  0  0  0  0  0  0  0  0  0  0  0
   37.2740   29.7570   39.1890 N   0  0  0  0  0  0  0  0  0  0  0  0
   37.0010   30.4410   40.2930 C   0  0  0  0  0  0  0  0  0  0  0  0
   35.8840   30.0980   40.8640 N   0  0  0  0  0  0  0  0  0  0  0  0
   34.1520   28.8860   40.8790 H   0  0  0  0  0  0  0  0  0  0  0  0
   34.7690   27.6750   38.7930 H   0  0  0  0  0  0  0  0  0  0  0  0
   37.0630   28.1210   37.4350 N   0  0  0  0  0  0  0  0  0  0  0  0
   37.4440   28.7830   36.6960 H   0  0  0  0  0  0  0  0  0  0  0  0
   36.9530   27.0680   37.5160 H   0  0  0  0  0  0  0  0  0  0  0  0
  1 10  1  0  0  0  0
  2  3  1  0  0  0  0
  2  1  2  0  0  0  0
  3  4  2  0  0  0  0
  4 13  1  0  0  0  0
  4  5  1  0  0  0  0
  5  6  1  0  0  0  0
  6  7  2  0  0  0  0
  7 15  1  0  0  0  0
  8  7  1  0  0  0  0
  8 16  1  0  0  0  0
  9 18  1  0  0  0  0
  9  8  2  0  0  0  0
 10  5  2  0  0  0  0
 10  9  1  0  0  0  0
 11  2  1  0  0  0  0
 12  3  1  0  0  0  0
 14  6  1  0  0  0  0
 17 22  2  0  0  0  0
 17 18  1  0  0  0  0
 18 19  2  0  0  0  0
 19 20  1  0  0  0  0
 19 23  1  0  0  0  0
 20 24  1  0  0  0  0
 21 25  1  0  0  0  0
 21 20  2  0  0  0  0
 22 21  1  0  0  0  0
 26 17  1  0  0  0  0
 27 26  1  0  0  0  0
 28 29  1  0  0  0  0
 28 22  1  0  0  0  0
 29 31  1  0  0  0  0
 29 30  1  0  0  0  0
 32 29  1  0  0  0  0
 33 38  1  0  0  0  0
 33 39  1  0  0  0  0
 34 33  2  0  0  0  0
 35 36  2  0  0  0  0
 35 34  1  0  0  0  0
 36 37  1  0  0  0  0
 37  1  1  0  0  0  0
 37 38  2  0  0  0  0
 40 34  1  0  0  0  0
 41 43  1  0  0  0  0
 41 35  1  0  0  0  0
 42 41  1  0  0  0  0
M  END
>  <minimizedAffinity>
-6.72921324

$$$$

 OpenBabel03242521573D

 43 46  0  0  0  0  0  0  0  0999 V2000
   40.2370   30.8260   41.0760 C   0  0  0  0  0  0  0  0  0  0  0  0
   40.7390   32.0630   40.6760 C   0  0  0  0  0  0  0  0  0  0  0  0
   41.9910   32.5430   41.0790 C   0  0  0  0  0  0  0  0  0  0  0  0
   42.7930   31.7960   41.8980 C   0  0  0  0  0  0  0  0  0  0  0  0
   42.3050   30.5440   42.3230 C   0  0  0  0  0  0  0  0  0  0  0  0
   43.1060   29.8560   43.1810 C   0  0  0  0  0  0  0  0  0  0  0  0
   42.6170   28.6450   43.6800 C   0  0  0  0  0  0  0  0  0  0  0  0
   41.3090   28.2050   43.2670 C   0  0  0  0  0  0  0  0  0  0  0  0
   40.6260   29.0190   42.3940 C   0  0  0  0  0  0  0  0  0  0  0  0
   41.0390   30.1610   41.8710 C   0  0  0  0  0  0  0  0  0  0  0  0
   40.1010   32.6730   40.0140 H   0  0  0  0  0  0  0  0  0  0  0  0
   42.3220   33.5250   40.7270 H   0  0  0  0  0  0  0  0  0  0  0  0
   43.7670   32.1530   42.2110 H   0  0  0  0  0  0  0  0  0  0  0  0
   44.0780   30.2360   43.4620 H   0  0  0  0  0  0  0  0  0  0  0  0
   43.3070   28.1550   44.3480 H   0  0  0  0  0  0  0  0  0  0  0  0
   41.2090   27.2720   43.7990 H   0  0  0  0  0  0  0  0  0  0  0  0
   39.2820   27.2270   41.7410 C   0  0  0  0  0  0  0  0  0  0  0  0
   39.3690   28.3480   42.6550 C   0  0  0  0  0  0  0  0  0  0  0  0
   38.2320   28.4870   43.3330 C   0  0  0  0  0  0  0  0  0  0  0  0
   37.1090   27.6970   43.2020 C   0  0  0  0  0  0  0  0  0  0  0  0
   37.0480   26.6440   42.3270 C   0  0  0  0  0  0  0  0  0  0  0  0
   38.1750   26.4150   41.5810 C   0  0  0  0  0  0  0  0  0  0  0  0
   38.3910   29.3500   43.9970 H   0  0  0  0  0  0  0  0  0  0  0  0
   36.3000   27.9930   43.8520 H   0  0  0  0  0  0  0  0  0  0  0  0
   36.1380   26.0620   42.2690 H   0  0  0  0  0  0  0  0  0  0  0  0
   40.3050   26.7720   40.8630 O   0  0  0  0  0  0  0  0  0  0  0  0
   40.6960   27.5220   40.2930 H   0  0  0  0  0  0  0  0  0  0  0  0
   38.0540   25.3480   40.7190 O   0  0  0  0  0  0  0  0  0  0  0  0
   38.0740   23.9850   41.1630 C   0  0  0  0  0  0  0  0  0  0  0  0
   38.7320   23.2220   40.2080 F   0  0  0  0  0  0  0  0  0  0  0  0
   38.7060   23.9630   42.3910 F   0  0  0  0  0  0  0  0  0  0  0  0
   36.7400   23.5830   41.2540 F   0  0  0  0  0  0  0  0  0  0  0  0
   37.6680   28.9500   39.1260 C   0  0  0  0  0  0  0  0  0  0  0  0
   36.4920   29.4500   39.7350 C   0  0  0  0  0  0  0  0  0  0  0  0
   36.6700   30.3910   40.7240 C   0  0  0  0  0  0  0  0  0  0  0  0
   37.9350   30.7080   40.9840 N   0  0  0  0  0  0  0  0  0  0  0  0
   39.0590   30.2610   40.4390 C   0  0  0  0  0  0  0  0  0  0  0  0
   38.8760   29.3760   39.5030 N   0  0  0  0  0  0  0  0  0  0  0  0
   37.5470   28.2090   38.3450 H   0  0  0  0  0  0  0  0  0  0  0  0
   35.5090   29.1200   39.4470 H   0  0  0  0  0  0  0  0  0  0  0  0
   35.5780   31.0200   41.3680 N   0  0  0  0  0  0  0  0  0  0  0  0
   35.7030   31.0950   42.4200 H   0  0  0  0  0  0  0  0  0  0  0  0
   34.8230   31.3070   40.6780 H   0  0  0  0  0  0  0  0  0  0  0  0
  1 10  1  0  0  0  0
  2  1  2  0  0  0  0
  2  3  1  0  0  0  0
  3  4  2  0  0  0  0
  4 13  1  0  0  0  0
  4  5  1  0  0  0  0
  5  6  1  0  0  0  0
  6 14  1  0  0  0  0
  6  7  2  0  0  0  0
  7 15  1  0  0  0  0
  8  7  1  0  0  0  0
  8 16  1  0  0  0  0
  9 18  1  0  0  0  0
  9  8  2  0  0  0  0
 10  5  2  0  0  0  0
 10  9  1  0  0  0  0
 11  2  1  0  0  0  0
 12  3  1  0  0  0  0
 17 18  1  0  0  0  0
 18 19  2  0  0  0  0
 19 23  1  0  0  0  0
 20 19  1  0  0  0  0
 20 24  1  0  0  0  0
 21 20  2  0  0  0  0
 22 17  2  0  0  0  0
 22 21  1  0  0  0  0
 25 21  1  0  0  0  0
 26 17  1  0  0  0  0
 27 26  1  0  0  0  0
 28 29  1  0  0  0  0
 28 22  1  0  0  0  0
 29 32  1  0  0  0  0
 29 31  1  0  0  0  0
 30 29  1  0  0  0  0
 33 38  2  0  0  0  0
 33 34  1  0  0  0  0
 34 35  2  0  0  0  0
 35 36  1  0  0  0  0
 35 41  1  0  0  0  0
 37 36  2  0  0  0  0
 37  1  1  0  0  0  0
 38 37  1  0  0  0  0
 39 33  1  0  0  0  0
 40 34  1  0  0  0  0
 41 42  1  0  0  0  0
 43 41  1  0  0  0  0
M  END
>  <minimizedAffinity>
-6.61622095

$$$$

 OpenBabel03242521573D

 43 46  0  0  0  0  0  0  0  0999 V2000
   36.6730   27.0060   39.7490 C   0  0  0  0  0  0  0  0  0  0  0  0
   36.6660   25.6130   39.7600 C   0  0  0  0  0  0  0  0  0  0  0  0
   36.8790   24.8610   40.9220 C   0  0  0  0  0  0  0  0  0  0  0  0
   37.1040   25.4790   42.1220 C   0  0  0  0  0  0  0  0  0  0  0  0
   37.1230   26.8880   42.1350 C   0  0  0  0  0  0  0  0  0  0  0  0
   37.4050   27.4650   43.3340 C   0  0  0  0  0  0  0  0  0  0  0  0
   37.5060   28.8590   43.3640 C   0  0  0  0  0  0  0  0  0  0  0  0
   37.3140   29.5930   42.1400 C   0  0  0  0  0  0  0  0  0  0  0  0
   37.0360   28.8580   41.0120 C   0  0  0  0  0  0  0  0  0  0  0  0
   36.9080   27.5450   40.9200 C   0  0  0  0  0  0  0  0  0  0  0  0
   36.4840   25.1040   38.7990 H   0  0  0  0  0  0  0  0  0  0  0  0
   36.8620   23.7680   40.8580 H   0  0  0  0  0  0  0  0  0  0  0  0
   37.2630   24.9080   43.0290 H   0  0  0  0  0  0  0  0  0  0  0  0
   37.5460   26.8650   44.2220 H   0  0  0  0  0  0  0  0  0  0  0  0
   37.7260   29.2450   44.3480 H   0  0  0  0  0  0  0  0  0  0  0  0
   37.4490   30.6120   42.4670 H   0  0  0  0  0  0  0  0  0  0  0  0
   38.7590   29.9260   39.8570 C   0  0  0  0  0  0  0  0  0  0  0  0
   37.3380   29.9720   40.1370 C   0  0  0  0  0  0  0  0  0  0  0  0
   36.7980   31.0770   39.6270 C   0  0  0  0  0  0  0  0  0  0  0  0
   37.4690   32.0610   38.9340 C   0  0  0  0  0  0  0  0  0  0  0  0
   38.8160   31.9990   38.6850 C   0  0  0  0  0  0  0  0  0  0  0  0
   39.4660   30.8930   39.1680 C   0  0  0  0  0  0  0  0  0  0  0  0
   35.7280   31.0240   39.8820 H   0  0  0  0  0  0  0  0  0  0  0  0
   36.8310   32.8710   38.6130 H   0  0  0  0  0  0  0  0  0  0  0  0
   39.2860   32.8040   38.1360 H   0  0  0  0  0  0  0  0  0  0  0  0
   39.6610   28.8930   40.2360 O   0  0  0  0  0  0  0  0  0  0  0  0
   39.6000   28.6620   41.2280 H   0  0  0  0  0  0  0  0  0  0  0  0
   40.8160   30.8870   38.8910 O   0  0  0  0  0  0  0  0  0  0  0  0
   41.3460   30.4570   37.6310 C   0  0  0  0  0  0  0  0  0  0  0  0
   40.4980   29.4920   37.1030 F   0  0  0  0  0  0  0  0  0  0  0  0
   41.4490   31.5750   36.8260 F   0  0  0  0  0  0  0  0  0  0  0  0
   42.5940   29.8920   37.9020 F   0  0  0  0  0  0  0  0  0  0  0  0
   36.0780   28.7260   36.4910 C   0  0  0  0  0  0  0  0  0  0  0  0
   34.7020   29.0310   36.6280 C   0  0  0  0  0  0  0  0  0  0  0  0
   34.1090   28.6560   37.8130 C   0  0  0  0  0  0  0  0  0  0  0  0
   34.9120   28.0470   38.6810 N   0  0  0  0  0  0  0  0  0  0  0  0
   36.2000   27.7420   38.5870 C   0  0  0  0  0  0  0  0  0  0  0  0
   36.7490   28.1060   37.4650 N   0  0  0  0  0  0  0  0  0  0  0  0
   36.5610   29.0150   35.5660 H   0  0  0  0  0  0  0  0  0  0  0  0
   34.1420   29.5280   35.8560 H   0  0  0  0  0  0  0  0  0  0  0  0
   32.7590   28.9580   38.1060 N   0  0  0  0  0  0  0  0  0  0  0  0
   32.2350   28.1440   38.5440 H   0  0  0  0  0  0  0  0  0  0  0  0
   32.5080   29.9550   37.8340 H   0  0  0  0  0  0  0  0  0  0  0  0
  1  2  2  0  0  0  0
  1 10  1  0  0  0  0
  2  3  1  0  0  0  0
  3  4  2  0  0  0  0
  4  5  1  0  0  0  0
  4 13  1  0  0  0  0
  5  6  1  0  0  0  0
  6  7  2  0  0  0  0
  6 14  1  0  0  0  0
  7 15  1  0  0  0  0
  8 16  1  0  0  0  0
  8  7  1  0  0  0  0
  9  8  2  0  0  0  0
 10  9  1  0  0  0  0
 10  5  2  0  0  0  0
 11  2  1  0  0  0  0
 12  3  1  0  0  0  0
 17 18  1  0  0  0  0
 17 26  1  0  0  0  0
 18  9  1  0  0  0  0
 19 23  1  0  0  0  0
 19 18  2  0  0  0  0
 20 19  1  0  0  0  0
 21 20  2  0  0  0  0
 21 22  1  0  0  0  0
 22 17  2  0  0  0  0
 24 20  1  0  0  0  0
 25 21  1  0  0  0  0
 26 27  1  0  0  0  0
 28 22  1  0  0  0  0
 29 32  1  0  0  0  0
 29 28  1  0  0  0  0
 30 29  1  0  0  0  0
 31 29  1  0  0  0  0
 33 34  2  0  0  0  0
 33 38  1  0  0  0  0
 34 35  1  0  0  0  0
 35 41  1  0  0  0  0
 35 36  2  0  0  0  0
 37 36  1  0  0  0  0
 37  1  1  0  0  0  0
 38 37  2  0  0  0  0
 39 33  1  0  0  0  0
 40 34  1  0  0  0  0
 41 42  1  0  0  0  0
 43 41  1  0  0  0  0
M  END
>  <minimizedAffinity>
-6.57546616

$$$$

 OpenBabel03242521573D

 43 46  0  0  0  0  0  0  0  0999 V2000
   39.5050   30.0790   41.9010 C   0  0  0  0  0  0  0  0  0  0  0  0
   40.8430   30.0830   42.2900 C   0  0  0  0  0  0  0  0  0  0  0  0
   41.6930   31.1770   42.0800 C   0  0  0  0  0  0  0  0  0  0  0  0
   41.2310   32.3120   41.4730 C   0  0  0  0  0  0  0  0  0  0  0  0
   39.8830   32.3290   41.0630 C   0  0  0  0  0  0  0  0  0  0  0  0
   39.4760   33.4530   40.4120 C   0  0  0  0  0  0  0  0  0  0  0  0
   38.1660   33.4710   39.9270 C   0  0  0  0  0  0  0  0  0  0  0  0
   37.3360   32.3130   40.1340 C   0  0  0  0  0  0  0  0  0  0  0  0
   37.8990   31.2570   40.8100 C   0  0  0  0  0  0  0  0  0  0  0  0
   39.1210   31.1850   41.3110 C   0  0  0  0  0  0  0  0  0  0  0  0
   41.2250   29.1730   42.7820 H   0  0  0  0  0  0  0  0  0  0  0  0
   42.7340   31.1110   42.4110 H   0  0  0  0  0  0  0  0  0  0  0  0
   41.8770   33.1670   41.3110 H   0  0  0  0  0  0  0  0  0  0  0  0
   40.1440   34.2930   40.2800 H   0  0  0  0  0  0  0  0  0  0  0  0
   37.9130   34.3950   39.4280 H   0  0  0  0  0  0  0  0  0  0  0  0
   36.4120   32.6130   39.6630 H   0  0  0  0  0  0  0  0  0  0  0  0
   37.2730   29.7860   39.1100 C   0  0  0  0  0  0  0  0  0  0  0  0
   36.8570   30.3460   40.3810 C   0  0  0  0  0  0  0  0  0  0  0  0
   35.6180   29.9630   40.6770 C   0  0  0  0  0  0  0  0  0  0  0  0
   34.8130   29.1550   39.9020 C   0  0  0  0  0  0  0  0  0  0  0  0
   35.2250   28.6400   38.7000 C   0  0  0  0  0  0  0  0  0  0  0  0
   36.4950   28.9750   38.3070 C   0  0  0  0  0  0  0  0  0  0  0  0
   35.3920   30.4280   41.6490 H   0  0  0  0  0  0  0  0  0  0  0  0
   33.8420   28.9740   40.3370 H   0  0  0  0  0  0  0  0  0  0  0  0
   34.5480   28.0130   38.1370 H   0  0  0  0  0  0  0  0  0  0  0  0
   38.5350   29.9700   38.4790 O   0  0  0  0  0  0  0  0  0  0  0  0
   38.8010   30.9520   38.4120 H   0  0  0  0  0  0  0  0  0  0  0  0
   36.8530   28.4320   37.0920 O   0  0  0  0  0  0  0  0  0  0  0  0
   36.5250   29.0490   35.8400 C   0  0  0  0  0  0  0  0  0  0  0  0
   35.2470   28.6460   35.4740 F   0  0  0  0  0  0  0  0  0  0  0  0
   36.6220   30.4150   36.0180 F   0  0  0  0  0  0  0  0  0  0  0  0
   37.4550   28.5750   34.9130 F   0  0  0  0  0  0  0  0  0  0  0  0
   36.9390   27.8980   43.5100 C   0  0  0  0  0  0  0  0  0  0  0  0
   37.0100   26.7740   42.6540 C   0  0  0  0  0  0  0  0  0  0  0  0
   37.9310   26.8400   41.6330 C   0  0  0  0  0  0  0  0  0  0  0  0
   38.6400   27.9640   41.5810 N   0  0  0  0  0  0  0  0  0  0  0  0
   38.6000   29.0370   42.3600 C   0  0  0  0  0  0  0  0  0  0  0  0
   37.7290   28.9600   43.3230 N   0  0  0  0  0  0  0  0  0  0  0  0
   36.2210   27.8630   44.3190 H   0  0  0  0  0  0  0  0  0  0  0  0
   36.3830   25.9090   42.7850 H   0  0  0  0  0  0  0  0  0  0  0  0
   38.1500   25.7590   40.7460 N   0  0  0  0  0  0  0  0  0  0  0  0
   38.2350   26.0640   39.7320 H   0  0  0  0  0  0  0  0  0  0  0  0
   38.1910   24.8290   41.2580 H   0  0  0  0  0  0  0  0  0  0  0  0
  1  2  1  0  0  0  0
  1 37  1  0  0  0  0
  2 11  1  0  0  0  0
  3  2  2  0  0  0  0
  3 12  1  0  0  0  0
  4  3  1  0  0  0  0
  5 10  1  0  0  0  0
  5  4  2  0  0  0  0
  6  5  1  0  0  0  0
  7  8  1  0  0  0  0
  7  6  2  0  0  0  0
  8  9  2  0  0  0  0
  9 10  1  0  0  0  0
 10  1  2  0  0  0  0
 13  4  1  0  0  0  0
 14  6  1  0  0  0  0
 15  7  1  0  0  0  0
 16  8  1  0  0  0  0
 17 18  1  0  0  0  0
 18 19  2  0  0  0  0
 18  9  1  0  0  0  0
 19 23  1  0  0  0  0
 20 24  1  0  0  0  0
 20 19  1  0  0  0  0
 21 20  2  0  0  0  0
 22 21  1  0  0  0  0
 22 17  2  0  0  0  0
 25 21  1  0  0  0  0
 26 17  1  0  0  0  0
 27 26  1  0  0  0  0
 28 22  1  0  0  0  0
 29 31  1  0  0  0  0
 29 28  1  0  0  0  0
 30 29  1  0  0  0  0
 32 29  1  0  0  0  0
 33 39  1  0  0  0  0
 34 40  1  0  0  0  0
 34 33  2  0  0  0  0
 35 34  1  0  0  0  0
 36 35  2  0  0  0  0
 36 37  1  0  0  0  0
 37 38  2  0  0  0  0
 38 33  1  0  0  0  0
 41 43  1  0  0  0  0
 41 35  1  0  0  0  0
 42 41  1  0  0  0  0
M  END
>  <minimizedAffinity>
-6.57526016

$$$$

 OpenBabel03242521573D

 43 46  0  0  0  0  0  0  0  0999 V2000
   37.8790   26.2400   40.5790 C   0  0  0  0  0  0  0  0  0  0  0  0
   37.2850   24.9790   40.5860 C   0  0  0  0  0  0  0  0  0  0  0  0
   37.5220   24.0320   41.5900 C   0  0  0  0  0  0  0  0  0  0  0  0
   38.3630   24.3150   42.6320 C   0  0  0  0  0  0  0  0  0  0  0  0
   38.9820   25.5810   42.6430 C   0  0  0  0  0  0  0  0  0  0  0  0
   39.8540   25.8040   43.6630 C   0  0  0  0  0  0  0  0  0  0  0  0
   40.5410   27.0220   43.6620 C   0  0  0  0  0  0  0  0  0  0  0  0
   40.2950   27.9530   42.5920 C   0  0  0  0  0  0  0  0  0  0  0  0
   39.3820   27.5740   41.6350 C   0  0  0  0  0  0  0  0  0  0  0  0
   38.6860   26.4510   41.5900 C   0  0  0  0  0  0  0  0  0  0  0  0
   36.6040   24.7410   39.7520 H   0  0  0  0  0  0  0  0  0  0  0  0
   37.0220   23.0600   41.5320 H   0  0  0  0  0  0  0  0  0  0  0  0
   38.5490   23.5940   43.4180 H   0  0  0  0  0  0  0  0  0  0  0  0
   40.0050   25.0660   44.4390 H   0  0  0  0  0  0  0  0  0  0  0  0
   41.2090   27.1300   44.5020 H   0  0  0  0  0  0  0  0  0  0  0  0
   40.9480   28.7710   42.8530 H   0  0  0  0  0  0  0  0  0  0  0  0
   39.0870   29.8070   41.0260 C   0  0  0  0  0  0  0  0  0  0  0  0
   39.8280   28.6010   40.7150 C   0  0  0  0  0  0  0  0  0  0  0  0
   40.5630   28.7740   39.6200 C   0  0  0  0  0  0  0  0  0  0  0  0
   40.6270   29.9230   38.8610 C   0  0  0  0  0  0  0  0  0  0  0  0
   39.9130   31.0520   39.1710 C   0  0  0  0  0  0  0  0  0  0  0  0
   39.1250   30.9760   40.2900 C   0  0  0  0  0  0  0  0  0  0  0  0
   41.0870   27.8190   39.4650 H   0  0  0  0  0  0  0  0  0  0  0  0
   41.2880   29.8400   38.0120 H   0  0  0  0  0  0  0  0  0  0  0  0
   40.0050   31.9230   38.5360 H   0  0  0  0  0  0  0  0  0  0  0  0
   38.2070   29.9970   42.1280 O   0  0  0  0  0  0  0  0  0  0  0  0
   37.5110   29.2560   42.2070 H   0  0  0  0  0  0  0  0  0  0  0  0
   38.4300   32.1370   40.5500 O   0  0  0  0  0  0  0  0  0  0  0  0
   37.2190   32.4850   39.8660 C   0  0  0  0  0  0  0  0  0  0  0  0
   37.2950   32.0010   38.5660 F   0  0  0  0  0  0  0  0  0  0  0  0
   36.1720   31.9370   40.5790 F   0  0  0  0  0  0  0  0  0  0  0  0
   37.1670   33.8800   39.8480 F   0  0  0  0  0  0  0  0  0  0  0  0
   37.1540   28.6190   37.7980 C   0  0  0  0  0  0  0  0  0  0  0  0
   36.0010   29.2530   38.3190 C   0  0  0  0  0  0  0  0  0  0  0  0
   35.5910   28.8430   39.5680 C   0  0  0  0  0  0  0  0  0  0  0  0
   36.3350   27.8930   40.1260 N   0  0  0  0  0  0  0  0  0  0  0  0
   37.4170   27.2750   39.6680 C   0  0  0  0  0  0  0  0  0  0  0  0
   37.7960   27.6750   38.4900 N   0  0  0  0  0  0  0  0  0  0  0  0
   37.4920   28.9300   36.8170 H   0  0  0  0  0  0  0  0  0  0  0  0
   35.4680   30.0160   37.7780 H   0  0  0  0  0  0  0  0  0  0  0  0
   34.4940   29.4410   40.2330 N   0  0  0  0  0  0  0  0  0  0  0  0
   33.8530   28.7320   40.6980 H   0  0  0  0  0  0  0  0  0  0  0  0
   34.5080   30.5000   40.1470 H   0  0  0  0  0  0  0  0  0  0  0  0
  1  2  2  0  0  0  0
  1 10  1  0  0  0  0
  2  3  1  0  0  0  0
  3  4  2  0  0  0  0
  4  5  1  0  0  0  0
  4 13  1  0  0  0  0
  5  6  1  0  0  0  0
  6 14  1  0  0  0  0
  7  6  2  0  0  0  0
  7 15  1  0  0  0  0
  8 16  1  0  0  0  0
  8  7  1  0  0  0  0
  9  8  2  0  0  0  0
 10  9  1  0  0  0  0
 10  5  2  0  0  0  0
 11  2  1  0  0  0  0
 12  3  1  0  0  0  0
 17 26  1  0  0  0  0
 18 17  1  0  0  0  0
 18  9  1  0  0  0  0
 19 18  2  0  0  0  0
 20 21  2  0  0  0  0
 20 19  1  0  0  0  0
 21 22  1  0  0  0  0
 22 28  1  0  0  0  0
 22 17  2  0  0  0  0
 23 19  1  0  0  0  0
 24 20  1  0  0  0  0
 25 21  1  0  0  0  0
 26 27  1  0  0  0  0
 29 28  1  0  0  0  0
 29 31  1  0  0  0  0
 30 29  1  0  0  0  0
 32 29  1  0  0  0  0
 33 34  2  0  0  0  0
 33 38  1  0  0  0  0
 34 35  1  0  0  0  0
 35 36  2  0  0  0  0
 35 41  1  0  0  0  0
 37 36  1  0  0  0  0
 37  1  1  0  0  0  0
 38 37  2  0  0  0  0
 39 33  1  0  0  0  0
 40 34  1  0  0  0  0
 41 42  1  0  0  0  0
 43 41  1  0  0  0  0
M  END
>  <minimizedAffinity>
-6.45595217

$$$$

 OpenBabel03242521573D

 43 46  0  0  0  0  0  0  0  0999 V2000
   39.3490   29.1530   41.2390 C   0  0  0  0  0  0  0  0  0  0  0  0
   40.5170   29.5890   41.8610 C   0  0  0  0  0  0  0  0  0  0  0  0
   41.2020   28.8250   42.8140 C   0  0  0  0  0  0  0  0  0  0  0  0
   40.7430   27.5880   43.1780 C   0  0  0  0  0  0  0  0  0  0  0  0
   39.5580   27.1280   42.5680 C   0  0  0  0  0  0  0  0  0  0  0  0
   39.1030   25.9200   42.9970 C   0  0  0  0  0  0  0  0  0  0  0  0
   37.8900   25.4700   42.4660 C   0  0  0  0  0  0  0  0  0  0  0  0
   37.2010   26.3020   41.5150 C   0  0  0  0  0  0  0  0  0  0  0  0
   37.7960   27.4980   41.1870 C   0  0  0  0  0  0  0  0  0  0  0  0
   38.9470   27.9710   41.6360 C   0  0  0  0  0  0  0  0  0  0  0  0
   40.8970   30.5830   41.5730 H   0  0  0  0  0  0  0  0  0  0  0  0
   42.1140   29.2300   43.2640 H   0  0  0  0  0  0  0  0  0  0  0  0
   41.2670   26.9850   43.9080 H   0  0  0  0  0  0  0  0  0  0  0  0
   39.6590   25.3390   43.7180 H   0  0  0  0  0  0  0  0  0  0  0  0
   37.5960   24.5040   42.8480 H   0  0  0  0  0  0  0  0  0  0  0  0
   36.3260   25.7100   41.2930 H   0  0  0  0  0  0  0  0  0  0  0  0
   36.5330   27.5500   39.2260 C   0  0  0  0  0  0  0  0  0  0  0  0
   36.5770   28.0140   40.5980 C   0  0  0  0  0  0  0  0  0  0  0  0
   35.5800   28.8630   40.8360 C   0  0  0  0  0  0  0  0  0  0  0  0
   34.6280   29.2690   39.9260 C   0  0  0  0  0  0  0  0  0  0  0  0
   34.6080   28.8200   38.6310 C   0  0  0  0  0  0  0  0  0  0  0  0
   35.5970   27.9350   38.2860 C   0  0  0  0  0  0  0  0  0  0  0  0
   35.6910   29.1560   41.8920 H   0  0  0  0  0  0  0  0  0  0  0  0
   33.9120   29.9650   40.3360 H   0  0  0  0  0  0  0  0  0  0  0  0
   33.8360   29.1760   37.9630 H   0  0  0  0  0  0  0  0  0  0  0  0
   37.4310   26.6290   38.6170 O   0  0  0  0  0  0  0  0  0  0  0  0
   38.4090   26.8830   38.7580 H   0  0  0  0  0  0  0  0  0  0  0  0
   35.5280   27.5210   36.9730 O   0  0  0  0  0  0  0  0  0  0  0  0
   34.6000   26.5270   36.5210 C   0  0  0  0  0  0  0  0  0  0  0  0
   35.1680   25.8540   35.4470 F   0  0  0  0  0  0  0  0  0  0  0  0
   34.3350   25.6960   37.5910 F   0  0  0  0  0  0  0  0  0  0  0  0
   33.4620   27.2170   36.0990 F   0  0  0  0  0  0  0  0  0  0  0  0
   38.1780   30.3900   37.9180 C   0  0  0  0  0  0  0  0  0  0  0  0
   37.4570   31.5360   38.3300 C   0  0  0  0  0  0  0  0  0  0  0  0
   37.4550   31.8030   39.6810 C   0  0  0  0  0  0  0  0  0  0  0  0
   38.1330   30.9400   40.4310 N   0  0  0  0  0  0  0  0  0  0  0  0
   38.8150   29.8560   40.0830 C   0  0  0  0  0  0  0  0  0  0  0  0
   38.8130   29.6180   38.8040 N   0  0  0  0  0  0  0  0  0  0  0  0
   38.1910   30.1650   36.8590 H   0  0  0  0  0  0  0  0  0  0  0  0
   36.9370   32.1710   37.6340 H   0  0  0  0  0  0  0  0  0  0  0  0
   36.8290   32.9530   40.2190 N   0  0  0  0  0  0  0  0  0  0  0  0
   36.2690   32.7480   41.0980 H   0  0  0  0  0  0  0  0  0  0  0  0
   37.0340   33.8210   39.6430 H   0  0  0  0  0  0  0  0  0  0  0  0
  1 10  2  0  0  0  0
  1  2  1  0  0  0  0
  2  3  2  0  0  0  0
  3  4  1  0  0  0  0
  3 12  1  0  0  0  0
  4 13  1  0  0  0  0
  5  6  1  0  0  0  0
  5  4  2  0  0  0  0
  6 14  1  0  0  0  0
  7 15  1  0  0  0  0
  7  6  2  0  0  0  0
  8  7  1  0  0  0  0
  9  8  2  0  0  0  0
  9 10  1  0  0  0  0
 10  5  1  0  0  0  0
 11  2  1  0  0  0  0
 16  8  1  0  0  0  0
 17 18  1  0  0  0  0
 18 19  2  0  0  0  0
 18  9  1  0  0  0  0
 19 23  1  0  0  0  0
 20 24  1  0  0  0  0
 20 19  1  0  0  0  0
 21 20  2  0  0  0  0
 22 21  1  0  0  0  0
 22 17  2  0  0  0  0
 25 21  1  0  0  0  0
 26 27  1  0  0  0  0
 26 17  1  0  0  0  0
 28 22  1  0  0  0  0
 29 28  1  0  0  0  0
 29 31  1  0  0  0  0
 30 29  1  0  0  0  0
 32 29  1  0  0  0  0
 33 34  2  0  0  0  0
 33 38  1  0  0  0  0
 34 35  1  0  0  0  0
 35 41  1  0  0  0  0
 35 36  2  0  0  0  0
 37 36  1  0  0  0  0
 37  1  1  0  0  0  0
 38 37  2  0  0  0  0
 39 33  1  0  0  0  0
 40 34  1  0  0  0  0
 41 42  1  0  0  0  0
 43 41  1  0  0  0  0
M  END
>  <minimizedAffinity>
-6.39064121

$$$$

 OpenBabel03242521573D

 43 46  0  0  0  0  0  0  0  0999 V2000
   36.8040   30.0270   36.8710 C   0  0  0  0  0  0  0  0  0  0  0  0
   37.1820   30.3060   35.5590 C   0  0  0  0  0  0  0  0  0  0  0  0
   36.3520   30.0550   34.4590 C   0  0  0  0  0  0  0  0  0  0  0  0
   35.1060   29.5160   34.6330 C   0  0  0  0  0  0  0  0  0  0  0  0
   34.7040   29.2180   35.9510 C   0  0  0  0  0  0  0  0  0  0  0  0
   33.4830   28.6320   36.0790 C   0  0  0  0  0  0  0  0  0  0  0  0
   33.0870   28.2550   37.3660 C   0  0  0  0  0  0  0  0  0  0  0  0
   33.9840   28.5000   38.4640 C   0  0  0  0  0  0  0  0  0  0  0  0
   35.1850   29.1010   38.1660 C   0  0  0  0  0  0  0  0  0  0  0  0
   35.6090   29.4990   36.9780 C   0  0  0  0  0  0  0  0  0  0  0  0
   38.1830   30.7420   35.4080 H   0  0  0  0  0  0  0  0  0  0  0  0
   36.7140   30.2970   33.4550 H   0  0  0  0  0  0  0  0  0  0  0  0
   34.4530   29.3240   33.7920 H   0  0  0  0  0  0  0  0  0  0  0  0
   32.8510   28.4670   35.2180 H   0  0  0  0  0  0  0  0  0  0  0  0
   32.1080   27.8030   37.3890 H   0  0  0  0  0  0  0  0  0  0  0  0
   33.4230   28.1140   39.3020 H   0  0  0  0  0  0  0  0  0  0  0  0
   36.3700   27.4320   39.2850 C   0  0  0  0  0  0  0  0  0  0  0  0
   35.7570   28.7360   39.4450 C   0  0  0  0  0  0  0  0  0  0  0  0
   35.7900   29.1130   40.7210 C   0  0  0  0  0  0  0  0  0  0  0  0
   36.3190   28.3880   41.7670 C   0  0  0  0  0  0  0  0  0  0  0  0
   36.8900   27.1530   41.5930 C   0  0  0  0  0  0  0  0  0  0  0  0
   36.9080   26.6750   40.3080 C   0  0  0  0  0  0  0  0  0  0  0  0
   35.3120   30.1050   40.7450 H   0  0  0  0  0  0  0  0  0  0  0  0
   36.2370   28.8870   42.7200 H   0  0  0  0  0  0  0  0  0  0  0  0
   37.2870   26.6320   42.4540 H   0  0  0  0  0  0  0  0  0  0  0  0
   36.5240   26.7150   38.0660 O   0  0  0  0  0  0  0  0  0  0  0  0
   35.6520   26.6420   37.5410 H   0  0  0  0  0  0  0  0  0  0  0  0
   37.4910   25.4320   40.1950 O   0  0  0  0  0  0  0  0  0  0  0  0
   36.7820   24.2160   40.4690 C   0  0  0  0  0  0  0  0  0  0  0  0
   37.5060   23.1570   39.9360 F   0  0  0  0  0  0  0  0  0  0  0  0
   36.6340   24.1260   41.8380 F   0  0  0  0  0  0  0  0  0  0  0  0
   35.5530   24.3240   39.8150 F   0  0  0  0  0  0  0  0  0  0  0  0
   39.2360   30.8020   39.5940 C   0  0  0  0  0  0  0  0  0  0  0  0
   38.7300   32.0540   40.0180 C   0  0  0  0  0  0  0  0  0  0  0  0
   37.6040   32.5090   39.3700 C   0  0  0  0  0  0  0  0  0  0  0  0
   37.1350   31.7070   38.4180 N   0  0  0  0  0  0  0  0  0  0  0  0
   37.5810   30.5320   37.9920 C   0  0  0  0  0  0  0  0  0  0  0  0
   38.6430   30.1120   38.6150 N   0  0  0  0  0  0  0  0  0  0  0  0
   40.1210   30.4270   40.0930 H   0  0  0  0  0  0  0  0  0  0  0  0
   39.1930   32.6260   40.8030 H   0  0  0  0  0  0  0  0  0  0  0  0
   36.9580   33.7120   39.7390 N   0  0  0  0  0  0  0  0  0  0  0  0
   36.6700   34.3030   38.9050 H   0  0  0  0  0  0  0  0  0  0  0  0
   36.8760   33.8090   40.7940 H   0  0  0  0  0  0  0  0  0  0  0  0
  1 10  1  0  0  0  0
  1 37  1  0  0  0  0
  2  1  2  0  0  0  0
  3  4  2  0  0  0  0
  3  2  1  0  0  0  0
  4  5  1  0  0  0  0
  5  6  2  0  0  0  0
  5 10  1  0  0  0  0
  6  7  1  0  0  0  0
  7 15  1  0  0  0  0
  7  8  2  0  0  0  0
  8 16  1  0  0  0  0
  9  8  1  0  0  0  0
  9 18  1  0  0  0  0
 10  9  2  0  0  0  0
 11  2  1  0  0  0  0
 12  3  1  0  0  0  0
 13  4  1  0  0  0  0
 14  6  1  0  0  0  0
 17 18  2  0  0  0  0
 17 22  1  0  0  0  0
 18 19  1  0  0  0  0
 19 23  1  0  0  0  0
 19 20  2  0  0  0  0
 20 24  1  0  0  0  0
 21 20  1  0  0  0  0
 21 25  1  0  0  0  0
 22 21  2  0  0  0  0
 26 17  1  0  0  0  0
 27 26  1  0  0  0  0
 28 22  1  0  0  0  0
 28 29  1  0  0  0  0
 29 31  1  0  0  0  0
 30 29  1  0  0  0  0
 32 29  1  0  0  0  0
 33 34  1  0  0  0  0
 33 39  1  0  0  0  0
 34 40  1  0  0  0  0
 35 41  1  0  0  0  0
 35 34  2  0  0  0  0
 36 35  1  0  0  0  0
 37 36  2  0  0  0  0
 37 38  1  0  0  0  0
 38 33  2  0  0  0  0
 41 43  1  0  0  0  0
 42 41  1  0  0  0  0
M  END
>  <minimizedAffinity>
-6.32321405

$$$$
