
 OpenBabel03252509313D

 22 22  0  0  0  0  0  0  0  0999 V2000
   46.5030   34.2370   42.3330 C   0  0  0  0  0  0  0  0  0  0  0  0
   46.1280   33.2350   42.0300 H   0  0  0  0  0  0  0  0  0  0  0  0
   46.1580   34.9480   41.5660 H   0  0  0  0  0  0  0  0  0  0  0  0
   45.3310   34.0450   45.8720 C   0  0  0  0  0  0  0  0  0  0  0  0
   45.9820   33.7170   44.6680 C   0  0  0  0  0  0  0  0  0  0  0  0
   45.8290   34.5670   43.5960 C   0  0  0  0  0  0  0  0  0  0  0  0
   45.0520   35.6980   43.7300 N   0  0  0  0  0  0  0  0  0  0  0  0
   44.4350   35.9820   44.9150 C   0  0  0  0  0  0  0  0  0  0  0  0
   44.5810   35.1640   45.9540 N   0  0  0  0  0  0  0  0  0  0  0  0
   45.4010   33.4360   46.7520 H   0  0  0  0  0  0  0  0  0  0  0  0
   46.5580   32.8220   44.6670 H   0  0  0  0  0  0  0  0  0  0  0  0
   43.8580   36.9010   44.8780 H   0  0  0  0  0  0  0  0  0  0  0  0
   47.8870   34.1970   42.4910 O   0  0  0  0  0  0  0  0  0  0  0  0
   49.6120   33.2320   40.7810 O   0  0  0  0  0  0  0  0  0  0  0  0
   48.5550   34.2930   40.9390 P   0  0  2  0  0  0  0  0  0  0  0  0
   49.1720   35.8630   40.7740 O   0  0  0  0  0  0  0  0  0  0  0  0
   50.1310   35.8660   40.5030 H   0  0  0  0  0  0  0  0  0  0  0  0
   47.3410   34.0250   39.8110 O   0  0  0  0  0  0  0  0  0  0  0  0
   47.8770   33.8960   38.5220 C   0  0  0  0  0  0  0  0  0  0  0  0
   48.6060   35.0360   38.2370 F   0  0  0  0  0  0  0  0  0  0  0  0
   46.8300   33.7790   37.6010 F   0  0  0  0  0  0  0  0  0  0  0  0
   48.6550   32.7770   38.4380 F   0  0  0  0  0  0  0  0  0  0  0  0
  1 13  1  0  0  0  0
  1  6  1  0  0  0  0
  2  1  1  0  0  0  0
  3  1  1  0  0  0  0
  4  9  1  0  0  0  0
  4 10  1  0  0  0  0
  5  4  2  0  0  0  0
  6  7  2  0  0  0  0
  6  5  1  0  0  0  0
  7  8  1  0  0  0  0
  8  9  2  0  0  0  0
 11  5  1  0  0  0  0
 12  8  1  0  0  0  0
 15 14  2  6  0  0  0
 15 13  1  0  0  0  0
 16 15  1  0  0  0  0
 17 16  1  0  0  0  0
 18 15  1  0  0  0  0
 19 18  1  0  0  0  0
 20 19  1  0  0  0  0
 21 19  1  0  0  0  0
 22 19  1  0  0  0  0
M  END
>  <minimizedAffinity>
-4.16372967

>  <minimizedRMSD>
1.81102335

$$$$
