
 OpenBabel03252501053D

 35 37  0  0  1  0  0  0  0  0999 V2000
   48.6230   32.3770   38.1200 O   0  0  0  0  0  0  0  0  0  0  0  0
   48.1000   33.8070   38.2550 P   0  0  2  0  0  0  0  0  0  0  0  0
   49.3040   34.7870   37.5720 O   0  0  0  0  0  0  0  0  0  0  0  0
   50.1800   34.3330   37.4970 H   0  0  0  0  0  0  0  0  0  0  0  0
   47.7030   34.1820   39.7950 O   0  0  0  0  0  0  0  0  0  0  0  0
   48.0710   35.4570   41.8190 C   0  0  1  0  0  0  0  0  0  0  0  0
   49.2960   34.6620   41.6650 C   0  0  0  0  0  0  0  0  0  0  0  0
   48.4470   35.0880   40.4550 C   0  0  1  0  0  0  0  0  0  0  0  0
   48.0410   36.5280   42.0800 H   0  0  0  0  0  0  0  0  0  0  0  0
   49.2810   33.5740   41.8040 H   0  0  0  0  0  0  0  0  0  0  0  0
   50.2380   35.1960   41.8640 H   0  0  0  0  0  0  0  0  0  0  0  0
   49.0030   35.8090   39.8290 H   0  0  0  0  0  0  0  0  0  0  0  0
   46.0320   32.9260   43.7680 C   0  0  0  0  0  0  0  0  0  0  0  0
   47.1280   33.6020   43.2460 C   0  0  0  0  0  0  0  0  0  0  0  0
   46.9060   34.7150   42.4100 C   0  0  0  0  0  0  0  0  0  0  0  0
   45.6280   35.0970   42.1360 N   0  0  0  0  0  0  0  0  0  0  0  0
   44.5760   34.4150   42.6610 C   0  0  0  0  0  0  0  0  0  0  0  0
   44.7750   33.3360   43.4730 N   0  0  0  0  0  0  0  0  0  0  0  0
   46.2060   32.0860   44.4000 H   0  0  0  0  0  0  0  0  0  0  0  0
   48.1070   33.2690   43.4870 H   0  0  0  0  0  0  0  0  0  0  0  0
   43.5620   34.7220   42.4410 H   0  0  0  0  0  0  0  0  0  0  0  0
   46.7600   33.8750   37.2450 O   0  0  0  0  0  0  0  0  0  0  0  0
   45.7240   32.9520   37.2650 C   0  0  0  0  0  0  0  0  0  0  0  0
   45.6850   31.7030   36.6690 C   0  0  0  0  0  0  0  0  0  0  0  0
   44.5840   30.9040   36.7790 C   0  0  0  0  0  0  0  0  0  0  0  0
   43.4810   31.3290   37.4910 C   0  0  0  0  0  0  0  0  0  0  0  0
   43.5610   32.5950   38.0760 C   0  0  0  0  0  0  0  0  0  0  0  0
   44.6670   33.3720   37.9530 N   0  0  0  0  0  0  0  0  0  0  0  0
   46.5890   31.4420   36.1290 H   0  0  0  0  0  0  0  0  0  0  0  0
   44.5860   29.9290   36.2990 H   0  0  0  0  0  0  0  0  0  0  0  0
   42.5920   30.7360   37.6050 H   0  0  0  0  0  0  0  0  0  0  0  0
   42.3750   33.0560   38.8440 C   0  0  0  0  0  0  0  0  0  0  0  0
   41.9470   34.2330   38.3040 F   0  0  0  0  0  0  0  0  0  0  0  0
   41.3780   32.0990   38.6290 F   0  0  0  0  0  0  0  0  0  0  0  0
   42.6310   33.1110   40.2000 F   0  0  0  0  0  0  0  0  0  0  0  0
  2  1  2  6  0  0  0
  2  5  1  0  0  0  0
  3  2  1  0  0  0  0
  4  3  1  0  0  0  0
  5  8  1  0  0  0  0
  6  9  1  1  0  0  0
  6 15  1  0  0  0  0
  7 10  1  0  0  0  0
  7  6  1  0  0  0  0
  7 11  1  0  0  0  0
  8 12  1  6  0  0  0
  8  7  1  0  0  0  0
  8  6  1  0  0  0  0
 13 19  1  0  0  0  0
 14 20  1  0  0  0  0
 14 13  2  0  0  0  0
 15 14  1  0  0  0  0
 16 15  2  0  0  0  0
 16 17  1  0  0  0  0
 17 18  2  0  0  0  0
 18 13  1  0  0  0  0
 21 17  1  0  0  0  0
 22 23  1  0  0  0  0
 22  2  1  0  0  0  0
 23 28  1  0  0  0  0
 24 25  1  0  0  0  0
 24 23  2  0  0  0  0
 25 26  2  0  0  0  0
 26 31  1  0  0  0  0
 26 27  1  0  0  0  0
 27 32  1  0  0  0  0
 28 27  2  0  0  0  0
 29 24  1  0  0  0  0
 30 25  1  0  0  0  0
 32 35  1  0  0  0  0
 33 32  1  0  0  0  0
 34 32  1  0  0  0  0
M  END
>  <minimizedAffinity>
-4.65115595

>  <minimizedRMSD>
0.749891222

$$$$
