
 OpenBabel03242520333D

 23 24  0  0  1  0  0  0  0  0999 V2000
   45.8270   33.6470   43.0760 C   0  0  0  0  0  0  0  0  0  0  0  0
   47.0390   33.0570   42.5890 C   0  0  0  0  0  0  0  0  0  0  0  0
   47.8300   32.3960   43.5090 C   0  0  0  0  0  0  0  0  0  0  0  0
   47.4250   32.3400   44.8020 N   0  0  0  0  0  0  0  0  0  0  0  0
   46.2960   32.8970   45.2280 C   0  0  0  0  0  0  0  0  0  0  0  0
   45.4950   33.5540   44.3550 N   0  0  0  0  0  0  0  0  0  0  0  0
   45.2310   34.1590   42.3210 H   0  0  0  0  0  0  0  0  0  0  0  0
   48.7590   31.9250   43.2160 H   0  0  0  0  0  0  0  0  0  0  0  0
   47.4460   33.1580   41.1630 C   0  0  1  0  0  0  0  0  0  0  0  0
   46.8540   34.1560   40.2990 C   0  0  0  0  0  0  0  0  0  0  0  0
   48.2550   34.3790   40.7360 C   0  0  1  0  0  0  0  0  0  0  0  0
   47.8120   32.2010   40.7420 H   0  0  0  0  0  0  0  0  0  0  0  0
   46.1160   34.8830   40.7350 H   0  0  0  0  0  0  0  0  0  0  0  0
   46.6900   34.0280   39.2120 H   0  0  0  0  0  0  0  0  0  0  0  0
   49.0790   34.2000   39.9900 H   0  0  0  0  0  0  0  0  0  0  0  0
   48.6000   35.4360   41.7230 C   0  0  0  0  0  0  0  0  0  0  0  0
   49.2960   36.4830   41.1440 F   0  0  0  0  0  0  0  0  0  0  0  0
   49.3530   34.9270   42.7830 F   0  0  0  0  0  0  0  0  0  0  0  0
   47.4290   35.9590   42.2170 F   0  0  0  0  0  0  0  0  0  0  0  0
   45.8890   32.8100   46.6680 C   0  0  0  0  0  0  0  0  0  0  0  0
   47.0070   32.9960   47.4640 F   0  0  0  0  0  0  0  0  0  0  0  0
   45.3800   31.5670   46.9840 F   0  0  0  0  0  0  0  0  0  0  0  0
   44.9230   33.7290   46.9730 F   0  0  0  0  0  0  0  0  0  0  0  0
  1  6  1  0  0  0  0
  2  1  2  0  0  0  0
  2  3  1  0  0  0  0
  3  4  2  0  0  0  0
  4  5  1  0  0  0  0
  5 20  1  0  0  0  0
  6  5  2  0  0  0  0
  7  1  1  0  0  0  0
  8  3  1  0  0  0  0
  9 12  1  6  0  0  0
  9  2  1  0  0  0  0
 10 13  1  0  0  0  0
 10 11  1  0  0  0  0
 10  9  1  0  0  0  0
 11 15  1  6  0  0  0
 11  9  1  0  0  0  0
 11 16  1  0  0  0  0
 14 10  1  0  0  0  0
 16 19  1  0  0  0  0
 16 18  1  0  0  0  0
 17 16  1  0  0  0  0
 20 23  1  0  0  0  0
 20 22  1  0  0  0  0
 20 21  1  0  0  0  0
M  END
>  <minimizedAffinity>
-4.97153139

>  <minimizedRMSD>
1.05136073

$$$$
