
 OpenBabel03252501053D

 35 37  0  0  1  0  0  0  0  0999 V2000
   48.7250   32.3320   38.0360 O   0  0  0  0  0  0  0  0  0  0  0  0
   48.1420   33.7340   38.2110 P   0  0  2  0  0  0  0  0  0  0  0  0
   49.3040   34.7840   37.5600 O   0  0  0  0  0  0  0  0  0  0  0  0
   50.1990   34.3690   37.4740 H   0  0  0  0  0  0  0  0  0  0  0  0
   47.7260   34.0480   39.7600 O   0  0  0  0  0  0  0  0  0  0  0  0
   47.9280   35.3940   41.7610 C   0  0  1  0  0  0  0  0  0  0  0  0
   49.1950   34.6550   41.6930 C   0  0  0  0  0  0  0  0  0  0  0  0
   48.3920   35.0060   40.4290 C   0  0  1  0  0  0  0  0  0  0  0  0
   47.8340   36.4700   41.9870 H   0  0  0  0  0  0  0  0  0  0  0  0
   49.2240   33.5720   41.8640 H   0  0  0  0  0  0  0  0  0  0  0  0
   50.1000   35.2400   41.9240 H   0  0  0  0  0  0  0  0  0  0  0  0
   48.9450   35.7360   39.8100 H   0  0  0  0  0  0  0  0  0  0  0  0
   45.8990   32.9150   43.7840 C   0  0  0  0  0  0  0  0  0  0  0  0
   46.9870   33.6310   43.3000 C   0  0  0  0  0  0  0  0  0  0  0  0
   46.7690   34.6140   42.3140 C   0  0  0  0  0  0  0  0  0  0  0  0
   45.5040   34.8340   41.8610 N   0  0  0  0  0  0  0  0  0  0  0  0
   44.4600   34.1170   42.3540 C   0  0  0  0  0  0  0  0  0  0  0  0
   44.6550   33.1620   43.3110 N   0  0  0  0  0  0  0  0  0  0  0  0
   46.0700   32.1730   44.5300 H   0  0  0  0  0  0  0  0  0  0  0  0
   47.9560   33.4260   43.6820 H   0  0  0  0  0  0  0  0  0  0  0  0
   43.4560   34.2950   41.9920 H   0  0  0  0  0  0  0  0  0  0  0  0
   46.8020   33.7750   37.1990 O   0  0  0  0  0  0  0  0  0  0  0  0
   45.6650   33.0010   37.3830 C   0  0  0  0  0  0  0  0  0  0  0  0
   45.4300   31.7120   36.9340 C   0  0  0  0  0  0  0  0  0  0  0  0
   44.2510   31.0780   37.1980 C   0  0  0  0  0  0  0  0  0  0  0  0
   43.2620   31.7140   37.9210 C   0  0  0  0  0  0  0  0  0  0  0  0
   43.5390   33.0130   38.3550 C   0  0  0  0  0  0  0  0  0  0  0  0
   44.7200   33.6240   38.0810 N   0  0  0  0  0  0  0  0  0  0  0  0
   46.2540   31.2830   36.3740 H   0  0  0  0  0  0  0  0  0  0  0  0
   44.0990   30.0670   36.8300 H   0  0  0  0  0  0  0  0  0  0  0  0
   42.3190   31.2570   38.1530 H   0  0  0  0  0  0  0  0  0  0  0  0
   42.4770   33.7010   39.1350 C   0  0  0  0  0  0  0  0  0  0  0  0
   42.9350   34.9370   39.4840 F   0  0  0  0  0  0  0  0  0  0  0  0
   41.4030   33.8750   38.2560 F   0  0  0  0  0  0  0  0  0  0  0  0
   42.0410   32.9340   40.1970 F   0  0  0  0  0  0  0  0  0  0  0  0
  2  1  2  6  0  0  0
  2  5  1  0  0  0  0
  3  2  1  0  0  0  0
  4  3  1  0  0  0  0
  5  8  1  0  0  0  0
  6  9  1  1  0  0  0
  6 15  1  0  0  0  0
  7  6  1  0  0  0  0
  7 10  1  0  0  0  0
  7 11  1  0  0  0  0
  8 12  1  6  0  0  0
  8  7  1  0  0  0  0
  8  6  1  0  0  0  0
 13 19  1  0  0  0  0
 14 20  1  0  0  0  0
 14 13  2  0  0  0  0
 15 14  1  0  0  0  0
 16 15  2  0  0  0  0
 16 17  1  0  0  0  0
 17 18  2  0  0  0  0
 18 13  1  0  0  0  0
 21 17  1  0  0  0  0
 22 23  1  0  0  0  0
 22  2  1  0  0  0  0
 23 28  1  0  0  0  0
 24 25  1  0  0  0  0
 24 23  2  0  0  0  0
 25 26  2  0  0  0  0
 26 31  1  0  0  0  0
 26 27  1  0  0  0  0
 27 32  1  0  0  0  0
 28 27  2  0  0  0  0
 29 24  1  0  0  0  0
 30 25  1  0  0  0  0
 32 33  1  0  0  0  0
 32 35  1  0  0  0  0
 34 32  1  0  0  0  0
M  END
>  <minimizedAffinity>
-4.67705059

>  <minimizedRMSD>
1.05588126

$$$$
