
 OpenBabel03252501063D

 35 37  0  0  1  0  0  0  0  0999 V2000
   48.5760   32.3760   38.1060 O   0  0  0  0  0  0  0  0  0  0  0  0
   48.0880   33.8160   38.2540 P   0  0  2  0  0  0  0  0  0  0  0  0
   49.3130   34.7730   37.5770 O   0  0  0  0  0  0  0  0  0  0  0  0
   50.1790   34.2990   37.4970 H   0  0  0  0  0  0  0  0  0  0  0  0
   47.7010   34.1880   39.7970 O   0  0  0  0  0  0  0  0  0  0  0  0
   48.0820   35.4600   41.8200 C   0  0  1  0  0  0  0  0  0  0  0  0
   49.3040   34.6630   41.6600 C   0  0  0  0  0  0  0  0  0  0  0  0
   48.4500   35.0920   40.4540 C   0  0  1  0  0  0  0  0  0  0  0  0
   48.0560   36.5320   42.0820 H   0  0  0  0  0  0  0  0  0  0  0  0
   49.2880   33.5750   41.7980 H   0  0  0  0  0  0  0  0  0  0  0  0
   50.2490   35.1950   41.8550 H   0  0  0  0  0  0  0  0  0  0  0  0
   49.0050   35.8120   39.8260 H   0  0  0  0  0  0  0  0  0  0  0  0
   46.0460   32.9300   43.7730 C   0  0  0  0  0  0  0  0  0  0  0  0
   47.1420   33.6030   43.2450 C   0  0  0  0  0  0  0  0  0  0  0  0
   46.9180   34.7210   42.4170 C   0  0  0  0  0  0  0  0  0  0  0  0
   45.6400   35.1090   42.1530 N   0  0  0  0  0  0  0  0  0  0  0  0
   44.5880   34.4300   42.6830 C   0  0  0  0  0  0  0  0  0  0  0  0
   44.7890   33.3460   43.4890 N   0  0  0  0  0  0  0  0  0  0  0  0
   46.2210   32.0860   44.3990 H   0  0  0  0  0  0  0  0  0  0  0  0
   48.1210   33.2650   43.4780 H   0  0  0  0  0  0  0  0  0  0  0  0
   43.5740   34.7410   42.4720 H   0  0  0  0  0  0  0  0  0  0  0  0
   46.7480   33.9240   37.2460 O   0  0  0  0  0  0  0  0  0  0  0  0
   45.7140   32.9990   37.2250 C   0  0  0  0  0  0  0  0  0  0  0  0
   45.6640   31.7940   36.5460 C   0  0  0  0  0  0  0  0  0  0  0  0
   44.5660   30.9850   36.6250 C   0  0  0  0  0  0  0  0  0  0  0  0
   43.4790   31.3570   37.3890 C   0  0  0  0  0  0  0  0  0  0  0  0
   43.5710   32.5800   38.0580 C   0  0  0  0  0  0  0  0  0  0  0  0
   44.6720   33.3680   37.9650 N   0  0  0  0  0  0  0  0  0  0  0  0
   46.5550   31.5740   35.9690 H   0  0  0  0  0  0  0  0  0  0  0  0
   44.5590   30.0460   36.0790 H   0  0  0  0  0  0  0  0  0  0  0  0
   42.5940   30.7560   37.4820 H   0  0  0  0  0  0  0  0  0  0  0  0
   42.4010   32.9840   38.8820 C   0  0  0  0  0  0  0  0  0  0  0  0
   41.9090   31.8730   39.5000 F   0  0  0  0  0  0  0  0  0  0  0  0
   42.9010   33.8370   39.8720 F   0  0  0  0  0  0  0  0  0  0  0  0
   41.4690   33.6850   38.1440 F   0  0  0  0  0  0  0  0  0  0  0  0
  2  1  2  6  0  0  0
  2  5  1  0  0  0  0
  3  2  1  0  0  0  0
  4  3  1  0  0  0  0
  5  8  1  0  0  0  0
  6  9  1  1  0  0  0
  6 15  1  0  0  0  0
  7 10  1  0  0  0  0
  7  6  1  0  0  0  0
  7 11  1  0  0  0  0
  8 12  1  6  0  0  0
  8  7  1  0  0  0  0
  8  6  1  0  0  0  0
 13 19  1  0  0  0  0
 14 20  1  0  0  0  0
 14 13  2  0  0  0  0
 15 14  1  0  0  0  0
 16 15  2  0  0  0  0
 16 17  1  0  0  0  0
 17 18  2  0  0  0  0
 18 13  1  0  0  0  0
 21 17  1  0  0  0  0
 22  2  1  0  0  0  0
 23 22  1  0  0  0  0
 23 28  1  0  0  0  0
 24 25  1  0  0  0  0
 24 23  2  0  0  0  0
 25 26  2  0  0  0  0
 26 31  1  0  0  0  0
 26 27  1  0  0  0  0
 27 32  1  0  0  0  0
 28 27  2  0  0  0  0
 29 24  1  0  0  0  0
 30 25  1  0  0  0  0
 32 33  1  0  0  0  0
 32 34  1  0  0  0  0
 35 32  1  0  0  0  0
M  END
>  <minimizedAffinity>
-4.67806196

>  <minimizedRMSD>
0.69902277

$$$$
