
 OpenBabel03252501053D

 35 37  0  0  1  0  0  0  0  0999 V2000
   48.5900   32.3800   38.0970 O   0  0  0  0  0  0  0  0  0  0  0  0
   48.0990   33.8200   38.2450 P   0  0  2  0  0  0  0  0  0  0  0  0
   49.3260   34.7790   37.5740 O   0  0  0  0  0  0  0  0  0  0  0  0
   50.1930   34.3050   37.4970 H   0  0  0  0  0  0  0  0  0  0  0  0
   47.7060   34.1900   39.7870 O   0  0  0  0  0  0  0  0  0  0  0  0
   48.0800   35.4560   41.8150 C   0  0  1  0  0  0  0  0  0  0  0  0
   49.3030   34.6590   41.6560 C   0  0  0  0  0  0  0  0  0  0  0  0
   48.4530   35.0910   40.4480 C   0  0  1  0  0  0  0  0  0  0  0  0
   48.0520   36.5270   42.0800 H   0  0  0  0  0  0  0  0  0  0  0  0
   49.2860   33.5710   41.7910 H   0  0  0  0  0  0  0  0  0  0  0  0
   50.2470   35.1910   41.8550 H   0  0  0  0  0  0  0  0  0  0  0  0
   49.0090   35.8140   39.8240 H   0  0  0  0  0  0  0  0  0  0  0  0
   46.0380   32.9170   43.7510 C   0  0  0  0  0  0  0  0  0  0  0  0
   47.1350   33.5930   43.2290 C   0  0  0  0  0  0  0  0  0  0  0  0
   46.9140   34.7150   42.4050 C   0  0  0  0  0  0  0  0  0  0  0  0
   45.6370   35.1050   42.1420 N   0  0  0  0  0  0  0  0  0  0  0  0
   44.5840   34.4240   42.6660 C   0  0  0  0  0  0  0  0  0  0  0  0
   44.7830   33.3360   43.4670 N   0  0  0  0  0  0  0  0  0  0  0  0
   46.2120   32.0700   44.3730 H   0  0  0  0  0  0  0  0  0  0  0  0
   48.1140   33.2530   43.4610 H   0  0  0  0  0  0  0  0  0  0  0  0
   43.5700   34.7380   42.4550 H   0  0  0  0  0  0  0  0  0  0  0  0
   46.7640   33.9280   37.2310 O   0  0  0  0  0  0  0  0  0  0  0  0
   45.7260   33.0060   37.2120 C   0  0  0  0  0  0  0  0  0  0  0  0
   45.6670   31.8050   36.5250 C   0  0  0  0  0  0  0  0  0  0  0  0
   44.5680   31.0000   36.6070 C   0  0  0  0  0  0  0  0  0  0  0  0
   43.4860   31.3710   37.3790 C   0  0  0  0  0  0  0  0  0  0  0  0
   43.5870   32.5900   38.0550 C   0  0  0  0  0  0  0  0  0  0  0  0
   44.6900   33.3740   37.9590 N   0  0  0  0  0  0  0  0  0  0  0  0
   46.5550   31.5850   35.9420 H   0  0  0  0  0  0  0  0  0  0  0  0
   44.5540   30.0640   36.0550 H   0  0  0  0  0  0  0  0  0  0  0  0
   42.6000   30.7720   37.4740 H   0  0  0  0  0  0  0  0  0  0  0  0
   42.4230   32.9930   38.8890 C   0  0  0  0  0  0  0  0  0  0  0  0
   42.8140   32.9960   40.1940 F   0  0  0  0  0  0  0  0  0  0  0  0
   42.1270   34.3100   38.5280 F   0  0  0  0  0  0  0  0  0  0  0  0
   41.3110   32.2170   38.6280 F   0  0  0  0  0  0  0  0  0  0  0  0
  2  1  2  6  0  0  0
  2  5  1  0  0  0  0
  3  2  1  0  0  0  0
  4  3  1  0  0  0  0
  5  8  1  0  0  0  0
  6  9  1  1  0  0  0
  6 15  1  0  0  0  0
  7 10  1  0  0  0  0
  7  6  1  0  0  0  0
  7 11  1  0  0  0  0
  8 12  1  6  0  0  0
  8  7  1  0  0  0  0
  8  6  1  0  0  0  0
 13 19  1  0  0  0  0
 14 20  1  0  0  0  0
 14 13  2  0  0  0  0
 15 14  1  0  0  0  0
 16 15  2  0  0  0  0
 16 17  1  0  0  0  0
 17 18  2  0  0  0  0
 18 13  1  0  0  0  0
 21 17  1  0  0  0  0
 22  2  1  0  0  0  0
 23 22  1  0  0  0  0
 23 28  1  0  0  0  0
 24 25  1  0  0  0  0
 24 23  2  0  0  0  0
 25 26  2  0  0  0  0
 26 31  1  0  0  0  0
 26 27  1  0  0  0  0
 27 32  1  0  0  0  0
 28 27  2  0  0  0  0
 29 24  1  0  0  0  0
 30 25  1  0  0  0  0
 32 33  1  0  0  0  0
 34 32  1  0  0  0  0
 35 32  1  0  0  0  0
M  END
>  <minimizedAffinity>
-4.64018059

>  <minimizedRMSD>
0.681365669

$$$$
