
 OpenBabel03252501063D

 35 37  0  0  1  0  0  0  0  0999 V2000
   48.7210   32.3370   38.0420 O   0  0  0  0  0  0  0  0  0  0  0  0
   48.1400   33.7410   38.2130 P   0  0  2  0  0  0  0  0  0  0  0  0
   49.3040   34.7870   37.5600 O   0  0  0  0  0  0  0  0  0  0  0  0
   50.1990   34.3710   37.4760 H   0  0  0  0  0  0  0  0  0  0  0  0
   47.7250   34.0590   39.7610 O   0  0  0  0  0  0  0  0  0  0  0  0
   47.9410   35.3970   41.7660 C   0  0  1  0  0  0  0  0  0  0  0  0
   49.2050   34.6540   41.6900 C   0  0  0  0  0  0  0  0  0  0  0  0
   48.3970   35.0120   40.4300 C   0  0  1  0  0  0  0  0  0  0  0  0
   47.8520   36.4720   41.9970 H   0  0  0  0  0  0  0  0  0  0  0  0
   49.2300   33.5700   41.8560 H   0  0  0  0  0  0  0  0  0  0  0  0
   50.1130   35.2340   41.9180 H   0  0  0  0  0  0  0  0  0  0  0  0
   48.9500   35.7430   39.8120 H   0  0  0  0  0  0  0  0  0  0  0  0
   45.9120   32.9170   43.7890 C   0  0  0  0  0  0  0  0  0  0  0  0
   47.0010   33.6320   43.3030 C   0  0  0  0  0  0  0  0  0  0  0  0
   46.7820   34.6190   42.3220 C   0  0  0  0  0  0  0  0  0  0  0  0
   45.5160   34.8470   41.8770 N   0  0  0  0  0  0  0  0  0  0  0  0
   44.4710   34.1320   42.3720 C   0  0  0  0  0  0  0  0  0  0  0  0
   44.6670   33.1720   43.3230 N   0  0  0  0  0  0  0  0  0  0  0  0
   46.0840   32.1720   44.5320 H   0  0  0  0  0  0  0  0  0  0  0  0
   47.9710   33.4210   43.6790 H   0  0  0  0  0  0  0  0  0  0  0  0
   43.4660   34.3150   42.0160 H   0  0  0  0  0  0  0  0  0  0  0  0
   46.8010   33.7810   37.2000 O   0  0  0  0  0  0  0  0  0  0  0  0
   45.6710   32.9960   37.3750 C   0  0  0  0  0  0  0  0  0  0  0  0
   45.4570   31.7010   36.9320 C   0  0  0  0  0  0  0  0  0  0  0  0
   44.2810   31.0550   37.1850 C   0  0  0  0  0  0  0  0  0  0  0  0
   43.2760   31.6850   37.8900 C   0  0  0  0  0  0  0  0  0  0  0  0
   43.5320   32.9900   38.3180 C   0  0  0  0  0  0  0  0  0  0  0  0
   44.7090   33.6130   38.0560 N   0  0  0  0  0  0  0  0  0  0  0  0
   46.2930   31.2770   36.3870 H   0  0  0  0  0  0  0  0  0  0  0  0
   44.1460   30.0400   36.8230 H   0  0  0  0  0  0  0  0  0  0  0  0
   42.3350   31.2180   38.1130 H   0  0  0  0  0  0  0  0  0  0  0  0
   42.4510   33.6710   39.0780 C   0  0  0  0  0  0  0  0  0  0  0  0
   42.1850   32.9360   40.1950 F   0  0  0  0  0  0  0  0  0  0  0  0
   42.9820   34.8970   39.4900 F   0  0  0  0  0  0  0  0  0  0  0  0
   41.3480   33.9250   38.2870 F   0  0  0  0  0  0  0  0  0  0  0  0
  2  1  2  6  0  0  0
  2  5  1  0  0  0  0
  3  2  1  0  0  0  0
  4  3  1  0  0  0  0
  5  8  1  0  0  0  0
  6  9  1  1  0  0  0
  6 15  1  0  0  0  0
  7  6  1  0  0  0  0
  7 10  1  0  0  0  0
  7 11  1  0  0  0  0
  8 12  1  6  0  0  0
  8  7  1  0  0  0  0
  8  6  1  0  0  0  0
 13 19  1  0  0  0  0
 14 20  1  0  0  0  0
 14 13  2  0  0  0  0
 15 14  1  0  0  0  0
 16 15  2  0  0  0  0
 16 17  1  0  0  0  0
 17 18  2  0  0  0  0
 18 13  1  0  0  0  0
 21 17  1  0  0  0  0
 22 23  1  0  0  0  0
 22  2  1  0  0  0  0
 23 28  1  0  0  0  0
 24 25  1  0  0  0  0
 24 23  2  0  0  0  0
 25 26  2  0  0  0  0
 26 31  1  0  0  0  0
 26 27  1  0  0  0  0
 27 32  1  0  0  0  0
 28 27  2  0  0  0  0
 29 24  1  0  0  0  0
 30 25  1  0  0  0  0
 32 34  1  0  0  0  0
 32 33  1  0  0  0  0
 35 32  1  0  0  0  0
M  END
>  <minimizedAffinity>
-4.68306637

>  <minimizedRMSD>
1.04521441

$$$$
