
 OpenBabel03242520343D

 23 24  0  0  1  0  0  0  0  0999 V2000
   35.9270   30.1670   40.8060 C   0  0  0  0  0  0  0  0  0  0  0  0
   37.0960   30.9970   40.8100 C   0  0  0  0  0  0  0  0  0  0  0  0
   38.2170   30.5000   41.4460 C   0  0  0  0  0  0  0  0  0  0  0  0
   38.1550   29.2730   42.0220 N   0  0  0  0  0  0  0  0  0  0  0  0
   37.0580   28.5240   42.0050 C   0  0  0  0  0  0  0  0  0  0  0  0
   35.9390   28.9790   41.3910 N   0  0  0  0  0  0  0  0  0  0  0  0
   35.0640   30.5940   40.2950 H   0  0  0  0  0  0  0  0  0  0  0  0
   39.1370   31.0670   41.4900 H   0  0  0  0  0  0  0  0  0  0  0  0
   37.1100   32.3410   40.1760 C   0  0  1  0  0  0  0  0  0  0  0  0
   38.3290   32.8730   39.6080 C   0  0  0  0  0  0  0  0  0  0  0  0
   37.2820   32.4140   38.6610 C   0  0  1  0  0  0  0  0  0  0  0  0
   36.3360   33.0250   40.5780 H   0  0  0  0  0  0  0  0  0  0  0  0
   39.2550   32.2350   39.6140 H   0  0  0  0  0  0  0  0  0  0  0  0
   38.5900   33.9490   39.5730 H   0  0  0  0  0  0  0  0  0  0  0  0
   36.6740   33.1930   38.1240 H   0  0  0  0  0  0  0  0  0  0  0  0
   37.4500   31.1710   37.8620 C   0  0  0  0  0  0  0  0  0  0  0  0
   36.3120   30.3830   37.8780 F   0  0  0  0  0  0  0  0  0  0  0  0
   38.5300   30.4100   38.3130 F   0  0  0  0  0  0  0  0  0  0  0  0
   37.6710   31.5300   36.5540 F   0  0  0  0  0  0  0  0  0  0  0  0
   37.0350   27.1750   42.6550 C   0  0  0  0  0  0  0  0  0  0  0  0
   38.2790   26.9220   43.2100 F   0  0  0  0  0  0  0  0  0  0  0  0
   36.7960   26.1680   41.7430 F   0  0  0  0  0  0  0  0  0  0  0  0
   36.0570   27.0930   43.6090 F   0  0  0  0  0  0  0  0  0  0  0  0
  1  2  2  0  0  0  0
  1  6  1  0  0  0  0
  2  3  1  0  0  0  0
  3  8  1  0  0  0  0
  3  4  2  0  0  0  0
  5  4  1  0  0  0  0
  5 20  1  0  0  0  0
  6  5  2  0  0  0  0
  7  1  1  0  0  0  0
  9 12  1  1  0  0  0
  9  2  1  0  0  0  0
 10 13  1  0  0  0  0
 10  9  1  0  0  0  0
 11 15  1  6  0  0  0
 11 10  1  0  0  0  0
 11  9  1  0  0  0  0
 14 10  1  0  0  0  0
 16 17  1  0  0  0  0
 16 18  1  0  0  0  0
 16 11  1  0  0  0  0
 19 16  1  0  0  0  0
 20 21  1  0  0  0  0
 20 23  1  0  0  0  0
 22 20  1  0  0  0  0
M  END
>  <minimizedAffinity>
-5.03007078

$$$$

 OpenBabel03242520343D

 23 24  0  0  1  0  0  0  0  0999 V2000
   38.8830   30.2600   41.9950 C   0  0  0  0  0  0  0  0  0  0  0  0
   37.6890   29.5700   42.3850 C   0  0  0  0  0  0  0  0  0  0  0  0
   36.5180   29.9290   41.7470 C   0  0  0  0  0  0  0  0  0  0  0  0
   36.5580   30.8990   40.7990 N   0  0  0  0  0  0  0  0  0  0  0  0
   37.6800   31.5250   40.4560 C   0  0  0  0  0  0  0  0  0  0  0  0
   38.8470   31.1990   41.0610 N   0  0  0  0  0  0  0  0  0  0  0  0
   39.7850   29.9480   42.5210 H   0  0  0  0  0  0  0  0  0  0  0  0
   35.5770   29.4520   41.9870 H   0  0  0  0  0  0  0  0  0  0  0  0
   37.6940   28.5220   43.4400 C   0  0  1  0  0  0  0  0  0  0  0  0
   36.5770   27.6130   43.5780 C   0  0  0  0  0  0  0  0  0  0  0  0
   37.8310   27.0670   43.0010 C   0  0  1  0  0  0  0  0  0  0  0  0
   38.3090   28.7900   44.3220 H   0  0  0  0  0  0  0  0  0  0  0  0
   35.7270   27.6820   42.8470 H   0  0  0  0  0  0  0  0  0  0  0  0
   36.2410   27.1710   44.5360 H   0  0  0  0  0  0  0  0  0  0  0  0
   38.4700   26.4050   43.6490 H   0  0  0  0  0  0  0  0  0  0  0  0
   37.9350   26.7230   41.5580 C   0  0  0  0  0  0  0  0  0  0  0  0
   38.9940   27.3690   40.9430 F   0  0  0  0  0  0  0  0  0  0  0  0
   36.7610   27.0300   40.8680 F   0  0  0  0  0  0  0  0  0  0  0  0
   38.1750   25.3740   41.4550 F   0  0  0  0  0  0  0  0  0  0  0  0
   37.6760   32.5910   39.4040 C   0  0  0  0  0  0  0  0  0  0  0  0
   38.9860   32.9110   39.0820 F   0  0  0  0  0  0  0  0  0  0  0  0
   37.0830   33.7530   39.8510 F   0  0  0  0  0  0  0  0  0  0  0  0
   36.9910   32.1930   38.2880 F   0  0  0  0  0  0  0  0  0  0  0  0
  1  2  1  0  0  0  0
  1  7  1  0  0  0  0
  2  9  1  0  0  0  0
  3  8  1  0  0  0  0
  3  2  2  0  0  0  0
  4  3  1  0  0  0  0
  5  4  2  0  0  0  0
  5  6  1  0  0  0  0
  6  1  2  0  0  0  0
  9 10  1  0  0  0  0
  9 12  1  1  0  0  0
 10 14  1  0  0  0  0
 11  9  1  0  0  0  0
 11 10  1  0  0  0  0
 11 15  1  1  0  0  0
 13 10  1  0  0  0  0
 16 11  1  0  0  0  0
 17 16  1  0  0  0  0
 18 16  1  0  0  0  0
 19 16  1  0  0  0  0
 20 22  1  0  0  0  0
 20  5  1  0  0  0  0
 21 20  1  0  0  0  0
 23 20  1  0  0  0  0
M  END
>  <minimizedAffinity>
-4.90930033

$$$$

 OpenBabel03242520343D

 23 24  0  0  1  0  0  0  0  0999 V2000
   39.0820   29.3020   40.5080 C   0  0  0  0  0  0  0  0  0  0  0  0
   39.4300   28.9010   41.8400 C   0  0  0  0  0  0  0  0  0  0  0  0
   39.8050   29.8980   42.7190 C   0  0  0  0  0  0  0  0  0  0  0  0
   39.8230   31.1840   42.2840 N   0  0  0  0  0  0  0  0  0  0  0  0
   39.4960   31.5290   41.0440 C   0  0  0  0  0  0  0  0  0  0  0  0
   39.1240   30.5780   40.1530 N   0  0  0  0  0  0  0  0  0  0  0  0
   38.7930   28.4880   39.8450 H   0  0  0  0  0  0  0  0  0  0  0  0
   40.0800   29.6740   43.7410 H   0  0  0  0  0  0  0  0  0  0  0  0
   39.4080   27.4760   42.2640 C   0  0  1  0  0  0  0  0  0  0  0  0
   39.3200   27.1290   43.6650 C   0  0  0  0  0  0  0  0  0  0  0  0
   38.1070   26.9220   42.8360 C   0  0  1  0  0  0  0  0  0  0  0  0
   39.9160   26.7970   41.5500 H   0  0  0  0  0  0  0  0  0  0  0  0
   39.2240   27.9510   44.4240 H   0  0  0  0  0  0  0  0  0  0  0  0
   39.7700   26.2230   44.1170 H   0  0  0  0  0  0  0  0  0  0  0  0
   37.8370   25.8700   42.5420 H   0  0  0  0  0  0  0  0  0  0  0  0
   36.9130   27.7980   42.9770 C   0  0  0  0  0  0  0  0  0  0  0  0
   36.3580   28.1240   41.7520 F   0  0  0  0  0  0  0  0  0  0  0  0
   37.2160   28.9770   43.6610 F   0  0  0  0  0  0  0  0  0  0  0  0
   35.9560   27.1060   43.6800 F   0  0  0  0  0  0  0  0  0  0  0  0
   39.5300   32.9620   40.6080 C   0  0  0  0  0  0  0  0  0  0  0  0
   40.8010   33.4690   40.8260 F   0  0  0  0  0  0  0  0  0  0  0  0
   38.6600   33.7440   41.3410 F   0  0  0  0  0  0  0  0  0  0  0  0
   39.1780   33.0950   39.2930 F   0  0  0  0  0  0  0  0  0  0  0  0
  1  2  1  0  0  0  0
  2  9  1  0  0  0  0
  2  3  2  0  0  0  0
  3  8  1  0  0  0  0
  4  3  1  0  0  0  0
  5  4  2  0  0  0  0
  6  1  2  0  0  0  0
  6  5  1  0  0  0  0
  7  1  1  0  0  0  0
  9 12  1  6  0  0  0
  9 11  1  0  0  0  0
  9 10  1  0  0  0  0
 10 14  1  0  0  0  0
 10 13  1  0  0  0  0
 11 15  1  6  0  0  0
 11 16  1  0  0  0  0
 11 10  1  0  0  0  0
 16 18  1  0  0  0  0
 16 19  1  0  0  0  0
 17 16  1  0  0  0  0
 20 21  1  0  0  0  0
 20  5  1  0  0  0  0
 20 22  1  0  0  0  0
 23 20  1  0  0  0  0
M  END
>  <minimizedAffinity>
-4.71697807

$$$$

 OpenBabel03242520343D

 23 24  0  0  1  0  0  0  0  0999 V2000
   36.7750   28.7480   39.6570 C   0  0  0  0  0  0  0  0  0  0  0  0
   38.0200   29.4510   39.5490 C   0  0  0  0  0  0  0  0  0  0  0  0
   38.9320   29.2770   40.5710 C   0  0  0  0  0  0  0  0  0  0  0  0
   38.6080   28.4630   41.6070 N   0  0  0  0  0  0  0  0  0  0  0  0
   37.4460   27.8230   41.6850 C   0  0  0  0  0  0  0  0  0  0  0  0
   36.5270   27.9710   40.7000 N   0  0  0  0  0  0  0  0  0  0  0  0
   36.0830   28.9120   38.8320 H   0  0  0  0  0  0  0  0  0  0  0  0
   39.8930   29.7730   40.5590 H   0  0  0  0  0  0  0  0  0  0  0  0
   38.3220   30.3430   38.3980 C   0  0  1  0  0  0  0  0  0  0  0  0
   37.2510   30.9310   37.6240 C   0  0  0  0  0  0  0  0  0  0  0  0
   37.9990   31.8280   38.5410 C   0  0  1  0  0  0  0  0  0  0  0  0
   39.3040   30.1360   37.9270 H   0  0  0  0  0  0  0  0  0  0  0  0
   36.1880   30.7400   37.9330 H   0  0  0  0  0  0  0  0  0  0  0  0
   37.3130   31.1670   36.5440 H   0  0  0  0  0  0  0  0  0  0  0  0
   38.7390   32.5480   38.0940 H   0  0  0  0  0  0  0  0  0  0  0  0
   37.3820   32.3460   39.7910 C   0  0  0  0  0  0  0  0  0  0  0  0
   38.2640   32.3210   40.8570 F   0  0  0  0  0  0  0  0  0  0  0  0
   36.2370   31.6280   40.1380 F   0  0  0  0  0  0  0  0  0  0  0  0
   37.0400   33.6610   39.5850 F   0  0  0  0  0  0  0  0  0  0  0  0
   37.1320   26.9350   42.8490 C   0  0  0  0  0  0  0  0  0  0  0  0
   38.2480   26.8520   43.6660 F   0  0  0  0  0  0  0  0  0  0  0  0
   36.8370   25.6470   42.4490 F   0  0  0  0  0  0  0  0  0  0  0  0
   36.0520   27.3930   43.5540 F   0  0  0  0  0  0  0  0  0  0  0  0
  1  6  1  0  0  0  0
  2  1  2  0  0  0  0
  2  3  1  0  0  0  0
  3  4  2  0  0  0  0
  4  5  1  0  0  0  0
  5 20  1  0  0  0  0
  6  5  2  0  0  0  0
  7  1  1  0  0  0  0
  8  3  1  0  0  0  0
  9 12  1  6  0  0  0
  9 11  1  0  0  0  0
  9  2  1  0  0  0  0
 10 13  1  0  0  0  0
 10  9  1  0  0  0  0
 10 11  1  0  0  0  0
 11 15  1  6  0  0  0
 11 16  1  0  0  0  0
 14 10  1  0  0  0  0
 16 18  1  0  0  0  0
 16 17  1  0  0  0  0
 19 16  1  0  0  0  0
 20 23  1  0  0  0  0
 20 21  1  0  0  0  0
 22 20  1  0  0  0  0
M  END
>  <minimizedAffinity>
-4.70584154

$$$$

 OpenBabel03242520343D

 23 24  0  0  1  0  0  0  0  0999 V2000
   37.0440   28.8660   39.5380 C   0  0  0  0  0  0  0  0  0  0  0  0
   36.9010   30.2550   39.8610 C   0  0  0  0  0  0  0  0  0  0  0  0
   36.7980   30.5820   41.1990 C   0  0  0  0  0  0  0  0  0  0  0  0
   36.8370   29.5890   42.1220 N   0  0  0  0  0  0  0  0  0  0  0  0
   36.9700   28.3080   41.7960 C   0  0  0  0  0  0  0  0  0  0  0  0
   37.0740   27.9490   40.4940 N   0  0  0  0  0  0  0  0  0  0  0  0
   37.1220   28.6480   38.4730 H   0  0  0  0  0  0  0  0  0  0  0  0
   36.6890   31.6100   41.5200 H   0  0  0  0  0  0  0  0  0  0  0  0
   36.8500   31.3060   38.8100 C   0  0  1  0  0  0  0  0  0  0  0  0
   37.2010   32.6740   39.1230 C   0  0  0  0  0  0  0  0  0  0  0  0
   38.1720   31.8890   38.3190 C   0  0  1  0  0  0  0  0  0  0  0  0
   36.1230   31.0850   38.0030 H   0  0  0  0  0  0  0  0  0  0  0  0
   37.5550   32.9210   40.1600 H   0  0  0  0  0  0  0  0  0  0  0  0
   36.7580   33.5630   38.6330 H   0  0  0  0  0  0  0  0  0  0  0  0
   38.2460   32.1060   37.2170 H   0  0  0  0  0  0  0  0  0  0  0  0
   39.4610   31.4260   38.8980 C   0  0  0  0  0  0  0  0  0  0  0  0
   39.6970   30.0870   38.6380 F   0  0  0  0  0  0  0  0  0  0  0  0
   39.5110   31.6310   40.2780 F   0  0  0  0  0  0  0  0  0  0  0  0
   40.4760   32.1350   38.3030 F   0  0  0  0  0  0  0  0  0  0  0  0
   37.0080   27.2440   42.8510 C   0  0  0  0  0  0  0  0  0  0  0  0
   35.9080   27.3920   43.6790 F   0  0  0  0  0  0  0  0  0  0  0  0
   38.1260   27.3550   43.6530 F   0  0  0  0  0  0  0  0  0  0  0  0
   37.0320   25.9920   42.3000 F   0  0  0  0  0  0  0  0  0  0  0  0
  1  2  2  0  0  0  0
  1  6  1  0  0  0  0
  2  3  1  0  0  0  0
  3  8  1  0  0  0  0
  3  4  2  0  0  0  0
  5  4  1  0  0  0  0
  5 20  1  0  0  0  0
  6  5  2  0  0  0  0
  7  1  1  0  0  0  0
  9 12  1  6  0  0  0
  9 10  1  0  0  0  0
  9  2  1  0  0  0  0
 10 13  1  0  0  0  0
 11 15  1  6  0  0  0
 11  9  1  0  0  0  0
 11 16  1  0  0  0  0
 11 10  1  0  0  0  0
 14 10  1  0  0  0  0
 16 18  1  0  0  0  0
 17 16  1  0  0  0  0
 19 16  1  0  0  0  0
 20 22  1  0  0  0  0
 20 21  1  0  0  0  0
 23 20  1  0  0  0  0
M  END
>  <minimizedAffinity>
-4.61118221

$$$$

 OpenBabel03242520343D

 23 24  0  0  1  0  0  0  0  0999 V2000
   37.9790   29.3760   39.6740 C   0  0  0  0  0  0  0  0  0  0  0  0
   36.8830   29.0490   40.5380 C   0  0  0  0  0  0  0  0  0  0  0  0
   36.2430   30.0990   41.1660 C   0  0  0  0  0  0  0  0  0  0  0  0
   36.6770   31.3640   40.9370 N   0  0  0  0  0  0  0  0  0  0  0  0
   37.6970   31.6400   40.1310 C   0  0  0  0  0  0  0  0  0  0  0  0
   38.3490   30.6360   39.4970 N   0  0  0  0  0  0  0  0  0  0  0  0
   38.4570   28.5210   39.1970 H   0  0  0  0  0  0  0  0  0  0  0  0
   35.4070   29.9310   41.8330 H   0  0  0  0  0  0  0  0  0  0  0  0
   36.4540   27.6440   40.7680 C   0  0  1  0  0  0  0  0  0  0  0  0
   37.3560   26.5470   40.4940 C   0  0  0  0  0  0  0  0  0  0  0  0
   37.1010   26.8790   41.9180 C   0  0  1  0  0  0  0  0  0  0  0  0
   35.3580   27.5010   40.6870 H   0  0  0  0  0  0  0  0  0  0  0  0
   38.4000   26.7750   40.1480 H   0  0  0  0  0  0  0  0  0  0  0  0
   37.0370   25.5410   40.1560 H   0  0  0  0  0  0  0  0  0  0  0  0
   36.4280   26.1980   42.5100 H   0  0  0  0  0  0  0  0  0  0  0  0
   38.1420   27.5250   42.7610 C   0  0  0  0  0  0  0  0  0  0  0  0
   37.6400   28.5970   43.4790 F   0  0  0  0  0  0  0  0  0  0  0  0
   39.2260   27.9640   41.9970 F   0  0  0  0  0  0  0  0  0  0  0  0
   38.5850   26.6020   43.6770 F   0  0  0  0  0  0  0  0  0  0  0  0
   38.1410   33.0540   39.9070 C   0  0  0  0  0  0  0  0  0  0  0  0
   38.5320   33.6000   41.1190 F   0  0  0  0  0  0  0  0  0  0  0  0
   37.1180   33.8450   39.4270 F   0  0  0  0  0  0  0  0  0  0  0  0
   39.1620   33.1210   38.9980 F   0  0  0  0  0  0  0  0  0  0  0  0
  1  2  1  0  0  0  0
  2  9  1  0  0  0  0
  2  3  2  0  0  0  0
  3  8  1  0  0  0  0
  4  3  1  0  0  0  0
  5  4  2  0  0  0  0
  6  1  2  0  0  0  0
  6  5  1  0  0  0  0
  7  1  1  0  0  0  0
  9 12  1  6  0  0  0
  9 11  1  0  0  0  0
 10  9  1  0  0  0  0
 10 11  1  0  0  0  0
 11 15  1  1  0  0  0
 11 16  1  0  0  0  0
 13 10  1  0  0  0  0
 14 10  1  0  0  0  0
 16 17  1  0  0  0  0
 16 19  1  0  0  0  0
 18 16  1  0  0  0  0
 20  5  1  0  0  0  0
 20 21  1  0  0  0  0
 22 20  1  0  0  0  0
 23 20  1  0  0  0  0
M  END
>  <minimizedAffinity>
-4.59509325

$$$$

 OpenBabel03242520343D

 23 24  0  0  1  0  0  0  0  0999 V2000
   37.1980   26.7910   40.4400 C   0  0  0  0  0  0  0  0  0  0  0  0
   37.0370   26.3250   41.7860 C   0  0  0  0  0  0  0  0  0  0  0  0
   36.8460   27.2810   42.7650 C   0  0  0  0  0  0  0  0  0  0  0  0
   36.8210   28.5900   42.4070 N   0  0  0  0  0  0  0  0  0  0  0  0
   36.9740   28.9960   41.1510 C   0  0  0  0  0  0  0  0  0  0  0  0
   37.1630   28.0860   40.1650 N   0  0  0  0  0  0  0  0  0  0  0  0
   37.3460   26.0070   39.6980 H   0  0  0  0  0  0  0  0  0  0  0  0
   36.7160   27.0060   43.8030 H   0  0  0  0  0  0  0  0  0  0  0  0
   37.0850   24.8790   42.1290 C   0  0  1  0  0  0  0  0  0  0  0  0
   37.7750   23.9430   41.2690 C   0  0  0  0  0  0  0  0  0  0  0  0
   38.4270   24.2920   42.5550 C   0  0  1  0  0  0  0  0  0  0  0  0
   36.2270   24.5440   42.7450 H   0  0  0  0  0  0  0  0  0  0  0  0
   38.3100   24.3330   40.3610 H   0  0  0  0  0  0  0  0  0  0  0  0
   37.4840   22.8830   41.1330 H   0  0  0  0  0  0  0  0  0  0  0  0
   38.4020   23.5330   43.3860 H   0  0  0  0  0  0  0  0  0  0  0  0
   39.6430   25.1470   42.6010 C   0  0  0  0  0  0  0  0  0  0  0  0
   39.5170   26.1840   43.5090 F   0  0  0  0  0  0  0  0  0  0  0  0
   39.9460   25.6810   41.3480 F   0  0  0  0  0  0  0  0  0  0  0  0
   40.6960   24.3710   43.0230 F   0  0  0  0  0  0  0  0  0  0  0  0
   36.9390   30.4530   40.8030 C   0  0  0  0  0  0  0  0  0  0  0  0
   36.7660   30.5850   39.4340 F   0  0  0  0  0  0  0  0  0  0  0  0
   38.1260   31.0850   41.1150 F   0  0  0  0  0  0  0  0  0  0  0  0
   35.9450   31.1070   41.4790 F   0  0  0  0  0  0  0  0  0  0  0  0
  1  2  1  0  0  0  0
  2  9  1  0  0  0  0
  2  3  2  0  0  0  0
  3  8  1  0  0  0  0
  4  3  1  0  0  0  0
  5  4  2  0  0  0  0
  6  1  2  0  0  0  0
  6  5  1  0  0  0  0
  7  1  1  0  0  0  0
  9 11  1  0  0  0  0
  9 12  1  1  0  0  0
 10  9  1  0  0  0  0
 10 11  1  0  0  0  0
 11 16  1  0  0  0  0
 11 15  1  1  0  0  0
 13 10  1  0  0  0  0
 14 10  1  0  0  0  0
 16 19  1  0  0  0  0
 16 17  1  0  0  0  0
 18 16  1  0  0  0  0
 20 22  1  0  0  0  0
 20  5  1  0  0  0  0
 20 23  1  0  0  0  0
 21 20  1  0  0  0  0
M  END
>  <minimizedAffinity>
-4.59175205

$$$$

 OpenBabel03242520343D

 23 24  0  0  1  0  0  0  0  0999 V2000
   37.0000   28.1750   40.0090 C   0  0  0  0  0  0  0  0  0  0  0  0
   36.8500   28.6960   41.3360 C   0  0  0  0  0  0  0  0  0  0  0  0
   36.9290   30.0660   41.4860 C   0  0  0  0  0  0  0  0  0  0  0  0
   37.1400   30.8350   40.3880 N   0  0  0  0  0  0  0  0  0  0  0  0
   37.2760   30.3270   39.1680 C   0  0  0  0  0  0  0  0  0  0  0  0
   37.2050   28.9870   38.9830 N   0  0  0  0  0  0  0  0  0  0  0  0
   36.9320   27.0900   39.9320 H   0  0  0  0  0  0  0  0  0  0  0  0
   36.8240   30.5330   42.4570 H   0  0  0  0  0  0  0  0  0  0  0  0
   36.6340   27.8090   42.5100 C   0  0  1  0  0  0  0  0  0  0  0  0
   37.0810   26.4330   42.4830 C   0  0  0  0  0  0  0  0  0  0  0  0
   37.8570   27.3840   43.3180 C   0  0  1  0  0  0  0  0  0  0  0  0
   35.7610   28.1010   43.1270 H   0  0  0  0  0  0  0  0  0  0  0  0
   37.6330   26.0590   41.5790 H   0  0  0  0  0  0  0  0  0  0  0  0
   36.5820   25.6010   43.0160 H   0  0  0  0  0  0  0  0  0  0  0  0
   37.7280   27.3370   44.4350 H   0  0  0  0  0  0  0  0  0  0  0  0
   39.2170   27.8340   42.9190 C   0  0  0  0  0  0  0  0  0  0  0  0
   39.4550   27.6400   41.5700 F   0  0  0  0  0  0  0  0  0  0  0  0
   40.2120   27.1820   43.6500 F   0  0  0  0  0  0  0  0  0  0  0  0
   39.3050   29.1860   43.1510 F   0  0  0  0  0  0  0  0  0  0  0  0
   37.5080   31.2160   37.9850 C   0  0  0  0  0  0  0  0  0  0  0  0
   37.0320   32.4840   38.2740 F   0  0  0  0  0  0  0  0  0  0  0  0
   36.8200   30.7790   36.8710 F   0  0  0  0  0  0  0  0  0  0  0  0
   38.8330   31.2650   37.6450 F   0  0  0  0  0  0  0  0  0  0  0  0
  1  2  1  0  0  0  0
  2  3  2  0  0  0  0
  2  9  1  0  0  0  0
  3  8  1  0  0  0  0
  4  3  1  0  0  0  0
  5  4  2  0  0  0  0
  6  5  1  0  0  0  0
  6  1  2  0  0  0  0
  7  1  1  0  0  0  0
  9 12  1  1  0  0  0
  9 11  1  0  0  0  0
 10  9  1  0  0  0  0
 10 14  1  0  0  0  0
 10 11  1  0  0  0  0
 11 15  1  1  0  0  0
 13 10  1  0  0  0  0
 16 19  1  0  0  0  0
 16 11  1  0  0  0  0
 16 18  1  0  0  0  0
 17 16  1  0  0  0  0
 20 21  1  0  0  0  0
 20  5  1  0  0  0  0
 22 20  1  0  0  0  0
 23 20  1  0  0  0  0
M  END
>  <minimizedAffinity>
-4.58694077

$$$$

 OpenBabel03242520343D

 23 24  0  0  1  0  0  0  0  0999 V2000
   36.8240   30.1640   41.7970 C   0  0  0  0  0  0  0  0  0  0  0  0
   36.8790   28.8180   41.3080 C   0  0  0  0  0  0  0  0  0  0  0  0
   37.2130   28.6450   39.9790 C   0  0  0  0  0  0  0  0  0  0  0  0
   37.4670   29.7390   39.2190 N   0  0  0  0  0  0  0  0  0  0  0  0
   37.4080   30.9780   39.6960 C   0  0  0  0  0  0  0  0  0  0  0  0
   37.0840   31.1860   40.9950 N   0  0  0  0  0  0  0  0  0  0  0  0
   36.5580   30.2590   42.8490 H   0  0  0  0  0  0  0  0  0  0  0  0
   37.2760   27.6590   39.5380 H   0  0  0  0  0  0  0  0  0  0  0  0
   36.5780   27.6510   42.1790 C   0  0  1  0  0  0  0  0  0  0  0  0
   37.0820   26.3370   41.8460 C   0  0  0  0  0  0  0  0  0  0  0  0
   37.7260   27.0440   42.9810 C   0  0  1  0  0  0  0  0  0  0  0  0
   35.6340   27.7600   42.7490 H   0  0  0  0  0  0  0  0  0  0  0  0
   37.7410   26.2200   40.9430 H   0  0  0  0  0  0  0  0  0  0  0  0
   36.5650   25.3870   42.0850 H   0  0  0  0  0  0  0  0  0  0  0  0
   37.4830   26.7030   44.0250 H   0  0  0  0  0  0  0  0  0  0  0  0
   39.1000   27.6000   42.8670 C   0  0  0  0  0  0  0  0  0  0  0  0
   39.1700   28.9120   43.3040 F   0  0  0  0  0  0  0  0  0  0  0  0
   39.5770   27.5370   41.5570 F   0  0  0  0  0  0  0  0  0  0  0  0
   39.9290   26.8640   43.6800 F   0  0  0  0  0  0  0  0  0  0  0  0
   37.6970   32.1570   38.8190 C   0  0  0  0  0  0  0  0  0  0  0  0
   36.9490   33.2380   39.2560 F   0  0  0  0  0  0  0  0  0  0  0  0
   37.3310   31.9250   37.5080 F   0  0  0  0  0  0  0  0  0  0  0  0
   39.0300   32.4650   38.8140 F   0  0  0  0  0  0  0  0  0  0  0  0
  1  7  1  0  0  0  0
  2  1  1  0  0  0  0
  2  9  1  0  0  0  0
  3  2  2  0  0  0  0
  4  5  2  0  0  0  0
  4  3  1  0  0  0  0
  5  6  1  0  0  0  0
  6  1  2  0  0  0  0
  8  3  1  0  0  0  0
  9 12  1  1  0  0  0
  9 11  1  0  0  0  0
 10 14  1  0  0  0  0
 10  9  1  0  0  0  0
 10 11  1  0  0  0  0
 11 15  1  1  0  0  0
 13 10  1  0  0  0  0
 16 11  1  0  0  0  0
 16 17  1  0  0  0  0
 16 19  1  0  0  0  0
 18 16  1  0  0  0  0
 20 21  1  0  0  0  0
 20  5  1  0  0  0  0
 22 20  1  0  0  0  0
 23 20  1  0  0  0  0
M  END
>  <minimizedAffinity>
-4.56548882

$$$$
