
 OpenBabel03252501053D

 35 37  0  0  1  0  0  0  0  0999 V2000
   48.5890   32.2980   38.0150 O   0  0  0  0  0  0  0  0  0  0  0  0
   48.1110   33.7360   38.2140 P   0  0  2  0  0  0  0  0  0  0  0  0
   49.3330   34.7070   37.5500 O   0  0  0  0  0  0  0  0  0  0  0  0
   50.1950   34.2300   37.4430 H   0  0  0  0  0  0  0  0  0  0  0  0
   47.7480   34.0620   39.7740 O   0  0  0  0  0  0  0  0  0  0  0  0
   48.0180   35.4250   41.7550 C   0  0  1  0  0  0  0  0  0  0  0  0
   49.2760   34.6730   41.6590 C   0  0  0  0  0  0  0  0  0  0  0  0
   48.4410   35.0200   40.4140 C   0  0  1  0  0  0  0  0  0  0  0  0
   47.9410   36.5030   41.9730 H   0  0  0  0  0  0  0  0  0  0  0  0
   49.2990   33.5910   41.8390 H   0  0  0  0  0  0  0  0  0  0  0  0
   50.1920   35.2510   41.8590 H   0  0  0  0  0  0  0  0  0  0  0  0
   48.9840   35.7380   39.7740 H   0  0  0  0  0  0  0  0  0  0  0  0
   46.0290   32.9290   43.7980 C   0  0  0  0  0  0  0  0  0  0  0  0
   47.1100   33.6280   43.2750 C   0  0  0  0  0  0  0  0  0  0  0  0
   46.8680   34.6610   42.3480 C   0  0  0  0  0  0  0  0  0  0  0  0
   45.5870   34.9440   41.9860 N   0  0  0  0  0  0  0  0  0  0  0  0
   44.5490   34.2420   42.5140 C   0  0  0  0  0  0  0  0  0  0  0  0
   44.7680   33.2390   43.4150 N   0  0  0  0  0  0  0  0  0  0  0  0
   46.2180   32.1500   44.4990 H   0  0  0  0  0  0  0  0  0  0  0  0
   48.0930   33.3730   43.5860 H   0  0  0  0  0  0  0  0  0  0  0  0
   43.5310   34.4700   42.2250 H   0  0  0  0  0  0  0  0  0  0  0  0
   46.7590   33.8840   37.2280 O   0  0  0  0  0  0  0  0  0  0  0  0
   45.6690   33.0260   37.2720 C   0  0  0  0  0  0  0  0  0  0  0  0
   45.4300   31.9120   36.4860 C   0  0  0  0  0  0  0  0  0  0  0  0
   44.3010   31.1620   36.6490 C   0  0  0  0  0  0  0  0  0  0  0  0
   43.3680   31.5050   37.6060 C   0  0  0  0  0  0  0  0  0  0  0  0
   43.6460   32.6360   38.3770 C   0  0  0  0  0  0  0  0  0  0  0  0
   44.7760   33.3660   38.1970 N   0  0  0  0  0  0  0  0  0  0  0  0
   46.2090   31.7090   35.7580 H   0  0  0  0  0  0  0  0  0  0  0  0
   44.1450   30.2940   36.0150 H   0  0  0  0  0  0  0  0  0  0  0  0
   42.4650   30.9470   37.7720 H   0  0  0  0  0  0  0  0  0  0  0  0
   42.6440   33.0080   39.4100 C   0  0  0  0  0  0  0  0  0  0  0  0
   42.7540   34.3450   39.6520 F   0  0  0  0  0  0  0  0  0  0  0  0
   41.3900   32.7800   38.8330 F   0  0  0  0  0  0  0  0  0  0  0  0
   42.7480   32.2150   40.5360 F   0  0  0  0  0  0  0  0  0  0  0  0
  2  1  2  6  0  0  0
  2  5  1  0  0  0  0
  3  2  1  0  0  0  0
  4  3  1  0  0  0  0
  5  8  1  0  0  0  0
  6  9  1  1  0  0  0
  6 15  1  0  0  0  0
  7  6  1  0  0  0  0
  7 10  1  0  0  0  0
  7 11  1  0  0  0  0
  8 12  1  6  0  0  0
  8  7  1  0  0  0  0
  8  6  1  0  0  0  0
 13 19  1  0  0  0  0
 14 20  1  0  0  0  0
 14 13  2  0  0  0  0
 15 14  1  0  0  0  0
 16 15  2  0  0  0  0
 16 17  1  0  0  0  0
 17 18  2  0  0  0  0
 18 13  1  0  0  0  0
 21 17  1  0  0  0  0
 22 23  1  0  0  0  0
 22  2  1  0  0  0  0
 23 28  1  0  0  0  0
 24 25  1  0  0  0  0
 24 23  2  0  0  0  0
 25 26  2  0  0  0  0
 26 31  1  0  0  0  0
 26 27  1  0  0  0  0
 27 32  1  0  0  0  0
 28 27  2  0  0  0  0
 29 24  1  0  0  0  0
 30 25  1  0  0  0  0
 32 33  1  0  0  0  0
 32 35  1  0  0  0  0
 34 32  1  0  0  0  0
M  END
>  <minimizedAffinity>
-4.58273458

>  <minimizedRMSD>
0.687395692

$$$$
