
 OpenBabel03252501053D

 35 37  0  0  1  0  0  0  0  0999 V2000
   48.5970   32.3370   38.0010 O   0  0  0  0  0  0  0  0  0  0  0  0
   48.1100   33.7700   38.2110 P   0  0  2  0  0  0  0  0  0  0  0  0
   49.3260   34.7540   37.5570 O   0  0  0  0  0  0  0  0  0  0  0  0
   50.1910   34.2840   37.4480 H   0  0  0  0  0  0  0  0  0  0  0  0
   47.7430   34.0810   39.7730 O   0  0  0  0  0  0  0  0  0  0  0  0
   48.0110   35.4220   41.7690 C   0  0  1  0  0  0  0  0  0  0  0  0
   49.2670   34.6680   41.6690 C   0  0  0  0  0  0  0  0  0  0  0  0
   48.4360   35.0300   40.4260 C   0  0  1  0  0  0  0  0  0  0  0  0
   47.9360   36.4980   41.9990 H   0  0  0  0  0  0  0  0  0  0  0  0
   49.2870   33.5840   41.8380 H   0  0  0  0  0  0  0  0  0  0  0  0
   50.1840   35.2410   41.8780 H   0  0  0  0  0  0  0  0  0  0  0  0
   48.9830   35.7540   39.7940 H   0  0  0  0  0  0  0  0  0  0  0  0
   46.0090   32.9150   43.7870 C   0  0  0  0  0  0  0  0  0  0  0  0
   47.0940   33.6180   43.2750 C   0  0  0  0  0  0  0  0  0  0  0  0
   46.8570   34.6550   42.3510 C   0  0  0  0  0  0  0  0  0  0  0  0
   45.5780   34.9390   41.9820 N   0  0  0  0  0  0  0  0  0  0  0  0
   44.5370   34.2340   42.5000 C   0  0  0  0  0  0  0  0  0  0  0  0
   44.7510   33.2270   43.3980 N   0  0  0  0  0  0  0  0  0  0  0  0
   46.1940   32.1330   44.4860 H   0  0  0  0  0  0  0  0  0  0  0  0
   48.0750   33.3610   43.5910 H   0  0  0  0  0  0  0  0  0  0  0  0
   43.5220   34.4630   42.2050 H   0  0  0  0  0  0  0  0  0  0  0  0
   46.7580   33.9170   37.2250 O   0  0  0  0  0  0  0  0  0  0  0  0
   45.6970   33.0230   37.2230 C   0  0  0  0  0  0  0  0  0  0  0  0
   45.5110   31.9230   36.4030 C   0  0  0  0  0  0  0  0  0  0  0  0
   44.4050   31.1330   36.5240 C   0  0  0  0  0  0  0  0  0  0  0  0
   43.4430   31.4180   37.4710 C   0  0  0  0  0  0  0  0  0  0  0  0
   43.6680   32.5360   38.2770 C   0  0  0  0  0  0  0  0  0  0  0  0
   44.7760   33.3080   38.1400 N   0  0  0  0  0  0  0  0  0  0  0  0
   46.3100   31.7660   35.6870 H   0  0  0  0  0  0  0  0  0  0  0  0
   44.2900   30.2770   35.8640 H   0  0  0  0  0  0  0  0  0  0  0  0
   42.5560   30.8260   37.6030 H   0  0  0  0  0  0  0  0  0  0  0  0
   42.6330   32.8470   39.2990 C   0  0  0  0  0  0  0  0  0  0  0  0
   42.9140   32.1280   40.4240 F   0  0  0  0  0  0  0  0  0  0  0  0
   42.7890   34.2010   39.6070 F   0  0  0  0  0  0  0  0  0  0  0  0
   41.3550   32.6620   38.8100 F   0  0  0  0  0  0  0  0  0  0  0  0
  2  1  2  6  0  0  0
  2  5  1  0  0  0  0
  3  2  1  0  0  0  0
  4  3  1  0  0  0  0
  5  8  1  0  0  0  0
  6  9  1  1  0  0  0
  6 15  1  0  0  0  0
  7  6  1  0  0  0  0
  7 10  1  0  0  0  0
  7 11  1  0  0  0  0
  8 12  1  6  0  0  0
  8  7  1  0  0  0  0
  8  6  1  0  0  0  0
 13 19  1  0  0  0  0
 14 20  1  0  0  0  0
 14 13  2  0  0  0  0
 15 14  1  0  0  0  0
 16 15  2  0  0  0  0
 16 17  1  0  0  0  0
 17 18  2  0  0  0  0
 18 13  1  0  0  0  0
 21 17  1  0  0  0  0
 22  2  1  0  0  0  0
 23 22  1  0  0  0  0
 23 28  1  0  0  0  0
 24 25  1  0  0  0  0
 24 23  2  0  0  0  0
 25 26  2  0  0  0  0
 26 31  1  0  0  0  0
 26 27  1  0  0  0  0
 27 32  1  0  0  0  0
 28 27  2  0  0  0  0
 29 24  1  0  0  0  0
 30 25  1  0  0  0  0
 32 34  1  0  0  0  0
 32 33  1  0  0  0  0
 35 32  1  0  0  0  0
M  END
>  <minimizedAffinity>
-4.59544659

>  <minimizedRMSD>
0.587357521

$$$$
