
 OpenBabel03252501053D

 35 37  0  0  1  0  0  0  0  0999 V2000
   48.5770   32.3730   38.0860 O   0  0  0  0  0  0  0  0  0  0  0  0
   48.0930   33.8140   38.2420 P   0  0  2  0  0  0  0  0  0  0  0  0
   49.3230   34.7720   37.5730 O   0  0  0  0  0  0  0  0  0  0  0  0
   50.1870   34.2950   37.4920 H   0  0  0  0  0  0  0  0  0  0  0  0
   47.7060   34.1780   39.7870 O   0  0  0  0  0  0  0  0  0  0  0  0
   48.0720   35.4530   41.8110 C   0  0  1  0  0  0  0  0  0  0  0  0
   49.2980   34.6580   41.6580 C   0  0  0  0  0  0  0  0  0  0  0  0
   48.4500   35.0830   40.4470 C   0  0  1  0  0  0  0  0  0  0  0  0
   48.0430   36.5240   42.0710 H   0  0  0  0  0  0  0  0  0  0  0  0
   49.2820   33.5700   41.7970 H   0  0  0  0  0  0  0  0  0  0  0  0
   50.2400   35.1910   41.8580 H   0  0  0  0  0  0  0  0  0  0  0  0
   49.0060   35.8040   39.8210 H   0  0  0  0  0  0  0  0  0  0  0  0
   46.0310   32.9270   43.7630 C   0  0  0  0  0  0  0  0  0  0  0  0
   47.1280   33.6030   43.2420 C   0  0  0  0  0  0  0  0  0  0  0  0
   46.9070   34.7120   42.4020 C   0  0  0  0  0  0  0  0  0  0  0  0
   45.6290   35.0910   42.1220 N   0  0  0  0  0  0  0  0  0  0  0  0
   44.5760   34.4100   42.6470 C   0  0  0  0  0  0  0  0  0  0  0  0
   44.7750   33.3340   43.4640 N   0  0  0  0  0  0  0  0  0  0  0  0
   46.2050   32.0900   44.3990 H   0  0  0  0  0  0  0  0  0  0  0  0
   48.1070   33.2720   43.4870 H   0  0  0  0  0  0  0  0  0  0  0  0
   43.5630   34.7150   42.4230 H   0  0  0  0  0  0  0  0  0  0  0  0
   46.7560   33.9340   37.2320 O   0  0  0  0  0  0  0  0  0  0  0  0
   45.7160   33.0160   37.2080 C   0  0  0  0  0  0  0  0  0  0  0  0
   45.6310   31.8440   36.4750 C   0  0  0  0  0  0  0  0  0  0  0  0
   44.5320   31.0390   36.5590 C   0  0  0  0  0  0  0  0  0  0  0  0
   43.4770   31.3790   37.3800 C   0  0  0  0  0  0  0  0  0  0  0  0
   43.6030   32.5690   38.1020 C   0  0  0  0  0  0  0  0  0  0  0  0
   44.7050   33.3550   38.0030 N   0  0  0  0  0  0  0  0  0  0  0  0
   46.4990   31.6470   35.8550 H   0  0  0  0  0  0  0  0  0  0  0  0
   44.4980   30.1260   35.9700 H   0  0  0  0  0  0  0  0  0  0  0  0
   42.5930   30.7790   37.4790 H   0  0  0  0  0  0  0  0  0  0  0  0
   42.4680   32.9400   38.9880 C   0  0  0  0  0  0  0  0  0  0  0  0
   41.4070   32.1400   38.6810 F   0  0  0  0  0  0  0  0  0  0  0  0
   42.8750   32.6290   40.2880 F   0  0  0  0  0  0  0  0  0  0  0  0
   42.1960   34.2930   38.9360 F   0  0  0  0  0  0  0  0  0  0  0  0
  2  1  2  6  0  0  0
  2  5  1  0  0  0  0
  3  2  1  0  0  0  0
  4  3  1  0  0  0  0
  5  8  1  0  0  0  0
  6  9  1  1  0  0  0
  6 15  1  0  0  0  0
  7 10  1  0  0  0  0
  7  6  1  0  0  0  0
  7 11  1  0  0  0  0
  8 12  1  6  0  0  0
  8  7  1  0  0  0  0
  8  6  1  0  0  0  0
 13 19  1  0  0  0  0
 14 20  1  0  0  0  0
 14 13  2  0  0  0  0
 15 14  1  0  0  0  0
 16 15  2  0  0  0  0
 16 17  1  0  0  0  0
 17 18  2  0  0  0  0
 18 13  1  0  0  0  0
 21 17  1  0  0  0  0
 22  2  1  0  0  0  0
 23 22  1  0  0  0  0
 23 28  1  0  0  0  0
 24 25  1  0  0  0  0
 24 23  2  0  0  0  0
 25 26  2  0  0  0  0
 26 31  1  0  0  0  0
 26 27  1  0  0  0  0
 27 32  1  0  0  0  0
 28 27  2  0  0  0  0
 29 24  1  0  0  0  0
 30 25  1  0  0  0  0
 32 34  1  0  0  0  0
 33 32  1  0  0  0  0
 35 32  1  0  0  0  0
M  END
>  <minimizedAffinity>
-4.61506462

>  <minimizedRMSD>
0.669375598

$$$$
