
 OpenBabel03252509143D

 40 43  0  0  1  0  0  0  0  0999 V2000
   47.5050   32.7370   43.7820 C   0  0  0  0  0  0  0  0  0  0  0  0
   46.6950   33.4980   42.9430 C   0  0  0  0  0  0  0  0  0  0  0  0
   45.6130   34.2250   43.3960 C   0  0  0  0  0  0  0  0  0  0  0  0
   45.3010   34.2060   44.7650 C   0  0  0  0  0  0  0  0  0  0  0  0
   44.3630   34.7660   45.5390 N   0  0  0  0  0  0  0  0  0  0  0  0
   44.5470   34.3920   46.8200 C   0  0  0  0  0  0  0  0  0  0  0  0
   45.6190   33.5900   46.8110 N   0  0  0  0  0  0  0  0  0  0  0  0
   46.1130   33.4500   45.5670 C   0  0  0  0  0  0  0  0  0  0  0  0
   47.2090   32.7060   45.1450 C   0  0  0  0  0  0  0  0  0  0  0  0
   48.3540   32.1720   43.3970 H   0  0  0  0  0  0  0  0  0  0  0  0
   43.6290   35.3860   45.1530 H   0  0  0  0  0  0  0  0  0  0  0  0
   43.9440   34.6820   47.6930 H   0  0  0  0  0  0  0  0  0  0  0  0
   47.8120   32.1290   45.8300 H   0  0  0  0  0  0  0  0  0  0  0  0
   46.8110   32.5710   39.3970 C   0  0  0  0  0  0  0  0  0  0  0  0
   47.5910   33.5890   38.8370 C   0  0  0  0  0  0  0  0  0  0  0  0
   48.0730   34.5880   39.6840 C   0  0  0  0  0  0  0  0  0  0  0  0
   47.7660   34.5350   41.0170 N   0  0  0  0  0  0  0  0  0  0  0  0
   47.0050   33.5280   41.5180 C   0  0  0  0  0  0  0  0  0  0  0  0
   46.5080   32.5240   40.7300 N   0  0  0  0  0  0  0  0  0  0  0  0
   46.4260   31.7860   38.7670 H   0  0  0  0  0  0  0  0  0  0  0  0
   47.8150   33.6040   37.7870 H   0  0  0  0  0  0  0  0  0  0  0  0
   48.6740   35.3980   39.3350 H   0  0  0  0  0  0  0  0  0  0  0  0
   44.5950   35.1870   42.3080 S   0  0  0  0  0  0  0  0  0  0  0  0
   42.0300   34.8610   41.8340 N   0  0  0  0  0  0  0  0  0  0  0  0
   43.2940   34.2420   41.4980 C   0  0  1  0  0  0  0  0  0  0  0  0
   43.5700   34.3440   39.9970 C   0  0  0  0  0  0  0  0  0  0  0  0
   42.4640   34.0750   39.2130 O   0  0  0  0  0  0  0  0  0  0  0  0
   41.3780   33.5440   39.8780 C   0  0  0  0  0  0  0  0  0  0  0  0
   40.9630   34.4980   40.9570 C   0  0  2  0  0  0  0  0  0  0  0  0
   41.7820   34.5260   42.8070 H   0  0  0  0  0  0  0  0  0  0  0  0
   43.3250   33.1730   41.7950 H   0  0  0  0  0  0  0  0  0  0  0  0
   43.8270   35.4130   39.8140 H   0  0  0  0  0  0  0  0  0  0  0  0
   44.3220   33.6330   39.6790 H   0  0  0  0  0  0  0  0  0  0  0  0
   41.6300   32.5820   40.3630 H   0  0  0  0  0  0  0  0  0  0  0  0
   40.5680   33.4380   39.1590 H   0  0  0  0  0  0  0  0  0  0  0  0
   40.1160   34.0200   41.5100 H   0  0  0  0  0  0  0  0  0  0  0  0
   40.3520   35.7720   40.3710 C   0  0  0  0  0  0  0  0  0  0  0  0
   39.0180   35.5450   40.0970 F   0  0  0  0  0  0  0  0  0  0  0  0
   40.5050   36.8220   41.2540 F   0  0  0  0  0  0  0  0  0  0  0  0
   40.9470   36.0710   39.1460 F   0  0  0  0  0  0  0  0  0  0  0  0
  1  9  1  0  0  0  0
  2  3  1  0  0  0  0
  2  1  2  0  0  0  0
  3  4  2  0  0  0  0
  4  5  1  0  0  0  0
  4  8  1  0  0  0  0
  5  6  1  0  0  0  0
  6 12  1  0  0  0  0
  7  6  2  0  0  0  0
  8  7  1  0  0  0  0
  9  8  2  0  0  0  0
  9 13  1  0  0  0  0
 10  1  1  0  0  0  0
 11  5  1  0  0  0  0
 14 19  1  0  0  0  0
 15 14  2  0  0  0  0
 15 16  1  0  0  0  0
 16 17  2  0  0  0  0
 17 18  1  0  0  0  0
 18  2  1  0  0  0  0
 19 18  2  0  0  0  0
 20 14  1  0  0  0  0
 21 15  1  0  0  0  0
 22 16  1  0  0  0  0
 23  3  1  0  0  0  0
 24 30  1  0  0  0  0
 25 31  1  1  0  0  0
 25 24  1  0  0  0  0
 25 23  1  0  0  0  0
 26 25  1  0  0  0  0
 27 28  1  0  0  0  0
 27 26  1  0  0  0  0
 28 34  1  0  0  0  0
 28 29  1  0  0  0  0
 29 36  1  1  0  0  0
 29 24  1  0  0  0  0
 32 26  1  0  0  0  0
 33 26  1  0  0  0  0
 35 28  1  0  0  0  0
 37 29  1  0  0  0  0
 37 39  1  0  0  0  0
 38 37  1  0  0  0  0
 40 37  1  0  0  0  0
M  END
>  <minimizedAffinity>
-6.3125329

>  <minimizedRMSD>
1.1516211

$$$$
