
 OpenBabel03242516123D

 34 36  0  0  0  0  0  0  0  0999 V2000
   37.8720   28.0770   42.4070 C   0  0  0  0  0  0  0  0  0  0  0  0
   37.0830   27.9230   43.6790 C   0  0  0  0  0  0  0  0  0  0  0  0
   36.5610   27.4390   42.4010 C   0  0  0  0  0  0  0  0  0  0  0  0
   37.4600   27.2760   44.4990 H   0  0  0  0  0  0  0  0  0  0  0  0
   36.7010   28.8940   44.1000 H   0  0  0  0  0  0  0  0  0  0  0  0
   35.6200   27.9390   42.0550 H   0  0  0  0  0  0  0  0  0  0  0  0
   36.5080   26.3470   42.2230 H   0  0  0  0  0  0  0  0  0  0  0  0
   39.0780   27.1800   42.3010 C   0  0  0  0  0  0  0  0  0  0  0  0
   38.7830   25.7850   41.8070 C   0  0  0  0  0  0  0  0  0  0  0  0
   40.1490   25.1050   41.6620 C   0  0  0  0  0  0  0  0  0  0  0  0
   40.5970   24.8240   42.9470 O   0  0  0  0  0  0  0  0  0  0  0  0
   40.9470   26.0730   43.4870 C   0  0  0  0  0  0  0  0  0  0  0  0
   39.6970   26.9180   43.6790 C   0  0  0  0  0  0  0  0  0  0  0  0
   39.8610   27.5890   41.6560 H   0  0  0  0  0  0  0  0  0  0  0  0
   38.4240   25.8930   40.7550 H   0  0  0  0  0  0  0  0  0  0  0  0
   38.0990   25.2050   42.4480 H   0  0  0  0  0  0  0  0  0  0  0  0
   40.8110   25.8780   41.1920 H   0  0  0  0  0  0  0  0  0  0  0  0
   40.1150   24.2010   41.0540 H   0  0  0  0  0  0  0  0  0  0  0  0
   41.6700   26.5950   42.8480 H   0  0  0  0  0  0  0  0  0  0  0  0
   41.3240   25.9000   44.5370 H   0  0  0  0  0  0  0  0  0  0  0  0
   38.9460   26.2920   44.2150 H   0  0  0  0  0  0  0  0  0  0  0  0
   39.9580   27.8290   44.2140 H   0  0  0  0  0  0  0  0  0  0  0  0
   36.9580   30.0070   41.1290 C   0  0  0  0  0  0  0  0  0  0  0  0
   38.0180   29.4700   41.8450 C   0  0  0  0  0  0  0  0  0  0  0  0
   39.2130   30.2380   42.0500 C   0  0  0  0  0  0  0  0  0  0  0  0
   39.2320   31.4940   41.5110 N   0  0  0  0  0  0  0  0  0  0  0  0
   38.1700   31.9660   40.8240 C   0  0  0  0  0  0  0  0  0  0  0  0
   37.0550   31.2660   40.6230 N   0  0  0  0  0  0  0  0  0  0  0  0
   36.0710   29.4090   40.9880 H   0  0  0  0  0  0  0  0  0  0  0  0
   39.9930   29.7780   42.6030 H   0  0  0  0  0  0  0  0  0  0  0  0
   38.2620   33.3480   40.2650 C   0  0  0  0  0  0  0  0  0  0  0  0
   38.8580   34.1610   41.1830 F   0  0  0  0  0  0  0  0  0  0  0  0
   37.0560   33.8210   39.8030 F   0  0  0  0  0  0  0  0  0  0  0  0
   39.1160   33.3120   39.1550 F   0  0  0  0  0  0  0  0  0  0  0  0
  1  2  1  0  0  0  0
  2  5  1  0  0  0  0
  2  4  1  0  0  0  0
  3  1  1  0  0  0  0
  3  2  1  0  0  0  0
  6  3  1  0  0  0  0
  7  3  1  0  0  0  0
  8  1  1  0  0  0  0
  8 13  1  0  0  0  0
  9  8  1  0  0  0  0
  9 16  1  0  0  0  0
 10  9  1  0  0  0  0
 10 11  1  0  0  0  0
 11 12  1  0  0  0  0
 12 13  1  0  0  0  0
 12 20  1  0  0  0  0
 13 22  1  0  0  0  0
 13 21  1  0  0  0  0
 14  8  1  0  0  0  0
 15  9  1  0  0  0  0
 17 10  1  0  0  0  0
 18 10  1  0  0  0  0
 19 12  1  0  0  0  0
 23 24  1  0  0  0  0
 24 25  2  0  0  0  0
 24  1  1  0  0  0  0
 25 30  1  0  0  0  0
 26 25  1  0  0  0  0
 27 26  2  0  0  0  0
 28 27  1  0  0  0  0
 28 23  2  0  0  0  0
 29 23  1  0  0  0  0
 31 27  1  0  0  0  0
 31 32  1  0  0  0  0
 33 31  1  0  0  0  0
 34 31  1  0  0  0  0
M  END
>  <minimizedAffinity>
-5.37283039

$$$$

 OpenBabel03242516123D

 34 36  0  0  0  0  0  0  0  0999 V2000
   37.4960   27.7420   42.2150 C   0  0  0  0  0  0  0  0  0  0  0  0
   38.2220   27.6770   43.5320 C   0  0  0  0  0  0  0  0  0  0  0  0
   36.7610   27.7330   43.4740 C   0  0  0  0  0  0  0  0  0  0  0  0
   38.8130   26.7780   43.8030 H   0  0  0  0  0  0  0  0  0  0  0  0
   38.8010   28.6090   43.7810 H   0  0  0  0  0  0  0  0  0  0  0  0
   36.3040   28.6430   43.9420 H   0  0  0  0  0  0  0  0  0  0  0  0
   36.1790   26.8270   43.7370 H   0  0  0  0  0  0  0  0  0  0  0  0
   37.5200   26.4630   41.4190 C   0  0  0  0  0  0  0  0  0  0  0  0
   36.7010   26.4960   40.1520 C   0  0  0  0  0  0  0  0  0  0  0  0
   36.9710   25.1570   39.4560 C   0  0  0  0  0  0  0  0  0  0  0  0
   36.2820   24.1860   40.1720 O   0  0  0  0  0  0  0  0  0  0  0  0
   37.0030   24.0430   41.3700 C   0  0  0  0  0  0  0  0  0  0  0  0
   36.8740   25.3120   42.1990 C   0  0  0  0  0  0  0  0  0  0  0  0
   38.5300   26.1510   41.1400 H   0  0  0  0  0  0  0  0  0  0  0  0
   37.1860   27.2480   39.4840 H   0  0  0  0  0  0  0  0  0  0  0  0
   35.6240   26.6720   40.3050 H   0  0  0  0  0  0  0  0  0  0  0  0
   38.0760   24.9910   39.5610 H   0  0  0  0  0  0  0  0  0  0  0  0
   36.6760   25.1520   38.4070 H   0  0  0  0  0  0  0  0  0  0  0  0
   38.0570   23.8150   41.1770 H   0  0  0  0  0  0  0  0  0  0  0  0
   36.4830   23.2570   41.9920 H   0  0  0  0  0  0  0  0  0  0  0  0
   35.7920   25.5740   42.2500 H   0  0  0  0  0  0  0  0  0  0  0  0
   37.3240   25.1490   43.1770 H   0  0  0  0  0  0  0  0  0  0  0  0
   36.5350   29.9150   41.4760 C   0  0  0  0  0  0  0  0  0  0  0  0
   37.5990   29.0260   41.4290 C   0  0  0  0  0  0  0  0  0  0  0  0
   38.7680   29.3400   40.6600 C   0  0  0  0  0  0  0  0  0  0  0  0
   38.7620   30.5370   39.9980 N   0  0  0  0  0  0  0  0  0  0  0  0
   37.6980   31.3640   40.0810 C   0  0  0  0  0  0  0  0  0  0  0  0
   36.6050   31.0880   40.7890 N   0  0  0  0  0  0  0  0  0  0  0  0
   35.6660   29.6550   42.0610 H   0  0  0  0  0  0  0  0  0  0  0  0
   39.5520   28.6240   40.6580 H   0  0  0  0  0  0  0  0  0  0  0  0
   37.7620   32.6560   39.3340 C   0  0  0  0  0  0  0  0  0  0  0  0
   39.0670   32.9570   39.0750 F   0  0  0  0  0  0  0  0  0  0  0  0
   37.0710   33.6700   39.9550 F   0  0  0  0  0  0  0  0  0  0  0  0
   37.1450   32.4700   38.0900 F   0  0  0  0  0  0  0  0  0  0  0  0
  1  3  1  0  0  0  0
  1  2  1  0  0  0  0
  2  5  1  0  0  0  0
  2  4  1  0  0  0  0
  3  2  1  0  0  0  0
  3  7  1  0  0  0  0
  3  6  1  0  0  0  0
  8 13  1  0  0  0  0
  8  1  1  0  0  0  0
  9 16  1  0  0  0  0
  9  8  1  0  0  0  0
 10 17  1  0  0  0  0
 10  9  1  0  0  0  0
 10 11  1  0  0  0  0
 11 12  1  0  0  0  0
 12 20  1  0  0  0  0
 12 13  1  0  0  0  0
 13 21  1  0  0  0  0
 13 22  1  0  0  0  0
 14  8  1  0  0  0  0
 15  9  1  0  0  0  0
 18 10  1  0  0  0  0
 19 12  1  0  0  0  0
 23 29  1  0  0  0  0
 24 23  1  0  0  0  0
 24  1  1  0  0  0  0
 25 24  2  0  0  0  0
 26 27  2  0  0  0  0
 26 25  1  0  0  0  0
 27 28  1  0  0  0  0
 28 23  2  0  0  0  0
 30 25  1  0  0  0  0
 31 33  1  0  0  0  0
 31 27  1  0  0  0  0
 32 31  1  0  0  0  0
 34 31  1  0  0  0  0
M  END
>  <minimizedAffinity>
-5.33045673

$$$$

 OpenBabel03242516123D

 34 36  0  0  0  0  0  0  0  0999 V2000
   37.3360   27.7030   42.2690 C   0  0  0  0  0  0  0  0  0  0  0  0
   37.8210   27.4570   43.6730 C   0  0  0  0  0  0  0  0  0  0  0  0
   36.3920   27.5300   43.3670 C   0  0  0  0  0  0  0  0  0  0  0  0
   38.3710   26.5270   43.9220 H   0  0  0  0  0  0  0  0  0  0  0  0
   38.3310   28.3440   44.1420 H   0  0  0  0  0  0  0  0  0  0  0  0
   35.8440   28.3710   43.8630 H   0  0  0  0  0  0  0  0  0  0  0  0
   35.7890   26.6000   43.4000 H   0  0  0  0  0  0  0  0  0  0  0  0
   37.5220   26.5420   41.3270 C   0  0  0  0  0  0  0  0  0  0  0  0
   38.8830   26.4670   40.6820 C   0  0  0  0  0  0  0  0  0  0  0  0
   38.8850   25.1630   39.8780 C   0  0  0  0  0  0  0  0  0  0  0  0
   38.0900   25.3800   38.7580 O   0  0  0  0  0  0  0  0  0  0  0  0
   36.7750   25.4200   39.2520 C   0  0  0  0  0  0  0  0  0  0  0  0
   36.5890   26.6580   40.1150 C   0  0  0  0  0  0  0  0  0  0  0  0
   37.3370   25.5730   41.7990 H   0  0  0  0  0  0  0  0  0  0  0  0
   39.6120   26.2750   41.5060 H   0  0  0  0  0  0  0  0  0  0  0  0
   39.1450   27.3380   40.0580 H   0  0  0  0  0  0  0  0  0  0  0  0
   38.3940   24.4080   40.5470 H   0  0  0  0  0  0  0  0  0  0  0  0
   39.8840   24.8370   39.5910 H   0  0  0  0  0  0  0  0  0  0  0  0
   36.5350   24.5130   39.8200 H   0  0  0  0  0  0  0  0  0  0  0  0
   36.0850   25.5920   38.3750 H   0  0  0  0  0  0  0  0  0  0  0  0
   36.9740   27.5310   39.5410 H   0  0  0  0  0  0  0  0  0  0  0  0
   35.5390   26.7500   40.3880 H   0  0  0  0  0  0  0  0  0  0  0  0
   36.4390   29.8480   41.3820 C   0  0  0  0  0  0  0  0  0  0  0  0
   37.5520   29.0810   41.6920 C   0  0  0  0  0  0  0  0  0  0  0  0
   38.8710   29.6030   41.4770 C   0  0  0  0  0  0  0  0  0  0  0  0
   38.9520   30.8670   40.9640 N   0  0  0  0  0  0  0  0  0  0  0  0
   37.8340   31.5690   40.6810 C   0  0  0  0  0  0  0  0  0  0  0  0
   36.6030   31.1000   40.8740 N   0  0  0  0  0  0  0  0  0  0  0  0
   35.4570   29.4320   41.5520 H   0  0  0  0  0  0  0  0  0  0  0  0
   39.6870   28.9730   41.7300 H   0  0  0  0  0  0  0  0  0  0  0  0
   37.9990   32.9450   40.1260 C   0  0  0  0  0  0  0  0  0  0  0  0
   38.4660   33.7700   41.1060 F   0  0  0  0  0  0  0  0  0  0  0  0
   36.8660   33.4110   39.5000 F   0  0  0  0  0  0  0  0  0  0  0  0
   38.9950   32.9000   39.1400 F   0  0  0  0  0  0  0  0  0  0  0  0
  1  3  1  0  0  0  0
  1  2  1  0  0  0  0
  2  4  1  0  0  0  0
  2  5  1  0  0  0  0
  3  7  1  0  0  0  0
  3  2  1  0  0  0  0
  3  6  1  0  0  0  0
  8 14  1  0  0  0  0
  8  1  1  0  0  0  0
  9  8  1  0  0  0  0
  9 15  1  0  0  0  0
 10 17  1  0  0  0  0
 10  9  1  0  0  0  0
 11 12  1  0  0  0  0
 11 10  1  0  0  0  0
 12 19  1  0  0  0  0
 12 13  1  0  0  0  0
 13 22  1  0  0  0  0
 13  8  1  0  0  0  0
 16  9  1  0  0  0  0
 18 10  1  0  0  0  0
 20 12  1  0  0  0  0
 21 13  1  0  0  0  0
 23 29  1  0  0  0  0
 23 24  1  0  0  0  0
 24  1  1  0  0  0  0
 25 24  2  0  0  0  0
 25 30  1  0  0  0  0
 26 25  1  0  0  0  0
 27 28  1  0  0  0  0
 27 26  2  0  0  0  0
 28 23  2  0  0  0  0
 31 27  1  0  0  0  0
 31 32  1  0  0  0  0
 33 31  1  0  0  0  0
 34 31  1  0  0  0  0
M  END
>  <minimizedAffinity>
-4.99234629

$$$$

 OpenBabel03242516123D

 34 36  0  0  0  0  0  0  0  0999 V2000
   37.4920   30.3170   38.5190 C   0  0  0  0  0  0  0  0  0  0  0  0
   37.8430   29.7380   37.1750 C   0  0  0  0  0  0  0  0  0  0  0  0
   36.4920   30.2220   37.4620 C   0  0  0  0  0  0  0  0  0  0  0  0
   38.5750   30.2510   36.5170 H   0  0  0  0  0  0  0  0  0  0  0  0
   38.0500   28.6330   37.1930 H   0  0  0  0  0  0  0  0  0  0  0  0
   35.6910   29.4390   37.4230 H   0  0  0  0  0  0  0  0  0  0  0  0
   36.1440   31.1570   36.9810 H   0  0  0  0  0  0  0  0  0  0  0  0
   38.0810   31.6770   38.7930 C   0  0  0  0  0  0  0  0  0  0  0  0
   39.1980   31.6850   39.8070 C   0  0  0  0  0  0  0  0  0  0  0  0
   39.7180   33.1260   39.8310 C   0  0  0  0  0  0  0  0  0  0  0  0
   38.7670   33.8850   40.5030 O   0  0  0  0  0  0  0  0  0  0  0  0
   37.6860   33.9790   39.6100 C   0  0  0  0  0  0  0  0  0  0  0  0
   37.0470   32.6100   39.4340 C   0  0  0  0  0  0  0  0  0  0  0  0
   38.4610   32.1680   37.8930 H   0  0  0  0  0  0  0  0  0  0  0  0
   40.0380   31.1040   39.3550 H   0  0  0  0  0  0  0  0  0  0  0  0
   38.9100   31.3320   40.8110 H   0  0  0  0  0  0  0  0  0  0  0  0
   39.7590   33.4390   38.7550 H   0  0  0  0  0  0  0  0  0  0  0  0
   40.6960   33.2210   40.3010 H   0  0  0  0  0  0  0  0  0  0  0  0
   38.0020   34.3840   38.6420 H   0  0  0  0  0  0  0  0  0  0  0  0
   36.8810   34.5940   40.1090 H   0  0  0  0  0  0  0  0  0  0  0  0
   36.8710   32.1860   40.4500 H   0  0  0  0  0  0  0  0  0  0  0  0
   36.1360   32.7110   38.8460 H   0  0  0  0  0  0  0  0  0  0  0  0
   36.2920   29.3850   40.4900 C   0  0  0  0  0  0  0  0  0  0  0  0
   37.4240   29.3640   39.6880 C   0  0  0  0  0  0  0  0  0  0  0  0
   38.4890   28.4460   39.9660 C   0  0  0  0  0  0  0  0  0  0  0  0
   38.3170   27.6170   41.0410 N   0  0  0  0  0  0  0  0  0  0  0  0
   37.1940   27.6800   41.7860 C   0  0  0  0  0  0  0  0  0  0  0  0
   36.1970   28.5270   41.5430 N   0  0  0  0  0  0  0  0  0  0  0  0
   35.5040   30.0860   40.2610 H   0  0  0  0  0  0  0  0  0  0  0  0
   39.3320   28.4740   39.3220 H   0  0  0  0  0  0  0  0  0  0  0  0
   37.0740   26.7430   42.9430 C   0  0  0  0  0  0  0  0  0  0  0  0
   35.9780   27.0810   43.6800 F   0  0  0  0  0  0  0  0  0  0  0  0
   38.2320   26.6480   43.6790 F   0  0  0  0  0  0  0  0  0  0  0  0
   36.8290   25.4580   42.4380 F   0  0  0  0  0  0  0  0  0  0  0  0
  1  8  1  0  0  0  0
  1 24  1  0  0  0  0
  2  5  1  0  0  0  0
  2  3  1  0  0  0  0
  2  1  1  0  0  0  0
  3  1  1  0  0  0  0
  4  2  1  0  0  0  0
  6  3  1  0  0  0  0
  7  3  1  0  0  0  0
  8 13  1  0  0  0  0
  8  9  1  0  0  0  0
  9 10  1  0  0  0  0
  9 16  1  0  0  0  0
 10 18  1  0  0  0  0
 10 11  1  0  0  0  0
 12 20  1  0  0  0  0
 12 11  1  0  0  0  0
 13 12  1  0  0  0  0
 13 21  1  0  0  0  0
 14  8  1  0  0  0  0
 15  9  1  0  0  0  0
 17 10  1  0  0  0  0
 19 12  1  0  0  0  0
 22 13  1  0  0  0  0
 23 28  1  0  0  0  0
 24 25  1  0  0  0  0
 24 23  2  0  0  0  0
 25 26  2  0  0  0  0
 26 27  1  0  0  0  0
 27 31  1  0  0  0  0
 28 27  2  0  0  0  0
 29 23  1  0  0  0  0
 30 25  1  0  0  0  0
 31 33  1  0  0  0  0
 31 32  1  0  0  0  0
 34 31  1  0  0  0  0
M  END
>  <minimizedAffinity>
-4.99131298

$$$$

 OpenBabel03242516123D

 34 36  0  0  0  0  0  0  0  0999 V2000
   38.3960   31.3580   39.2270 C   0  0  0  0  0  0  0  0  0  0  0  0
   37.9880   31.1950   37.7870 C   0  0  0  0  0  0  0  0  0  0  0  0
   37.2960   32.1360   38.6680 C   0  0  0  0  0  0  0  0  0  0  0  0
   38.6840   31.4810   36.9710 H   0  0  0  0  0  0  0  0  0  0  0  0
   37.5120   30.2020   37.5560 H   0  0  0  0  0  0  0  0  0  0  0  0
   36.2130   31.9100   38.8440 H   0  0  0  0  0  0  0  0  0  0  0  0
   37.4470   33.2230   38.5150 H   0  0  0  0  0  0  0  0  0  0  0  0
   39.7090   32.0650   39.4340 C   0  0  0  0  0  0  0  0  0  0  0  0
   40.5990   31.4460   40.4830 C   0  0  0  0  0  0  0  0  0  0  0  0
   41.9070   32.2420   40.4330 C   0  0  0  0  0  0  0  0  0  0  0  0
   41.6500   33.4750   41.0210 O   0  0  0  0  0  0  0  0  0  0  0  0
   40.8530   34.1600   40.0880 C   0  0  0  0  0  0  0  0  0  0  0  0
   39.4960   33.4820   39.9780 C   0  0  0  0  0  0  0  0  0  0  0  0
   40.3010   32.1450   38.5180 H   0  0  0  0  0  0  0  0  0  0  0  0
   40.8850   30.4370   40.0970 H   0  0  0  0  0  0  0  0  0  0  0  0
   40.1670   31.4230   41.4970 H   0  0  0  0  0  0  0  0  0  0  0  0
   42.1210   32.3830   39.3410 H   0  0  0  0  0  0  0  0  0  0  0  0
   42.7360   31.7380   40.9290 H   0  0  0  0  0  0  0  0  0  0  0  0
   41.3410   34.2080   39.1070 H   0  0  0  0  0  0  0  0  0  0  0  0
   40.6170   35.1770   40.5190 H   0  0  0  0  0  0  0  0  0  0  0  0
   39.1070   33.3360   41.0120 H   0  0  0  0  0  0  0  0  0  0  0  0
   38.8420   34.0890   39.3530 H   0  0  0  0  0  0  0  0  0  0  0  0
   37.3210   30.4780   41.2920 C   0  0  0  0  0  0  0  0  0  0  0  0
   38.0890   30.2170   40.1670 C   0  0  0  0  0  0  0  0  0  0  0  0
   38.5630   28.8880   39.9090 C   0  0  0  0  0  0  0  0  0  0  0  0
   38.2140   27.9270   40.8190 N   0  0  0  0  0  0  0  0  0  0  0  0
   37.4630   28.2390   41.8960 C   0  0  0  0  0  0  0  0  0  0  0  0
   37.0170   29.4670   42.1510 N   0  0  0  0  0  0  0  0  0  0  0  0
   36.9780   31.4870   41.4650 H   0  0  0  0  0  0  0  0  0  0  0  0
   39.1480   28.7440   39.0350 H   0  0  0  0  0  0  0  0  0  0  0  0
   37.1190   27.1380   42.8450 C   0  0  0  0  0  0  0  0  0  0  0  0
   36.9350   25.9850   42.1420 F   0  0  0  0  0  0  0  0  0  0  0  0
   36.0720   27.4560   43.6780 F   0  0  0  0  0  0  0  0  0  0  0  0
   38.2260   26.9210   43.6780 F   0  0  0  0  0  0  0  0  0  0  0  0
  1  8  1  0  0  0  0
  1 24  1  0  0  0  0
  2  3  1  0  0  0  0
  2  1  1  0  0  0  0
  3  6  1  0  0  0  0
  3  1  1  0  0  0  0
  4  2  1  0  0  0  0
  5  2  1  0  0  0  0
  7  3  1  0  0  0  0
  8 13  1  0  0  0  0
  8  9  1  0  0  0  0
  9 16  1  0  0  0  0
 10  9  1  0  0  0  0
 10 18  1  0  0  0  0
 10 11  1  0  0  0  0
 12 20  1  0  0  0  0
 12 11  1  0  0  0  0
 13 12  1  0  0  0  0
 13 21  1  0  0  0  0
 14  8  1  0  0  0  0
 15  9  1  0  0  0  0
 17 10  1  0  0  0  0
 19 12  1  0  0  0  0
 22 13  1  0  0  0  0
 23 29  1  0  0  0  0
 23 28  1  0  0  0  0
 24 23  2  0  0  0  0
 25 24  1  0  0  0  0
 25 26  2  0  0  0  0
 26 27  1  0  0  0  0
 27 28  2  0  0  0  0
 27 31  1  0  0  0  0
 30 25  1  0  0  0  0
 31 33  1  0  0  0  0
 31 34  1  0  0  0  0
 32 31  1  0  0  0  0
M  END
>  <minimizedAffinity>
-4.91348839

$$$$

 OpenBabel03242516123D

 34 36  0  0  0  0  0  0  0  0999 V2000
   36.8060   29.5160   40.1600 C   0  0  0  0  0  0  0  0  0  0  0  0
   35.9590   29.3580   38.9260 C   0  0  0  0  0  0  0  0  0  0  0  0
   35.3770   29.8010   40.1930 C   0  0  0  0  0  0  0  0  0  0  0  0
   36.1280   30.0080   38.0420 H   0  0  0  0  0  0  0  0  0  0  0  0
   35.8240   28.2900   38.5980 H   0  0  0  0  0  0  0  0  0  0  0  0
   34.6080   29.1110   40.6260 H   0  0  0  0  0  0  0  0  0  0  0  0
   35.0520   30.8560   40.2940 H   0  0  0  0  0  0  0  0  0  0  0  0
   37.7460   30.6940   40.1330 C   0  0  0  0  0  0  0  0  0  0  0  0
   38.6300   30.8210   41.3490 C   0  0  0  0  0  0  0  0  0  0  0  0
   39.5710   31.9920   41.0500 C   0  0  0  0  0  0  0  0  0  0  0  0
   38.8170   33.1540   41.1690 O   0  0  0  0  0  0  0  0  0  0  0  0
   37.9790   33.1560   40.0400 C   0  0  0  0  0  0  0  0  0  0  0  0
   36.9740   32.0190   40.1470 C   0  0  0  0  0  0  0  0  0  0  0  0
   38.4010   30.6980   39.2580 H   0  0  0  0  0  0  0  0  0  0  0  0
   39.3020   29.9290   41.3440 H   0  0  0  0  0  0  0  0  0  0  0  0
   38.0880   30.9570   42.2990 H   0  0  0  0  0  0  0  0  0  0  0  0
   39.8820   31.8520   39.9810 H   0  0  0  0  0  0  0  0  0  0  0  0
   40.4400   32.0230   41.7060 H   0  0  0  0  0  0  0  0  0  0  0  0
   38.5590   33.0730   39.1130 H   0  0  0  0  0  0  0  0  0  0  0  0
   37.3430   34.0880   40.0870 H   0  0  0  0  0  0  0  0  0  0  0  0
   36.5130   32.0700   41.1600 H   0  0  0  0  0  0  0  0  0  0  0  0
   36.2500   32.1030   39.3380 H   0  0  0  0  0  0  0  0  0  0  0  0
   38.3680   27.5790   40.2000 C   0  0  0  0  0  0  0  0  0  0  0  0
   37.3230   28.2570   40.8120 C   0  0  0  0  0  0  0  0  0  0  0  0
   36.7680   27.7690   42.0410 C   0  0  0  0  0  0  0  0  0  0  0  0
   37.3220   26.6280   42.5520 N   0  0  0  0  0  0  0  0  0  0  0  0
   38.3380   26.0100   41.9140 C   0  0  0  0  0  0  0  0  0  0  0  0
   38.8650   26.4480   40.7720 N   0  0  0  0  0  0  0  0  0  0  0  0
   38.7680   27.9660   39.2750 H   0  0  0  0  0  0  0  0  0  0  0  0
   35.9700   28.3250   42.4650 H   0  0  0  0  0  0  0  0  0  0  0  0
   38.8960   24.7700   42.5320 C   0  0  0  0  0  0  0  0  0  0  0  0
   37.8900   23.8630   42.6960 F   0  0  0  0  0  0  0  0  0  0  0  0
   39.6150   25.0170   43.6780 F   0  0  0  0  0  0  0  0  0  0  0  0
   39.7970   24.1980   41.6230 F   0  0  0  0  0  0  0  0  0  0  0  0
  1  3  1  0  0  0  0
  1 24  1  0  0  0  0
  2  1  1  0  0  0  0
  2  3  1  0  0  0  0
  3  7  1  0  0  0  0
  3  6  1  0  0  0  0
  4  2  1  0  0  0  0
  5  2  1  0  0  0  0
  8 13  1  0  0  0  0
  8  1  1  0  0  0  0
  8  9  1  0  0  0  0
  9 16  1  0  0  0  0
 10 11  1  0  0  0  0
 10  9  1  0  0  0  0
 10 18  1  0  0  0  0
 12 20  1  0  0  0  0
 12 13  1  0  0  0  0
 12 11  1  0  0  0  0
 13 21  1  0  0  0  0
 14  8  1  0  0  0  0
 15  9  1  0  0  0  0
 17 10  1  0  0  0  0
 19 12  1  0  0  0  0
 22 13  1  0  0  0  0
 23 28  2  0  0  0  0
 23 24  1  0  0  0  0
 24 25  2  0  0  0  0
 25 30  1  0  0  0  0
 25 26  1  0  0  0  0
 27 31  1  0  0  0  0
 27 26  2  0  0  0  0
 28 27  1  0  0  0  0
 29 23  1  0  0  0  0
 31 32  1  0  0  0  0
 31 33  1  0  0  0  0
 34 31  1  0  0  0  0
M  END
>  <minimizedAffinity>
-4.84373951

$$$$

 OpenBabel03242516123D

 34 36  0  0  0  0  0  0  0  0999 V2000
   37.5610   27.3690   42.2920 C   0  0  0  0  0  0  0  0  0  0  0  0
   37.8860   27.8540   43.6800 C   0  0  0  0  0  0  0  0  0  0  0  0
   36.5410   27.3940   43.3330 C   0  0  0  0  0  0  0  0  0  0  0  0
   38.6050   27.2950   44.3150 H   0  0  0  0  0  0  0  0  0  0  0  0
   38.0940   28.9580   43.7420 H   0  0  0  0  0  0  0  0  0  0  0  0
   35.7400   28.1740   43.4110 H   0  0  0  0  0  0  0  0  0  0  0  0
   36.1830   26.4280   43.7420 H   0  0  0  0  0  0  0  0  0  0  0  0
   38.1540   26.0310   41.9360 C   0  0  0  0  0  0  0  0  0  0  0  0
   38.9610   26.0200   40.6620 C   0  0  0  0  0  0  0  0  0  0  0  0
   39.5610   24.6130   40.5690 C   0  0  0  0  0  0  0  0  0  0  0  0
   38.5240   23.7570   40.2150 O   0  0  0  0  0  0  0  0  0  0  0  0
   37.7270   23.6610   41.3680 C   0  0  0  0  0  0  0  0  0  0  0  0
   37.0590   25.0000   41.6420 C   0  0  0  0  0  0  0  0  0  0  0  0
   38.7940   25.6230   42.7240 H   0  0  0  0  0  0  0  0  0  0  0  0
   39.8460   26.6770   40.8440 H   0  0  0  0  0  0  0  0  0  0  0  0
   38.3940   26.2880   39.7560 H   0  0  0  0  0  0  0  0  0  0  0  0
   39.9080   24.3740   41.6090 H   0  0  0  0  0  0  0  0  0  0  0  0
   40.3840   24.5430   39.8590 H   0  0  0  0  0  0  0  0  0  0  0  0
   38.3170   23.3390   42.2350 H   0  0  0  0  0  0  0  0  0  0  0  0
   36.8660   22.9690   41.1340 H   0  0  0  0  0  0  0  0  0  0  0  0
   36.5900   25.3440   40.6920 H   0  0  0  0  0  0  0  0  0  0  0  0
   36.3460   24.8850   42.4570 H   0  0  0  0  0  0  0  0  0  0  0  0
   38.5870   29.2740   41.0620 C   0  0  0  0  0  0  0  0  0  0  0  0
   37.5170   28.4010   41.1910 C   0  0  0  0  0  0  0  0  0  0  0  0
   36.4090   28.4780   40.2830 C   0  0  0  0  0  0  0  0  0  0  0  0
   36.4790   29.4400   39.3130 N   0  0  0  0  0  0  0  0  0  0  0  0
   37.5460   30.2630   39.2350 C   0  0  0  0  0  0  0  0  0  0  0  0
   38.5820   30.2060   40.0700 N   0  0  0  0  0  0  0  0  0  0  0  0
   39.4080   29.1970   41.7590 H   0  0  0  0  0  0  0  0  0  0  0  0
   35.6170   27.7870   40.4270 H   0  0  0  0  0  0  0  0  0  0  0  0
   37.5550   31.2880   38.1490 C   0  0  0  0  0  0  0  0  0  0  0  0
   36.8550   30.8110   37.0800 F   0  0  0  0  0  0  0  0  0  0  0  0
   38.8210   31.7260   37.8340 F   0  0  0  0  0  0  0  0  0  0  0  0
   36.8580   32.4140   38.6070 F   0  0  0  0  0  0  0  0  0  0  0  0
  1  3  1  0  0  0  0
  1  2  1  0  0  0  0
  2  5  1  0  0  0  0
  2  4  1  0  0  0  0
  3  6  1  0  0  0  0
  3  2  1  0  0  0  0
  3  7  1  0  0  0  0
  8  1  1  0  0  0  0
  8 14  1  0  0  0  0
  9 15  1  0  0  0  0
  9  8  1  0  0  0  0
 10  9  1  0  0  0  0
 10 17  1  0  0  0  0
 11 10  1  0  0  0  0
 11 12  1  0  0  0  0
 12 13  1  0  0  0  0
 12 19  1  0  0  0  0
 13  8  1  0  0  0  0
 13 22  1  0  0  0  0
 16  9  1  0  0  0  0
 18 10  1  0  0  0  0
 20 12  1  0  0  0  0
 21 13  1  0  0  0  0
 23 24  1  0  0  0  0
 23 29  1  0  0  0  0
 24  1  1  0  0  0  0
 25 30  1  0  0  0  0
 25 24  2  0  0  0  0
 26 25  1  0  0  0  0
 27 26  2  0  0  0  0
 27 28  1  0  0  0  0
 28 23  2  0  0  0  0
 31 34  1  0  0  0  0
 31 27  1  0  0  0  0
 32 31  1  0  0  0  0
 33 31  1  0  0  0  0
M  END
>  <minimizedAffinity>
-4.83474636

$$$$

 OpenBabel03242516123D

 34 36  0  0  0  0  0  0  0  0999 V2000
   36.1560   28.9470   40.1950 C   0  0  0  0  0  0  0  0  0  0  0  0
   34.7260   29.2840   39.8720 C   0  0  0  0  0  0  0  0  0  0  0  0
   35.4860   28.3420   39.0510 C   0  0  0  0  0  0  0  0  0  0  0  0
   33.9110   29.0050   40.5710 H   0  0  0  0  0  0  0  0  0  0  0  0
   34.5750   30.3380   39.5080 H   0  0  0  0  0  0  0  0  0  0  0  0
   35.6440   28.6610   37.9890 H   0  0  0  0  0  0  0  0  0  0  0  0
   35.2330   27.2640   39.0990 H   0  0  0  0  0  0  0  0  0  0  0  0
   36.3400   28.0910   41.4220 C   0  0  0  0  0  0  0  0  0  0  0  0
   37.1910   28.7120   42.5010 C   0  0  0  0  0  0  0  0  0  0  0  0
   37.1360   27.7350   43.6800 C   0  0  0  0  0  0  0  0  0  0  0  0
   37.9270   26.6440   43.3350 O   0  0  0  0  0  0  0  0  0  0  0  0
   37.1890   25.9610   42.3530 C   0  0  0  0  0  0  0  0  0  0  0  0
   37.1100   26.8070   41.0910 C   0  0  0  0  0  0  0  0  0  0  0  0
   35.3930   27.8010   41.8870 H   0  0  0  0  0  0  0  0  0  0  0  0
   36.6320   29.6060   42.8680 H   0  0  0  0  0  0  0  0  0  0  0  0
   38.2270   28.9350   42.1970 H   0  0  0  0  0  0  0  0  0  0  0  0
   36.0630   27.4160   43.7440 H   0  0  0  0  0  0  0  0  0  0  0  0
   37.4680   28.1760   44.6190 H   0  0  0  0  0  0  0  0  0  0  0  0
   36.1850   25.7090   42.7120 H   0  0  0  0  0  0  0  0  0  0  0  0
   37.7910   25.0580   42.0390 H   0  0  0  0  0  0  0  0  0  0  0  0
   38.1430   27.1490   40.8480 H   0  0  0  0  0  0  0  0  0  0  0  0
   36.6510   26.2230   40.2950 H   0  0  0  0  0  0  0  0  0  0  0  0
   38.3570   29.6770   39.2940 C   0  0  0  0  0  0  0  0  0  0  0  0
   37.1920   30.0200   39.9620 C   0  0  0  0  0  0  0  0  0  0  0  0
   36.9830   31.3690   40.4040 C   0  0  0  0  0  0  0  0  0  0  0  0
   37.9790   32.2640   40.1270 N   0  0  0  0  0  0  0  0  0  0  0  0
   39.0930   31.8740   39.4720 C   0  0  0  0  0  0  0  0  0  0  0  0
   39.3030   30.6270   39.0560 N   0  0  0  0  0  0  0  0  0  0  0  0
   38.4910   28.6550   38.9720 H   0  0  0  0  0  0  0  0  0  0  0  0
   36.0740   31.5750   40.9120 H   0  0  0  0  0  0  0  0  0  0  0  0
   40.1370   32.9070   39.2020 C   0  0  0  0  0  0  0  0  0  0  0  0
   40.3830   32.9540   37.8610 F   0  0  0  0  0  0  0  0  0  0  0  0
   41.2670   32.7410   39.9680 F   0  0  0  0  0  0  0  0  0  0  0  0
   39.6120   34.1590   39.5510 F   0  0  0  0  0  0  0  0  0  0  0  0
  1  8  1  0  0  0  0
  2  1  1  0  0  0  0
  2  4  1  0  0  0  0
  3  7  1  0  0  0  0
  3  2  1  0  0  0  0
  3  1  1  0  0  0  0
  5  2  1  0  0  0  0
  6  3  1  0  0  0  0
  8 14  1  0  0  0  0
  8  9  1  0  0  0  0
  9 15  1  0  0  0  0
  9 10  1  0  0  0  0
 10 17  1  0  0  0  0
 10 18  1  0  0  0  0
 11 10  1  0  0  0  0
 12 19  1  0  0  0  0
 12 11  1  0  0  0  0
 13  8  1  0  0  0  0
 13 12  1  0  0  0  0
 16  9  1  0  0  0  0
 20 12  1  0  0  0  0
 21 13  1  0  0  0  0
 22 13  1  0  0  0  0
 23 24  1  0  0  0  0
 24  1  1  0  0  0  0
 24 25  2  0  0  0  0
 25 30  1  0  0  0  0
 26 25  1  0  0  0  0
 27 26  2  0  0  0  0
 28 23  2  0  0  0  0
 28 27  1  0  0  0  0
 29 23  1  0  0  0  0
 31 27  1  0  0  0  0
 31 34  1  0  0  0  0
 31 33  1  0  0  0  0
 32 31  1  0  0  0  0
M  END
>  <minimizedAffinity>
-4.80309534

$$$$

 OpenBabel03242516123D

 34 36  0  0  0  0  0  0  0  0999 V2000
   36.0800   28.8730   39.9990 C   0  0  0  0  0  0  0  0  0  0  0  0
   34.6630   29.2220   39.6300 C   0  0  0  0  0  0  0  0  0  0  0  0
   35.5090   28.4360   38.7310 C   0  0  0  0  0  0  0  0  0  0  0  0
   33.8150   28.8180   40.2200 H   0  0  0  0  0  0  0  0  0  0  0  0
   34.5010   30.3150   39.4220 H   0  0  0  0  0  0  0  0  0  0  0  0
   35.7250   28.9190   37.7440 H   0  0  0  0  0  0  0  0  0  0  0  0
   35.2900   27.3580   38.5960 H   0  0  0  0  0  0  0  0  0  0  0  0
   36.2120   27.8420   41.0900 C   0  0  0  0  0  0  0  0  0  0  0  0
   36.9120   28.3310   42.3350 C   0  0  0  0  0  0  0  0  0  0  0  0
   36.8200   27.1750   43.3360 C   0  0  0  0  0  0  0  0  0  0  0  0
   37.7180   26.2020   42.9110 O   0  0  0  0  0  0  0  0  0  0  0  0
   37.1280   25.6450   41.7640 C   0  0  0  0  0  0  0  0  0  0  0  0
   37.1040   26.6770   40.6470 C   0  0  0  0  0  0  0  0  0  0  0  0
   35.2510   27.4270   41.4050 H   0  0  0  0  0  0  0  0  0  0  0  0
   36.2560   29.1200   42.7760 H   0  0  0  0  0  0  0  0  0  0  0  0
   37.9520   28.6600   42.1780 H   0  0  0  0  0  0  0  0  0  0  0  0
   35.7720   26.7870   43.2390 H   0  0  0  0  0  0  0  0  0  0  0  0
   37.0290   27.4770   44.3610 H   0  0  0  0  0  0  0  0  0  0  0  0
   36.1160   25.2790   41.9740 H   0  0  0  0  0  0  0  0  0  0  0  0
   37.8210   24.8400   41.3780 H   0  0  0  0  0  0  0  0  0  0  0  0
   38.1260   27.1130   40.5680 H   0  0  0  0  0  0  0  0  0  0  0  0
   36.7650   26.2020   39.7270 H   0  0  0  0  0  0  0  0  0  0  0  0
   36.7490   31.1860   40.6270 C   0  0  0  0  0  0  0  0  0  0  0  0
   37.0910   29.9940   40.0060 C   0  0  0  0  0  0  0  0  0  0  0  0
   38.3820   29.8410   39.4000 C   0  0  0  0  0  0  0  0  0  0  0  0
   39.2250   30.9140   39.4770 N   0  0  0  0  0  0  0  0  0  0  0  0
   38.8400   32.0500   40.0960 C   0  0  0  0  0  0  0  0  0  0  0  0
   37.6450   32.2100   40.6620 N   0  0  0  0  0  0  0  0  0  0  0  0
   35.7710   31.2770   41.0750 H   0  0  0  0  0  0  0  0  0  0  0  0
   38.5910   28.9090   38.9360 H   0  0  0  0  0  0  0  0  0  0  0  0
   39.8140   33.1810   40.1440 C   0  0  0  0  0  0  0  0  0  0  0  0
   39.3210   34.1610   40.9550 F   0  0  0  0  0  0  0  0  0  0  0  0
   40.1830   33.6250   38.8960 F   0  0  0  0  0  0  0  0  0  0  0  0
   40.9880   32.7170   40.7540 F   0  0  0  0  0  0  0  0  0  0  0  0
  1 24  1  0  0  0  0
  1  8  1  0  0  0  0
  2  1  1  0  0  0  0
  2  4  1  0  0  0  0
  3  2  1  0  0  0  0
  3  1  1  0  0  0  0
  5  2  1  0  0  0  0
  6  3  1  0  0  0  0
  7  3  1  0  0  0  0
  8 14  1  0  0  0  0
  8  9  1  0  0  0  0
  9 15  1  0  0  0  0
  9 10  1  0  0  0  0
 10 18  1  0  0  0  0
 11 10  1  0  0  0  0
 12 19  1  0  0  0  0
 12 11  1  0  0  0  0
 13  8  1  0  0  0  0
 13 12  1  0  0  0  0
 16  9  1  0  0  0  0
 17 10  1  0  0  0  0
 20 12  1  0  0  0  0
 21 13  1  0  0  0  0
 22 13  1  0  0  0  0
 23 28  1  0  0  0  0
 23 29  1  0  0  0  0
 24 23  2  0  0  0  0
 25 26  2  0  0  0  0
 25 24  1  0  0  0  0
 26 27  1  0  0  0  0
 27 31  1  0  0  0  0
 27 28  2  0  0  0  0
 30 25  1  0  0  0  0
 31 34  1  0  0  0  0
 31 32  1  0  0  0  0
 33 31  1  0  0  0  0
M  END
>  <minimizedAffinity>
-4.78558779

$$$$
