
 OpenBabel03252509143D

 40 43  0  0  1  0  0  0  0  0999 V2000
   47.5090   32.7340   43.7800 C   0  0  0  0  0  0  0  0  0  0  0  0
   46.7020   33.4940   42.9390 C   0  0  0  0  0  0  0  0  0  0  0  0
   45.6190   34.2230   43.3880 C   0  0  0  0  0  0  0  0  0  0  0  0
   45.3040   34.2070   44.7560 C   0  0  0  0  0  0  0  0  0  0  0  0
   44.3650   34.7680   45.5270 N   0  0  0  0  0  0  0  0  0  0  0  0
   44.5460   34.3960   46.8090 C   0  0  0  0  0  0  0  0  0  0  0  0
   45.6170   33.5940   46.8050 N   0  0  0  0  0  0  0  0  0  0  0  0
   46.1140   33.4510   45.5610 C   0  0  0  0  0  0  0  0  0  0  0  0
   47.2100   32.7060   45.1430 C   0  0  0  0  0  0  0  0  0  0  0  0
   48.3580   32.1670   43.3980 H   0  0  0  0  0  0  0  0  0  0  0  0
   43.6320   35.3880   45.1390 H   0  0  0  0  0  0  0  0  0  0  0  0
   43.9410   34.6890   47.6800 H   0  0  0  0  0  0  0  0  0  0  0  0
   47.8110   32.1290   45.8310 H   0  0  0  0  0  0  0  0  0  0  0  0
   46.8370   32.5520   39.3970 C   0  0  0  0  0  0  0  0  0  0  0  0
   47.6060   33.5760   38.8350 C   0  0  0  0  0  0  0  0  0  0  0  0
   48.0760   34.5850   39.6780 C   0  0  0  0  0  0  0  0  0  0  0  0
   47.7660   34.5340   41.0110 N   0  0  0  0  0  0  0  0  0  0  0  0
   47.0150   33.5210   41.5140 C   0  0  0  0  0  0  0  0  0  0  0  0
   46.5310   32.5080   40.7300 N   0  0  0  0  0  0  0  0  0  0  0  0
   46.4610   31.7610   38.7690 H   0  0  0  0  0  0  0  0  0  0  0  0
   47.8330   33.5890   37.7850 H   0  0  0  0  0  0  0  0  0  0  0  0
   48.6690   35.3990   39.3270 H   0  0  0  0  0  0  0  0  0  0  0  0
   44.6050   35.1830   42.2960 S   0  0  0  0  0  0  0  0  0  0  0  0
   42.0460   34.8420   41.7960 N   0  0  0  0  0  0  0  0  0  0  0  0
   43.3180   34.2340   41.4680 C   0  0  1  0  0  0  0  0  0  0  0  0
   43.6070   34.3460   39.9710 C   0  0  0  0  0  0  0  0  0  0  0  0
   42.5110   34.0730   39.1750 O   0  0  0  0  0  0  0  0  0  0  0  0
   41.4220   33.5310   39.8270 C   0  0  0  0  0  0  0  0  0  0  0  0
   40.9900   34.4760   40.9070 C   0  0  2  0  0  0  0  0  0  0  0  0
   41.7910   34.5010   42.7650 H   0  0  0  0  0  0  0  0  0  0  0  0
   43.3530   33.1630   41.7600 H   0  0  0  0  0  0  0  0  0  0  0  0
   43.8580   35.4180   39.7960 H   0  0  0  0  0  0  0  0  0  0  0  0
   44.3670   33.6410   39.6560 H   0  0  0  0  0  0  0  0  0  0  0  0
   41.6760   32.5690   40.3090 H   0  0  0  0  0  0  0  0  0  0  0  0
   40.6190   33.4230   39.0990 H   0  0  0  0  0  0  0  0  0  0  0  0
   40.1410   33.9890   41.4490 H   0  0  0  0  0  0  0  0  0  0  0  0
   40.3760   35.7490   40.3210 C   0  0  0  0  0  0  0  0  0  0  0  0
   40.5000   36.7710   41.2400 F   0  0  0  0  0  0  0  0  0  0  0  0
   40.9990   36.0720   39.1330 F   0  0  0  0  0  0  0  0  0  0  0  0
   39.0060   35.5760   40.1250 F   0  0  0  0  0  0  0  0  0  0  0  0
  1  9  1  0  0  0  0
  2  3  1  0  0  0  0
  2  1  2  0  0  0  0
  3  4  2  0  0  0  0
  4  5  1  0  0  0  0
  4  8  1  0  0  0  0
  5  6  1  0  0  0  0
  6 12  1  0  0  0  0
  7  6  2  0  0  0  0
  8  7  1  0  0  0  0
  9  8  2  0  0  0  0
  9 13  1  0  0  0  0
 10  1  1  0  0  0  0
 11  5  1  0  0  0  0
 14 19  1  0  0  0  0
 15 14  2  0  0  0  0
 15 16  1  0  0  0  0
 16 17  2  0  0  0  0
 17 18  1  0  0  0  0
 18  2  1  0  0  0  0
 19 18  2  0  0  0  0
 20 14  1  0  0  0  0
 21 15  1  0  0  0  0
 22 16  1  0  0  0  0
 23  3  1  0  0  0  0
 24 30  1  0  0  0  0
 25 31  1  1  0  0  0
 25 24  1  0  0  0  0
 25 23  1  0  0  0  0
 26 25  1  0  0  0  0
 27 28  1  0  0  0  0
 27 26  1  0  0  0  0
 28 34  1  0  0  0  0
 28 29  1  0  0  0  0
 29 36  1  1  0  0  0
 29 24  1  0  0  0  0
 32 26  1  0  0  0  0
 33 26  1  0  0  0  0
 35 28  1  0  0  0  0
 37 29  1  0  0  0  0
 37 38  1  0  0  0  0
 39 37  1  0  0  0  0
 40 37  1  0  0  0  0
M  END
>  <minimizedAffinity>
-6.25789356

>  <minimizedRMSD>
1.16803753

$$$$
