
 OpenBabel03242511123D

 39 42  0  0  1  0  0  0  0  0999 V2000
   47.7990   33.1680   42.1520 N   0  0  0  0  0  0  0  0  0  0  0  0
   47.8280   33.8730   41.3880 H   0  0  0  0  0  0  0  0  0  0  0  0
   47.1620   33.1200   43.4040 C   0  0  0  0  0  0  0  0  0  0  0  0
   47.4790   32.1210   44.2860 C   0  0  0  0  0  0  0  0  0  0  0  0
   46.9450   32.0430   45.5600 C   0  0  0  0  0  0  0  0  0  0  0  0
   46.0500   32.9900   46.0040 C   0  0  0  0  0  0  0  0  0  0  0  0
   45.7130   34.0020   45.1420 C   0  0  0  0  0  0  0  0  0  0  0  0
   44.8190   34.9830   45.5650 C   0  0  0  0  0  0  0  0  0  0  0  0
   44.4540   36.0130   44.7640 C   0  0  0  0  0  0  0  0  0  0  0  0
   45.0090   36.0520   43.4910 C   0  0  0  0  0  0  0  0  0  0  0  0
   45.8880   35.0780   43.0880 C   0  0  0  0  0  0  0  0  0  0  0  0
   46.2640   34.0420   43.8870 C   0  0  0  0  0  0  0  0  0  0  0  0
   48.1880   31.3480   43.9690 H   0  0  0  0  0  0  0  0  0  0  0  0
   47.2490   31.2210   46.1930 H   0  0  0  0  0  0  0  0  0  0  0  0
   45.6540   32.8940   47.0130 H   0  0  0  0  0  0  0  0  0  0  0  0
   44.4200   34.8950   46.5670 H   0  0  0  0  0  0  0  0  0  0  0  0
   43.7510   36.7880   45.0960 H   0  0  0  0  0  0  0  0  0  0  0  0
   44.7200   36.8730   42.8470 H   0  0  0  0  0  0  0  0  0  0  0  0
   46.3920   35.1720   41.8130 O   0  0  0  0  0  0  0  0  0  0  0  0
   45.8770   35.6330   41.0730 H   0  0  0  0  0  0  0  0  0  0  0  0
   50.0370   32.4310   41.3550 C   0  0  1  0  0  0  0  0  0  0  0  0
   49.0830   32.1420   40.2190 C   0  0  0  0  0  0  0  0  0  0  0  0
   48.6540   32.0980   41.7010 C   0  0  2  0  0  0  0  0  0  0  0  0
   50.3350   33.4740   41.4930 H   0  0  0  0  0  0  0  0  0  0  0  0
   48.6930   32.9840   39.6190 H   0  0  0  0  0  0  0  0  0  0  0  0
   49.1950   31.1670   39.7330 H   0  0  0  0  0  0  0  0  0  0  0  0
   48.3410   31.0960   42.0810 H   0  0  0  0  0  0  0  0  0  0  0  0
   52.9220   30.1600   40.8640 C   0  0  0  0  0  0  0  0  0  0  0  0
   53.1050   29.6420   42.1940 C   0  0  0  0  0  0  0  0  0  0  0  0
   52.2250   30.0960   43.2240 C   0  0  0  0  0  0  0  0  0  0  0  0
   51.2820   30.9730   42.9100 N   0  0  0  0  0  0  0  0  0  0  0  0
   51.1370   31.4410   41.6410 C   0  0  0  0  0  0  0  0  0  0  0  0
   51.9490   31.0440   40.6090 N   0  0  0  0  0  0  0  0  0  0  0  0
   53.6100   29.7900   40.1100 H   0  0  0  0  0  0  0  0  0  0  0  0
   53.8930   28.9340   42.3670 H   0  0  0  0  0  0  0  0  0  0  0  0
   52.4250   29.5540   44.5940 C   0  0  0  0  0  0  0  0  0  0  0  0
   53.0350   28.3300   44.5420 F   0  0  0  0  0  0  0  0  0  0  0  0
   51.1990   29.3740   45.2440 F   0  0  0  0  0  0  0  0  0  0  0  0
   53.1500   30.4490   45.3780 F   0  0  0  0  0  0  0  0  0  0  0  0
  1  3  1  0  0  0  0
  2  1  1  0  0  0  0
  3 12  2  0  0  0  0
  3  4  1  0  0  0  0
  4  5  2  0  0  0  0
  5  6  1  0  0  0  0
  5 14  1  0  0  0  0
  6 15  1  0  0  0  0
  7  8  1  0  0  0  0
  7  6  2  0  0  0  0
  8 16  1  0  0  0  0
  9 17  1  0  0  0  0
  9  8  2  0  0  0  0
 10  9  1  0  0  0  0
 11 10  2  0  0  0  0
 11 12  1  0  0  0  0
 12  7  1  0  0  0  0
 13  4  1  0  0  0  0
 18 10  1  0  0  0  0
 19 11  1  0  0  0  0
 20 19  1  0  0  0  0
 21 24  1  1  0  0  0
 21 32  1  0  0  0  0
 21 23  1  0  0  0  0
 22 21  1  0  0  0  0
 22 23  1  0  0  0  0
 23 27  1  1  0  0  0
 23  1  1  0  0  0  0
 25 22  1  0  0  0  0
 26 22  1  0  0  0  0
 28 29  1  0  0  0  0
 29 35  1  0  0  0  0
 29 30  2  0  0  0  0
 30 36  1  0  0  0  0
 31 30  1  0  0  0  0
 32 31  2  0  0  0  0
 33 28  2  0  0  0  0
 33 32  1  0  0  0  0
 34 28  1  0  0  0  0
 36 38  1  0  0  0  0
 36 39  1  0  0  0  0
 37 36  1  0  0  0  0
M  END
>  <minimizedAffinity>
-5.11710119

>  <minimizedRMSD>
1.29386938

$$$$
