
 OpenBabel03252506323D

 27 28  0  0  1  0  0  0  0  0999 V2000
   38.6380   31.5680   40.7980 C   0  0  0  0  0  0  0  0  0  0  0  0
   37.2450   31.7150   40.7130 C   0  0  0  0  0  0  0  0  0  0  0  0
   36.4360   30.7470   41.2570 C   0  0  0  0  0  0  0  0  0  0  0  0
   37.0630   29.7000   41.8460 N   0  0  0  0  0  0  0  0  0  0  0  0
   38.3830   29.5620   41.9260 C   0  0  0  0  0  0  0  0  0  0  0  0
   39.1820   30.4930   41.4030 N   0  0  0  0  0  0  0  0  0  0  0  0
   38.8860   28.4090   42.5770 N   0  0  0  0  0  0  0  0  0  0  0  0
   40.2780   28.2600   43.0050 C   0  0  0  0  0  0  0  0  0  0  0  0
   40.5610   26.8200   42.6690 C   0  0  0  0  0  0  0  0  0  0  0  0
   39.2150   26.1580   42.3960 C   0  0  0  0  0  0  0  0  0  0  0  0
   38.2640   27.1900   42.9700 C   0  0  2  0  0  0  0  0  0  0  0  0
   39.3310   32.2900   40.3930 H   0  0  0  0  0  0  0  0  0  0  0  0
   35.3740   30.8910   41.1750 H   0  0  0  0  0  0  0  0  0  0  0  0
   40.9560   28.9650   42.5100 H   0  0  0  0  0  0  0  0  0  0  0  0
   40.2520   28.3480   44.1150 H   0  0  0  0  0  0  0  0  0  0  0  0
   41.0980   26.7830   41.6760 H   0  0  0  0  0  0  0  0  0  0  0  0
   41.1570   26.2930   43.4140 H   0  0  0  0  0  0  0  0  0  0  0  0
   39.0130   25.9910   41.3400 H   0  0  0  0  0  0  0  0  0  0  0  0
   39.1150   25.2650   43.0510 H   0  0  0  0  0  0  0  0  0  0  0  0
   38.2580   27.1480   44.0870 H   0  0  0  0  0  0  0  0  0  0  0  0
   36.8950   26.9080   42.4760 C   0  0  0  0  0  0  0  0  0  0  0  0
   36.6680   25.5430   42.7680 F   0  0  0  0  0  0  0  0  0  0  0  0
   35.9190   27.5440   43.2500 F   0  0  0  0  0  0  0  0  0  0  0  0
   36.7060   27.0490   41.1380 F   0  0  0  0  0  0  0  0  0  0  0  0
   36.7880   32.9060   40.0450 N   0  0  0  0  0  0  0  0  0  0  0  0
   35.9260   33.2920   40.5060 H   0  0  0  0  0  0  0  0  0  0  0  0
   37.2690   33.2990   39.2250 H   0  0  0  0  0  0  0  0  0  0  0  0
  1  6  1  0  0  0  0
  2  1  2  0  0  0  0
  2  3  1  0  0  0  0
  3  4  2  0  0  0  0
  4  5  1  0  0  0  0
  5  7  1  0  0  0  0
  6  5  2  0  0  0  0
  7 11  1  0  0  0  0
  7  8  1  0  0  0  0
  8 15  1  0  0  0  0
  9  8  1  0  0  0  0
  9 17  1  0  0  0  0
 10  9  1  0  0  0  0
 10 11  1  0  0  0  0
 10 19  1  0  0  0  0
 11 20  1  1  0  0  0
 12  1  1  0  0  0  0
 13  3  1  0  0  0  0
 14  8  1  0  0  0  0
 16  9  1  0  0  0  0
 18 10  1  0  0  0  0
 21 22  1  0  0  0  0
 21 11  1  0  0  0  0
 21 23  1  0  0  0  0
 24 21  1  0  0  0  0
 25 26  1  0  0  0  0
 25  2  1  0  0  0  0
 27 25  1  0  0  0  0
M  END
>  <minimizedAffinity>
-5.34370375

$$$$

 OpenBabel03252506323D

 27 28  0  0  1  0  0  0  0  0999 V2000
   37.8710   29.9120   42.0940 C   0  0  0  0  0  0  0  0  0  0  0  0
   36.5730   29.7000   41.6050 C   0  0  0  0  0  0  0  0  0  0  0  0
   36.0800   28.4190   41.5540 C   0  0  0  0  0  0  0  0  0  0  0  0
   36.9070   27.4370   41.9880 N   0  0  0  0  0  0  0  0  0  0  0  0
   38.1370   27.6400   42.4510 C   0  0  0  0  0  0  0  0  0  0  0  0
   38.6290   28.8780   42.5080 N   0  0  0  0  0  0  0  0  0  0  0  0
   38.8770   26.5080   42.8710 N   0  0  0  0  0  0  0  0  0  0  0  0
   40.1030   26.5890   43.6680 C   0  0  0  0  0  0  0  0  0  0  0  0
   40.9580   25.5180   43.0440 C   0  0  0  0  0  0  0  0  0  0  0  0
   40.0390   24.6730   42.1700 C   0  0  0  0  0  0  0  0  0  0  0  0
   38.6770   25.1120   42.6730 C   0  0  2  0  0  0  0  0  0  0  0  0
   38.3200   30.8920   42.1620 H   0  0  0  0  0  0  0  0  0  0  0  0
   35.0820   28.2910   41.1750 H   0  0  0  0  0  0  0  0  0  0  0  0
   40.5640   27.5840   43.6460 H   0  0  0  0  0  0  0  0  0  0  0  0
   39.8120   26.2380   44.6850 H   0  0  0  0  0  0  0  0  0  0  0  0
   41.6680   26.0070   42.3150 H   0  0  0  0  0  0  0  0  0  0  0  0
   41.5340   24.9300   43.7590 H   0  0  0  0  0  0  0  0  0  0  0  0
   40.1400   24.8720   41.1050 H   0  0  0  0  0  0  0  0  0  0  0  0
   40.1360   23.6070   42.4710 H   0  0  0  0  0  0  0  0  0  0  0  0
   38.4510   24.6500   43.6650 H   0  0  0  0  0  0  0  0  0  0  0  0
   37.6450   24.6810   41.7000 C   0  0  0  0  0  0  0  0  0  0  0  0
   37.8810   23.3030   41.4930 F   0  0  0  0  0  0  0  0  0  0  0  0
   36.3640   24.6830   42.2620 F   0  0  0  0  0  0  0  0  0  0  0  0
   37.7030   25.2670   40.4750 F   0  0  0  0  0  0  0  0  0  0  0  0
   35.8640   30.8840   41.1970 N   0  0  0  0  0  0  0  0  0  0  0  0
   34.8440   30.8180   41.4410 H   0  0  0  0  0  0  0  0  0  0  0  0
   36.3290   31.6730   40.7280 H   0  0  0  0  0  0  0  0  0  0  0  0
  1 12  1  0  0  0  0
  1  6  1  0  0  0  0
  2  1  2  0  0  0  0
  3  2  1  0  0  0  0
  3  4  2  0  0  0  0
  4  5  1  0  0  0  0
  5  6  2  0  0  0  0
  5  7  1  0  0  0  0
  7  8  1  0  0  0  0
  8 15  1  0  0  0  0
  9  8  1  0  0  0  0
  9 17  1  0  0  0  0
 10 19  1  0  0  0  0
 10 11  1  0  0  0  0
 10  9  1  0  0  0  0
 11  7  1  0  0  0  0
 11 20  1  1  0  0  0
 13  3  1  0  0  0  0
 14  8  1  0  0  0  0
 16  9  1  0  0  0  0
 18 10  1  0  0  0  0
 21 23  1  0  0  0  0
 21 11  1  0  0  0  0
 22 21  1  0  0  0  0
 24 21  1  0  0  0  0
 25 26  1  0  0  0  0
 25  2  1  0  0  0  0
 27 25  1  0  0  0  0
M  END
>  <minimizedAffinity>
-5.20172644

$$$$

 OpenBabel03252506323D

 27 28  0  0  1  0  0  0  0  0999 V2000
   35.7310   28.9130   40.3800 C   0  0  0  0  0  0  0  0  0  0  0  0
   36.4190   29.8830   41.1260 C   0  0  0  0  0  0  0  0  0  0  0  0
   37.5760   29.5290   41.7770 C   0  0  0  0  0  0  0  0  0  0  0  0
   37.9700   28.2390   41.6450 N   0  0  0  0  0  0  0  0  0  0  0  0
   37.3170   27.3210   40.9370 C   0  0  0  0  0  0  0  0  0  0  0  0
   36.1930   27.6500   40.3000 N   0  0  0  0  0  0  0  0  0  0  0  0
   37.8610   26.0140   40.8950 N   0  0  0  0  0  0  0  0  0  0  0  0
   37.4370   24.9900   39.9380 C   0  0  0  0  0  0  0  0  0  0  0  0
   37.4280   23.7470   40.7880 C   0  0  0  0  0  0  0  0  0  0  0  0
   38.1750   24.0840   42.0720 C   0  0  0  0  0  0  0  0  0  0  0  0
   38.8660   25.3750   41.6740 C   0  0  2  0  0  0  0  0  0  0  0  0
   34.8170   29.1240   39.8450 H   0  0  0  0  0  0  0  0  0  0  0  0
   38.0780   30.2950   42.3390 H   0  0  0  0  0  0  0  0  0  0  0  0
   36.4670   25.2100   39.4750 H   0  0  0  0  0  0  0  0  0  0  0  0
   38.2820   24.8990   39.2170 H   0  0  0  0  0  0  0  0  0  0  0  0
   36.3670   23.5510   41.1230 H   0  0  0  0  0  0  0  0  0  0  0  0
   37.8110   22.8570   40.2870 H   0  0  0  0  0  0  0  0  0  0  0  0
   37.5250   24.2430   42.9310 H   0  0  0  0  0  0  0  0  0  0  0  0
   38.9920   23.3440   42.2180 H   0  0  0  0  0  0  0  0  0  0  0  0
   39.7410   25.1690   41.0090 H   0  0  0  0  0  0  0  0  0  0  0  0
   39.3480   26.0590   42.8980 C   0  0  0  0  0  0  0  0  0  0  0  0
   39.9480   25.0450   43.6790 F   0  0  0  0  0  0  0  0  0  0  0  0
   40.4270   26.9070   42.6320 F   0  0  0  0  0  0  0  0  0  0  0  0
   38.3890   26.6240   43.6780 F   0  0  0  0  0  0  0  0  0  0  0  0
   35.8260   31.1950   41.1320 N   0  0  0  0  0  0  0  0  0  0  0  0
   36.5620   31.9440   41.1140 H   0  0  0  0  0  0  0  0  0  0  0  0
   34.8080   31.3410   41.1540 H   0  0  0  0  0  0  0  0  0  0  0  0
  1  2  1  0  0  0  0
  2 25  1  0  0  0  0
  2  3  2  0  0  0  0
  3 13  1  0  0  0  0
  4  3  1  0  0  0  0
  5  4  2  0  0  0  0
  6  1  2  0  0  0  0
  6  5  1  0  0  0  0
  7  5  1  0  0  0  0
  7 11  1  0  0  0  0
  8  9  1  0  0  0  0
  8  7  1  0  0  0  0
  9 16  1  0  0  0  0
  9 10  1  0  0  0  0
 10 19  1  0  0  0  0
 10 18  1  0  0  0  0
 11 20  1  6  0  0  0
 11 10  1  0  0  0  0
 11 21  1  0  0  0  0
 12  1  1  0  0  0  0
 14  8  1  0  0  0  0
 15  8  1  0  0  0  0
 17  9  1  0  0  0  0
 21 24  1  0  0  0  0
 21 22  1  0  0  0  0
 23 21  1  0  0  0  0
 25 27  1  0  0  0  0
 26 25  1  0  0  0  0
M  END
>  <minimizedAffinity>
-4.90842152

$$$$

 OpenBabel03252506323D

 27 28  0  0  1  0  0  0  0  0999 V2000
   40.6200   31.4700   39.0150 C   0  0  0  0  0  0  0  0  0  0  0  0
   39.7380   31.8480   37.9910 C   0  0  0  0  0  0  0  0  0  0  0  0
   38.3910   31.6400   38.1600 C   0  0  0  0  0  0  0  0  0  0  0  0
   38.0120   31.0720   39.3300 N   0  0  0  0  0  0  0  0  0  0  0  0
   38.8490   30.7140   40.2990 C   0  0  0  0  0  0  0  0  0  0  0  0
   40.1600   30.9100   40.1500 N   0  0  0  0  0  0  0  0  0  0  0  0
   38.2950   30.1330   41.4660 N   0  0  0  0  0  0  0  0  0  0  0  0
   39.0340   29.9650   42.7190 C   0  0  0  0  0  0  0  0  0  0  0  0
   38.5720   28.6080   43.1810 C   0  0  0  0  0  0  0  0  0  0  0  0
   37.3490   28.2510   42.3450 C   0  0  0  0  0  0  0  0  0  0  0  0
   37.0040   29.6000   41.7440 C   0  0  2  0  0  0  0  0  0  0  0  0
   41.6900   31.6050   38.9470 H   0  0  0  0  0  0  0  0  0  0  0  0
   37.7430   31.9420   37.3570 H   0  0  0  0  0  0  0  0  0  0  0  0
   40.1210   30.0350   42.5880 H   0  0  0  0  0  0  0  0  0  0  0  0
   38.6040   30.7230   43.4140 H   0  0  0  0  0  0  0  0  0  0  0  0
   39.3490   27.8450   42.8830 H   0  0  0  0  0  0  0  0  0  0  0  0
   38.3970   28.5350   44.2540 H   0  0  0  0  0  0  0  0  0  0  0  0
   37.5490   27.5200   41.5640 H   0  0  0  0  0  0  0  0  0  0  0  0
   36.5060   28.0060   43.0270 H   0  0  0  0  0  0  0  0  0  0  0  0
   36.5140   30.2590   42.5020 H   0  0  0  0  0  0  0  0  0  0  0  0
   36.0690   29.3970   40.6130 C   0  0  0  0  0  0  0  0  0  0  0  0
   34.9670   28.7000   41.1610 F   0  0  0  0  0  0  0  0  0  0  0  0
   35.4840   30.5970   40.1960 F   0  0  0  0  0  0  0  0  0  0  0  0
   36.5330   28.6320   39.5890 F   0  0  0  0  0  0  0  0  0  0  0  0
   40.3530   32.4370   36.8310 N   0  0  0  0  0  0  0  0  0  0  0  0
   39.7580   33.2090   36.4380 H   0  0  0  0  0  0  0  0  0  0  0  0
   41.2580   32.1170   36.4610 H   0  0  0  0  0  0  0  0  0  0  0  0
  1  6  1  0  0  0  0
  2  3  1  0  0  0  0
  2  1  2  0  0  0  0
  3  4  2  0  0  0  0
  4  5  1  0  0  0  0
  5  7  1  0  0  0  0
  6  5  2  0  0  0  0
  7 11  1  0  0  0  0
  7  8  1  0  0  0  0
  8  9  1  0  0  0  0
  8 15  1  0  0  0  0
  9 17  1  0  0  0  0
 10 19  1  0  0  0  0
 10  9  1  0  0  0  0
 11 10  1  0  0  0  0
 11 20  1  1  0  0  0
 12  1  1  0  0  0  0
 13  3  1  0  0  0  0
 14  8  1  0  0  0  0
 16  9  1  0  0  0  0
 18 10  1  0  0  0  0
 21 22  1  0  0  0  0
 21 11  1  0  0  0  0
 23 21  1  0  0  0  0
 24 21  1  0  0  0  0
 25  2  1  0  0  0  0
 26 25  1  0  0  0  0
 27 25  1  0  0  0  0
M  END
>  <minimizedAffinity>
-4.90358686

$$$$

 OpenBabel03252506323D

 27 28  0  0  1  0  0  0  0  0999 V2000
   39.4360   31.8290   38.0950 C   0  0  0  0  0  0  0  0  0  0  0  0
   38.2120   31.7610   37.4100 C   0  0  0  0  0  0  0  0  0  0  0  0
   37.1240   31.2110   38.0410 C   0  0  0  0  0  0  0  0  0  0  0  0
   37.3220   30.7640   39.3050 N   0  0  0  0  0  0  0  0  0  0  0  0
   38.4820   30.8290   39.9530 C   0  0  0  0  0  0  0  0  0  0  0  0
   39.5480   31.3610   39.3540 N   0  0  0  0  0  0  0  0  0  0  0  0
   38.5270   30.3210   41.2740 N   0  0  0  0  0  0  0  0  0  0  0  0
   39.6220   30.5850   42.2080 C   0  0  0  0  0  0  0  0  0  0  0  0
   39.7880   29.2520   42.8890 C   0  0  0  0  0  0  0  0  0  0  0  0
   38.5550   28.4250   42.5440 C   0  0  0  0  0  0  0  0  0  0  0  0
   37.6270   29.4990   42.0090 C   0  0  2  0  0  0  0  0  0  0  0  0
   40.3300   32.2490   37.6590 H   0  0  0  0  0  0  0  0  0  0  0  0
   36.2020   31.1740   37.4890 H   0  0  0  0  0  0  0  0  0  0  0  0
   40.5340   30.9380   41.7110 H   0  0  0  0  0  0  0  0  0  0  0  0
   39.2010   31.2960   42.9570 H   0  0  0  0  0  0  0  0  0  0  0  0
   40.6420   28.7020   42.3950 H   0  0  0  0  0  0  0  0  0  0  0  0
   39.9790   29.3150   43.9600 H   0  0  0  0  0  0  0  0  0  0  0  0
   38.7350   27.6590   41.7910 H   0  0  0  0  0  0  0  0  0  0  0  0
   38.0860   28.0700   43.4870 H   0  0  0  0  0  0  0  0  0  0  0  0
   37.2020   30.1090   42.8430 H   0  0  0  0  0  0  0  0  0  0  0  0
   36.5120   28.8490   41.2790 C   0  0  0  0  0  0  0  0  0  0  0  0
   35.9230   27.9640   42.2110 F   0  0  0  0  0  0  0  0  0  0  0  0
   35.4680   29.7420   41.0160 F   0  0  0  0  0  0  0  0  0  0  0  0
   36.8660   28.0930   40.2070 F   0  0  0  0  0  0  0  0  0  0  0  0
   38.2210   32.2950   36.0740 N   0  0  0  0  0  0  0  0  0  0  0  0
   37.3190   32.7880   35.8560 H   0  0  0  0  0  0  0  0  0  0  0  0
   39.0250   32.1880   35.4400 H   0  0  0  0  0  0  0  0  0  0  0  0
  1  6  1  0  0  0  0
  2  3  1  0  0  0  0
  2  1  2  0  0  0  0
  3  4  2  0  0  0  0
  4  5  1  0  0  0  0
  5  7  1  0  0  0  0
  6  5  2  0  0  0  0
  7 11  1  0  0  0  0
  7  8  1  0  0  0  0
  8  9  1  0  0  0  0
  8 15  1  0  0  0  0
  9 17  1  0  0  0  0
 10  9  1  0  0  0  0
 10 19  1  0  0  0  0
 11 10  1  0  0  0  0
 11 20  1  1  0  0  0
 12  1  1  0  0  0  0
 13  3  1  0  0  0  0
 14  8  1  0  0  0  0
 16  9  1  0  0  0  0
 18 10  1  0  0  0  0
 21 11  1  0  0  0  0
 21 22  1  0  0  0  0
 23 21  1  0  0  0  0
 24 21  1  0  0  0  0
 25  2  1  0  0  0  0
 26 25  1  0  0  0  0
 27 25  1  0  0  0  0
M  END
>  <minimizedAffinity>
-4.84310341

$$$$

 OpenBabel03252506323D

 27 28  0  0  1  0  0  0  0  0999 V2000
   37.0740   31.9290   39.0560 C   0  0  0  0  0  0  0  0  0  0  0  0
   37.7650   32.7450   39.9660 C   0  0  0  0  0  0  0  0  0  0  0  0
   38.4730   32.1570   40.9860 C   0  0  0  0  0  0  0  0  0  0  0  0
   38.4460   30.8040   41.0350 N   0  0  0  0  0  0  0  0  0  0  0  0
   37.7910   30.0320   40.1730 C   0  0  0  0  0  0  0  0  0  0  0  0
   37.1000   30.5880   39.1770 N   0  0  0  0  0  0  0  0  0  0  0  0
   37.8630   28.6290   40.3580 N   0  0  0  0  0  0  0  0  0  0  0  0
   37.4560   27.6550   39.3440 C   0  0  0  0  0  0  0  0  0  0  0  0
   36.7730   26.6000   40.1740 C   0  0  0  0  0  0  0  0  0  0  0  0
   37.1400   26.8750   41.6270 C   0  0  0  0  0  0  0  0  0  0  0  0
   38.3020   27.8350   41.4550 C   0  0  2  0  0  0  0  0  0  0  0  0
   36.4990   32.3250   38.2320 H   0  0  0  0  0  0  0  0  0  0  0  0
   38.9910   32.8110   41.6640 H   0  0  0  0  0  0  0  0  0  0  0  0
   36.8120   28.0860   38.5690 H   0  0  0  0  0  0  0  0  0  0  0  0
   38.4080   27.2190   38.9620 H   0  0  0  0  0  0  0  0  0  0  0  0
   35.6580   26.7750   40.1270 H   0  0  0  0  0  0  0  0  0  0  0  0
   36.9840   25.5770   39.8630 H   0  0  0  0  0  0  0  0  0  0  0  0
   36.3400   27.3360   42.2030 H   0  0  0  0  0  0  0  0  0  0  0  0
   37.5800   25.9540   42.0670 H   0  0  0  0  0  0  0  0  0  0  0  0
   39.2260   27.2900   41.1400 H   0  0  0  0  0  0  0  0  0  0  0  0
   38.5650   28.5080   42.7490 C   0  0  0  0  0  0  0  0  0  0  0  0
   38.7600   27.4620   43.6800 F   0  0  0  0  0  0  0  0  0  0  0  0
   39.8060   29.1520   42.7610 F   0  0  0  0  0  0  0  0  0  0  0  0
   37.5510   29.2690   43.2390 F   0  0  0  0  0  0  0  0  0  0  0  0
   37.6620   34.1610   39.7290 N   0  0  0  0  0  0  0  0  0  0  0  0
   38.5680   34.6480   39.9440 H   0  0  0  0  0  0  0  0  0  0  0  0
   36.7970   34.6040   39.3930 H   0  0  0  0  0  0  0  0  0  0  0  0
  1  6  2  0  0  0  0
  1  2  1  0  0  0  0
  2  3  2  0  0  0  0
  3  4  1  0  0  0  0
  3 13  1  0  0  0  0
  5  7  1  0  0  0  0
  5  4  2  0  0  0  0
  6  5  1  0  0  0  0
  7 11  1  0  0  0  0
  8  9  1  0  0  0  0
  8  7  1  0  0  0  0
  9 10  1  0  0  0  0
 10 19  1  0  0  0  0
 10 18  1  0  0  0  0
 11 20  1  6  0  0  0
 11 10  1  0  0  0  0
 11 21  1  0  0  0  0
 12  1  1  0  0  0  0
 14  8  1  0  0  0  0
 15  8  1  0  0  0  0
 16  9  1  0  0  0  0
 17  9  1  0  0  0  0
 21 23  1  0  0  0  0
 21 24  1  0  0  0  0
 21 22  1  0  0  0  0
 25 26  1  0  0  0  0
 25  2  1  0  0  0  0
 27 25  1  0  0  0  0
M  END
>  <minimizedAffinity>
-4.76140594

$$$$

 OpenBabel03252506323D

 27 28  0  0  1  0  0  0  0  0999 V2000
   37.8420   29.8110   40.7410 C   0  0  0  0  0  0  0  0  0  0  0  0
   36.5310   29.7050   41.2320 C   0  0  0  0  0  0  0  0  0  0  0  0
   36.0820   28.4860   41.6790 C   0  0  0  0  0  0  0  0  0  0  0  0
   36.9620   27.4580   41.6080 N   0  0  0  0  0  0  0  0  0  0  0  0
   38.2030   27.5600   41.1430 C   0  0  0  0  0  0  0  0  0  0  0  0
   38.6540   28.7370   40.7060 N   0  0  0  0  0  0  0  0  0  0  0  0
   39.0020   26.3910   41.1380 N   0  0  0  0  0  0  0  0  0  0  0  0
   40.4530   26.4000   40.9440 C   0  0  0  0  0  0  0  0  0  0  0  0
   40.6650   25.1940   40.0680 C   0  0  0  0  0  0  0  0  0  0  0  0
   39.3720   24.3880   40.1080 C   0  0  0  0  0  0  0  0  0  0  0  0
   38.6770   25.0150   41.3020 C   0  0  2  0  0  0  0  0  0  0  0  0
   38.2580   30.7380   40.3750 H   0  0  0  0  0  0  0  0  0  0  0  0
   35.0730   28.4390   42.0480 H   0  0  0  0  0  0  0  0  0  0  0  0
   40.8210   27.3330   40.5000 H   0  0  0  0  0  0  0  0  0  0  0  0
   40.8820   26.1670   41.9470 H   0  0  0  0  0  0  0  0  0  0  0  0
   40.7460   25.5410   38.9960 H   0  0  0  0  0  0  0  0  0  0  0  0
   41.5470   24.6060   40.3180 H   0  0  0  0  0  0  0  0  0  0  0  0
   38.7630   24.4880   39.2110 H   0  0  0  0  0  0  0  0  0  0  0  0
   39.6070   23.3460   40.4150 H   0  0  0  0  0  0  0  0  0  0  0  0
   39.1350   24.6620   42.2590 H   0  0  0  0  0  0  0  0  0  0  0  0
   37.2470   24.6230   41.2850 C   0  0  0  0  0  0  0  0  0  0  0  0
   37.2490   23.2100   41.2450 F   0  0  0  0  0  0  0  0  0  0  0  0
   36.6190   24.8860   42.5070 F   0  0  0  0  0  0  0  0  0  0  0  0
   36.5320   25.0340   40.2050 F   0  0  0  0  0  0  0  0  0  0  0  0
   35.7650   30.9230   41.2190 N   0  0  0  0  0  0  0  0  0  0  0  0
   35.1460   30.9910   42.0650 H   0  0  0  0  0  0  0  0  0  0  0  0
   35.8380   31.6150   40.4610 H   0  0  0  0  0  0  0  0  0  0  0  0
  1  2  1  0  0  0  0
  2  3  2  0  0  0  0
  3 13  1  0  0  0  0
  4  3  1  0  0  0  0
  5  4  2  0  0  0  0
  6  1  2  0  0  0  0
  6  5  1  0  0  0  0
  7  5  1  0  0  0  0
  7 11  1  0  0  0  0
  8  7  1  0  0  0  0
  8 15  1  0  0  0  0
  9 10  1  0  0  0  0
  9 17  1  0  0  0  0
  9  8  1  0  0  0  0
 10 19  1  0  0  0  0
 10 11  1  0  0  0  0
 11 20  1  1  0  0  0
 12  1  1  0  0  0  0
 14  8  1  0  0  0  0
 16  9  1  0  0  0  0
 18 10  1  0  0  0  0
 21 11  1  0  0  0  0
 21 23  1  0  0  0  0
 22 21  1  0  0  0  0
 24 21  1  0  0  0  0
 25  2  1  0  0  0  0
 25 26  1  0  0  0  0
 27 25  1  0  0  0  0
M  END
>  <minimizedAffinity>
-4.67359495

$$$$

 OpenBabel03252506323D

 27 28  0  0  1  0  0  0  0  0999 V2000
   38.3800   30.7310   37.4970 C   0  0  0  0  0  0  0  0  0  0  0  0
   37.1860   30.1850   36.9990 C   0  0  0  0  0  0  0  0  0  0  0  0
   36.2960   29.6160   37.8770 C   0  0  0  0  0  0  0  0  0  0  0  0
   36.6500   29.6240   39.1840 N   0  0  0  0  0  0  0  0  0  0  0  0
   37.7820   30.1420   39.6540 C   0  0  0  0  0  0  0  0  0  0  0  0
   38.6550   30.6990   38.8150 N   0  0  0  0  0  0  0  0  0  0  0  0
   38.0050   30.0750   41.0510 N   0  0  0  0  0  0  0  0  0  0  0  0
   39.0360   30.8480   41.7460 C   0  0  0  0  0  0  0  0  0  0  0  0
   39.5570   29.8530   42.7490 C   0  0  0  0  0  0  0  0  0  0  0  0
   38.5580   28.7030   42.7890 C   0  0  0  0  0  0  0  0  0  0  0  0
   37.3700   29.3270   42.0830 C   0  0  2  0  0  0  0  0  0  0  0  0
   39.1220   31.1940   36.8630 H   0  0  0  0  0  0  0  0  0  0  0  0
   35.3910   29.2070   37.4630 H   0  0  0  0  0  0  0  0  0  0  0  0
   39.8100   31.2350   41.0710 H   0  0  0  0  0  0  0  0  0  0  0  0
   38.4810   31.6340   42.3080 H   0  0  0  0  0  0  0  0  0  0  0  0
   40.5020   29.3910   42.3360 H   0  0  0  0  0  0  0  0  0  0  0  0
   39.7690   30.2740   43.7310 H   0  0  0  0  0  0  0  0  0  0  0  0
   38.8940   27.8100   42.2650 H   0  0  0  0  0  0  0  0  0  0  0  0
   38.2300   28.5490   43.8400 H   0  0  0  0  0  0  0  0  0  0  0  0
   36.8390   30.0460   42.7550 H   0  0  0  0  0  0  0  0  0  0  0  0
   36.4250   28.2540   41.6930 C   0  0  0  0  0  0  0  0  0  0  0  0
   36.0380   27.6400   42.9060 F   0  0  0  0  0  0  0  0  0  0  0  0
   35.2140   28.7690   41.2200 F   0  0  0  0  0  0  0  0  0  0  0  0
   36.9380   27.2660   40.9130 F   0  0  0  0  0  0  0  0  0  0  0  0
   37.0070   30.2840   35.5740 N   0  0  0  0  0  0  0  0  0  0  0  0
   36.0030   30.4700   35.3300 H   0  0  0  0  0  0  0  0  0  0  0  0
   37.7860   30.1780   34.9110 H   0  0  0  0  0  0  0  0  0  0  0  0
  1  6  1  0  0  0  0
  2  1  2  0  0  0  0
  2  3  1  0  0  0  0
  3  4  2  0  0  0  0
  4  5  1  0  0  0  0
  5  7  1  0  0  0  0
  6  5  2  0  0  0  0
  7  8  1  0  0  0  0
  7 11  1  0  0  0  0
  8 15  1  0  0  0  0
  8  9  1  0  0  0  0
  9 10  1  0  0  0  0
  9 17  1  0  0  0  0
 10 19  1  0  0  0  0
 11 20  1  1  0  0  0
 11 10  1  0  0  0  0
 12  1  1  0  0  0  0
 13  3  1  0  0  0  0
 14  8  1  0  0  0  0
 16  9  1  0  0  0  0
 18 10  1  0  0  0  0
 21 11  1  0  0  0  0
 21 22  1  0  0  0  0
 23 21  1  0  0  0  0
 24 21  1  0  0  0  0
 25  2  1  0  0  0  0
 26 25  1  0  0  0  0
 27 25  1  0  0  0  0
M  END
>  <minimizedAffinity>
-4.66665363

$$$$

 OpenBabel03252506323D

 27 28  0  0  1  0  0  0  0  0999 V2000
   37.9430   29.0610   43.4080 C   0  0  0  0  0  0  0  0  0  0  0  0
   36.8720   28.3770   42.8120 C   0  0  0  0  0  0  0  0  0  0  0  0
   36.5820   28.6120   41.4900 C   0  0  0  0  0  0  0  0  0  0  0  0
   37.3710   29.5090   40.8510 N   0  0  0  0  0  0  0  0  0  0  0  0
   38.3860   30.1570   41.4170 C   0  0  0  0  0  0  0  0  0  0  0  0
   38.6800   29.9380   42.6990 N   0  0  0  0  0  0  0  0  0  0  0  0
   39.1190   31.0620   40.6120 N   0  0  0  0  0  0  0  0  0  0  0  0
   40.4210   31.6150   40.9920 C   0  0  0  0  0  0  0  0  0  0  0  0
   40.3070   33.0430   40.5270 C   0  0  0  0  0  0  0  0  0  0  0  0
   39.0920   33.1130   39.6110 C   0  0  0  0  0  0  0  0  0  0  0  0
   38.8480   31.6410   39.3400 C   0  0  2  0  0  0  0  0  0  0  0  0
   38.2250   28.9230   44.4410 H   0  0  0  0  0  0  0  0  0  0  0  0
   35.7550   28.0720   41.0650 H   0  0  0  0  0  0  0  0  0  0  0  0
   40.6310   31.5190   42.0640 H   0  0  0  0  0  0  0  0  0  0  0  0
   41.1580   31.1030   40.3310 H   0  0  0  0  0  0  0  0  0  0  0  0
   40.0290   33.6860   41.4130 H   0  0  0  0  0  0  0  0  0  0  0  0
   41.2140   33.4410   40.0720 H   0  0  0  0  0  0  0  0  0  0  0  0
   38.2190   33.5710   40.0730 H   0  0  0  0  0  0  0  0  0  0  0  0
   39.4020   33.5470   38.6350 H   0  0  0  0  0  0  0  0  0  0  0  0
   39.5960   31.2410   38.6110 H   0  0  0  0  0  0  0  0  0  0  0  0
   37.4910   31.4760   38.7680 C   0  0  0  0  0  0  0  0  0  0  0  0
   37.4630   32.3130   37.6290 F   0  0  0  0  0  0  0  0  0  0  0  0
   37.3090   30.2070   38.2090 F   0  0  0  0  0  0  0  0  0  0  0  0
   36.4610   31.8760   39.5600 F   0  0  0  0  0  0  0  0  0  0  0  0
   36.1640   27.4670   43.6730 N   0  0  0  0  0  0  0  0  0  0  0  0
   35.8660   26.6050   43.1510 H   0  0  0  0  0  0  0  0  0  0  0  0
   35.9890   27.6670   44.6660 H   0  0  0  0  0  0  0  0  0  0  0  0
  1 12  1  0  0  0  0
  2  1  1  0  0  0  0
  2 25  1  0  0  0  0
  3  2  2  0  0  0  0
  4  5  2  0  0  0  0
  4  3  1  0  0  0  0
  5  6  1  0  0  0  0
  6  1  2  0  0  0  0
  7  8  1  0  0  0  0
  7  5  1  0  0  0  0
  8 14  1  0  0  0  0
  9  8  1  0  0  0  0
  9 16  1  0  0  0  0
 10 18  1  0  0  0  0
 10  9  1  0  0  0  0
 11 20  1  6  0  0  0
 11 10  1  0  0  0  0
 11  7  1  0  0  0  0
 13  3  1  0  0  0  0
 15  8  1  0  0  0  0
 17  9  1  0  0  0  0
 19 10  1  0  0  0  0
 21 11  1  0  0  0  0
 21 24  1  0  0  0  0
 22 21  1  0  0  0  0
 23 21  1  0  0  0  0
 25 27  1  0  0  0  0
 26 25  1  0  0  0  0
M  END
>  <minimizedAffinity>
-4.60035992

$$$$
