
 OpenBabel03242523553D

 41 43  0  0  1  0  0  0  0  0999 V2000
   42.8140   34.5390   38.7480 C   0  0  1  0  0  0  0  0  0  0  0  0
   42.9340   35.1840   40.1190 C   0  0  1  0  0  0  0  0  0  0  0  0
   41.6360   35.3790   40.6300 O   0  0  0  0  0  0  0  0  0  0  0  0
   40.7100   35.7180   39.6340 C   0  0  0  0  0  0  0  0  0  0  0  0
   40.4340   34.5540   38.7070 C   0  0  2  0  0  0  0  0  0  0  0  0
   41.6600   33.5950   38.8380 C   0  0  1  0  0  0  0  0  0  0  0  0
   43.7640   34.0190   38.5050 H   0  0  0  0  0  0  0  0  0  0  0  0
   43.4910   36.1360   40.1000 H   0  0  0  0  0  0  0  0  0  0  0  0
   41.0040   36.6320   39.0930 H   0  0  0  0  0  0  0  0  0  0  0  0
   39.7800   35.9380   40.1650 H   0  0  0  0  0  0  0  0  0  0  0  0
   39.5120   34.0060   38.9680 H   0  0  0  0  0  0  0  0  0  0  0  0
   41.4450   33.2940   39.9160 H   0  0  0  0  0  0  0  0  0  0  0  0
   42.5890   35.5090   37.7560 O   0  0  0  0  0  0  0  0  0  0  0  0
   43.1390   36.3180   37.9870 H   0  0  0  0  0  0  0  0  0  0  0  0
   40.4510   34.9830   37.3900 O   0  0  0  0  0  0  0  0  0  0  0  0
   40.5250   34.2560   36.7410 H   0  0  0  0  0  0  0  0  0  0  0  0
   43.4820   34.1950   40.9490 O   0  0  0  0  0  0  0  0  0  0  0  0
   44.5850   34.3410   41.6910 C   0  0  0  0  0  0  0  0  0  0  0  0
   45.8460   34.4380   41.0970 C   0  0  0  0  0  0  0  0  0  0  0  0
   46.9620   34.5900   41.8970 C   0  0  0  0  0  0  0  0  0  0  0  0
   46.7970   34.6400   43.2730 N   0  0  0  0  0  0  0  0  0  0  0  0
   45.5630   34.5420   43.8160 C   0  0  0  0  0  0  0  0  0  0  0  0
   44.4660   34.3930   43.0280 N   0  0  0  0  0  0  0  0  0  0  0  0
   45.9410   34.3960   40.0330 H   0  0  0  0  0  0  0  0  0  0  0  0
   45.4390   34.5800   44.8800 H   0  0  0  0  0  0  0  0  0  0  0  0
   48.3430   34.6810   41.3280 C   0  0  0  0  0  0  0  0  0  0  0  0
   49.0710   36.0110   41.5040 C   0  0  0  0  0  0  0  0  0  0  0  0
   49.4910   34.6880   42.1780 C   0  0  0  0  0  0  0  0  0  0  0  0
   48.3920   34.2410   40.2980 H   0  0  0  0  0  0  0  0  0  0  0  0
   49.7150   36.2930   40.6680 H   0  0  0  0  0  0  0  0  0  0  0  0
   48.5260   36.7580   42.0970 H   0  0  0  0  0  0  0  0  0  0  0  0
   50.4650   34.2690   41.9080 H   0  0  0  0  0  0  0  0  0  0  0  0
   49.3440   34.7260   43.2850 H   0  0  0  0  0  0  0  0  0  0  0  0
   41.5530   32.6580   37.8730 O   0  0  0  0  0  0  0  0  0  0  0  0
   40.9750   31.4590   37.8560 C   0  0  0  0  0  0  0  0  0  0  0  0
   39.6890   31.2920   37.5650 O   0  0  0  0  0  0  0  0  0  0  0  0
   42.9330   28.6960   38.8310 H   0  0  0  0  0  0  0  0  0  0  0  0
   42.6920   29.7420   38.7110 C   0  0  0  0  0  0  0  0  0  0  0  0
   43.4550   30.6650   39.0880 O   0  0  0  0  0  0  0  0  0  0  0  0
   41.4700   30.1040   38.1040 N   0  0  0  0  0  0  0  0  0  0  0  0
   40.8710   29.3160   37.8080 H   0  0  0  0  0  0  0  0  0  0  0  0
  1  7  1  6  0  0  0
  1  6  1  0  0  0  0
  1  2  1  0  0  0  0
  2  8  1  6  0  0  0
  2  3  1  0  0  0  0
  2 17  1  0  0  0  0
  4 10  1  0  0  0  0
  4  3  1  0  0  0  0
  5  6  1  0  0  0  0
  5 11  1  1  0  0  0
  5  4  1  0  0  0  0
  6 12  1  1  0  0  0
  9  4  1  0  0  0  0
 13 14  1  0  0  0  0
 13  1  1  0  0  0  0
 15  5  1  0  0  0  0
 16 15  1  0  0  0  0
 17 18  1  0  0  0  0
 18 23  1  0  0  0  0
 19 18  2  0  0  0  0
 19 20  1  0  0  0  0
 20 21  2  0  0  0  0
 21 22  1  0  0  0  0
 22 25  1  0  0  0  0
 23 22  2  0  0  0  0
 24 19  1  0  0  0  0
 26 27  1  0  0  0  0
 26 20  1  0  0  0  0
 26 28  1  0  0  0  0
 27 31  1  0  0  0  0
 27 28  1  0  0  0  0
 28 33  1  0  0  0  0
 29 26  1  0  0  0  0
 30 27  1  0  0  0  0
 32 28  1  0  0  0  0
 34  6  1  0  0  0  0
 35 34  1  0  0  0  0
 35 40  1  0  0  0  0
 36 35  2  0  0  0  0
 38 37  1  0  0  0  0
 38 39  2  0  0  0  0
 40 38  1  0  0  0  0
 41 40  1  0  0  0  0
M  END
>  <minimizedAffinity>
-5.77549744

>  <minimizedRMSD>
0.0776082724

$$$$
