
 OpenBabel03242523163D

 23 24  0  0  0  0  0  0  0  0999 V2000
   46.2640   34.4380   43.5260 C   0  0  0  0  0  0  0  0  0  0  0  0
   47.4430   33.9160   43.1180 C   0  0  0  0  0  0  0  0  0  0  0  0
   47.8820   32.8170   43.8510 C   0  0  0  0  0  0  0  0  0  0  0  0
   47.1010   32.3690   44.9020 N   0  0  0  0  0  0  0  0  0  0  0  0
   45.9440   32.9390   45.2500 C   0  0  0  0  0  0  0  0  0  0  0  0
   45.4830   34.0200   44.5500 N   0  0  0  0  0  0  0  0  0  0  0  0
   48.8040   32.2970   43.6390 H   0  0  0  0  0  0  0  0  0  0  0  0
   45.4760   32.4520   46.0940 H   0  0  0  0  0  0  0  0  0  0  0  0
   48.2710   34.4290   42.0910 C   0  0  0  0  0  0  0  0  0  0  0  0
   48.6240   35.7030   41.7840 C   0  0  0  0  0  0  0  0  0  0  0  0
   49.7420   34.9050   42.4590 C   0  0  0  0  0  0  0  0  0  0  0  0
   48.5880   33.5180   41.4100 H   0  0  0  0  0  0  0  0  0  0  0  0
   48.8750   36.0640   40.7430 H   0  0  0  0  0  0  0  0  0  0  0  0
   48.3650   36.5950   42.4130 H   0  0  0  0  0  0  0  0  0  0  0  0
   49.8850   34.9750   43.5370 H   0  0  0  0  0  0  0  0  0  0  0  0
   50.5690   34.6060   41.8400 H   0  0  0  0  0  0  0  0  0  0  0  0
   45.5180   35.5130   42.8550 C   0  0  0  0  0  0  0  0  0  0  0  0
   45.1240   36.6690   42.8570 O   0  0  0  0  0  0  0  0  0  0  0  0
   43.2670   34.5970   40.1890 H   0  0  0  0  0  0  0  0  0  0  0  0
   43.7090   35.0090   41.0790 C   0  0  0  0  0  0  0  0  0  0  0  0
   42.9030   35.7040   41.7360 O   0  0  0  0  0  0  0  0  0  0  0  0
   45.0340   34.9000   41.6270 N   0  0  0  0  0  0  0  0  0  0  0  0
   45.5210   34.2780   40.9100 H   0  0  0  0  0  0  0  0  0  0  0  0
  1  6  1  0  0  0  0
  2  1  2  0  0  0  0
  2  3  1  0  0  0  0
  3  4  2  0  0  0  0
  4  5  1  0  0  0  0
  5  8  1  0  0  0  0
  6  5  2  0  0  0  0
  7  3  1  0  0  0  0
  9 11  1  0  0  0  0
  9  2  1  0  0  0  0
 10  9  1  0  0  0  0
 10 14  1  0  0  0  0
 10 11  1  0  0  0  0
 11 15  1  0  0  0  0
 12  9  1  0  0  0  0
 13 10  1  0  0  0  0
 16 11  1  0  0  0  0
 17 18  2  0  0  0  0
 17  1  1  0  0  0  0
 19 20  1  0  0  0  0
 20 22  1  0  0  0  0
 20 21  2  0  0  0  0
 22 17  1  0  0  0  0
 23 22  1  0  0  0  0
M  END
>  <minimizedAffinity>
-4.38889408

>  <minimizedRMSD>
0.208656296

$$$$
