
 OpenBabel03242523553D

 41 43  0  0  1  0  0  0  0  0999 V2000
   42.8100   34.5480   38.7230 C   0  0  1  0  0  0  0  0  0  0  0  0
   42.9400   35.1770   40.1010 C   0  0  1  0  0  0  0  0  0  0  0  0
   41.6460   35.3650   40.6240 O   0  0  0  0  0  0  0  0  0  0  0  0
   40.7110   35.7150   39.6390 C   0  0  0  0  0  0  0  0  0  0  0  0
   40.4300   34.5610   38.7000 C   0  0  2  0  0  0  0  0  0  0  0  0
   41.6580   33.6020   38.8110 C   0  0  1  0  0  0  0  0  0  0  0  0
   43.7590   34.0320   38.4670 H   0  0  0  0  0  0  0  0  0  0  0  0
   43.4960   36.1300   40.0890 H   0  0  0  0  0  0  0  0  0  0  0  0
   41.0010   36.6350   39.1060 H   0  0  0  0  0  0  0  0  0  0  0  0
   39.7850   35.9270   40.1790 H   0  0  0  0  0  0  0  0  0  0  0  0
   39.5100   34.0090   38.9620 H   0  0  0  0  0  0  0  0  0  0  0  0
   41.4510   33.2890   39.8870 H   0  0  0  0  0  0  0  0  0  0  0  0
   42.5770   35.5290   37.7440 O   0  0  0  0  0  0  0  0  0  0  0  0
   43.1270   36.3360   37.9800 H   0  0  0  0  0  0  0  0  0  0  0  0
   40.4370   35.0060   37.3880 O   0  0  0  0  0  0  0  0  0  0  0  0
   40.5070   34.2860   36.7300 H   0  0  0  0  0  0  0  0  0  0  0  0
   43.4950   34.1800   40.9150 O   0  0  0  0  0  0  0  0  0  0  0  0
   44.5920   34.3240   41.6660 C   0  0  0  0  0  0  0  0  0  0  0  0
   45.8570   34.4290   41.0830 C   0  0  0  0  0  0  0  0  0  0  0  0
   46.9670   34.5790   41.8930 C   0  0  0  0  0  0  0  0  0  0  0  0
   46.7900   34.6220   43.2670 N   0  0  0  0  0  0  0  0  0  0  0  0
   45.5530   34.5170   43.8000 C   0  0  0  0  0  0  0  0  0  0  0  0
   44.4630   34.3690   43.0030 N   0  0  0  0  0  0  0  0  0  0  0  0
   45.9610   34.3930   40.0190 H   0  0  0  0  0  0  0  0  0  0  0  0
   45.4200   34.5490   44.8640 H   0  0  0  0  0  0  0  0  0  0  0  0
   48.3520   34.6770   41.3350 C   0  0  0  0  0  0  0  0  0  0  0  0
   49.0680   36.0140   41.5100 C   0  0  0  0  0  0  0  0  0  0  0  0
   49.4920   34.6990   42.1940 C   0  0  0  0  0  0  0  0  0  0  0  0
   48.4130   34.2320   40.3080 H   0  0  0  0  0  0  0  0  0  0  0  0
   49.7170   36.2960   40.6780 H   0  0  0  0  0  0  0  0  0  0  0  0
   48.5120   36.7600   42.0940 H   0  0  0  0  0  0  0  0  0  0  0  0
   50.4720   34.2850   41.9350 H   0  0  0  0  0  0  0  0  0  0  0  0
   49.3360   34.7420   43.3000 H   0  0  0  0  0  0  0  0  0  0  0  0
   41.5440   32.6760   37.8360 O   0  0  0  0  0  0  0  0  0  0  0  0
   41.0500   31.4400   37.8340 C   0  0  0  0  0  0  0  0  0  0  0  0
   39.7900   31.1780   37.5030 O   0  0  0  0  0  0  0  0  0  0  0  0
   43.2820   28.7890   38.4750 H   0  0  0  0  0  0  0  0  0  0  0  0
   42.9950   29.8040   38.2420 C   0  0  0  0  0  0  0  0  0  0  0  0
   43.8310   30.7220   38.0530 O   0  0  0  0  0  0  0  0  0  0  0  0
   41.6250   30.1300   38.1410 N   0  0  0  0  0  0  0  0  0  0  0  0
   40.9710   29.3470   38.3030 H   0  0  0  0  0  0  0  0  0  0  0  0
  1  7  1  6  0  0  0
  1  6  1  0  0  0  0
  1  2  1  0  0  0  0
  2  8  1  6  0  0  0
  2  3  1  0  0  0  0
  2 17  1  0  0  0  0
  4 10  1  0  0  0  0
  4  3  1  0  0  0  0
  5  6  1  0  0  0  0
  5 11  1  1  0  0  0
  5  4  1  0  0  0  0
  6 12  1  1  0  0  0
  9  4  1  0  0  0  0
 13 14  1  0  0  0  0
 13  1  1  0  0  0  0
 15  5  1  0  0  0  0
 16 15  1  0  0  0  0
 17 18  1  0  0  0  0
 18 23  1  0  0  0  0
 19 18  2  0  0  0  0
 19 20  1  0  0  0  0
 20 21  2  0  0  0  0
 21 22  1  0  0  0  0
 22 25  1  0  0  0  0
 23 22  2  0  0  0  0
 24 19  1  0  0  0  0
 26 27  1  0  0  0  0
 26 20  1  0  0  0  0
 26 28  1  0  0  0  0
 27 31  1  0  0  0  0
 27 28  1  0  0  0  0
 28 33  1  0  0  0  0
 29 26  1  0  0  0  0
 30 27  1  0  0  0  0
 32 28  1  0  0  0  0
 34  6  1  0  0  0  0
 35 34  1  0  0  0  0
 35 40  1  0  0  0  0
 36 35  2  0  0  0  0
 38 37  1  0  0  0  0
 39 38  2  0  0  0  0
 40 38  1  0  0  0  0
 40 41  1  0  0  0  0
M  END
>  <minimizedAffinity>
-5.78218794

>  <minimizedRMSD>
0.133158818

$$$$
