
 OpenBabel03242521293D

 31 32  0  0  1  0  0  0  0  0999 V2000
   39.0860   31.8340   38.3150 C   0  0  1  0  0  0  0  0  0  0  0  0
   40.0620   32.5700   39.2010 C   0  0  2  0  0  0  0  0  0  0  0  0
   39.5800   33.8020   39.5890 O   0  0  0  0  0  0  0  0  0  0  0  0
   38.5430   33.5610   40.4730 C   0  0  0  0  0  0  0  0  0  0  0  0
   37.3600   33.0430   39.6950 C   0  0  2  0  0  0  0  0  0  0  0  0
   37.6670   31.9220   38.7640 C   0  0  2  0  0  0  0  0  0  0  0  0
   39.4160   30.7560   38.3800 H   0  0  0  0  0  0  0  0  0  0  0  0
   40.2540   31.9530   40.0990 H   0  0  0  0  0  0  0  0  0  0  0  0
   38.2240   34.5420   40.8970 H   0  0  0  0  0  0  0  0  0  0  0  0
   38.8030   32.8930   41.2980 H   0  0  0  0  0  0  0  0  0  0  0  0
   36.5680   32.7860   40.4430 H   0  0  0  0  0  0  0  0  0  0  0  0
   37.0470   32.1020   37.8360 H   0  0  0  0  0  0  0  0  0  0  0  0
   43.1610   34.1540   37.6980 C   0  0  0  0  0  0  0  0  0  0  0  0
   41.9350   34.0260   38.3670 C   0  0  0  0  0  0  0  0  0  0  0  0
   41.3520   32.7360   38.5160 C   0  0  0  0  0  0  0  0  0  0  0  0
   42.0230   31.6870   37.9960 N   0  0  0  0  0  0  0  0  0  0  0  0
   43.2090   31.8400   37.3510 C   0  0  0  0  0  0  0  0  0  0  0  0
   43.7710   33.0630   37.2050 N   0  0  0  0  0  0  0  0  0  0  0  0
   43.4790   35.1870   37.6630 H   0  0  0  0  0  0  0  0  0  0  0  0
   41.3550   34.8280   38.8030 H   0  0  0  0  0  0  0  0  0  0  0  0
   43.7140   30.9720   36.9480 H   0  0  0  0  0  0  0  0  0  0  0  0
   39.2440   32.1660   36.9650 O   0  0  0  0  0  0  0  0  0  0  0  0
   39.3970   31.3950   36.3760 H   0  0  0  0  0  0  0  0  0  0  0  0
   36.8590   34.1590   39.0000 O   0  0  0  0  0  0  0  0  0  0  0  0
   36.3300   34.7230   39.6010 H   0  0  0  0  0  0  0  0  0  0  0  0
   37.2120   30.6740   39.2600 O   0  0  0  0  0  0  0  0  0  0  0  0
   36.9270   30.5080   40.5910 C   0  0  0  0  0  0  0  0  0  0  0  0
   37.7550   30.1060   41.4510 O   0  0  0  0  0  0  0  0  0  0  0  0
   35.6690   30.7620   41.2020 N   0  0  0  0  0  0  0  0  0  0  0  0
   35.4390   31.5770   41.8190 H   0  0  0  0  0  0  0  0  0  0  0  0
   34.6700   30.4500   41.3490 H   0  0  0  0  0  0  0  0  0  0  0  0
  1  7  1  1  0  0  0
  1  6  1  0  0  0  0
  1  2  1  0  0  0  0
  2  3  1  0  0  0  0
  2  8  1  1  0  0  0
  3  4  1  0  0  0  0
  4  9  1  0  0  0  0
  4 10  1  0  0  0  0
  5 11  1  1  0  0  0
  5  4  1  0  0  0  0
  6 12  1  6  0  0  0
  6 26  1  0  0  0  0
  6  5  1  0  0  0  0
 13 14  1  0  0  0  0
 14 15  2  0  0  0  0
 14 20  1  0  0  0  0
 15  2  1  0  0  0  0
 16 15  1  0  0  0  0
 17 16  2  0  0  0  0
 18 17  1  0  0  0  0
 18 13  2  0  0  0  0
 19 13  1  0  0  0  0
 21 17  1  0  0  0  0
 22  1  1  0  0  0  0
 23 22  1  0  0  0  0
 24 25  1  0  0  0  0
 24  5  1  0  0  0  0
 26 27  1  0  0  0  0
 27 29  1  0  0  0  0
 27 28  2  0  0  0  0
 29 31  1  0  0  0  0
 29 30  1  0  0  0  0
M  END
>  <minimizedAffinity>
-5.36377621

$$$$

 OpenBabel03242521293D

 31 32  0  0  1  0  0  0  0  0999 V2000
   38.4860   29.3880   41.8170 C   0  0  1  0  0  0  0  0  0  0  0  0
   37.9610   28.3460   40.8580 C   0  0  2  0  0  0  0  0  0  0  0  0
   36.6350   28.5570   40.5420 O   0  0  0  0  0  0  0  0  0  0  0  0
   36.5900   29.6930   39.7550 C   0  0  0  0  0  0  0  0  0  0  0  0
   36.8520   30.8940   40.6310 C   0  0  2  0  0  0  0  0  0  0  0  0
   38.0520   30.7790   41.5050 C   0  0  2  0  0  0  0  0  0  0  0  0
   39.6080   29.3270   41.6990 H   0  0  0  0  0  0  0  0  0  0  0  0
   38.5670   28.3830   39.9330 H   0  0  0  0  0  0  0  0  0  0  0  0
   35.5460   29.8090   39.3830 H   0  0  0  0  0  0  0  0  0  0  0  0
   37.2650   29.6710   38.8950 H   0  0  0  0  0  0  0  0  0  0  0  0
   36.8870   31.7860   39.9550 H   0  0  0  0  0  0  0  0  0  0  0  0
   37.7720   31.2570   42.4910 H   0  0  0  0  0  0  0  0  0  0  0  0
   37.2160   24.8230   42.0420 C   0  0  0  0  0  0  0  0  0  0  0  0
   37.0290   26.0970   41.4870 C   0  0  0  0  0  0  0  0  0  0  0  0
   38.1280   26.9990   41.4220 C   0  0  0  0  0  0  0  0  0  0  0  0
   39.3120   26.5720   41.9060 N   0  0  0  0  0  0  0  0  0  0  0  0
   39.4660   25.3310   42.4400 C   0  0  0  0  0  0  0  0  0  0  0  0
   38.4260   24.4670   42.5050 N   0  0  0  0  0  0  0  0  0  0  0  0
   36.2980   24.2520   42.0240 H   0  0  0  0  0  0  0  0  0  0  0  0
   36.1060   26.4930   41.0850 H   0  0  0  0  0  0  0  0  0  0  0  0
   40.4340   25.0280   42.8170 H   0  0  0  0  0  0  0  0  0  0  0  0
   38.2570   29.0400   43.1530 O   0  0  0  0  0  0  0  0  0  0  0  0
   39.0660   29.0220   43.7080 H   0  0  0  0  0  0  0  0  0  0  0  0
   35.6800   31.0560   41.3920 O   0  0  0  0  0  0  0  0  0  0  0  0
   34.9840   31.4870   40.8550 H   0  0  0  0  0  0  0  0  0  0  0  0
   39.1380   31.5560   41.0280 O   0  0  0  0  0  0  0  0  0  0  0  0
   38.9390   32.8290   40.5580 C   0  0  0  0  0  0  0  0  0  0  0  0
   38.9600   33.1490   39.3400 O   0  0  0  0  0  0  0  0  0  0  0  0
   38.6800   33.9730   41.3610 N   0  0  0  0  0  0  0  0  0  0  0  0
   37.7560   34.4560   41.4620 H   0  0  0  0  0  0  0  0  0  0  0  0
   39.0600   34.6970   42.0300 H   0  0  0  0  0  0  0  0  0  0  0  0
  1  7  1  6  0  0  0
  1 22  1  0  0  0  0
  2  8  1  6  0  0  0
  2 15  1  0  0  0  0
  2  1  1  0  0  0  0
  3  2  1  0  0  0  0
  4  3  1  0  0  0  0
  4  5  1  0  0  0  0
  5 11  1  6  0  0  0
  5 24  1  0  0  0  0
  5  6  1  0  0  0  0
  6  1  1  0  0  0  0
  6 12  1  1  0  0  0
  9  4  1  0  0  0  0
 10  4  1  0  0  0  0
 13 18  1  0  0  0  0
 14 13  2  0  0  0  0
 15 14  1  0  0  0  0
 15 16  2  0  0  0  0
 16 17  1  0  0  0  0
 17 18  2  0  0  0  0
 17 21  1  0  0  0  0
 19 13  1  0  0  0  0
 20 14  1  0  0  0  0
 22 23  1  0  0  0  0
 25 24  1  0  0  0  0
 26  6  1  0  0  0  0
 27 26  1  0  0  0  0
 27 29  1  0  0  0  0
 28 27  2  0  0  0  0
 29 30  1  0  0  0  0
 29 31  1  0  0  0  0
M  END
>  <minimizedAffinity>
-5.14123821

$$$$

 OpenBabel03242521293D

 31 32  0  0  1  0  0  0  0  0999 V2000
   37.0560   31.3350   40.3930 C   0  0  1  0  0  0  0  0  0  0  0  0
   38.0710   30.2180   40.3710 C   0  0  2  0  0  0  0  0  0  0  0  0
   38.1350   29.6020   39.1390 O   0  0  0  0  0  0  0  0  0  0  0  0
   38.7160   30.5100   38.2710 C   0  0  0  0  0  0  0  0  0  0  0  0
   37.7140   31.5980   37.9760 C   0  0  2  0  0  0  0  0  0  0  0  0
   37.0710   32.1980   39.1770 C   0  0  2  0  0  0  0  0  0  0  0  0
   37.3590   31.9630   41.2820 H   0  0  0  0  0  0  0  0  0  0  0  0
   39.0630   30.6400   40.6200 H   0  0  0  0  0  0  0  0  0  0  0  0
   38.8940   29.9870   37.3020 H   0  0  0  0  0  0  0  0  0  0  0  0
   39.6640   30.9240   38.6230 H   0  0  0  0  0  0  0  0  0  0  0  0
   38.2370   32.3550   37.3370 H   0  0  0  0  0  0  0  0  0  0  0  0
   35.9900   32.3810   38.8990 H   0  0  0  0  0  0  0  0  0  0  0  0
   37.1200   26.9620   42.0630 C   0  0  0  0  0  0  0  0  0  0  0  0
   37.4230   27.8860   41.0530 C   0  0  0  0  0  0  0  0  0  0  0  0
   37.7610   29.2220   41.4070 C   0  0  0  0  0  0  0  0  0  0  0  0
   37.7710   29.5340   42.7200 N   0  0  0  0  0  0  0  0  0  0  0  0
   37.4720   28.6180   43.6790 C   0  0  0  0  0  0  0  0  0  0  0  0
   37.1510   27.3460   43.3510 N   0  0  0  0  0  0  0  0  0  0  0  0
   36.8850   25.9920   41.6460 H   0  0  0  0  0  0  0  0  0  0  0  0
   37.4310   27.6930   39.9890 H   0  0  0  0  0  0  0  0  0  0  0  0
   37.4920   28.9100   44.7210 H   0  0  0  0  0  0  0  0  0  0  0  0
   35.7720   30.8770   40.7100 O   0  0  0  0  0  0  0  0  0  0  0  0
   35.3620   31.3300   41.4790 H   0  0  0  0  0  0  0  0  0  0  0  0
   36.7600   31.0020   37.1310 O   0  0  0  0  0  0  0  0  0  0  0  0
   37.1050   30.9470   36.2170 H   0  0  0  0  0  0  0  0  0  0  0  0
   37.5850   33.4860   39.4740 O   0  0  0  0  0  0  0  0  0  0  0  0
   38.7350   33.6320   40.2080 C   0  0  0  0  0  0  0  0  0  0  0  0
   39.8830   33.3130   39.8020 O   0  0  0  0  0  0  0  0  0  0  0  0
   38.8090   34.1610   41.5260 N   0  0  0  0  0  0  0  0  0  0  0  0
   39.1750   35.1070   41.7880 H   0  0  0  0  0  0  0  0  0  0  0  0
   38.6320   34.0130   42.5560 H   0  0  0  0  0  0  0  0  0  0  0  0
  1 22  1  0  0  0  0
  1  7  1  1  0  0  0
  2  1  1  0  0  0  0
  2  8  1  1  0  0  0
  2 15  1  0  0  0  0
  3  2  1  0  0  0  0
  4 10  1  0  0  0  0
  4  3  1  0  0  0  0
  5 11  1  6  0  0  0
  5  4  1  0  0  0  0
  5  6  1  0  0  0  0
  6 12  1  6  0  0  0
  6 26  1  0  0  0  0
  6  1  1  0  0  0  0
  9  4  1  0  0  0  0
 13 18  1  0  0  0  0
 14 15  1  0  0  0  0
 14 13  2  0  0  0  0
 15 16  2  0  0  0  0
 16 17  1  0  0  0  0
 17 21  1  0  0  0  0
 18 17  2  0  0  0  0
 19 13  1  0  0  0  0
 20 14  1  0  0  0  0
 22 23  1  0  0  0  0
 24  5  1  0  0  0  0
 25 24  1  0  0  0  0
 26 27  1  0  0  0  0
 27 29  1  0  0  0  0
 28 27  2  0  0  0  0
 29 30  1  0  0  0  0
 29 31  1  0  0  0  0
M  END
>  <minimizedAffinity>
-5.11607027

$$$$

 OpenBabel03242521293D

 31 32  0  0  1  0  0  0  0  0999 V2000
   39.3060   31.2170   40.9230 C   0  0  1  0  0  0  0  0  0  0  0  0
   38.3020   30.1340   40.6080 C   0  0  2  0  0  0  0  0  0  0  0  0
   37.0280   30.6380   40.4580 O   0  0  0  0  0  0  0  0  0  0  0  0
   37.0230   31.3600   39.2780 C   0  0  0  0  0  0  0  0  0  0  0  0
   37.7940   32.6380   39.4950 C   0  0  2  0  0  0  0  0  0  0  0  0
   39.1330   32.4610   40.1200 C   0  0  2  0  0  0  0  0  0  0  0  0
   40.3010   30.7540   40.6580 H   0  0  0  0  0  0  0  0  0  0  0  0
   38.6100   29.6320   39.6700 H   0  0  0  0  0  0  0  0  0  0  0  0
   35.9710   31.6680   39.0720 H   0  0  0  0  0  0  0  0  0  0  0  0
   37.3990   30.8080   38.4130 H   0  0  0  0  0  0  0  0  0  0  0  0
   37.8390   33.1610   38.5060 H   0  0  0  0  0  0  0  0  0  0  0  0
   39.2660   33.3270   40.8360 H   0  0  0  0  0  0  0  0  0  0  0  0
   37.1260   27.6450   43.2140 C   0  0  0  0  0  0  0  0  0  0  0  0
   37.0880   28.6150   42.2030 C   0  0  0  0  0  0  0  0  0  0  0  0
   38.3080   29.1070   41.6600 C   0  0  0  0  0  0  0  0  0  0  0  0
   39.4570   28.6040   42.1570 N   0  0  0  0  0  0  0  0  0  0  0  0
   39.4650   27.6640   43.1390 C   0  0  0  0  0  0  0  0  0  0  0  0
   38.3090   27.1910   43.6600 N   0  0  0  0  0  0  0  0  0  0  0  0
   36.1280   27.3680   43.5260 H   0  0  0  0  0  0  0  0  0  0  0  0
   36.2000   29.0530   41.7670 H   0  0  0  0  0  0  0  0  0  0  0  0
   40.4090   27.2870   43.5100 H   0  0  0  0  0  0  0  0  0  0  0  0
   39.3950   31.4720   42.2960 O   0  0  0  0  0  0  0  0  0  0  0  0
   40.3030   31.3920   42.6620 H   0  0  0  0  0  0  0  0  0  0  0  0
   36.9600   33.4400   40.2960 O   0  0  0  0  0  0  0  0  0  0  0  0
   36.2580   33.8500   39.7490 H   0  0  0  0  0  0  0  0  0  0  0  0
   40.1860   32.6110   39.1820 O   0  0  0  0  0  0  0  0  0  0  0  0
   40.2080   31.8730   38.0250 C   0  0  0  0  0  0  0  0  0  0  0  0
   40.6590   30.7010   37.9380 O   0  0  0  0  0  0  0  0  0  0  0  0
   39.7300   32.3120   36.7600 N   0  0  0  0  0  0  0  0  0  0  0  0
   38.8460   31.9960   36.2950 H   0  0  0  0  0  0  0  0  0  0  0  0
   39.8830   32.9240   35.9130 H   0  0  0  0  0  0  0  0  0  0  0  0
  1  7  1  6  0  0  0
  1 22  1  0  0  0  0
  2  8  1  6  0  0  0
  2  1  1  0  0  0  0
  2 15  1  0  0  0  0
  3  2  1  0  0  0  0
  4  5  1  0  0  0  0
  4  3  1  0  0  0  0
  5 11  1  6  0  0  0
  5  6  1  0  0  0  0
  5 24  1  0  0  0  0
  6 12  1  1  0  0  0
  6  1  1  0  0  0  0
  9  4  1  0  0  0  0
 10  4  1  0  0  0  0
 13 19  1  0  0  0  0
 13 18  1  0  0  0  0
 14 13  2  0  0  0  0
 15 16  2  0  0  0  0
 15 14  1  0  0  0  0
 16 17  1  0  0  0  0
 17 21  1  0  0  0  0
 17 18  2  0  0  0  0
 20 14  1  0  0  0  0
 22 23  1  0  0  0  0
 25 24  1  0  0  0  0
 26  6  1  0  0  0  0
 27 26  1  0  0  0  0
 28 27  2  0  0  0  0
 29 27  1  0  0  0  0
 30 29  1  0  0  0  0
 31 29  1  0  0  0  0
M  END
>  <minimizedAffinity>
-5.09948778

$$$$

 OpenBabel03242521293D

 31 32  0  0  1  0  0  0  0  0999 V2000
   39.4660   31.2260   40.1110 C   0  0  1  0  0  0  0  0  0  0  0  0
   37.9950   31.0090   39.8520 C   0  0  2  0  0  0  0  0  0  0  0  0
   37.2170   31.9830   40.4410 O   0  0  0  0  0  0  0  0  0  0  0  0
   37.4440   33.1520   39.7380 C   0  0  0  0  0  0  0  0  0  0  0  0
   38.8210   33.6610   40.0860 C   0  0  2  0  0  0  0  0  0  0  0  0
   39.9050   32.6450   39.9870 C   0  0  2  0  0  0  0  0  0  0  0  0
   39.9780   30.6210   39.3060 H   0  0  0  0  0  0  0  0  0  0  0  0
   37.8260   31.0200   38.7580 H   0  0  0  0  0  0  0  0  0  0  0  0
   36.7300   33.9210   40.1160 H   0  0  0  0  0  0  0  0  0  0  0  0
   37.3130   33.0590   38.6570 H   0  0  0  0  0  0  0  0  0  0  0  0
   39.0050   34.5610   39.4450 H   0  0  0  0  0  0  0  0  0  0  0  0
   40.6040   32.8430   40.8540 H   0  0  0  0  0  0  0  0  0  0  0  0
   37.2260   27.2990   39.9620 C   0  0  0  0  0  0  0  0  0  0  0  0
   37.6420   28.5480   39.4790 C   0  0  0  0  0  0  0  0  0  0  0  0
   37.5780   29.6840   40.3330 C   0  0  0  0  0  0  0  0  0  0  0  0
   37.1110   29.4950   41.5840 N   0  0  0  0  0  0  0  0  0  0  0  0
   36.7130   28.2740   42.0270 C   0  0  0  0  0  0  0  0  0  0  0  0
   36.7720   27.1880   41.2210 N   0  0  0  0  0  0  0  0  0  0  0  0
   37.3330   26.5330   39.2050 H   0  0  0  0  0  0  0  0  0  0  0  0
   38.0240   28.7580   38.4880 H   0  0  0  0  0  0  0  0  0  0  0  0
   36.3440   28.1660   43.0390 H   0  0  0  0  0  0  0  0  0  0  0  0
   39.8840   30.6380   41.3100 O   0  0  0  0  0  0  0  0  0  0  0  0
   40.6320   30.0100   41.2090 H   0  0  0  0  0  0  0  0  0  0  0  0
   38.7090   34.1610   41.3960 O   0  0  0  0  0  0  0  0  0  0  0  0
   38.2870   35.0440   41.3860 H   0  0  0  0  0  0  0  0  0  0  0  0
   40.7090   32.8300   38.8330 O   0  0  0  0  0  0  0  0  0  0  0  0
   40.4790   32.1040   37.6920 C   0  0  0  0  0  0  0  0  0  0  0  0
   41.1730   31.1210   37.3220 O   0  0  0  0  0  0  0  0  0  0  0  0
   39.4320   32.3450   36.7600 N   0  0  0  0  0  0  0  0  0  0  0  0
   38.5680   31.7650   36.6450 H   0  0  0  0  0  0  0  0  0  0  0  0
   39.0520   32.9520   35.9840 H   0  0  0  0  0  0  0  0  0  0  0  0
  1  7  1  6  0  0  0
  1 22  1  0  0  0  0
  2  8  1  6  0  0  0
  2  1  1  0  0  0  0
  2 15  1  0  0  0  0
  2  3  1  0  0  0  0
  4  5  1  0  0  0  0
  4  9  1  0  0  0  0
  4  3  1  0  0  0  0
  5 11  1  6  0  0  0
  5 24  1  0  0  0  0
  6  5  1  0  0  0  0
  6  1  1  0  0  0  0
  6 12  1  1  0  0  0
 10  4  1  0  0  0  0
 13 18  1  0  0  0  0
 14 13  2  0  0  0  0
 14 15  1  0  0  0  0
 15 16  2  0  0  0  0
 16 17  1  0  0  0  0
 17 21  1  0  0  0  0
 18 17  2  0  0  0  0
 19 13  1  0  0  0  0
 20 14  1  0  0  0  0
 23 22  1  0  0  0  0
 25 24  1  0  0  0  0
 26  6  1  0  0  0  0
 27 26  1  0  0  0  0
 28 27  2  0  0  0  0
 29 27  1  0  0  0  0
 30 29  1  0  0  0  0
 31 29  1  0  0  0  0
M  END
>  <minimizedAffinity>
-5.03842497

$$$$

 OpenBabel03242521293D

 31 32  0  0  1  0  0  0  0  0999 V2000
   37.5300   27.9570   40.7710 C   0  0  1  0  0  0  0  0  0  0  0  0
   38.0490   29.3090   41.1980 C   0  0  2  0  0  0  0  0  0  0  0  0
   37.4650   29.7400   42.3700 O   0  0  0  0  0  0  0  0  0  0  0  0
   37.9570   28.9320   43.3800 C   0  0  0  0  0  0  0  0  0  0  0  0
   37.3270   27.5680   43.2520 C   0  0  2  0  0  0  0  0  0  0  0  0
   37.3880   26.9780   41.8860 C   0  0  2  0  0  0  0  0  0  0  0  0
   38.3170   27.5750   40.0570 H   0  0  0  0  0  0  0  0  0  0  0  0
   39.1440   29.2350   41.3420 H   0  0  0  0  0  0  0  0  0  0  0  0
   37.5970   29.3450   44.3510 H   0  0  0  0  0  0  0  0  0  0  0  0
   39.0470   28.8680   43.4120 H   0  0  0  0  0  0  0  0  0  0  0  0
   37.8010   26.9180   44.0310 H   0  0  0  0  0  0  0  0  0  0  0  0
   36.4010   26.4490   41.7260 H   0  0  0  0  0  0  0  0  0  0  0  0
   37.0890   32.5120   39.4130 C   0  0  0  0  0  0  0  0  0  0  0  0
   37.3030   31.5900   40.4470 C   0  0  0  0  0  0  0  0  0  0  0  0
   37.8260   30.3030   40.1380 C   0  0  0  0  0  0  0  0  0  0  0  0
   38.0930   30.0340   38.8430 N   0  0  0  0  0  0  0  0  0  0  0  0
   37.8750   30.9470   37.8600 C   0  0  0  0  0  0  0  0  0  0  0  0
   37.3780   32.1730   38.1450 N   0  0  0  0  0  0  0  0  0  0  0  0
   36.6910   33.4420   39.7960 H   0  0  0  0  0  0  0  0  0  0  0  0
   37.1080   31.7490   41.4990 H   0  0  0  0  0  0  0  0  0  0  0  0
   38.1030   30.6910   36.8330 H   0  0  0  0  0  0  0  0  0  0  0  0
   36.3710   28.0580   39.9930 O   0  0  0  0  0  0  0  0  0  0  0  0
   36.4350   27.6150   39.1190 H   0  0  0  0  0  0  0  0  0  0  0  0
   35.9960   27.7350   43.6750 O   0  0  0  0  0  0  0  0  0  0  0  0
   35.9530   27.7630   44.6530 H   0  0  0  0  0  0  0  0  0  0  0  0
   38.3620   25.9510   41.7890 O   0  0  0  0  0  0  0  0  0  0  0  0
   38.0680   24.6650   42.1630 C   0  0  0  0  0  0  0  0  0  0  0  0
   36.9540   24.1070   41.9760 O   0  0  0  0  0  0  0  0  0  0  0  0
   38.9630   23.7700   42.8110 N   0  0  0  0  0  0  0  0  0  0  0  0
   39.4380   22.9490   42.3670 H   0  0  0  0  0  0  0  0  0  0  0  0
   39.4650   23.5010   43.7000 H   0  0  0  0  0  0  0  0  0  0  0  0
  1  7  1  6  0  0  0
  1  2  1  0  0  0  0
  1  6  1  0  0  0  0
  2  8  1  1  0  0  0
  2  3  1  0  0  0  0
  3  4  1  0  0  0  0
  4 10  1  0  0  0  0
  4  9  1  0  0  0  0
  5  4  1  0  0  0  0
  5 24  1  0  0  0  0
  5 11  1  1  0  0  0
  6 12  1  6  0  0  0
  6  5  1  0  0  0  0
 13 19  1  0  0  0  0
 13 14  1  0  0  0  0
 14 20  1  0  0  0  0
 15 14  2  0  0  0  0
 15  2  1  0  0  0  0
 16 15  1  0  0  0  0
 17 18  1  0  0  0  0
 17 16  2  0  0  0  0
 18 13  2  0  0  0  0
 21 17  1  0  0  0  0
 22  1  1  0  0  0  0
 23 22  1  0  0  0  0
 24 25  1  0  0  0  0
 26  6  1  0  0  0  0
 26 27  1  0  0  0  0
 27 29  1  0  0  0  0
 28 27  2  0  0  0  0
 29 31  1  0  0  0  0
 30 29  1  0  0  0  0
M  END
>  <minimizedAffinity>
-4.94901466

$$$$

 OpenBabel03242521293D

 31 32  0  0  1  0  0  0  0  0999 V2000
   38.4100   29.5880   40.4580 C   0  0  1  0  0  0  0  0  0  0  0  0
   37.7410   28.2660   40.7480 C   0  0  2  0  0  0  0  0  0  0  0  0
   36.5270   28.4280   41.3820 O   0  0  0  0  0  0  0  0  0  0  0  0
   35.6610   28.9690   40.4490 C   0  0  0  0  0  0  0  0  0  0  0  0
   36.0410   30.4120   40.2220 C   0  0  2  0  0  0  0  0  0  0  0  0
   37.4860   30.6410   39.9480 C   0  0  2  0  0  0  0  0  0  0  0  0
   39.1590   29.3450   39.6490 H   0  0  0  0  0  0  0  0  0  0  0  0
   37.5840   27.7350   39.7890 H   0  0  0  0  0  0  0  0  0  0  0  0
   34.6430   28.9890   40.9020 H   0  0  0  0  0  0  0  0  0  0  0  0
   35.6120   28.4160   39.5080 H   0  0  0  0  0  0  0  0  0  0  0  0
   35.3750   30.7980   39.4090 H   0  0  0  0  0  0  0  0  0  0  0  0
   37.7620   31.5980   40.4830 H   0  0  0  0  0  0  0  0  0  0  0  0
   40.3220   25.6810   41.7600 C   0  0  0  0  0  0  0  0  0  0  0  0
   39.5080   26.4890   40.9540 C   0  0  0  0  0  0  0  0  0  0  0  0
   38.6170   27.4150   41.5650 C   0  0  0  0  0  0  0  0  0  0  0  0
   38.6040   27.4660   42.9140 N   0  0  0  0  0  0  0  0  0  0  0  0
   39.4040   26.6710   43.6720 C   0  0  0  0  0  0  0  0  0  0  0  0
   40.2540   25.7880   43.0980 N   0  0  0  0  0  0  0  0  0  0  0  0
   40.9440   25.0310   41.1590 H   0  0  0  0  0  0  0  0  0  0  0  0
   39.4760   26.4900   39.8720 H   0  0  0  0  0  0  0  0  0  0  0  0
   39.3620   26.7440   44.7510 H   0  0  0  0  0  0  0  0  0  0  0  0
   39.1890   30.0320   41.5330 O   0  0  0  0  0  0  0  0  0  0  0  0
   40.1250   30.2180   41.3010 H   0  0  0  0  0  0  0  0  0  0  0  0
   35.6300   31.0880   41.3850 O   0  0  0  0  0  0  0  0  0  0  0  0
   34.6640   31.2450   41.3610 H   0  0  0  0  0  0  0  0  0  0  0  0
   37.7350   30.9140   38.5780 O   0  0  0  0  0  0  0  0  0  0  0  0
   38.6400   31.8750   38.2060 C   0  0  0  0  0  0  0  0  0  0  0  0
   39.2210   32.6530   39.0070 O   0  0  0  0  0  0  0  0  0  0  0  0
   39.0580   32.1410   36.8730 N   0  0  0  0  0  0  0  0  0  0  0  0
   39.9860   31.8880   36.4600 H   0  0  0  0  0  0  0  0  0  0  0  0
   38.8200   32.5520   35.9300 H   0  0  0  0  0  0  0  0  0  0  0  0
  1  7  1  6  0  0  0
  1  2  1  0  0  0  0
  1 22  1  0  0  0  0
  2  8  1  6  0  0  0
  2  3  1  0  0  0  0
  2 15  1  0  0  0  0
  4  9  1  0  0  0  0
  4  3  1  0  0  0  0
  5 11  1  6  0  0  0
  5  4  1  0  0  0  0
  5 24  1  0  0  0  0
  6  5  1  0  0  0  0
  6  1  1  0  0  0  0
  6 12  1  1  0  0  0
 10  4  1  0  0  0  0
 13 18  1  0  0  0  0
 14 15  1  0  0  0  0
 14 13  2  0  0  0  0
 15 16  2  0  0  0  0
 16 17  1  0  0  0  0
 17 21  1  0  0  0  0
 18 17  2  0  0  0  0
 19 13  1  0  0  0  0
 20 14  1  0  0  0  0
 23 22  1  0  0  0  0
 25 24  1  0  0  0  0
 26  6  1  0  0  0  0
 27 26  1  0  0  0  0
 27 28  2  0  0  0  0
 29 27  1  0  0  0  0
 30 29  1  0  0  0  0
 31 29  1  0  0  0  0
M  END
>  <minimizedAffinity>
-4.94406271

$$$$

 OpenBabel03242521293D

 31 32  0  0  1  0  0  0  0  0999 V2000
   36.5130   29.7680   40.2250 C   0  0  1  0  0  0  0  0  0  0  0  0
   36.8800   29.7860   38.7600 C   0  0  2  0  0  0  0  0  0  0  0  0
   36.8970   31.0660   38.2470 O   0  0  0  0  0  0  0  0  0  0  0  0
   37.9900   31.7030   38.8060 C   0  0  0  0  0  0  0  0  0  0  0  0
   37.6850   31.9980   40.2530 C   0  0  2  0  0  0  0  0  0  0  0  0
   37.1660   30.8390   41.0300 C   0  0  2  0  0  0  0  0  0  0  0  0
   36.8870   28.7670   40.5880 H   0  0  0  0  0  0  0  0  0  0  0  0
   37.8830   29.3330   38.6440 H   0  0  0  0  0  0  0  0  0  0  0  0
   38.0960   32.6950   38.3080 H   0  0  0  0  0  0  0  0  0  0  0  0
   38.9310   31.1580   38.6980 H   0  0  0  0  0  0  0  0  0  0  0  0
   38.6130   32.4410   40.6960 H   0  0  0  0  0  0  0  0  0  0  0  0
   36.3710   31.2520   41.7210 H   0  0  0  0  0  0  0  0  0  0  0  0
   34.4640   28.6320   36.0760 C   0  0  0  0  0  0  0  0  0  0  0  0
   35.3610   29.4440   36.7860 C   0  0  0  0  0  0  0  0  0  0  0  0
   35.9470   28.9540   37.9870 C   0  0  0  0  0  0  0  0  0  0  0  0
   35.6010   27.7130   38.3860 N   0  0  0  0  0  0  0  0  0  0  0  0
   34.7280   26.9470   37.6790 C   0  0  0  0  0  0  0  0  0  0  0  0
   34.1670   27.4050   36.5360 N   0  0  0  0  0  0  0  0  0  0  0  0
   34.1030   29.1340   35.1890 H   0  0  0  0  0  0  0  0  0  0  0  0
   35.6740   30.4430   36.5150 H   0  0  0  0  0  0  0  0  0  0  0  0
   34.4780   25.9560   38.0350 H   0  0  0  0  0  0  0  0  0  0  0  0
   35.1290   29.7160   40.4220 O   0  0  0  0  0  0  0  0  0  0  0  0
   34.8300   28.9650   40.9790 H   0  0  0  0  0  0  0  0  0  0  0  0
   36.7530   33.0520   40.2260 O   0  0  0  0  0  0  0  0  0  0  0  0
   37.2080   33.9020   40.0560 H   0  0  0  0  0  0  0  0  0  0  0  0
   38.1460   30.2950   41.9000 O   0  0  0  0  0  0  0  0  0  0  0  0
   37.8820   29.1720   42.6420 C   0  0  0  0  0  0  0  0  0  0  0  0
   38.4710   28.0680   42.4950 O   0  0  0  0  0  0  0  0  0  0  0  0
   36.9150   29.0790   43.6800 N   0  0  0  0  0  0  0  0  0  0  0  0
   37.1180   29.0400   44.7060 H   0  0  0  0  0  0  0  0  0  0  0  0
   35.8940   29.0200   43.9440 H   0  0  0  0  0  0  0  0  0  0  0  0
  1 22  1  0  0  0  0
  1  7  1  1  0  0  0
  1  6  1  0  0  0  0
  2  8  1  6  0  0  0
  2  1  1  0  0  0  0
  3  2  1  0  0  0  0
  3  4  1  0  0  0  0
  4  5  1  0  0  0  0
  5 11  1  1  0  0  0
  5  6  1  0  0  0  0
  6 12  1  1  0  0  0
  6 26  1  0  0  0  0
  9  4  1  0  0  0  0
 10  4  1  0  0  0  0
 13 18  2  0  0  0  0
 13 14  1  0  0  0  0
 14 15  2  0  0  0  0
 15 16  1  0  0  0  0
 15  2  1  0  0  0  0
 17 21  1  0  0  0  0
 17 16  2  0  0  0  0
 18 17  1  0  0  0  0
 19 13  1  0  0  0  0
 20 14  1  0  0  0  0
 22 23  1  0  0  0  0
 24  5  1  0  0  0  0
 25 24  1  0  0  0  0
 26 27  1  0  0  0  0
 27 29  1  0  0  0  0
 28 27  2  0  0  0  0
 29 31  1  0  0  0  0
 29 30  1  0  0  0  0
M  END
>  <minimizedAffinity>
-4.83011389

$$$$

 OpenBabel03242521293D

 31 32  0  0  1  0  0  0  0  0999 V2000
   37.4670   29.7130   41.9760 C   0  0  1  0  0  0  0  0  0  0  0  0
   38.0680   28.5860   41.1710 C   0  0  2  0  0  0  0  0  0  0  0  0
   37.1100   27.8800   40.4750 O   0  0  0  0  0  0  0  0  0  0  0  0
   36.6530   28.7150   39.4710 C   0  0  0  0  0  0  0  0  0  0  0  0
   35.7970   29.7900   40.0930 C   0  0  2  0  0  0  0  0  0  0  0  0
   36.4130   30.4830   41.2570 C   0  0  2  0  0  0  0  0  0  0  0  0
   38.3400   30.4010   42.1780 H   0  0  0  0  0  0  0  0  0  0  0  0
   38.7970   29.0150   40.4560 H   0  0  0  0  0  0  0  0  0  0  0  0
   35.9720   28.1210   38.8180 H   0  0  0  0  0  0  0  0  0  0  0  0
   37.4440   29.1440   38.8490 H   0  0  0  0  0  0  0  0  0  0  0  0
   35.5080   30.4910   39.2690 H   0  0  0  0  0  0  0  0  0  0  0  0
   35.5780   30.6570   42.0000 H   0  0  0  0  0  0  0  0  0  0  0  0
   40.7550   27.1760   43.4430 C   0  0  0  0  0  0  0  0  0  0  0  0
   40.0560   28.0730   42.6230 C   0  0  0  0  0  0  0  0  0  0  0  0
   38.8190   27.6730   42.0450 C   0  0  0  0  0  0  0  0  0  0  0  0
   38.3770   26.4280   42.3200 N   0  0  0  0  0  0  0  0  0  0  0  0
   39.0760   25.5770   43.1180 C   0  0  0  0  0  0  0  0  0  0  0  0
   40.2530   25.9500   43.6720 N   0  0  0  0  0  0  0  0  0  0  0  0
   41.6720   27.6160   43.8100 H   0  0  0  0  0  0  0  0  0  0  0  0
   40.3600   29.0800   42.3680 H   0  0  0  0  0  0  0  0  0  0  0  0
   38.6860   24.5870   43.3130 H   0  0  0  0  0  0  0  0  0  0  0  0
   37.0540   29.2930   43.2460 O   0  0  0  0  0  0  0  0  0  0  0  0
   37.4460   29.8060   43.9860 H   0  0  0  0  0  0  0  0  0  0  0  0
   34.6020   29.1430   40.4590 O   0  0  0  0  0  0  0  0  0  0  0  0
   34.0320   29.0160   39.6730 H   0  0  0  0  0  0  0  0  0  0  0  0
   36.8710   31.7840   40.9250 O   0  0  0  0  0  0  0  0  0  0  0  0
   38.1680   31.9940   40.5320 C   0  0  0  0  0  0  0  0  0  0  0  0
   39.0650   32.4790   41.2700 O   0  0  0  0  0  0  0  0  0  0  0  0
   38.6960   31.7000   39.2450 N   0  0  0  0  0  0  0  0  0  0  0  0
   39.3340   30.9020   39.0110 H   0  0  0  0  0  0  0  0  0  0  0  0
   38.7540   31.9630   38.2240 H   0  0  0  0  0  0  0  0  0  0  0  0
  1  7  1  1  0  0  0
  1 22  1  0  0  0  0
  2  8  1  6  0  0  0
  2  1  1  0  0  0  0
  2 15  1  0  0  0  0
  3  2  1  0  0  0  0
  4  5  1  0  0  0  0
  4  3  1  0  0  0  0
  5 11  1  6  0  0  0
  5 24  1  0  0  0  0
  5  6  1  0  0  0  0
  6  1  1  0  0  0  0
  6 12  1  1  0  0  0
  9  4  1  0  0  0  0
 10  4  1  0  0  0  0
 13 18  1  0  0  0  0
 13 19  1  0  0  0  0
 14 13  2  0  0  0  0
 15 16  2  0  0  0  0
 15 14  1  0  0  0  0
 16 17  1  0  0  0  0
 17 21  1  0  0  0  0
 17 18  2  0  0  0  0
 20 14  1  0  0  0  0
 22 23  1  0  0  0  0
 25 24  1  0  0  0  0
 26  6  1  0  0  0  0
 27 26  1  0  0  0  0
 27 28  2  0  0  0  0
 29 27  1  0  0  0  0
 30 29  1  0  0  0  0
 31 29  1  0  0  0  0
M  END
>  <minimizedAffinity>
-4.82254314

$$$$
