
 OpenBabel03242520283D

 37 38  0  0  0  0  0  0  0  0999 V2000
   45.0600   35.6970   43.4920 C   0  0  0  0  0  0  0  0  0  0  0  0
   45.9970   34.6260   43.5760 C   0  0  0  0  0  0  0  0  0  0  0  0
   46.1080   33.9640   44.7870 C   0  0  0  0  0  0  0  0  0  0  0  0
   45.3390   34.3440   45.8330 N   0  0  0  0  0  0  0  0  0  0  0  0
   44.4600   35.3560   45.7330 C   0  0  0  0  0  0  0  0  0  0  0  0
   44.3250   36.0210   44.5760 N   0  0  0  0  0  0  0  0  0  0  0  0
   44.9510   36.2280   42.5680 H   0  0  0  0  0  0  0  0  0  0  0  0
   43.8680   35.6240   46.5970 H   0  0  0  0  0  0  0  0  0  0  0  0
   46.7290   34.3510   42.3870 N   0  0  0  0  0  0  0  0  0  0  0  0
   47.9170   35.0860   42.0160 C   0  0  0  0  0  0  0  0  0  0  0  0
   48.5290   34.4800   40.7850 C   0  0  0  0  0  0  0  0  0  0  0  0
   47.5800   34.3050   39.7100 N   0  0  0  0  0  0  0  0  0  0  0  0
   46.3640   33.6560   40.0830 C   0  0  0  0  0  0  0  0  0  0  0  0
   46.2440   33.2810   41.5210 C   0  0  0  0  0  0  0  0  0  0  0  0
   48.6580   34.9550   42.8410 H   0  0  0  0  0  0  0  0  0  0  0  0
   47.7380   36.1490   41.8260 H   0  0  0  0  0  0  0  0  0  0  0  0
   49.3020   35.1850   40.4330 H   0  0  0  0  0  0  0  0  0  0  0  0
   49.0180   33.5180   41.0640 H   0  0  0  0  0  0  0  0  0  0  0  0
   47.3290   35.2790   39.3680 H   0  0  0  0  0  0  0  0  0  0  0  0
   45.4380   34.1920   39.7680 H   0  0  0  0  0  0  0  0  0  0  0  0
   46.3100   32.6860   39.5070 H   0  0  0  0  0  0  0  0  0  0  0  0
   46.9240   32.4020   41.7020 H   0  0  0  0  0  0  0  0  0  0  0  0
   45.2210   32.9820   41.7380 H   0  0  0  0  0  0  0  0  0  0  0  0
   47.0270   32.9300   44.8350 O   0  0  0  0  0  0  0  0  0  0  0  0
   45.5580   30.7310   44.6000 O   0  0  0  0  0  0  0  0  0  0  0  0
   46.5680   31.4230   45.5340 P   0  0  1  0  0  0  0  0  0  0  0  0
   47.9290   30.5000   45.7400 O   0  0  0  0  0  0  0  0  0  0  0  0
   48.5120   29.7130   44.7610 C   0  0  0  0  0  0  0  0  0  0  0  0
   48.9080   30.4350   43.7870 O   0  0  0  0  0  0  0  0  0  0  0  0
   48.7160   28.3260   44.6930 N   0  0  0  0  0  0  0  0  0  0  0  0
   48.0280   28.0090   43.9640 H   0  0  0  0  0  0  0  0  0  0  0  0
   49.3140   27.6100   45.1370 H   0  0  0  0  0  0  0  0  0  0  0  0
   45.7760   31.7800   46.9780 O   0  0  0  0  0  0  0  0  0  0  0  0
   46.6500   31.9390   48.0290 C   0  0  0  0  0  0  0  0  0  0  0  0
   47.7120   32.7670   47.7460 F   0  0  0  0  0  0  0  0  0  0  0  0
   47.1310   30.7760   48.5710 F   0  0  0  0  0  0  0  0  0  0  0  0
   45.8980   32.5610   49.0370 F   0  0  0  0  0  0  0  0  0  0  0  0
  1  2  2  0  0  0  0
  1  6  1  0  0  0  0
  2  3  1  0  0  0  0
  3 24  1  0  0  0  0
  3  4  2  0  0  0  0
  5  4  1  0  0  0  0
  5  8  1  0  0  0  0
  6  5  2  0  0  0  0
  7  1  1  0  0  0  0
  9  2  1  0  0  0  0
 10  9  1  0  0  0  0
 10 15  1  0  0  0  0
 11 18  1  0  0  0  0
 11 10  1  0  0  0  0
 12 13  1  0  0  0  0
 12 11  1  0  0  0  0
 13 14  1  0  0  0  0
 14 22  1  0  0  0  0
 14 23  1  0  0  0  0
 14  9  1  0  0  0  0
 16 10  1  0  0  0  0
 17 11  1  0  0  0  0
 19 12  1  0  0  0  0
 20 13  1  0  0  0  0
 21 13  1  0  0  0  0
 24 26  1  0  0  0  0
 26 25  2  6  0  0  0
 26 27  1  0  0  0  0
 26 33  1  0  0  0  0
 28 27  1  0  0  0  0
 29 28  2  0  0  0  0
 30 28  1  0  0  0  0
 30 32  1  0  0  0  0
 31 30  1  0  0  0  0
 33 34  1  0  0  0  0
 34 36  1  0  0  0  0
 34 37  1  0  0  0  0
 35 34  1  0  0  0  0
M  END
>  <minimizedAffinity>
-4.85209179

>  <minimizedRMSD>
0.687313497

$$$$
