
 OpenBabel03242523553D

 41 43  0  0  1  0  0  0  0  0999 V2000
   42.8140   34.5120   38.7460 C   0  0  1  0  0  0  0  0  0  0  0  0
   42.9550   35.1730   40.1080 C   0  0  1  0  0  0  0  0  0  0  0  0
   41.6650   35.3940   40.6270 O   0  0  0  0  0  0  0  0  0  0  0  0
   40.7350   35.7340   39.6350 C   0  0  0  0  0  0  0  0  0  0  0  0
   40.4340   34.5620   38.7260 C   0  0  2  0  0  0  0  0  0  0  0  0
   41.6480   33.5860   38.8590 C   0  0  1  0  0  0  0  0  0  0  0  0
   43.7540   33.9750   38.5020 H   0  0  0  0  0  0  0  0  0  0  0  0
   43.5260   36.1160   40.0710 H   0  0  0  0  0  0  0  0  0  0  0  0
   41.0370   36.6360   39.0790 H   0  0  0  0  0  0  0  0  0  0  0  0
   39.8130   35.9730   40.1710 H   0  0  0  0  0  0  0  0  0  0  0  0
   39.5060   34.0300   39.0020 H   0  0  0  0  0  0  0  0  0  0  0  0
   41.4370   33.3030   39.9430 H   0  0  0  0  0  0  0  0  0  0  0  0
   42.5940   35.4720   37.7430 O   0  0  0  0  0  0  0  0  0  0  0  0
   43.1580   36.2750   37.9590 H   0  0  0  0  0  0  0  0  0  0  0  0
   40.4460   34.9730   37.4030 O   0  0  0  0  0  0  0  0  0  0  0  0
   40.5040   34.2360   36.7630 H   0  0  0  0  0  0  0  0  0  0  0  0
   43.4960   34.1880   40.9460 O   0  0  0  0  0  0  0  0  0  0  0  0
   44.5980   34.3320   41.6900 C   0  0  0  0  0  0  0  0  0  0  0  0
   45.8590   34.4380   41.0970 C   0  0  0  0  0  0  0  0  0  0  0  0
   46.9740   34.5880   41.8990 C   0  0  0  0  0  0  0  0  0  0  0  0
   46.8070   34.6300   43.2750 N   0  0  0  0  0  0  0  0  0  0  0  0
   45.5740   34.5250   43.8160 C   0  0  0  0  0  0  0  0  0  0  0  0
   44.4780   34.3770   43.0270 N   0  0  0  0  0  0  0  0  0  0  0  0
   45.9560   34.4020   40.0330 H   0  0  0  0  0  0  0  0  0  0  0  0
   45.4490   34.5570   44.8810 H   0  0  0  0  0  0  0  0  0  0  0  0
   48.3550   34.6870   41.3320 C   0  0  0  0  0  0  0  0  0  0  0  0
   49.0750   36.0220   41.5080 C   0  0  0  0  0  0  0  0  0  0  0  0
   49.5020   34.7030   42.1830 C   0  0  0  0  0  0  0  0  0  0  0  0
   48.4080   34.2470   40.3020 H   0  0  0  0  0  0  0  0  0  0  0  0
   49.7180   36.3070   40.6720 H   0  0  0  0  0  0  0  0  0  0  0  0
   48.5240   36.7660   42.1000 H   0  0  0  0  0  0  0  0  0  0  0  0
   50.4790   34.2890   41.9150 H   0  0  0  0  0  0  0  0  0  0  0  0
   49.3540   34.7410   43.2900 H   0  0  0  0  0  0  0  0  0  0  0  0
   41.5180   32.6380   37.9080 O   0  0  0  0  0  0  0  0  0  0  0  0
   40.8660   31.4780   37.8890 C   0  0  0  0  0  0  0  0  0  0  0  0
   39.6070   31.3750   37.4760 O   0  0  0  0  0  0  0  0  0  0  0  0
   40.8880   28.2120   39.2150 H   0  0  0  0  0  0  0  0  0  0  0  0
   40.4870   29.1970   39.0190 C   0  0  0  0  0  0  0  0  0  0  0  0
   39.3680   29.5740   39.4480 O   0  0  0  0  0  0  0  0  0  0  0  0
   41.2420   30.1110   38.2520 N   0  0  0  0  0  0  0  0  0  0  0  0
   42.1550   29.7620   37.9190 H   0  0  0  0  0  0  0  0  0  0  0  0
  1  7  1  6  0  0  0
  1  6  1  0  0  0  0
  1  2  1  0  0  0  0
  2  8  1  6  0  0  0
  2  3  1  0  0  0  0
  2 17  1  0  0  0  0
  4 10  1  0  0  0  0
  4  3  1  0  0  0  0
  5  6  1  0  0  0  0
  5 11  1  1  0  0  0
  5  4  1  0  0  0  0
  6 12  1  1  0  0  0
  9  4  1  0  0  0  0
 13 14  1  0  0  0  0
 13  1  1  0  0  0  0
 15  5  1  0  0  0  0
 16 15  1  0  0  0  0
 17 18  1  0  0  0  0
 18 23  1  0  0  0  0
 19 18  2  0  0  0  0
 19 20  1  0  0  0  0
 20 21  2  0  0  0  0
 21 22  1  0  0  0  0
 22 25  1  0  0  0  0
 23 22  2  0  0  0  0
 24 19  1  0  0  0  0
 26 27  1  0  0  0  0
 26 20  1  0  0  0  0
 26 28  1  0  0  0  0
 27 31  1  0  0  0  0
 27 28  1  0  0  0  0
 28 33  1  0  0  0  0
 29 26  1  0  0  0  0
 30 27  1  0  0  0  0
 32 28  1  0  0  0  0
 34  6  1  0  0  0  0
 35 34  1  0  0  0  0
 35 40  1  0  0  0  0
 36 35  2  0  0  0  0
 38 37  1  0  0  0  0
 38 39  2  0  0  0  0
 40 38  1  0  0  0  0
 41 40  1  0  0  0  0
M  END
>  <minimizedAffinity>
-5.88321638

>  <minimizedRMSD>
0.109399125

$$$$
