
 OpenBabel03242521583D

 29 30  0  0  0  0  0  0  0  0999 V2000
   46.9280   34.9090   42.2090 C   0  0  0  0  0  0  0  0  0  0  0  0
   48.1220   35.5890   42.0780 C   0  0  0  0  0  0  0  0  0  0  0  0
   48.9340   35.5670   40.9480 C   0  0  0  0  0  0  0  0  0  0  0  0
   48.5170   34.8080   39.8740 C   0  0  0  0  0  0  0  0  0  0  0  0
   47.3460   34.1500   40.0160 C   0  0  0  0  0  0  0  0  0  0  0  0
   46.5940   34.1960   41.1160 N   0  0  0  0  0  0  0  0  0  0  0  0
   48.3860   36.1720   42.9780 H   0  0  0  0  0  0  0  0  0  0  0  0
   49.8300   36.1760   41.0620 H   0  0  0  0  0  0  0  0  0  0  0  0
   49.2690   34.8960   39.1120 H   0  0  0  0  0  0  0  0  0  0  0  0
   44.4610   35.7390   44.9180 C   0  0  0  0  0  0  0  0  0  0  0  0
   45.1430   35.8640   43.7050 C   0  0  0  0  0  0  0  0  0  0  0  0
   46.1160   34.9450   43.4110 C   0  0  0  0  0  0  0  0  0  0  0  0
   46.3580   33.9550   44.3330 N   0  0  0  0  0  0  0  0  0  0  0  0
   45.6920   33.8500   45.4940 C   0  0  0  0  0  0  0  0  0  0  0  0
   44.7420   34.7470   45.7840 N   0  0  0  0  0  0  0  0  0  0  0  0
   43.6890   36.4940   45.1190 H   0  0  0  0  0  0  0  0  0  0  0  0
   44.9700   36.6290   42.9710 H   0  0  0  0  0  0  0  0  0  0  0  0
   45.9380   33.0440   46.1710 H   0  0  0  0  0  0  0  0  0  0  0  0
   46.9110   33.3870   38.9470 O   0  0  0  0  0  0  0  0  0  0  0  0
   48.0660   34.6340   36.9280 O   0  0  0  0  0  0  0  0  0  0  0  0
   47.7820   33.2630   37.4770 P   0  0  1  0  0  0  0  0  0  0  0  0
   49.2170   32.4440   37.7630 O   0  0  0  0  0  0  0  0  0  0  0  0
   49.1910   31.4860   37.5910 H   0  0  0  0  0  0  0  0  0  0  0  0
   46.7870   32.4120   36.3720 O   0  0  0  0  0  0  0  0  0  0  0  0
   45.4110   32.5410   36.3700 C   0  0  0  0  0  0  0  0  0  0  0  0
   44.5560   31.6670   36.1800 O   0  0  0  0  0  0  0  0  0  0  0  0
   45.0470   33.9110   36.6360 N   0  0  0  0  0  0  0  0  0  0  0  0
   45.0970   34.0280   37.6830 H   0  0  0  0  0  0  0  0  0  0  0  0
   44.7520   34.8940   36.4160 H   0  0  0  0  0  0  0  0  0  0  0  0
  1 12  1  0  0  0  0
  2  1  1  0  0  0  0
  2  7  1  0  0  0  0
  3  8  1  0  0  0  0
  3  2  2  0  0  0  0
  4  5  2  0  0  0  0
  4  3  1  0  0  0  0
  5  6  1  0  0  0  0
  6  1  2  0  0  0  0
  9  4  1  0  0  0  0
 10 16  1  0  0  0  0
 10 15  1  0  0  0  0
 11 10  2  0  0  0  0
 12 11  1  0  0  0  0
 12 13  2  0  0  0  0
 13 14  1  0  0  0  0
 14 15  2  0  0  0  0
 14 18  1  0  0  0  0
 17 11  1  0  0  0  0
 19  5  1  0  0  0  0
 21 20  2  6  0  0  0
 21 22  1  0  0  0  0
 21 19  1  0  0  0  0
 23 22  1  0  0  0  0
 24 21  1  0  0  0  0
 25 24  1  0  0  0  0
 25 27  1  0  0  0  0
 26 25  2  0  0  0  0
 27 28  1  0  0  0  0
 29 27  1  0  0  0  0
M  END
>  <minimizedAffinity>
-5.55945635

>  <minimizedRMSD>
1.16131246

$$$$
