
 OpenBabel03242523173D

 23 24  0  0  0  0  0  0  0  0999 V2000
   45.9260   35.0220   43.4760 C   0  0  0  0  0  0  0  0  0  0  0  0
   47.0510   34.6180   42.8450 C   0  0  0  0  0  0  0  0  0  0  0  0
   47.4840   33.3380   43.1820 C   0  0  0  0  0  0  0  0  0  0  0  0
   46.7520   32.6150   44.1060 N   0  0  0  0  0  0  0  0  0  0  0  0
   45.6470   33.0820   44.6930 C   0  0  0  0  0  0  0  0  0  0  0  0
   45.1920   34.3350   44.3840 N   0  0  0  0  0  0  0  0  0  0  0  0
   48.3650   32.8830   42.7560 H   0  0  0  0  0  0  0  0  0  0  0  0
   45.2110   32.3760   45.3860 H   0  0  0  0  0  0  0  0  0  0  0  0
   47.8340   35.3950   41.9590 C   0  0  0  0  0  0  0  0  0  0  0  0
   49.1410   35.2970   41.6060 C   0  0  0  0  0  0  0  0  0  0  0  0
   48.1770   34.8080   40.5230 C   0  0  0  0  0  0  0  0  0  0  0  0
   47.1570   36.2870   41.5840 H   0  0  0  0  0  0  0  0  0  0  0  0
   49.7860   36.1710   41.2920 H   0  0  0  0  0  0  0  0  0  0  0  0
   49.8150   34.4570   41.9180 H   0  0  0  0  0  0  0  0  0  0  0  0
   47.9320   33.7480   40.4520 H   0  0  0  0  0  0  0  0  0  0  0  0
   48.0650   35.4290   39.6530 H   0  0  0  0  0  0  0  0  0  0  0  0
   45.1890   36.2670   43.2150 C   0  0  0  0  0  0  0  0  0  0  0  0
   45.0780   37.4710   43.3880 O   0  0  0  0  0  0  0  0  0  0  0  0
   43.2130   34.2310   40.9840 H   0  0  0  0  0  0  0  0  0  0  0  0
   43.9780   34.6150   41.6390 C   0  0  0  0  0  0  0  0  0  0  0  0
   44.9270   33.8130   41.7860 O   0  0  0  0  0  0  0  0  0  0  0  0
   44.0910   35.8590   42.3510 N   0  0  0  0  0  0  0  0  0  0  0  0
   43.1890   36.3570   42.0740 H   0  0  0  0  0  0  0  0  0  0  0  0
  1  6  1  0  0  0  0
  2  3  1  0  0  0  0
  2  1  2  0  0  0  0
  3  4  2  0  0  0  0
  4  5  1  0  0  0  0
  5  8  1  0  0  0  0
  6  5  2  0  0  0  0
  7  3  1  0  0  0  0
  9  2  1  0  0  0  0
 10 14  1  0  0  0  0
 10  9  1  0  0  0  0
 11 10  1  0  0  0  0
 11  9  1  0  0  0  0
 12  9  1  0  0  0  0
 13 10  1  0  0  0  0
 15 11  1  0  0  0  0
 16 11  1  0  0  0  0
 17 18  2  0  0  0  0
 17  1  1  0  0  0  0
 19 20  1  0  0  0  0
 20 21  2  0  0  0  0
 20 22  1  0  0  0  0
 22 17  1  0  0  0  0
 23 22  1  0  0  0  0
M  END
>  <minimizedAffinity>
-4.48572779

>  <minimizedRMSD>
1.20453596

$$$$
