
 OpenBabel03252509193D

 39 41  0  0  1  0  0  0  0  0999 V2000
   47.6590   29.3110   47.6910 C   0  0  1  0  0  0  0  0  0  0  0  0
   47.5420   28.3150   46.6030 C   0  0  0  0  0  0  0  0  0  0  0  0
   48.8060   27.5490   46.3210 C   0  0  0  0  0  0  0  0  0  0  0  0
   49.5040   27.0880   47.5710 C   0  0  0  0  0  0  0  0  0  0  0  0
   49.5870   28.1670   48.6170 C   0  0  0  0  0  0  0  0  0  0  0  0
   49.1540   29.5100   48.0280 C   0  0  2  0  0  0  0  0  0  0  0  0
   47.2400   28.8690   48.6100 H   0  0  0  0  0  0  0  0  0  0  0  0
   47.3040   28.8630   45.6470 H   0  0  0  0  0  0  0  0  0  0  0  0
   46.7270   27.5990   46.7910 H   0  0  0  0  0  0  0  0  0  0  0  0
   48.5030   26.6450   45.7590 H   0  0  0  0  0  0  0  0  0  0  0  0
   49.5030   28.1010   45.6690 H   0  0  0  0  0  0  0  0  0  0  0  0
   50.4620   26.6370   47.3250 H   0  0  0  0  0  0  0  0  0  0  0  0
   48.8680   26.2630   48.0070 H   0  0  0  0  0  0  0  0  0  0  0  0
   48.9210   27.9670   49.4830 H   0  0  0  0  0  0  0  0  0  0  0  0
   50.6430   28.2580   48.9340 H   0  0  0  0  0  0  0  0  0  0  0  0
   49.7120   29.7250   47.0930 H   0  0  0  0  0  0  0  0  0  0  0  0
   46.0310   32.7480   46.1970 C   0  0  0  0  0  0  0  0  0  0  0  0
   45.6860   32.5370   47.5290 C   0  0  0  0  0  0  0  0  0  0  0  0
   46.1570   31.4410   48.1320 C   0  0  0  0  0  0  0  0  0  0  0  0
   46.9790   30.5350   47.4230 C   0  0  0  0  0  0  0  0  0  0  0  0
   47.0890   31.2960   45.7710 S   0  0  0  0  0  0  0  0  0  0  0  0
   45.0580   33.2390   48.0590 H   0  0  0  0  0  0  0  0  0  0  0  0
   45.9970   31.1180   49.1470 H   0  0  0  0  0  0  0  0  0  0  0  0
   44.5130   35.8880   44.9070 C   0  0  0  0  0  0  0  0  0  0  0  0
   45.0880   35.9570   43.6370 C   0  0  0  0  0  0  0  0  0  0  0  0
   45.9660   34.9250   43.2760 C   0  0  0  0  0  0  0  0  0  0  0  0
   46.2080   33.9180   44.1780 N   0  0  0  0  0  0  0  0  0  0  0  0
   45.6190   33.9160   45.3830 C   0  0  0  0  0  0  0  0  0  0  0  0
   44.7650   34.9030   45.7580 N   0  0  0  0  0  0  0  0  0  0  0  0
   43.8240   36.6780   45.2200 H   0  0  0  0  0  0  0  0  0  0  0  0
   44.8880   36.7560   42.9370 H   0  0  0  0  0  0  0  0  0  0  0  0
   46.4600   34.8890   42.3150 H   0  0  0  0  0  0  0  0  0  0  0  0
   49.3000   30.5500   49.0490 C   0  0  0  0  0  0  0  0  0  0  0  0
   48.8740   30.4170   50.2120 O   0  0  0  0  0  0  0  0  0  0  0  0
   50.9570   33.5450   49.8760 H   0  0  0  0  0  0  0  0  0  0  0  0
   50.6490   32.5090   50.0530 C   0  0  0  0  0  0  0  0  0  0  0  0
   50.9340   31.8100   51.0400 O   0  0  0  0  0  0  0  0  0  0  0  0
   49.8520   31.8250   49.1280 N   0  0  0  0  0  0  0  0  0  0  0  0
   49.6080   32.3860   48.3100 H   0  0  0  0  0  0  0  0  0  0  0  0
  1  6  1  0  0  0  0
  1  7  1  1  0  0  0
  2  9  1  0  0  0  0
  2  1  1  0  0  0  0
  3  2  1  0  0  0  0
  3  4  1  0  0  0  0
  4 13  1  0  0  0  0
  4  5  1  0  0  0  0
  5 15  1  0  0  0  0
  5 14  1  0  0  0  0
  6 16  1  6  0  0  0
  6  5  1  0  0  0  0
  6 33  1  0  0  0  0
  8  2  1  0  0  0  0
 10  3  1  0  0  0  0
 11  3  1  0  0  0  0
 12  4  1  0  0  0  0
 17 18  2  0  0  0  0
 18 22  1  0  0  0  0
 18 19  1  0  0  0  0
 19 23  1  0  0  0  0
 20  1  1  0  0  0  0
 20 19  2  0  0  0  0
 21 17  1  0  0  0  0
 21 20  1  0  0  0  0
 24 30  1  0  0  0  0
 24 29  1  0  0  0  0
 25 24  2  0  0  0  0
 26 25  1  0  0  0  0
 26 27  2  0  0  0  0
 27 28  1  0  0  0  0
 28 29  2  0  0  0  0
 28 17  1  0  0  0  0
 31 25  1  0  0  0  0
 32 26  1  0  0  0  0
 33 38  1  0  0  0  0
 33 34  2  0  0  0  0
 35 36  1  0  0  0  0
 36 37  2  0  0  0  0
 38 36  1  0  0  0  0
 39 38  1  0  0  0  0
M  END
>  <minimizedAffinity>
-5.24180603

>  <minimizedRMSD>
1.0414989

$$$$
