
 OpenBabel03242523553D

 41 43  0  0  1  0  0  0  0  0999 V2000
   42.8160   34.4920   38.7700 C   0  0  1  0  0  0  0  0  0  0  0  0
   42.9620   35.1760   40.1200 C   0  0  1  0  0  0  0  0  0  0  0  0
   41.6730   35.4180   40.6340 O   0  0  0  0  0  0  0  0  0  0  0  0
   40.7470   35.7470   39.6350 C   0  0  0  0  0  0  0  0  0  0  0  0
   40.4360   34.5610   38.7470 C   0  0  2  0  0  0  0  0  0  0  0  0
   41.6420   33.5780   38.8980 C   0  0  1  0  0  0  0  0  0  0  0  0
   43.7520   33.9430   38.5370 H   0  0  0  0  0  0  0  0  0  0  0  0
   43.5410   36.1140   40.0670 H   0  0  0  0  0  0  0  0  0  0  0  0
   41.0570   36.6360   39.0630 H   0  0  0  0  0  0  0  0  0  0  0  0
   39.8270   36.0040   40.1660 H   0  0  0  0  0  0  0  0  0  0  0  0
   39.5040   34.0430   39.0320 H   0  0  0  0  0  0  0  0  0  0  0  0
   41.4280   33.3170   39.9870 H   0  0  0  0  0  0  0  0  0  0  0  0
   42.6050   35.4350   37.7500 O   0  0  0  0  0  0  0  0  0  0  0  0
   43.1750   36.2380   37.9510 H   0  0  0  0  0  0  0  0  0  0  0  0
   40.4530   34.9490   37.4170 O   0  0  0  0  0  0  0  0  0  0  0  0
   40.5050   34.2000   36.7900 H   0  0  0  0  0  0  0  0  0  0  0  0
   43.4940   34.2020   40.9760 O   0  0  0  0  0  0  0  0  0  0  0  0
   44.6010   34.3480   41.7110 C   0  0  0  0  0  0  0  0  0  0  0  0
   45.8580   34.4500   41.1100 C   0  0  0  0  0  0  0  0  0  0  0  0
   46.9790   34.6020   41.9040 C   0  0  0  0  0  0  0  0  0  0  0  0
   46.8210   34.6480   43.2810 N   0  0  0  0  0  0  0  0  0  0  0  0
   45.5910   34.5460   43.8310 C   0  0  0  0  0  0  0  0  0  0  0  0
   44.4900   34.3970   43.0500 N   0  0  0  0  0  0  0  0  0  0  0  0
   45.9480   34.4100   40.0460 H   0  0  0  0  0  0  0  0  0  0  0  0
   45.4740   34.5810   44.8970 H   0  0  0  0  0  0  0  0  0  0  0  0
   48.3560   34.6970   41.3280 C   0  0  0  0  0  0  0  0  0  0  0  0
   49.0830   36.0280   41.5050 C   0  0  0  0  0  0  0  0  0  0  0  0
   49.5100   34.7030   42.1700 C   0  0  0  0  0  0  0  0  0  0  0  0
   48.3990   34.2620   40.2950 H   0  0  0  0  0  0  0  0  0  0  0  0
   49.7220   36.3150   40.6660 H   0  0  0  0  0  0  0  0  0  0  0  0
   48.5400   36.7710   42.1050 H   0  0  0  0  0  0  0  0  0  0  0  0
   50.4830   34.2860   41.8920 H   0  0  0  0  0  0  0  0  0  0  0  0
   49.3690   34.7360   43.2780 H   0  0  0  0  0  0  0  0  0  0  0  0
   41.5040   32.6140   37.9650 O   0  0  0  0  0  0  0  0  0  0  0  0
   40.8490   31.4560   37.9690 C   0  0  0  0  0  0  0  0  0  0  0  0
   39.6370   31.3210   37.4420 O   0  0  0  0  0  0  0  0  0  0  0  0
   41.4640   28.6770   40.0470 H   0  0  0  0  0  0  0  0  0  0  0  0
   41.2010   29.6990   39.8170 C   0  0  0  0  0  0  0  0  0  0  0  0
   40.9120   30.5430   40.7010 O   0  0  0  0  0  0  0  0  0  0  0  0
   41.1780   30.1200   38.4700 N   0  0  0  0  0  0  0  0  0  0  0  0
   41.4210   29.3970   37.7750 H   0  0  0  0  0  0  0  0  0  0  0  0
  1  7  1  6  0  0  0
  1  6  1  0  0  0  0
  1  2  1  0  0  0  0
  2  8  1  6  0  0  0
  2  3  1  0  0  0  0
  2 17  1  0  0  0  0
  4 10  1  0  0  0  0
  4  3  1  0  0  0  0
  5  6  1  0  0  0  0
  5 11  1  1  0  0  0
  5  4  1  0  0  0  0
  6 12  1  1  0  0  0
  9  4  1  0  0  0  0
 13 14  1  0  0  0  0
 13  1  1  0  0  0  0
 15  5  1  0  0  0  0
 16 15  1  0  0  0  0
 17 18  1  0  0  0  0
 18 23  1  0  0  0  0
 19 18  2  0  0  0  0
 19 20  1  0  0  0  0
 20 21  2  0  0  0  0
 21 22  1  0  0  0  0
 22 25  1  0  0  0  0
 23 22  2  0  0  0  0
 24 19  1  0  0  0  0
 26 27  1  0  0  0  0
 26 20  1  0  0  0  0
 26 28  1  0  0  0  0
 27 31  1  0  0  0  0
 27 28  1  0  0  0  0
 28 33  1  0  0  0  0
 29 26  1  0  0  0  0
 30 27  1  0  0  0  0
 32 28  1  0  0  0  0
 34 35  1  0  0  0  0
 34  6  1  0  0  0  0
 35 40  1  0  0  0  0
 36 35  2  0  0  0  0
 38 37  1  0  0  0  0
 38 39  2  0  0  0  0
 40 38  1  0  0  0  0
 41 40  1  0  0  0  0
M  END
>  <minimizedAffinity>
-5.87518072

>  <minimizedRMSD>
0.209607333

$$$$
