
 OpenBabel03252507493D

 41 42  0  0  0  0  0  0  0  0999 V2000
   47.8540   34.3200   40.7510 C   0  0  0  0  0  0  0  0  0  0  0  0
   48.1170   35.0020   39.8890 H   0  0  0  0  0  0  0  0  0  0  0  0
   47.0330   33.6900   40.3890 H   0  0  0  0  0  0  0  0  0  0  0  0
   49.0610   33.5460   41.0750 C   0  0  0  0  0  0  0  0  0  0  0  0
   49.3490   32.4460   40.2690 C   0  0  0  0  0  0  0  0  0  0  0  0
   50.4670   31.6730   40.5160 C   0  0  0  0  0  0  0  0  0  0  0  0
   51.2700   32.0460   41.5860 N   0  0  0  0  0  0  0  0  0  0  0  0
   50.9520   33.1200   42.3390 C   0  0  0  0  0  0  0  0  0  0  0  0
   49.8680   33.8450   42.0790 N   0  0  0  0  0  0  0  0  0  0  0  0
   50.6830   30.8250   39.8890 H   0  0  0  0  0  0  0  0  0  0  0  0
   51.6280   33.3320   43.1450 H   0  0  0  0  0  0  0  0  0  0  0  0
   48.2680   32.0360   38.9140 S   0  0  0  0  0  0  0  0  0  0  0  0
   49.1170   32.2930   37.3390 C   0  0  0  0  0  0  0  0  0  0  0  0
   50.2110   32.3640   37.4480 H   0  0  0  0  0  0  0  0  0  0  0  0
   48.9290   31.4060   36.6870 H   0  0  0  0  0  0  0  0  0  0  0  0
   48.5500   33.5270   36.6780 C   0  0  0  0  0  0  0  0  0  0  0  0
   49.3130   34.3530   36.6170 H   0  0  0  0  0  0  0  0  0  0  0  0
   47.6970   33.9590   37.2410 H   0  0  0  0  0  0  0  0  0  0  0  0
   48.2040   33.2080   35.3280 N   0  0  0  0  0  0  0  0  0  0  0  0
   48.4860   33.9700   34.6410 H   0  0  0  0  0  0  0  0  0  0  0  0
   48.6200   32.2900   35.0320 H   0  0  0  0  0  0  0  0  0  0  0  0
   47.3760   35.2030   41.8530 C   0  0  0  0  0  0  0  0  0  0  0  0
   47.9230   34.9110   42.7970 H   0  0  0  0  0  0  0  0  0  0  0  0
   47.6660   36.2650   41.6710 H   0  0  0  0  0  0  0  0  0  0  0  0
   45.9310   35.0920   42.1310 C   0  0  0  0  0  0  0  0  0  0  0  0
   45.3200   35.9640   43.0580 C   0  0  0  0  0  0  0  0  0  0  0  0
   43.5790   35.4520   43.0610 S   0  0  0  0  0  0  0  0  0  0  0  0
   43.9510   34.0860   41.7630 C   0  0  0  0  0  0  0  0  0  0  0  0
   45.0780   34.2510   41.6130 N   0  0  0  0  0  0  0  0  0  0  0  0
   45.7640   36.7580   43.6420 H   0  0  0  0  0  0  0  0  0  0  0  0
   42.9940   33.2280   41.2560 O   0  0  0  0  0  0  0  0  0  0  0  0
   40.7930   32.9840   39.7910 O   0  0  0  0  0  0  0  0  0  0  0  0
   41.5400   33.9340   40.7210 P   0  0  1  0  0  0  0  0  0  0  0  0
   40.5710   34.2790   42.0600 O   0  0  0  0  0  0  0  0  0  0  0  0
   40.5760   33.5820   42.7450 H   0  0  0  0  0  0  0  0  0  0  0  0
   41.8720   35.4010   39.9210 O   0  0  0  0  0  0  0  0  0  0  0  0
   42.2660   35.2870   38.5900 C   0  0  0  0  0  0  0  0  0  0  0  0
   41.7540   36.0900   37.7370 O   0  0  0  0  0  0  0  0  0  0  0  0
   43.1950   34.3420   38.1010 N   0  0  0  0  0  0  0  0  0  0  0  0
   44.1190   34.7870   38.2800 H   0  0  0  0  0  0  0  0  0  0  0  0
   43.2790   33.3950   37.6430 H   0  0  0  0  0  0  0  0  0  0  0  0
  1  4  1  0  0  0  0
  1 22  1  0  0  0  0
  2  1  1  0  0  0  0
  3  1  1  0  0  0  0
  4  9  1  0  0  0  0
  5  6  1  0  0  0  0
  5  4  2  0  0  0  0
  6  7  2  0  0  0  0
  7  8  1  0  0  0  0
  8 11  1  0  0  0  0
  9  8  2  0  0  0  0
 10  6  1  0  0  0  0
 12  5  1  0  0  0  0
 13 14  1  0  0  0  0
 13 12  1  0  0  0  0
 15 13  1  0  0  0  0
 16 18  1  0  0  0  0
 16 13  1  0  0  0  0
 17 16  1  0  0  0  0
 19 16  1  0  0  0  0
 20 19  1  0  0  0  0
 21 19  1  0  0  0  0
 22 25  1  0  0  0  0
 22 23  1  0  0  0  0
 24 22  1  0  0  0  0
 25 26  2  0  0  0  0
 26 27  1  0  0  0  0
 26 30  1  0  0  0  0
 28 27  1  0  0  0  0
 29 28  2  0  0  0  0
 29 25  1  0  0  0  0
 31 28  1  0  0  0  0
 33 32  2  6  0  0  0
 33 31  1  0  0  0  0
 33 34  1  0  0  0  0
 34 35  1  0  0  0  0
 36 33  1  0  0  0  0
 37 36  1  0  0  0  0
 38 37  2  0  0  0  0
 39 40  1  0  0  0  0
 39 37  1  0  0  0  0
 41 39  1  0  0  0  0
M  END
>  <minimizedAffinity>
-4.64573717

>  <minimizedRMSD>
1.48303926

$$$$
