
 OpenBabel03252509193D

 39 41  0  0  1  0  0  0  0  0999 V2000
   47.6500   29.5240   47.7330 C   0  0  1  0  0  0  0  0  0  0  0  0
   47.6080   28.4790   46.6870 C   0  0  0  0  0  0  0  0  0  0  0  0
   48.9160   27.7710   46.4600 C   0  0  0  0  0  0  0  0  0  0  0  0
   49.6120   27.4020   47.7410 C   0  0  0  0  0  0  0  0  0  0  0  0
   49.6170   28.5270   48.7410 C   0  0  0  0  0  0  0  0  0  0  0  0
   49.1250   29.8180   48.0870 C   0  0  2  0  0  0  0  0  0  0  0  0
   47.2370   29.0990   48.6620 H   0  0  0  0  0  0  0  0  0  0  0  0
   47.3590   28.9730   45.7040 H   0  0  0  0  0  0  0  0  0  0  0  0
   46.8290   27.7280   46.8910 H   0  0  0  0  0  0  0  0  0  0  0  0
   48.6730   26.8300   45.9320 H   0  0  0  0  0  0  0  0  0  0  0  0
   49.5950   28.3330   45.7970 H   0  0  0  0  0  0  0  0  0  0  0  0
   50.5980   26.9930   47.5310 H   0  0  0  0  0  0  0  0  0  0  0  0
   49.0130   26.5620   48.2000 H   0  0  0  0  0  0  0  0  0  0  0  0
   48.9460   28.3270   49.6030 H   0  0  0  0  0  0  0  0  0  0  0  0
   50.6600   28.6880   49.0720 H   0  0  0  0  0  0  0  0  0  0  0  0
   49.6890   30.0240   47.1540 H   0  0  0  0  0  0  0  0  0  0  0  0
   45.9640   32.8750   46.1110 C   0  0  0  0  0  0  0  0  0  0  0  0
   45.4420   32.5770   47.3670 C   0  0  0  0  0  0  0  0  0  0  0  0
   45.9120   31.4990   48.0010 C   0  0  0  0  0  0  0  0  0  0  0  0
   46.9110   30.6980   47.4010 C   0  0  0  0  0  0  0  0  0  0  0  0
   47.2020   31.5380   45.8100 S   0  0  0  0  0  0  0  0  0  0  0  0
   44.6790   33.1990   47.8140 H   0  0  0  0  0  0  0  0  0  0  0  0
   45.6290   31.1180   48.9680 H   0  0  0  0  0  0  0  0  0  0  0  0
   44.4970   36.0160   44.7670 C   0  0  0  0  0  0  0  0  0  0  0  0
   45.0970   36.0700   43.5080 C   0  0  0  0  0  0  0  0  0  0  0  0
   45.9730   35.0290   43.1710 C   0  0  0  0  0  0  0  0  0  0  0  0
   46.1900   34.0270   44.0860 N   0  0  0  0  0  0  0  0  0  0  0  0
   45.5770   34.0390   45.2800 C   0  0  0  0  0  0  0  0  0  0  0  0
   44.7250   35.0370   45.6310 N   0  0  0  0  0  0  0  0  0  0  0  0
   43.8080   36.8140   45.0600 H   0  0  0  0  0  0  0  0  0  0  0  0
   44.9170   36.8650   42.7970 H   0  0  0  0  0  0  0  0  0  0  0  0
   46.4860   34.9800   42.2210 H   0  0  0  0  0  0  0  0  0  0  0  0
   49.1950   30.9060   49.0650 C   0  0  0  0  0  0  0  0  0  0  0  0
   48.1940   31.3310   49.6740 O   0  0  0  0  0  0  0  0  0  0  0  0
   52.1320   32.6080   50.0000 H   0  0  0  0  0  0  0  0  0  0  0  0
   51.5660   31.8580   49.4400 C   0  0  0  0  0  0  0  0  0  0  0  0
   52.0240   31.0420   48.6200 O   0  0  0  0  0  0  0  0  0  0  0  0
   50.1820   31.7280   49.6000 N   0  0  0  0  0  0  0  0  0  0  0  0
   49.7880   32.3900   50.2720 H   0  0  0  0  0  0  0  0  0  0  0  0
  1  6  1  0  0  0  0
  1  7  1  1  0  0  0
  2  9  1  0  0  0  0
  2  1  1  0  0  0  0
  3  2  1  0  0  0  0
  3  4  1  0  0  0  0
  4 13  1  0  0  0  0
  4  5  1  0  0  0  0
  5 15  1  0  0  0  0
  5 14  1  0  0  0  0
  6 16  1  6  0  0  0
  6  5  1  0  0  0  0
  6 33  1  0  0  0  0
  8  2  1  0  0  0  0
 10  3  1  0  0  0  0
 11  3  1  0  0  0  0
 12  4  1  0  0  0  0
 17 18  2  0  0  0  0
 18 22  1  0  0  0  0
 18 19  1  0  0  0  0
 19 23  1  0  0  0  0
 20  1  1  0  0  0  0
 20 19  2  0  0  0  0
 21 17  1  0  0  0  0
 21 20  1  0  0  0  0
 24 30  1  0  0  0  0
 24 29  1  0  0  0  0
 25 24  2  0  0  0  0
 26 25  1  0  0  0  0
 26 27  2  0  0  0  0
 27 28  1  0  0  0  0
 28 29  2  0  0  0  0
 28 17  1  0  0  0  0
 31 25  1  0  0  0  0
 32 26  1  0  0  0  0
 33 38  1  0  0  0  0
 33 34  2  0  0  0  0
 36 38  1  0  0  0  0
 36 35  1  0  0  0  0
 37 36  2  0  0  0  0
 38 39  1  0  0  0  0
M  END
>  <minimizedAffinity>
-5.20713806

>  <minimizedRMSD>
1.4924804

$$$$
