
 OpenBabel03242518513D

 19 19  0  0  0  0  0  0  0  0999 V2000
   36.6780   27.9810   39.3600 C   0  0  0  0  0  0  0  0  0  0  0  0
   36.6760   27.2340   40.5560 C   0  0  0  0  0  0  0  0  0  0  0  0
   37.0360   27.9000   41.7210 C   0  0  0  0  0  0  0  0  0  0  0  0
   37.3600   29.2080   41.6190 N   0  0  0  0  0  0  0  0  0  0  0  0
   37.3550   29.8960   40.4610 C   0  0  0  0  0  0  0  0  0  0  0  0
   37.0070   29.2640   39.3170 N   0  0  0  0  0  0  0  0  0  0  0  0
   36.4020   27.4880   38.4320 H   0  0  0  0  0  0  0  0  0  0  0  0
   36.4010   26.2050   40.5120 H   0  0  0  0  0  0  0  0  0  0  0  0
   37.7340   31.3030   40.4210 C   0  0  0  0  0  0  0  0  0  0  0  0
   38.7730   31.7130   41.0160 O   0  0  0  0  0  0  0  0  0  0  0  0
   36.6200   34.3030   39.0800 H   0  0  0  0  0  0  0  0  0  0  0  0
   37.2580   33.6010   39.6400 C   0  0  0  0  0  0  0  0  0  0  0  0
   38.2800   34.0390   40.2180 O   0  0  0  0  0  0  0  0  0  0  0  0
   36.9070   32.2160   39.6940 N   0  0  0  0  0  0  0  0  0  0  0  0
   36.0330   31.9360   39.1800 H   0  0  0  0  0  0  0  0  0  0  0  0
   37.0190   27.0980   42.9320 C   0  0  0  0  0  0  0  0  0  0  0  0
   36.8100   25.7560   42.5860 F   0  0  0  0  0  0  0  0  0  0  0  0
   35.8650   27.4670   43.6370 F   0  0  0  0  0  0  0  0  0  0  0  0
   38.1400   27.1850   43.6790 F   0  0  0  0  0  0  0  0  0  0  0  0
  1  2  1  0  0  0  0
  2  3  2  0  0  0  0
  3 16  1  0  0  0  0
  4  3  1  0  0  0  0
  5  4  2  0  0  0  0
  6  1  2  0  0  0  0
  6  5  1  0  0  0  0
  7  1  1  0  0  0  0
  8  2  1  0  0  0  0
  9  5  1  0  0  0  0
  9 10  2  0  0  0  0
 11 12  1  0  0  0  0
 12 14  1  0  0  0  0
 12 13  2  0  0  0  0
 14  9  1  0  0  0  0
 15 14  1  0  0  0  0
 16 18  1  0  0  0  0
 16 19  1  0  0  0  0
 17 16  1  0  0  0  0
M  END
>  <minimizedAffinity>
-4.57049942

$$$$

 OpenBabel03242518513D

 19 19  0  0  0  0  0  0  0  0999 V2000
   35.4600   29.5350   40.2420 C   0  0  0  0  0  0  0  0  0  0  0  0
   35.8040   28.5470   41.1880 C   0  0  0  0  0  0  0  0  0  0  0  0
   36.9600   28.7570   41.9320 C   0  0  0  0  0  0  0  0  0  0  0  0
   37.6610   29.8870   41.6930 N   0  0  0  0  0  0  0  0  0  0  0  0
   37.3080   30.8130   40.7810 C   0  0  0  0  0  0  0  0  0  0  0  0
   36.1870   30.6270   40.0480 N   0  0  0  0  0  0  0  0  0  0  0  0
   34.5630   29.4000   39.6440 H   0  0  0  0  0  0  0  0  0  0  0  0
   35.1710   27.6960   41.2870 H   0  0  0  0  0  0  0  0  0  0  0  0
   38.1230   32.0020   40.5630 C   0  0  0  0  0  0  0  0  0  0  0  0
   37.6010   33.0840   40.1660 O   0  0  0  0  0  0  0  0  0  0  0  0
   41.4340   33.0130   40.7910 H   0  0  0  0  0  0  0  0  0  0  0  0
   40.3510   33.0750   40.6030 C   0  0  0  0  0  0  0  0  0  0  0  0
   39.8650   34.1610   40.2090 O   0  0  0  0  0  0  0  0  0  0  0  0
   39.5300   31.9230   40.8090 N   0  0  0  0  0  0  0  0  0  0  0  0
   40.0210   31.0530   41.1390 H   0  0  0  0  0  0  0  0  0  0  0  0
   37.2800   27.7190   42.8970 C   0  0  0  0  0  0  0  0  0  0  0  0
   37.5160   26.5190   42.2110 F   0  0  0  0  0  0  0  0  0  0  0  0
   36.1100   27.4840   43.6300 F   0  0  0  0  0  0  0  0  0  0  0  0
   38.3460   27.9890   43.6800 F   0  0  0  0  0  0  0  0  0  0  0  0
  1  2  1  0  0  0  0
  2  8  1  0  0  0  0
  2  3  2  0  0  0  0
  3 16  1  0  0  0  0
  4  3  1  0  0  0  0
  5  4  2  0  0  0  0
  6  1  2  0  0  0  0
  6  5  1  0  0  0  0
  7  1  1  0  0  0  0
  9  5  1  0  0  0  0
  9 14  1  0  0  0  0
 10  9  2  0  0  0  0
 12 11  1  0  0  0  0
 12 14  1  0  0  0  0
 13 12  2  0  0  0  0
 14 15  1  0  0  0  0
 16 18  1  0  0  0  0
 16 19  1  0  0  0  0
 17 16  1  0  0  0  0
M  END
>  <minimizedAffinity>
-4.53135347

$$$$

 OpenBabel03242518513D

 19 19  0  0  0  0  0  0  0  0999 V2000
   39.9880   29.4370   42.5930 C   0  0  0  0  0  0  0  0  0  0  0  0
   39.1700   28.3140   42.8340 C   0  0  0  0  0  0  0  0  0  0  0  0
   37.8720   28.3560   42.3370 C   0  0  0  0  0  0  0  0  0  0  0  0
   37.4960   29.4650   41.6650 N   0  0  0  0  0  0  0  0  0  0  0  0
   38.3000   30.5250   41.4520 C   0  0  0  0  0  0  0  0  0  0  0  0
   39.5660   30.5020   41.9270 N   0  0  0  0  0  0  0  0  0  0  0  0
   41.0070   29.4350   42.9690 H   0  0  0  0  0  0  0  0  0  0  0  0
   39.5800   27.4940   43.3780 H   0  0  0  0  0  0  0  0  0  0  0  0
   37.8200   31.6990   40.7320 C   0  0  0  0  0  0  0  0  0  0  0  0
   36.7290   31.6690   40.0930 O   0  0  0  0  0  0  0  0  0  0  0  0
   38.7680   34.9750   40.0910 H   0  0  0  0  0  0  0  0  0  0  0  0
   38.1600   34.0570   40.0670 C   0  0  0  0  0  0  0  0  0  0  0  0
   37.0840   34.0590   39.4240 O   0  0  0  0  0  0  0  0  0  0  0  0
   38.6090   32.8930   40.7640 N   0  0  0  0  0  0  0  0  0  0  0  0
   39.5230   32.9790   41.2770 H   0  0  0  0  0  0  0  0  0  0  0  0
   37.0620   27.1800   42.6030 C   0  0  0  0  0  0  0  0  0  0  0  0
   37.8960   26.1420   43.0400 F   0  0  0  0  0  0  0  0  0  0  0  0
   36.5740   26.7460   41.3630 F   0  0  0  0  0  0  0  0  0  0  0  0
   36.0850   27.3660   43.5160 F   0  0  0  0  0  0  0  0  0  0  0  0
  1  2  1  0  0  0  0
  1  7  1  0  0  0  0
  2  8  1  0  0  0  0
  3 16  1  0  0  0  0
  3  2  2  0  0  0  0
  4  3  1  0  0  0  0
  5  4  2  0  0  0  0
  5  6  1  0  0  0  0
  6  1  2  0  0  0  0
  9 14  1  0  0  0  0
  9  5  1  0  0  0  0
 10  9  2  0  0  0  0
 12 11  1  0  0  0  0
 12 14  1  0  0  0  0
 13 12  2  0  0  0  0
 14 15  1  0  0  0  0
 16 17  1  0  0  0  0
 16 19  1  0  0  0  0
 18 16  1  0  0  0  0
M  END
>  <minimizedAffinity>
-4.47783709

$$$$

 OpenBabel03242518513D

 19 19  0  0  0  0  0  0  0  0999 V2000
   37.4570   28.5510   43.5290 C   0  0  0  0  0  0  0  0  0  0  0  0
   37.3410   27.1780   43.2280 C   0  0  0  0  0  0  0  0  0  0  0  0
   37.1990   26.8320   41.8890 C   0  0  0  0  0  0  0  0  0  0  0  0
   37.1840   27.8330   40.9820 N   0  0  0  0  0  0  0  0  0  0  0  0
   37.2960   29.1380   41.3000 C   0  0  0  0  0  0  0  0  0  0  0  0
   37.4350   29.4940   42.5970 N   0  0  0  0  0  0  0  0  0  0  0  0
   37.5690   28.8530   44.5660 H   0  0  0  0  0  0  0  0  0  0  0  0
   37.3670   26.4780   44.0300 H   0  0  0  0  0  0  0  0  0  0  0  0
   37.2530   30.1680   40.2700 C   0  0  0  0  0  0  0  0  0  0  0  0
   37.2040   29.8600   39.0440 O   0  0  0  0  0  0  0  0  0  0  0  0
   37.2330   33.6270   39.9910 H   0  0  0  0  0  0  0  0  0  0  0  0
   37.2230   32.5700   39.6800 C   0  0  0  0  0  0  0  0  0  0  0  0
   37.1750   32.2980   38.4580 O   0  0  0  0  0  0  0  0  0  0  0  0
   37.2650   31.5420   40.6720 N   0  0  0  0  0  0  0  0  0  0  0  0
   37.3040   31.8590   41.6740 H   0  0  0  0  0  0  0  0  0  0  0  0
   37.0830   25.4090   41.6180 C   0  0  0  0  0  0  0  0  0  0  0  0
   38.3680   24.8730   41.4480 F   0  0  0  0  0  0  0  0  0  0  0  0
   36.4810   25.2920   40.3590 F   0  0  0  0  0  0  0  0  0  0  0  0
   36.4420   24.7050   42.5750 F   0  0  0  0  0  0  0  0  0  0  0  0
  1  7  1  0  0  0  0
  2  1  1  0  0  0  0
  2  8  1  0  0  0  0
  3  2  2  0  0  0  0
  4  5  2  0  0  0  0
  4  3  1  0  0  0  0
  5  6  1  0  0  0  0
  6  1  2  0  0  0  0
  9 14  1  0  0  0  0
  9  5  1  0  0  0  0
 10  9  2  0  0  0  0
 12 11  1  0  0  0  0
 12 14  1  0  0  0  0
 13 12  2  0  0  0  0
 14 15  1  0  0  0  0
 16  3  1  0  0  0  0
 16 19  1  0  0  0  0
 17 16  1  0  0  0  0
 18 16  1  0  0  0  0
M  END
>  <minimizedAffinity>
-4.35316944

$$$$

 OpenBabel03242518513D

 19 19  0  0  0  0  0  0  0  0999 V2000
   36.7890   30.4080   38.0630 C   0  0  0  0  0  0  0  0  0  0  0  0
   37.3260   31.6780   38.3590 C   0  0  0  0  0  0  0  0  0  0  0  0
   37.7040   31.9160   39.6760 C   0  0  0  0  0  0  0  0  0  0  0  0
   37.5280   30.9160   40.5670 N   0  0  0  0  0  0  0  0  0  0  0  0
   37.0100   29.7130   40.2550 C   0  0  0  0  0  0  0  0  0  0  0  0
   36.6370   29.4620   38.9800 N   0  0  0  0  0  0  0  0  0  0  0  0
   36.4840   30.1910   37.0440 H   0  0  0  0  0  0  0  0  0  0  0  0
   37.4170   32.3880   37.5690 H   0  0  0  0  0  0  0  0  0  0  0  0
   36.8320   28.6850   41.2740 C   0  0  0  0  0  0  0  0  0  0  0  0
   36.5020   27.5050   40.9560 O   0  0  0  0  0  0  0  0  0  0  0  0
   37.0280   28.3160   44.7180 H   0  0  0  0  0  0  0  0  0  0  0  0
   36.8700   28.0450   43.6630 C   0  0  0  0  0  0  0  0  0  0  0  0
   36.5430   26.8680   43.3810 O   0  0  0  0  0  0  0  0  0  0  0  0
   37.0380   29.0350   42.6460 N   0  0  0  0  0  0  0  0  0  0  0  0
   37.3130   29.9970   42.9710 H   0  0  0  0  0  0  0  0  0  0  0  0
   38.2540   33.2340   39.9410 C   0  0  0  0  0  0  0  0  0  0  0  0
   38.5700   33.3290   41.3030 F   0  0  0  0  0  0  0  0  0  0  0  0
   37.2070   34.1460   39.7550 F   0  0  0  0  0  0  0  0  0  0  0  0
   39.3520   33.5410   39.2180 F   0  0  0  0  0  0  0  0  0  0  0  0
  1  2  2  0  0  0  0
  1  6  1  0  0  0  0
  2  3  1  0  0  0  0
  3 16  1  0  0  0  0
  3  4  2  0  0  0  0
  5  4  1  0  0  0  0
  5  9  1  0  0  0  0
  6  5  2  0  0  0  0
  7  1  1  0  0  0  0
  8  2  1  0  0  0  0
  9 14  1  0  0  0  0
 10  9  2  0  0  0  0
 12 11  1  0  0  0  0
 13 12  2  0  0  0  0
 14 15  1  0  0  0  0
 14 12  1  0  0  0  0
 16 17  1  0  0  0  0
 18 16  1  0  0  0  0
 19 16  1  0  0  0  0
M  END
>  <minimizedAffinity>
-4.26155615

$$$$

 OpenBabel03242518513D

 19 19  0  0  0  0  0  0  0  0999 V2000
   38.0670   28.3650   43.3160 C   0  0  0  0  0  0  0  0  0  0  0  0
   37.3490   29.2960   42.5370 C   0  0  0  0  0  0  0  0  0  0  0  0
   36.6930   28.8090   41.4120 C   0  0  0  0  0  0  0  0  0  0  0  0
   36.7910   27.4870   41.1540 N   0  0  0  0  0  0  0  0  0  0  0  0
   37.4860   26.6210   41.9170 C   0  0  0  0  0  0  0  0  0  0  0  0
   38.1320   27.0760   43.0150 N   0  0  0  0  0  0  0  0  0  0  0  0
   38.5920   28.7140   44.2010 H   0  0  0  0  0  0  0  0  0  0  0  0
   37.3440   30.3170   42.8410 H   0  0  0  0  0  0  0  0  0  0  0  0
   37.5650   25.2080   41.5670 C   0  0  0  0  0  0  0  0  0  0  0  0
   38.0990   24.3730   42.3540 O   0  0  0  0  0  0  0  0  0  0  0  0
   36.6720   23.0710   38.9840 H   0  0  0  0  0  0  0  0  0  0  0  0
   37.0890   23.3990   39.9490 C   0  0  0  0  0  0  0  0  0  0  0  0
   37.6110   22.5480   40.7050 O   0  0  0  0  0  0  0  0  0  0  0  0
   37.0240   24.7790   40.3140 N   0  0  0  0  0  0  0  0  0  0  0  0
   36.5680   25.4260   39.6200 H   0  0  0  0  0  0  0  0  0  0  0  0
   35.9630   29.7970   40.6360 C   0  0  0  0  0  0  0  0  0  0  0  0
   35.8660   30.9800   41.3830 F   0  0  0  0  0  0  0  0  0  0  0  0
   34.6460   29.3300   40.5370 F   0  0  0  0  0  0  0  0  0  0  0  0
   36.5100   30.0850   39.4360 F   0  0  0  0  0  0  0  0  0  0  0  0
  1  7  1  0  0  0  0
  2  8  1  0  0  0  0
  2  1  2  0  0  0  0
  3  2  1  0  0  0  0
  4  3  2  0  0  0  0
  4  5  1  0  0  0  0
  5  6  2  0  0  0  0
  6  1  1  0  0  0  0
  9  5  1  0  0  0  0
  9 10  2  0  0  0  0
 11 12  1  0  0  0  0
 12 14  1  0  0  0  0
 12 13  2  0  0  0  0
 14  9  1  0  0  0  0
 15 14  1  0  0  0  0
 16 17  1  0  0  0  0
 16  3  1  0  0  0  0
 18 16  1  0  0  0  0
 19 16  1  0  0  0  0
M  END
>  <minimizedAffinity>
-4.13004732

$$$$

 OpenBabel03242518513D

 19 19  0  0  0  0  0  0  0  0999 V2000
   36.1950   28.2600   41.3170 C   0  0  0  0  0  0  0  0  0  0  0  0
   37.1920   27.4730   41.9290 C   0  0  0  0  0  0  0  0  0  0  0  0
   38.4230   28.0760   42.1620 C   0  0  0  0  0  0  0  0  0  0  0  0
   38.5690   29.3650   41.7850 N   0  0  0  0  0  0  0  0  0  0  0  0
   37.5970   30.0920   41.2010 C   0  0  0  0  0  0  0  0  0  0  0  0
   36.3930   29.5230   40.9670 N   0  0  0  0  0  0  0  0  0  0  0  0
   35.2230   27.8170   41.1220 H   0  0  0  0  0  0  0  0  0  0  0  0
   36.9590   26.4640   42.1820 H   0  0  0  0  0  0  0  0  0  0  0  0
   37.8300   31.4750   40.8030 C   0  0  0  0  0  0  0  0  0  0  0  0
   38.8430   32.1090   41.2200 O   0  0  0  0  0  0  0  0  0  0  0  0
   36.3730   33.9460   38.8500 H   0  0  0  0  0  0  0  0  0  0  0  0
   37.0980   33.4610   39.5230 C   0  0  0  0  0  0  0  0  0  0  0  0
   38.0900   34.1160   39.9190 O   0  0  0  0  0  0  0  0  0  0  0  0
   36.8900   32.1060   39.9280 N   0  0  0  0  0  0  0  0  0  0  0  0
   36.0320   31.6310   39.5480 H   0  0  0  0  0  0  0  0  0  0  0  0
   39.4230   27.2340   42.7950 C   0  0  0  0  0  0  0  0  0  0  0  0
   40.3560   28.0500   43.4500 F   0  0  0  0  0  0  0  0  0  0  0  0
   40.1470   26.6300   41.7580 F   0  0  0  0  0  0  0  0  0  0  0  0
   38.9300   26.3420   43.6790 F   0  0  0  0  0  0  0  0  0  0  0  0
  1  2  1  0  0  0  0
  2  3  2  0  0  0  0
  2  8  1  0  0  0  0
  3 16  1  0  0  0  0
  4  3  1  0  0  0  0
  5  4  2  0  0  0  0
  6  5  1  0  0  0  0
  6  1  2  0  0  0  0
  7  1  1  0  0  0  0
  9  5  1  0  0  0  0
  9 10  2  0  0  0  0
 11 12  1  0  0  0  0
 12 13  2  0  0  0  0
 12 14  1  0  0  0  0
 14  9  1  0  0  0  0
 15 14  1  0  0  0  0
 16 17  1  0  0  0  0
 16 19  1  0  0  0  0
 18 16  1  0  0  0  0
M  END
>  <minimizedAffinity>
-4.11974382

$$$$

 OpenBabel03242518513D

 19 19  0  0  0  0  0  0  0  0999 V2000
   36.1950   30.2940   40.7010 C   0  0  0  0  0  0  0  0  0  0  0  0
   36.6090   31.6030   40.3800 C   0  0  0  0  0  0  0  0  0  0  0  0
   37.9340   31.9320   40.6420 C   0  0  0  0  0  0  0  0  0  0  0  0
   38.7210   30.9760   41.1810 N   0  0  0  0  0  0  0  0  0  0  0  0
   38.2960   29.7320   41.4790 C   0  0  0  0  0  0  0  0  0  0  0  0
   37.0110   29.3930   41.2300 N   0  0  0  0  0  0  0  0  0  0  0  0
   35.1660   30.0060   40.5080 H   0  0  0  0  0  0  0  0  0  0  0  0
   35.8950   32.2730   39.9570 H   0  0  0  0  0  0  0  0  0  0  0  0
   39.1980   28.7540   42.0770 C   0  0  0  0  0  0  0  0  0  0  0  0
   40.4120   28.6900   41.7270 O   0  0  0  0  0  0  0  0  0  0  0  0
   39.1480   26.2150   44.4410 H   0  0  0  0  0  0  0  0  0  0  0  0
   39.5460   26.8990   43.6750 C   0  0  0  0  0  0  0  0  0  0  0  0
   40.7530   26.8090   43.3500 O   0  0  0  0  0  0  0  0  0  0  0  0
   38.6820   27.8660   43.0730 N   0  0  0  0  0  0  0  0  0  0  0  0
   37.6840   27.8710   43.4050 H   0  0  0  0  0  0  0  0  0  0  0  0
   38.3220   33.2890   40.2970 C   0  0  0  0  0  0  0  0  0  0  0  0
   37.2200   33.9480   39.7340 F   0  0  0  0  0  0  0  0  0  0  0  0
   39.2460   33.1830   39.2490 F   0  0  0  0  0  0  0  0  0  0  0  0
   38.7850   34.0220   41.3320 F   0  0  0  0  0  0  0  0  0  0  0  0
  1  6  1  0  0  0  0
  2  3  1  0  0  0  0
  2  1  2  0  0  0  0
  3  4  2  0  0  0  0
  4  5  1  0  0  0  0
  5  9  1  0  0  0  0
  6  5  2  0  0  0  0
  7  1  1  0  0  0  0
  8  2  1  0  0  0  0
  9 14  1  0  0  0  0
 10  9  2  0  0  0  0
 12 11  1  0  0  0  0
 13 12  2  0  0  0  0
 14 15  1  0  0  0  0
 14 12  1  0  0  0  0
 16  3  1  0  0  0  0
 16 19  1  0  0  0  0
 17 16  1  0  0  0  0
 18 16  1  0  0  0  0
M  END
>  <minimizedAffinity>
-4.0398984

$$$$

 OpenBabel03242518513D

 19 19  0  0  0  0  0  0  0  0999 V2000
   38.1020   27.7850   39.2890 C   0  0  0  0  0  0  0  0  0  0  0  0
   37.8830   27.1590   40.5340 C   0  0  0  0  0  0  0  0  0  0  0  0
   37.6850   27.9860   41.6340 C   0  0  0  0  0  0  0  0  0  0  0  0
   37.7170   29.3210   41.4260 N   0  0  0  0  0  0  0  0  0  0  0  0
   37.9300   29.8900   40.2240 C   0  0  0  0  0  0  0  0  0  0  0  0
   38.1240   29.1020   39.1430 N   0  0  0  0  0  0  0  0  0  0  0  0
   38.2610   27.1660   38.4110 H   0  0  0  0  0  0  0  0  0  0  0  0
   37.8800   26.0940   40.5740 H   0  0  0  0  0  0  0  0  0  0  0  0
   37.9690   31.3400   40.0760 C   0  0  0  0  0  0  0  0  0  0  0  0
   37.3580   31.9140   39.1290 O   0  0  0  0  0  0  0  0  0  0  0  0
   39.3410   34.1190   41.6370 H   0  0  0  0  0  0  0  0  0  0  0  0
   38.7670   33.5300   40.9040 C   0  0  0  0  0  0  0  0  0  0  0  0
   38.1740   34.1280   39.9770 O   0  0  0  0  0  0  0  0  0  0  0  0
   38.7140   32.1070   41.0280 N   0  0  0  0  0  0  0  0  0  0  0  0
   39.2410   31.6880   41.8350 H   0  0  0  0  0  0  0  0  0  0  0  0
   37.4610   27.3050   42.8980 C   0  0  0  0  0  0  0  0  0  0  0  0
   38.6200   27.4060   43.6800 F   0  0  0  0  0  0  0  0  0  0  0  0
   37.3520   25.9410   42.5990 F   0  0  0  0  0  0  0  0  0  0  0  0
   36.4140   27.7720   43.6100 F   0  0  0  0  0  0  0  0  0  0  0  0
  1  2  1  0  0  0  0
  2  8  1  0  0  0  0
  2  3  2  0  0  0  0
  3 16  1  0  0  0  0
  4  3  1  0  0  0  0
  5  4  2  0  0  0  0
  6  1  2  0  0  0  0
  6  5  1  0  0  0  0
  7  1  1  0  0  0  0
  9  5  1  0  0  0  0
  9 14  1  0  0  0  0
 10  9  2  0  0  0  0
 12 14  1  0  0  0  0
 12 11  1  0  0  0  0
 13 12  2  0  0  0  0
 14 15  1  0  0  0  0
 16 19  1  0  0  0  0
 16 17  1  0  0  0  0
 18 16  1  0  0  0  0
M  END
>  <minimizedAffinity>
-3.95485258

$$$$
