
 OpenBabel03242523553D

 41 43  0  0  1  0  0  0  0  0999 V2000
   42.8140   34.5410   38.7380 C   0  0  1  0  0  0  0  0  0  0  0  0
   42.9510   35.1840   40.1090 C   0  0  1  0  0  0  0  0  0  0  0  0
   41.6590   35.3930   40.6290 O   0  0  0  0  0  0  0  0  0  0  0  0
   40.7290   35.7430   39.6410 C   0  0  0  0  0  0  0  0  0  0  0  0
   40.4340   34.5820   38.7150 C   0  0  2  0  0  0  0  0  0  0  0  0
   41.6510   33.6100   38.8360 C   0  0  1  0  0  0  0  0  0  0  0  0
   43.7570   34.0120   38.4890 H   0  0  0  0  0  0  0  0  0  0  0  0
   43.5180   36.1300   40.0860 H   0  0  0  0  0  0  0  0  0  0  0  0
   41.0290   36.6530   39.0970 H   0  0  0  0  0  0  0  0  0  0  0  0
   39.8050   35.9710   40.1780 H   0  0  0  0  0  0  0  0  0  0  0  0
   39.5080   34.0430   38.9830 H   0  0  0  0  0  0  0  0  0  0  0  0
   41.4400   33.3110   39.9160 H   0  0  0  0  0  0  0  0  0  0  0  0
   42.5920   35.5140   37.7480 O   0  0  0  0  0  0  0  0  0  0  0  0
   43.1520   36.3170   37.9760 H   0  0  0  0  0  0  0  0  0  0  0  0
   40.4460   35.0110   37.3980 O   0  0  0  0  0  0  0  0  0  0  0  0
   40.5080   34.2840   36.7480 H   0  0  0  0  0  0  0  0  0  0  0  0
   43.4940   34.1900   40.9350 O   0  0  0  0  0  0  0  0  0  0  0  0
   44.5940   34.3290   41.6820 C   0  0  0  0  0  0  0  0  0  0  0  0
   45.8570   34.4350   41.0940 C   0  0  0  0  0  0  0  0  0  0  0  0
   46.9700   34.5800   41.9000 C   0  0  0  0  0  0  0  0  0  0  0  0
   46.8000   34.6150   43.2750 N   0  0  0  0  0  0  0  0  0  0  0  0
   45.5640   34.5080   43.8120 C   0  0  0  0  0  0  0  0  0  0  0  0
   44.4710   34.3660   43.0200 N   0  0  0  0  0  0  0  0  0  0  0  0
   45.9570   34.4050   40.0300 H   0  0  0  0  0  0  0  0  0  0  0  0
   45.4370   34.5350   44.8770 H   0  0  0  0  0  0  0  0  0  0  0  0
   48.3530   34.6790   41.3370 C   0  0  0  0  0  0  0  0  0  0  0  0
   49.0690   36.0170   41.5090 C   0  0  0  0  0  0  0  0  0  0  0  0
   49.4970   34.7010   42.1920 C   0  0  0  0  0  0  0  0  0  0  0  0
   48.4110   34.2350   40.3090 H   0  0  0  0  0  0  0  0  0  0  0  0
   49.7150   36.3000   40.6740 H   0  0  0  0  0  0  0  0  0  0  0  0
   48.5150   36.7620   42.0960 H   0  0  0  0  0  0  0  0  0  0  0  0
   50.4760   34.2880   41.9280 H   0  0  0  0  0  0  0  0  0  0  0  0
   49.3450   34.7440   43.2980 H   0  0  0  0  0  0  0  0  0  0  0  0
   41.5270   32.6740   37.8720 O   0  0  0  0  0  0  0  0  0  0  0  0
   40.8890   31.5070   37.8400 C   0  0  0  0  0  0  0  0  0  0  0  0
   39.5760   31.4170   37.6550 O   0  0  0  0  0  0  0  0  0  0  0  0
   42.0350   28.2430   37.1680 H   0  0  0  0  0  0  0  0  0  0  0  0
   41.7300   29.2520   36.9290 C   0  0  0  0  0  0  0  0  0  0  0  0
   41.7120   29.6980   35.7550 O   0  0  0  0  0  0  0  0  0  0  0  0
   41.3320   30.1180   37.9700 N   0  0  0  0  0  0  0  0  0  0  0  0
   41.3610   29.7120   38.9200 H   0  0  0  0  0  0  0  0  0  0  0  0
  1  7  1  6  0  0  0
  1  6  1  0  0  0  0
  1  2  1  0  0  0  0
  2  8  1  6  0  0  0
  2  3  1  0  0  0  0
  2 17  1  0  0  0  0
  4 10  1  0  0  0  0
  4  3  1  0  0  0  0
  5  6  1  0  0  0  0
  5 11  1  1  0  0  0
  5  4  1  0  0  0  0
  6 12  1  1  0  0  0
  9  4  1  0  0  0  0
 13 14  1  0  0  0  0
 13  1  1  0  0  0  0
 15  5  1  0  0  0  0
 16 15  1  0  0  0  0
 17 18  1  0  0  0  0
 18 23  1  0  0  0  0
 19 18  2  0  0  0  0
 19 20  1  0  0  0  0
 20 21  2  0  0  0  0
 21 22  1  0  0  0  0
 22 25  1  0  0  0  0
 23 22  2  0  0  0  0
 24 19  1  0  0  0  0
 26 27  1  0  0  0  0
 26 20  1  0  0  0  0
 26 28  1  0  0  0  0
 27 31  1  0  0  0  0
 27 28  1  0  0  0  0
 28 33  1  0  0  0  0
 29 26  1  0  0  0  0
 30 27  1  0  0  0  0
 32 28  1  0  0  0  0
 34  6  1  0  0  0  0
 35 34  1  0  0  0  0
 35 40  1  0  0  0  0
 36 35  2  0  0  0  0
 38 37  1  0  0  0  0
 38 40  1  0  0  0  0
 39 38  2  0  0  0  0
 40 41  1  0  0  0  0
M  END
>  <minimizedAffinity>
-5.85315561

>  <minimizedRMSD>
0.164174199

$$$$
