
 OpenBabel03252500493D

 24 25  0  0  0  0  0  0  0  0999 V2000
   44.4400   35.1540   45.6090 C   0  0  0  0  0  0  0  0  0  0  0  0
   44.8740   34.9580   44.3070 C   0  0  0  0  0  0  0  0  0  0  0  0
   45.7680   33.9390   44.0050 C   0  0  0  0  0  0  0  0  0  0  0  0
   46.1790   33.1590   45.0590 N   0  0  0  0  0  0  0  0  0  0  0  0
   45.7610   33.3510   46.3060 C   0  0  0  0  0  0  0  0  0  0  0  0
   44.8980   34.3400   46.5780 N   0  0  0  0  0  0  0  0  0  0  0  0
   43.7430   35.9350   45.8970 H   0  0  0  0  0  0  0  0  0  0  0  0
   46.1240   33.7640   42.9990 H   0  0  0  0  0  0  0  0  0  0  0  0
   46.2270   32.4990   47.3870 C   0  0  0  0  0  0  0  0  0  0  0  0
   47.5470   32.2600   47.6080 C   0  0  0  0  0  0  0  0  0  0  0  0
   48.0200   31.4600   48.6220 C   0  0  0  0  0  0  0  0  0  0  0  0
   47.0850   30.8930   49.4260 N   0  0  0  0  0  0  0  0  0  0  0  0
   45.7930   31.1330   49.2010 C   0  0  0  0  0  0  0  0  0  0  0  0
   45.3140   31.9140   48.2130 N   0  0  0  0  0  0  0  0  0  0  0  0
   48.2260   32.7540   46.9170 H   0  0  0  0  0  0  0  0  0  0  0  0
   49.1080   31.3650   48.6740 H   0  0  0  0  0  0  0  0  0  0  0  0
   45.1370   30.6270   49.9070 H   0  0  0  0  0  0  0  0  0  0  0  0
   44.3750   35.8430   43.2660 C   0  0  0  0  0  0  0  0  0  0  0  0
   43.2030   35.6730   42.8620 O   0  0  0  0  0  0  0  0  0  0  0  0
   46.1750   38.7790   43.3810 H   0  0  0  0  0  0  0  0  0  0  0  0
   45.4960   37.9630   43.6650 C   0  0  0  0  0  0  0  0  0  0  0  0
   44.9300   38.0700   44.7840 O   0  0  0  0  0  0  0  0  0  0  0  0
   45.2800   36.8410   42.7910 N   0  0  0  0  0  0  0  0  0  0  0  0
   45.7830   36.8300   41.8920 H   0  0  0  0  0  0  0  0  0  0  0  0
  1  7  1  0  0  0  0
  1  6  1  0  0  0  0
  2  1  2  0  0  0  0
  3  2  1  0  0  0  0
  3  4  2  0  0  0  0
  4  5  1  0  0  0  0
  5  6  2  0  0  0  0
  5  9  1  0  0  0  0
  8  3  1  0  0  0  0
  9 10  2  0  0  0  0
  9 14  1  0  0  0  0
 10 11  1  0  0  0  0
 11 16  1  0  0  0  0
 11 12  2  0  0  0  0
 13 12  1  0  0  0  0
 13 17  1  0  0  0  0
 14 13  2  0  0  0  0
 15 10  1  0  0  0  0
 18  2  1  0  0  0  0
 19 18  2  0  0  0  0
 20 21  1  0  0  0  0
 21 22  2  0  0  0  0
 23 18  1  0  0  0  0
 23 21  1  0  0  0  0
 24 23  1  0  0  0  0
M  END
>  <minimizedAffinity>
-3.59603024

>  <minimizedRMSD>
0.648604929

$$$$
