
 OpenBabel03252507563D

 40 42  0  0  1  0  0  0  0  0999 V2000
   36.6130   28.4680   41.8820 C   0  0  2  0  0  0  0  0  0  0  0  0
   36.0900   28.1900   40.4730 C   0  0  0  0  0  0  0  0  0  0  0  0
   35.2930   29.5000   40.2850 C   0  0  0  0  0  0  0  0  0  0  0  0
   36.1150   30.5500   40.9670 C   0  0  1  0  0  0  0  0  0  0  0  0
   37.2300   29.8190   41.6510 C   0  0  0  0  0  0  0  0  0  0  0  0
   35.7550   28.5750   42.5730 H   0  0  0  0  0  0  0  0  0  0  0  0
   35.4310   27.3190   40.4630 H   0  0  0  0  0  0  0  0  0  0  0  0
   36.9310   28.1860   39.7820 H   0  0  0  0  0  0  0  0  0  0  0  0
   34.3270   29.3640   40.8440 H   0  0  0  0  0  0  0  0  0  0  0  0
   35.1130   29.7100   39.2130 H   0  0  0  0  0  0  0  0  0  0  0  0
   35.5570   31.0870   41.7600 H   0  0  0  0  0  0  0  0  0  0  0  0
   37.5140   30.3220   42.5970 H   0  0  0  0  0  0  0  0  0  0  0  0
   38.1290   29.7380   40.9990 H   0  0  0  0  0  0  0  0  0  0  0  0
   38.5490   25.2790   42.3820 C   0  0  0  0  0  0  0  0  0  0  0  0
   37.5680   26.1400   41.8730 C   0  0  0  0  0  0  0  0  0  0  0  0
   37.6100   27.4540   42.3170 C   0  0  0  0  0  0  0  0  0  0  0  0
   38.5880   27.8790   43.2250 N   0  0  0  0  0  0  0  0  0  0  0  0
   39.5090   26.9920   43.6800 C   0  0  0  0  0  0  0  0  0  0  0  0
   39.4800   25.7000   43.2530 N   0  0  0  0  0  0  0  0  0  0  0  0
   38.5340   24.2540   42.0490 H   0  0  0  0  0  0  0  0  0  0  0  0
   36.7990   25.8520   41.1720 H   0  0  0  0  0  0  0  0  0  0  0  0
   40.2100   27.4330   44.3750 H   0  0  0  0  0  0  0  0  0  0  0  0
   36.7460   31.5570   40.0340 C   0  0  2  0  0  0  0  0  0  0  0  0
   37.4030   30.9980   38.8550 C   0  0  0  0  0  0  0  0  0  0  0  0
   38.1980   31.6860   39.9100 C   0  0  1  0  0  0  0  0  0  0  0  0
   36.1380   32.4660   39.8910 H   0  0  0  0  0  0  0  0  0  0  0  0
   37.4690   29.8840   38.7360 H   0  0  0  0  0  0  0  0  0  0  0  0
   37.2890   31.5150   37.8740 H   0  0  0  0  0  0  0  0  0  0  0  0
   38.7980   31.1250   40.6260 H   0  0  0  0  0  0  0  0  0  0  0  0
   38.7140   32.9720   39.6140 O   0  0  0  0  0  0  0  0  0  0  0  0
   40.9780   34.2530   39.4310 O   0  0  0  0  0  0  0  0  0  0  0  0
   40.3810   32.9260   39.8260 P   0  0  1  0  0  0  0  0  0  0  0  0
   40.7540   32.6690   41.4820 O   0  0  0  0  0  0  0  0  0  0  0  0
   40.6580   31.6900   41.6170 H   0  0  0  0  0  0  0  0  0  0  0  0
   41.1530   31.7250   38.9760 O   0  0  0  0  0  0  0  0  0  0  0  0
   41.1180   31.7160   37.5730 C   0  0  0  0  0  0  0  0  0  0  0  0
   41.9230   31.1090   36.8370 O   0  0  0  0  0  0  0  0  0  0  0  0
   40.1370   32.4140   36.8210 N   0  0  0  0  0  0  0  0  0  0  0  0
   40.5580   33.2680   36.4030 H   0  0  0  0  0  0  0  0  0  0  0  0
   39.2000   32.5960   36.4150 H   0  0  0  0  0  0  0  0  0  0  0  0
  1 16  1  0  0  0  0
  1  6  1  1  0  0  0
  2  1  1  0  0  0  0
  3  2  1  0  0  0  0
  3  9  1  0  0  0  0
  3  4  1  0  0  0  0
  4  5  1  0  0  0  0
  4 11  1  1  0  0  0
  5  1  1  0  0  0  0
  5 12  1  0  0  0  0
  7  2  1  0  0  0  0
  8  2  1  0  0  0  0
 10  3  1  0  0  0  0
 13  5  1  0  0  0  0
 14 19  1  0  0  0  0
 15 16  1  0  0  0  0
 15 14  2  0  0  0  0
 16 17  2  0  0  0  0
 17 18  1  0  0  0  0
 18 22  1  0  0  0  0
 19 18  2  0  0  0  0
 20 14  1  0  0  0  0
 21 15  1  0  0  0  0
 23 26  1  6  0  0  0
 23  4  1  0  0  0  0
 24 25  1  0  0  0  0
 24 23  1  0  0  0  0
 25 23  1  0  0  0  0
 25 29  1  1  0  0  0
 27 24  1  0  0  0  0
 28 24  1  0  0  0  0
 30 32  1  0  0  0  0
 30 25  1  0  0  0  0
 32 31  2  6  0  0  0
 32 33  1  0  0  0  0
 33 34  1  0  0  0  0
 35 32  1  0  0  0  0
 36 35  1  0  0  0  0
 37 36  2  0  0  0  0
 38 36  1  0  0  0  0
 39 38  1  0  0  0  0
 40 38  1  0  0  0  0
M  END
>  <minimizedAffinity>
-5.75654554

$$$$

 OpenBabel03252507563D

 40 42  0  0  1  0  0  0  0  0999 V2000
   36.6690   28.2510   41.8880 C   0  0  2  0  0  0  0  0  0  0  0  0
   36.2230   27.9410   40.4590 C   0  0  0  0  0  0  0  0  0  0  0  0
   35.3400   29.1890   40.2420 C   0  0  0  0  0  0  0  0  0  0  0  0
   36.0540   30.2940   40.9570 C   0  0  1  0  0  0  0  0  0  0  0  0
   37.1930   29.6440   41.6840 C   0  0  0  0  0  0  0  0  0  0  0  0
   35.7790   28.2900   42.5450 H   0  0  0  0  0  0  0  0  0  0  0  0
   35.6310   27.0240   40.4220 H   0  0  0  0  0  0  0  0  0  0  0  0
   37.0890   28.0020   39.8020 H   0  0  0  0  0  0  0  0  0  0  0  0
   34.3650   28.9800   40.7620 H   0  0  0  0  0  0  0  0  0  0  0  0
   35.1870   29.3900   39.1630 H   0  0  0  0  0  0  0  0  0  0  0  0
   35.4280   30.7850   41.7280 H   0  0  0  0  0  0  0  0  0  0  0  0
   37.4010   30.1630   42.6400 H   0  0  0  0  0  0  0  0  0  0  0  0
   38.1200   29.6330   41.0680 H   0  0  0  0  0  0  0  0  0  0  0  0
   38.7420   25.1820   42.5610 C   0  0  0  0  0  0  0  0  0  0  0  0
   37.7100   25.9640   42.0270 C   0  0  0  0  0  0  0  0  0  0  0  0
   37.7200   27.3110   42.3610 C   0  0  0  0  0  0  0  0  0  0  0  0
   38.7160   27.8430   43.1880 N   0  0  0  0  0  0  0  0  0  0  0  0
   39.6880   27.0290   43.6730 C   0  0  0  0  0  0  0  0  0  0  0  0
   39.6910   25.7060   43.3540 N   0  0  0  0  0  0  0  0  0  0  0  0
   38.7530   24.1330   42.3140 H   0  0  0  0  0  0  0  0  0  0  0  0
   36.9250   25.5920   41.3860 H   0  0  0  0  0  0  0  0  0  0  0  0
   40.4000   27.5490   44.3000 H   0  0  0  0  0  0  0  0  0  0  0  0
   36.6460   31.3480   40.0510 C   0  0  2  0  0  0  0  0  0  0  0  0
   36.8220   30.9530   38.6560 C   0  0  0  0  0  0  0  0  0  0  0  0
   38.0040   31.2310   39.5190 C   0  0  1  0  0  0  0  0  0  0  0  0
   36.2580   32.3630   40.2450 H   0  0  0  0  0  0  0  0  0  0  0  0
   36.5860   29.9020   38.3460 H   0  0  0  0  0  0  0  0  0  0  0  0
   36.5860   31.6870   37.8510 H   0  0  0  0  0  0  0  0  0  0  0  0
   38.6160   30.4250   39.9220 H   0  0  0  0  0  0  0  0  0  0  0  0
   38.7190   32.4340   39.2910 O   0  0  0  0  0  0  0  0  0  0  0  0
   40.4220   30.5690   38.6450 O   0  0  0  0  0  0  0  0  0  0  0  0
   40.1520   32.0450   38.5020 P   0  0  1  0  0  0  0  0  0  0  0  0
   40.0060   32.3790   36.8250 O   0  0  0  0  0  0  0  0  0  0  0  0
   40.1670   33.3570   36.7440 H   0  0  0  0  0  0  0  0  0  0  0  0
   41.4850   32.8810   39.0370 O   0  0  0  0  0  0  0  0  0  0  0  0
   41.5340   33.3670   40.3530 C   0  0  0  0  0  0  0  0  0  0  0  0
   42.4370   33.1180   41.1780 O   0  0  0  0  0  0  0  0  0  0  0  0
   40.5370   34.2160   40.9010 N   0  0  0  0  0  0  0  0  0  0  0  0
   39.9350   33.6730   41.5520 H   0  0  0  0  0  0  0  0  0  0  0  0
   40.0170   35.1000   41.0510 H   0  0  0  0  0  0  0  0  0  0  0  0
  1 16  1  0  0  0  0
  1  6  1  1  0  0  0
  2  1  1  0  0  0  0
  3  2  1  0  0  0  0
  3  9  1  0  0  0  0
  3  4  1  0  0  0  0
  4  5  1  0  0  0  0
  4 11  1  1  0  0  0
  5  1  1  0  0  0  0
  5 12  1  0  0  0  0
  7  2  1  0  0  0  0
  8  2  1  0  0  0  0
 10  3  1  0  0  0  0
 13  5  1  0  0  0  0
 14 19  1  0  0  0  0
 15 16  1  0  0  0  0
 15 14  2  0  0  0  0
 16 17  2  0  0  0  0
 17 18  1  0  0  0  0
 18 22  1  0  0  0  0
 19 18  2  0  0  0  0
 20 14  1  0  0  0  0
 21 15  1  0  0  0  0
 23 26  1  1  0  0  0
 23  4  1  0  0  0  0
 24 25  1  0  0  0  0
 24 23  1  0  0  0  0
 25 29  1  1  0  0  0
 25 23  1  0  0  0  0
 27 24  1  0  0  0  0
 28 24  1  0  0  0  0
 30 25  1  0  0  0  0
 32 31  2  1  0  0  0
 32 35  1  0  0  0  0
 32 30  1  0  0  0  0
 33 32  1  0  0  0  0
 34 33  1  0  0  0  0
 35 36  1  0  0  0  0
 36 38  1  0  0  0  0
 36 37  2  0  0  0  0
 38 40  1  0  0  0  0
 38 39  1  0  0  0  0
M  END
>  <minimizedAffinity>
-5.63185883

$$$$

 OpenBabel03252507563D

 40 42  0  0  1  0  0  0  0  0999 V2000
   37.0560   24.6450   40.0660 C   0  0  2  0  0  0  0  0  0  0  0  0
   36.6410   24.1410   41.4490 C   0  0  0  0  0  0  0  0  0  0  0  0
   37.9070   24.5770   42.2180 C   0  0  0  0  0  0  0  0  0  0  0  0
   38.3070   25.8780   41.5940 C   0  0  1  0  0  0  0  0  0  0  0  0
   37.3990   26.0650   40.4160 C   0  0  0  0  0  0  0  0  0  0  0  0
   37.9760   24.1170   39.7500 H   0  0  0  0  0  0  0  0  0  0  0  0
   36.5260   23.0550   41.4540 H   0  0  0  0  0  0  0  0  0  0  0  0
   35.7960   24.7330   41.7970 H   0  0  0  0  0  0  0  0  0  0  0  0
   38.6930   23.8030   41.9960 H   0  0  0  0  0  0  0  0  0  0  0  0
   37.7110   24.6520   43.3050 H   0  0  0  0  0  0  0  0  0  0  0  0
   39.3410   25.8670   41.1950 H   0  0  0  0  0  0  0  0  0  0  0  0
   37.9200   26.5910   39.5920 H   0  0  0  0  0  0  0  0  0  0  0  0
   36.4840   26.6380   40.6900 H   0  0  0  0  0  0  0  0  0  0  0  0
   34.1450   23.4590   37.9960 C   0  0  0  0  0  0  0  0  0  0  0  0
   35.1370   23.4290   38.9840 C   0  0  0  0  0  0  0  0  0  0  0  0
   35.9460   24.5520   39.0830 C   0  0  0  0  0  0  0  0  0  0  0  0
   35.7640   25.6490   38.2310 N   0  0  0  0  0  0  0  0  0  0  0  0
   34.7840   25.6130   37.2930 C   0  0  0  0  0  0  0  0  0  0  0  0
   33.9830   24.5180   37.1860 N   0  0  0  0  0  0  0  0  0  0  0  0
   33.5070   22.5960   37.9040 H   0  0  0  0  0  0  0  0  0  0  0  0
   35.3090   22.6030   39.6600 H   0  0  0  0  0  0  0  0  0  0  0  0
   34.7390   26.5130   36.6950 H   0  0  0  0  0  0  0  0  0  0  0  0
   38.1320   27.0830   42.4890 C   0  0  2  0  0  0  0  0  0  0  0  0
   36.9410   27.0720   43.3340 C   0  0  0  0  0  0  0  0  0  0  0  0
   37.0870   28.0770   42.2450 C   0  0  1  0  0  0  0  0  0  0  0  0
   39.0740   27.4320   42.9450 H   0  0  0  0  0  0  0  0  0  0  0  0
   36.2000   26.2360   43.2340 H   0  0  0  0  0  0  0  0  0  0  0  0
   37.0180   27.4340   44.3860 H   0  0  0  0  0  0  0  0  0  0  0  0
   36.5370   27.9850   41.3090 H   0  0  0  0  0  0  0  0  0  0  0  0
   37.3640   29.4170   42.6160 O   0  0  0  0  0  0  0  0  0  0  0  0
   37.1470   29.5370   40.0210 O   0  0  0  0  0  0  0  0  0  0  0  0
   37.1330   30.3900   41.2640 P   0  0  1  0  0  0  0  0  0  0  0  0
   35.5980   31.1520   41.3470 O   0  0  0  0  0  0  0  0  0  0  0  0
   35.7310   31.9320   41.9480 H   0  0  0  0  0  0  0  0  0  0  0  0
   38.2550   31.6020   41.0860 O   0  0  0  0  0  0  0  0  0  0  0  0
   38.1030   32.5640   40.0750 C   0  0  0  0  0  0  0  0  0  0  0  0
   38.9570   32.8360   39.2060 O   0  0  0  0  0  0  0  0  0  0  0  0
   36.9300   33.3510   39.9290 N   0  0  0  0  0  0  0  0  0  0  0  0
   37.1140   34.3190   40.2640 H   0  0  0  0  0  0  0  0  0  0  0  0
   35.9460   33.5550   39.6750 H   0  0  0  0  0  0  0  0  0  0  0  0
  1  6  1  6  0  0  0
  1  5  1  0  0  0  0
  1  2  1  0  0  0  0
  2  7  1  0  0  0  0
  2  8  1  0  0  0  0
  2  3  1  0  0  0  0
  3 10  1  0  0  0  0
  4 11  1  6  0  0  0
  4  3  1  0  0  0  0
  4 23  1  0  0  0  0
  5 13  1  0  0  0  0
  5  4  1  0  0  0  0
  9  3  1  0  0  0  0
 12  5  1  0  0  0  0
 14 15  1  0  0  0  0
 15 16  2  0  0  0  0
 15 21  1  0  0  0  0
 16  1  1  0  0  0  0
 17 16  1  0  0  0  0
 18 17  2  0  0  0  0
 19 18  1  0  0  0  0
 19 14  2  0  0  0  0
 20 14  1  0  0  0  0
 22 18  1  0  0  0  0
 23 26  1  1  0  0  0
 23 24  1  0  0  0  0
 24 28  1  0  0  0  0
 25 29  1  6  0  0  0
 25 23  1  0  0  0  0
 25 30  1  0  0  0  0
 25 24  1  0  0  0  0
 27 24  1  0  0  0  0
 32 31  2  6  0  0  0
 32 33  1  0  0  0  0
 32 30  1  0  0  0  0
 33 34  1  0  0  0  0
 35 32  1  0  0  0  0
 36 35  1  0  0  0  0
 37 36  2  0  0  0  0
 38 36  1  0  0  0  0
 38 39  1  0  0  0  0
 40 38  1  0  0  0  0
M  END
>  <minimizedAffinity>
-5.6024394

$$$$

 OpenBabel03252507563D

 40 42  0  0  1  0  0  0  0  0999 V2000
   36.6710   28.5050   41.9630 C   0  0  2  0  0  0  0  0  0  0  0  0
   36.0760   28.0830   40.6200 C   0  0  0  0  0  0  0  0  0  0  0  0
   35.2760   29.3720   40.3330 C   0  0  0  0  0  0  0  0  0  0  0  0
   36.1330   30.4820   40.8570 C   0  0  1  0  0  0  0  0  0  0  0  0
   37.2800   29.8180   41.5590 C   0  0  0  0  0  0  0  0  0  0  0  0
   35.8490   28.6920   42.6810 H   0  0  0  0  0  0  0  0  0  0  0  0
   35.4150   27.2220   40.7360 H   0  0  0  0  0  0  0  0  0  0  0  0
   36.8810   27.9980   39.8920 H   0  0  0  0  0  0  0  0  0  0  0  0
   34.3380   29.3050   40.9500 H   0  0  0  0  0  0  0  0  0  0  0  0
   35.0420   29.4680   39.2540 H   0  0  0  0  0  0  0  0  0  0  0  0
   35.6180   31.1050   41.6150 H   0  0  0  0  0  0  0  0  0  0  0  0
   37.6120   30.4160   42.4300 H   0  0  0  0  0  0  0  0  0  0  0  0
   38.1440   29.6610   40.8760 H   0  0  0  0  0  0  0  0  0  0  0  0
   39.6110   26.9000   43.6800 C   0  0  0  0  0  0  0  0  0  0  0  0
   38.7060   27.9060   43.3170 C   0  0  0  0  0  0  0  0  0  0  0  0
   37.6840   27.5340   42.4540 C   0  0  0  0  0  0  0  0  0  0  0  0
   37.5790   26.2200   41.9830 N   0  0  0  0  0  0  0  0  0  0  0  0
   38.4900   25.2940   42.3740 C   0  0  0  0  0  0  0  0  0  0  0  0
   39.4980   25.6440   43.2190 N   0  0  0  0  0  0  0  0  0  0  0  0
   40.4120   27.1680   44.3490 H   0  0  0  0  0  0  0  0  0  0  0  0
   38.7530   28.9290   43.6580 H   0  0  0  0  0  0  0  0  0  0  0  0
   38.3090   24.3170   41.9460 H   0  0  0  0  0  0  0  0  0  0  0  0
   36.7210   31.3770   39.7920 C   0  0  2  0  0  0  0  0  0  0  0  0
   37.0110   30.7310   38.5150 C   0  0  0  0  0  0  0  0  0  0  0  0
   38.1150   31.2550   39.3660 C   0  0  1  0  0  0  0  0  0  0  0  0
   36.2620   32.3810   39.7590 H   0  0  0  0  0  0  0  0  0  0  0  0
   36.8580   29.6250   38.4080 H   0  0  0  0  0  0  0  0  0  0  0  0
   36.7860   31.2750   37.5680 H   0  0  0  0  0  0  0  0  0  0  0  0
   38.7450   30.5880   39.9540 H   0  0  0  0  0  0  0  0  0  0  0  0
   38.7720   32.4370   38.9410 O   0  0  0  0  0  0  0  0  0  0  0  0
   40.6820   34.0520   39.6790 O   0  0  0  0  0  0  0  0  0  0  0  0
   39.8040   32.9300   40.1740 P   0  0  1  0  0  0  0  0  0  0  0  0
   38.8910   33.5390   41.4940 O   0  0  0  0  0  0  0  0  0  0  0  0
   38.5950   32.7320   41.9940 H   0  0  0  0  0  0  0  0  0  0  0  0
   40.7750   31.7290   40.7850 O   0  0  0  0  0  0  0  0  0  0  0  0
   40.9520   31.5970   42.1710 C   0  0  0  0  0  0  0  0  0  0  0  0
   40.1070   31.1300   42.9620 O   0  0  0  0  0  0  0  0  0  0  0  0
   42.1410   31.9910   42.8390 N   0  0  0  0  0  0  0  0  0  0  0  0
   41.9770   32.8810   43.3510 H   0  0  0  0  0  0  0  0  0  0  0  0
   43.1310   31.9220   43.1400 H   0  0  0  0  0  0  0  0  0  0  0  0
  1 16  1  0  0  0  0
  1  6  1  1  0  0  0
  2  7  1  0  0  0  0
  2  1  1  0  0  0  0
  3  2  1  0  0  0  0
  3  4  1  0  0  0  0
  3  9  1  0  0  0  0
  4  5  1  0  0  0  0
  4 11  1  1  0  0  0
  5  1  1  0  0  0  0
  5 12  1  0  0  0  0
  8  2  1  0  0  0  0
 10  3  1  0  0  0  0
 13  5  1  0  0  0  0
 14 20  1  0  0  0  0
 15 21  1  0  0  0  0
 15 14  1  0  0  0  0
 16 15  2  0  0  0  0
 17 18  2  0  0  0  0
 17 16  1  0  0  0  0
 18 19  1  0  0  0  0
 19 14  2  0  0  0  0
 22 18  1  0  0  0  0
 23 26  1  6  0  0  0
 23  4  1  0  0  0  0
 24 25  1  0  0  0  0
 24 23  1  0  0  0  0
 25 23  1  0  0  0  0
 25 29  1  1  0  0  0
 27 24  1  0  0  0  0
 28 24  1  0  0  0  0
 30 25  1  0  0  0  0
 30 32  1  0  0  0  0
 32 31  2  6  0  0  0
 32 35  1  0  0  0  0
 32 33  1  0  0  0  0
 33 34  1  0  0  0  0
 35 36  1  0  0  0  0
 36 38  1  0  0  0  0
 36 37  2  0  0  0  0
 38 40  1  0  0  0  0
 38 39  1  0  0  0  0
M  END
>  <minimizedAffinity>
-5.55072498

$$$$

 OpenBabel03252507563D

 40 42  0  0  1  0  0  0  0  0999 V2000
   37.4620   30.6820   40.1740 C   0  0  2  0  0  0  0  0  0  0  0  0
   36.1560   30.7200   40.9660 C   0  0  0  0  0  0  0  0  0  0  0  0
   35.8430   29.2080   40.9240 C   0  0  0  0  0  0  0  0  0  0  0  0
   37.1780   28.5370   41.0320 C   0  0  1  0  0  0  0  0  0  0  0  0
   38.1960   29.6340   40.9630 C   0  0  0  0  0  0  0  0  0  0  0  0
   37.2590   30.2940   39.1580 H   0  0  0  0  0  0  0  0  0  0  0  0
   35.3930   31.2980   40.4400 H   0  0  0  0  0  0  0  0  0  0  0  0
   36.3770   31.0060   41.9920 H   0  0  0  0  0  0  0  0  0  0  0  0
   35.4070   29.0040   39.9080 H   0  0  0  0  0  0  0  0  0  0  0  0
   35.1400   28.9210   41.7300 H   0  0  0  0  0  0  0  0  0  0  0  0
   37.3900   27.8560   40.1840 H   0  0  0  0  0  0  0  0  0  0  0  0
   39.1180   29.2900   40.4540 H   0  0  0  0  0  0  0  0  0  0  0  0
   38.4610   30.0140   41.9750 H   0  0  0  0  0  0  0  0  0  0  0  0
   38.2780   34.3480   39.9230 C   0  0  0  0  0  0  0  0  0  0  0  0
   37.4990   33.1840   39.9080 C   0  0  0  0  0  0  0  0  0  0  0  0
   38.1590   31.9950   40.1840 C   0  0  0  0  0  0  0  0  0  0  0  0
   39.5320   31.9790   40.4620 N   0  0  0  0  0  0  0  0  0  0  0  0
   40.2280   33.1430   40.4600 C   0  0  0  0  0  0  0  0  0  0  0  0
   39.5940   34.3170   40.1910 N   0  0  0  0  0  0  0  0  0  0  0  0
   37.7840   35.2810   39.7110 H   0  0  0  0  0  0  0  0  0  0  0  0
   36.4390   33.1550   39.6990 H   0  0  0  0  0  0  0  0  0  0  0  0
   41.2770   33.0080   40.6870 H   0  0  0  0  0  0  0  0  0  0  0  0
   37.4050   27.7990   42.3310 C   0  0  2  0  0  0  0  0  0  0  0  0
   37.9870   28.5900   43.4120 C   0  0  0  0  0  0  0  0  0  0  0  0
   38.7490   27.4650   42.8020 C   0  0  1  0  0  0  0  0  0  0  0  0
   36.5850   27.1080   42.5930 H   0  0  0  0  0  0  0  0  0  0  0  0
   38.2940   29.6510   43.2170 H   0  0  0  0  0  0  0  0  0  0  0  0
   37.6060   28.4520   44.4510 H   0  0  0  0  0  0  0  0  0  0  0  0
   39.5660   27.6450   42.1040 H   0  0  0  0  0  0  0  0  0  0  0  0
   38.8960   26.2780   43.5620 O   0  0  0  0  0  0  0  0  0  0  0  0
   39.6950   25.3750   41.2510 O   0  0  0  0  0  0  0  0  0  0  0  0
   38.9420   24.9790   42.4950 P   0  0  1  0  0  0  0  0  0  0  0  0
   39.7840   23.6650   43.2080 O   0  0  0  0  0  0  0  0  0  0  0  0
   39.1170   23.2230   43.7980 H   0  0  0  0  0  0  0  0  0  0  0  0
   37.4500   24.3990   42.0480 O   0  0  0  0  0  0  0  0  0  0  0  0
   37.3360   23.4730   40.9990 C   0  0  0  0  0  0  0  0  0  0  0  0
   36.4120   23.4470   40.1610 O   0  0  0  0  0  0  0  0  0  0  0  0
   38.2840   22.4410   40.7740 N   0  0  0  0  0  0  0  0  0  0  0  0
   37.8890   21.5300   41.0840 H   0  0  0  0  0  0  0  0  0  0  0  0
   39.1840   22.0240   40.4710 H   0  0  0  0  0  0  0  0  0  0  0  0
  1  6  1  6  0  0  0
  1 16  1  0  0  0  0
  1  5  1  0  0  0  0
  1  2  1  0  0  0  0
  2  8  1  0  0  0  0
  3  2  1  0  0  0  0
  3  4  1  0  0  0  0
  3 10  1  0  0  0  0
  4 11  1  6  0  0  0
  4 23  1  0  0  0  0
  5  4  1  0  0  0  0
  5 13  1  0  0  0  0
  7  2  1  0  0  0  0
  9  3  1  0  0  0  0
 12  5  1  0  0  0  0
 14 19  1  0  0  0  0
 15 14  2  0  0  0  0
 15 16  1  0  0  0  0
 16 17  2  0  0  0  0
 18 17  1  0  0  0  0
 18 22  1  0  0  0  0
 19 18  2  0  0  0  0
 20 14  1  0  0  0  0
 21 15  1  0  0  0  0
 23 26  1  1  0  0  0
 23 25  1  0  0  0  0
 23 24  1  0  0  0  0
 24 28  1  0  0  0  0
 25 29  1  6  0  0  0
 25 24  1  0  0  0  0
 25 30  1  0  0  0  0
 27 24  1  0  0  0  0
 32 31  2  6  0  0  0
 32 33  1  0  0  0  0
 32 30  1  0  0  0  0
 33 34  1  0  0  0  0
 35 32  1  0  0  0  0
 36 35  1  0  0  0  0
 37 36  2  0  0  0  0
 38 36  1  0  0  0  0
 38 39  1  0  0  0  0
 40 38  1  0  0  0  0
M  END
>  <minimizedAffinity>
-5.45772791

$$$$

 OpenBabel03252507563D

 40 42  0  0  1  0  0  0  0  0999 V2000
   37.4470   28.6780   42.3560 C   0  0  2  0  0  0  0  0  0  0  0  0
   36.7270   27.6960   41.4330 C   0  0  0  0  0  0  0  0  0  0  0  0
   35.5480   28.6100   41.0350 C   0  0  0  0  0  0  0  0  0  0  0  0
   36.1420   29.9820   40.9360 C   0  0  1  0  0  0  0  0  0  0  0  0
   37.5520   29.8550   41.4280 C   0  0  0  0  0  0  0  0  0  0  0  0
   36.7780   28.9400   43.1990 H   0  0  0  0  0  0  0  0  0  0  0  0
   36.3820   26.8190   41.9830 H   0  0  0  0  0  0  0  0  0  0  0  0
   37.3490   27.5210   40.5560 H   0  0  0  0  0  0  0  0  0  0  0  0
   34.8230   28.5810   41.8940 H   0  0  0  0  0  0  0  0  0  0  0  0
   35.0730   28.2680   40.0950 H   0  0  0  0  0  0  0  0  0  0  0  0
   35.6420   30.7180   41.5980 H   0  0  0  0  0  0  0  0  0  0  0  0
   37.8760   30.7780   41.9480 H   0  0  0  0  0  0  0  0  0  0  0  0
   38.2590   29.6410   40.5950 H   0  0  0  0  0  0  0  0  0  0  0  0
   41.1240   28.3200   43.0760 C   0  0  0  0  0  0  0  0  0  0  0  0
   39.9320   28.9280   42.6620 C   0  0  0  0  0  0  0  0  0  0  0  0
   38.7760   28.1700   42.7840 C   0  0  0  0  0  0  0  0  0  0  0  0
   38.8190   26.8660   43.2960 N   0  0  0  0  0  0  0  0  0  0  0  0
   40.0080   26.3360   43.6780 C   0  0  0  0  0  0  0  0  0  0  0  0
   41.1490   27.0690   43.5640 N   0  0  0  0  0  0  0  0  0  0  0  0
   42.0320   28.8930   42.9900 H   0  0  0  0  0  0  0  0  0  0  0  0
   39.8580   29.9290   42.2630 H   0  0  0  0  0  0  0  0  0  0  0  0
   39.9170   25.3260   44.0550 H   0  0  0  0  0  0  0  0  0  0  0  0
   36.2060   30.5380   39.5330 C   0  0  2  0  0  0  0  0  0  0  0  0
   35.8000   29.6200   38.4720 C   0  0  0  0  0  0  0  0  0  0  0  0
   37.2120   30.0860   38.5720 C   0  0  1  0  0  0  0  0  0  0  0  0
   35.8600   31.5830   39.4580 H   0  0  0  0  0  0  0  0  0  0  0  0
   35.5370   28.5600   38.7290 H   0  0  0  0  0  0  0  0  0  0  0  0
   35.1870   30.0060   37.6250 H   0  0  0  0  0  0  0  0  0  0  0  0
   37.9980   29.4390   38.9590 H   0  0  0  0  0  0  0  0  0  0  0  0
   37.6650   31.0270   37.6130 O   0  0  0  0  0  0  0  0  0  0  0  0
   40.1100   30.1530   37.8530 O   0  0  0  0  0  0  0  0  0  0  0  0
   39.2660   31.3980   37.9660 P   0  0  1  0  0  0  0  0  0  0  0  0
   39.8700   32.5310   36.8270 O   0  0  0  0  0  0  0  0  0  0  0  0
   39.5420   33.4140   37.1450 H   0  0  0  0  0  0  0  0  0  0  0  0
   39.5070   32.0650   39.4690 O   0  0  0  0  0  0  0  0  0  0  0  0
   38.7870   33.2040   39.8620 C   0  0  0  0  0  0  0  0  0  0  0  0
   38.9620   33.8340   40.9250 O   0  0  0  0  0  0  0  0  0  0  0  0
   37.7560   33.7760   39.0710 N   0  0  0  0  0  0  0  0  0  0  0  0
   36.8300   33.5440   39.4820 H   0  0  0  0  0  0  0  0  0  0  0  0
   37.3470   34.3170   38.2860 H   0  0  0  0  0  0  0  0  0  0  0  0
  1 16  1  0  0  0  0
  1  6  1  1  0  0  0
  2  7  1  0  0  0  0
  2  1  1  0  0  0  0
  3  2  1  0  0  0  0
  3  9  1  0  0  0  0
  4  3  1  0  0  0  0
  4  5  1  0  0  0  0
  4 11  1  1  0  0  0
  5 12  1  0  0  0  0
  5  1  1  0  0  0  0
  8  2  1  0  0  0  0
 10  3  1  0  0  0  0
 13  5  1  0  0  0  0
 14 19  1  0  0  0  0
 15 16  1  0  0  0  0
 15 14  2  0  0  0  0
 16 17  2  0  0  0  0
 17 18  1  0  0  0  0
 18 22  1  0  0  0  0
 19 18  2  0  0  0  0
 20 14  1  0  0  0  0
 21 15  1  0  0  0  0
 23 26  1  6  0  0  0
 23  4  1  0  0  0  0
 24 25  1  0  0  0  0
 24 27  1  0  0  0  0
 24 23  1  0  0  0  0
 25 29  1  1  0  0  0
 25 23  1  0  0  0  0
 28 24  1  0  0  0  0
 30 32  1  0  0  0  0
 30 25  1  0  0  0  0
 32 31  2  6  0  0  0
 32 35  1  0  0  0  0
 33 34  1  0  0  0  0
 33 32  1  0  0  0  0
 35 36  1  0  0  0  0
 36 37  2  0  0  0  0
 38 39  1  0  0  0  0
 38 36  1  0  0  0  0
 40 38  1  0  0  0  0
M  END
>  <minimizedAffinity>
-5.44616222

$$$$

 OpenBabel03252507563D

 40 42  0  0  1  0  0  0  0  0999 V2000
   36.2170   29.0040   40.2440 C   0  0  2  0  0  0  0  0  0  0  0  0
   36.9640   29.1950   38.9240 C   0  0  0  0  0  0  0  0  0  0  0  0
   36.5340   30.6530   38.6520 C   0  0  0  0  0  0  0  0  0  0  0  0
   36.4980   31.3020   40.0010 C   0  0  1  0  0  0  0  0  0  0  0  0
   36.7320   30.2010   40.9920 C   0  0  0  0  0  0  0  0  0  0  0  0
   35.1320   29.1250   40.0670 H   0  0  0  0  0  0  0  0  0  0  0  0
   36.5850   28.5190   38.1550 H   0  0  0  0  0  0  0  0  0  0  0  0
   38.0340   29.1750   39.1210 H   0  0  0  0  0  0  0  0  0  0  0  0
   35.4890   30.6020   38.2380 H   0  0  0  0  0  0  0  0  0  0  0  0
   37.2240   31.1500   37.9430 H   0  0  0  0  0  0  0  0  0  0  0  0
   35.5100   31.7400   40.2440 H   0  0  0  0  0  0  0  0  0  0  0  0
   36.1730   30.3860   41.9300 H   0  0  0  0  0  0  0  0  0  0  0  0
   37.8130   30.0860   41.2300 H   0  0  0  0  0  0  0  0  0  0  0  0
   37.0850   25.4070   40.9370 C   0  0  0  0  0  0  0  0  0  0  0  0
   36.7800   26.5510   40.1880 C   0  0  0  0  0  0  0  0  0  0  0  0
   36.5760   27.7220   40.9060 C   0  0  0  0  0  0  0  0  0  0  0  0
   36.6740   27.7390   42.3030 N   0  0  0  0  0  0  0  0  0  0  0  0
   36.9720   26.5940   42.9670 C   0  0  0  0  0  0  0  0  0  0  0  0
   37.1750   25.4380   42.2760 N   0  0  0  0  0  0  0  0  0  0  0  0
   37.2470   24.4880   40.3980 H   0  0  0  0  0  0  0  0  0  0  0  0
   36.6960   26.5790   39.1120 H   0  0  0  0  0  0  0  0  0  0  0  0
   37.0200   26.7280   44.0390 H   0  0  0  0  0  0  0  0  0  0  0  0
   37.5720   32.3400   40.2260 C   0  0  2  0  0  0  0  0  0  0  0  0
   37.3410   33.6340   39.5890 C   0  0  0  0  0  0  0  0  0  0  0  0
   38.4690   32.7650   39.1510 C   0  0  1  0  0  0  0  0  0  0  0  0
   37.9700   32.3460   41.2560 H   0  0  0  0  0  0  0  0  0  0  0  0
   36.4460   33.7720   38.9270 H   0  0  0  0  0  0  0  0  0  0  0  0
   37.5930   34.5660   40.1460 H   0  0  0  0  0  0  0  0  0  0  0  0
   38.4200   32.1950   38.2240 H   0  0  0  0  0  0  0  0  0  0  0  0
   39.7820   33.1550   39.5150 O   0  0  0  0  0  0  0  0  0  0  0  0
   41.2980   31.1730   38.7600 O   0  0  0  0  0  0  0  0  0  0  0  0
   40.8430   32.5530   38.3580 P   0  0  1  0  0  0  0  0  0  0  0  0
   40.0420   32.4090   36.8470 O   0  0  0  0  0  0  0  0  0  0  0  0
   40.0580   33.3240   36.4600 H   0  0  0  0  0  0  0  0  0  0  0  0
   42.1850   33.4960   38.0930 O   0  0  0  0  0  0  0  0  0  0  0  0
   43.3300   32.9460   37.4950 C   0  0  0  0  0  0  0  0  0  0  0  0
   44.5010   33.3320   37.6940 O   0  0  0  0  0  0  0  0  0  0  0  0
   43.2780   31.8640   36.5780 N   0  0  0  0  0  0  0  0  0  0  0  0
   43.4360   32.2160   35.6120 H   0  0  0  0  0  0  0  0  0  0  0  0
   43.1710   30.8790   36.2730 H   0  0  0  0  0  0  0  0  0  0  0  0
  1  6  1  6  0  0  0
  1 16  1  0  0  0  0
  1  5  1  0  0  0  0
  2  8  1  0  0  0  0
  2  1  1  0  0  0  0
  3  2  1  0  0  0  0
  3  4  1  0  0  0  0
  4 23  1  0  0  0  0
  4 11  1  1  0  0  0
  4  5  1  0  0  0  0
  5 13  1  0  0  0  0
  5 12  1  0  0  0  0
  7  2  1  0  0  0  0
  9  3  1  0  0  0  0
 10  3  1  0  0  0  0
 14 19  1  0  0  0  0
 15 16  1  0  0  0  0
 15 14  2  0  0  0  0
 16 17  2  0  0  0  0
 17 18  1  0  0  0  0
 18 22  1  0  0  0  0
 19 18  2  0  0  0  0
 20 14  1  0  0  0  0
 21 15  1  0  0  0  0
 23 26  1  1  0  0  0
 24 28  1  0  0  0  0
 24 23  1  0  0  0  0
 25 29  1  6  0  0  0
 25 30  1  0  0  0  0
 25 24  1  0  0  0  0
 25 23  1  0  0  0  0
 27 24  1  0  0  0  0
 32 31  2  1  0  0  0
 32 30  1  0  0  0  0
 33 32  1  0  0  0  0
 34 33  1  0  0  0  0
 35 32  1  0  0  0  0
 36 37  2  0  0  0  0
 36 35  1  0  0  0  0
 38 36  1  0  0  0  0
 39 38  1  0  0  0  0
 40 38  1  0  0  0  0
M  END
>  <minimizedAffinity>
-5.31697321

$$$$

 OpenBabel03252507563D

 40 42  0  0  1  0  0  0  0  0999 V2000
   38.0720   26.5600   42.4710 C   0  0  2  0  0  0  0  0  0  0  0  0
   37.0020   27.6340   42.6680 C   0  0  0  0  0  0  0  0  0  0  0  0
   37.8760   28.6640   43.4150 C   0  0  0  0  0  0  0  0  0  0  0  0
   39.2260   28.5590   42.7750 C   0  0  1  0  0  0  0  0  0  0  0  0
   39.1440   27.3980   41.8310 C   0  0  0  0  0  0  0  0  0  0  0  0
   38.4250   26.2150   43.4610 H   0  0  0  0  0  0  0  0  0  0  0  0
   36.1900   27.2690   43.3000 H   0  0  0  0  0  0  0  0  0  0  0  0
   36.7320   28.0410   41.6950 H   0  0  0  0  0  0  0  0  0  0  0  0
   37.9420   28.3080   44.4800 H   0  0  0  0  0  0  0  0  0  0  0  0
   37.4400   29.6800   43.3560 H   0  0  0  0  0  0  0  0  0  0  0  0
   40.0310   28.3200   43.4990 H   0  0  0  0  0  0  0  0  0  0  0  0
   40.1140   26.8670   41.7680 H   0  0  0  0  0  0  0  0  0  0  0  0
   38.8390   27.7190   40.8100 H   0  0  0  0  0  0  0  0  0  0  0  0
   37.4700   23.2040   40.8760 C   0  0  0  0  0  0  0  0  0  0  0  0
   37.9560   24.1370   41.8010 C   0  0  0  0  0  0  0  0  0  0  0  0
   37.6030   25.4620   41.5850 C   0  0  0  0  0  0  0  0  0  0  0  0
   36.8030   25.8280   40.4950 N   0  0  0  0  0  0  0  0  0  0  0  0
   36.3660   24.8730   39.6360 C   0  0  0  0  0  0  0  0  0  0  0  0
   36.7040   23.5700   39.8350 N   0  0  0  0  0  0  0  0  0  0  0  0
   37.7330   22.1700   41.0270 H   0  0  0  0  0  0  0  0  0  0  0  0
   38.5740   23.8960   42.6530 H   0  0  0  0  0  0  0  0  0  0  0  0
   35.7590   25.2730   38.8350 H   0  0  0  0  0  0  0  0  0  0  0  0
   39.6310   29.7670   41.9630 C   0  0  2  0  0  0  0  0  0  0  0  0
   39.9710   30.9600   42.7340 C   0  0  0  0  0  0  0  0  0  0  0  0
   38.7690   30.9450   41.8540 C   0  0  1  0  0  0  0  0  0  0  0  0
   40.2730   29.5220   41.0990 H   0  0  0  0  0  0  0  0  0  0  0  0
   39.8530   30.9480   43.8490 H   0  0  0  0  0  0  0  0  0  0  0  0
   40.8380   31.5830   42.4140 H   0  0  0  0  0  0  0  0  0  0  0  0
   37.7650   30.8520   42.2650 H   0  0  0  0  0  0  0  0  0  0  0  0
   38.8270   31.6830   40.6460 O   0  0  0  0  0  0  0  0  0  0  0  0
   36.2920   31.2040   41.0230 O   0  0  0  0  0  0  0  0  0  0  0  0
   37.2590   31.8500   40.0630 P   0  0  1  0  0  0  0  0  0  0  0  0
   36.8450   33.5130   39.9610 O   0  0  0  0  0  0  0  0  0  0  0  0
   37.2500   33.8260   39.1090 H   0  0  0  0  0  0  0  0  0  0  0  0
   37.0110   31.2080   38.5510 O   0  0  0  0  0  0  0  0  0  0  0  0
   36.5520   29.8880   38.4080 C   0  0  0  0  0  0  0  0  0  0  0  0
   35.7680   29.4920   37.5220 O   0  0  0  0  0  0  0  0  0  0  0  0
   36.9420   28.8380   39.2800 N   0  0  0  0  0  0  0  0  0  0  0  0
   36.1600   28.6120   39.9270 H   0  0  0  0  0  0  0  0  0  0  0  0
   37.5710   28.1190   39.6830 H   0  0  0  0  0  0  0  0  0  0  0  0
  1  2  1  0  0  0  0
  1  6  1  1  0  0  0
  2  7  1  0  0  0  0
  2  3  1  0  0  0  0
  3  9  1  0  0  0  0
  4  3  1  0  0  0  0
  4 11  1  1  0  0  0
  5  1  1  0  0  0  0
  5  4  1  0  0  0  0
  8  2  1  0  0  0  0
 10  3  1  0  0  0  0
 12  5  1  0  0  0  0
 13  5  1  0  0  0  0
 14 20  1  0  0  0  0
 14 15  1  0  0  0  0
 15 21  1  0  0  0  0
 16 15  2  0  0  0  0
 16  1  1  0  0  0  0
 17 16  1  0  0  0  0
 18 19  1  0  0  0  0
 18 17  2  0  0  0  0
 19 14  2  0  0  0  0
 22 18  1  0  0  0  0
 23 26  1  6  0  0  0
 23 24  1  0  0  0  0
 23  4  1  0  0  0  0
 24 27  1  0  0  0  0
 25 23  1  0  0  0  0
 25 29  1  1  0  0  0
 25 24  1  0  0  0  0
 28 24  1  0  0  0  0
 30 25  1  0  0  0  0
 32 30  1  0  0  0  0
 32 31  2  1  0  0  0
 33 32  1  0  0  0  0
 34 33  1  0  0  0  0
 35 32  1  0  0  0  0
 36 35  1  0  0  0  0
 36 38  1  0  0  0  0
 37 36  2  0  0  0  0
 38 40  1  0  0  0  0
 38 39  1  0  0  0  0
M  END
>  <minimizedAffinity>
-5.31345415

$$$$

 OpenBabel03252507563D

 40 42  0  0  1  0  0  0  0  0999 V2000
   37.6780   27.1690   41.6740 C   0  0  2  0  0  0  0  0  0  0  0  0
   36.6420   27.8930   42.5340 C   0  0  0  0  0  0  0  0  0  0  0  0
   37.5180   29.0970   42.9440 C   0  0  0  0  0  0  0  0  0  0  0  0
   38.3490   29.3970   41.7350 C   0  0  1  0  0  0  0  0  0  0  0  0
   38.0660   28.2960   40.7590 C   0  0  0  0  0  0  0  0  0  0  0  0
   38.5460   26.8980   42.3040 H   0  0  0  0  0  0  0  0  0  0  0  0
   36.3610   27.2910   43.4010 H   0  0  0  0  0  0  0  0  0  0  0  0
   35.8380   28.2450   41.8900 H   0  0  0  0  0  0  0  0  0  0  0  0
   38.1860   28.7330   43.7720 H   0  0  0  0  0  0  0  0  0  0  0  0
   36.8960   29.9520   43.2740 H   0  0  0  0  0  0  0  0  0  0  0  0
   39.4370   29.3650   41.9400 H   0  0  0  0  0  0  0  0  0  0  0  0
   38.9640   28.0610   40.1550 H   0  0  0  0  0  0  0  0  0  0  0  0
   37.2280   28.5580   40.0750 H   0  0  0  0  0  0  0  0  0  0  0  0
   36.4210   23.7560   40.7060 C   0  0  0  0  0  0  0  0  0  0  0  0
   36.9680   24.7600   41.5150 C   0  0  0  0  0  0  0  0  0  0  0  0
   37.0880   26.0180   40.9410 C   0  0  0  0  0  0  0  0  0  0  0  0
   36.6780   26.2530   39.6230 N   0  0  0  0  0  0  0  0  0  0  0  0
   36.1560   25.2340   38.8930 C   0  0  0  0  0  0  0  0  0  0  0  0
   36.0320   23.9950   39.4430 N   0  0  0  0  0  0  0  0  0  0  0  0
   36.3190   22.7720   41.1330 H   0  0  0  0  0  0  0  0  0  0  0  0
   37.2960   24.6200   42.5340 H   0  0  0  0  0  0  0  0  0  0  0  0
   35.8760   25.5330   37.8920 H   0  0  0  0  0  0  0  0  0  0  0  0
   38.0100   30.7000   41.0490 C   0  0  2  0  0  0  0  0  0  0  0  0
   36.5850   30.9690   40.8760 C   0  0  0  0  0  0  0  0  0  0  0  0
   37.4610   30.7360   39.6940 C   0  0  1  0  0  0  0  0  0  0  0  0
   38.6490   31.5430   41.3650 H   0  0  0  0  0  0  0  0  0  0  0  0
   35.8350   30.1930   41.1830 H   0  0  0  0  0  0  0  0  0  0  0  0
   36.2040   32.0030   41.0410 H   0  0  0  0  0  0  0  0  0  0  0  0
   37.4450   29.7920   39.1510 H   0  0  0  0  0  0  0  0  0  0  0  0
   37.7920   31.8540   38.8880 O   0  0  0  0  0  0  0  0  0  0  0  0
   39.3680   30.0730   37.8190 O   0  0  0  0  0  0  0  0  0  0  0  0
   39.2680   31.5410   38.1460 P   0  0  1  0  0  0  0  0  0  0  0  0
   39.3750   32.4040   36.6660 O   0  0  0  0  0  0  0  0  0  0  0  0
   39.6420   33.3250   36.9250 H   0  0  0  0  0  0  0  0  0  0  0  0
   40.5980   31.9740   39.0420 O   0  0  0  0  0  0  0  0  0  0  0  0
   40.7250   33.2830   39.5350 C   0  0  0  0  0  0  0  0  0  0  0  0
   41.7230   33.7320   40.1340 O   0  0  0  0  0  0  0  0  0  0  0  0
   39.7030   34.2600   39.4020 N   0  0  0  0  0  0  0  0  0  0  0  0
   39.2250   34.3920   40.3160 H   0  0  0  0  0  0  0  0  0  0  0  0
   39.1140   34.9600   38.9160 H   0  0  0  0  0  0  0  0  0  0  0  0
  1  6  1  1  0  0  0
  1  2  1  0  0  0  0
  2  3  1  0  0  0  0
  2  7  1  0  0  0  0
  3 10  1  0  0  0  0
  3  9  1  0  0  0  0
  4 11  1  1  0  0  0
  4  3  1  0  0  0  0
  5  1  1  0  0  0  0
  5  4  1  0  0  0  0
  8  2  1  0  0  0  0
 12  5  1  0  0  0  0
 13  5  1  0  0  0  0
 14 20  1  0  0  0  0
 14 15  1  0  0  0  0
 15 21  1  0  0  0  0
 16 15  2  0  0  0  0
 16  1  1  0  0  0  0
 17 16  1  0  0  0  0
 18 19  1  0  0  0  0
 18 17  2  0  0  0  0
 19 14  2  0  0  0  0
 22 18  1  0  0  0  0
 23 26  1  1  0  0  0
 23  4  1  0  0  0  0
 24 28  1  0  0  0  0
 24 23  1  0  0  0  0
 24 27  1  0  0  0  0
 25 29  1  6  0  0  0
 25 24  1  0  0  0  0
 25 23  1  0  0  0  0
 30 25  1  0  0  0  0
 32 31  2  6  0  0  0
 32 30  1  0  0  0  0
 32 35  1  0  0  0  0
 33 34  1  0  0  0  0
 33 32  1  0  0  0  0
 35 36  1  0  0  0  0
 36 37  2  0  0  0  0
 38 36  1  0  0  0  0
 38 39  1  0  0  0  0
 40 38  1  0  0  0  0
M  END
>  <minimizedAffinity>
-5.19620085

$$$$
