
 OpenBabel03252507293D

 41 43  0  0  1  0  0  0  0  0999 V2000
   47.5400   31.9190   46.3770 C   0  0  2  0  0  0  0  0  0  0  0  0
   47.2590   30.4830   45.9630 C   0  0  0  0  0  0  0  0  0  0  0  0
   48.1330   29.5770   46.7890 C   0  0  0  0  0  0  0  0  0  0  0  0
   48.0520   29.8240   48.2550 C   0  0  0  0  0  0  0  0  0  0  0  0
   48.1840   31.2560   48.5970 C   0  0  0  0  0  0  0  0  0  0  0  0
   47.2040   32.1000   47.8000 C   0  0  2  0  0  0  0  0  0  0  0  0
   48.6410   32.0340   46.2190 H   0  0  0  0  0  0  0  0  0  0  0  0
   46.2120   30.2070   45.9140 H   0  0  0  0  0  0  0  0  0  0  0  0
   47.6440   30.3990   44.9130 H   0  0  0  0  0  0  0  0  0  0  0  0
   49.1910   29.8220   46.4820 H   0  0  0  0  0  0  0  0  0  0  0  0
   48.0110   28.5170   46.5500 H   0  0  0  0  0  0  0  0  0  0  0  0
   48.9310   29.2930   48.7140 H   0  0  0  0  0  0  0  0  0  0  0  0
   47.0980   29.4030   48.6510 H   0  0  0  0  0  0  0  0  0  0  0  0
   49.2070   31.6080   48.3140 H   0  0  0  0  0  0  0  0  0  0  0  0
   48.0710   31.4030   49.7020 H   0  0  0  0  0  0  0  0  0  0  0  0
   47.4770   33.1340   48.1410 H   0  0  0  0  0  0  0  0  0  0  0  0
   46.8830   32.8940   45.5150 C   0  0  0  0  0  0  0  0  0  0  0  0
   45.7620   33.5660   46.0080 C   0  0  0  0  0  0  0  0  0  0  0  0
   45.1060   34.4960   45.1710 C   0  0  0  0  0  0  0  0  0  0  0  0
   45.6370   34.6760   43.8990 N   0  0  0  0  0  0  0  0  0  0  0  0
   46.7190   33.9960   43.4940 C   0  0  0  0  0  0  0  0  0  0  0  0
   47.3420   33.1150   44.2800 N   0  0  0  0  0  0  0  0  0  0  0  0
   45.2730   33.5480   46.9220 H   0  0  0  0  0  0  0  0  0  0  0  0
   44.2430   35.0860   45.3960 H   0  0  0  0  0  0  0  0  0  0  0  0
   47.2210   34.2440   42.1370 C   0  0  0  0  0  0  0  0  0  0  0  0
   48.2000   35.1650   41.8900 C   0  0  0  0  0  0  0  0  0  0  0  0
   48.7130   35.4430   40.6440 C   0  0  0  0  0  0  0  0  0  0  0  0
   48.1610   34.7090   39.6120 C   0  0  0  0  0  0  0  0  0  0  0  0
   47.1670   33.7700   39.8330 C   0  0  0  0  0  0  0  0  0  0  0  0
   46.7020   33.5430   41.0990 N   0  0  0  0  0  0  0  0  0  0  0  0
   48.5660   35.6820   42.7480 H   0  0  0  0  0  0  0  0  0  0  0  0
   49.4780   36.1830   40.5640 H   0  0  0  0  0  0  0  0  0  0  0  0
   48.5400   34.9010   38.6090 H   0  0  0  0  0  0  0  0  0  0  0  0
   46.7950   33.2450   38.9630 H   0  0  0  0  0  0  0  0  0  0  0  0
   45.8740   31.7280   48.1060 N   0  0  0  0  0  0  0  0  0  0  0  0
   45.1080   32.2090   47.5490 H   0  0  0  0  0  0  0  0  0  0  0  0
   45.2010   30.8210   49.0100 C   0  0  0  0  0  0  0  0  0  0  0  0
   44.6480   31.3970   50.0020 O   0  0  0  0  0  0  0  0  0  0  0  0
   45.1200   29.4150   48.8720 N   0  0  0  0  0  0  0  0  0  0  0  0
   44.1940   28.9450   49.0440 H   0  0  0  0  0  0  0  0  0  0  0  0
   45.8400   28.7040   48.6190 H   0  0  0  0  0  0  0  0  0  0  0  0
  1  7  1  6  0  0  0
  1  6  1  0  0  0  0
  2  1  1  0  0  0  0
  2  3  1  0  0  0  0
  3  4  1  0  0  0  0
  4  5  1  0  0  0  0
  4 13  1  0  0  0  0
  4 12  1  0  0  0  0
  5 15  1  0  0  0  0
  6 35  1  0  0  0  0
  6 16  1  1  0  0  0
  6  5  1  0  0  0  0
  8  2  1  0  0  0  0
  9  2  1  0  0  0  0
 10  3  1  0  0  0  0
 11  3  1  0  0  0  0
 14  5  1  0  0  0  0
 17 18  1  0  0  0  0
 17  1  1  0  0  0  0
 18 23  1  0  0  0  0
 19 24  1  0  0  0  0
 19 18  2  0  0  0  0
 20 19  1  0  0  0  0
 21 20  2  0  0  0  0
 21 22  1  0  0  0  0
 22 17  2  0  0  0  0
 25 21  1  0  0  0  0
 26 25  1  0  0  0  0
 26 31  1  0  0  0  0
 27 26  2  0  0  0  0
 28 29  2  0  0  0  0
 28 27  1  0  0  0  0
 29 30  1  0  0  0  0
 30 25  2  0  0  0  0
 32 27  1  0  0  0  0
 33 28  1  0  0  0  0
 34 29  1  0  0  0  0
 35 37  1  0  0  0  0
 36 35  1  0  0  0  0
 37 38  2  0  0  0  0
 39 37  1  0  0  0  0
 39 40  1  0  0  0  0
 41 39  1  0  0  0  0
M  END
>  <minimizedAffinity>
-5.98107815

>  <minimizedRMSD>
1.66987169

$$$$
