
 OpenBabel03242521273D

 31 32  0  0  1  0  0  0  0  0999 V2000
   48.1450   33.5280   42.5860 C   0  0  1  0  0  0  0  0  0  0  0  0
   46.6760   33.7370   42.3110 C   0  0  2  0  0  0  0  0  0  0  0  0
   46.4630   34.6430   41.2940 O   0  0  0  0  0  0  0  0  0  0  0  0
   46.8710   34.0280   40.1240 C   0  0  0  0  0  0  0  0  0  0  0  0
   48.3780   33.9630   40.1150 C   0  0  2  0  0  0  0  0  0  0  0  0
   48.9850   33.4160   41.3600 C   0  0  2  0  0  0  0  0  0  0  0  0
   48.1840   32.5440   43.1380 H   0  0  0  0  0  0  0  0  0  0  0  0
   46.2290   32.7630   42.0320 H   0  0  0  0  0  0  0  0  0  0  0  0
   46.5890   34.6940   39.2740 H   0  0  0  0  0  0  0  0  0  0  0  0
   46.4270   33.0440   39.9560 H   0  0  0  0  0  0  0  0  0  0  0  0
   48.6720   33.3940   39.1980 H   0  0  0  0  0  0  0  0  0  0  0  0
   49.9180   34.0270   41.5510 H   0  0  0  0  0  0  0  0  0  0  0  0
   44.5620   35.7860   44.7010 C   0  0  0  0  0  0  0  0  0  0  0  0
   45.1990   35.3740   43.5210 C   0  0  0  0  0  0  0  0  0  0  0  0
   45.9850   34.1880   43.5280 C   0  0  0  0  0  0  0  0  0  0  0  0
   46.0770   33.5100   44.6910 N   0  0  0  0  0  0  0  0  0  0  0  0
   45.4500   33.9320   45.8210 C   0  0  0  0  0  0  0  0  0  0  0  0
   44.7000   35.0590   45.8230 N   0  0  0  0  0  0  0  0  0  0  0  0
   44.0030   36.6980   44.5440 H   0  0  0  0  0  0  0  0  0  0  0  0
   45.1610   35.8750   42.5630 H   0  0  0  0  0  0  0  0  0  0  0  0
   45.5500   33.3590   46.7340 H   0  0  0  0  0  0  0  0  0  0  0  0
   48.6500   34.4610   43.4990 O   0  0  0  0  0  0  0  0  0  0  0  0
   49.0860   34.0610   44.2830 H   0  0  0  0  0  0  0  0  0  0  0  0
   48.8020   35.2840   39.8790 O   0  0  0  0  0  0  0  0  0  0  0  0
   48.7160   35.5010   38.9290 H   0  0  0  0  0  0  0  0  0  0  0  0
   49.4580   32.0900   41.1870 O   0  0  0  0  0  0  0  0  0  0  0  0
   50.7280   31.8500   40.7270 C   0  0  0  0  0  0  0  0  0  0  0  0
   51.0100   31.0380   39.8070 O   0  0  0  0  0  0  0  0  0  0  0  0
   51.9100   32.4740   41.2110 N   0  0  0  0  0  0  0  0  0  0  0  0
   52.4620   33.2130   40.7140 H   0  0  0  0  0  0  0  0  0  0  0  0
   52.6230   32.5510   41.9860 H   0  0  0  0  0  0  0  0  0  0  0  0
  1  7  1  1  0  0  0
  1 22  1  0  0  0  0
  2  8  1  6  0  0  0
  2  1  1  0  0  0  0
  2 15  1  0  0  0  0
  3  2  1  0  0  0  0
  4  3  1  0  0  0  0
  5 11  1  6  0  0  0
  5  4  1  0  0  0  0
  5  6  1  0  0  0  0
  6 12  1  1  0  0  0
  6  1  1  0  0  0  0
  9  4  1  0  0  0  0
 10  4  1  0  0  0  0
 13 18  1  0  0  0  0
 14 15  1  0  0  0  0
 14 13  2  0  0  0  0
 15 16  2  0  0  0  0
 16 17  1  0  0  0  0
 17 18  2  0  0  0  0
 17 21  1  0  0  0  0
 19 13  1  0  0  0  0
 20 14  1  0  0  0  0
 22 23  1  0  0  0  0
 24  5  1  0  0  0  0
 25 24  1  0  0  0  0
 26  6  1  0  0  0  0
 27 26  1  0  0  0  0
 27 29  1  0  0  0  0
 28 27  2  0  0  0  0
 29 31  1  0  0  0  0
 30 29  1  0  0  0  0
M  END
>  <minimizedAffinity>
-5.50277996

>  <minimizedRMSD>
0.34165591

$$$$
