
 OpenBabel03252509193D

 39 41  0  0  1  0  0  0  0  0999 V2000
   47.9300   29.0670   48.0820 C   0  0  1  0  0  0  0  0  0  0  0  0
   47.6600   28.0300   47.0620 C   0  0  0  0  0  0  0  0  0  0  0  0
   48.8510   27.1820   46.7050 C   0  0  0  0  0  0  0  0  0  0  0  0
   49.6400   26.7430   47.9080 C   0  0  0  0  0  0  0  0  0  0  0  0
   49.8760   27.8640   48.8850 C   0  0  0  0  0  0  0  0  0  0  0  0
   49.4570   29.1990   48.2690 C   0  0  2  0  0  0  0  0  0  0  0  0
   47.5780   28.6920   49.0560 H   0  0  0  0  0  0  0  0  0  0  0  0
   47.3600   28.5450   46.1050 H   0  0  0  0  0  0  0  0  0  0  0  0
   46.8310   27.3690   47.3610 H   0  0  0  0  0  0  0  0  0  0  0  0
   48.4520   26.2720   46.2210 H   0  0  0  0  0  0  0  0  0  0  0  0
   49.5100   27.6650   45.9640 H   0  0  0  0  0  0  0  0  0  0  0  0
   50.5460   26.2290   47.5980 H   0  0  0  0  0  0  0  0  0  0  0  0
   49.0070   25.9750   48.4420 H   0  0  0  0  0  0  0  0  0  0  0  0
   49.2860   27.7410   49.8170 H   0  0  0  0  0  0  0  0  0  0  0  0
   50.9610   27.9110   49.0980 H   0  0  0  0  0  0  0  0  0  0  0  0
   49.9350   29.3390   47.2770 H   0  0  0  0  0  0  0  0  0  0  0  0
   46.2780   32.4800   46.5560 C   0  0  0  0  0  0  0  0  0  0  0  0
   46.1630   32.4120   47.9420 C   0  0  0  0  0  0  0  0  0  0  0  0
   46.6640   31.3390   48.5600 C   0  0  0  0  0  0  0  0  0  0  0  0
   47.2900   30.3130   47.8150 C   0  0  0  0  0  0  0  0  0  0  0  0
   47.1520   30.9180   46.1010 S   0  0  0  0  0  0  0  0  0  0  0  0
   45.6830   33.2040   48.4990 H   0  0  0  0  0  0  0  0  0  0  0  0
   46.6660   31.1180   49.6150 H   0  0  0  0  0  0  0  0  0  0  0  0
   44.5840   35.4930   45.1870 C   0  0  0  0  0  0  0  0  0  0  0  0
   45.1610   35.5670   43.9180 C   0  0  0  0  0  0  0  0  0  0  0  0
   46.1000   34.5810   43.5840 C   0  0  0  0  0  0  0  0  0  0  0  0
   46.3970   33.6110   44.5110 N   0  0  0  0  0  0  0  0  0  0  0  0
   45.8020   33.6020   45.7140 C   0  0  0  0  0  0  0  0  0  0  0  0
   44.8890   34.5450   46.0620 N   0  0  0  0  0  0  0  0  0  0  0  0
   43.8470   36.2470   45.4780 H   0  0  0  0  0  0  0  0  0  0  0  0
   44.9170   36.3370   43.1990 H   0  0  0  0  0  0  0  0  0  0  0  0
   46.6020   34.5520   42.6270 H   0  0  0  0  0  0  0  0  0  0  0  0
   49.7520   30.2760   49.2170 C   0  0  0  0  0  0  0  0  0  0  0  0
   49.4940   30.1920   50.4340 O   0  0  0  0  0  0  0  0  0  0  0  0
   51.2060   33.4290   49.8040 H   0  0  0  0  0  0  0  0  0  0  0  0
   50.8020   32.4590   50.1110 C   0  0  0  0  0  0  0  0  0  0  0  0
   50.7110   32.0290   51.2740 O   0  0  0  0  0  0  0  0  0  0  0  0
   50.3150   31.5480   49.1670 N   0  0  0  0  0  0  0  0  0  0  0  0
   50.3830   31.8850   48.2050 H   0  0  0  0  0  0  0  0  0  0  0  0
  1  6  1  0  0  0  0
  1  7  1  1  0  0  0
  2  9  1  0  0  0  0
  2  1  1  0  0  0  0
  3  2  1  0  0  0  0
  3  4  1  0  0  0  0
  4 13  1  0  0  0  0
  4  5  1  0  0  0  0
  5 15  1  0  0  0  0
  5 14  1  0  0  0  0
  6 16  1  6  0  0  0
  6  5  1  0  0  0  0
  6 33  1  0  0  0  0
  8  2  1  0  0  0  0
 10  3  1  0  0  0  0
 11  3  1  0  0  0  0
 12  4  1  0  0  0  0
 17 18  2  0  0  0  0
 18 22  1  0  0  0  0
 18 19  1  0  0  0  0
 19 23  1  0  0  0  0
 20  1  1  0  0  0  0
 20 19  2  0  0  0  0
 21 17  1  0  0  0  0
 21 20  1  0  0  0  0
 24 30  1  0  0  0  0
 24 29  1  0  0  0  0
 25 24  2  0  0  0  0
 26 25  1  0  0  0  0
 26 27  2  0  0  0  0
 27 28  1  0  0  0  0
 28 29  2  0  0  0  0
 28 17  1  0  0  0  0
 31 25  1  0  0  0  0
 32 26  1  0  0  0  0
 33 34  2  0  0  0  0
 35 36  1  0  0  0  0
 36 37  2  0  0  0  0
 38 33  1  0  0  0  0
 38 36  1  0  0  0  0
 39 38  1  0  0  0  0
M  END
>  <minimizedAffinity>
-5.11150408

>  <minimizedRMSD>
1.20787156

$$$$
