
 OpenBabel03242523553D

 41 43  0  0  1  0  0  0  0  0999 V2000
   42.8140   34.5460   38.7350 C   0  0  1  0  0  0  0  0  0  0  0  0
   42.9400   35.1820   40.1110 C   0  0  1  0  0  0  0  0  0  0  0  0
   41.6440   35.3690   40.6300 O   0  0  0  0  0  0  0  0  0  0  0  0
   40.7110   35.7120   39.6420 C   0  0  0  0  0  0  0  0  0  0  0  0
   40.4340   34.5540   38.7080 C   0  0  2  0  0  0  0  0  0  0  0  0
   41.6650   33.5980   38.8250 C   0  0  1  0  0  0  0  0  0  0  0  0
   43.7650   34.0310   38.4840 H   0  0  0  0  0  0  0  0  0  0  0  0
   43.4940   36.1350   40.0950 H   0  0  0  0  0  0  0  0  0  0  0  0
   40.9990   36.6310   39.1050 H   0  0  0  0  0  0  0  0  0  0  0  0
   39.7830   35.9240   40.1790 H   0  0  0  0  0  0  0  0  0  0  0  0
   39.5150   34.0000   38.9700 H   0  0  0  0  0  0  0  0  0  0  0  0
   41.4560   33.2890   39.9020 H   0  0  0  0  0  0  0  0  0  0  0  0
   42.5810   35.5220   37.7510 O   0  0  0  0  0  0  0  0  0  0  0  0
   43.1290   36.3310   37.9850 H   0  0  0  0  0  0  0  0  0  0  0  0
   40.4430   34.9920   37.3940 O   0  0  0  0  0  0  0  0  0  0  0  0
   40.5160   34.2700   36.7390 H   0  0  0  0  0  0  0  0  0  0  0  0
   43.4950   34.1890   40.9310 O   0  0  0  0  0  0  0  0  0  0  0  0
   44.5940   34.3380   41.6780 C   0  0  0  0  0  0  0  0  0  0  0  0
   45.8580   34.4370   41.0900 C   0  0  0  0  0  0  0  0  0  0  0  0
   46.9700   34.5920   41.8960 C   0  0  0  0  0  0  0  0  0  0  0  0
   46.7980   34.6430   43.2700 N   0  0  0  0  0  0  0  0  0  0  0  0
   45.5610   34.5430   43.8070 C   0  0  0  0  0  0  0  0  0  0  0  0
   44.4690   34.3910   43.0150 N   0  0  0  0  0  0  0  0  0  0  0  0
   45.9590   34.3940   40.0270 H   0  0  0  0  0  0  0  0  0  0  0  0
   45.4320   34.5820   44.8710 H   0  0  0  0  0  0  0  0  0  0  0  0
   48.3540   34.6850   41.3340 C   0  0  0  0  0  0  0  0  0  0  0  0
   49.0750   36.0200   41.5060 C   0  0  0  0  0  0  0  0  0  0  0  0
   49.4970   34.7030   42.1890 C   0  0  0  0  0  0  0  0  0  0  0  0
   48.4100   34.2400   40.3070 H   0  0  0  0  0  0  0  0  0  0  0  0
   49.7230   36.2990   40.6710 H   0  0  0  0  0  0  0  0  0  0  0  0
   48.5230   36.7680   42.0910 H   0  0  0  0  0  0  0  0  0  0  0  0
   50.4750   34.2860   41.9270 H   0  0  0  0  0  0  0  0  0  0  0  0
   49.3440   34.7470   43.2960 H   0  0  0  0  0  0  0  0  0  0  0  0
   41.5550   32.6670   37.8540 O   0  0  0  0  0  0  0  0  0  0  0  0
   41.0110   31.4520   37.8420 C   0  0  0  0  0  0  0  0  0  0  0  0
   39.7420   31.2430   37.5080 O   0  0  0  0  0  0  0  0  0  0  0  0
   43.0170   28.5580   37.9890 H   0  0  0  0  0  0  0  0  0  0  0  0
   42.7540   29.5640   37.6950 C   0  0  0  0  0  0  0  0  0  0  0  0
   43.4910   30.2750   36.9680 O   0  0  0  0  0  0  0  0  0  0  0  0
   41.5330   30.1170   38.1370 N   0  0  0  0  0  0  0  0  0  0  0  0
   40.9560   29.5010   38.7320 H   0  0  0  0  0  0  0  0  0  0  0  0
  1  7  1  6  0  0  0
  1  6  1  0  0  0  0
  1  2  1  0  0  0  0
  2  8  1  6  0  0  0
  2  3  1  0  0  0  0
  2 17  1  0  0  0  0
  4 10  1  0  0  0  0
  4  3  1  0  0  0  0
  5  6  1  0  0  0  0
  5 11  1  1  0  0  0
  5  4  1  0  0  0  0
  6 12  1  1  0  0  0
  9  4  1  0  0  0  0
 13 14  1  0  0  0  0
 13  1  1  0  0  0  0
 15  5  1  0  0  0  0
 16 15  1  0  0  0  0
 17 18  1  0  0  0  0
 18 23  1  0  0  0  0
 19 18  2  0  0  0  0
 19 20  1  0  0  0  0
 20 21  2  0  0  0  0
 21 22  1  0  0  0  0
 22 25  1  0  0  0  0
 23 22  2  0  0  0  0
 24 19  1  0  0  0  0
 26 27  1  0  0  0  0
 26 20  1  0  0  0  0
 26 28  1  0  0  0  0
 27 31  1  0  0  0  0
 27 28  1  0  0  0  0
 28 33  1  0  0  0  0
 29 26  1  0  0  0  0
 30 27  1  0  0  0  0
 32 28  1  0  0  0  0
 34  6  1  0  0  0  0
 35 34  1  0  0  0  0
 35 40  1  0  0  0  0
 36 35  2  0  0  0  0
 38 37  1  0  0  0  0
 38 40  1  0  0  0  0
 39 38  2  0  0  0  0
 40 41  1  0  0  0  0
M  END
>  <minimizedAffinity>
-5.81142235

>  <minimizedRMSD>
0.0948020071

$$$$
