
 OpenBabel03252509313D

 23 23  0  0  0  0  0  0  0  0999 V2000
   46.9330   33.2050   43.1470 C   0  0  0  0  0  0  0  0  0  0  0  0
   46.4130   32.2250   43.0030 H   0  0  0  0  0  0  0  0  0  0  0  0
   46.9430   33.6800   42.1610 H   0  0  0  0  0  0  0  0  0  0  0  0
   45.0130   34.3590   46.1210 C   0  0  0  0  0  0  0  0  0  0  0  0
   45.8380   33.5760   45.3090 C   0  0  0  0  0  0  0  0  0  0  0  0
   46.0690   34.0090   44.0230 C   0  0  0  0  0  0  0  0  0  0  0  0
   45.4910   35.1710   43.5940 N   0  0  0  0  0  0  0  0  0  0  0  0
   44.6890   35.9100   44.4170 C   0  0  0  0  0  0  0  0  0  0  0  0
   44.4570   35.5030   45.6650 N   0  0  0  0  0  0  0  0  0  0  0  0
   44.8160   34.0370   47.1400 H   0  0  0  0  0  0  0  0  0  0  0  0
   46.2490   32.6660   45.7500 H   0  0  0  0  0  0  0  0  0  0  0  0
   44.2670   36.8240   43.9960 H   0  0  0  0  0  0  0  0  0  0  0  0
   48.1800   32.9940   43.7100 O   0  0  0  0  0  0  0  0  0  0  0  0
   50.3750   32.3780   42.4380 O   0  0  0  0  0  0  0  0  0  0  0  0
   49.3340   33.4500   42.5670 P   0  0  2  0  0  0  0  0  0  0  0  0
   49.9860   34.9230   43.0970 O   0  0  0  0  0  0  0  0  0  0  0  0
   49.2420   35.4560   43.4780 H   0  0  0  0  0  0  0  0  0  0  0  0
   48.5670   33.6460   41.0880 O   0  0  0  0  0  0  0  0  0  0  0  0
   48.6100   34.7860   40.3120 C   0  0  0  0  0  0  0  0  0  0  0  0
   48.1210   34.5790   39.1510 O   0  0  0  0  0  0  0  0  0  0  0  0
   49.1130   36.0670   40.6690 N   0  0  0  0  0  0  0  0  0  0  0  0
   48.2850   36.4750   41.1960 H   0  0  0  0  0  0  0  0  0  0  0  0
   50.0950   36.0860   40.2670 H   0  0  0  0  0  0  0  0  0  0  0  0
  1 13  1  0  0  0  0
  1  6  1  0  0  0  0
  2  1  1  0  0  0  0
  3  1  1  0  0  0  0
  4 10  1  0  0  0  0
  5 11  1  0  0  0  0
  5  4  2  0  0  0  0
  6  5  1  0  0  0  0
  7  6  2  0  0  0  0
  7  8  1  0  0  0  0
  8  9  2  0  0  0  0
  9  4  1  0  0  0  0
 12  8  1  0  0  0  0
 15 14  2  6  0  0  0
 15 16  1  0  0  0  0
 15 13  1  0  0  0  0
 16 17  1  0  0  0  0
 18 15  1  0  0  0  0
 19 21  1  0  0  0  0
 19 18  1  0  0  0  0
 20 19  2  0  0  0  0
 21 22  1  0  0  0  0
 23 21  1  0  0  0  0
M  END
>  <minimizedAffinity>
-4.28161907

>  <minimizedRMSD>
1.01758611

$$$$
