
 OpenBabel03252504473D

 23 23  0  0  0  0  0  0  0  0999 V2000
   37.2810   26.4000   42.2900 C   0  0  0  0  0  0  0  0  0  0  0  0
   37.2660   26.9360   43.5740 C   0  0  0  0  0  0  0  0  0  0  0  0
   37.3800   28.3360   43.6780 C   0  0  0  0  0  0  0  0  0  0  0  0
   37.4930   29.0580   42.5450 N   0  0  0  0  0  0  0  0  0  0  0  0
   37.5020   28.4900   41.3240 C   0  0  0  0  0  0  0  0  0  0  0  0
   37.3940   27.1420   41.1980 N   0  0  0  0  0  0  0  0  0  0  0  0
   37.1740   26.3200   44.4460 H   0  0  0  0  0  0  0  0  0  0  0  0
   37.3730   28.7920   44.6630 H   0  0  0  0  0  0  0  0  0  0  0  0
   37.1590   24.9060   42.1890 C   0  0  0  0  0  0  0  0  0  0  0  0
   37.4370   24.5780   41.1520 H   0  0  0  0  0  0  0  0  0  0  0  0
   36.1110   24.6020   42.4020 H   0  0  0  0  0  0  0  0  0  0  0  0
   37.9010   24.4290   42.8630 H   0  0  0  0  0  0  0  0  0  0  0  0
   37.6250   29.3670   40.2670 O   0  0  0  0  0  0  0  0  0  0  0  0
   36.5710   31.2010   38.7880 O   0  0  0  0  0  0  0  0  0  0  0  0
   37.0300   30.9370   40.2250 P   0  0  1  0  0  0  0  0  0  0  0  0
   35.6950   31.1930   41.2040 O   0  0  0  0  0  0  0  0  0  0  0  0
   35.8290   31.8920   41.8960 H   0  0  0  0  0  0  0  0  0  0  0  0
   38.2330   32.0450   40.6910 O   0  0  0  0  0  0  0  0  0  0  0  0
   38.2800   33.3130   40.1280 C   0  0  0  0  0  0  0  0  0  0  0  0
   39.2460   34.0750   39.8720 O   0  0  0  0  0  0  0  0  0  0  0  0
   36.9630   33.7920   39.7990 N   0  0  0  0  0  0  0  0  0  0  0  0
   36.0080   34.1230   39.5470 H   0  0  0  0  0  0  0  0  0  0  0  0
   36.5920   34.6320   40.3300 H   0  0  0  0  0  0  0  0  0  0  0  0
  1  2  1  0  0  0  0
  2  3  2  0  0  0  0
  2  7  1  0  0  0  0
  3  8  1  0  0  0  0
  4  3  1  0  0  0  0
  5  4  2  0  0  0  0
  6  5  1  0  0  0  0
  6  1  2  0  0  0  0
  9  1  1  0  0  0  0
  9 11  1  0  0  0  0
  9 12  1  0  0  0  0
 10  9  1  0  0  0  0
 13  5  1  0  0  0  0
 15 14  2  6  0  0  0
 15 13  1  0  0  0  0
 15 18  1  0  0  0  0
 15 16  1  0  0  0  0
 16 17  1  0  0  0  0
 19 18  1  0  0  0  0
 20 19  2  0  0  0  0
 21 19  1  0  0  0  0
 21 23  1  0  0  0  0
 22 21  1  0  0  0  0
M  END
>  <minimizedAffinity>
-4.82628012

$$$$

 OpenBabel03252504473D

 23 23  0  0  0  0  0  0  0  0999 V2000
   37.8850   25.7640   42.4050 C   0  0  0  0  0  0  0  0  0  0  0  0
   39.2320   25.6580   42.7410 C   0  0  0  0  0  0  0  0  0  0  0  0
   39.9010   26.8550   43.0610 C   0  0  0  0  0  0  0  0  0  0  0  0
   39.2070   28.0100   43.0240 N   0  0  0  0  0  0  0  0  0  0  0  0
   37.9020   28.0590   42.6920 C   0  0  0  0  0  0  0  0  0  0  0  0
   37.2350   26.9190   42.3790 N   0  0  0  0  0  0  0  0  0  0  0  0
   39.7410   24.7160   42.7560 H   0  0  0  0  0  0  0  0  0  0  0  0
   40.9530   26.8140   43.3280 H   0  0  0  0  0  0  0  0  0  0  0  0
   37.1800   24.4820   42.0660 C   0  0  0  0  0  0  0  0  0  0  0  0
   36.1980   24.7150   41.5740 H   0  0  0  0  0  0  0  0  0  0  0  0
   36.9960   23.8990   42.9940 H   0  0  0  0  0  0  0  0  0  0  0  0
   37.7700   23.9260   41.3070 H   0  0  0  0  0  0  0  0  0  0  0  0
   37.3390   29.3170   42.7010 O   0  0  0  0  0  0  0  0  0  0  0  0
   37.0350   29.3250   40.1380 O   0  0  0  0  0  0  0  0  0  0  0  0
   37.0380   30.2640   41.3470 P   0  0  1  0  0  0  0  0  0  0  0  0
   35.5470   31.0270   41.3590 O   0  0  0  0  0  0  0  0  0  0  0  0
   35.5980   32.0170   41.3100 H   0  0  0  0  0  0  0  0  0  0  0  0
   38.2310   31.4640   41.1800 O   0  0  0  0  0  0  0  0  0  0  0  0
   38.2050   32.3390   40.1030 C   0  0  0  0  0  0  0  0  0  0  0  0
   38.9740   32.4680   39.1160 O   0  0  0  0  0  0  0  0  0  0  0  0
   37.0800   33.2330   40.1780 N   0  0  0  0  0  0  0  0  0  0  0  0
   36.2520   33.8640   40.2310 H   0  0  0  0  0  0  0  0  0  0  0  0
   37.2740   34.2670   40.3170 H   0  0  0  0  0  0  0  0  0  0  0  0
  1  2  1  0  0  0  0
  2  7  1  0  0  0  0
  2  3  2  0  0  0  0
  3  8  1  0  0  0  0
  4  3  1  0  0  0  0
  5 13  1  0  0  0  0
  5  4  2  0  0  0  0
  6  1  2  0  0  0  0
  6  5  1  0  0  0  0
  9  1  1  0  0  0  0
  9 11  1  0  0  0  0
 10  9  1  0  0  0  0
 12  9  1  0  0  0  0
 15 14  2  6  0  0  0
 15 16  1  0  0  0  0
 15 13  1  0  0  0  0
 17 16  1  0  0  0  0
 18 15  1  0  0  0  0
 19 21  1  0  0  0  0
 19 18  1  0  0  0  0
 20 19  2  0  0  0  0
 21 22  1  0  0  0  0
 21 23  1  0  0  0  0
M  END
>  <minimizedAffinity>
-4.80905962

$$$$

 OpenBabel03252504473D

 23 23  0  0  0  0  0  0  0  0999 V2000
   37.2690   28.8280   42.3040 C   0  0  0  0  0  0  0  0  0  0  0  0
   36.2020   28.1450   41.7290 C   0  0  0  0  0  0  0  0  0  0  0  0
   35.4670   28.8320   40.7440 C   0  0  0  0  0  0  0  0  0  0  0  0
   35.8380   30.0890   40.4240 N   0  0  0  0  0  0  0  0  0  0  0  0
   36.8810   30.7060   41.0120 C   0  0  0  0  0  0  0  0  0  0  0  0
   37.6040   30.0640   41.9650 N   0  0  0  0  0  0  0  0  0  0  0  0
   35.9460   27.1450   42.0160 H   0  0  0  0  0  0  0  0  0  0  0  0
   34.6270   28.3330   40.2710 H   0  0  0  0  0  0  0  0  0  0  0  0
   38.0480   28.0860   43.3530 C   0  0  0  0  0  0  0  0  0  0  0  0
   38.7000   28.8080   43.9140 H   0  0  0  0  0  0  0  0  0  0  0  0
   38.6850   27.3140   42.8700 H   0  0  0  0  0  0  0  0  0  0  0  0
   37.3460   27.6690   44.1070 H   0  0  0  0  0  0  0  0  0  0  0  0
   37.1290   31.9900   40.5740 O   0  0  0  0  0  0  0  0  0  0  0  0
   38.4280   34.1590   40.0570 O   0  0  0  0  0  0  0  0  0  0  0  0
   38.6480   32.6760   40.3650 P   0  0  1  0  0  0  0  0  0  0  0  0
   39.6240   32.6130   41.7240 O   0  0  0  0  0  0  0  0  0  0  0  0
   40.4760   32.1230   41.5890 H   0  0  0  0  0  0  0  0  0  0  0  0
   39.4790   31.9100   39.0950 O   0  0  0  0  0  0  0  0  0  0  0  0
   38.8880   31.7720   37.8470 C   0  0  0  0  0  0  0  0  0  0  0  0
   37.7950   31.2590   37.4960 O   0  0  0  0  0  0  0  0  0  0  0  0
   39.7120   32.3320   36.8090 N   0  0  0  0  0  0  0  0  0  0  0  0
   40.3070   32.7560   36.0660 H   0  0  0  0  0  0  0  0  0  0  0  0
   40.1220   31.6700   36.0870 H   0  0  0  0  0  0  0  0  0  0  0  0
  1  9  1  0  0  0  0
  2  7  1  0  0  0  0
  2  1  2  0  0  0  0
  3  2  1  0  0  0  0
  4  3  2  0  0  0  0
  4  5  1  0  0  0  0
  5  6  2  0  0  0  0
  6  1  1  0  0  0  0
  8  3  1  0  0  0  0
  9 10  1  0  0  0  0
  9 12  1  0  0  0  0
 11  9  1  0  0  0  0
 13  5  1  0  0  0  0
 15 14  2  6  0  0  0
 15 13  1  0  0  0  0
 15 16  1  0  0  0  0
 17 16  1  0  0  0  0
 18 15  1  0  0  0  0
 19 18  1  0  0  0  0
 20 19  2  0  0  0  0
 21 19  1  0  0  0  0
 22 21  1  0  0  0  0
 23 21  1  0  0  0  0
M  END
>  <minimizedAffinity>
-4.72963762

$$$$

 OpenBabel03252504473D

 23 23  0  0  0  0  0  0  0  0999 V2000
   37.3120   26.6300   42.1000 C   0  0  0  0  0  0  0  0  0  0  0  0
   37.1660   27.0380   43.4220 C   0  0  0  0  0  0  0  0  0  0  0  0
   37.3130   28.4150   43.6800 C   0  0  0  0  0  0  0  0  0  0  0  0
   37.5800   29.2380   42.6450 N   0  0  0  0  0  0  0  0  0  0  0  0
   37.7120   28.7910   41.3820 C   0  0  0  0  0  0  0  0  0  0  0  0
   37.5760   27.4680   41.1080 N   0  0  0  0  0  0  0  0  0  0  0  0
   36.9540   26.3450   44.2110 H   0  0  0  0  0  0  0  0  0  0  0  0
   37.2060   28.7730   44.6990 H   0  0  0  0  0  0  0  0  0  0  0  0
   37.1540   25.1590   41.8350 C   0  0  0  0  0  0  0  0  0  0  0  0
   37.5400   24.9210   40.8080 H   0  0  0  0  0  0  0  0  0  0  0  0
   36.0790   24.8820   41.8970 H   0  0  0  0  0  0  0  0  0  0  0  0
   37.7970   24.5870   42.5360 H   0  0  0  0  0  0  0  0  0  0  0  0
   37.9860   29.7600   40.4400 O   0  0  0  0  0  0  0  0  0  0  0  0
   36.8290   31.4090   38.8250 O   0  0  0  0  0  0  0  0  0  0  0  0
   37.1990   31.2390   40.3010 P   0  0  1  0  0  0  0  0  0  0  0  0
   35.7680   31.3410   41.1650 O   0  0  0  0  0  0  0  0  0  0  0  0
   35.7540   32.0650   41.8420 H   0  0  0  0  0  0  0  0  0  0  0  0
   38.2090   32.5030   40.8220 O   0  0  0  0  0  0  0  0  0  0  0  0
   39.5550   32.2740   41.0720 C   0  0  0  0  0  0  0  0  0  0  0  0
   40.5850   32.5560   40.4080 O   0  0  0  0  0  0  0  0  0  0  0  0
   39.7490   31.5910   42.3240 N   0  0  0  0  0  0  0  0  0  0  0  0
   39.8810   31.1130   43.2410 H   0  0  0  0  0  0  0  0  0  0  0  0
   40.1430   30.6060   42.2990 H   0  0  0  0  0  0  0  0  0  0  0  0
  1  2  1  0  0  0  0
  2  3  2  0  0  0  0
  2  7  1  0  0  0  0
  3  8  1  0  0  0  0
  4  3  1  0  0  0  0
  5  4  2  0  0  0  0
  6  5  1  0  0  0  0
  6  1  2  0  0  0  0
  9 11  1  0  0  0  0
  9  1  1  0  0  0  0
  9 12  1  0  0  0  0
 10  9  1  0  0  0  0
 13  5  1  0  0  0  0
 15 14  2  6  0  0  0
 15 13  1  0  0  0  0
 15 18  1  0  0  0  0
 15 16  1  0  0  0  0
 16 17  1  0  0  0  0
 18 19  1  0  0  0  0
 19 21  1  0  0  0  0
 20 19  2  0  0  0  0
 21 22  1  0  0  0  0
 23 21  1  0  0  0  0
M  END
>  <minimizedAffinity>
-4.43699932

$$$$

 OpenBabel03252504473D

 23 23  0  0  0  0  0  0  0  0999 V2000
   37.2500   27.7840   41.1670 C   0  0  0  0  0  0  0  0  0  0  0  0
   36.9560   27.5980   42.5140 C   0  0  0  0  0  0  0  0  0  0  0  0
   37.4670   28.5560   43.4120 C   0  0  0  0  0  0  0  0  0  0  0  0
   38.1960   29.5760   42.9170 N   0  0  0  0  0  0  0  0  0  0  0  0
   38.4530   29.7110   41.6020 C   0  0  0  0  0  0  0  0  0  0  0  0
   37.9720   28.8010   40.7170 N   0  0  0  0  0  0  0  0  0  0  0  0
   36.3710   26.7700   42.8600 H   0  0  0  0  0  0  0  0  0  0  0  0
   37.2590   28.4460   44.4720 H   0  0  0  0  0  0  0  0  0  0  0  0
   36.7000   26.7580   40.2170 C   0  0  0  0  0  0  0  0  0  0  0  0
   37.2050   26.8640   39.2200 H   0  0  0  0  0  0  0  0  0  0  0  0
   35.6060   26.9120   40.0930 H   0  0  0  0  0  0  0  0  0  0  0  0
   36.9630   25.7420   40.5800 H   0  0  0  0  0  0  0  0  0  0  0  0
   39.2140   30.8080   41.2600 O   0  0  0  0  0  0  0  0  0  0  0  0
   37.1270   32.0370   40.3670 O   0  0  0  0  0  0  0  0  0  0  0  0
   38.6340   32.2210   40.5600 P   0  0  1  0  0  0  0  0  0  0  0  0
   38.8280   33.5880   41.5100 O   0  0  0  0  0  0  0  0  0  0  0  0
   39.3730   34.3010   41.0870 H   0  0  0  0  0  0  0  0  0  0  0  0
   39.4060   32.5120   39.0730 O   0  0  0  0  0  0  0  0  0  0  0  0
   39.1870   31.6720   37.9900 C   0  0  0  0  0  0  0  0  0  0  0  0
   38.7140   30.5090   37.9200 O   0  0  0  0  0  0  0  0  0  0  0  0
   39.5900   32.2900   36.7550 N   0  0  0  0  0  0  0  0  0  0  0  0
   39.8670   32.7530   35.8630 H   0  0  0  0  0  0  0  0  0  0  0  0
   40.4070   31.8650   36.2280 H   0  0  0  0  0  0  0  0  0  0  0  0
  1  2  1  0  0  0  0
  2  7  1  0  0  0  0
  2  3  2  0  0  0  0
  3  8  1  0  0  0  0
  4  3  1  0  0  0  0
  5  4  2  0  0  0  0
  6  1  2  0  0  0  0
  6  5  1  0  0  0  0
  9 12  1  0  0  0  0
  9  1  1  0  0  0  0
 10  9  1  0  0  0  0
 11  9  1  0  0  0  0
 13  5  1  0  0  0  0
 15 14  2  6  0  0  0
 15 13  1  0  0  0  0
 15 16  1  0  0  0  0
 17 16  1  0  0  0  0
 18 15  1  0  0  0  0
 19 18  1  0  0  0  0
 20 19  2  0  0  0  0
 21 19  1  0  0  0  0
 22 21  1  0  0  0  0
 23 21  1  0  0  0  0
M  END
>  <minimizedAffinity>
-4.43457365

$$$$

 OpenBabel03252504473D

 23 23  0  0  0  0  0  0  0  0999 V2000
   37.4650   26.7090   42.2230 C   0  0  0  0  0  0  0  0  0  0  0  0
   37.1820   27.2570   43.4700 C   0  0  0  0  0  0  0  0  0  0  0  0
   37.5330   28.6070   43.6630 C   0  0  0  0  0  0  0  0  0  0  0  0
   38.1100   29.2730   42.6430 N   0  0  0  0  0  0  0  0  0  0  0  0
   38.3640   28.6950   41.4530 C   0  0  0  0  0  0  0  0  0  0  0  0
   38.0350   27.3950   41.2430 N   0  0  0  0  0  0  0  0  0  0  0  0
   36.7200   26.6860   44.2510 H   0  0  0  0  0  0  0  0  0  0  0  0
   37.3280   29.0710   44.6230 H   0  0  0  0  0  0  0  0  0  0  0  0
   37.0870   25.2680   42.0270 C   0  0  0  0  0  0  0  0  0  0  0  0
   37.5850   24.8740   41.1010 H   0  0  0  0  0  0  0  0  0  0  0  0
   35.9840   25.1830   41.9140 H   0  0  0  0  0  0  0  0  0  0  0  0
   37.4910   24.6630   42.8650 H   0  0  0  0  0  0  0  0  0  0  0  0
   38.9600   29.5130   40.5170 O   0  0  0  0  0  0  0  0  0  0  0  0
   38.2170   31.9820   40.6320 O   0  0  0  0  0  0  0  0  0  0  0  0
   38.2070   30.7710   39.6960 P   0  0  1  0  0  0  0  0  0  0  0  0
   38.9950   31.2470   38.2960 O   0  0  0  0  0  0  0  0  0  0  0  0
   38.4440   31.1670   37.4750 H   0  0  0  0  0  0  0  0  0  0  0  0
   36.6170   30.3420   39.2740 O   0  0  0  0  0  0  0  0  0  0  0  0
   35.6900   30.0210   40.2560 C   0  0  0  0  0  0  0  0  0  0  0  0
   34.9010   29.0480   40.3690 O   0  0  0  0  0  0  0  0  0  0  0  0
   35.6700   31.0070   41.3040 N   0  0  0  0  0  0  0  0  0  0  0  0
   35.6750   31.7160   42.0680 H   0  0  0  0  0  0  0  0  0  0  0  0
   34.7890   31.5860   41.4260 H   0  0  0  0  0  0  0  0  0  0  0  0
  1  2  1  0  0  0  0
  2  3  2  0  0  0  0
  2  7  1  0  0  0  0
  3  8  1  0  0  0  0
  4  3  1  0  0  0  0
  5  4  2  0  0  0  0
  6  5  1  0  0  0  0
  6  1  2  0  0  0  0
  9  1  1  0  0  0  0
  9 12  1  0  0  0  0
 10  9  1  0  0  0  0
 11  9  1  0  0  0  0
 13  5  1  0  0  0  0
 15 13  1  0  0  0  0
 15 14  2  1  0  0  0
 16 15  1  0  0  0  0
 17 16  1  0  0  0  0
 18 15  1  0  0  0  0
 18 19  1  0  0  0  0
 19 20  2  0  0  0  0
 19 21  1  0  0  0  0
 21 23  1  0  0  0  0
 21 22  1  0  0  0  0
M  END
>  <minimizedAffinity>
-4.3562789

$$$$

 OpenBabel03252504473D

 23 23  0  0  0  0  0  0  0  0999 V2000
   37.4200   28.6820   42.6370 C   0  0  0  0  0  0  0  0  0  0  0  0
   38.7260   28.7880   43.1050 C   0  0  0  0  0  0  0  0  0  0  0  0
   39.4730   29.8930   42.6540 C   0  0  0  0  0  0  0  0  0  0  0  0
   38.8850   30.7660   41.8110 N   0  0  0  0  0  0  0  0  0  0  0  0
   37.6150   30.6180   41.3870 C   0  0  0  0  0  0  0  0  0  0  0  0
   36.8750   29.5600   41.8080 N   0  0  0  0  0  0  0  0  0  0  0  0
   39.1500   28.0680   43.7750 H   0  0  0  0  0  0  0  0  0  0  0  0
   40.4970   30.0110   42.9960 H   0  0  0  0  0  0  0  0  0  0  0  0
   36.6310   27.5000   43.1240 C   0  0  0  0  0  0  0  0  0  0  0  0
   35.7090   27.3820   42.4950 H   0  0  0  0  0  0  0  0  0  0  0  0
   36.3350   27.6590   44.1840 H   0  0  0  0  0  0  0  0  0  0  0  0
   37.2220   26.5730   42.9670 H   0  0  0  0  0  0  0  0  0  0  0  0
   37.1630   31.5960   40.5270 O   0  0  0  0  0  0  0  0  0  0  0  0
   37.0260   33.9100   39.3900 O   0  0  0  0  0  0  0  0  0  0  0  0
   38.0240   32.9610   40.0590 P   0  0  1  0  0  0  0  0  0  0  0  0
   38.7080   33.8120   41.3300 O   0  0  0  0  0  0  0  0  0  0  0  0
   39.6960   33.8950   41.2760 H   0  0  0  0  0  0  0  0  0  0  0  0
   39.2740   32.5400   38.9860 O   0  0  0  0  0  0  0  0  0  0  0  0
   40.5670   33.0000   39.1950 C   0  0  0  0  0  0  0  0  0  0  0  0
   41.2550   33.8560   38.5830 O   0  0  0  0  0  0  0  0  0  0  0  0
   41.1810   32.3490   40.3220 N   0  0  0  0  0  0  0  0  0  0  0  0
   41.6110   31.8870   41.1500 H   0  0  0  0  0  0  0  0  0  0  0  0
   42.0150   31.7180   40.1390 H   0  0  0  0  0  0  0  0  0  0  0  0
  1  2  1  0  0  0  0
  1  9  1  0  0  0  0
  2  7  1  0  0  0  0
  3  8  1  0  0  0  0
  3  2  2  0  0  0  0
  4  3  1  0  0  0  0
  5  6  1  0  0  0  0
  5  4  2  0  0  0  0
  6  1  2  0  0  0  0
  9 11  1  0  0  0  0
 10  9  1  0  0  0  0
 12  9  1  0  0  0  0
 13  5  1  0  0  0  0
 15 14  2  6  0  0  0
 15 13  1  0  0  0  0
 15 16  1  0  0  0  0
 17 16  1  0  0  0  0
 18 19  1  0  0  0  0
 18 15  1  0  0  0  0
 19 21  1  0  0  0  0
 20 19  2  0  0  0  0
 21 22  1  0  0  0  0
 23 21  1  0  0  0  0
M  END
>  <minimizedAffinity>
-4.29822636

$$$$

 OpenBabel03252504473D

 23 23  0  0  0  0  0  0  0  0999 V2000
   37.6200   26.3940   42.3650 C   0  0  0  0  0  0  0  0  0  0  0  0
   38.8850   26.3460   42.9430 C   0  0  0  0  0  0  0  0  0  0  0  0
   39.4970   27.5820   43.2310 C   0  0  0  0  0  0  0  0  0  0  0  0
   38.8290   28.7150   42.9350 N   0  0  0  0  0  0  0  0  0  0  0  0
   37.6040   28.7070   42.3740 C   0  0  0  0  0  0  0  0  0  0  0  0
   36.9940   27.5280   42.0860 N   0  0  0  0  0  0  0  0  0  0  0  0
   39.3760   25.4200   43.1610 H   0  0  0  0  0  0  0  0  0  0  0  0
   40.4840   27.5870   43.6840 H   0  0  0  0  0  0  0  0  0  0  0  0
   36.9760   25.0720   42.0610 C   0  0  0  0  0  0  0  0  0  0  0  0
   36.0990   25.2310   41.3780 H   0  0  0  0  0  0  0  0  0  0  0  0
   36.6250   24.6010   43.0050 H   0  0  0  0  0  0  0  0  0  0  0  0
   37.6870   24.4370   41.4910 H   0  0  0  0  0  0  0  0  0  0  0  0
   37.0580   29.9500   42.1320 O   0  0  0  0  0  0  0  0  0  0  0  0
   35.3860   29.9630   40.1660 O   0  0  0  0  0  0  0  0  0  0  0  0
   36.7090   30.5870   40.6180 P   0  0  1  0  0  0  0  0  0  0  0  0
   36.4780   32.2460   40.6070 O   0  0  0  0  0  0  0  0  0  0  0  0
   37.1060   32.7380   40.0170 H   0  0  0  0  0  0  0  0  0  0  0  0
   37.9550   30.2310   39.5180 O   0  0  0  0  0  0  0  0  0  0  0  0
   37.9740   30.8170   38.2600 C   0  0  0  0  0  0  0  0  0  0  0  0
   37.6170   31.9570   37.8670 O   0  0  0  0  0  0  0  0  0  0  0  0
   38.5060   29.9200   37.2680 N   0  0  0  0  0  0  0  0  0  0  0  0
   38.9090   29.2700   36.5610 H   0  0  0  0  0  0  0  0  0  0  0  0
   37.8530   29.5790   36.5040 H   0  0  0  0  0  0  0  0  0  0  0  0
  1  2  1  0  0  0  0
  2  7  1  0  0  0  0
  2  3  2  0  0  0  0
  3  8  1  0  0  0  0
  4  3  1  0  0  0  0
  5  4  2  0  0  0  0
  6  1  2  0  0  0  0
  6  5  1  0  0  0  0
  9  1  1  0  0  0  0
  9 11  1  0  0  0  0
 10  9  1  0  0  0  0
 12  9  1  0  0  0  0
 13  5  1  0  0  0  0
 15 14  2  6  0  0  0
 15 13  1  0  0  0  0
 16 15  1  0  0  0  0
 17 16  1  0  0  0  0
 18 15  1  0  0  0  0
 19 18  1  0  0  0  0
 20 19  2  0  0  0  0
 21 19  1  0  0  0  0
 22 21  1  0  0  0  0
 23 21  1  0  0  0  0
M  END
>  <minimizedAffinity>
-4.27082968

$$$$

 OpenBabel03252504473D

 23 23  0  0  0  0  0  0  0  0999 V2000
   38.0880   26.1130   42.4200 C   0  0  0  0  0  0  0  0  0  0  0  0
   39.2390   25.7990   43.1350 C   0  0  0  0  0  0  0  0  0  0  0  0
   40.0530   26.8770   43.5310 C   0  0  0  0  0  0  0  0  0  0  0  0
   39.6720   28.1270   43.1980 N   0  0  0  0  0  0  0  0  0  0  0  0
   38.5460   28.3780   42.5030 C   0  0  0  0  0  0  0  0  0  0  0  0
   37.7450   27.3550   42.1090 N   0  0  0  0  0  0  0  0  0  0  0  0
   39.5000   24.7880   43.3760 H   0  0  0  0  0  0  0  0  0  0  0  0
   40.9600   26.6730   44.0910 H   0  0  0  0  0  0  0  0  0  0  0  0
   37.2250   24.9560   42.0020 C   0  0  0  0  0  0  0  0  0  0  0  0
   36.4860   25.3010   41.2310 H   0  0  0  0  0  0  0  0  0  0  0  0
   36.6780   24.5610   42.8850 H   0  0  0  0  0  0  0  0  0  0  0  0
   37.8530   24.1930   41.4950 H   0  0  0  0  0  0  0  0  0  0  0  0
   38.2990   29.7100   42.2430 O   0  0  0  0  0  0  0  0  0  0  0  0
   38.3070   31.9500   40.9610 O   0  0  0  0  0  0  0  0  0  0  0  0
   38.3570   30.4380   40.7300 P   0  0  1  0  0  0  0  0  0  0  0  0
   39.7640   30.1340   39.8730 O   0  0  0  0  0  0  0  0  0  0  0  0
   39.6180   29.6870   39.0000 H   0  0  0  0  0  0  0  0  0  0  0  0
   37.0480   29.9280   39.7710 O   0  0  0  0  0  0  0  0  0  0  0  0
   35.7530   29.9610   40.2710 C   0  0  0  0  0  0  0  0  0  0  0  0
   34.7160   29.3340   39.9360 O   0  0  0  0  0  0  0  0  0  0  0  0
   35.6340   30.8920   41.3620 N   0  0  0  0  0  0  0  0  0  0  0  0
   35.5610   31.5540   42.1630 H   0  0  0  0  0  0  0  0  0  0  0  0
   35.0220   31.7480   41.2210 H   0  0  0  0  0  0  0  0  0  0  0  0
  1  2  1  0  0  0  0
  2  7  1  0  0  0  0
  2  3  2  0  0  0  0
  3  8  1  0  0  0  0
  4  3  1  0  0  0  0
  5  4  2  0  0  0  0
  6  1  2  0  0  0  0
  6  5  1  0  0  0  0
  9  1  1  0  0  0  0
  9 11  1  0  0  0  0
 10  9  1  0  0  0  0
 12  9  1  0  0  0  0
 13  5  1  0  0  0  0
 15 14  2  1  0  0  0
 15 13  1  0  0  0  0
 16 15  1  0  0  0  0
 17 16  1  0  0  0  0
 18 19  1  0  0  0  0
 18 15  1  0  0  0  0
 19 21  1  0  0  0  0
 20 19  2  0  0  0  0
 21 22  1  0  0  0  0
 23 21  1  0  0  0  0
M  END
>  <minimizedAffinity>
-4.20049238

$$$$
