
 OpenBabel03252503373D

 38 40  0  0  1  0  0  0  0  0999 V2000
   37.7280   32.3850   40.1390 C   0  0  0  0  0  0  0  0  0  0  0  0
   39.0430   32.1970   40.2750 C   0  0  0  0  0  0  0  0  0  0  0  0
   39.5370   30.9850   40.8140 N   0  0  0  0  0  0  0  0  0  0  0  0
   40.5180   29.9690   40.8410 C   0  0  0  0  0  0  0  0  0  0  0  0
   41.6360   29.7800   40.2720 O   0  0  0  0  0  0  0  0  0  0  0  0
   39.8200   29.1190   41.7900 C   0  0  1  0  0  0  0  0  0  0  0  0
   38.8430   30.2670   41.8690 C   0  0  2  0  0  0  0  0  0  0  0  0
   37.1780   29.9410   41.2870 S   0  0  0  0  0  0  0  0  0  0  0  0
   36.6260   31.4440   40.4890 C   0  0  0  0  0  0  0  0  0  0  0  0
   40.2250   28.9690   42.8220 H   0  0  0  0  0  0  0  0  0  0  0  0
   38.8240   30.8190   42.8270 H   0  0  0  0  0  0  0  0  0  0  0  0
   36.1570   31.1740   39.5010 H   0  0  0  0  0  0  0  0  0  0  0  0
   35.8070   31.9470   41.0490 H   0  0  0  0  0  0  0  0  0  0  0  0
   39.3340   27.8790   41.1870 C   0  0  0  0  0  0  0  0  0  0  0  0
   39.1730   27.5400   39.9980 O   0  0  0  0  0  0  0  0  0  0  0  0
   38.9800   26.8650   42.1520 N   0  0  0  0  0  0  0  0  0  0  0  0
   39.0440   26.8210   43.1920 H   0  0  0  0  0  0  0  0  0  0  0  0
   36.6120   24.1270   41.3070 C   0  0  0  0  0  0  0  0  0  0  0  0
   37.0710   25.3830   41.7240 C   0  0  0  0  0  0  0  0  0  0  0  0
   38.4260   25.6280   41.7410 C   0  0  0  0  0  0  0  0  0  0  0  0
   39.2740   24.6540   41.3550 N   0  0  0  0  0  0  0  0  0  0  0  0
   38.8270   23.4290   40.9470 C   0  0  0  0  0  0  0  0  0  0  0  0
   37.4950   23.1920   40.9320 N   0  0  0  0  0  0  0  0  0  0  0  0
   35.5530   23.9070   41.2830 H   0  0  0  0  0  0  0  0  0  0  0  0
   36.3830   26.1570   42.0320 H   0  0  0  0  0  0  0  0  0  0  0  0
   39.6090   22.7440   40.6670 H   0  0  0  0  0  0  0  0  0  0  0  0
   37.3270   33.6940   39.5700 C   0  0  0  0  0  0  0  0  0  0  0  0
   37.0240   34.3490   40.4150 H   0  0  0  0  0  0  0  0  0  0  0  0
   38.1320   34.2100   39.0360 H   0  0  0  0  0  0  0  0  0  0  0  0
   36.4180   33.6010   38.9360 H   0  0  0  0  0  0  0  0  0  0  0  0
   39.9990   33.2200   39.8830 C   0  0  0  0  0  0  0  0  0  0  0  0
   40.3290   34.1610   40.6690 O   0  0  0  0  0  0  0  0  0  0  0  0
   40.7120   33.4270   38.7190 O   0  0  0  0  0  0  0  0  0  0  0  0
   40.8900   32.5890   37.6710 C   0  0  0  0  0  0  0  0  0  0  0  0
   42.0330   32.0880   37.5190 O   0  0  0  0  0  0  0  0  0  0  0  0
   39.7520   32.3370   36.8110 N   0  0  0  0  0  0  0  0  0  0  0  0
   38.9770   31.6540   36.6270 H   0  0  0  0  0  0  0  0  0  0  0  0
   39.7800   33.1730   36.1860 H   0  0  0  0  0  0  0  0  0  0  0  0
  1  2  2  0  0  0  0
  1  9  1  0  0  0  0
  2  3  1  0  0  0  0
  3  4  1  0  0  0  0
  3  7  1  0  0  0  0
  4  6  1  0  0  0  0
  5  4  2  0  0  0  0
  6  7  1  0  0  0  0
  6 10  1  1  0  0  0
  7 11  1  1  0  0  0
  8  7  1  0  0  0  0
  9 13  1  0  0  0  0
  9  8  1  0  0  0  0
 12  9  1  0  0  0  0
 14  6  1  0  0  0  0
 14 16  1  0  0  0  0
 15 14  2  0  0  0  0
 16 17  1  0  0  0  0
 18 19  1  0  0  0  0
 19 20  2  0  0  0  0
 19 25  1  0  0  0  0
 20 16  1  0  0  0  0
 21 20  1  0  0  0  0
 22 21  2  0  0  0  0
 23 22  1  0  0  0  0
 23 18  2  0  0  0  0
 24 18  1  0  0  0  0
 26 22  1  0  0  0  0
 27  1  1  0  0  0  0
 27 28  1  0  0  0  0
 29 27  1  0  0  0  0
 30 27  1  0  0  0  0
 31  2  1  0  0  0  0
 31 32  2  0  0  0  0
 33 31  1  0  0  0  0
 34 33  1  0  0  0  0
 35 34  2  0  0  0  0
 36 34  1  0  0  0  0
 37 36  1  0  0  0  0
 38 36  1  0  0  0  0
M  END
>  <minimizedAffinity>
-5.54993343

$$$$

 OpenBabel03252503373D

 38 40  0  0  1  0  0  0  0  0999 V2000
   37.9490   31.3550   38.5090 C   0  0  0  0  0  0  0  0  0  0  0  0
   39.1610   31.4740   39.0580 C   0  0  0  0  0  0  0  0  0  0  0  0
   39.3850   31.0470   40.3880 N   0  0  0  0  0  0  0  0  0  0  0  0
   40.2280   30.4610   41.3590 C   0  0  0  0  0  0  0  0  0  0  0  0
   41.4330   30.0660   41.3850 O   0  0  0  0  0  0  0  0  0  0  0  0
   39.2330   30.4330   42.4170 C   0  0  1  0  0  0  0  0  0  0  0  0
   38.3780   31.1850   41.4260 C   0  0  2  0  0  0  0  0  0  0  0  0
   36.8990   30.3510   40.8510 S   0  0  0  0  0  0  0  0  0  0  0  0
   36.7120   30.7980   39.1290 C   0  0  0  0  0  0  0  0  0  0  0  0
   39.3420   31.0910   43.3160 H   0  0  0  0  0  0  0  0  0  0  0  0
   38.1620   32.2400   41.6800 H   0  0  0  0  0  0  0  0  0  0  0  0
   36.4930   29.8650   38.5380 H   0  0  0  0  0  0  0  0  0  0  0  0
   35.8260   31.4460   38.9510 H   0  0  0  0  0  0  0  0  0  0  0  0
   38.8090   29.0750   42.7570 C   0  0  0  0  0  0  0  0  0  0  0  0
   38.0100   28.6430   43.6100 O   0  0  0  0  0  0  0  0  0  0  0  0
   39.4360   28.0530   41.9520 N   0  0  0  0  0  0  0  0  0  0  0  0
   40.0950   28.0910   41.1440 H   0  0  0  0  0  0  0  0  0  0  0  0
   39.6920   24.5500   43.1680 C   0  0  0  0  0  0  0  0  0  0  0  0
   40.0090   25.9030   42.9850 C   0  0  0  0  0  0  0  0  0  0  0  0
   39.1920   26.6800   42.1950 C   0  0  0  0  0  0  0  0  0  0  0  0
   38.1090   26.1200   41.6190 N   0  0  0  0  0  0  0  0  0  0  0  0
   37.8000   24.8020   41.7970 C   0  0  0  0  0  0  0  0  0  0  0  0
   38.6050   24.0400   42.5730 N   0  0  0  0  0  0  0  0  0  0  0  0
   40.3170   23.9160   43.7830 H   0  0  0  0  0  0  0  0  0  0  0  0
   40.8790   26.3420   43.4510 H   0  0  0  0  0  0  0  0  0  0  0  0
   36.9110   24.4830   41.2810 H   0  0  0  0  0  0  0  0  0  0  0  0
   37.8300   31.8410   37.1140 C   0  0  0  0  0  0  0  0  0  0  0  0
   37.3800   32.8570   37.1490 H   0  0  0  0  0  0  0  0  0  0  0  0
   38.7900   31.9340   36.5940 H   0  0  0  0  0  0  0  0  0  0  0  0
   37.1130   31.2270   36.5280 H   0  0  0  0  0  0  0  0  0  0  0  0
   40.2750   32.0420   38.3160 C   0  0  0  0  0  0  0  0  0  0  0  0
   41.0570   31.3170   37.6280 O   0  0  0  0  0  0  0  0  0  0  0  0
   40.7300   33.3370   38.1720 O   0  0  0  0  0  0  0  0  0  0  0  0
   42.0030   33.7830   38.0560 C   0  0  0  0  0  0  0  0  0  0  0  0
   42.6780   33.8880   39.1110 O   0  0  0  0  0  0  0  0  0  0  0  0
   42.4840   34.1020   36.7270 N   0  0  0  0  0  0  0  0  0  0  0  0
   43.0380   33.7190   35.9240 H   0  0  0  0  0  0  0  0  0  0  0  0
   42.1030   35.0660   36.5990 H   0  0  0  0  0  0  0  0  0  0  0  0
  1  2  2  0  0  0  0
  1  9  1  0  0  0  0
  2  3  1  0  0  0  0
  3  4  1  0  0  0  0
  3  7  1  0  0  0  0
  4  5  2  0  0  0  0
  4  6  1  0  0  0  0
  6 14  1  0  0  0  0
  6 10  1  1  0  0  0
  7 11  1  1  0  0  0
  7  6  1  0  0  0  0
  8  7  1  0  0  0  0
  9  8  1  0  0  0  0
 12  9  1  0  0  0  0
 13  9  1  0  0  0  0
 14 15  2  0  0  0  0
 16 20  1  0  0  0  0
 16 14  1  0  0  0  0
 17 16  1  0  0  0  0
 18 24  1  0  0  0  0
 19 18  1  0  0  0  0
 19 25  1  0  0  0  0
 20 19  2  0  0  0  0
 21 22  2  0  0  0  0
 21 20  1  0  0  0  0
 22 23  1  0  0  0  0
 23 18  2  0  0  0  0
 26 22  1  0  0  0  0
 27 28  1  0  0  0  0
 27  1  1  0  0  0  0
 29 27  1  0  0  0  0
 30 27  1  0  0  0  0
 31  2  1  0  0  0  0
 32 31  2  0  0  0  0
 33 31  1  0  0  0  0
 34 33  1  0  0  0  0
 34 35  2  0  0  0  0
 36 34  1  0  0  0  0
 37 36  1  0  0  0  0
 38 36  1  0  0  0  0
M  END
>  <minimizedAffinity>
-5.51632547

$$$$

 OpenBabel03252503373D

 38 40  0  0  1  0  0  0  0  0999 V2000
   36.9000   28.2010   41.8950 C   0  0  0  0  0  0  0  0  0  0  0  0
   37.1720   27.5990   40.7340 C   0  0  0  0  0  0  0  0  0  0  0  0
   37.1830   28.3450   39.5310 N   0  0  0  0  0  0  0  0  0  0  0  0
   37.7270   28.5930   38.2510 C   0  0  0  0  0  0  0  0  0  0  0  0
   38.5940   28.0300   37.5160 O   0  0  0  0  0  0  0  0  0  0  0  0
   36.9430   29.7870   37.9900 C   0  0  1  0  0  0  0  0  0  0  0  0
   36.2620   29.4430   39.2930 C   0  0  2  0  0  0  0  0  0  0  0  0
   36.4670   30.6140   40.6350 S   0  0  0  0  0  0  0  0  0  0  0  0
   36.5880   29.6400   42.1320 C   0  0  0  0  0  0  0  0  0  0  0  0
   36.1490   29.7840   37.2010 H   0  0  0  0  0  0  0  0  0  0  0  0
   35.2090   29.1140   39.2140 H   0  0  0  0  0  0  0  0  0  0  0  0
   37.4560   30.0230   42.7390 H   0  0  0  0  0  0  0  0  0  0  0  0
   35.7090   29.7740   42.7990 H   0  0  0  0  0  0  0  0  0  0  0  0
   37.7550   31.0030   37.9710 C   0  0  0  0  0  0  0  0  0  0  0  0
   37.4710   32.1890   37.7140 O   0  0  0  0  0  0  0  0  0  0  0  0
   39.1390   30.7800   38.3150 N   0  0  0  0  0  0  0  0  0  0  0  0
   39.6680   29.9340   38.6200 H   0  0  0  0  0  0  0  0  0  0  0  0
   41.8700   33.0850   37.2890 C   0  0  0  0  0  0  0  0  0  0  0  0
   40.9710   32.0110   37.2400 C   0  0  0  0  0  0  0  0  0  0  0  0
   40.0810   31.8380   38.2770 C   0  0  0  0  0  0  0  0  0  0  0  0
   40.0980   32.7040   39.3100 N   0  0  0  0  0  0  0  0  0  0  0  0
   40.9740   33.7510   39.3570 C   0  0  0  0  0  0  0  0  0  0  0  0
   41.8470   33.9190   38.3370 N   0  0  0  0  0  0  0  0  0  0  0  0
   42.5800   33.2450   36.4880 H   0  0  0  0  0  0  0  0  0  0  0  0
   40.9650   31.3220   36.4090 H   0  0  0  0  0  0  0  0  0  0  0  0
   40.8820   34.3650   40.2360 H   0  0  0  0  0  0  0  0  0  0  0  0
   36.9110   27.3200   43.0870 C   0  0  0  0  0  0  0  0  0  0  0  0
   35.8560   27.0620   43.3240 H   0  0  0  0  0  0  0  0  0  0  0  0
   37.4470   26.3760   42.9360 H   0  0  0  0  0  0  0  0  0  0  0  0
   37.2860   27.8560   43.9860 H   0  0  0  0  0  0  0  0  0  0  0  0
   37.4600   26.1750   40.6690 C   0  0  0  0  0  0  0  0  0  0  0  0
   36.5780   25.3320   40.3170 O   0  0  0  0  0  0  0  0  0  0  0  0
   38.6020   25.4460   40.9300 O   0  0  0  0  0  0  0  0  0  0  0  0
   38.7850   24.4400   41.8180 C   0  0  0  0  0  0  0  0  0  0  0  0
   39.3630   24.7200   42.8980 O   0  0  0  0  0  0  0  0  0  0  0  0
   38.2980   23.1260   41.4520 N   0  0  0  0  0  0  0  0  0  0  0  0
   37.4910   22.4670   41.5790 H   0  0  0  0  0  0  0  0  0  0  0  0
   39.0800   22.7780   40.8530 H   0  0  0  0  0  0  0  0  0  0  0  0
  1  9  1  0  0  0  0
  1 27  1  0  0  0  0
  2  1  2  0  0  0  0
  3  2  1  0  0  0  0
  4  3  1  0  0  0  0
  5  4  2  0  0  0  0
  6 10  1  6  0  0  0
  6  4  1  0  0  0  0
  6  7  1  0  0  0  0
  7 11  1  6  0  0  0
  7  3  1  0  0  0  0
  7  8  1  0  0  0  0
  8  9  1  0  0  0  0
  9 12  1  0  0  0  0
  9 13  1  0  0  0  0
 14  6  1  0  0  0  0
 14 16  1  0  0  0  0
 15 14  2  0  0  0  0
 16 17  1  0  0  0  0
 18 23  1  0  0  0  0
 19 18  2  0  0  0  0
 19 20  1  0  0  0  0
 20 16  1  0  0  0  0
 20 21  2  0  0  0  0
 21 22  1  0  0  0  0
 22 26  1  0  0  0  0
 23 22  2  0  0  0  0
 24 18  1  0  0  0  0
 25 19  1  0  0  0  0
 27 28  1  0  0  0  0
 27 30  1  0  0  0  0
 29 27  1  0  0  0  0
 31  2  1  0  0  0  0
 31 33  1  0  0  0  0
 32 31  2  0  0  0  0
 33 34  1  0  0  0  0
 34 35  2  0  0  0  0
 36 37  1  0  0  0  0
 36 34  1  0  0  0  0
 38 36  1  0  0  0  0
M  END
>  <minimizedAffinity>
-5.09894657

$$$$

 OpenBabel03252503373D

 38 40  0  0  1  0  0  0  0  0999 V2000
   39.5640   31.7570   38.3510 C   0  0  0  0  0  0  0  0  0  0  0  0
   39.7080   31.8180   39.6780 C   0  0  0  0  0  0  0  0  0  0  0  0
   38.7140   31.2780   40.5280 N   0  0  0  0  0  0  0  0  0  0  0  0
   38.3560   30.6050   41.7170 C   0  0  0  0  0  0  0  0  0  0  0  0
   38.9790   30.1990   42.7450 O   0  0  0  0  0  0  0  0  0  0  0  0
   36.9420   30.4960   41.4020 C   0  0  1  0  0  0  0  0  0  0  0  0
   37.3000   31.3370   40.2010 C   0  0  2  0  0  0  0  0  0  0  0  0
   37.0900   30.5670   38.5950 S   0  0  0  0  0  0  0  0  0  0  0  0
   38.4370   31.1600   37.5780 C   0  0  0  0  0  0  0  0  0  0  0  0
   36.1840   31.0750   41.9870 H   0  0  0  0  0  0  0  0  0  0  0  0
   36.9000   32.3690   40.1990 H   0  0  0  0  0  0  0  0  0  0  0  0
   38.8940   30.2820   37.0410 H   0  0  0  0  0  0  0  0  0  0  0  0
   38.0910   31.8280   36.7600 H   0  0  0  0  0  0  0  0  0  0  0  0
   36.5260   29.1190   41.1430 C   0  0  0  0  0  0  0  0  0  0  0  0
   35.4240   28.6280   40.8300 O   0  0  0  0  0  0  0  0  0  0  0  0
   37.5940   28.1560   41.2760 N   0  0  0  0  0  0  0  0  0  0  0  0
   38.6140   28.2490   41.4750 H   0  0  0  0  0  0  0  0  0  0  0  0
   36.8820   24.5720   41.9570 C   0  0  0  0  0  0  0  0  0  0  0  0
   37.1100   25.9330   42.1970 C   0  0  0  0  0  0  0  0  0  0  0  0
   37.3500   26.7690   41.1290 C   0  0  0  0  0  0  0  0  0  0  0  0
   37.3580   26.2560   39.8820 N   0  0  0  0  0  0  0  0  0  0  0  0
   37.1340   24.9290   39.6480 C   0  0  0  0  0  0  0  0  0  0  0  0
   36.9000   24.1100   40.7000 N   0  0  0  0  0  0  0  0  0  0  0  0
   36.6910   23.8920   42.7780 H   0  0  0  0  0  0  0  0  0  0  0  0
   37.1020   26.3340   43.2000 H   0  0  0  0  0  0  0  0  0  0  0  0
   37.1690   24.6510   38.6090 H   0  0  0  0  0  0  0  0  0  0  0  0
   40.6640   32.3600   37.5620 C   0  0  0  0  0  0  0  0  0  0  0  0
   40.3330   33.3730   37.2450 H   0  0  0  0  0  0  0  0  0  0  0  0
   41.5950   32.4880   38.1250 H   0  0  0  0  0  0  0  0  0  0  0  0
   40.8390   31.8040   36.6160 H   0  0  0  0  0  0  0  0  0  0  0  0
   40.8760   32.4370   40.2840 C   0  0  0  0  0  0  0  0  0  0  0  0
   40.8920   33.6680   40.5950 O   0  0  0  0  0  0  0  0  0  0  0  0
   42.1110   31.9380   40.6420 O   0  0  0  0  0  0  0  0  0  0  0  0
   42.6420   31.7850   41.8780 C   0  0  0  0  0  0  0  0  0  0  0  0
   43.8930   31.7020   41.9650 O   0  0  0  0  0  0  0  0  0  0  0  0
   41.7260   31.7300   42.9990 N   0  0  0  0  0  0  0  0  0  0  0  0
   41.3000   32.3120   43.7620 H   0  0  0  0  0  0  0  0  0  0  0  0
   41.4280   30.7290   42.9710 H   0  0  0  0  0  0  0  0  0  0  0  0
  1  2  2  0  0  0  0
  2 31  1  0  0  0  0
  2  3  1  0  0  0  0
  3  4  1  0  0  0  0
  4  5  2  0  0  0  0
  6  4  1  0  0  0  0
  6 10  1  1  0  0  0
  7 11  1  1  0  0  0
  7  3  1  0  0  0  0
  7  6  1  0  0  0  0
  8  7  1  0  0  0  0
  9  1  1  0  0  0  0
  9  8  1  0  0  0  0
 12  9  1  0  0  0  0
 13  9  1  0  0  0  0
 14 16  1  0  0  0  0
 14  6  1  0  0  0  0
 15 14  2  0  0  0  0
 16 17  1  0  0  0  0
 18 19  1  0  0  0  0
 18 24  1  0  0  0  0
 19 25  1  0  0  0  0
 20 16  1  0  0  0  0
 20 19  2  0  0  0  0
 21 20  1  0  0  0  0
 22 21  2  0  0  0  0
 22 23  1  0  0  0  0
 23 18  2  0  0  0  0
 26 22  1  0  0  0  0
 27 29  1  0  0  0  0
 27  1  1  0  0  0  0
 28 27  1  0  0  0  0
 30 27  1  0  0  0  0
 31 32  2  0  0  0  0
 31 33  1  0  0  0  0
 33 34  1  0  0  0  0
 34 35  2  0  0  0  0
 34 36  1  0  0  0  0
 36 37  1  0  0  0  0
 38 36  1  0  0  0  0
M  END
>  <minimizedAffinity>
-5.09301472

$$$$

 OpenBabel03252503373D

 38 40  0  0  1  0  0  0  0  0999 V2000
   37.4220   31.1140   38.4810 C   0  0  0  0  0  0  0  0  0  0  0  0
   38.1370   31.4860   39.5460 C   0  0  0  0  0  0  0  0  0  0  0  0
   37.9500   30.8400   40.7910 N   0  0  0  0  0  0  0  0  0  0  0  0
   38.4790   30.3440   42.0030 C   0  0  0  0  0  0  0  0  0  0  0  0
   39.6120   30.3760   42.5720 O   0  0  0  0  0  0  0  0  0  0  0  0
   37.2450   29.7250   42.4570 C   0  0  1  0  0  0  0  0  0  0  0  0
   36.6470   30.3750   41.2330 C   0  0  2  0  0  0  0  0  0  0  0  0
   36.0160   29.2690   39.9700 S   0  0  0  0  0  0  0  0  0  0  0  0
   36.3870   30.0440   38.4000 C   0  0  0  0  0  0  0  0  0  0  0  0
   36.6970   30.1360   43.3420 H   0  0  0  0  0  0  0  0  0  0  0  0
   35.9360   31.2000   41.4250 H   0  0  0  0  0  0  0  0  0  0  0  0
   36.8320   29.2690   37.7140 H   0  0  0  0  0  0  0  0  0  0  0  0
   35.4730   30.3850   37.8670 H   0  0  0  0  0  0  0  0  0  0  0  0
   37.3150   28.2650   42.4630 C   0  0  0  0  0  0  0  0  0  0  0  0
   36.4840   27.3940   42.7880 O   0  0  0  0  0  0  0  0  0  0  0  0
   38.5810   27.7430   42.0040 N   0  0  0  0  0  0  0  0  0  0  0  0
   39.4410   28.1960   41.6260 H   0  0  0  0  0  0  0  0  0  0  0  0
   39.6680   24.3280   42.9900 C   0  0  0  0  0  0  0  0  0  0  0  0
   39.4440   25.7080   43.0710 C   0  0  0  0  0  0  0  0  0  0  0  0
   38.8430   26.3510   42.0120 C   0  0  0  0  0  0  0  0  0  0  0  0
   38.4850   25.6360   40.9270 N   0  0  0  0  0  0  0  0  0  0  0  0
   38.7030   24.2900   40.8480 C   0  0  0  0  0  0  0  0  0  0  0  0
   39.2950   23.6610   41.8900 N   0  0  0  0  0  0  0  0  0  0  0  0
   40.1390   23.7970   43.8070 H   0  0  0  0  0  0  0  0  0  0  0  0
   39.7350   26.2730   43.9450 H   0  0  0  0  0  0  0  0  0  0  0  0
   38.3710   23.8420   39.9270 H   0  0  0  0  0  0  0  0  0  0  0  0
   37.6990   31.8650   37.2340 C   0  0  0  0  0  0  0  0  0  0  0  0
   36.9020   32.6320   37.1200 H   0  0  0  0  0  0  0  0  0  0  0  0
   38.6570   32.3970   37.2400 H   0  0  0  0  0  0  0  0  0  0  0  0
   37.6050   31.2150   36.3370 H   0  0  0  0  0  0  0  0  0  0  0  0
   39.1180   32.5570   39.4630 C   0  0  0  0  0  0  0  0  0  0  0  0
   38.8050   33.7670   39.6840 O   0  0  0  0  0  0  0  0  0  0  0  0
   40.4660   32.5600   39.1650 O   0  0  0  0  0  0  0  0  0  0  0  0
   41.5210   32.7120   40.0000 C   0  0  0  0  0  0  0  0  0  0  0  0
   42.6600   32.8120   39.4800 O   0  0  0  0  0  0  0  0  0  0  0  0
   41.2510   32.7470   41.4230 N   0  0  0  0  0  0  0  0  0  0  0  0
   41.1110   33.4000   42.2320 H   0  0  0  0  0  0  0  0  0  0  0  0
   41.1850   31.7280   41.6440 H   0  0  0  0  0  0  0  0  0  0  0  0
  1  2  2  0  0  0  0
  2  3  1  0  0  0  0
  3  7  1  0  0  0  0
  3  4  1  0  0  0  0
  4  6  1  0  0  0  0
  4  5  2  0  0  0  0
  6 14  1  0  0  0  0
  6 10  1  1  0  0  0
  7 11  1  1  0  0  0
  7  6  1  0  0  0  0
  8  7  1  0  0  0  0
  9  1  1  0  0  0  0
  9  8  1  0  0  0  0
 12  9  1  0  0  0  0
 13  9  1  0  0  0  0
 14 15  2  0  0  0  0
 16 20  1  0  0  0  0
 16 14  1  0  0  0  0
 17 16  1  0  0  0  0
 18 19  1  0  0  0  0
 18 24  1  0  0  0  0
 19 25  1  0  0  0  0
 20 19  2  0  0  0  0
 21 20  1  0  0  0  0
 22 21  2  0  0  0  0
 22 23  1  0  0  0  0
 23 18  2  0  0  0  0
 26 22  1  0  0  0  0
 27 29  1  0  0  0  0
 27  1  1  0  0  0  0
 28 27  1  0  0  0  0
 30 27  1  0  0  0  0
 31  2  1  0  0  0  0
 31 32  2  0  0  0  0
 33 31  1  0  0  0  0
 33 34  1  0  0  0  0
 34 36  1  0  0  0  0
 35 34  2  0  0  0  0
 36 38  1  0  0  0  0
 36 37  1  0  0  0  0
M  END
>  <minimizedAffinity>
-5.06733227

$$$$

 OpenBabel03252503373D

 38 40  0  0  1  0  0  0  0  0999 V2000
   38.8720   25.8510   42.8070 C   0  0  0  0  0  0  0  0  0  0  0  0
   38.0570   25.7070   41.7590 C   0  0  0  0  0  0  0  0  0  0  0  0
   37.2130   26.7720   41.3610 N   0  0  0  0  0  0  0  0  0  0  0  0
   36.5750   27.5110   40.3400 C   0  0  0  0  0  0  0  0  0  0  0  0
   36.4610   27.3960   39.0820 O   0  0  0  0  0  0  0  0  0  0  0  0
   36.0370   28.5360   41.2180 C   0  0  1  0  0  0  0  0  0  0  0  0
   36.5980   27.6720   42.3210 C   0  0  2  0  0  0  0  0  0  0  0  0
   37.9160   28.3880   43.3040 S   0  0  0  0  0  0  0  0  0  0  0  0
   39.0410   27.0480   43.6800 C   0  0  0  0  0  0  0  0  0  0  0  0
   34.9340   28.6100   41.3940 H   0  0  0  0  0  0  0  0  0  0  0  0
   35.8530   27.1710   42.9670 H   0  0  0  0  0  0  0  0  0  0  0  0
   40.0930   27.3980   43.4820 H   0  0  0  0  0  0  0  0  0  0  0  0
   39.0420   26.7830   44.7590 H   0  0  0  0  0  0  0  0  0  0  0  0
   36.6660   29.8400   41.0150 C   0  0  0  0  0  0  0  0  0  0  0  0
   36.2940   30.9950   41.2960 O   0  0  0  0  0  0  0  0  0  0  0  0
   37.9570   29.7660   40.3720 N   0  0  0  0  0  0  0  0  0  0  0  0
   38.5530   28.9670   40.0640 H   0  0  0  0  0  0  0  0  0  0  0  0
   39.3940   32.6610   38.5350 C   0  0  0  0  0  0  0  0  0  0  0  0
   38.6500   31.4990   38.7770 C   0  0  0  0  0  0  0  0  0  0  0  0
   38.6740   30.9410   40.0360 C   0  0  0  0  0  0  0  0  0  0  0  0
   39.4110   31.5270   41.0010 N   0  0  0  0  0  0  0  0  0  0  0  0
   40.1360   32.6600   40.7650 C   0  0  0  0  0  0  0  0  0  0  0  0
   40.1110   33.2060   39.5270 N   0  0  0  0  0  0  0  0  0  0  0  0
   39.3930   33.1210   37.5550 H   0  0  0  0  0  0  0  0  0  0  0  0
   38.0630   31.0370   37.9970 H   0  0  0  0  0  0  0  0  0  0  0  0
   40.6800   33.0230   41.6200 H   0  0  0  0  0  0  0  0  0  0  0  0
   39.7030   24.6690   43.1340 C   0  0  0  0  0  0  0  0  0  0  0  0
   39.2120   24.1350   43.9770 H   0  0  0  0  0  0  0  0  0  0  0  0
   39.7970   23.9510   42.3120 H   0  0  0  0  0  0  0  0  0  0  0  0
   40.7010   24.9670   43.5240 H   0  0  0  0  0  0  0  0  0  0  0  0
   38.0080   24.4660   41.0030 C   0  0  0  0  0  0  0  0  0  0  0  0
   37.1600   23.5590   41.2650 O   0  0  0  0  0  0  0  0  0  0  0  0
   38.7560   23.9940   39.9440 O   0  0  0  0  0  0  0  0  0  0  0  0
   38.4270   23.9290   38.6320 C   0  0  0  0  0  0  0  0  0  0  0  0
   39.2360   23.3550   37.8600 O   0  0  0  0  0  0  0  0  0  0  0  0
   37.1710   24.5260   38.2240 N   0  0  0  0  0  0  0  0  0  0  0  0
   36.1690   24.3010   38.0080 H   0  0  0  0  0  0  0  0  0  0  0  0
   37.4410   25.5310   38.1370 H   0  0  0  0  0  0  0  0  0  0  0  0
  1 27  1  0  0  0  0
  1  9  1  0  0  0  0
  2  1  2  0  0  0  0
  3  2  1  0  0  0  0
  3  7  1  0  0  0  0
  4  6  1  0  0  0  0
  4  3  1  0  0  0  0
  5  4  2  0  0  0  0
  6 10  1  6  0  0  0
  6  7  1  0  0  0  0
  7 11  1  1  0  0  0
  7  8  1  0  0  0  0
  8  9  1  0  0  0  0
  9 13  1  0  0  0  0
 12  9  1  0  0  0  0
 14  6  1  0  0  0  0
 14 15  2  0  0  0  0
 16 14  1  0  0  0  0
 17 16  1  0  0  0  0
 18 19  2  0  0  0  0
 18 23  1  0  0  0  0
 19 20  1  0  0  0  0
 20 16  1  0  0  0  0
 20 21  2  0  0  0  0
 22 21  1  0  0  0  0
 22 26  1  0  0  0  0
 23 22  2  0  0  0  0
 24 18  1  0  0  0  0
 25 19  1  0  0  0  0
 27 30  1  0  0  0  0
 27 28  1  0  0  0  0
 29 27  1  0  0  0  0
 31 32  2  0  0  0  0
 31  2  1  0  0  0  0
 33 31  1  0  0  0  0
 34 33  1  0  0  0  0
 35 34  2  0  0  0  0
 36 34  1  0  0  0  0
 37 36  1  0  0  0  0
 38 36  1  0  0  0  0
M  END
>  <minimizedAffinity>
-4.94127131

$$$$

 OpenBabel03252503373D

 38 40  0  0  1  0  0  0  0  0999 V2000
   37.0210   28.5640   40.0180 C   0  0  0  0  0  0  0  0  0  0  0  0
   36.5910   29.3730   39.0460 C   0  0  0  0  0  0  0  0  0  0  0  0
   36.9640   30.7380   39.0390 N   0  0  0  0  0  0  0  0  0  0  0  0
   37.3190   31.9050   38.3260 C   0  0  0  0  0  0  0  0  0  0  0  0
   37.3780   32.2300   37.1010 O   0  0  0  0  0  0  0  0  0  0  0  0
   37.6290   32.7030   39.4990 C   0  0  1  0  0  0  0  0  0  0  0  0
   37.1170   31.5060   40.2630 C   0  0  2  0  0  0  0  0  0  0  0  0
   38.3070   30.6440   41.2900 S   0  0  0  0  0  0  0  0  0  0  0  0
   37.8980   28.9060   41.1750 C   0  0  0  0  0  0  0  0  0  0  0  0
   36.9810   33.5700   39.7840 H   0  0  0  0  0  0  0  0  0  0  0  0
   36.1620   31.6520   40.8030 H   0  0  0  0  0  0  0  0  0  0  0  0
   38.8460   28.3260   40.9940 H   0  0  0  0  0  0  0  0  0  0  0  0
   37.5080   28.4960   42.1320 H   0  0  0  0  0  0  0  0  0  0  0  0
   39.0560   33.0010   39.6190 C   0  0  0  0  0  0  0  0  0  0  0  0
   39.7080   33.6090   40.4890 O   0  0  0  0  0  0  0  0  0  0  0  0
   39.8480   32.4920   38.5240 N   0  0  0  0  0  0  0  0  0  0  0  0
   39.6140   31.9150   37.6870 H   0  0  0  0  0  0  0  0  0  0  0  0
   43.5330   32.3340   38.9820 C   0  0  0  0  0  0  0  0  0  0  0  0
   42.1780   32.0020   39.1150 C   0  0  0  0  0  0  0  0  0  0  0  0
   41.2370   32.7520   38.4450 C   0  0  0  0  0  0  0  0  0  0  0  0
   41.6440   33.7840   37.6790 N   0  0  0  0  0  0  0  0  0  0  0  0
   42.9650   34.1070   37.5490 C   0  0  0  0  0  0  0  0  0  0  0  0
   43.8870   33.3690   38.2090 N   0  0  0  0  0  0  0  0  0  0  0  0
   44.2940   31.7620   39.4970 H   0  0  0  0  0  0  0  0  0  0  0  0
   41.8630   31.1730   39.7320 H   0  0  0  0  0  0  0  0  0  0  0  0
   43.1510   34.9530   36.9090 H   0  0  0  0  0  0  0  0  0  0  0  0
   36.5620   27.1580   39.9270 C   0  0  0  0  0  0  0  0  0  0  0  0
   35.7040   27.0390   40.6240 H   0  0  0  0  0  0  0  0  0  0  0  0
   36.2070   26.8720   38.9310 H   0  0  0  0  0  0  0  0  0  0  0  0
   37.3360   26.4520   40.2970 H   0  0  0  0  0  0  0  0  0  0  0  0
   35.7340   28.8850   37.9780 C   0  0  0  0  0  0  0  0  0  0  0  0
   34.4690   28.8710   38.0920 O   0  0  0  0  0  0  0  0  0  0  0  0
   36.0100   28.3740   36.7260 O   0  0  0  0  0  0  0  0  0  0  0  0
   36.6910   28.9470   35.7050 C   0  0  0  0  0  0  0  0  0  0  0  0
   36.1170   29.8710   35.0750 O   0  0  0  0  0  0  0  0  0  0  0  0
   38.0220   28.4500   35.4240 N   0  0  0  0  0  0  0  0  0  0  0  0
   39.0400   28.6410   35.5940 H   0  0  0  0  0  0  0  0  0  0  0  0
   37.8070   27.6070   34.8460 H   0  0  0  0  0  0  0  0  0  0  0  0
  1  9  1  0  0  0  0
  2  1  2  0  0  0  0
  3  2  1  0  0  0  0
  3  7  1  0  0  0  0
  4  3  1  0  0  0  0
  4  6  1  0  0  0  0
  5  4  2  0  0  0  0
  6 14  1  0  0  0  0
  6 10  1  1  0  0  0
  6  7  1  0  0  0  0
  7 11  1  1  0  0  0
  7  8  1  0  0  0  0
  9  8  1  0  0  0  0
  9 13  1  0  0  0  0
 12  9  1  0  0  0  0
 14 15  2  0  0  0  0
 16 14  1  0  0  0  0
 17 16  1  0  0  0  0
 18 19  1  0  0  0  0
 18 24  1  0  0  0  0
 19 25  1  0  0  0  0
 20 16  1  0  0  0  0
 20 19  2  0  0  0  0
 21 20  1  0  0  0  0
 22 21  2  0  0  0  0
 22 23  1  0  0  0  0
 23 18  2  0  0  0  0
 26 22  1  0  0  0  0
 27  1  1  0  0  0  0
 27 30  1  0  0  0  0
 27 28  1  0  0  0  0
 29 27  1  0  0  0  0
 31 32  2  0  0  0  0
 31  2  1  0  0  0  0
 33 31  1  0  0  0  0
 34 33  1  0  0  0  0
 35 34  2  0  0  0  0
 36 37  1  0  0  0  0
 36 34  1  0  0  0  0
 38 36  1  0  0  0  0
M  END
>  <minimizedAffinity>
-4.93528414

$$$$

 OpenBabel03252503373D

 38 40  0  0  1  0  0  0  0  0999 V2000
   34.7000   29.0860   37.0040 C   0  0  0  0  0  0  0  0  0  0  0  0
   35.9780   29.4470   36.8510 C   0  0  0  0  0  0  0  0  0  0  0  0
   36.8110   29.6130   37.9820 N   0  0  0  0  0  0  0  0  0  0  0  0
   38.0790   29.4990   38.5940 C   0  0  0  0  0  0  0  0  0  0  0  0
   39.2420   29.1750   38.2040 O   0  0  0  0  0  0  0  0  0  0  0  0
   37.6360   29.8890   39.9210 C   0  0  1  0  0  0  0  0  0  0  0  0
   36.3140   30.1470   39.2380 C   0  0  2  0  0  0  0  0  0  0  0  0
   34.9370   29.1180   39.7490 S   0  0  0  0  0  0  0  0  0  0  0  0
   33.9720   28.8100   38.2750 C   0  0  0  0  0  0  0  0  0  0  0  0
   37.9640   30.8620   40.3660 H   0  0  0  0  0  0  0  0  0  0  0  0
   36.0080   31.2080   39.1660 H   0  0  0  0  0  0  0  0  0  0  0  0
   33.7280   27.7110   38.2300 H   0  0  0  0  0  0  0  0  0  0  0  0
   32.9780   29.3070   38.3050 H   0  0  0  0  0  0  0  0  0  0  0  0
   37.6800   28.7860   40.8790 C   0  0  0  0  0  0  0  0  0  0  0  0
   37.3580   28.7150   42.0810 O   0  0  0  0  0  0  0  0  0  0  0  0
   38.1890   27.5550   40.3220 N   0  0  0  0  0  0  0  0  0  0  0  0
   38.4900   27.2810   39.3610 H   0  0  0  0  0  0  0  0  0  0  0  0
   37.6480   24.3460   42.1180 C   0  0  0  0  0  0  0  0  0  0  0  0
   37.3870   25.4500   41.2960 C   0  0  0  0  0  0  0  0  0  0  0  0
   38.3650   26.4050   41.1300 C   0  0  0  0  0  0  0  0  0  0  0  0
   39.5460   26.2530   41.7620 N   0  0  0  0  0  0  0  0  0  0  0  0
   39.8010   25.1770   42.5630 C   0  0  0  0  0  0  0  0  0  0  0  0
   38.8380   24.2400   42.7250 N   0  0  0  0  0  0  0  0  0  0  0  0
   36.8980   23.5800   42.2670 H   0  0  0  0  0  0  0  0  0  0  0  0
   36.4370   25.5630   40.7950 H   0  0  0  0  0  0  0  0  0  0  0  0
   40.7820   25.1780   43.0070 H   0  0  0  0  0  0  0  0  0  0  0  0
   33.9220   28.9500   35.7500 C   0  0  0  0  0  0  0  0  0  0  0  0
   33.3260   29.8800   35.6210 H   0  0  0  0  0  0  0  0  0  0  0  0
   34.5420   28.8390   34.8530 H   0  0  0  0  0  0  0  0  0  0  0  0
   33.1720   28.1330   35.8230 H   0  0  0  0  0  0  0  0  0  0  0  0
   36.5450   29.6810   35.5330 C   0  0  0  0  0  0  0  0  0  0  0  0
   37.0670   28.7430   34.8550 O   0  0  0  0  0  0  0  0  0  0  0  0
   36.6610   30.8190   34.7610 O   0  0  0  0  0  0  0  0  0  0  0  0
   36.1940   31.0490   33.5100 C   0  0  0  0  0  0  0  0  0  0  0  0
   35.1230   31.6970   33.4030 O   0  0  0  0  0  0  0  0  0  0  0  0
   36.9670   30.5310   32.4000 N   0  0  0  0  0  0  0  0  0  0  0  0
   37.6810   30.8000   31.6800 H   0  0  0  0  0  0  0  0  0  0  0  0
   36.6420   29.5390   32.3710 H   0  0  0  0  0  0  0  0  0  0  0  0
  1  9  1  0  0  0  0
  2  1  2  0  0  0  0
  2  3  1  0  0  0  0
  3  4  1  0  0  0  0
  3  7  1  0  0  0  0
  4  6  1  0  0  0  0
  5  4  2  0  0  0  0
  6 10  1  1  0  0  0
  6 14  1  0  0  0  0
  7 11  1  6  0  0  0
  7  8  1  0  0  0  0
  7  6  1  0  0  0  0
  9 13  1  0  0  0  0
  9  8  1  0  0  0  0
 12  9  1  0  0  0  0
 14 15  2  0  0  0  0
 16 14  1  0  0  0  0
 16 20  1  0  0  0  0
 17 16  1  0  0  0  0
 18 24  1  0  0  0  0
 18 23  1  0  0  0  0
 19 18  2  0  0  0  0
 20 19  1  0  0  0  0
 20 21  2  0  0  0  0
 21 22  1  0  0  0  0
 22 23  2  0  0  0  0
 22 26  1  0  0  0  0
 25 19  1  0  0  0  0
 27 30  1  0  0  0  0
 27  1  1  0  0  0  0
 28 27  1  0  0  0  0
 29 27  1  0  0  0  0
 31  2  1  0  0  0  0
 32 31  2  0  0  0  0
 33 31  1  0  0  0  0
 34 33  1  0  0  0  0
 35 34  2  0  0  0  0
 36 34  1  0  0  0  0
 37 36  1  0  0  0  0
 38 36  1  0  0  0  0
M  END
>  <minimizedAffinity>
-4.92554474

$$$$

 OpenBabel03252503373D

 38 40  0  0  1  0  0  0  0  0999 V2000
   38.8590   25.1480   40.5740 C   0  0  0  0  0  0  0  0  0  0  0  0
   37.6110   25.6210   40.6400 C   0  0  0  0  0  0  0  0  0  0  0  0
   37.3370   26.8110   41.3550 N   0  0  0  0  0  0  0  0  0  0  0  0
   36.6100   28.0140   41.4930 C   0  0  0  0  0  0  0  0  0  0  0  0
   35.6370   28.5550   40.8830 O   0  0  0  0  0  0  0  0  0  0  0  0
   37.3600   28.5070   42.6350 C   0  0  1  0  0  0  0  0  0  0  0  0
   38.0430   27.1620   42.5750 C   0  0  2  0  0  0  0  0  0  0  0  0
   39.7950   27.1710   42.1960 S   0  0  0  0  0  0  0  0  0  0  0  0
   40.0930   25.7290   41.1780 C   0  0  0  0  0  0  0  0  0  0  0  0
   36.8780   28.5800   43.6420 H   0  0  0  0  0  0  0  0  0  0  0  0
   37.8240   26.4730   43.4130 H   0  0  0  0  0  0  0  0  0  0  0  0
   40.7230   26.0370   40.2980 H   0  0  0  0  0  0  0  0  0  0  0  0
   40.7060   24.9610   41.6970 H   0  0  0  0  0  0  0  0  0  0  0  0
   38.1770   29.6760   42.3120 C   0  0  0  0  0  0  0  0  0  0  0  0
   39.0210   30.3100   42.9750 O   0  0  0  0  0  0  0  0  0  0  0  0
   37.9610   30.1830   40.9770 N   0  0  0  0  0  0  0  0  0  0  0  0
   37.3730   29.8560   40.1800 H   0  0  0  0  0  0  0  0  0  0  0  0
   38.7720   33.7070   40.1180 C   0  0  0  0  0  0  0  0  0  0  0  0
   38.0490   32.6060   40.5930 C   0  0  0  0  0  0  0  0  0  0  0  0
   38.6180   31.3530   40.5250 C   0  0  0  0  0  0  0  0  0  0  0  0
   39.8550   31.2210   40.0050 N   0  0  0  0  0  0  0  0  0  0  0  0
   40.5600   32.2950   39.5420 C   0  0  0  0  0  0  0  0  0  0  0  0
   39.9980   33.5240   39.6090 N   0  0  0  0  0  0  0  0  0  0  0  0
   38.3500   34.7030   40.1580 H   0  0  0  0  0  0  0  0  0  0  0  0
   37.0580   32.7220   41.0070 H   0  0  0  0  0  0  0  0  0  0  0  0
   41.5330   32.0500   39.1520 H   0  0  0  0  0  0  0  0  0  0  0  0
   39.0250   23.8930   39.8050 C   0  0  0  0  0  0  0  0  0  0  0  0
   39.0730   23.0550   40.5360 H   0  0  0  0  0  0  0  0  0  0  0  0
   38.1950   23.6770   39.1240 H   0  0  0  0  0  0  0  0  0  0  0  0
   40.0000   23.8670   39.2730 H   0  0  0  0  0  0  0  0  0  0  0  0
   36.5070   24.9330   39.9910 C   0  0  0  0  0  0  0  0  0  0  0  0
   36.0020   25.3580   38.9070 O   0  0  0  0  0  0  0  0  0  0  0  0
   35.8000   23.7950   40.3200 O   0  0  0  0  0  0  0  0  0  0  0  0
   35.1040   22.9620   39.5100 C   0  0  0  0  0  0  0  0  0  0  0  0
   33.8900   22.7770   39.7760 O   0  0  0  0  0  0  0  0  0  0  0  0
   35.8150   22.3520   38.4050 N   0  0  0  0  0  0  0  0  0  0  0  0
   35.9990   22.4450   37.3760 H   0  0  0  0  0  0  0  0  0  0  0  0
   36.2810   21.5480   38.8810 H   0  0  0  0  0  0  0  0  0  0  0  0
  1  2  2  0  0  0  0
  1  9  1  0  0  0  0
  2  3  1  0  0  0  0
  3  4  1  0  0  0  0
  3  7  1  0  0  0  0
  4  6  1  0  0  0  0
  5  4  2  0  0  0  0
  6 10  1  1  0  0  0
  7  6  1  0  0  0  0
  7 11  1  1  0  0  0
  8  7  1  0  0  0  0
  9 13  1  0  0  0  0
  9  8  1  0  0  0  0
 12  9  1  0  0  0  0
 14  6  1  0  0  0  0
 14 15  2  0  0  0  0
 16 14  1  0  0  0  0
 17 16  1  0  0  0  0
 18 24  1  0  0  0  0
 18 19  1  0  0  0  0
 19 25  1  0  0  0  0
 20 19  2  0  0  0  0
 20 16  1  0  0  0  0
 21 20  1  0  0  0  0
 22 23  1  0  0  0  0
 22 21  2  0  0  0  0
 23 18  2  0  0  0  0
 26 22  1  0  0  0  0
 27 28  1  0  0  0  0
 27  1  1  0  0  0  0
 29 27  1  0  0  0  0
 30 27  1  0  0  0  0
 31 33  1  0  0  0  0
 31  2  1  0  0  0  0
 32 31  2  0  0  0  0
 34 35  2  0  0  0  0
 34 33  1  0  0  0  0
 36 38  1  0  0  0  0
 36 34  1  0  0  0  0
 37 36  1  0  0  0  0
M  END
>  <minimizedAffinity>
-4.87605619

$$$$
