
 OpenBabel03252505473D

 25 26  0  0  1  0  0  0  0  0999 V2000
   45.7170   32.0640   44.3870 C   0  0  0  0  0  0  0  0  0  0  0  0
   45.7580   30.6420   44.2700 C   0  0  0  0  0  0  0  0  0  0  0  0
   46.0000   29.8550   45.3910 C   0  0  0  0  0  0  0  0  0  0  0  0
   46.1910   30.4960   46.5760 N   0  0  0  0  0  0  0  0  0  0  0  0
   46.1430   31.8650   46.6420 C   0  0  0  0  0  0  0  0  0  0  0  0
   45.9110   32.6280   45.5710 N   0  0  0  0  0  0  0  0  0  0  0  0
   45.6080   30.1140   43.3300 H   0  0  0  0  0  0  0  0  0  0  0  0
   46.0320   28.7870   45.3110 H   0  0  0  0  0  0  0  0  0  0  0  0
   45.4720   32.8380   43.1690 C   0  0  1  0  0  0  0  0  0  0  0  0
   46.7880   33.5280   42.6610 C   0  0  1  0  0  0  0  0  0  0  0  0
   45.9670   32.5310   41.8790 C   0  0  0  0  0  0  0  0  0  0  0  0
   44.6230   33.5700   43.2920 H   0  0  0  0  0  0  0  0  0  0  0  0
   47.7320   33.2240   43.1000 H   0  0  0  0  0  0  0  0  0  0  0  0
   45.4050   32.8870   40.9710 H   0  0  0  0  0  0  0  0  0  0  0  0
   46.5170   31.5980   41.6410 H   0  0  0  0  0  0  0  0  0  0  0  0
   46.5910   34.9590   42.2140 C   0  0  0  0  0  0  0  0  0  0  0  0
   47.7470   35.5630   41.8090 F   0  0  0  0  0  0  0  0  0  0  0  0
   45.6990   34.9730   41.1280 F   0  0  0  0  0  0  0  0  0  0  0  0
   45.9580   35.6970   43.2020 F   0  0  0  0  0  0  0  0  0  0  0  0
   46.3590   32.3850   47.9110 O   0  0  0  0  0  0  0  0  0  0  0  0
   46.1360   31.6400   49.0690 C   0  0  0  0  0  0  0  0  0  0  0  0
   45.1210   31.4860   49.8300 O   0  0  0  0  0  0  0  0  0  0  0  0
   47.2850   30.9010   49.4840 N   0  0  0  0  0  0  0  0  0  0  0  0
   47.2850   30.0310   50.0620 H   0  0  0  0  0  0  0  0  0  0  0  0
   48.1490   30.3930   49.7630 H   0  0  0  0  0  0  0  0  0  0  0  0
  1  6  1  0  0  0  0
  2  1  2  0  0  0  0
  2  3  1  0  0  0  0
  3  4  2  0  0  0  0
  4  5  1  0  0  0  0
  5 20  1  0  0  0  0
  6  5  2  0  0  0  0
  7  2  1  0  0  0  0
  8  3  1  0  0  0  0
  9 12  1  1  0  0  0
  9  1  1  0  0  0  0
 10 13  1  1  0  0  0
 10  9  1  0  0  0  0
 11 10  1  0  0  0  0
 11  9  1  0  0  0  0
 14 11  1  0  0  0  0
 15 11  1  0  0  0  0
 16 10  1  0  0  0  0
 16 19  1  0  0  0  0
 17 16  1  0  0  0  0
 18 16  1  0  0  0  0
 20 21  1  0  0  0  0
 21 23  1  0  0  0  0
 21 22  2  0  0  0  0
 23 25  1  0  0  0  0
 23 24  1  0  0  0  0
M  END
>  <minimizedAffinity>
-4.35220194

>  <minimizedRMSD>
2.18966627

$$$$
