
 OpenBabel03252509313D

 23 23  0  0  0  0  0  0  0  0999 V2000
   46.9210   33.0860   43.1570 C   0  0  0  0  0  0  0  0  0  0  0  0
   46.3990   32.1270   43.4060 H   0  0  0  0  0  0  0  0  0  0  0  0
   46.8940   33.1590   42.0650 H   0  0  0  0  0  0  0  0  0  0  0  0
   44.7730   35.0720   45.4590 C   0  0  0  0  0  0  0  0  0  0  0  0
   45.5640   34.0300   44.9660 C   0  0  0  0  0  0  0  0  0  0  0  0
   46.0850   34.1650   43.7000 C   0  0  0  0  0  0  0  0  0  0  0  0
   45.8130   35.2960   42.9810 N   0  0  0  0  0  0  0  0  0  0  0  0
   45.0340   36.2940   43.4970 C   0  0  0  0  0  0  0  0  0  0  0  0
   44.5230   36.1770   44.7220 N   0  0  0  0  0  0  0  0  0  0  0  0
   44.3510   34.9880   46.4570 H   0  0  0  0  0  0  0  0  0  0  0  0
   45.7190   33.1720   45.6230 H   0  0  0  0  0  0  0  0  0  0  0  0
   44.8660   37.1620   42.8570 H   0  0  0  0  0  0  0  0  0  0  0  0
   48.1870   33.0860   43.7150 O   0  0  0  0  0  0  0  0  0  0  0  0
   50.2560   32.5560   42.2130 O   0  0  0  0  0  0  0  0  0  0  0  0
   49.2600   33.6310   42.5320 P   0  0  2  0  0  0  0  0  0  0  0  0
   49.9940   35.0290   43.1510 O   0  0  0  0  0  0  0  0  0  0  0  0
   49.2990   35.5360   43.6420 H   0  0  0  0  0  0  0  0  0  0  0  0
   48.3840   33.9920   41.1470 O   0  0  0  0  0  0  0  0  0  0  0  0
   48.6940   34.9900   40.2460 C   0  0  0  0  0  0  0  0  0  0  0  0
   49.0020   36.0760   40.8420 O   0  0  0  0  0  0  0  0  0  0  0  0
   48.6990   34.9150   38.8270 N   0  0  0  0  0  0  0  0  0  0  0  0
   49.6510   34.4770   38.6460 H   0  0  0  0  0  0  0  0  0  0  0  0
   47.7620   35.3220   38.5380 H   0  0  0  0  0  0  0  0  0  0  0  0
  1  2  1  0  0  0  0
  1  6  1  0  0  0  0
  1 13  1  0  0  0  0
  3  1  1  0  0  0  0
  4 10  1  0  0  0  0
  5  4  1  0  0  0  0
  5 11  1  0  0  0  0
  6  5  2  0  0  0  0
  7  8  2  0  0  0  0
  7  6  1  0  0  0  0
  8  9  1  0  0  0  0
  9  4  2  0  0  0  0
 12  8  1  0  0  0  0
 15 14  2  6  0  0  0
 15 16  1  0  0  0  0
 15 13  1  0  0  0  0
 16 17  1  0  0  0  0
 18 15  1  0  0  0  0
 19 20  2  0  0  0  0
 19 18  1  0  0  0  0
 21 19  1  0  0  0  0
 22 21  1  0  0  0  0
 23 21  1  0  0  0  0
M  END
>  <minimizedAffinity>
-4.50834465

>  <minimizedRMSD>
1.01452327

$$$$
