
 OpenBabel03242523173D

 23 24  0  0  0  0  0  0  0  0999 V2000
   37.9590   31.8330   40.5810 C   0  0  0  0  0  0  0  0  0  0  0  0
   37.1890   30.7720   40.9100 C   0  0  0  0  0  0  0  0  0  0  0  0
   37.7320   29.9330   41.8800 C   0  0  0  0  0  0  0  0  0  0  0  0
   38.9720   30.2460   42.4050 N   0  0  0  0  0  0  0  0  0  0  0  0
   39.6790   31.3160   42.0290 C   0  0  0  0  0  0  0  0  0  0  0  0
   39.1750   32.1610   41.0780 N   0  0  0  0  0  0  0  0  0  0  0  0
   37.2290   29.0490   42.2420 H   0  0  0  0  0  0  0  0  0  0  0  0
   40.6240   31.3970   42.5480 H   0  0  0  0  0  0  0  0  0  0  0  0
   35.9570   30.4180   40.3110 C   0  0  0  0  0  0  0  0  0  0  0  0
   35.6770   29.6080   39.2590 C   0  0  0  0  0  0  0  0  0  0  0  0
   35.3390   28.9860   40.6160 C   0  0  0  0  0  0  0  0  0  0  0  0
   35.1140   31.0480   40.8480 H   0  0  0  0  0  0  0  0  0  0  0  0
   34.7880   29.7340   38.5720 H   0  0  0  0  0  0  0  0  0  0  0  0
   36.4390   28.9750   38.7340 H   0  0  0  0  0  0  0  0  0  0  0  0
   36.0600   28.3340   41.1090 H   0  0  0  0  0  0  0  0  0  0  0  0
   34.2970   28.8970   40.8660 H   0  0  0  0  0  0  0  0  0  0  0  0
   37.5740   32.9330   39.6850 C   0  0  0  0  0  0  0  0  0  0  0  0
   37.1150   34.0570   39.5480 O   0  0  0  0  0  0  0  0  0  0  0  0
   39.0120   30.8750   37.0930 H   0  0  0  0  0  0  0  0  0  0  0  0
   38.7220   31.3080   38.0350 C   0  0  0  0  0  0  0  0  0  0  0  0
   39.2080   30.6960   39.0120 O   0  0  0  0  0  0  0  0  0  0  0  0
   37.8950   32.4400   38.3540 N   0  0  0  0  0  0  0  0  0  0  0  0
   37.6070   32.7850   37.3860 H   0  0  0  0  0  0  0  0  0  0  0  0
  1  2  2  0  0  0  0
  1  6  1  0  0  0  0
  2  3  1  0  0  0  0
  3  7  1  0  0  0  0
  3  4  2  0  0  0  0
  5  4  1  0  0  0  0
  5  8  1  0  0  0  0
  6  5  2  0  0  0  0
  9 11  1  0  0  0  0
  9 12  1  0  0  0  0
  9  2  1  0  0  0  0
 10  9  1  0  0  0  0
 10 11  1  0  0  0  0
 11 16  1  0  0  0  0
 11 15  1  0  0  0  0
 13 10  1  0  0  0  0
 14 10  1  0  0  0  0
 17  1  1  0  0  0  0
 18 17  2  0  0  0  0
 19 20  1  0  0  0  0
 20 22  1  0  0  0  0
 20 21  2  0  0  0  0
 22 17  1  0  0  0  0
 23 22  1  0  0  0  0
M  END
>  <minimizedAffinity>
-4.16453123

$$$$

 OpenBabel03242523173D

 23 24  0  0  0  0  0  0  0  0999 V2000
   38.1780   30.9350   39.8300 C   0  0  0  0  0  0  0  0  0  0  0  0
   38.2110   30.5940   38.5230 C   0  0  0  0  0  0  0  0  0  0  0  0
   39.4560   30.1830   38.0560 C   0  0  0  0  0  0  0  0  0  0  0  0
   40.5200   30.1630   38.9400 N   0  0  0  0  0  0  0  0  0  0  0  0
   40.4130   30.5180   40.2230 C   0  0  0  0  0  0  0  0  0  0  0  0
   39.2030   30.9260   40.7150 N   0  0  0  0  0  0  0  0  0  0  0  0
   39.6320   29.8790   37.0350 H   0  0  0  0  0  0  0  0  0  0  0  0
   41.3490   30.4390   40.7590 H   0  0  0  0  0  0  0  0  0  0  0  0
   37.1340   30.6910   37.6090 C   0  0  0  0  0  0  0  0  0  0  0  0
   36.9070   30.0590   36.4290 C   0  0  0  0  0  0  0  0  0  0  0  0
   36.0460   29.5330   37.5800 C   0  0  0  0  0  0  0  0  0  0  0  0
   36.4170   31.5420   38.0030 H   0  0  0  0  0  0  0  0  0  0  0  0
   36.3160   30.4990   35.5720 H   0  0  0  0  0  0  0  0  0  0  0  0
   37.5470   29.2310   36.0270 H   0  0  0  0  0  0  0  0  0  0  0  0
   36.3720   28.6600   38.1470 H   0  0  0  0  0  0  0  0  0  0  0  0
   35.0020   29.7830   37.5620 H   0  0  0  0  0  0  0  0  0  0  0  0
   36.9750   31.2810   40.6020 C   0  0  0  0  0  0  0  0  0  0  0  0
   36.0760   30.9270   41.3490 O   0  0  0  0  0  0  0  0  0  0  0  0
   37.6900   34.6610   39.5590 H   0  0  0  0  0  0  0  0  0  0  0  0
   37.7430   33.6080   39.7810 C   0  0  0  0  0  0  0  0  0  0  0  0
   38.8520   33.1130   39.4820 O   0  0  0  0  0  0  0  0  0  0  0  0
   36.7830   32.7010   40.3480 N   0  0  0  0  0  0  0  0  0  0  0  0
   35.9440   33.3390   40.5130 H   0  0  0  0  0  0  0  0  0  0  0  0
  1 17  1  0  0  0  0
  1  6  1  0  0  0  0
  2  1  2  0  0  0  0
  3  2  1  0  0  0  0
  3  4  2  0  0  0  0
  4  5  1  0  0  0  0
  5  6  2  0  0  0  0
  5  8  1  0  0  0  0
  7  3  1  0  0  0  0
  9 12  1  0  0  0  0
  9  2  1  0  0  0  0
 10 11  1  0  0  0  0
 10  9  1  0  0  0  0
 11  9  1  0  0  0  0
 11 15  1  0  0  0  0
 13 10  1  0  0  0  0
 14 10  1  0  0  0  0
 16 11  1  0  0  0  0
 17 18  2  0  0  0  0
 19 20  1  0  0  0  0
 20 22  1  0  0  0  0
 21 20  2  0  0  0  0
 22 23  1  0  0  0  0
 22 17  1  0  0  0  0
M  END
>  <minimizedAffinity>
-4.01569939

$$$$

 OpenBabel03242523173D

 23 24  0  0  0  0  0  0  0  0999 V2000
   37.1880   29.0910   40.2900 C   0  0  0  0  0  0  0  0  0  0  0  0
   37.2770   28.0170   41.1070 C   0  0  0  0  0  0  0  0  0  0  0  0
   38.0620   26.9750   40.6220 C   0  0  0  0  0  0  0  0  0  0  0  0
   38.6640   27.1220   39.3850 N   0  0  0  0  0  0  0  0  0  0  0  0
   38.5290   28.2150   38.6300 C   0  0  0  0  0  0  0  0  0  0  0  0
   37.7650   29.2590   39.0770 N   0  0  0  0  0  0  0  0  0  0  0  0
   38.2250   26.0570   41.1660 H   0  0  0  0  0  0  0  0  0  0  0  0
   39.0710   28.1490   37.6960 H   0  0  0  0  0  0  0  0  0  0  0  0
   36.5950   27.8470   42.3360 C   0  0  0  0  0  0  0  0  0  0  0  0
   36.7560   26.9300   43.3240 C   0  0  0  0  0  0  0  0  0  0  0  0
   37.3070   28.3130   43.6780 C   0  0  0  0  0  0  0  0  0  0  0  0
   35.7200   28.6390   42.3630 H   0  0  0  0  0  0  0  0  0  0  0  0
   35.9280   26.5730   44.0050 H   0  0  0  0  0  0  0  0  0  0  0  0
   37.5840   26.1760   43.3510 H   0  0  0  0  0  0  0  0  0  0  0  0
   38.3630   28.5340   43.5180 H   0  0  0  0  0  0  0  0  0  0  0  0
   36.7570   28.8870   44.4010 H   0  0  0  0  0  0  0  0  0  0  0  0
   36.5320   30.3670   40.6100 C   0  0  0  0  0  0  0  0  0  0  0  0
   36.6250   31.5180   41.0080 O   0  0  0  0  0  0  0  0  0  0  0  0
   33.5740   28.7940   39.2700 H   0  0  0  0  0  0  0  0  0  0  0  0
   34.5860   29.0450   39.5420 C   0  0  0  0  0  0  0  0  0  0  0  0
   35.4180   28.2250   39.0950 O   0  0  0  0  0  0  0  0  0  0  0  0
   35.1280   30.1330   40.3090 N   0  0  0  0  0  0  0  0  0  0  0  0
   34.2500   30.6800   40.5730 H   0  0  0  0  0  0  0  0  0  0  0  0
  1 17  1  0  0  0  0
  1  2  1  0  0  0  0
  2  9  1  0  0  0  0
  3  2  2  0  0  0  0
  3  7  1  0  0  0  0
  4  3  1  0  0  0  0
  5  6  1  0  0  0  0
  5  4  2  0  0  0  0
  6  1  2  0  0  0  0
  8  5  1  0  0  0  0
  9 12  1  0  0  0  0
  9 10  1  0  0  0  0
  9 11  1  0  0  0  0
 10 14  1  0  0  0  0
 10 11  1  0  0  0  0
 10 13  1  0  0  0  0
 11 16  1  0  0  0  0
 15 11  1  0  0  0  0
 17 18  2  0  0  0  0
 19 20  1  0  0  0  0
 20 22  1  0  0  0  0
 21 20  2  0  0  0  0
 22 23  1  0  0  0  0
 22 17  1  0  0  0  0
M  END
>  <minimizedAffinity>
-3.9169786

$$$$

 OpenBabel03242523173D

 23 24  0  0  0  0  0  0  0  0999 V2000
   36.9140   28.1880   41.5630 C   0  0  0  0  0  0  0  0  0  0  0  0
   37.3420   26.9120   41.6910 C   0  0  0  0  0  0  0  0  0  0  0  0
   38.2260   26.6930   42.7440 C   0  0  0  0  0  0  0  0  0  0  0  0
   38.5820   27.7660   43.5420 N   0  0  0  0  0  0  0  0  0  0  0  0
   38.1190   29.0050   43.3530 C   0  0  0  0  0  0  0  0  0  0  0  0
   37.2470   29.2540   42.3280 N   0  0  0  0  0  0  0  0  0  0  0  0
   38.6480   25.7250   42.9680 H   0  0  0  0  0  0  0  0  0  0  0  0
   38.5070   29.7110   44.0740 H   0  0  0  0  0  0  0  0  0  0  0  0
   37.0320   25.8380   40.8230 C   0  0  0  0  0  0  0  0  0  0  0  0
   37.7550   24.7470   40.4620 C   0  0  0  0  0  0  0  0  0  0  0  0
   36.6310   24.4350   41.4530 C   0  0  0  0  0  0  0  0  0  0  0  0
   35.9820   26.0730   40.3360 H   0  0  0  0  0  0  0  0  0  0  0  0
   37.6570   24.2160   39.4690 H   0  0  0  0  0  0  0  0  0  0  0  0
   38.7430   24.4710   40.9130 H   0  0  0  0  0  0  0  0  0  0  0  0
   36.8450   24.3970   42.5220 H   0  0  0  0  0  0  0  0  0  0  0  0
   35.7780   23.9030   41.0720 H   0  0  0  0  0  0  0  0  0  0  0  0
   35.8890   28.6640   40.6220 C   0  0  0  0  0  0  0  0  0  0  0  0
   34.7240   28.9610   40.4100 O   0  0  0  0  0  0  0  0  0  0  0  0
   38.6600   29.0950   38.3500 H   0  0  0  0  0  0  0  0  0  0  0  0
   38.0420   28.9450   39.2200 C   0  0  0  0  0  0  0  0  0  0  0  0
   38.7150   28.8150   40.2670 O   0  0  0  0  0  0  0  0  0  0  0  0
   36.6150   28.8720   39.3780 N   0  0  0  0  0  0  0  0  0  0  0  0
   36.2720   29.0070   38.3770 H   0  0  0  0  0  0  0  0  0  0  0  0
  1  2  2  0  0  0  0
  1  6  1  0  0  0  0
  2  3  1  0  0  0  0
  3  7  1  0  0  0  0
  3  4  2  0  0  0  0
  5  4  1  0  0  0  0
  5  8  1  0  0  0  0
  6  5  2  0  0  0  0
  9 11  1  0  0  0  0
  9  2  1  0  0  0  0
 10  9  1  0  0  0  0
 10 14  1  0  0  0  0
 10 11  1  0  0  0  0
 11 15  1  0  0  0  0
 12  9  1  0  0  0  0
 13 10  1  0  0  0  0
 16 11  1  0  0  0  0
 17  1  1  0  0  0  0
 18 17  2  0  0  0  0
 19 20  1  0  0  0  0
 20 22  1  0  0  0  0
 20 21  2  0  0  0  0
 22 17  1  0  0  0  0
 23 22  1  0  0  0  0
M  END
>  <minimizedAffinity>
-3.85372257

$$$$

 OpenBabel03242523173D

 23 24  0  0  0  0  0  0  0  0999 V2000
   36.9120   29.8170   41.1400 C   0  0  0  0  0  0  0  0  0  0  0  0
   37.4650   30.9910   40.7610 C   0  0  0  0  0  0  0  0  0  0  0  0
   38.6410   31.3270   41.4270 C   0  0  0  0  0  0  0  0  0  0  0  0
   39.1260   30.4600   42.3900 N   0  0  0  0  0  0  0  0  0  0  0  0
   38.5220   29.3140   42.7140 C   0  0  0  0  0  0  0  0  0  0  0  0
   37.3650   28.9530   42.0790 N   0  0  0  0  0  0  0  0  0  0  0  0
   39.1940   32.2330   41.2270 H   0  0  0  0  0  0  0  0  0  0  0  0
   39.0460   28.7690   43.4870 H   0  0  0  0  0  0  0  0  0  0  0  0
   36.9200   31.9070   39.8300 C   0  0  0  0  0  0  0  0  0  0  0  0
   37.4000   33.0840   39.3520 C   0  0  0  0  0  0  0  0  0  0  0  0
   37.5000   31.9310   38.3500 C   0  0  0  0  0  0  0  0  0  0  0  0
   35.8410   31.5180   39.5480 H   0  0  0  0  0  0  0  0  0  0  0  0
   36.7530   33.9440   39.0060 H   0  0  0  0  0  0  0  0  0  0  0  0
   38.4240   33.4800   39.5740 H   0  0  0  0  0  0  0  0  0  0  0  0
   38.4250   31.3590   38.2700 H   0  0  0  0  0  0  0  0  0  0  0  0
   36.8250   31.9520   37.5140 H   0  0  0  0  0  0  0  0  0  0  0  0
   35.7480   29.1700   40.5170 C   0  0  0  0  0  0  0  0  0  0  0  0
   34.5360   29.1060   40.3840 O   0  0  0  0  0  0  0  0  0  0  0  0
   38.2110   27.2960   38.6600 H   0  0  0  0  0  0  0  0  0  0  0  0
   37.7010   28.0190   39.2740 C   0  0  0  0  0  0  0  0  0  0  0  0
   38.4680   28.9100   39.7010 O   0  0  0  0  0  0  0  0  0  0  0  0
   36.3240   28.1330   39.6740 N   0  0  0  0  0  0  0  0  0  0  0  0
   35.8830   27.2850   39.2000 H   0  0  0  0  0  0  0  0  0  0  0  0
  1  6  1  0  0  0  0
  2  1  2  0  0  0  0
  2  3  1  0  0  0  0
  3  4  2  0  0  0  0
  4  5  1  0  0  0  0
  5  8  1  0  0  0  0
  6  5  2  0  0  0  0
  7  3  1  0  0  0  0
  9  2  1  0  0  0  0
 10 14  1  0  0  0  0
 10  9  1  0  0  0  0
 11 10  1  0  0  0  0
 11  9  1  0  0  0  0
 12  9  1  0  0  0  0
 13 10  1  0  0  0  0
 15 11  1  0  0  0  0
 16 11  1  0  0  0  0
 17  1  1  0  0  0  0
 18 17  2  0  0  0  0
 19 20  1  0  0  0  0
 20 22  1  0  0  0  0
 20 21  2  0  0  0  0
 22 17  1  0  0  0  0
 23 22  1  0  0  0  0
M  END
>  <minimizedAffinity>
-3.80699682

$$$$

 OpenBabel03242523173D

 23 24  0  0  0  0  0  0  0  0999 V2000
   37.5530   27.6470   41.6040 C   0  0  0  0  0  0  0  0  0  0  0  0
   37.2590   28.2770   40.4440 C   0  0  0  0  0  0  0  0  0  0  0  0
   37.9880   27.8420   39.3400 C   0  0  0  0  0  0  0  0  0  0  0  0
   38.9220   26.8370   39.5190 N   0  0  0  0  0  0  0  0  0  0  0  0
   39.1600   26.2600   40.7000 C   0  0  0  0  0  0  0  0  0  0  0  0
   38.4610   26.6630   41.8050 N   0  0  0  0  0  0  0  0  0  0  0  0
   37.8590   28.2520   38.3500 H   0  0  0  0  0  0  0  0  0  0  0  0
   39.9230   25.4960   40.6460 H   0  0  0  0  0  0  0  0  0  0  0  0
   36.3570   29.3560   40.2870 C   0  0  0  0  0  0  0  0  0  0  0  0
   35.8050   29.9010   39.1740 C   0  0  0  0  0  0  0  0  0  0  0  0
   34.8300   29.0400   39.9810 C   0  0  0  0  0  0  0  0  0  0  0  0
   36.1870   29.8280   41.3560 H   0  0  0  0  0  0  0  0  0  0  0  0
   35.4960   30.9850   39.0780 H   0  0  0  0  0  0  0  0  0  0  0  0
   35.9200   29.4760   38.1430 H   0  0  0  0  0  0  0  0  0  0  0  0
   34.6810   27.9940   39.7140 H   0  0  0  0  0  0  0  0  0  0  0  0
   34.0600   29.5560   40.5250 H   0  0  0  0  0  0  0  0  0  0  0  0
   36.8500   27.8220   42.8830 C   0  0  0  0  0  0  0  0  0  0  0  0
   36.0100   27.4260   43.6760 O   0  0  0  0  0  0  0  0  0  0  0  0
   39.1640   30.5440   43.3930 H   0  0  0  0  0  0  0  0  0  0  0  0
   38.6570   29.6640   43.0350 C   0  0  0  0  0  0  0  0  0  0  0  0
   39.2610   29.1180   42.0850 O   0  0  0  0  0  0  0  0  0  0  0  0
   37.4390   29.0250   43.4530 N   0  0  0  0  0  0  0  0  0  0  0  0
   37.1190   29.6560   44.2510 H   0  0  0  0  0  0  0  0  0  0  0  0
  1  6  1  0  0  0  0
  1 17  1  0  0  0  0
  2  1  2  0  0  0  0
  3  4  2  0  0  0  0
  3  2  1  0  0  0  0
  4  5  1  0  0  0  0
  5  6  2  0  0  0  0
  7  3  1  0  0  0  0
  8  5  1  0  0  0  0
  9  2  1  0  0  0  0
  9 12  1  0  0  0  0
 10 11  1  0  0  0  0
 10  9  1  0  0  0  0
 11  9  1  0  0  0  0
 11 16  1  0  0  0  0
 13 10  1  0  0  0  0
 14 10  1  0  0  0  0
 15 11  1  0  0  0  0
 17 22  1  0  0  0  0
 17 18  2  0  0  0  0
 20 19  1  0  0  0  0
 20 22  1  0  0  0  0
 21 20  2  0  0  0  0
 22 23  1  0  0  0  0
M  END
>  <minimizedAffinity>
-3.79264641

$$$$

 OpenBabel03242523173D

 23 24  0  0  0  0  0  0  0  0999 V2000
   38.2580   27.9010   41.6130 C   0  0  0  0  0  0  0  0  0  0  0  0
   39.3870   27.3290   42.0900 C   0  0  0  0  0  0  0  0  0  0  0  0
   39.7570   26.1460   41.4550 C   0  0  0  0  0  0  0  0  0  0  0  0
   38.9630   25.6720   40.4270 N   0  0  0  0  0  0  0  0  0  0  0  0
   37.8560   26.2920   40.0090 C   0  0  0  0  0  0  0  0  0  0  0  0
   37.4640   27.4570   40.6100 N   0  0  0  0  0  0  0  0  0  0  0  0
   40.6350   25.5810   41.7280 H   0  0  0  0  0  0  0  0  0  0  0  0
   37.3670   25.7740   39.1960 H   0  0  0  0  0  0  0  0  0  0  0  0
   40.1490   27.7820   43.1930 C   0  0  0  0  0  0  0  0  0  0  0  0
   41.3720   27.4050   43.6460 C   0  0  0  0  0  0  0  0  0  0  0  0
   41.3750   28.7570   42.9280 C   0  0  0  0  0  0  0  0  0  0  0  0
   39.4820   28.5570   43.7840 H   0  0  0  0  0  0  0  0  0  0  0  0
   41.6950   27.4540   44.7280 H   0  0  0  0  0  0  0  0  0  0  0  0
   42.0480   26.6910   43.1080 H   0  0  0  0  0  0  0  0  0  0  0  0
   41.6270   28.8090   41.8690 H   0  0  0  0  0  0  0  0  0  0  0  0
   41.5010   29.6330   43.5390 H   0  0  0  0  0  0  0  0  0  0  0  0
   37.7170   29.2080   42.0150 C   0  0  0  0  0  0  0  0  0  0  0  0
   37.6180   30.4070   41.8030 O   0  0  0  0  0  0  0  0  0  0  0  0
   35.9640   27.3250   44.5450 H   0  0  0  0  0  0  0  0  0  0  0  0
   36.5280   27.6280   43.6790 C   0  0  0  0  0  0  0  0  0  0  0  0
   36.8630   26.6580   42.9630 O   0  0  0  0  0  0  0  0  0  0  0  0
   36.9490   28.9230   43.2180 N   0  0  0  0  0  0  0  0  0  0  0  0
   36.5560   29.5670   43.9720 H   0  0  0  0  0  0  0  0  0  0  0  0
  1 17  1  0  0  0  0
  1  2  1  0  0  0  0
  2  9  1  0  0  0  0
  3  7  1  0  0  0  0
  3  2  2  0  0  0  0
  4  3  1  0  0  0  0
  5  4  2  0  0  0  0
  5  6  1  0  0  0  0
  6  1  2  0  0  0  0
  8  5  1  0  0  0  0
  9 10  1  0  0  0  0
  9 12  1  0  0  0  0
 10 13  1  0  0  0  0
 11  9  1  0  0  0  0
 11 16  1  0  0  0  0
 11 10  1  0  0  0  0
 14 10  1  0  0  0  0
 15 11  1  0  0  0  0
 17 22  1  0  0  0  0
 18 17  2  0  0  0  0
 20 19  1  0  0  0  0
 21 20  2  0  0  0  0
 22 20  1  0  0  0  0
 22 23  1  0  0  0  0
M  END
>  <minimizedAffinity>
-3.78725863

$$$$

 OpenBabel03242523173D

 23 24  0  0  0  0  0  0  0  0999 V2000
   37.5430   29.9740   41.1060 C   0  0  0  0  0  0  0  0  0  0  0  0
   38.2530   29.3470   42.0710 C   0  0  0  0  0  0  0  0  0  0  0  0
   39.3310   30.0730   42.5720 C   0  0  0  0  0  0  0  0  0  0  0  0
   39.5760   31.3320   42.0530 N   0  0  0  0  0  0  0  0  0  0  0  0
   38.8300   31.8880   41.0950 C   0  0  0  0  0  0  0  0  0  0  0  0
   37.7630   31.2030   40.5820 N   0  0  0  0  0  0  0  0  0  0  0  0
   39.9840   29.7000   43.3450 H   0  0  0  0  0  0  0  0  0  0  0  0
   39.1740   32.8760   40.8180 H   0  0  0  0  0  0  0  0  0  0  0  0
   38.0390   28.0280   42.5390 C   0  0  0  0  0  0  0  0  0  0  0  0
   38.4430   27.4110   43.6790 C   0  0  0  0  0  0  0  0  0  0  0  0
   36.9590   27.7860   43.6790 C   0  0  0  0  0  0  0  0  0  0  0  0
   37.4710   27.4420   41.6860 H   0  0  0  0  0  0  0  0  0  0  0  0
   38.6410   26.3020   43.7700 H   0  0  0  0  0  0  0  0  0  0  0  0
   38.9640   27.9320   44.5240 H   0  0  0  0  0  0  0  0  0  0  0  0
   36.6360   28.7230   44.1340 H   0  0  0  0  0  0  0  0  0  0  0  0
   36.2530   26.9820   43.5820 H   0  0  0  0  0  0  0  0  0  0  0  0
   36.2950   29.4890   40.5010 C   0  0  0  0  0  0  0  0  0  0  0  0
   35.0730   29.4950   40.4790 O   0  0  0  0  0  0  0  0  0  0  0  0
   38.4730   27.8710   38.1210 H   0  0  0  0  0  0  0  0  0  0  0  0
   38.0610   28.4970   38.8960 C   0  0  0  0  0  0  0  0  0  0  0  0
   38.9110   29.2700   39.3890 O   0  0  0  0  0  0  0  0  0  0  0  0
   36.7340   28.5920   39.4430 N   0  0  0  0  0  0  0  0  0  0  0  0
   36.2070   27.8560   38.8780 H   0  0  0  0  0  0  0  0  0  0  0  0
  1  2  1  0  0  0  0
  2  9  1  0  0  0  0
  2  3  2  0  0  0  0
  3  7  1  0  0  0  0
  4  3  1  0  0  0  0
  5  4  2  0  0  0  0
  6  5  1  0  0  0  0
  6  1  2  0  0  0  0
  8  5  1  0  0  0  0
  9 11  1  0  0  0  0
  9 10  1  0  0  0  0
 10 13  1  0  0  0  0
 10 14  1  0  0  0  0
 11 10  1  0  0  0  0
 11 15  1  0  0  0  0
 12  9  1  0  0  0  0
 16 11  1  0  0  0  0
 17  1  1  0  0  0  0
 18 17  2  0  0  0  0
 19 20  1  0  0  0  0
 20 21  2  0  0  0  0
 20 22  1  0  0  0  0
 22 17  1  0  0  0  0
 23 22  1  0  0  0  0
M  END
>  <minimizedAffinity>
-3.78044748

$$$$

 OpenBabel03242523173D

 23 24  0  0  0  0  0  0  0  0999 V2000
   37.4090   29.1510   42.0930 C   0  0  0  0  0  0  0  0  0  0  0  0
   38.6710   29.2870   42.5590 C   0  0  0  0  0  0  0  0  0  0  0  0
   39.1730   28.1720   43.2250 C   0  0  0  0  0  0  0  0  0  0  0  0
   38.3630   27.0580   43.3510 N   0  0  0  0  0  0  0  0  0  0  0  0
   37.1210   26.9960   42.8640 C   0  0  0  0  0  0  0  0  0  0  0  0
   36.5970   28.0740   42.2040 N   0  0  0  0  0  0  0  0  0  0  0  0
   40.1650   28.1350   43.6490 H   0  0  0  0  0  0  0  0  0  0  0  0
   36.6420   26.0460   43.0580 H   0  0  0  0  0  0  0  0  0  0  0  0
   39.4620   30.4590   42.4930 C   0  0  0  0  0  0  0  0  0  0  0  0
   40.7970   30.6430   42.6600 C   0  0  0  0  0  0  0  0  0  0  0  0
   40.3490   30.7110   41.1980 C   0  0  0  0  0  0  0  0  0  0  0  0
   38.7270   31.3690   42.3350 H   0  0  0  0  0  0  0  0  0  0  0  0
   41.2670   31.5960   43.0460 H   0  0  0  0  0  0  0  0  0  0  0  0
   41.5340   29.8090   42.7890 H   0  0  0  0  0  0  0  0  0  0  0  0
   40.4070   29.8220   40.5700 H   0  0  0  0  0  0  0  0  0  0  0  0
   40.3480   31.6800   40.7330 H   0  0  0  0  0  0  0  0  0  0  0  0
   36.6910   30.1200   41.2530 C   0  0  0  0  0  0  0  0  0  0  0  0
   36.0610   31.1630   41.1670 O   0  0  0  0  0  0  0  0  0  0  0  0
   37.8040   28.0560   38.5100 H   0  0  0  0  0  0  0  0  0  0  0  0
   37.6680   28.5230   39.4710 C   0  0  0  0  0  0  0  0  0  0  0  0
   38.4350   28.0560   40.3420 O   0  0  0  0  0  0  0  0  0  0  0  0
   36.7810   29.5660   39.9100 N   0  0  0  0  0  0  0  0  0  0  0  0
   36.2450   29.7940   39.0160 H   0  0  0  0  0  0  0  0  0  0  0  0
  1  6  2  0  0  0  0
  1  2  1  0  0  0  0
  2  3  2  0  0  0  0
  3  4  1  0  0  0  0
  3  7  1  0  0  0  0
  5  8  1  0  0  0  0
  5  4  2  0  0  0  0
  6  5  1  0  0  0  0
  9  2  1  0  0  0  0
  9 10  1  0  0  0  0
 10 14  1  0  0  0  0
 10 13  1  0  0  0  0
 11  9  1  0  0  0  0
 11 10  1  0  0  0  0
 12  9  1  0  0  0  0
 15 11  1  0  0  0  0
 16 11  1  0  0  0  0
 17  1  1  0  0  0  0
 18 17  2  0  0  0  0
 19 20  1  0  0  0  0
 20 22  1  0  0  0  0
 20 21  2  0  0  0  0
 22 17  1  0  0  0  0
 23 22  1  0  0  0  0
M  END
>  <minimizedAffinity>
-3.763973

$$$$
