
 OpenBabel03252509193D

 39 41  0  0  1  0  0  0  0  0999 V2000
   48.0160   29.3210   47.7650 C   0  0  1  0  0  0  0  0  0  0  0  0
   48.0200   28.3710   46.6310 C   0  0  0  0  0  0  0  0  0  0  0  0
   49.3390   27.6860   46.3960 C   0  0  0  0  0  0  0  0  0  0  0  0
   49.9850   27.2070   47.6670 C   0  0  0  0  0  0  0  0  0  0  0  0
   49.9460   28.2410   48.7600 C   0  0  0  0  0  0  0  0  0  0  0  0
   49.4750   29.5840   48.2020 C   0  0  2  0  0  0  0  0  0  0  0  0
   47.5680   28.8160   48.6360 H   0  0  0  0  0  0  0  0  0  0  0  0
   47.8090   28.9490   45.6860 H   0  0  0  0  0  0  0  0  0  0  0  0
   47.2370   27.6050   46.7380 H   0  0  0  0  0  0  0  0  0  0  0  0
   49.1220   26.7950   45.7790 H   0  0  0  0  0  0  0  0  0  0  0  0
   50.0420   28.3040   45.8120 H   0  0  0  0  0  0  0  0  0  0  0  0
   50.9800   26.8190   47.4620 H   0  0  0  0  0  0  0  0  0  0  0  0
   49.3720   26.3300   48.0270 H   0  0  0  0  0  0  0  0  0  0  0  0
   49.2410   27.9660   49.5740 H   0  0  0  0  0  0  0  0  0  0  0  0
   50.9740   28.3730   49.1460 H   0  0  0  0  0  0  0  0  0  0  0  0
   50.0750   29.8700   47.3140 H   0  0  0  0  0  0  0  0  0  0  0  0
   46.2160   32.6790   46.2870 C   0  0  0  0  0  0  0  0  0  0  0  0
   45.9360   32.4810   47.6370 C   0  0  0  0  0  0  0  0  0  0  0  0
   46.4670   31.4110   48.2360 C   0  0  0  0  0  0  0  0  0  0  0  0
   47.2860   30.5190   47.5070 C   0  0  0  0  0  0  0  0  0  0  0  0
   47.3010   31.2530   45.8390 S   0  0  0  0  0  0  0  0  0  0  0  0
   45.3080   33.1720   48.1810 H   0  0  0  0  0  0  0  0  0  0  0  0
   46.3600   31.1010   49.2620 H   0  0  0  0  0  0  0  0  0  0  0  0
   44.5140   35.7240   45.0010 C   0  0  0  0  0  0  0  0  0  0  0  0
   45.0730   35.8200   43.7250 C   0  0  0  0  0  0  0  0  0  0  0  0
   46.0040   34.8380   43.3590 C   0  0  0  0  0  0  0  0  0  0  0  0
   46.3100   33.8490   44.2630 N   0  0  0  0  0  0  0  0  0  0  0  0
   45.7320   33.8190   45.4730 C   0  0  0  0  0  0  0  0  0  0  0  0
   44.8280   34.7580   45.8530 N   0  0  0  0  0  0  0  0  0  0  0  0
   43.7840   36.4750   45.3170 H   0  0  0  0  0  0  0  0  0  0  0  0
   44.8230   36.6050   43.0250 H   0  0  0  0  0  0  0  0  0  0  0  0
   46.4920   34.8260   42.3940 H   0  0  0  0  0  0  0  0  0  0  0  0
   49.5010   30.5820   49.2730 C   0  0  0  0  0  0  0  0  0  0  0  0
   49.0810   30.3490   50.4230 O   0  0  0  0  0  0  0  0  0  0  0  0
   51.1690   33.6310   49.8450 H   0  0  0  0  0  0  0  0  0  0  0  0
   51.0990   32.5400   49.8090 C   0  0  0  0  0  0  0  0  0  0  0  0
   52.0010   31.7290   50.0860 O   0  0  0  0  0  0  0  0  0  0  0  0
   49.9140   31.9030   49.4210 N   0  0  0  0  0  0  0  0  0  0  0  0
   49.1620   32.5550   49.1890 H   0  0  0  0  0  0  0  0  0  0  0  0
  1  6  1  0  0  0  0
  1  7  1  1  0  0  0
  2  9  1  0  0  0  0
  2  1  1  0  0  0  0
  3  2  1  0  0  0  0
  3  4  1  0  0  0  0
  4 13  1  0  0  0  0
  4  5  1  0  0  0  0
  5 15  1  0  0  0  0
  5 14  1  0  0  0  0
  6 16  1  6  0  0  0
  6  5  1  0  0  0  0
  6 33  1  0  0  0  0
  8  2  1  0  0  0  0
 10  3  1  0  0  0  0
 11  3  1  0  0  0  0
 12  4  1  0  0  0  0
 17 18  2  0  0  0  0
 18 22  1  0  0  0  0
 18 19  1  0  0  0  0
 19 23  1  0  0  0  0
 20  1  1  0  0  0  0
 20 19  2  0  0  0  0
 21 17  1  0  0  0  0
 21 20  1  0  0  0  0
 24 30  1  0  0  0  0
 24 29  1  0  0  0  0
 25 24  2  0  0  0  0
 26 25  1  0  0  0  0
 26 27  2  0  0  0  0
 27 28  1  0  0  0  0
 28 29  2  0  0  0  0
 28 17  1  0  0  0  0
 31 25  1  0  0  0  0
 32 26  1  0  0  0  0
 33 38  1  0  0  0  0
 33 34  2  0  0  0  0
 36 35  1  0  0  0  0
 36 37  2  0  0  0  0
 38 36  1  0  0  0  0
 39 38  1  0  0  0  0
M  END
>  <minimizedAffinity>
-5.17333126

>  <minimizedRMSD>
1.17978513

$$$$
