
 OpenBabel03252509193D

 39 41  0  0  1  0  0  0  0  0999 V2000
   46.5530   29.1320   47.6820 C   0  0  1  0  0  0  0  0  0  0  0  0
   45.2980   28.3650   47.5320 C   0  0  0  0  0  0  0  0  0  0  0  0
   45.4750   26.9850   46.9570 C   0  0  0  0  0  0  0  0  0  0  0  0
   46.6390   26.2450   47.5570 C   0  0  0  0  0  0  0  0  0  0  0  0
   47.8740   27.0980   47.6610 C   0  0  0  0  0  0  0  0  0  0  0  0
   47.6760   28.4110   46.9030 C   0  0  2  0  0  0  0  0  0  0  0  0
   46.8770   29.0610   48.7340 H   0  0  0  0  0  0  0  0  0  0  0  0
   44.6350   28.9110   46.8020 H   0  0  0  0  0  0  0  0  0  0  0  0
   44.7510   28.2840   48.4850 H   0  0  0  0  0  0  0  0  0  0  0  0
   44.5580   26.4210   47.2100 H   0  0  0  0  0  0  0  0  0  0  0  0
   45.5430   26.9890   45.8560 H   0  0  0  0  0  0  0  0  0  0  0  0
   46.7950   25.3030   47.0380 H   0  0  0  0  0  0  0  0  0  0  0  0
   46.3380   25.9790   48.6120 H   0  0  0  0  0  0  0  0  0  0  0  0
   48.1130   27.3660   48.7120 H   0  0  0  0  0  0  0  0  0  0  0  0
   48.7100   26.5520   47.1850 H   0  0  0  0  0  0  0  0  0  0  0  0
   47.3320   28.2160   45.8670 H   0  0  0  0  0  0  0  0  0  0  0  0
   45.9490   32.7990   45.9840 C   0  0  0  0  0  0  0  0  0  0  0  0
   46.4270   32.8940   47.2890 C   0  0  0  0  0  0  0  0  0  0  0  0
   46.6620   31.7590   47.9540 C   0  0  0  0  0  0  0  0  0  0  0  0
   46.4280   30.5090   47.3360 C   0  0  0  0  0  0  0  0  0  0  0  0
   45.8230   30.9820   45.6830 S   0  0  0  0  0  0  0  0  0  0  0  0
   46.6020   33.8570   47.7480 H   0  0  0  0  0  0  0  0  0  0  0  0
   47.0290   31.6400   48.9600 H   0  0  0  0  0  0  0  0  0  0  0  0
   44.6700   35.9340   44.4490 C   0  0  0  0  0  0  0  0  0  0  0  0
   45.3680   35.9410   43.2400 C   0  0  0  0  0  0  0  0  0  0  0  0
   46.2410   34.8710   43.0010 C   0  0  0  0  0  0  0  0  0  0  0  0
   46.3610   33.8900   43.9550 N   0  0  0  0  0  0  0  0  0  0  0  0
   45.6580   33.9490   45.0960 C   0  0  0  0  0  0  0  0  0  0  0  0
   44.8050   34.9740   45.3530 N   0  0  0  0  0  0  0  0  0  0  0  0
   43.9800   36.7550   44.6660 H   0  0  0  0  0  0  0  0  0  0  0  0
   45.2630   36.7200   42.4980 H   0  0  0  0  0  0  0  0  0  0  0  0
   46.8260   34.7850   42.0950 H   0  0  0  0  0  0  0  0  0  0  0  0
   48.9120   29.1940   46.9730 C   0  0  0  0  0  0  0  0  0  0  0  0
   49.6850   29.3210   46.0030 O   0  0  0  0  0  0  0  0  0  0  0  0
   50.6150   30.4960   49.7660 H   0  0  0  0  0  0  0  0  0  0  0  0
   50.1210   29.7030   49.1970 C   0  0  0  0  0  0  0  0  0  0  0  0
   49.9620   28.5220   49.5540 O   0  0  0  0  0  0  0  0  0  0  0  0
   49.5830   29.9500   47.9290 N   0  0  0  0  0  0  0  0  0  0  0  0
   49.7050   30.9170   47.6190 H   0  0  0  0  0  0  0  0  0  0  0  0
  1  7  1  1  0  0  0
  2  1  1  0  0  0  0
  2  9  1  0  0  0  0
  3 10  1  0  0  0  0
  3  2  1  0  0  0  0
  3  4  1  0  0  0  0
  4  5  1  0  0  0  0
  4 13  1  0  0  0  0
  5 14  1  0  0  0  0
  6 16  1  6  0  0  0
  6 33  1  0  0  0  0
  6  5  1  0  0  0  0
  6  1  1  0  0  0  0
  8  2  1  0  0  0  0
 11  3  1  0  0  0  0
 12  4  1  0  0  0  0
 15  5  1  0  0  0  0
 17 18  2  0  0  0  0
 18 22  1  0  0  0  0
 18 19  1  0  0  0  0
 19 23  1  0  0  0  0
 20  1  1  0  0  0  0
 20 19  2  0  0  0  0
 21 17  1  0  0  0  0
 21 20  1  0  0  0  0
 24 30  1  0  0  0  0
 24 29  1  0  0  0  0
 25 24  2  0  0  0  0
 26 25  1  0  0  0  0
 26 27  2  0  0  0  0
 27 28  1  0  0  0  0
 28 29  2  0  0  0  0
 28 17  1  0  0  0  0
 31 25  1  0  0  0  0
 32 26  1  0  0  0  0
 33 38  1  0  0  0  0
 34 33  2  0  0  0  0
 36 37  2  0  0  0  0
 36 35  1  0  0  0  0
 38 36  1  0  0  0  0
 39 38  1  0  0  0  0
M  END
>  <minimizedAffinity>
-4.80558062

>  <minimizedRMSD>
2.60009837

$$$$
