
 OpenBabel03252509193D

 39 41  0  0  1  0  0  0  0  0999 V2000
   48.6360   29.2160   48.0150 C   0  0  1  0  0  0  0  0  0  0  0  0
   48.7330   28.3270   46.8370 C   0  0  0  0  0  0  0  0  0  0  0  0
   50.0850   27.6940   46.6440 C   0  0  0  0  0  0  0  0  0  0  0  0
   50.6740   27.1680   47.9250 C   0  0  0  0  0  0  0  0  0  0  0  0
   50.5400   28.1420   49.0650 C   0  0  0  0  0  0  0  0  0  0  0  0
   50.0580   29.4980   48.5480 C   0  0  2  0  0  0  0  0  0  0  0  0
   48.1560   28.6540   48.8330 H   0  0  0  0  0  0  0  0  0  0  0  0
   48.5570   28.9460   45.9120 H   0  0  0  0  0  0  0  0  0  0  0  0
   47.9700   27.5330   46.8600 H   0  0  0  0  0  0  0  0  0  0  0  0
   49.9310   26.8290   45.9720 H   0  0  0  0  0  0  0  0  0  0  0  0
   50.7990   28.3610   46.1340 H   0  0  0  0  0  0  0  0  0  0  0  0
   51.6910   26.8210   47.7580 H   0  0  0  0  0  0  0  0  0  0  0  0
   50.0700   26.2560   48.2040 H   0  0  0  0  0  0  0  0  0  0  0  0
   49.8010   27.8050   49.8220 H   0  0  0  0  0  0  0  0  0  0  0  0
   51.5410   28.2840   49.5150 H   0  0  0  0  0  0  0  0  0  0  0  0
   50.6980   29.8470   47.7120 H   0  0  0  0  0  0  0  0  0  0  0  0
   46.6320   32.4680   46.5620 C   0  0  0  0  0  0  0  0  0  0  0  0
   46.5970   32.4050   47.9530 C   0  0  0  0  0  0  0  0  0  0  0  0
   47.2170   31.3820   48.5490 C   0  0  0  0  0  0  0  0  0  0  0  0
   47.8830   30.4030   47.7760 C   0  0  0  0  0  0  0  0  0  0  0  0
   47.6050   30.9770   46.0690 S   0  0  0  0  0  0  0  0  0  0  0  0
   46.0850   33.1610   48.5300 H   0  0  0  0  0  0  0  0  0  0  0  0
   47.2940   31.1730   49.6030 H   0  0  0  0  0  0  0  0  0  0  0  0
   44.6150   35.3080   45.2650 C   0  0  0  0  0  0  0  0  0  0  0  0
   45.1310   35.4310   43.9730 C   0  0  0  0  0  0  0  0  0  0  0  0
   46.1420   34.5350   43.6010 C   0  0  0  0  0  0  0  0  0  0  0  0
   46.5640   33.5990   44.5140 N   0  0  0  0  0  0  0  0  0  0  0  0
   46.0210   33.5390   45.7400 C   0  0  0  0  0  0  0  0  0  0  0  0
   45.0410   34.3960   46.1260 N   0  0  0  0  0  0  0  0  0  0  0  0
   43.8250   35.9930   45.5860 H   0  0  0  0  0  0  0  0  0  0  0  0
   44.7890   36.1730   43.2650 H   0  0  0  0  0  0  0  0  0  0  0  0
   46.6050   34.5480   42.6240 H   0  0  0  0  0  0  0  0  0  0  0  0
   49.9930   30.4400   49.6680 C   0  0  0  0  0  0  0  0  0  0  0  0
   49.3720   30.1950   50.7200 O   0  0  0  0  0  0  0  0  0  0  0  0
   51.7880   33.4530   49.9860 H   0  0  0  0  0  0  0  0  0  0  0  0
   51.6280   32.4380   49.6100 C   0  0  0  0  0  0  0  0  0  0  0  0
   52.3850   31.7980   48.8580 O   0  0  0  0  0  0  0  0  0  0  0  0
   50.4850   31.7090   49.9580 N   0  0  0  0  0  0  0  0  0  0  0  0
   49.8520   32.2200   50.5760 H   0  0  0  0  0  0  0  0  0  0  0  0
  1  6  1  0  0  0  0
  1  7  1  1  0  0  0
  2  9  1  0  0  0  0
  2  1  1  0  0  0  0
  3  2  1  0  0  0  0
  3  4  1  0  0  0  0
  4 13  1  0  0  0  0
  4  5  1  0  0  0  0
  5 15  1  0  0  0  0
  5 14  1  0  0  0  0
  6 16  1  6  0  0  0
  6  5  1  0  0  0  0
  6 33  1  0  0  0  0
  8  2  1  0  0  0  0
 10  3  1  0  0  0  0
 11  3  1  0  0  0  0
 12  4  1  0  0  0  0
 17 18  2  0  0  0  0
 18 22  1  0  0  0  0
 18 19  1  0  0  0  0
 19 23  1  0  0  0  0
 20  1  1  0  0  0  0
 20 19  2  0  0  0  0
 21 17  1  0  0  0  0
 21 20  1  0  0  0  0
 24 30  1  0  0  0  0
 24 29  1  0  0  0  0
 25 24  2  0  0  0  0
 26 25  1  0  0  0  0
 26 27  2  0  0  0  0
 27 28  1  0  0  0  0
 28 29  2  0  0  0  0
 28 17  1  0  0  0  0
 31 25  1  0  0  0  0
 32 26  1  0  0  0  0
 33 38  1  0  0  0  0
 33 34  2  0  0  0  0
 36 38  1  0  0  0  0
 36 35  1  0  0  0  0
 37 36  2  0  0  0  0
 38 39  1  0  0  0  0
M  END
>  <minimizedAffinity>
-4.92306376

>  <minimizedRMSD>
1.68610561

$$$$
