
 OpenBabel03252509193D

 39 41  0  0  1  0  0  0  0  0999 V2000
   47.8630   28.8830   48.0590 C   0  0  1  0  0  0  0  0  0  0  0  0
   47.3570   27.8800   47.0960 C   0  0  0  0  0  0  0  0  0  0  0  0
   48.3640   26.8350   46.6970 C   0  0  0  0  0  0  0  0  0  0  0  0
   49.1480   26.3010   47.8650 C   0  0  0  0  0  0  0  0  0  0  0  0
   49.6310   27.3900   48.7840 C   0  0  0  0  0  0  0  0  0  0  0  0
   49.4000   28.7610   48.1470 C   0  0  2  0  0  0  0  0  0  0  0  0
   47.5190   28.5970   49.0660 H   0  0  0  0  0  0  0  0  0  0  0  0
   47.0840   28.4130   46.1410 H   0  0  0  0  0  0  0  0  0  0  0  0
   46.4520   27.3750   47.4690 H   0  0  0  0  0  0  0  0  0  0  0  0
   47.7880   25.9930   46.2720 H   0  0  0  0  0  0  0  0  0  0  0  0
   49.0440   27.1810   45.9000 H   0  0  0  0  0  0  0  0  0  0  0  0
   49.9330   25.6330   47.5190 H   0  0  0  0  0  0  0  0  0  0  0  0
   48.4330   25.6640   48.4640 H   0  0  0  0  0  0  0  0  0  0  0  0
   49.0920   27.3920   49.7550 H   0  0  0  0  0  0  0  0  0  0  0  0
   50.7200   27.2600   48.9290 H   0  0  0  0  0  0  0  0  0  0  0  0
   49.8270   28.7930   47.1240 H   0  0  0  0  0  0  0  0  0  0  0  0
   46.4680   32.4120   46.5430 C   0  0  0  0  0  0  0  0  0  0  0  0
   46.8400   32.5230   47.8800 C   0  0  0  0  0  0  0  0  0  0  0  0
   47.3110   31.4320   48.4910 C   0  0  0  0  0  0  0  0  0  0  0  0
   47.4220   30.2110   47.7860 C   0  0  0  0  0  0  0  0  0  0  0  0
   46.8060   30.6450   46.1270 S   0  0  0  0  0  0  0  0  0  0  0  0
   46.7510   33.4630   48.4050 H   0  0  0  0  0  0  0  0  0  0  0  0
   47.6440   31.3310   49.5110 H   0  0  0  0  0  0  0  0  0  0  0  0
   44.6580   35.3640   45.1880 C   0  0  0  0  0  0  0  0  0  0  0  0
   45.2350   35.4690   43.9220 C   0  0  0  0  0  0  0  0  0  0  0  0
   46.2140   34.5240   43.5840 C   0  0  0  0  0  0  0  0  0  0  0  0
   46.5470   33.5610   44.5050 N   0  0  0  0  0  0  0  0  0  0  0  0
   45.9490   33.5190   45.7060 C   0  0  0  0  0  0  0  0  0  0  0  0
   44.9980   34.4230   46.0580 N   0  0  0  0  0  0  0  0  0  0  0  0
   43.8910   36.0860   45.4820 H   0  0  0  0  0  0  0  0  0  0  0  0
   44.9630   36.2340   43.2070 H   0  0  0  0  0  0  0  0  0  0  0  0
   46.7180   34.5210   42.6280 H   0  0  0  0  0  0  0  0  0  0  0  0
   49.9320   29.7960   49.0360 C   0  0  0  0  0  0  0  0  0  0  0  0
   49.6910   29.8240   50.2590 O   0  0  0  0  0  0  0  0  0  0  0  0
   51.7190   32.8120   49.3720 H   0  0  0  0  0  0  0  0  0  0  0  0
   51.0190   32.0410   49.7070 C   0  0  0  0  0  0  0  0  0  0  0  0
   50.3890   32.0260   50.7800 O   0  0  0  0  0  0  0  0  0  0  0  0
   50.7420   30.9210   48.9140 N   0  0  0  0  0  0  0  0  0  0  0  0
   51.2520   30.9160   48.0280 H   0  0  0  0  0  0  0  0  0  0  0  0
  1  6  1  0  0  0  0
  1  7  1  1  0  0  0
  2  9  1  0  0  0  0
  2  1  1  0  0  0  0
  3  2  1  0  0  0  0
  3  4  1  0  0  0  0
  4 13  1  0  0  0  0
  4  5  1  0  0  0  0
  5 15  1  0  0  0  0
  5 14  1  0  0  0  0
  6 16  1  6  0  0  0
  6  5  1  0  0  0  0
  6 33  1  0  0  0  0
  8  2  1  0  0  0  0
 10  3  1  0  0  0  0
 11  3  1  0  0  0  0
 12  4  1  0  0  0  0
 17 18  2  0  0  0  0
 18 22  1  0  0  0  0
 18 19  1  0  0  0  0
 19 23  1  0  0  0  0
 20  1  1  0  0  0  0
 20 19  2  0  0  0  0
 21 17  1  0  0  0  0
 21 20  1  0  0  0  0
 24 30  1  0  0  0  0
 24 29  1  0  0  0  0
 25 24  2  0  0  0  0
 26 25  1  0  0  0  0
 26 27  2  0  0  0  0
 27 28  1  0  0  0  0
 28 29  2  0  0  0  0
 28 17  1  0  0  0  0
 31 25  1  0  0  0  0
 32 26  1  0  0  0  0
 33 34  2  0  0  0  0
 35 36  1  0  0  0  0
 36 37  2  0  0  0  0
 38 33  1  0  0  0  0
 38 36  1  0  0  0  0
 39 38  1  0  0  0  0
M  END
>  <minimizedAffinity>
-4.84279871

>  <minimizedRMSD>
1.53883815

$$$$
