
 OpenBabel03252509313D

 23 23  0  0  0  0  0  0  0  0999 V2000
   47.1300   33.7900   42.8090 C   0  0  0  0  0  0  0  0  0  0  0  0
   46.7880   32.7440   42.6040 H   0  0  0  0  0  0  0  0  0  0  0  0
   46.9720   34.3380   41.8740 H   0  0  0  0  0  0  0  0  0  0  0  0
   45.1920   34.2350   45.9560 C   0  0  0  0  0  0  0  0  0  0  0  0
   46.0760   33.6910   45.0190 C   0  0  0  0  0  0  0  0  0  0  0  0
   46.2070   34.3390   43.8120 C   0  0  0  0  0  0  0  0  0  0  0  0
   45.4790   35.4720   43.5770 N   0  0  0  0  0  0  0  0  0  0  0  0
   44.6240   35.9730   44.5180 C   0  0  0  0  0  0  0  0  0  0  0  0
   44.4860   35.3570   45.6920 N   0  0  0  0  0  0  0  0  0  0  0  0
   45.0710   33.7410   46.9160 H   0  0  0  0  0  0  0  0  0  0  0  0
   46.6080   32.7830   45.3090 H   0  0  0  0  0  0  0  0  0  0  0  0
   44.0810   36.8810   44.2490 H   0  0  0  0  0  0  0  0  0  0  0  0
   48.4360   33.7730   43.2670 O   0  0  0  0  0  0  0  0  0  0  0  0
   50.8560   33.6360   42.2950 O   0  0  0  0  0  0  0  0  0  0  0  0
   49.4430   33.9850   41.9300 P   0  0  2  0  0  0  0  0  0  0  0  0
   49.2810   35.6040   41.4530 O   0  0  0  0  0  0  0  0  0  0  0  0
   48.3270   35.8500   41.5590 H   0  0  0  0  0  0  0  0  0  0  0  0
   48.9250   32.9580   40.7080 O   0  0  0  0  0  0  0  0  0  0  0  0
   48.6330   33.3420   39.4160 C   0  0  0  0  0  0  0  0  0  0  0  0
   47.6520   34.1600   39.3840 O   0  0  0  0  0  0  0  0  0  0  0  0
   49.2790   32.9360   38.2170 N   0  0  0  0  0  0  0  0  0  0  0  0
   50.1200   33.5860   38.2030 H   0  0  0  0  0  0  0  0  0  0  0  0
   48.6640   32.1600   37.8340 H   0  0  0  0  0  0  0  0  0  0  0  0
  1 13  1  0  0  0  0
  1  6  1  0  0  0  0
  2  1  1  0  0  0  0
  3  1  1  0  0  0  0
  4 10  1  0  0  0  0
  5 11  1  0  0  0  0
  5  4  2  0  0  0  0
  6  5  1  0  0  0  0
  7  6  2  0  0  0  0
  7  8  1  0  0  0  0
  8  9  2  0  0  0  0
  9  4  1  0  0  0  0
 12  8  1  0  0  0  0
 15 14  2  1  0  0  0
 15 13  1  0  0  0  0
 16 17  1  0  0  0  0
 16 15  1  0  0  0  0
 18 15  1  0  0  0  0
 19 18  1  0  0  0  0
 20 19  2  0  0  0  0
 21 19  1  0  0  0  0
 22 21  1  0  0  0  0
 23 21  1  0  0  0  0
M  END
>  <minimizedAffinity>
-4.0349679

>  <minimizedRMSD>
1.76647043

$$$$
