
 OpenBabel03252500493D

 24 25  0  0  0  0  0  0  0  0999 V2000
   37.7940   29.8710   38.9440 C   0  0  0  0  0  0  0  0  0  0  0  0
   37.0720   30.8080   39.6670 C   0  0  0  0  0  0  0  0  0  0  0  0
   36.2570   30.4130   40.7190 C   0  0  0  0  0  0  0  0  0  0  0  0
   36.2180   29.0650   40.9860 N   0  0  0  0  0  0  0  0  0  0  0  0
   36.9110   28.1710   40.2890 C   0  0  0  0  0  0  0  0  0  0  0  0
   37.6930   28.5720   39.2770 N   0  0  0  0  0  0  0  0  0  0  0  0
   38.4450   30.1280   38.1130 H   0  0  0  0  0  0  0  0  0  0  0  0
   35.6830   31.1210   41.3010 H   0  0  0  0  0  0  0  0  0  0  0  0
   36.8350   26.7560   40.6110 C   0  0  0  0  0  0  0  0  0  0  0  0
   37.1200   26.2740   41.8490 C   0  0  0  0  0  0  0  0  0  0  0  0
   37.0560   24.9410   42.1850 C   0  0  0  0  0  0  0  0  0  0  0  0
   36.6840   24.0900   41.1960 N   0  0  0  0  0  0  0  0  0  0  0  0
   36.4060   24.5720   39.9850 C   0  0  0  0  0  0  0  0  0  0  0  0
   36.4630   25.8740   39.6400 N   0  0  0  0  0  0  0  0  0  0  0  0
   37.4090   27.0260   42.5790 H   0  0  0  0  0  0  0  0  0  0  0  0
   37.3140   24.7080   43.2210 H   0  0  0  0  0  0  0  0  0  0  0  0
   36.1190   23.7980   39.2740 H   0  0  0  0  0  0  0  0  0  0  0  0
   37.1860   32.2100   39.3000 C   0  0  0  0  0  0  0  0  0  0  0  0
   37.1840   32.5020   38.0820 O   0  0  0  0  0  0  0  0  0  0  0  0
   38.8030   34.1510   41.6430 H   0  0  0  0  0  0  0  0  0  0  0  0
   38.6270   33.4430   40.8210 C   0  0  0  0  0  0  0  0  0  0  0  0
   39.6480   32.9210   40.3040 O   0  0  0  0  0  0  0  0  0  0  0  0
   37.2920   33.1440   40.3760 N   0  0  0  0  0  0  0  0  0  0  0  0
   36.5090   33.6150   40.8540 H   0  0  0  0  0  0  0  0  0  0  0  0
  1  6  2  0  0  0  0
  1  2  1  0  0  0  0
  2  3  2  0  0  0  0
  3  4  1  0  0  0  0
  3  8  1  0  0  0  0
  5  9  1  0  0  0  0
  5  4  2  0  0  0  0
  6  5  1  0  0  0  0
  7  1  1  0  0  0  0
  9 10  1  0  0  0  0
 10 11  2  0  0  0  0
 10 15  1  0  0  0  0
 11 16  1  0  0  0  0
 12 11  1  0  0  0  0
 13 12  2  0  0  0  0
 14 13  1  0  0  0  0
 14  9  2  0  0  0  0
 17 13  1  0  0  0  0
 18  2  1  0  0  0  0
 18 23  1  0  0  0  0
 19 18  2  0  0  0  0
 21 20  1  0  0  0  0
 22 21  2  0  0  0  0
 23 21  1  0  0  0  0
 23 24  1  0  0  0  0
M  END
>  <minimizedAffinity>
-4.7588048

$$$$

 OpenBabel03252500493D

 24 25  0  0  0  0  0  0  0  0999 V2000
   38.8220   30.2070   39.7800 C   0  0  0  0  0  0  0  0  0  0  0  0
   37.6820   30.8820   40.1900 C   0  0  0  0  0  0  0  0  0  0  0  0
   36.9300   30.4140   41.2590 C   0  0  0  0  0  0  0  0  0  0  0  0
   37.3820   29.2660   41.8650 N   0  0  0  0  0  0  0  0  0  0  0  0
   38.4740   28.6230   41.4670 C   0  0  0  0  0  0  0  0  0  0  0  0
   39.1880   29.0900   40.4340 N   0  0  0  0  0  0  0  0  0  0  0  0
   39.4440   30.5320   38.9510 H   0  0  0  0  0  0  0  0  0  0  0  0
   36.0370   30.9190   41.6010 H   0  0  0  0  0  0  0  0  0  0  0  0
   38.9110   27.4110   42.1420 C   0  0  0  0  0  0  0  0  0  0  0  0
   38.3740   26.1930   41.8700 C   0  0  0  0  0  0  0  0  0  0  0  0
   38.7650   25.0280   42.4890 C   0  0  0  0  0  0  0  0  0  0  0  0
   39.7460   25.1440   43.4200 N   0  0  0  0  0  0  0  0  0  0  0  0
   40.2670   26.3430   43.6790 C   0  0  0  0  0  0  0  0  0  0  0  0
   39.8950   27.4920   43.0820 N   0  0  0  0  0  0  0  0  0  0  0  0
   37.5950   26.1930   41.1110 H   0  0  0  0  0  0  0  0  0  0  0  0
   38.2410   24.1270   42.1630 H   0  0  0  0  0  0  0  0  0  0  0  0
   41.0440   26.3140   44.4420 H   0  0  0  0  0  0  0  0  0  0  0  0
   37.2920   32.0880   39.4780 C   0  0  0  0  0  0  0  0  0  0  0  0
   37.0540   31.9970   38.2520 O   0  0  0  0  0  0  0  0  0  0  0  0
   38.4530   35.0020   40.9030 H   0  0  0  0  0  0  0  0  0  0  0  0
   38.4210   34.0640   40.3310 C   0  0  0  0  0  0  0  0  0  0  0  0
   39.4890   33.7200   39.7610 O   0  0  0  0  0  0  0  0  0  0  0  0
   37.2130   33.2880   40.2500 N   0  0  0  0  0  0  0  0  0  0  0  0
   36.3810   33.6400   40.7470 H   0  0  0  0  0  0  0  0  0  0  0  0
  1  2  2  0  0  0  0
  1  6  1  0  0  0  0
  2  3  1  0  0  0  0
  3  8  1  0  0  0  0
  3  4  2  0  0  0  0
  5  4  1  0  0  0  0
  5  9  1  0  0  0  0
  6  5  2  0  0  0  0
  7  1  1  0  0  0  0
  9 14  1  0  0  0  0
 10  9  2  0  0  0  0
 10 11  1  0  0  0  0
 11 12  2  0  0  0  0
 12 13  1  0  0  0  0
 13 17  1  0  0  0  0
 14 13  2  0  0  0  0
 15 10  1  0  0  0  0
 16 11  1  0  0  0  0
 18  2  1  0  0  0  0
 18 23  1  0  0  0  0
 19 18  2  0  0  0  0
 21 20  1  0  0  0  0
 22 21  2  0  0  0  0
 23 21  1  0  0  0  0
 23 24  1  0  0  0  0
M  END
>  <minimizedAffinity>
-4.7559824

$$$$

 OpenBabel03252500493D

 24 25  0  0  0  0  0  0  0  0999 V2000
   38.6130   29.8470   39.6720 C   0  0  0  0  0  0  0  0  0  0  0  0
   37.5980   30.6160   40.2220 C   0  0  0  0  0  0  0  0  0  0  0  0
   36.9820   30.2310   41.4050 C   0  0  0  0  0  0  0  0  0  0  0  0
   37.4360   29.0670   41.9770 N   0  0  0  0  0  0  0  0  0  0  0  0
   38.4090   28.3340   41.4450 C   0  0  0  0  0  0  0  0  0  0  0  0
   38.9920   28.7220   40.3030 N   0  0  0  0  0  0  0  0  0  0  0  0
   39.1270   30.1050   38.7510 H   0  0  0  0  0  0  0  0  0  0  0  0
   36.1880   30.8100   41.8560 H   0  0  0  0  0  0  0  0  0  0  0  0
   38.8530   27.1080   42.0890 C   0  0  0  0  0  0  0  0  0  0  0  0
   39.8160   27.0980   43.0480 C   0  0  0  0  0  0  0  0  0  0  0  0
   40.2580   25.9560   43.6770 C   0  0  0  0  0  0  0  0  0  0  0  0
   39.6740   24.7940   43.2890 N   0  0  0  0  0  0  0  0  0  0  0  0
   38.7300   24.8150   42.3490 C   0  0  0  0  0  0  0  0  0  0  0  0
   38.2870   25.9240   41.7240 N   0  0  0  0  0  0  0  0  0  0  0  0
   40.2290   28.0730   43.2960 H   0  0  0  0  0  0  0  0  0  0  0  0
   41.0380   26.1080   44.4270 H   0  0  0  0  0  0  0  0  0  0  0  0
   38.3350   23.8260   42.1200 H   0  0  0  0  0  0  0  0  0  0  0  0
   37.1940   31.8320   39.5330 C   0  0  0  0  0  0  0  0  0  0  0  0
   36.9140   31.7530   38.3160 O   0  0  0  0  0  0  0  0  0  0  0  0
   38.4240   34.7240   40.9440 H   0  0  0  0  0  0  0  0  0  0  0  0
   38.3660   33.7920   40.3650 C   0  0  0  0  0  0  0  0  0  0  0  0
   39.4120   33.4450   39.7570 O   0  0  0  0  0  0  0  0  0  0  0  0
   37.1500   33.0240   40.3190 N   0  0  0  0  0  0  0  0  0  0  0  0
   36.3380   33.3780   40.8460 H   0  0  0  0  0  0  0  0  0  0  0  0
  1  2  2  0  0  0  0
  1  6  1  0  0  0  0
  2  3  1  0  0  0  0
  3  8  1  0  0  0  0
  3  4  2  0  0  0  0
  5  4  1  0  0  0  0
  5  9  1  0  0  0  0
  6  5  2  0  0  0  0
  7  1  1  0  0  0  0
  9 10  1  0  0  0  0
 10 15  1  0  0  0  0
 10 11  2  0  0  0  0
 11 16  1  0  0  0  0
 12 11  1  0  0  0  0
 13 12  2  0  0  0  0
 14  9  2  0  0  0  0
 14 13  1  0  0  0  0
 17 13  1  0  0  0  0
 18  2  1  0  0  0  0
 18 23  1  0  0  0  0
 19 18  2  0  0  0  0
 21 20  1  0  0  0  0
 22 21  2  0  0  0  0
 23 21  1  0  0  0  0
 23 24  1  0  0  0  0
M  END
>  <minimizedAffinity>
-4.74146271

$$$$

 OpenBabel03252500493D

 24 25  0  0  0  0  0  0  0  0999 V2000
   38.3160   27.6850   40.4470 C   0  0  0  0  0  0  0  0  0  0  0  0
   37.7640   27.2810   41.6530 C   0  0  0  0  0  0  0  0  0  0  0  0
   37.2720   28.2170   42.5530 C   0  0  0  0  0  0  0  0  0  0  0  0
   37.3690   29.5340   42.1760 N   0  0  0  0  0  0  0  0  0  0  0  0
   37.9010   29.9160   41.0190 C   0  0  0  0  0  0  0  0  0  0  0  0
   38.3700   28.9980   40.1620 N   0  0  0  0  0  0  0  0  0  0  0  0
   38.7140   26.9940   39.7090 H   0  0  0  0  0  0  0  0  0  0  0  0
   36.8360   27.9300   43.5010 H   0  0  0  0  0  0  0  0  0  0  0  0
   37.9810   31.3240   40.6670 C   0  0  0  0  0  0  0  0  0  0  0  0
   37.1160   31.9070   39.7960 C   0  0  0  0  0  0  0  0  0  0  0  0
   37.1650   33.2360   39.4430 C   0  0  0  0  0  0  0  0  0  0  0  0
   38.1490   33.9740   40.0170 N   0  0  0  0  0  0  0  0  0  0  0  0
   38.9920   33.3930   40.8700 C   0  0  0  0  0  0  0  0  0  0  0  0
   38.9570   32.0940   41.2260 N   0  0  0  0  0  0  0  0  0  0  0  0
   36.3610   31.2430   39.3840 H   0  0  0  0  0  0  0  0  0  0  0  0
   36.4010   33.5590   38.7320 H   0  0  0  0  0  0  0  0  0  0  0  0
   39.7380   34.0810   41.2670 H   0  0  0  0  0  0  0  0  0  0  0  0
   37.7110   25.8590   41.9530 C   0  0  0  0  0  0  0  0  0  0  0  0
   36.6880   25.4160   42.5250 O   0  0  0  0  0  0  0  0  0  0  0  0
   40.8010   24.3840   42.3290 H   0  0  0  0  0  0  0  0  0  0  0  0
   39.8920   24.9630   42.5420 C   0  0  0  0  0  0  0  0  0  0  0  0
   39.8270   25.5050   43.6760 O   0  0  0  0  0  0  0  0  0  0  0  0
   38.8450   25.0820   41.5630 N   0  0  0  0  0  0  0  0  0  0  0  0
   38.9770   24.6080   40.6580 H   0  0  0  0  0  0  0  0  0  0  0  0
  1  2  1  0  0  0  0
  2 18  1  0  0  0  0
  2  3  2  0  0  0  0
  3  8  1  0  0  0  0
  4  3  1  0  0  0  0
  5  4  2  0  0  0  0
  6  1  2  0  0  0  0
  6  5  1  0  0  0  0
  7  1  1  0  0  0  0
  9  5  1  0  0  0  0
  9 14  1  0  0  0  0
 10  9  2  0  0  0  0
 11 10  1  0  0  0  0
 11 12  2  0  0  0  0
 12 13  1  0  0  0  0
 13 14  2  0  0  0  0
 13 17  1  0  0  0  0
 15 10  1  0  0  0  0
 16 11  1  0  0  0  0
 18 19  2  0  0  0  0
 20 21  1  0  0  0  0
 21 22  2  0  0  0  0
 23 18  1  0  0  0  0
 23 21  1  0  0  0  0
 24 23  1  0  0  0  0
M  END
>  <minimizedAffinity>
-4.50840759

$$$$

 OpenBabel03252500493D

 24 25  0  0  0  0  0  0  0  0999 V2000
   39.2320   30.1730   40.8610 C   0  0  0  0  0  0  0  0  0  0  0  0
   38.0010   30.7930   41.0070 C   0  0  0  0  0  0  0  0  0  0  0  0
   37.8150   32.1030   40.5860 C   0  0  0  0  0  0  0  0  0  0  0  0
   38.9070   32.7240   40.0300 N   0  0  0  0  0  0  0  0  0  0  0  0
   40.0860   32.1250   39.8930 C   0  0  0  0  0  0  0  0  0  0  0  0
   40.2460   30.8600   40.3050 N   0  0  0  0  0  0  0  0  0  0  0  0
   39.4290   29.1510   41.1740 H   0  0  0  0  0  0  0  0  0  0  0  0
   36.8660   32.6120   40.6870 H   0  0  0  0  0  0  0  0  0  0  0  0
   41.2120   32.8260   39.2980 C   0  0  0  0  0  0  0  0  0  0  0  0
   41.2510   33.1550   37.9800 C   0  0  0  0  0  0  0  0  0  0  0  0
   42.3010   33.8180   37.3880 C   0  0  0  0  0  0  0  0  0  0  0  0
   43.3380   34.1460   38.1990 N   0  0  0  0  0  0  0  0  0  0  0  0
   43.2900   33.8200   39.4900 C   0  0  0  0  0  0  0  0  0  0  0  0
   42.2700   33.1710   40.0850 N   0  0  0  0  0  0  0  0  0  0  0  0
   40.3790   32.8530   37.4050 H   0  0  0  0  0  0  0  0  0  0  0  0
   42.1870   34.0120   36.3180 H   0  0  0  0  0  0  0  0  0  0  0  0
   44.1760   34.1330   40.0420 H   0  0  0  0  0  0  0  0  0  0  0  0
   36.9100   30.0440   41.6100 C   0  0  0  0  0  0  0  0  0  0  0  0
   37.1810   29.2670   42.5540 O   0  0  0  0  0  0  0  0  0  0  0  0
   34.2410   29.4990   39.5010 H   0  0  0  0  0  0  0  0  0  0  0  0
   35.2250   29.4020   39.9800 C   0  0  0  0  0  0  0  0  0  0  0  0
   35.9820   28.5040   39.5270 O   0  0  0  0  0  0  0  0  0  0  0  0
   35.6080   30.2650   41.0660 N   0  0  0  0  0  0  0  0  0  0  0  0
   34.9290   30.9750   41.3770 H   0  0  0  0  0  0  0  0  0  0  0  0
  1  2  1  0  0  0  0
  1  7  1  0  0  0  0
  2 18  1  0  0  0  0
  3  8  1  0  0  0  0
  3  2  2  0  0  0  0
  4  3  1  0  0  0  0
  5  4  2  0  0  0  0
  5  6  1  0  0  0  0
  6  1  2  0  0  0  0
  9  5  1  0  0  0  0
  9 14  1  0  0  0  0
 10  9  2  0  0  0  0
 11 10  1  0  0  0  0
 11 12  2  0  0  0  0
 12 13  1  0  0  0  0
 13 17  1  0  0  0  0
 13 14  2  0  0  0  0
 15 10  1  0  0  0  0
 16 11  1  0  0  0  0
 18 19  2  0  0  0  0
 20 21  1  0  0  0  0
 21 23  1  0  0  0  0
 22 21  2  0  0  0  0
 23 24  1  0  0  0  0
 23 18  1  0  0  0  0
M  END
>  <minimizedAffinity>
-4.45790815

$$$$

 OpenBabel03252500493D

 24 25  0  0  0  0  0  0  0  0999 V2000
   39.5530   26.6290   41.5490 C   0  0  0  0  0  0  0  0  0  0  0  0
   38.5270   25.9740   42.2130 C   0  0  0  0  0  0  0  0  0  0  0  0
   37.3680   26.6520   42.5660 C   0  0  0  0  0  0  0  0  0  0  0  0
   37.3110   27.9810   42.2200 N   0  0  0  0  0  0  0  0  0  0  0  0
   38.2980   28.6040   41.5850 C   0  0  0  0  0  0  0  0  0  0  0  0
   39.4090   27.9330   41.2510 N   0  0  0  0  0  0  0  0  0  0  0  0
   40.4790   26.1450   41.2500 H   0  0  0  0  0  0  0  0  0  0  0  0
   36.5520   26.1670   43.0850 H   0  0  0  0  0  0  0  0  0  0  0  0
   38.1890   30.0120   41.2420 C   0  0  0  0  0  0  0  0  0  0  0  0
   39.2130   30.8860   41.4210 C   0  0  0  0  0  0  0  0  0  0  0  0
   39.1430   32.2240   41.1060 C   0  0  0  0  0  0  0  0  0  0  0  0
   37.9650   32.6570   40.5900 N   0  0  0  0  0  0  0  0  0  0  0  0
   36.9660   31.7920   40.4170 C   0  0  0  0  0  0  0  0  0  0  0  0
   37.0200   30.4800   40.7200 N   0  0  0  0  0  0  0  0  0  0  0  0
   40.1190   30.4540   41.8400 H   0  0  0  0  0  0  0  0  0  0  0  0
   40.0500   32.8000   41.3070 H   0  0  0  0  0  0  0  0  0  0  0  0
   36.0720   32.2520   39.9970 H   0  0  0  0  0  0  0  0  0  0  0  0
   38.6920   24.5650   42.5310 C   0  0  0  0  0  0  0  0  0  0  0  0
   39.6710   24.2310   43.2370 O   0  0  0  0  0  0  0  0  0  0  0  0
   37.2860   22.4270   40.2240 H   0  0  0  0  0  0  0  0  0  0  0  0
   37.9870   23.1220   40.7060 C   0  0  0  0  0  0  0  0  0  0  0  0
   39.0320   23.4000   40.0610 O   0  0  0  0  0  0  0  0  0  0  0  0
   37.7070   23.6730   42.0050 N   0  0  0  0  0  0  0  0  0  0  0  0
   36.8280   23.3940   42.4660 H   0  0  0  0  0  0  0  0  0  0  0  0
  1  2  1  0  0  0  0
  2 18  1  0  0  0  0
  2  3  2  0  0  0  0
  3  8  1  0  0  0  0
  4  3  1  0  0  0  0
  5  4  2  0  0  0  0
  6  1  2  0  0  0  0
  6  5  1  0  0  0  0
  7  1  1  0  0  0  0
  9 10  1  0  0  0  0
  9  5  1  0  0  0  0
 10 15  1  0  0  0  0
 11 16  1  0  0  0  0
 11 10  2  0  0  0  0
 12 11  1  0  0  0  0
 13 12  2  0  0  0  0
 13 14  1  0  0  0  0
 14  9  2  0  0  0  0
 17 13  1  0  0  0  0
 18 19  2  0  0  0  0
 20 21  1  0  0  0  0
 21 23  1  0  0  0  0
 22 21  2  0  0  0  0
 23 24  1  0  0  0  0
 23 18  1  0  0  0  0
M  END
>  <minimizedAffinity>
-4.39739323

$$$$

 OpenBabel03252500493D

 24 25  0  0  0  0  0  0  0  0999 V2000
   37.4850   30.4340   41.4690 C   0  0  0  0  0  0  0  0  0  0  0  0
   37.3940   31.0030   40.2080 C   0  0  0  0  0  0  0  0  0  0  0  0
   37.1530   30.2110   39.0920 C   0  0  0  0  0  0  0  0  0  0  0  0
   37.0140   28.8640   39.3210 N   0  0  0  0  0  0  0  0  0  0  0  0
   37.1020   28.3240   40.5320 C   0  0  0  0  0  0  0  0  0  0  0  0
   37.3350   29.1040   41.5970 N   0  0  0  0  0  0  0  0  0  0  0  0
   37.6720   31.0090   42.3720 H   0  0  0  0  0  0  0  0  0  0  0  0
   37.0780   30.6270   38.0970 H   0  0  0  0  0  0  0  0  0  0  0  0
   36.9480   26.8910   40.7210 C   0  0  0  0  0  0  0  0  0  0  0  0
   37.1610   26.2880   41.9200 C   0  0  0  0  0  0  0  0  0  0  0  0
   37.0230   24.9360   42.1320 C   0  0  0  0  0  0  0  0  0  0  0  0
   36.6520   24.1950   41.0570 N   0  0  0  0  0  0  0  0  0  0  0  0
   36.4450   24.7950   39.8860 C   0  0  0  0  0  0  0  0  0  0  0  0
   36.5760   26.1180   39.6630 N   0  0  0  0  0  0  0  0  0  0  0  0
   37.4560   26.9570   42.7260 H   0  0  0  0  0  0  0  0  0  0  0  0
   37.2290   24.5990   43.1510 H   0  0  0  0  0  0  0  0  0  0  0  0
   36.1520   24.1030   39.0980 H   0  0  0  0  0  0  0  0  0  0  0  0
   37.5580   32.4420   40.0780 C   0  0  0  0  0  0  0  0  0  0  0  0
   36.9160   33.0280   39.1770 O   0  0  0  0  0  0  0  0  0  0  0  0
   40.5790   33.6250   41.2370 H   0  0  0  0  0  0  0  0  0  0  0  0
   39.8240   33.1580   40.5900 C   0  0  0  0  0  0  0  0  0  0  0  0
   40.2310   32.7160   39.4840 O   0  0  0  0  0  0  0  0  0  0  0  0
   38.4490   33.0680   41.0030 N   0  0  0  0  0  0  0  0  0  0  0  0
   38.1980   33.4540   41.9250 H   0  0  0  0  0  0  0  0  0  0  0  0
  1  6  1  0  0  0  0
  1  7  1  0  0  0  0
  2  1  2  0  0  0  0
  3  4  2  0  0  0  0
  3  2  1  0  0  0  0
  4  5  1  0  0  0  0
  5  9  1  0  0  0  0
  5  6  2  0  0  0  0
  8  3  1  0  0  0  0
  9 10  1  0  0  0  0
 10 11  2  0  0  0  0
 10 15  1  0  0  0  0
 11 16  1  0  0  0  0
 12 11  1  0  0  0  0
 13 12  2  0  0  0  0
 14 13  1  0  0  0  0
 14  9  2  0  0  0  0
 17 13  1  0  0  0  0
 18  2  1  0  0  0  0
 18 23  1  0  0  0  0
 19 18  2  0  0  0  0
 21 23  1  0  0  0  0
 21 20  1  0  0  0  0
 22 21  2  0  0  0  0
 23 24  1  0  0  0  0
M  END
>  <minimizedAffinity>
-4.35988092

$$$$

 OpenBabel03252500493D

 24 25  0  0  0  0  0  0  0  0999 V2000
   37.8540   30.0130   40.3070 C   0  0  0  0  0  0  0  0  0  0  0  0
   38.4840   30.8650   41.2010 C   0  0  0  0  0  0  0  0  0  0  0  0
   39.0670   30.3680   42.3590 C   0  0  0  0  0  0  0  0  0  0  0  0
   38.9790   29.0100   42.5500 N   0  0  0  0  0  0  0  0  0  0  0  0
   38.3740   28.1980   41.6900 C   0  0  0  0  0  0  0  0  0  0  0  0
   37.8160   28.6960   40.5770 N   0  0  0  0  0  0  0  0  0  0  0  0
   37.3830   30.3510   39.3880 H   0  0  0  0  0  0  0  0  0  0  0  0
   39.5650   31.0090   43.0740 H   0  0  0  0  0  0  0  0  0  0  0  0
   38.3070   26.7670   41.9390 C   0  0  0  0  0  0  0  0  0  0  0  0
   37.1550   26.0590   41.8070 C   0  0  0  0  0  0  0  0  0  0  0  0
   37.0580   24.7050   42.0330 C   0  0  0  0  0  0  0  0  0  0  0  0
   38.2010   24.0770   42.4100 N   0  0  0  0  0  0  0  0  0  0  0  0
   39.3260   24.7800   42.5360 C   0  0  0  0  0  0  0  0  0  0  0  0
   39.4360   26.1060   42.3180 N   0  0  0  0  0  0  0  0  0  0  0  0
   36.2890   26.6420   41.5020 H   0  0  0  0  0  0  0  0  0  0  0  0
   36.0640   24.2760   41.8850 H   0  0  0  0  0  0  0  0  0  0  0  0
   40.1760   24.1730   42.8430 H   0  0  0  0  0  0  0  0  0  0  0  0
   38.5190   32.2880   40.9010 C   0  0  0  0  0  0  0  0  0  0  0  0
   37.5360   32.7890   40.3110 O   0  0  0  0  0  0  0  0  0  0  0  0
   41.6970   33.5800   40.5850 H   0  0  0  0  0  0  0  0  0  0  0  0
   40.7600   33.0550   40.3540 C   0  0  0  0  0  0  0  0  0  0  0  0
   40.6850   32.5180   39.2190 O   0  0  0  0  0  0  0  0  0  0  0  0
   39.6900   32.9970   41.3130 N   0  0  0  0  0  0  0  0  0  0  0  0
   39.8320   33.4630   42.2220 H   0  0  0  0  0  0  0  0  0  0  0  0
  1  6  2  0  0  0  0
  1  2  1  0  0  0  0
  2  3  2  0  0  0  0
  3  4  1  0  0  0  0
  3  8  1  0  0  0  0
  5  9  1  0  0  0  0
  5  4  2  0  0  0  0
  6  5  1  0  0  0  0
  7  1  1  0  0  0  0
  9 14  1  0  0  0  0
 10  9  2  0  0  0  0
 10 11  1  0  0  0  0
 11 12  2  0  0  0  0
 12 13  1  0  0  0  0
 13 17  1  0  0  0  0
 14 13  2  0  0  0  0
 15 10  1  0  0  0  0
 16 11  1  0  0  0  0
 18  2  1  0  0  0  0
 18 23  1  0  0  0  0
 19 18  2  0  0  0  0
 21 20  1  0  0  0  0
 21 23  1  0  0  0  0
 22 21  2  0  0  0  0
 23 24  1  0  0  0  0
M  END
>  <minimizedAffinity>
-4.33461475

$$$$

 OpenBabel03252500493D

 24 25  0  0  0  0  0  0  0  0999 V2000
   37.2860   31.3780   38.3630 C   0  0  0  0  0  0  0  0  0  0  0  0
   37.1020   31.8940   39.6360 C   0  0  0  0  0  0  0  0  0  0  0  0
   36.6020   31.0960   40.6570 C   0  0  0  0  0  0  0  0  0  0  0  0
   36.3120   29.7950   40.3250 N   0  0  0  0  0  0  0  0  0  0  0  0
   36.4900   29.3050   39.1030 C   0  0  0  0  0  0  0  0  0  0  0  0
   36.9740   30.0900   38.1300 N   0  0  0  0  0  0  0  0  0  0  0  0
   37.6740   31.9590   37.5310 H   0  0  0  0  0  0  0  0  0  0  0  0
   36.4470   31.4720   41.6590 H   0  0  0  0  0  0  0  0  0  0  0  0
   36.1660   27.9200   38.8020 C   0  0  0  0  0  0  0  0  0  0  0  0
   36.6680   26.8820   39.5220 C   0  0  0  0  0  0  0  0  0  0  0  0
   36.3810   25.5620   39.2640 C   0  0  0  0  0  0  0  0  0  0  0  0
   35.5450   25.3220   38.2210 N   0  0  0  0  0  0  0  0  0  0  0  0
   35.0570   26.3460   37.5220 C   0  0  0  0  0  0  0  0  0  0  0  0
   35.3290   27.6440   37.7630 N   0  0  0  0  0  0  0  0  0  0  0  0
   37.3290   27.1660   40.3370 H   0  0  0  0  0  0  0  0  0  0  0  0
   36.8600   24.8400   39.9300 H   0  0  0  0  0  0  0  0  0  0  0  0
   34.4000   26.0340   36.7120 H   0  0  0  0  0  0  0  0  0  0  0  0
   37.4410   33.2870   39.8790 C   0  0  0  0  0  0  0  0  0  0  0  0
   36.8730   34.1610   39.1860 O   0  0  0  0  0  0  0  0  0  0  0  0
   40.5890   33.7590   41.1980 H   0  0  0  0  0  0  0  0  0  0  0  0
   39.7800   33.5710   40.4790 C   0  0  0  0  0  0  0  0  0  0  0  0
   40.1250   33.3900   39.2830 O   0  0  0  0  0  0  0  0  0  0  0  0
   38.4050   33.5390   40.9030 N   0  0  0  0  0  0  0  0  0  0  0  0
   38.2070   33.6970   41.9030 H   0  0  0  0  0  0  0  0  0  0  0  0
  1  2  1  0  0  0  0
  2 18  1  0  0  0  0
  2  3  2  0  0  0  0
  3  8  1  0  0  0  0
  4  3  1  0  0  0  0
  5  4  2  0  0  0  0
  6  1  2  0  0  0  0
  6  5  1  0  0  0  0
  7  1  1  0  0  0  0
  9  5  1  0  0  0  0
  9 10  1  0  0  0  0
 10 15  1  0  0  0  0
 11 10  2  0  0  0  0
 11 16  1  0  0  0  0
 12 11  1  0  0  0  0
 13 14  1  0  0  0  0
 13 12  2  0  0  0  0
 14  9  2  0  0  0  0
 17 13  1  0  0  0  0
 18 23  1  0  0  0  0
 19 18  2  0  0  0  0
 21 23  1  0  0  0  0
 21 20  1  0  0  0  0
 22 21  2  0  0  0  0
 23 24  1  0  0  0  0
M  END
>  <minimizedAffinity>
-4.25750065

$$$$
