
 OpenBabel03252504253D

 18 18  0  0  0  0  0  0  0  0999 V2000
   44.4290   35.6310   44.5700 C   0  0  0  0  0  0  0  0  0  0  0  0
   44.8020   34.9920   43.3930 C   0  0  0  0  0  0  0  0  0  0  0  0
   45.4880   33.8000   43.5250 C   0  0  0  0  0  0  0  0  0  0  0  0
   45.7420   33.3500   44.7590 N   0  0  0  0  0  0  0  0  0  0  0  0
   45.3720   33.9860   45.8810 C   0  0  0  0  0  0  0  0  0  0  0  0
   44.6910   35.1660   45.8130 N   0  0  0  0  0  0  0  0  0  0  0  0
   43.8870   36.5720   44.5670 H   0  0  0  0  0  0  0  0  0  0  0  0
   45.7610   33.3320   42.5970 H   0  0  0  0  0  0  0  0  0  0  0  0
   45.7020   33.4050   46.7460 H   0  0  0  0  0  0  0  0  0  0  0  0
   44.4100   35.6800   42.1530 C   0  0  0  0  0  0  0  0  0  0  0  0
   44.0060   36.6930   42.3830 H   0  0  0  0  0  0  0  0  0  0  0  0
   45.3760   35.9000   41.6110 H   0  0  0  0  0  0  0  0  0  0  0  0
   43.5140   34.9500   41.3810 O   0  0  0  0  0  0  0  0  0  0  0  0
   42.2020   35.3300   41.1310 C   0  0  0  0  0  0  0  0  0  0  0  0
   41.8110   35.4070   39.9330 O   0  0  0  0  0  0  0  0  0  0  0  0
   41.4860   35.5800   42.3600 N   0  0  0  0  0  0  0  0  0  0  0  0
   40.9110   34.7010   42.2910 H   0  0  0  0  0  0  0  0  0  0  0  0
   41.6520   36.4180   42.9540 H   0  0  0  0  0  0  0  0  0  0  0  0
  1  6  1  0  0  0  0
  2  3  1  0  0  0  0
  2  1  2  0  0  0  0
  3  4  2  0  0  0  0
  4  5  1  0  0  0  0
  5  9  1  0  0  0  0
  6  5  2  0  0  0  0
  7  1  1  0  0  0  0
  8  3  1  0  0  0  0
 10 11  1  0  0  0  0
 10  2  1  0  0  0  0
 12 10  1  0  0  0  0
 13 10  1  0  0  0  0
 14 13  1  0  0  0  0
 14 16  1  0  0  0  0
 15 14  2  0  0  0  0
 16 18  1  0  0  0  0
 17 16  1  0  0  0  0
M  END
>  <minimizedAffinity>
-3.57197142

>  <minimizedRMSD>
0.789666891

$$$$
