
 OpenBabel03252508013D

 25 26  0  0  1  0  0  0  0  0999 V2000
   46.2620   34.7400   43.2330 C   0  0  0  0  0  0  0  0  0  0  0  0
   45.3010   35.7370   43.5740 C   0  0  0  0  0  0  0  0  0  0  0  0
   44.6530   35.5530   44.7920 C   0  0  0  0  0  0  0  0  0  0  0  0
   44.9590   34.4800   45.5550 N   0  0  0  0  0  0  0  0  0  0  0  0
   45.8990   33.5550   45.1610 C   0  0  0  0  0  0  0  0  0  0  0  0
   46.5470   33.6710   44.0220 N   0  0  0  0  0  0  0  0  0  0  0  0
   45.1280   36.5590   42.8950 H   0  0  0  0  0  0  0  0  0  0  0  0
   43.9190   36.2830   45.0900 H   0  0  0  0  0  0  0  0  0  0  0  0
   46.1870   32.4140   46.0720 C   0  0  1  0  0  0  0  0  0  0  0  0
   47.0210   32.6700   47.3100 C   0  0  0  0  0  0  0  0  0  0  0  0
   45.5310   32.4930   47.3930 C   0  0  1  0  0  0  0  0  0  0  0  0
   46.3190   31.4240   45.5960 H   0  0  0  0  0  0  0  0  0  0  0  0
   47.4630   33.6870   47.3210 H   0  0  0  0  0  0  0  0  0  0  0  0
   47.6390   31.8290   47.6750 H   0  0  0  0  0  0  0  0  0  0  0  0
   45.1760   31.6260   47.9600 H   0  0  0  0  0  0  0  0  0  0  0  0
   44.8640   33.7400   47.7910 N   0  0  0  0  0  0  0  0  0  0  0  0
   43.9860   33.5390   48.3460 H   0  0  0  0  0  0  0  0  0  0  0  0
   45.4790   34.2580   48.4600 H   0  0  0  0  0  0  0  0  0  0  0  0
   46.9480   34.9420   41.9730 C   0  0  0  0  0  0  0  0  0  0  0  0
   48.0650   35.5640   41.8740 O   0  0  0  0  0  0  0  0  0  0  0  0
   46.7890   33.4930   38.8230 H   0  0  0  0  0  0  0  0  0  0  0  0
   47.2540   33.8120   39.7420 C   0  0  0  0  0  0  0  0  0  0  0  0
   48.4760   33.6350   40.0040 O   0  0  0  0  0  0  0  0  0  0  0  0
   46.4530   34.4710   40.7190 N   0  0  0  0  0  0  0  0  0  0  0  0
   45.4390   34.6490   40.5640 H   0  0  0  0  0  0  0  0  0  0  0  0
  1  2  2  0  0  0  0
  1  6  1  0  0  0  0
  2  3  1  0  0  0  0
  3  8  1  0  0  0  0
  3  4  2  0  0  0  0
  5  4  1  0  0  0  0
  5  9  1  0  0  0  0
  6  5  2  0  0  0  0
  7  2  1  0  0  0  0
  9 12  1  6  0  0  0
  9 10  1  0  0  0  0
  9 11  1  0  0  0  0
 10 13  1  0  0  0  0
 10 11  1  0  0  0  0
 10 14  1  0  0  0  0
 11 16  1  0  0  0  0
 11 15  1  1  0  0  0
 16 17  1  0  0  0  0
 16 18  1  0  0  0  0
 19  1  1  0  0  0  0
 20 19  2  0  0  0  0
 21 22  1  0  0  0  0
 22 23  2  0  0  0  0
 22 24  1  0  0  0  0
 24 19  1  0  0  0  0
 25 24  1  0  0  0  0
M  END
>  <minimizedAffinity>
-5.32314062

>  <minimizedRMSD>
0.0611374192

$$$$
