
 OpenBabel03252502283D

 31 32  0  0  0  0  0  0  0  0999 V2000
   45.1630   34.4410   41.2410 C   0  0  0  0  0  0  0  0  0  0  0  0
   45.5550   35.0290   42.4330 C   0  0  0  0  0  0  0  0  0  0  0  0
   46.9180   35.2630   42.6200 C   0  0  0  0  0  0  0  0  0  0  0  0
   47.8340   34.9140   41.6400 C   0  0  0  0  0  0  0  0  0  0  0  0
   47.4470   34.3370   40.4690 C   0  0  0  0  0  0  0  0  0  0  0  0
   46.0850   34.1160   40.3070 C   0  0  0  0  0  0  0  0  0  0  0  0
   44.8140   35.2950   43.1890 H   0  0  0  0  0  0  0  0  0  0  0  0
   47.1810   35.7230   43.5570 H   0  0  0  0  0  0  0  0  0  0  0  0
   48.8860   35.1150   41.8280 H   0  0  0  0  0  0  0  0  0  0  0  0
   48.1390   34.0470   39.6740 H   0  0  0  0  0  0  0  0  0  0  0  0
   45.6560   32.2230   38.5100 C   0  0  0  0  0  0  0  0  0  0  0  0
   46.3090   31.3000   38.9100 O   0  0  0  0  0  0  0  0  0  0  0  0
   45.5770   33.5510   39.1010 N   0  0  0  0  0  0  0  0  0  0  0  0
   45.1120   34.4620   38.7370 H   0  0  0  0  0  0  0  0  0  0  0  0
   45.9380   32.9110   35.1940 H   0  0  0  0  0  0  0  0  0  0  0  0
   45.5310   32.7360   36.2090 C   0  0  0  0  0  0  0  0  0  0  0  0
   46.8010   32.6260   36.1390 O   0  0  0  0  0  0  0  0  0  0  0  0
   44.7630   32.5430   37.4740 N   0  0  0  0  0  0  0  0  0  0  0  0
   44.1350   32.7690   36.7450 H   0  0  0  0  0  0  0  0  0  0  0  0
   41.4670   34.8360   40.5810 C   0  0  0  0  0  0  0  0  0  0  0  0
   42.8290   35.1920   40.6850 C   0  0  0  0  0  0  0  0  0  0  0  0
   43.7300   34.2180   41.0770 C   0  0  0  0  0  0  0  0  0  0  0  0
   43.2430   32.9780   41.3360 N   0  0  0  0  0  0  0  0  0  0  0  0
   41.9400   32.6510   41.2330 C   0  0  0  0  0  0  0  0  0  0  0  0
   41.0430   33.6020   40.8480 N   0  0  0  0  0  0  0  0  0  0  0  0
   43.1950   36.1770   40.4750 H   0  0  0  0  0  0  0  0  0  0  0  0
   41.6040   31.6450   41.4510 H   0  0  0  0  0  0  0  0  0  0  0  0
   40.4810   35.8650   40.1630 C   0  0  0  0  0  0  0  0  0  0  0  0
   39.2520   35.2220   39.9870 F   0  0  0  0  0  0  0  0  0  0  0  0
   40.8510   36.2940   38.9050 F   0  0  0  0  0  0  0  0  0  0  0  0
   40.3590   36.8990   41.0610 F   0  0  0  0  0  0  0  0  0  0  0  0
  1  2  1  0  0  0  0
  2  3  2  0  0  0  0
  2  7  1  0  0  0  0
  3  8  1  0  0  0  0
  4  9  1  0  0  0  0
  4  3  1  0  0  0  0
  5  4  2  0  0  0  0
  6  5  1  0  0  0  0
  6  1  2  0  0  0  0
 10  5  1  0  0  0  0
 11 12  2  0  0  0  0
 11 13  1  0  0  0  0
 13  6  1  0  0  0  0
 14 13  1  0  0  0  0
 15 16  1  0  0  0  0
 16 18  1  0  0  0  0
 17 16  2  0  0  0  0
 18 11  1  0  0  0  0
 19 18  1  0  0  0  0
 20 21  2  0  0  0  0
 20 25  1  0  0  0  0
 21 22  1  0  0  0  0
 22  1  1  0  0  0  0
 22 23  2  0  0  0  0
 24 23  1  0  0  0  0
 24 27  1  0  0  0  0
 25 24  2  0  0  0  0
 26 21  1  0  0  0  0
 28 20  1  0  0  0  0
 28 31  1  0  0  0  0
 29 28  1  0  0  0  0
 30 28  1  0  0  0  0
M  END
>  <minimizedAffinity>
-6.01477814

>  <minimizedRMSD>
0.167584732

$$$$
