
 OpenBabel03252508013D

 25 26  0  0  1  0  0  0  0  0999 V2000
   47.2270   32.0400   44.9880 C   0  0  0  0  0  0  0  0  0  0  0  0
   47.8310   30.8890   44.4000 C   0  0  0  0  0  0  0  0  0  0  0  0
   48.3570   31.0740   43.1250 C   0  0  0  0  0  0  0  0  0  0  0  0
   48.2700   32.2890   42.5370 N   0  0  0  0  0  0  0  0  0  0  0  0
   47.6700   33.3560   43.1650 C   0  0  0  0  0  0  0  0  0  0  0  0
   47.1530   33.2480   44.3710 N   0  0  0  0  0  0  0  0  0  0  0  0
   47.8510   29.9610   44.9520 H   0  0  0  0  0  0  0  0  0  0  0  0
   48.8230   30.2320   42.6430 H   0  0  0  0  0  0  0  0  0  0  0  0
   47.6340   34.6630   42.4520 C   0  0  1  0  0  0  0  0  0  0  0  0
   48.2840   34.7590   41.0870 C   0  0  0  0  0  0  0  0  0  0  0  0
   46.7910   34.6840   41.2390 C   0  0  1  0  0  0  0  0  0  0  0  0
   47.6930   35.5700   43.0820 H   0  0  0  0  0  0  0  0  0  0  0  0
   48.8650   33.8500   40.8290 H   0  0  0  0  0  0  0  0  0  0  0  0
   48.7030   35.7430   40.8050 H   0  0  0  0  0  0  0  0  0  0  0  0
   46.2240   35.5550   40.8960 H   0  0  0  0  0  0  0  0  0  0  0  0
   46.2610   33.4210   40.7100 N   0  0  0  0  0  0  0  0  0  0  0  0
   45.2840   33.5520   40.3250 H   0  0  0  0  0  0  0  0  0  0  0  0
   46.8290   33.1330   39.8800 H   0  0  0  0  0  0  0  0  0  0  0  0
   46.6960   31.8490   46.3220 C   0  0  0  0  0  0  0  0  0  0  0  0
   46.6550   30.7080   46.9060 O   0  0  0  0  0  0  0  0  0  0  0  0
   44.8030   33.6020   48.6450 H   0  0  0  0  0  0  0  0  0  0  0  0
   45.1370   32.7390   48.0910 C   0  0  0  0  0  0  0  0  0  0  0  0
   44.6650   31.5800   48.2530 O   0  0  0  0  0  0  0  0  0  0  0  0
   46.1670   32.9090   47.1210 N   0  0  0  0  0  0  0  0  0  0  0  0
   46.5970   33.8390   46.9400 H   0  0  0  0  0  0  0  0  0  0  0  0
  1 19  1  0  0  0  0
  2  7  1  0  0  0  0
  2  1  1  0  0  0  0
  3  2  2  0  0  0  0
  4  3  1  0  0  0  0
  4  5  2  0  0  0  0
  5  6  1  0  0  0  0
  6  1  2  0  0  0  0
  8  3  1  0  0  0  0
  9 12  1  1  0  0  0
  9  5  1  0  0  0  0
 10 11  1  0  0  0  0
 10  9  1  0  0  0  0
 11 15  1  6  0  0  0
 11  9  1  0  0  0  0
 13 10  1  0  0  0  0
 14 10  1  0  0  0  0
 16 11  1  0  0  0  0
 17 16  1  0  0  0  0
 18 16  1  0  0  0  0
 19 20  2  0  0  0  0
 19 24  1  0  0  0  0
 22 23  2  0  0  0  0
 22 21  1  0  0  0  0
 24 22  1  0  0  0  0
 25 24  1  0  0  0  0
M  END
>  <minimizedAffinity>
-3.80612898

>  <minimizedRMSD>
6.23934603

$$$$
