
 OpenBabel03242513513D

 30 31  0  0  1  0  0  0  0  0999 V2000
   46.4380   35.0150   41.8310 C   0  0  2  0  0  0  0  0  0  0  0  0
   46.3290   33.6450   41.1830 C   0  0  0  0  0  0  0  0  0  0  0  0
   47.1580   33.9030   39.9400 C   0  0  0  0  0  0  0  0  0  0  0  0
   48.2550   34.7810   40.3940 C   0  0  0  0  0  0  0  0  0  0  0  0
   47.9050   35.2260   41.8930 C   0  0  2  0  0  0  0  0  0  0  0  0
   46.0130   35.7740   41.1700 H   0  0  0  0  0  0  0  0  0  0  0  0
   46.8270   32.8800   41.7970 H   0  0  0  0  0  0  0  0  0  0  0  0
   45.3250   33.3650   40.8840 H   0  0  0  0  0  0  0  0  0  0  0  0
   46.5470   34.3490   39.1270 H   0  0  0  0  0  0  0  0  0  0  0  0
   47.6180   32.9290   39.6060 H   0  0  0  0  0  0  0  0  0  0  0  0
   48.2530   35.6960   39.7790 H   0  0  0  0  0  0  0  0  0  0  0  0
   49.2550   34.3560   40.4510 H   0  0  0  0  0  0  0  0  0  0  0  0
   48.4370   36.1320   41.8220 H   0  0  0  0  0  0  0  0  0  0  0  0
   44.4970   36.0660   44.8850 C   0  0  0  0  0  0  0  0  0  0  0  0
   45.0360   36.1290   43.5870 C   0  0  0  0  0  0  0  0  0  0  0  0
   45.8040   35.0820   43.1720 C   0  0  0  0  0  0  0  0  0  0  0  0
   45.9970   34.0440   44.0460 N   0  0  0  0  0  0  0  0  0  0  0  0
   45.4810   33.9940   45.2740 C   0  0  0  0  0  0  0  0  0  0  0  0
   44.7330   35.0020   45.6940 N   0  0  0  0  0  0  0  0  0  0  0  0
   43.8920   36.9460   45.1420 H   0  0  0  0  0  0  0  0  0  0  0  0
   44.8840   36.9390   42.9070 H   0  0  0  0  0  0  0  0  0  0  0  0
   45.6770   33.1390   45.9130 H   0  0  0  0  0  0  0  0  0  0  0  0
   48.5540   34.2780   42.7100 O   0  0  0  0  0  0  0  0  0  0  0  0
   49.5640   33.4200   42.4070 C   0  0  0  0  0  0  0  0  0  0  0  0
   49.1850   32.2360   42.7270 O   0  0  0  0  0  0  0  0  0  0  0  0
   52.4810   32.2190   40.9700 H   0  0  0  0  0  0  0  0  0  0  0  0
   51.4190   32.0870   41.2350 C   0  0  0  0  0  0  0  0  0  0  0  0
   50.6510   31.1300   41.0350 O   0  0  0  0  0  0  0  0  0  0  0  0
   50.8700   33.1810   41.9000 N   0  0  0  0  0  0  0  0  0  0  0  0
   51.4380   34.0250   42.1110 H   0  0  0  0  0  0  0  0  0  0  0  0
  1  6  1  6  0  0  0
  1  5  1  0  0  0  0
  1 16  1  0  0  0  0
  2  7  1  0  0  0  0
  2  1  1  0  0  0  0
  3  4  1  0  0  0  0
  3  2  1  0  0  0  0
  4 12  1  0  0  0  0
  4  5  1  0  0  0  0
  5 13  1  1  0  0  0
  5 23  1  0  0  0  0
  8  2  1  0  0  0  0
  9  3  1  0  0  0  0
 10  3  1  0  0  0  0
 11  4  1  0  0  0  0
 14 20  1  0  0  0  0
 14 19  1  0  0  0  0
 15 14  2  0  0  0  0
 16 15  1  0  0  0  0
 16 17  2  0  0  0  0
 17 18  1  0  0  0  0
 18 19  2  0  0  0  0
 18 22  1  0  0  0  0
 21 15  1  0  0  0  0
 24 23  1  0  0  0  0
 24 25  2  0  0  0  0
 26 27  1  0  0  0  0
 27 29  1  0  0  0  0
 28 27  2  0  0  0  0
 29 30  1  0  0  0  0
 29 24  1  0  0  0  0
M  END
>  <minimizedAffinity>
-5.16904163

>  <minimizedRMSD>
1.59102595

$$$$
