
 OpenBabel03252508013D

 25 26  0  0  1  0  0  0  0  0999 V2000
   46.2910   34.7620   43.2130 C   0  0  0  0  0  0  0  0  0  0  0  0
   45.3660   35.8110   43.4920 C   0  0  0  0  0  0  0  0  0  0  0  0
   44.6660   35.6910   44.6890 C   0  0  0  0  0  0  0  0  0  0  0  0
   44.8960   34.6270   45.4910 N   0  0  0  0  0  0  0  0  0  0  0  0
   45.8050   33.6500   45.1580 C   0  0  0  0  0  0  0  0  0  0  0  0
   46.4980   33.7040   44.0400 N   0  0  0  0  0  0  0  0  0  0  0  0
   45.2550   36.6210   42.7850 H   0  0  0  0  0  0  0  0  0  0  0  0
   43.9570   36.4620   44.9400 H   0  0  0  0  0  0  0  0  0  0  0  0
   46.0080   32.5230   46.1080 C   0  0  1  0  0  0  0  0  0  0  0  0
   46.8090   32.7760   47.3690 C   0  0  0  0  0  0  0  0  0  0  0  0
   45.3100   32.6700   47.4020 C   0  0  1  0  0  0  0  0  0  0  0  0
   46.1090   31.5150   45.6640 H   0  0  0  0  0  0  0  0  0  0  0  0
   47.2970   33.7720   47.3680 H   0  0  0  0  0  0  0  0  0  0  0  0
   47.3740   31.9180   47.7790 H   0  0  0  0  0  0  0  0  0  0  0  0
   44.8960   31.8370   47.9790 H   0  0  0  0  0  0  0  0  0  0  0  0
   44.6880   33.9570   47.7420 N   0  0  0  0  0  0  0  0  0  0  0  0
   43.7830   33.8120   48.2700 H   0  0  0  0  0  0  0  0  0  0  0  0
   45.3030   34.4650   48.4180 H   0  0  0  0  0  0  0  0  0  0  0  0
   47.0310   34.8980   41.9750 C   0  0  0  0  0  0  0  0  0  0  0  0
   48.0210   35.7000   41.8330 O   0  0  0  0  0  0  0  0  0  0  0  0
   45.3070   33.1450   39.5250 H   0  0  0  0  0  0  0  0  0  0  0  0
   45.4310   33.6990   40.4410 C   0  0  0  0  0  0  0  0  0  0  0  0
   44.4810   33.9680   41.2290 O   0  0  0  0  0  0  0  0  0  0  0  0
   46.7340   34.1550   40.7910 N   0  0  0  0  0  0  0  0  0  0  0  0
   47.5600   33.9680   40.1860 H   0  0  0  0  0  0  0  0  0  0  0  0
  1  2  2  0  0  0  0
  1  6  1  0  0  0  0
  2  3  1  0  0  0  0
  3  8  1  0  0  0  0
  3  4  2  0  0  0  0
  5  4  1  0  0  0  0
  5  9  1  0  0  0  0
  6  5  2  0  0  0  0
  7  2  1  0  0  0  0
  9 12  1  6  0  0  0
  9 10  1  0  0  0  0
  9 11  1  0  0  0  0
 10 11  1  0  0  0  0
 10 14  1  0  0  0  0
 11 16  1  0  0  0  0
 11 15  1  1  0  0  0
 13 10  1  0  0  0  0
 16 17  1  0  0  0  0
 16 18  1  0  0  0  0
 19  1  1  0  0  0  0
 20 19  2  0  0  0  0
 21 22  1  0  0  0  0
 22 24  1  0  0  0  0
 22 23  2  0  0  0  0
 24 19  1  0  0  0  0
 25 24  1  0  0  0  0
M  END
>  <minimizedAffinity>
-5.16405296

>  <minimizedRMSD>
0.400336087

$$$$
