
 OpenBabel03252502283D

 31 32  0  0  0  0  0  0  0  0999 V2000
   45.2090   34.3880   41.0910 C   0  0  0  0  0  0  0  0  0  0  0  0
   45.6420   35.0770   42.2120 C   0  0  0  0  0  0  0  0  0  0  0  0
   47.0140   35.3010   42.3420 C   0  0  0  0  0  0  0  0  0  0  0  0
   47.8980   34.8430   41.3770 C   0  0  0  0  0  0  0  0  0  0  0  0
   47.4700   34.1660   40.2760 C   0  0  0  0  0  0  0  0  0  0  0  0
   46.1000   33.9580   40.1690 C   0  0  0  0  0  0  0  0  0  0  0  0
   44.9270   35.4280   42.9570 H   0  0  0  0  0  0  0  0  0  0  0  0
   47.3100   35.8420   43.2240 H   0  0  0  0  0  0  0  0  0  0  0  0
   48.9570   35.0410   41.5180 H   0  0  0  0  0  0  0  0  0  0  0  0
   48.1350   33.7900   39.4950 H   0  0  0  0  0  0  0  0  0  0  0  0
   45.2640   31.8960   38.7390 C   0  0  0  0  0  0  0  0  0  0  0  0
   45.5590   30.9480   39.4110 O   0  0  0  0  0  0  0  0  0  0  0  0
   45.5500   33.2920   39.0350 N   0  0  0  0  0  0  0  0  0  0  0  0
   45.4260   34.1850   38.4290 H   0  0  0  0  0  0  0  0  0  0  0  0
   45.8780   33.9530   36.1050 H   0  0  0  0  0  0  0  0  0  0  0  0
   45.4130   33.2140   36.7860 C   0  0  0  0  0  0  0  0  0  0  0  0
   46.5100   33.7000   37.2250 O   0  0  0  0  0  0  0  0  0  0  0  0
   44.6110   32.2020   37.5340 N   0  0  0  0  0  0  0  0  0  0  0  0
   44.1520   32.4180   36.6860 H   0  0  0  0  0  0  0  0  0  0  0  0
   41.4990   34.8050   40.5300 C   0  0  0  0  0  0  0  0  0  0  0  0
   42.8680   35.1450   40.5720 C   0  0  0  0  0  0  0  0  0  0  0  0
   43.7690   34.1790   40.9840 C   0  0  0  0  0  0  0  0  0  0  0  0
   43.2740   32.9610   41.3210 N   0  0  0  0  0  0  0  0  0  0  0  0
   41.9640   32.6490   41.2770 C   0  0  0  0  0  0  0  0  0  0  0  0
   41.0670   33.5930   40.8740 N   0  0  0  0  0  0  0  0  0  0  0  0
   43.2410   36.1130   40.3010 H   0  0  0  0  0  0  0  0  0  0  0  0
   41.6210   31.6600   41.5570 H   0  0  0  0  0  0  0  0  0  0  0  0
   40.5140   35.8260   40.0920 C   0  0  0  0  0  0  0  0  0  0  0  0
   39.2960   35.1720   39.8810 F   0  0  0  0  0  0  0  0  0  0  0  0
   40.9130   36.2660   38.8460 F   0  0  0  0  0  0  0  0  0  0  0  0
   40.3580   36.8540   40.9920 F   0  0  0  0  0  0  0  0  0  0  0  0
  1  2  1  0  0  0  0
  2  3  2  0  0  0  0
  2  7  1  0  0  0  0
  3  8  1  0  0  0  0
  4  9  1  0  0  0  0
  4  3  1  0  0  0  0
  5  4  2  0  0  0  0
  6  5  1  0  0  0  0
  6  1  2  0  0  0  0
 10  5  1  0  0  0  0
 11 13  1  0  0  0  0
 11 12  2  0  0  0  0
 13  6  1  0  0  0  0
 14 13  1  0  0  0  0
 15 16  1  0  0  0  0
 16 17  2  0  0  0  0
 16 18  1  0  0  0  0
 18 11  1  0  0  0  0
 19 18  1  0  0  0  0
 20 21  2  0  0  0  0
 20 25  1  0  0  0  0
 21 22  1  0  0  0  0
 22  1  1  0  0  0  0
 22 23  2  0  0  0  0
 24 23  1  0  0  0  0
 24 27  1  0  0  0  0
 25 24  2  0  0  0  0
 26 21  1  0  0  0  0
 28 20  1  0  0  0  0
 28 31  1  0  0  0  0
 29 28  1  0  0  0  0
 30 28  1  0  0  0  0
M  END
>  <minimizedAffinity>
-5.95048809

>  <minimizedRMSD>
0.269091845

$$$$
