
 OpenBabel03252507173D

 25 26  0  0  0  0  0  0  0  0999 V2000
   36.6450   30.0150   37.9120 C   0  0  0  0  0  0  0  0  0  0  0  0
   36.7030   29.5730   39.2530 C   0  0  0  0  0  0  0  0  0  0  0  0
   37.7460   28.7210   39.5940 C   0  0  0  0  0  0  0  0  0  0  0  0
   38.6460   28.3470   38.6700 N   0  0  0  0  0  0  0  0  0  0  0  0
   38.5690   28.7890   37.3780 C   0  0  0  0  0  0  0  0  0  0  0  0
   37.5830   29.6010   37.0300 N   0  0  0  0  0  0  0  0  0  0  0  0
   35.8160   30.6800   37.6810 H   0  0  0  0  0  0  0  0  0  0  0  0
   39.2940   28.4890   36.6290 H   0  0  0  0  0  0  0  0  0  0  0  0
   37.8230   28.2540   40.9780 C   0  0  0  0  0  0  0  0  0  0  0  0
   37.3030   27.0150   41.3110 C   0  0  0  0  0  0  0  0  0  0  0  0
   37.3970   26.6140   42.6270 C   0  0  0  0  0  0  0  0  0  0  0  0
   37.9760   27.3670   43.6360 C   0  0  0  0  0  0  0  0  0  0  0  0
   38.4730   28.5980   43.2190 C   0  0  0  0  0  0  0  0  0  0  0  0
   38.3840   28.9990   41.9280 N   0  0  0  0  0  0  0  0  0  0  0  0
   36.8280   26.3510   40.5780 H   0  0  0  0  0  0  0  0  0  0  0  0
   36.9970   25.6490   42.9060 H   0  0  0  0  0  0  0  0  0  0  0  0
   38.0410   27.0390   44.6600 H   0  0  0  0  0  0  0  0  0  0  0  0
   38.9410   29.2690   43.9000 H   0  0  0  0  0  0  0  0  0  0  0  0
   35.7290   29.9950   40.1980 C   0  0  0  0  0  0  0  0  0  0  0  0
   34.7210   29.2590   40.3860 O   0  0  0  0  0  0  0  0  0  0  0  0
   37.3490   32.8960   41.0500 H   0  0  0  0  0  0  0  0  0  0  0  0
   37.1670   31.9530   40.5400 C   0  0  0  0  0  0  0  0  0  0  0  0
   37.9620   31.4690   39.6750 O   0  0  0  0  0  0  0  0  0  0  0  0
   35.9680   31.2410   40.8730 N   0  0  0  0  0  0  0  0  0  0  0  0
   35.3270   31.6730   41.6000 H   0  0  0  0  0  0  0  0  0  0  0  0
  1  2  1  0  0  0  0
  2  3  2  0  0  0  0
  2 19  1  0  0  0  0
  3  9  1  0  0  0  0
  4  3  1  0  0  0  0
  5  4  2  0  0  0  0
  6  5  1  0  0  0  0
  6  1  2  0  0  0  0
  7  1  1  0  0  0  0
  8  5  1  0  0  0  0
  9 10  2  0  0  0  0
  9 14  1  0  0  0  0
 10 11  1  0  0  0  0
 11 16  1  0  0  0  0
 11 12  2  0  0  0  0
 12 17  1  0  0  0  0
 13 12  1  0  0  0  0
 13 18  1  0  0  0  0
 14 13  2  0  0  0  0
 15 10  1  0  0  0  0
 19 20  2  0  0  0  0
 19 24  1  0  0  0  0
 22 24  1  0  0  0  0
 22 21  1  0  0  0  0
 23 22  2  0  0  0  0
 24 25  1  0  0  0  0
M  END
>  <minimizedAffinity>
-4.82303905

$$$$

 OpenBabel03252507173D

 25 26  0  0  0  0  0  0  0  0999 V2000
   37.7660   26.9750   40.7340 C   0  0  0  0  0  0  0  0  0  0  0  0
   37.5280   28.3670   40.6940 C   0  0  0  0  0  0  0  0  0  0  0  0
   38.3440   29.1250   39.8630 C   0  0  0  0  0  0  0  0  0  0  0  0
   39.3100   28.5350   39.1410 N   0  0  0  0  0  0  0  0  0  0  0  0
   39.5210   27.1850   39.1970 C   0  0  0  0  0  0  0  0  0  0  0  0
   38.7560   26.4430   39.9820 N   0  0  0  0  0  0  0  0  0  0  0  0
   37.1100   26.4130   41.3950 H   0  0  0  0  0  0  0  0  0  0  0  0
   40.3010   26.7050   38.6140 H   0  0  0  0  0  0  0  0  0  0  0  0
   38.1120   30.5680   39.8080 C   0  0  0  0  0  0  0  0  0  0  0  0
   37.3930   31.1040   38.7530 C   0  0  0  0  0  0  0  0  0  0  0  0
   37.1980   32.4690   38.7390 C   0  0  0  0  0  0  0  0  0  0  0  0
   37.6720   33.3370   39.7090 C   0  0  0  0  0  0  0  0  0  0  0  0
   38.3830   32.7200   40.7330 C   0  0  0  0  0  0  0  0  0  0  0  0
   38.5790   31.3800   40.7530 N   0  0  0  0  0  0  0  0  0  0  0  0
   36.9800   30.4930   37.9410 H   0  0  0  0  0  0  0  0  0  0  0  0
   36.6390   32.9060   37.9240 H   0  0  0  0  0  0  0  0  0  0  0  0
   37.5110   34.4020   39.6840 H   0  0  0  0  0  0  0  0  0  0  0  0
   38.7980   33.2790   41.5380 H   0  0  0  0  0  0  0  0  0  0  0  0
   36.4930   28.9490   41.4750 C   0  0  0  0  0  0  0  0  0  0  0  0
   35.3630   29.1200   40.9390 O   0  0  0  0  0  0  0  0  0  0  0  0
   38.3960   29.3060   44.3070 H   0  0  0  0  0  0  0  0  0  0  0  0
   38.1510   29.0390   43.2820 C   0  0  0  0  0  0  0  0  0  0  0  0
   38.9890   28.5140   42.4840 O   0  0  0  0  0  0  0  0  0  0  0  0
   36.8160   29.3020   42.8300 N   0  0  0  0  0  0  0  0  0  0  0  0
   36.1420   29.7420   43.5230 H   0  0  0  0  0  0  0  0  0  0  0  0
  1  7  1  0  0  0  0
  2  1  1  0  0  0  0
  2 19  1  0  0  0  0
  3  2  2  0  0  0  0
  4  5  2  0  0  0  0
  4  3  1  0  0  0  0
  5  6  1  0  0  0  0
  6  1  2  0  0  0  0
  8  5  1  0  0  0  0
  9  3  1  0  0  0  0
  9 14  1  0  0  0  0
 10  9  2  0  0  0  0
 11 10  1  0  0  0  0
 11 12  2  0  0  0  0
 12 13  1  0  0  0  0
 13 14  2  0  0  0  0
 13 18  1  0  0  0  0
 15 10  1  0  0  0  0
 16 11  1  0  0  0  0
 17 12  1  0  0  0  0
 19 24  1  0  0  0  0
 20 19  2  0  0  0  0
 22 21  1  0  0  0  0
 23 22  2  0  0  0  0
 24 22  1  0  0  0  0
 24 25  1  0  0  0  0
M  END
>  <minimizedAffinity>
-4.61351252

$$$$

 OpenBabel03252507173D

 25 26  0  0  0  0  0  0  0  0999 V2000
   36.9880   24.8230   41.9010 C   0  0  0  0  0  0  0  0  0  0  0  0
   37.0320   26.2350   41.8780 C   0  0  0  0  0  0  0  0  0  0  0  0
   36.8790   26.8530   40.6430 C   0  0  0  0  0  0  0  0  0  0  0  0
   36.6990   26.1160   39.5340 N   0  0  0  0  0  0  0  0  0  0  0  0
   36.6590   24.7500   39.5830 C   0  0  0  0  0  0  0  0  0  0  0  0
   36.8030   24.1400   40.7480 N   0  0  0  0  0  0  0  0  0  0  0  0
   37.1120   24.3730   42.8830 H   0  0  0  0  0  0  0  0  0  0  0  0
   36.5140   24.1520   38.6890 H   0  0  0  0  0  0  0  0  0  0  0  0
   36.9210   28.3140   40.5990 C   0  0  0  0  0  0  0  0  0  0  0  0
   35.7370   29.0310   40.5650 C   0  0  0  0  0  0  0  0  0  0  0  0
   35.8210   30.4060   40.5250 C   0  0  0  0  0  0  0  0  0  0  0  0
   37.0110   31.1170   40.5150 C   0  0  0  0  0  0  0  0  0  0  0  0
   38.1530   30.3240   40.5510 C   0  0  0  0  0  0  0  0  0  0  0  0
   38.0780   28.9720   40.5900 N   0  0  0  0  0  0  0  0  0  0  0  0
   34.7500   28.5520   40.5710 H   0  0  0  0  0  0  0  0  0  0  0  0
   34.9080   30.9830   40.4980 H   0  0  0  0  0  0  0  0  0  0  0  0
   37.0610   32.1930   40.4830 H   0  0  0  0  0  0  0  0  0  0  0  0
   39.1280   30.7510   40.5480 H   0  0  0  0  0  0  0  0  0  0  0  0
   37.2240   26.9740   43.0760 C   0  0  0  0  0  0  0  0  0  0  0  0
   36.2050   27.4100   43.6800 O   0  0  0  0  0  0  0  0  0  0  0  0
   40.6470   26.7570   43.0370 H   0  0  0  0  0  0  0  0  0  0  0  0
   39.6220   26.6080   42.7070 C   0  0  0  0  0  0  0  0  0  0  0  0
   39.3200   25.9660   41.6530 O   0  0  0  0  0  0  0  0  0  0  0  0
   38.5790   27.1720   43.5130 N   0  0  0  0  0  0  0  0  0  0  0  0
   38.8670   27.7010   44.3870 H   0  0  0  0  0  0  0  0  0  0  0  0
  1  7  1  0  0  0  0
  2  1  1  0  0  0  0
  2 19  1  0  0  0  0
  3  2  2  0  0  0  0
  4  5  2  0  0  0  0
  4  3  1  0  0  0  0
  5  6  1  0  0  0  0
  6  1  2  0  0  0  0
  8  5  1  0  0  0  0
  9  3  1  0  0  0  0
 10 15  1  0  0  0  0
 10  9  2  0  0  0  0
 11 10  1  0  0  0  0
 12 11  2  0  0  0  0
 12 13  1  0  0  0  0
 13 14  2  0  0  0  0
 14  9  1  0  0  0  0
 16 11  1  0  0  0  0
 17 12  1  0  0  0  0
 18 13  1  0  0  0  0
 19 24  1  0  0  0  0
 19 20  2  0  0  0  0
 22 21  1  0  0  0  0
 22 24  1  0  0  0  0
 23 22  2  0  0  0  0
 24 25  1  0  0  0  0
M  END
>  <minimizedAffinity>
-4.53467655

$$$$

 OpenBabel03252507173D

 25 26  0  0  0  0  0  0  0  0999 V2000
   39.7930   27.1440   43.2540 C   0  0  0  0  0  0  0  0  0  0  0  0
   39.0320   28.0270   42.4550 C   0  0  0  0  0  0  0  0  0  0  0  0
   38.8710   27.6900   41.1170 C   0  0  0  0  0  0  0  0  0  0  0  0
   39.4250   26.5690   40.6290 N   0  0  0  0  0  0  0  0  0  0  0  0
   40.1570   25.7300   41.4220 C   0  0  0  0  0  0  0  0  0  0  0  0
   40.3250   26.0300   42.7000 N   0  0  0  0  0  0  0  0  0  0  0  0
   39.9000   27.4380   44.2960 H   0  0  0  0  0  0  0  0  0  0  0  0
   40.6070   24.8230   41.0310 H   0  0  0  0  0  0  0  0  0  0  0  0
   38.0850   28.5920   40.2760 C   0  0  0  0  0  0  0  0  0  0  0  0
   36.7360   28.3460   40.0840 C   0  0  0  0  0  0  0  0  0  0  0  0
   36.0330   29.2210   39.2830 C   0  0  0  0  0  0  0  0  0  0  0  0
   36.5860   30.3270   38.6580 C   0  0  0  0  0  0  0  0  0  0  0  0
   37.9450   30.5030   38.9010 C   0  0  0  0  0  0  0  0  0  0  0  0
   38.6420   29.6480   39.6860 N   0  0  0  0  0  0  0  0  0  0  0  0
   36.2150   27.4950   40.5390 H   0  0  0  0  0  0  0  0  0  0  0  0
   34.9790   29.0460   39.1220 H   0  0  0  0  0  0  0  0  0  0  0  0
   36.0230   31.0020   38.0350 H   0  0  0  0  0  0  0  0  0  0  0  0
   38.4850   31.3170   38.4780 H   0  0  0  0  0  0  0  0  0  0  0  0
   38.4630   29.2030   43.0160 C   0  0  0  0  0  0  0  0  0  0  0  0
   39.1080   30.2840   42.9190 O   0  0  0  0  0  0  0  0  0  0  0  0
   35.6220   27.6630   44.1650 H   0  0  0  0  0  0  0  0  0  0  0  0
   36.5890   27.7650   43.6800 C   0  0  0  0  0  0  0  0  0  0  0  0
   37.2010   26.7890   43.1420 O   0  0  0  0  0  0  0  0  0  0  0  0
   37.1850   29.0690   43.6580 N   0  0  0  0  0  0  0  0  0  0  0  0
   36.6470   29.8610   44.1160 H   0  0  0  0  0  0  0  0  0  0  0  0
  1  7  1  0  0  0  0
  2 19  1  0  0  0  0
  2  1  2  0  0  0  0
  3  2  1  0  0  0  0
  4  3  2  0  0  0  0
  4  5  1  0  0  0  0
  5  6  2  0  0  0  0
  6  1  1  0  0  0  0
  8  5  1  0  0  0  0
  9  3  1  0  0  0  0
 10  9  1  0  0  0  0
 10 15  1  0  0  0  0
 11 10  2  0  0  0  0
 12 13  2  0  0  0  0
 12 11  1  0  0  0  0
 13 14  1  0  0  0  0
 14  9  2  0  0  0  0
 16 11  1  0  0  0  0
 17 12  1  0  0  0  0
 18 13  1  0  0  0  0
 19 24  1  0  0  0  0
 20 19  2  0  0  0  0
 22 21  1  0  0  0  0
 23 22  2  0  0  0  0
 24 22  1  0  0  0  0
 24 25  1  0  0  0  0
M  END
>  <minimizedAffinity>
-4.52726364

$$$$

 OpenBabel03252507173D

 25 26  0  0  0  0  0  0  0  0999 V2000
   37.0360   32.2280   39.4770 C   0  0  0  0  0  0  0  0  0  0  0  0
   37.1300   30.9550   40.0820 C   0  0  0  0  0  0  0  0  0  0  0  0
   38.1090   30.7860   41.0530 C   0  0  0  0  0  0  0  0  0  0  0  0
   38.9190   31.8050   41.3840 N   0  0  0  0  0  0  0  0  0  0  0  0
   38.8080   33.0290   40.7840 C   0  0  0  0  0  0  0  0  0  0  0  0
   37.8830   33.2130   39.8550 N   0  0  0  0  0  0  0  0  0  0  0  0
   36.2600   32.3250   38.7210 H   0  0  0  0  0  0  0  0  0  0  0  0
   39.4610   33.8540   41.0480 H   0  0  0  0  0  0  0  0  0  0  0  0
   38.2200   29.4750   41.6910 C   0  0  0  0  0  0  0  0  0  0  0  0
   37.6990   29.2860   42.9610 C   0  0  0  0  0  0  0  0  0  0  0  0
   37.8260   28.0350   43.5250 C   0  0  0  0  0  0  0  0  0  0  0  0
   38.4390   26.9560   42.9080 C   0  0  0  0  0  0  0  0  0  0  0  0
   38.9350   27.2280   41.6370 C   0  0  0  0  0  0  0  0  0  0  0  0
   38.8150   28.4550   41.0760 N   0  0  0  0  0  0  0  0  0  0  0  0
   37.1970   30.0830   43.5230 H   0  0  0  0  0  0  0  0  0  0  0  0
   37.4250   27.8680   44.5150 H   0  0  0  0  0  0  0  0  0  0  0  0
   38.5300   25.9840   43.3630 H   0  0  0  0  0  0  0  0  0  0  0  0
   39.4270   26.4810   41.0600 H   0  0  0  0  0  0  0  0  0  0  0  0
   36.2510   29.9050   39.7020 C   0  0  0  0  0  0  0  0  0  0  0  0
   35.2100   29.7170   40.3910 O   0  0  0  0  0  0  0  0  0  0  0  0
   38.1170   28.8890   37.0090 H   0  0  0  0  0  0  0  0  0  0  0  0
   37.8380   29.4760   37.8800 C   0  0  0  0  0  0  0  0  0  0  0  0
   38.5400   30.4390   38.3200 O   0  0  0  0  0  0  0  0  0  0  0  0
   36.6180   29.1280   38.5500 N   0  0  0  0  0  0  0  0  0  0  0  0
   36.0570   28.3190   38.1560 H   0  0  0  0  0  0  0  0  0  0  0  0
  1  6  2  0  0  0  0
  1  2  1  0  0  0  0
  2  3  2  0  0  0  0
  3  4  1  0  0  0  0
  3  9  1  0  0  0  0
  5  8  1  0  0  0  0
  5  4  2  0  0  0  0
  6  5  1  0  0  0  0
  7  1  1  0  0  0  0
  9 10  1  0  0  0  0
 10 15  1  0  0  0  0
 10 11  2  0  0  0  0
 11 16  1  0  0  0  0
 12 17  1  0  0  0  0
 12 11  1  0  0  0  0
 13 12  2  0  0  0  0
 14 13  1  0  0  0  0
 14  9  2  0  0  0  0
 18 13  1  0  0  0  0
 19  2  1  0  0  0  0
 19 20  2  0  0  0  0
 21 22  1  0  0  0  0
 22 23  2  0  0  0  0
 22 24  1  0  0  0  0
 24 19  1  0  0  0  0
 25 24  1  0  0  0  0
M  END
>  <minimizedAffinity>
-4.44112015

$$$$

 OpenBabel03252507173D

 25 26  0  0  0  0  0  0  0  0999 V2000
   37.0990   30.3660   38.0870 C   0  0  0  0  0  0  0  0  0  0  0  0
   37.2580   29.9110   39.4150 C   0  0  0  0  0  0  0  0  0  0  0  0
   38.0530   28.7880   39.6090 C   0  0  0  0  0  0  0  0  0  0  0  0
   38.6340   28.1790   38.5610 N   0  0  0  0  0  0  0  0  0  0  0  0
   38.4650   28.6390   37.2850 C   0  0  0  0  0  0  0  0  0  0  0  0
   37.7110   29.7070   37.0760 N   0  0  0  0  0  0  0  0  0  0  0  0
   36.4710   31.2460   37.9720 H   0  0  0  0  0  0  0  0  0  0  0  0
   38.9320   28.1500   36.4360 H   0  0  0  0  0  0  0  0  0  0  0  0
   38.2300   28.3030   40.9770 C   0  0  0  0  0  0  0  0  0  0  0  0
   39.3650   28.6570   41.6870 C   0  0  0  0  0  0  0  0  0  0  0  0
   39.4920   28.1780   42.9730 C   0  0  0  0  0  0  0  0  0  0  0  0
   38.5610   27.3660   43.6010 C   0  0  0  0  0  0  0  0  0  0  0  0
   37.4510   27.0570   42.8210 C   0  0  0  0  0  0  0  0  0  0  0  0
   37.3200   27.5230   41.5570 N   0  0  0  0  0  0  0  0  0  0  0  0
   40.1530   29.2960   41.2690 H   0  0  0  0  0  0  0  0  0  0  0  0
   40.3710   28.4440   43.5430 H   0  0  0  0  0  0  0  0  0  0  0  0
   38.6750   27.0000   44.6080 H   0  0  0  0  0  0  0  0  0  0  0  0
   36.6650   26.4410   43.1910 H   0  0  0  0  0  0  0  0  0  0  0  0
   36.6260   30.5870   40.4940 C   0  0  0  0  0  0  0  0  0  0  0  0
   37.2770   31.4800   41.1030 O   0  0  0  0  0  0  0  0  0  0  0  0
   33.6690   28.8640   40.2570 H   0  0  0  0  0  0  0  0  0  0  0  0
   34.6870   29.1600   40.0170 C   0  0  0  0  0  0  0  0  0  0  0  0
   35.3590   28.6310   39.0770 O   0  0  0  0  0  0  0  0  0  0  0  0
   35.2800   30.1960   40.8120 N   0  0  0  0  0  0  0  0  0  0  0  0
   34.6910   30.6150   41.5890 H   0  0  0  0  0  0  0  0  0  0  0  0
  1  2  1  0  0  0  0
  2  3  2  0  0  0  0
  2 19  1  0  0  0  0
  3  9  1  0  0  0  0
  4  3  1  0  0  0  0
  5  4  2  0  0  0  0
  6  5  1  0  0  0  0
  6  1  2  0  0  0  0
  7  1  1  0  0  0  0
  8  5  1  0  0  0  0
  9 14  2  0  0  0  0
  9 10  1  0  0  0  0
 10 11  2  0  0  0  0
 11 16  1  0  0  0  0
 11 12  1  0  0  0  0
 12 17  1  0  0  0  0
 13 18  1  0  0  0  0
 13 12  2  0  0  0  0
 14 13  1  0  0  0  0
 15 10  1  0  0  0  0
 19 24  1  0  0  0  0
 19 20  2  0  0  0  0
 22 21  1  0  0  0  0
 22 24  1  0  0  0  0
 23 22  2  0  0  0  0
 24 25  1  0  0  0  0
M  END
>  <minimizedAffinity>
-4.39969158

$$$$

 OpenBabel03252507173D

 25 26  0  0  0  0  0  0  0  0999 V2000
   38.6240   30.5490   38.0570 C   0  0  0  0  0  0  0  0  0  0  0  0
   38.0190   30.0680   39.2410 C   0  0  0  0  0  0  0  0  0  0  0  0
   38.7430   29.1520   39.9940 C   0  0  0  0  0  0  0  0  0  0  0  0
   39.9620   28.7570   39.5920 N   0  0  0  0  0  0  0  0  0  0  0  0
   40.5260   29.2380   38.4420 C   0  0  0  0  0  0  0  0  0  0  0  0
   39.8550   30.1110   37.7090 N   0  0  0  0  0  0  0  0  0  0  0  0
   38.0300   31.2640   37.4930 H   0  0  0  0  0  0  0  0  0  0  0  0
   41.5110   28.9200   38.1150 H   0  0  0  0  0  0  0  0  0  0  0  0
   38.1340   28.6440   41.2220 C   0  0  0  0  0  0  0  0  0  0  0  0
   37.5290   27.3990   41.2210 C   0  0  0  0  0  0  0  0  0  0  0  0
   36.9680   26.9580   42.4000 C   0  0  0  0  0  0  0  0  0  0  0  0
   36.9680   27.6780   43.5850 C   0  0  0  0  0  0  0  0  0  0  0  0
   37.5940   28.9170   43.5010 C   0  0  0  0  0  0  0  0  0  0  0  0
   38.1480   29.3570   42.3460 N   0  0  0  0  0  0  0  0  0  0  0  0
   37.4830   26.7600   40.3300 H   0  0  0  0  0  0  0  0  0  0  0  0
   36.4910   25.9880   42.4190 H   0  0  0  0  0  0  0  0  0  0  0  0
   36.5250   27.3200   44.4980 H   0  0  0  0  0  0  0  0  0  0  0  0
   37.6610   29.5650   44.3440 H   0  0  0  0  0  0  0  0  0  0  0  0
   36.7270   30.5150   39.6280 C   0  0  0  0  0  0  0  0  0  0  0  0
   35.7310   29.8050   39.3180 O   0  0  0  0  0  0  0  0  0  0  0  0
   37.8290   33.3780   41.1630 H   0  0  0  0  0  0  0  0  0  0  0  0
   37.8850   32.4390   40.6180 C   0  0  0  0  0  0  0  0  0  0  0  0
   38.9800   31.9350   40.2170 O   0  0  0  0  0  0  0  0  0  0  0  0
   36.6530   31.7570   40.3480 N   0  0  0  0  0  0  0  0  0  0  0  0
   35.7570   32.2060   40.6970 H   0  0  0  0  0  0  0  0  0  0  0  0
  1  2  1  0  0  0  0
  2 19  1  0  0  0  0
  2  3  2  0  0  0  0
  3  9  1  0  0  0  0
  4  3  1  0  0  0  0
  5  4  2  0  0  0  0
  6  1  2  0  0  0  0
  6  5  1  0  0  0  0
  7  1  1  0  0  0  0
  8  5  1  0  0  0  0
  9 14  1  0  0  0  0
 10  9  2  0  0  0  0
 10 11  1  0  0  0  0
 11 16  1  0  0  0  0
 11 12  2  0  0  0  0
 12 17  1  0  0  0  0
 13 12  1  0  0  0  0
 13 18  1  0  0  0  0
 14 13  2  0  0  0  0
 15 10  1  0  0  0  0
 19 24  1  0  0  0  0
 20 19  2  0  0  0  0
 22 21  1  0  0  0  0
 23 22  2  0  0  0  0
 24 22  1  0  0  0  0
 24 25  1  0  0  0  0
M  END
>  <minimizedAffinity>
-4.37205219

$$$$

 OpenBabel03252507173D

 25 26  0  0  0  0  0  0  0  0999 V2000
   37.0600   30.5020   38.0670 C   0  0  0  0  0  0  0  0  0  0  0  0
   37.2560   30.1030   39.4090 C   0  0  0  0  0  0  0  0  0  0  0  0
   37.4350   28.7460   39.6460 C   0  0  0  0  0  0  0  0  0  0  0  0
   37.4170   27.8710   38.6260 N   0  0  0  0  0  0  0  0  0  0  0  0
   37.2270   28.2820   37.3360 C   0  0  0  0  0  0  0  0  0  0  0  0
   37.0540   29.5710   37.0860 N   0  0  0  0  0  0  0  0  0  0  0  0
   36.9240   31.5700   37.9180 H   0  0  0  0  0  0  0  0  0  0  0  0
   37.2120   27.5790   36.5100 H   0  0  0  0  0  0  0  0  0  0  0  0
   37.6390   28.3140   41.0280 C   0  0  0  0  0  0  0  0  0  0  0  0
   36.5710   27.8130   41.7530 C   0  0  0  0  0  0  0  0  0  0  0  0
   36.8080   27.4180   43.0520 C   0  0  0  0  0  0  0  0  0  0  0  0
   38.0420   27.4890   43.6800 C   0  0  0  0  0  0  0  0  0  0  0  0
   39.0600   28.0040   42.8840 C   0  0  0  0  0  0  0  0  0  0  0  0
   38.8350   28.3940   41.6070 N   0  0  0  0  0  0  0  0  0  0  0  0
   35.5600   27.7200   41.3370 H   0  0  0  0  0  0  0  0  0  0  0  0
   35.9870   27.0230   43.6340 H   0  0  0  0  0  0  0  0  0  0  0  0
   38.2110   27.1760   44.6960 H   0  0  0  0  0  0  0  0  0  0  0  0
   40.0540   28.1090   43.2520 H   0  0  0  0  0  0  0  0  0  0  0  0
   37.2670   31.0630   40.4560 C   0  0  0  0  0  0  0  0  0  0  0  0
   36.1920   31.2810   41.0790 O   0  0  0  0  0  0  0  0  0  0  0  0
   40.5890   31.8520   40.1270 H   0  0  0  0  0  0  0  0  0  0  0  0
   39.6440   31.3540   39.9220 C   0  0  0  0  0  0  0  0  0  0  0  0
   39.5050   30.4780   39.0120 O   0  0  0  0  0  0  0  0  0  0  0  0
   38.5160   31.7210   40.7270 N   0  0  0  0  0  0  0  0  0  0  0  0
   38.6670   32.4560   41.4780 H   0  0  0  0  0  0  0  0  0  0  0  0
  1  2  1  0  0  0  0
  2  3  2  0  0  0  0
  2 19  1  0  0  0  0
  3  9  1  0  0  0  0
  4  3  1  0  0  0  0
  5  4  2  0  0  0  0
  6  5  1  0  0  0  0
  6  1  2  0  0  0  0
  7  1  1  0  0  0  0
  8  5  1  0  0  0  0
  9 14  2  0  0  0  0
  9 10  1  0  0  0  0
 10 11  2  0  0  0  0
 11 16  1  0  0  0  0
 11 12  1  0  0  0  0
 12 17  1  0  0  0  0
 13 18  1  0  0  0  0
 13 12  2  0  0  0  0
 14 13  1  0  0  0  0
 15 10  1  0  0  0  0
 19 24  1  0  0  0  0
 19 20  2  0  0  0  0
 22 21  1  0  0  0  0
 22 24  1  0  0  0  0
 23 22  2  0  0  0  0
 24 25  1  0  0  0  0
M  END
>  <minimizedAffinity>
-4.32072115

$$$$

 OpenBabel03252507173D

 25 26  0  0  0  0  0  0  0  0999 V2000
   37.1520   30.4030   38.0740 C   0  0  0  0  0  0  0  0  0  0  0  0
   36.8460   29.3830   39.0020 C   0  0  0  0  0  0  0  0  0  0  0  0
   37.8610   28.4860   39.3140 C   0  0  0  0  0  0  0  0  0  0  0  0
   39.0700   28.6060   38.7430 N   0  0  0  0  0  0  0  0  0  0  0  0
   39.3420   29.6030   37.8470 C   0  0  0  0  0  0  0  0  0  0  0  0
   38.3900   30.4680   37.5350 N   0  0  0  0  0  0  0  0  0  0  0  0
   36.3350   31.0860   37.8530 H   0  0  0  0  0  0  0  0  0  0  0  0
   40.3180   29.7020   37.3840 H   0  0  0  0  0  0  0  0  0  0  0  0
   37.5630   27.4240   40.2740 C   0  0  0  0  0  0  0  0  0  0  0  0
   37.2420   26.1580   39.8150 C   0  0  0  0  0  0  0  0  0  0  0  0
   36.9690   25.1860   40.7540 C   0  0  0  0  0  0  0  0  0  0  0  0
   36.9940   25.3920   42.1240 C   0  0  0  0  0  0  0  0  0  0  0  0
   37.3250   26.6890   42.5020 C   0  0  0  0  0  0  0  0  0  0  0  0
   37.5940   27.6490   41.5860 N   0  0  0  0  0  0  0  0  0  0  0  0
   37.1990   25.9040   38.7490 H   0  0  0  0  0  0  0  0  0  0  0  0
   36.7170   24.1910   40.4150 H   0  0  0  0  0  0  0  0  0  0  0  0
   36.7780   24.6220   42.8450 H   0  0  0  0  0  0  0  0  0  0  0  0
   37.3770   26.9740   43.5270 H   0  0  0  0  0  0  0  0  0  0  0  0
   35.5520   29.2950   39.5830 C   0  0  0  0  0  0  0  0  0  0  0  0
   34.7020   28.5390   39.0370 O   0  0  0  0  0  0  0  0  0  0  0  0
   36.2010   31.4870   42.1400 H   0  0  0  0  0  0  0  0  0  0  0  0
   36.3860   30.8910   41.2500 C   0  0  0  0  0  0  0  0  0  0  0  0
   37.5000   30.8830   40.6390 O   0  0  0  0  0  0  0  0  0  0  0  0
   35.3070   30.0830   40.7590 N   0  0  0  0  0  0  0  0  0  0  0  0
   34.3900   30.1130   41.2930 H   0  0  0  0  0  0  0  0  0  0  0  0
  1  2  1  0  0  0  0
  2  3  2  0  0  0  0
  2 19  1  0  0  0  0
  3  9  1  0  0  0  0
  4  3  1  0  0  0  0
  5  4  2  0  0  0  0
  6  5  1  0  0  0  0
  6  1  2  0  0  0  0
  7  1  1  0  0  0  0
  8  5  1  0  0  0  0
  9 14  1  0  0  0  0
 10  9  2  0  0  0  0
 10 11  1  0  0  0  0
 11 12  2  0  0  0  0
 12 13  1  0  0  0  0
 12 17  1  0  0  0  0
 13 18  1  0  0  0  0
 14 13  2  0  0  0  0
 15 10  1  0  0  0  0
 16 11  1  0  0  0  0
 19 24  1  0  0  0  0
 20 19  2  0  0  0  0
 22 21  1  0  0  0  0
 23 22  2  0  0  0  0
 24 22  1  0  0  0  0
 24 25  1  0  0  0  0
M  END
>  <minimizedAffinity>
-4.30931282

$$$$
