
 OpenBabel03252504003D

 30 32  0  0  0  0  0  0  0  0999 V2000
   46.0520   31.5940   45.1380 C   0  0  0  0  0  0  0  0  0  0  0  0
   45.8820   32.9310   45.4950 C   0  0  0  0  0  0  0  0  0  0  0  0
   45.6090   33.2490   46.8020 C   0  0  0  0  0  0  0  0  0  0  0  0
   45.5090   32.2350   47.7320 C   0  0  0  0  0  0  0  0  0  0  0  0
   45.2550   32.2410   49.0560 N   0  0  0  0  0  0  0  0  0  0  0  0
   45.2520   31.0030   49.5550 C   0  0  0  0  0  0  0  0  0  0  0  0
   45.5150   30.1350   48.5290 C   0  0  0  0  0  0  0  0  0  0  0  0
   45.6780   30.8960   47.3790 C   0  0  0  0  0  0  0  0  0  0  0  0
   45.9510   30.5870   46.0730 C   0  0  0  0  0  0  0  0  0  0  0  0
   46.2730   31.2340   44.1220 H   0  0  0  0  0  0  0  0  0  0  0  0
   45.4800   34.2940   47.0630 H   0  0  0  0  0  0  0  0  0  0  0  0
   45.0870   33.1220   49.5810 H   0  0  0  0  0  0  0  0  0  0  0  0
   45.0640   30.8050   50.6080 H   0  0  0  0  0  0  0  0  0  0  0  0
   45.5780   29.0570   48.6200 H   0  0  0  0  0  0  0  0  0  0  0  0
   46.0730   29.5330   45.8540 H   0  0  0  0  0  0  0  0  0  0  0  0
   47.1740   34.7930   42.6400 C   0  0  0  0  0  0  0  0  0  0  0  0
   46.2140   35.7800   42.4180 C   0  0  0  0  0  0  0  0  0  0  0  0
   45.1120   35.7950   43.2690 C   0  0  0  0  0  0  0  0  0  0  0  0
   45.0380   34.8640   44.2480 N   0  0  0  0  0  0  0  0  0  0  0  0
   46.0070   33.9160   44.4250 C   0  0  0  0  0  0  0  0  0  0  0  0
   47.0750   33.8770   43.6230 N   0  0  0  0  0  0  0  0  0  0  0  0
   46.3080   36.5080   41.6230 H   0  0  0  0  0  0  0  0  0  0  0  0
   44.3480   36.5470   43.1260 H   0  0  0  0  0  0  0  0  0  0  0  0
   48.3020   34.8180   41.7270 C   0  0  0  0  0  0  0  0  0  0  0  0
   48.9670   35.8480   41.4140 O   0  0  0  0  0  0  0  0  0  0  0  0
   48.7030   32.4110   39.2220 H   0  0  0  0  0  0  0  0  0  0  0  0
   48.4120   33.3320   39.7450 C   0  0  0  0  0  0  0  0  0  0  0  0
   47.7740   34.1850   39.0460 O   0  0  0  0  0  0  0  0  0  0  0  0
   48.7150   33.5880   41.1170 N   0  0  0  0  0  0  0  0  0  0  0  0
   49.2420   32.8280   41.6020 H   0  0  0  0  0  0  0  0  0  0  0  0
  1  2  2  0  0  0  0
  1  9  1  0  0  0  0
  2  3  1  0  0  0  0
  3 11  1  0  0  0  0
  3  4  2  0  0  0  0
  4  5  1  0  0  0  0
  5  6  1  0  0  0  0
  5 12  1  0  0  0  0
  6 13  1  0  0  0  0
  7 14  1  0  0  0  0
  7  6  2  0  0  0  0
  8  4  1  0  0  0  0
  8  7  1  0  0  0  0
  9  8  2  0  0  0  0
 10  1  1  0  0  0  0
 15  9  1  0  0  0  0
 16 21  1  0  0  0  0
 17 16  2  0  0  0  0
 17 18  1  0  0  0  0
 18 19  2  0  0  0  0
 19 20  1  0  0  0  0
 20  2  1  0  0  0  0
 21 20  2  0  0  0  0
 22 17  1  0  0  0  0
 23 18  1  0  0  0  0
 24 16  1  0  0  0  0
 25 24  2  0  0  0  0
 26 27  1  0  0  0  0
 27 29  1  0  0  0  0
 28 27  2  0  0  0  0
 29 30  1  0  0  0  0
 29 24  1  0  0  0  0
M  END
>  <minimizedAffinity>
-5.84883738

>  <minimizedRMSD>
0.510929823

$$$$
