
 OpenBabel03252508013D

 25 26  0  0  1  0  0  0  0  0999 V2000
   46.5450   34.7390   43.1240 C   0  0  0  0  0  0  0  0  0  0  0  0
   45.5610   35.7590   43.2920 C   0  0  0  0  0  0  0  0  0  0  0  0
   44.7560   35.6340   44.4210 C   0  0  0  0  0  0  0  0  0  0  0  0
   44.9440   34.5930   45.2620 N   0  0  0  0  0  0  0  0  0  0  0  0
   45.9140   33.6440   45.0360 C   0  0  0  0  0  0  0  0  0  0  0  0
   46.7080   33.7040   43.9880 N   0  0  0  0  0  0  0  0  0  0  0  0
   45.4900   36.5520   42.5610 H   0  0  0  0  0  0  0  0  0  0  0  0
   44.0000   36.3830   44.5870 H   0  0  0  0  0  0  0  0  0  0  0  0
   46.0640   32.5410   46.0240 C   0  0  1  0  0  0  0  0  0  0  0  0
   46.8020   32.8250   47.3170 C   0  0  0  0  0  0  0  0  0  0  0  0
   45.3030   32.7240   47.2780 C   0  0  1  0  0  0  0  0  0  0  0  0
   46.1840   31.5220   45.6120 H   0  0  0  0  0  0  0  0  0  0  0  0
   47.2940   33.8190   47.3150 H   0  0  0  0  0  0  0  0  0  0  0  0
   47.3420   31.9760   47.7760 H   0  0  0  0  0  0  0  0  0  0  0  0
   44.8560   31.9070   47.8540 H   0  0  0  0  0  0  0  0  0  0  0  0
   44.6700   34.0210   47.5520 N   0  0  0  0  0  0  0  0  0  0  0  0
   43.7390   33.8930   48.0370 H   0  0  0  0  0  0  0  0  0  0  0  0
   45.2530   34.5450   48.2450 H   0  0  0  0  0  0  0  0  0  0  0  0
   47.3940   34.8810   41.9580 C   0  0  0  0  0  0  0  0  0  0  0  0
   48.2880   35.7930   41.8480 O   0  0  0  0  0  0  0  0  0  0  0  0
   46.1530   32.9680   39.3420 H   0  0  0  0  0  0  0  0  0  0  0  0
   46.1040   33.6200   40.1980 C   0  0  0  0  0  0  0  0  0  0  0  0
   45.0230   34.0510   40.6860 O   0  0  0  0  0  0  0  0  0  0  0  0
   47.3220   34.0210   40.8190 N   0  0  0  0  0  0  0  0  0  0  0  0
   48.2470   33.7020   40.4650 H   0  0  0  0  0  0  0  0  0  0  0  0
  1  2  2  0  0  0  0
  1  6  1  0  0  0  0
  2  3  1  0  0  0  0
  3  8  1  0  0  0  0
  3  4  2  0  0  0  0
  5  4  1  0  0  0  0
  5  9  1  0  0  0  0
  6  5  2  0  0  0  0
  7  2  1  0  0  0  0
  9 12  1  6  0  0  0
  9 11  1  0  0  0  0
  9 10  1  0  0  0  0
 10 14  1  0  0  0  0
 11 10  1  0  0  0  0
 11 16  1  0  0  0  0
 11 15  1  1  0  0  0
 13 10  1  0  0  0  0
 16 17  1  0  0  0  0
 16 18  1  0  0  0  0
 19  1  1  0  0  0  0
 20 19  2  0  0  0  0
 21 22  1  0  0  0  0
 22 23  2  0  0  0  0
 22 24  1  0  0  0  0
 24 19  1  0  0  0  0
 25 24  1  0  0  0  0
M  END
>  <minimizedAffinity>
-5.09376192

>  <minimizedRMSD>
0.707398176

$$$$
