
 OpenBabel03252502283D

 31 32  0  0  0  0  0  0  0  0999 V2000
   45.0530   34.4990   41.3700 C   0  0  0  0  0  0  0  0  0  0  0  0
   45.3810   35.2560   42.4830 C   0  0  0  0  0  0  0  0  0  0  0  0
   46.7310   35.5390   42.6960 C   0  0  0  0  0  0  0  0  0  0  0  0
   47.6960   35.0730   41.8160 C   0  0  0  0  0  0  0  0  0  0  0  0
   47.3720   34.3300   40.7230 C   0  0  0  0  0  0  0  0  0  0  0  0
   46.0220   34.0630   40.5330 C   0  0  0  0  0  0  0  0  0  0  0  0
   44.6030   35.6120   43.1600 H   0  0  0  0  0  0  0  0  0  0  0  0
   46.9450   36.1310   43.5690 H   0  0  0  0  0  0  0  0  0  0  0  0
   48.7360   35.3190   42.0200 H   0  0  0  0  0  0  0  0  0  0  0  0
   48.1040   33.9450   40.0080 H   0  0  0  0  0  0  0  0  0  0  0  0
   44.9140   32.0380   39.2420 C   0  0  0  0  0  0  0  0  0  0  0  0
   44.6900   31.2390   40.1060 O   0  0  0  0  0  0  0  0  0  0  0  0
   45.5770   33.3250   39.3980 N   0  0  0  0  0  0  0  0  0  0  0  0
   45.9200   34.0400   38.6560 H   0  0  0  0  0  0  0  0  0  0  0  0
   43.2860   34.2860   37.2820 H   0  0  0  0  0  0  0  0  0  0  0  0
   43.8880   33.4250   37.6300 C   0  0  0  0  0  0  0  0  0  0  0  0
   43.4290   34.1490   38.5780 O   0  0  0  0  0  0  0  0  0  0  0  0
   44.7250   32.2130   37.8600 N   0  0  0  0  0  0  0  0  0  0  0  0
   44.5930   32.3360   36.8890 H   0  0  0  0  0  0  0  0  0  0  0  0
   41.3750   34.7480   40.5520 C   0  0  0  0  0  0  0  0  0  0  0  0
   42.7240   35.1440   40.6740 C   0  0  0  0  0  0  0  0  0  0  0  0
   43.6320   34.2290   41.1750 C   0  0  0  0  0  0  0  0  0  0  0  0
   43.1630   33.0020   41.5180 N   0  0  0  0  0  0  0  0  0  0  0  0
   41.8720   32.6360   41.3980 C   0  0  0  0  0  0  0  0  0  0  0  0
   40.9690   33.5300   40.9050 N   0  0  0  0  0  0  0  0  0  0  0  0
   43.0770   36.1180   40.3960 H   0  0  0  0  0  0  0  0  0  0  0  0
   41.5500   31.6420   41.6860 H   0  0  0  0  0  0  0  0  0  0  0  0
   40.3830   35.7150   40.0180 C   0  0  0  0  0  0  0  0  0  0  0  0
   39.2230   34.9980   39.7080 F   0  0  0  0  0  0  0  0  0  0  0  0
   40.8680   36.1650   38.8060 F   0  0  0  0  0  0  0  0  0  0  0  0
   40.0970   36.7400   40.8880 F   0  0  0  0  0  0  0  0  0  0  0  0
  1  2  1  0  0  0  0
  2  3  2  0  0  0  0
  2  7  1  0  0  0  0
  3  8  1  0  0  0  0
  4  9  1  0  0  0  0
  4  3  1  0  0  0  0
  5  4  2  0  0  0  0
  6  5  1  0  0  0  0
  6  1  2  0  0  0  0
 10  5  1  0  0  0  0
 11 13  1  0  0  0  0
 11 12  2  0  0  0  0
 13  6  1  0  0  0  0
 14 13  1  0  0  0  0
 15 16  1  0  0  0  0
 16 18  1  0  0  0  0
 16 17  2  0  0  0  0
 18 11  1  0  0  0  0
 19 18  1  0  0  0  0
 20 21  2  0  0  0  0
 20 25  1  0  0  0  0
 21 22  1  0  0  0  0
 22  1  1  0  0  0  0
 22 23  2  0  0  0  0
 24 23  1  0  0  0  0
 24 27  1  0  0  0  0
 25 24  2  0  0  0  0
 26 21  1  0  0  0  0
 28 20  1  0  0  0  0
 28 31  1  0  0  0  0
 29 28  1  0  0  0  0
 30 28  1  0  0  0  0
M  END
>  <minimizedAffinity>
-5.49637556

>  <minimizedRMSD>
0.548717976

$$$$
