
 OpenBabel03252502283D

 31 32  0  0  0  0  0  0  0  0999 V2000
   45.1560   34.4340   41.2370 C   0  0  0  0  0  0  0  0  0  0  0  0
   45.5540   35.0150   42.4300 C   0  0  0  0  0  0  0  0  0  0  0  0
   46.9190   35.2440   42.6120 C   0  0  0  0  0  0  0  0  0  0  0  0
   47.8300   34.8990   41.6260 C   0  0  0  0  0  0  0  0  0  0  0  0
   47.4360   34.3290   40.4540 C   0  0  0  0  0  0  0  0  0  0  0  0
   46.0730   34.1120   40.2970 C   0  0  0  0  0  0  0  0  0  0  0  0
   44.8180   35.2780   43.1910 H   0  0  0  0  0  0  0  0  0  0  0  0
   47.1870   35.6980   43.5510 H   0  0  0  0  0  0  0  0  0  0  0  0
   48.8830   35.0970   41.8100 H   0  0  0  0  0  0  0  0  0  0  0  0
   48.1240   34.0420   39.6540 H   0  0  0  0  0  0  0  0  0  0  0  0
   45.6570   32.2380   38.4770 C   0  0  0  0  0  0  0  0  0  0  0  0
   46.3360   31.3240   38.8510 O   0  0  0  0  0  0  0  0  0  0  0  0
   45.5580   33.5550   39.0900 N   0  0  0  0  0  0  0  0  0  0  0  0
   45.0670   34.4610   38.7470 H   0  0  0  0  0  0  0  0  0  0  0  0
   45.5270   31.8020   35.1090 H   0  0  0  0  0  0  0  0  0  0  0  0
   45.2810   32.0850   36.1510 C   0  0  0  0  0  0  0  0  0  0  0  0
   46.4100   31.5010   36.0300 O   0  0  0  0  0  0  0  0  0  0  0  0
   44.7410   32.5550   37.4600 N   0  0  0  0  0  0  0  0  0  0  0  0
   44.0970   32.7780   36.7450 H   0  0  0  0  0  0  0  0  0  0  0  0
   41.4590   34.8380   40.5850 C   0  0  0  0  0  0  0  0  0  0  0  0
   42.8220   35.1900   40.6840 C   0  0  0  0  0  0  0  0  0  0  0  0
   43.7220   34.2160   41.0780 C   0  0  0  0  0  0  0  0  0  0  0  0
   43.2310   32.9780   41.3440 N   0  0  0  0  0  0  0  0  0  0  0  0
   41.9270   32.6550   41.2460 C   0  0  0  0  0  0  0  0  0  0  0  0
   41.0310   33.6070   40.8600 N   0  0  0  0  0  0  0  0  0  0  0  0
   43.1910   36.1730   40.4680 H   0  0  0  0  0  0  0  0  0  0  0  0
   41.5880   31.6510   41.4700 H   0  0  0  0  0  0  0  0  0  0  0  0
   40.4750   35.8690   40.1660 C   0  0  0  0  0  0  0  0  0  0  0  0
   39.2450   35.2280   39.9890 F   0  0  0  0  0  0  0  0  0  0  0  0
   40.8480   36.2960   38.9070 F   0  0  0  0  0  0  0  0  0  0  0  0
   40.3540   36.9040   41.0620 F   0  0  0  0  0  0  0  0  0  0  0  0
  1  2  1  0  0  0  0
  2  3  2  0  0  0  0
  2  7  1  0  0  0  0
  3  8  1  0  0  0  0
  4  9  1  0  0  0  0
  4  3  1  0  0  0  0
  5  4  2  0  0  0  0
  6  5  1  0  0  0  0
  6  1  2  0  0  0  0
 10  5  1  0  0  0  0
 11 12  2  0  0  0  0
 11 13  1  0  0  0  0
 13  6  1  0  0  0  0
 14 13  1  0  0  0  0
 15 16  1  0  0  0  0
 16 18  1  0  0  0  0
 17 16  2  0  0  0  0
 18 11  1  0  0  0  0
 19 18  1  0  0  0  0
 20 21  2  0  0  0  0
 20 25  1  0  0  0  0
 21 22  1  0  0  0  0
 22  1  1  0  0  0  0
 22 23  2  0  0  0  0
 24 23  1  0  0  0  0
 24 27  1  0  0  0  0
 25 24  2  0  0  0  0
 26 21  1  0  0  0  0
 28 20  1  0  0  0  0
 28 31  1  0  0  0  0
 29 28  1  0  0  0  0
 30 28  1  0  0  0  0
M  END
>  <minimizedAffinity>
-5.92597342

>  <minimizedRMSD>
0.186994866

$$$$
