
 OpenBabel03252504003D

 30 32  0  0  0  0  0  0  0  0999 V2000
   46.0270   31.6700   45.1480 C   0  0  0  0  0  0  0  0  0  0  0  0
   45.7950   32.9920   45.5280 C   0  0  0  0  0  0  0  0  0  0  0  0
   45.5260   33.2760   46.8420 C   0  0  0  0  0  0  0  0  0  0  0  0
   45.4900   32.2450   47.7590 C   0  0  0  0  0  0  0  0  0  0  0  0
   45.2560   32.2180   49.0860 N   0  0  0  0  0  0  0  0  0  0  0  0
   45.3220   30.9740   49.5650 C   0  0  0  0  0  0  0  0  0  0  0  0
   45.6130   30.1360   48.5220 C   0  0  0  0  0  0  0  0  0  0  0  0
   45.7210   30.9210   47.3820 C   0  0  0  0  0  0  0  0  0  0  0  0
   45.9890   30.6460   46.0680 C   0  0  0  0  0  0  0  0  0  0  0  0
   46.2500   31.3380   44.1230 H   0  0  0  0  0  0  0  0  0  0  0  0
   45.3480   34.3090   47.1220 H   0  0  0  0  0  0  0  0  0  0  0  0
   45.0520   33.0830   49.6260 H   0  0  0  0  0  0  0  0  0  0  0  0
   45.1600   30.7520   50.6180 H   0  0  0  0  0  0  0  0  0  0  0  0
   45.7310   29.0610   48.5960 H   0  0  0  0  0  0  0  0  0  0  0  0
   46.1610   29.6020   45.8300 H   0  0  0  0  0  0  0  0  0  0  0  0
   46.7790   34.7870   42.5110 C   0  0  0  0  0  0  0  0  0  0  0  0
   45.9440   35.9040   42.4950 C   0  0  0  0  0  0  0  0  0  0  0  0
   45.0340   36.0300   43.5420 C   0  0  0  0  0  0  0  0  0  0  0  0
   45.0140   35.0750   44.5000 N   0  0  0  0  0  0  0  0  0  0  0  0
   45.8550   33.9970   44.4710 C   0  0  0  0  0  0  0  0  0  0  0  0
   46.7380   33.8500   43.4790 N   0  0  0  0  0  0  0  0  0  0  0  0
   45.9900   36.6480   41.7110 H   0  0  0  0  0  0  0  0  0  0  0  0
   44.3700   36.8840   43.5610 H   0  0  0  0  0  0  0  0  0  0  0  0
   47.7090   34.7010   41.4000 C   0  0  0  0  0  0  0  0  0  0  0  0
   48.5570   35.5850   41.0860 O   0  0  0  0  0  0  0  0  0  0  0  0
   48.0440   32.7510   38.5170 H   0  0  0  0  0  0  0  0  0  0  0  0
   48.0440   33.6130   39.1980 C   0  0  0  0  0  0  0  0  0  0  0  0
   48.3920   34.7240   38.6810 O   0  0  0  0  0  0  0  0  0  0  0  0
   47.6830   33.5280   40.5770 N   0  0  0  0  0  0  0  0  0  0  0  0
   47.4130   32.5730   40.9050 H   0  0  0  0  0  0  0  0  0  0  0  0
  1  2  2  0  0  0  0
  1  9  1  0  0  0  0
  2  3  1  0  0  0  0
  3 11  1  0  0  0  0
  3  4  2  0  0  0  0
  4  5  1  0  0  0  0
  5  6  1  0  0  0  0
  5 12  1  0  0  0  0
  6 13  1  0  0  0  0
  7 14  1  0  0  0  0
  7  6  2  0  0  0  0
  8  4  1  0  0  0  0
  8  7  1  0  0  0  0
  9  8  2  0  0  0  0
 10  1  1  0  0  0  0
 15  9  1  0  0  0  0
 16 21  1  0  0  0  0
 17 16  2  0  0  0  0
 17 18  1  0  0  0  0
 18 23  1  0  0  0  0
 18 19  2  0  0  0  0
 20 19  1  0  0  0  0
 20  2  1  0  0  0  0
 21 20  2  0  0  0  0
 22 17  1  0  0  0  0
 24 16  1  0  0  0  0
 25 24  2  0  0  0  0
 26 27  1  0  0  0  0
 27 29  1  0  0  0  0
 28 27  2  0  0  0  0
 29 30  1  0  0  0  0
 29 24  1  0  0  0  0
M  END
>  <minimizedAffinity>
-5.81482124

>  <minimizedRMSD>
0.293141574

$$$$
