
 OpenBabel03252508013D

 25 26  0  0  1  0  0  0  0  0999 V2000
   37.1240   30.6630   40.9890 C   0  0  0  0  0  0  0  0  0  0  0  0
   36.1180   30.5490   39.9840 C   0  0  0  0  0  0  0  0  0  0  0  0
   35.3730   29.3740   40.0140 C   0  0  0  0  0  0  0  0  0  0  0  0
   35.6330   28.4430   40.9580 N   0  0  0  0  0  0  0  0  0  0  0  0
   36.6210   28.6210   41.8990 C   0  0  0  0  0  0  0  0  0  0  0  0
   37.3620   29.7090   41.9260 N   0  0  0  0  0  0  0  0  0  0  0  0
   35.9880   31.3510   39.2720 H   0  0  0  0  0  0  0  0  0  0  0  0
   34.6020   29.2450   39.2720 H   0  0  0  0  0  0  0  0  0  0  0  0
   36.8270   27.5520   42.9140 C   0  0  1  0  0  0  0  0  0  0  0  0
   37.1690   26.1560   42.4350 C   0  0  0  0  0  0  0  0  0  0  0  0
   38.2160   27.0590   43.0230 C   0  0  1  0  0  0  0  0  0  0  0  0
   36.2050   27.6120   43.8270 H   0  0  0  0  0  0  0  0  0  0  0  0
   37.0770   26.0510   41.3350 H   0  0  0  0  0  0  0  0  0  0  0  0
   36.8290   25.3160   43.0690 H   0  0  0  0  0  0  0  0  0  0  0  0
   38.6810   26.7220   43.9550 H   0  0  0  0  0  0  0  0  0  0  0  0
   39.2030   27.4650   42.0140 N   0  0  0  0  0  0  0  0  0  0  0  0
   40.1540   27.6150   42.4530 H   0  0  0  0  0  0  0  0  0  0  0  0
   39.3510   26.6750   41.3440 H   0  0  0  0  0  0  0  0  0  0  0  0
   37.8870   31.8950   40.9680 C   0  0  0  0  0  0  0  0  0  0  0  0
   39.1030   31.9750   41.3660 O   0  0  0  0  0  0  0  0  0  0  0  0
   37.6680   35.0680   39.5780 H   0  0  0  0  0  0  0  0  0  0  0  0
   38.1550   34.1610   39.8980 C   0  0  0  0  0  0  0  0  0  0  0  0
   39.3920   33.9500   39.7690 O   0  0  0  0  0  0  0  0  0  0  0  0
   37.3640   33.1400   40.5010 N   0  0  0  0  0  0  0  0  0  0  0  0
   36.3380   33.2520   40.6370 H   0  0  0  0  0  0  0  0  0  0  0  0
  1  6  1  0  0  0  0
  2  3  1  0  0  0  0
  2  1  2  0  0  0  0
  3  4  2  0  0  0  0
  4  5  1  0  0  0  0
  5  6  2  0  0  0  0
  5  9  1  0  0  0  0
  7  2  1  0  0  0  0
  8  3  1  0  0  0  0
  9 11  1  0  0  0  0
  9 12  1  1  0  0  0
 10  9  1  0  0  0  0
 10 11  1  0  0  0  0
 10 14  1  0  0  0  0
 11 15  1  1  0  0  0
 13 10  1  0  0  0  0
 16 17  1  0  0  0  0
 16 11  1  0  0  0  0
 18 16  1  0  0  0  0
 19  1  1  0  0  0  0
 19 20  2  0  0  0  0
 21 22  1  0  0  0  0
 22 24  1  0  0  0  0
 23 22  2  0  0  0  0
 24 25  1  0  0  0  0
 24 19  1  0  0  0  0
M  END
>  <minimizedAffinity>
-4.83353376

$$$$

 OpenBabel03252508013D

 25 26  0  0  1  0  0  0  0  0999 V2000
   37.8870   30.6280   40.7560 C   0  0  0  0  0  0  0  0  0  0  0  0
   36.9080   31.6480   40.5610 C   0  0  0  0  0  0  0  0  0  0  0  0
   37.3450   32.7720   39.8670 C   0  0  0  0  0  0  0  0  0  0  0  0
   38.6240   32.8330   39.4330 N   0  0  0  0  0  0  0  0  0  0  0  0
   39.5150   31.8090   39.6580 C   0  0  0  0  0  0  0  0  0  0  0  0
   39.1660   30.7190   40.3070 N   0  0  0  0  0  0  0  0  0  0  0  0
   35.9100   31.5040   40.9480 H   0  0  0  0  0  0  0  0  0  0  0  0
   36.6390   33.5670   39.6970 H   0  0  0  0  0  0  0  0  0  0  0  0
   40.8990   31.9510   39.1280 C   0  0  1  0  0  0  0  0  0  0  0  0
   41.4140   30.9040   38.1630 C   0  0  0  0  0  0  0  0  0  0  0  0
   40.9820   32.2620   37.6860 C   0  0  1  0  0  0  0  0  0  0  0  0
   41.6480   32.3870   39.8160 H   0  0  0  0  0  0  0  0  0  0  0  0
   40.7280   30.0370   38.0720 H   0  0  0  0  0  0  0  0  0  0  0  0
   42.5020   30.7090   38.1760 H   0  0  0  0  0  0  0  0  0  0  0  0
   41.7580   32.8870   37.2320 H   0  0  0  0  0  0  0  0  0  0  0  0
   39.7680   32.1810   36.8620 N   0  0  0  0  0  0  0  0  0  0  0  0
   39.7570   32.9430   36.1290 H   0  0  0  0  0  0  0  0  0  0  0  0
   39.7890   31.2920   36.3110 H   0  0  0  0  0  0  0  0  0  0  0  0
   37.4250   29.4500   41.4620 C   0  0  0  0  0  0  0  0  0  0  0  0
   37.1980   28.3280   40.8850 O   0  0  0  0  0  0  0  0  0  0  0  0
   37.1150   28.3330   44.7340 H   0  0  0  0  0  0  0  0  0  0  0  0
   37.3260   28.2570   43.6800 C   0  0  0  0  0  0  0  0  0  0  0  0
   37.6990   27.1900   43.1180 O   0  0  0  0  0  0  0  0  0  0  0  0
   37.1780   29.4190   42.8690 N   0  0  0  0  0  0  0  0  0  0  0  0
   36.8720   30.3300   43.2700 H   0  0  0  0  0  0  0  0  0  0  0  0
  1 19  1  0  0  0  0
  2  1  1  0  0  0  0
  2  7  1  0  0  0  0
  3  2  2  0  0  0  0
  4  5  2  0  0  0  0
  4  3  1  0  0  0  0
  5  6  1  0  0  0  0
  6  1  2  0  0  0  0
  8  3  1  0  0  0  0
  9  5  1  0  0  0  0
  9 12  1  1  0  0  0
 10 14  1  0  0  0  0
 10  9  1  0  0  0  0
 11 15  1  6  0  0  0
 11 10  1  0  0  0  0
 11  9  1  0  0  0  0
 13 10  1  0  0  0  0
 16 11  1  0  0  0  0
 17 16  1  0  0  0  0
 18 16  1  0  0  0  0
 19 24  1  0  0  0  0
 20 19  2  0  0  0  0
 22 21  1  0  0  0  0
 23 22  2  0  0  0  0
 24 25  1  0  0  0  0
 24 22  1  0  0  0  0
M  END
>  <minimizedAffinity>
-4.67426395

$$$$

 OpenBabel03252508013D

 25 26  0  0  1  0  0  0  0  0999 V2000
   37.2630   26.8370   41.6990 C   0  0  0  0  0  0  0  0  0  0  0  0
   37.2280   27.0260   43.1130 C   0  0  0  0  0  0  0  0  0  0  0  0
   37.4130   28.3360   43.5460 C   0  0  0  0  0  0  0  0  0  0  0  0
   37.6080   29.3180   42.6380 N   0  0  0  0  0  0  0  0  0  0  0  0
   37.6310   29.0610   41.2870 C   0  0  0  0  0  0  0  0  0  0  0  0
   37.4620   27.8450   40.8110 N   0  0  0  0  0  0  0  0  0  0  0  0
   37.0660   26.1740   43.7570 H   0  0  0  0  0  0  0  0  0  0  0  0
   37.3940   28.5250   44.6060 H   0  0  0  0  0  0  0  0  0  0  0  0
   37.8330   30.2050   40.3560 C   0  0  1  0  0  0  0  0  0  0  0  0
   36.8170   30.4290   39.2550 C   0  0  0  0  0  0  0  0  0  0  0  0
   36.8410   31.2920   40.4850 C   0  0  1  0  0  0  0  0  0  0  0  0
   38.8800   30.4600   40.1080 H   0  0  0  0  0  0  0  0  0  0  0  0
   36.0900   29.5960   39.1730 H   0  0  0  0  0  0  0  0  0  0  0  0
   37.1900   30.8900   38.3210 H   0  0  0  0  0  0  0  0  0  0  0  0
   37.0620   32.3530   40.3290 H   0  0  0  0  0  0  0  0  0  0  0  0
   35.6460   31.0800   41.3130 N   0  0  0  0  0  0  0  0  0  0  0  0
   35.3790   31.9660   41.8260 H   0  0  0  0  0  0  0  0  0  0  0  0
   34.8280   30.8880   40.6890 H   0  0  0  0  0  0  0  0  0  0  0  0
   37.0530   25.4760   41.2490 C   0  0  0  0  0  0  0  0  0  0  0  0
   36.7180   24.5200   42.0350 O   0  0  0  0  0  0  0  0  0  0  0  0
   36.6360   23.7580   38.2620 H   0  0  0  0  0  0  0  0  0  0  0  0
   36.4580   23.9950   39.2980 C   0  0  0  0  0  0  0  0  0  0  0  0
   35.6290   23.3790   40.0240 O   0  0  0  0  0  0  0  0  0  0  0  0
   37.1950   25.0620   39.8890 N   0  0  0  0  0  0  0  0  0  0  0  0
   37.8940   25.6100   39.3460 H   0  0  0  0  0  0  0  0  0  0  0  0
  1  2  1  0  0  0  0
  2  3  2  0  0  0  0
  2  7  1  0  0  0  0
  3  8  1  0  0  0  0
  4  3  1  0  0  0  0
  5  4  2  0  0  0  0
  6  5  1  0  0  0  0
  6  1  2  0  0  0  0
  9 12  1  6  0  0  0
  9 11  1  0  0  0  0
  9  5  1  0  0  0  0
 10  9  1  0  0  0  0
 10 11  1  0  0  0  0
 11 15  1  6  0  0  0
 11 16  1  0  0  0  0
 13 10  1  0  0  0  0
 14 10  1  0  0  0  0
 16 17  1  0  0  0  0
 18 16  1  0  0  0  0
 19  1  1  0  0  0  0
 19 20  2  0  0  0  0
 21 22  1  0  0  0  0
 22 24  1  0  0  0  0
 22 23  2  0  0  0  0
 24 19  1  0  0  0  0
 25 24  1  0  0  0  0
M  END
>  <minimizedAffinity>
-4.65544844

$$$$

 OpenBabel03252508013D

 25 26  0  0  1  0  0  0  0  0999 V2000
   38.1810   27.8910   42.5330 C   0  0  0  0  0  0  0  0  0  0  0  0
   39.4270   27.6860   43.1970 C   0  0  0  0  0  0  0  0  0  0  0  0
   39.7860   26.3560   43.3980 C   0  0  0  0  0  0  0  0  0  0  0  0
   38.9660   25.3720   42.9670 N   0  0  0  0  0  0  0  0  0  0  0  0
   37.7770   25.6440   42.3330 C   0  0  0  0  0  0  0  0  0  0  0  0
   37.3780   26.8790   42.1120 N   0  0  0  0  0  0  0  0  0  0  0  0
   40.0100   28.5420   43.5030 H   0  0  0  0  0  0  0  0  0  0  0  0
   40.7200   26.1550   43.8960 H   0  0  0  0  0  0  0  0  0  0  0  0
   36.9440   24.4980   41.8750 C   0  0  1  0  0  0  0  0  0  0  0  0
   36.5840   24.4080   40.4060 C   0  0  0  0  0  0  0  0  0  0  0  0
   37.6450   23.5300   41.0070 C   0  0  1  0  0  0  0  0  0  0  0  0
   36.1800   24.1300   42.5850 H   0  0  0  0  0  0  0  0  0  0  0  0
   36.8690   25.3200   39.8430 H   0  0  0  0  0  0  0  0  0  0  0  0
   35.6220   23.9220   40.1600 H   0  0  0  0  0  0  0  0  0  0  0  0
   37.4470   22.4530   40.9970 H   0  0  0  0  0  0  0  0  0  0  0  0
   38.9780   23.8640   40.4870 N   0  0  0  0  0  0  0  0  0  0  0  0
   39.5970   23.0080   40.4530 H   0  0  0  0  0  0  0  0  0  0  0  0
   38.8890   24.1580   39.4870 H   0  0  0  0  0  0  0  0  0  0  0  0
   37.8170   29.2760   42.3090 C   0  0  0  0  0  0  0  0  0  0  0  0
   38.6330   30.2510   42.4680 O   0  0  0  0  0  0  0  0  0  0  0  0
   35.2480   31.0850   40.8350 H   0  0  0  0  0  0  0  0  0  0  0  0
   36.2660   30.8530   41.1010 C   0  0  0  0  0  0  0  0  0  0  0  0
   37.2560   31.5530   40.7520 O   0  0  0  0  0  0  0  0  0  0  0  0
   36.5160   29.6930   41.8900 N   0  0  0  0  0  0  0  0  0  0  0  0
   35.7430   29.0730   42.2120 H   0  0  0  0  0  0  0  0  0  0  0  0
  1  2  1  0  0  0  0
  2  3  2  0  0  0  0
  2  7  1  0  0  0  0
  3  8  1  0  0  0  0
  4  3  1  0  0  0  0
  5  4  2  0  0  0  0
  6  5  1  0  0  0  0
  6  1  2  0  0  0  0
  9  5  1  0  0  0  0
  9 12  1  1  0  0  0
 10 11  1  0  0  0  0
 10  9  1  0  0  0  0
 11 15  1  1  0  0  0
 11  9  1  0  0  0  0
 13 10  1  0  0  0  0
 14 10  1  0  0  0  0
 16 11  1  0  0  0  0
 17 16  1  0  0  0  0
 18 16  1  0  0  0  0
 19 20  2  0  0  0  0
 19  1  1  0  0  0  0
 21 22  1  0  0  0  0
 22 24  1  0  0  0  0
 23 22  2  0  0  0  0
 24 25  1  0  0  0  0
 24 19  1  0  0  0  0
M  END
>  <minimizedAffinity>
-4.64869833

$$$$

 OpenBabel03252508013D

 25 26  0  0  1  0  0  0  0  0999 V2000
   38.2220   24.8480   42.2190 C   0  0  0  0  0  0  0  0  0  0  0  0
   39.4970   24.4840   42.7470 C   0  0  0  0  0  0  0  0  0  0  0  0
   40.1380   25.4680   43.4940 C   0  0  0  0  0  0  0  0  0  0  0  0
   39.5400   26.6660   43.6730 N   0  0  0  0  0  0  0  0  0  0  0  0
   38.3060   26.9480   43.1330 C   0  0  0  0  0  0  0  0  0  0  0  0
   37.6470   26.0630   42.4160 N   0  0  0  0  0  0  0  0  0  0  0  0
   39.8910   23.4980   42.5460 H   0  0  0  0  0  0  0  0  0  0  0  0
   41.1040   25.2360   43.9110 H   0  0  0  0  0  0  0  0  0  0  0  0
   37.7120   28.2880   43.3950 C   0  0  1  0  0  0  0  0  0  0  0  0
   38.4750   29.5170   42.9450 C   0  0  0  0  0  0  0  0  0  0  0  0
   37.2750   29.0190   42.1880 C   0  0  1  0  0  0  0  0  0  0  0  0
   37.1290   28.3950   44.3290 H   0  0  0  0  0  0  0  0  0  0  0  0
   39.4970   29.2750   42.5900 H   0  0  0  0  0  0  0  0  0  0  0  0
   38.3340   30.4360   43.5440 H   0  0  0  0  0  0  0  0  0  0  0  0
   36.4120   29.6910   42.1520 H   0  0  0  0  0  0  0  0  0  0  0  0
   37.6500   28.5090   40.8630 N   0  0  0  0  0  0  0  0  0  0  0  0
   36.8700   28.6590   40.1640 H   0  0  0  0  0  0  0  0  0  0  0  0
   38.4440   29.0790   40.4890 H   0  0  0  0  0  0  0  0  0  0  0  0
   37.5480   23.8170   41.4560 C   0  0  0  0  0  0  0  0  0  0  0  0
   36.3340   23.9190   41.0570 O   0  0  0  0  0  0  0  0  0  0  0  0
   38.3550   20.9430   39.6860 H   0  0  0  0  0  0  0  0  0  0  0  0
   37.8320   21.8620   39.8910 C   0  0  0  0  0  0  0  0  0  0  0  0
   36.9350   22.3370   39.1410 O   0  0  0  0  0  0  0  0  0  0  0  0
   38.1660   22.5880   41.0710 N   0  0  0  0  0  0  0  0  0  0  0  0
   38.8960   22.2500   41.7320 H   0  0  0  0  0  0  0  0  0  0  0  0
  1  6  2  0  0  0  0
  1  2  1  0  0  0  0
  2  3  2  0  0  0  0
  3  4  1  0  0  0  0
  3  8  1  0  0  0  0
  5  9  1  0  0  0  0
  5  4  2  0  0  0  0
  6  5  1  0  0  0  0
  7  2  1  0  0  0  0
  9 12  1  1  0  0  0
 10  9  1  0  0  0  0
 10 14  1  0  0  0  0
 11 15  1  1  0  0  0
 11 10  1  0  0  0  0
 11  9  1  0  0  0  0
 13 10  1  0  0  0  0
 16 11  1  0  0  0  0
 17 16  1  0  0  0  0
 18 16  1  0  0  0  0
 19  1  1  0  0  0  0
 20 19  2  0  0  0  0
 21 22  1  0  0  0  0
 22 24  1  0  0  0  0
 23 22  2  0  0  0  0
 24 19  1  0  0  0  0
 24 25  1  0  0  0  0
M  END
>  <minimizedAffinity>
-4.54082346

$$$$

 OpenBabel03252508013D

 25 26  0  0  1  0  0  0  0  0999 V2000
   36.8220   30.3350   40.4230 C   0  0  0  0  0  0  0  0  0  0  0  0
   36.5910   29.8330   39.1070 C   0  0  0  0  0  0  0  0  0  0  0  0
   36.8510   30.7260   38.0720 C   0  0  0  0  0  0  0  0  0  0  0  0
   37.2920   31.9710   38.3590 N   0  0  0  0  0  0  0  0  0  0  0  0
   37.4920   32.3880   39.6550 C   0  0  0  0  0  0  0  0  0  0  0  0
   37.2650   31.5930   40.6800 N   0  0  0  0  0  0  0  0  0  0  0  0
   36.2370   28.8200   38.9820 H   0  0  0  0  0  0  0  0  0  0  0  0
   36.6900   30.3890   37.0620 H   0  0  0  0  0  0  0  0  0  0  0  0
   37.9970   33.7700   39.8790 C   0  0  1  0  0  0  0  0  0  0  0  0
   38.9200   34.0200   41.0540 C   0  0  0  0  0  0  0  0  0  0  0  0
   39.4460   33.9460   39.6490 C   0  0  1  0  0  0  0  0  0  0  0  0
   37.3070   34.5950   39.6210 H   0  0  0  0  0  0  0  0  0  0  0  0
   38.9990   33.1410   41.7260 H   0  0  0  0  0  0  0  0  0  0  0  0
   38.8780   35.0250   41.5140 H   0  0  0  0  0  0  0  0  0  0  0  0
   39.9020   34.8590   39.2530 H   0  0  0  0  0  0  0  0  0  0  0  0
   40.2920   32.7610   39.4530 N   0  0  0  0  0  0  0  0  0  0  0  0
   41.0480   32.9490   38.7380 H   0  0  0  0  0  0  0  0  0  0  0  0
   40.8160   32.5660   40.3370 H   0  0  0  0  0  0  0  0  0  0  0  0
   36.5680   29.3990   41.4990 C   0  0  0  0  0  0  0  0  0  0  0  0
   35.8400   28.3520   41.3620 O   0  0  0  0  0  0  0  0  0  0  0  0
   37.8070   28.6660   44.6570 H   0  0  0  0  0  0  0  0  0  0  0  0
   37.4070   28.4530   43.6790 C   0  0  0  0  0  0  0  0  0  0  0  0
   37.1930   27.2850   43.2510 O   0  0  0  0  0  0  0  0  0  0  0  0
   37.1010   29.5450   42.8160 N   0  0  0  0  0  0  0  0  0  0  0  0
   37.2540   30.5330   43.1090 H   0  0  0  0  0  0  0  0  0  0  0  0
  1  6  1  0  0  0  0
  1 19  1  0  0  0  0
  2  1  2  0  0  0  0
  3  4  2  0  0  0  0
  3  2  1  0  0  0  0
  4  5  1  0  0  0  0
  5  9  1  0  0  0  0
  5  6  2  0  0  0  0
  7  2  1  0  0  0  0
  8  3  1  0  0  0  0
  9 12  1  6  0  0  0
  9 10  1  0  0  0  0
 10 14  1  0  0  0  0
 10 13  1  0  0  0  0
 11 15  1  6  0  0  0
 11  9  1  0  0  0  0
 11 10  1  0  0  0  0
 16 11  1  0  0  0  0
 16 18  1  0  0  0  0
 17 16  1  0  0  0  0
 19 24  1  0  0  0  0
 20 19  2  0  0  0  0
 22 21  1  0  0  0  0
 23 22  2  0  0  0  0
 24 25  1  0  0  0  0
 24 22  1  0  0  0  0
M  END
>  <minimizedAffinity>
-4.49677563

$$$$

 OpenBabel03252508013D

 25 26  0  0  1  0  0  0  0  0999 V2000
   38.8590   31.1690   41.3210 C   0  0  0  0  0  0  0  0  0  0  0  0
   37.7440   31.5030   40.4960 C   0  0  0  0  0  0  0  0  0  0  0  0
   36.5790   30.7830   40.7430 C   0  0  0  0  0  0  0  0  0  0  0  0
   36.5690   29.8430   41.7140 N   0  0  0  0  0  0  0  0  0  0  0  0
   37.6840   29.5730   42.4730 C   0  0  0  0  0  0  0  0  0  0  0  0
   38.8180   30.2170   42.2900 N   0  0  0  0  0  0  0  0  0  0  0  0
   37.8540   32.2720   39.7440 H   0  0  0  0  0  0  0  0  0  0  0  0
   35.7120   31.0030   40.1430 H   0  0  0  0  0  0  0  0  0  0  0  0
   37.5800   28.5340   43.5340 C   0  0  1  0  0  0  0  0  0  0  0  0
   36.6080   27.3900   43.3320 C   0  0  0  0  0  0  0  0  0  0  0  0
   38.0870   27.2010   43.1500 C   0  0  1  0  0  0  0  0  0  0  0  0
   37.7110   28.8800   44.5770 H   0  0  0  0  0  0  0  0  0  0  0  0
   35.9530   27.5410   42.4500 H   0  0  0  0  0  0  0  0  0  0  0  0
   36.1620   26.9500   44.2430 H   0  0  0  0  0  0  0  0  0  0  0  0
   38.5760   26.5040   43.8380 H   0  0  0  0  0  0  0  0  0  0  0  0
   38.4270   26.9390   41.7450 N   0  0  0  0  0  0  0  0  0  0  0  0
   39.2770   26.3140   41.6710 H   0  0  0  0  0  0  0  0  0  0  0  0
   37.6570   26.3810   41.3070 H   0  0  0  0  0  0  0  0  0  0  0  0
   40.0650   31.9320   41.0750 C   0  0  0  0  0  0  0  0  0  0  0  0
   41.1920   31.3920   40.7880 O   0  0  0  0  0  0  0  0  0  0  0  0
   40.9830   35.2210   40.4540 H   0  0  0  0  0  0  0  0  0  0  0  0
   41.0150   34.1500   40.3460 C   0  0  0  0  0  0  0  0  0  0  0  0
   41.8040   33.5510   39.5630 O   0  0  0  0  0  0  0  0  0  0  0  0
   40.1220   33.3590   41.1250 N   0  0  0  0  0  0  0  0  0  0  0  0
   39.4480   33.7910   41.7900 H   0  0  0  0  0  0  0  0  0  0  0  0
  1  6  1  0  0  0  0
  2  3  1  0  0  0  0
  2  1  2  0  0  0  0
  3  4  2  0  0  0  0
  4  5  1  0  0  0  0
  5  9  1  0  0  0  0
  6  5  2  0  0  0  0
  7  2  1  0  0  0  0
  8  3  1  0  0  0  0
  9 12  1  1  0  0  0
 10  9  1  0  0  0  0
 10 14  1  0  0  0  0
 11 10  1  0  0  0  0
 11  9  1  0  0  0  0
 11 15  1  1  0  0  0
 13 10  1  0  0  0  0
 16 11  1  0  0  0  0
 17 16  1  0  0  0  0
 18 16  1  0  0  0  0
 19 24  1  0  0  0  0
 19  1  1  0  0  0  0
 20 19  2  0  0  0  0
 22 21  1  0  0  0  0
 22 24  1  0  0  0  0
 23 22  2  0  0  0  0
 24 25  1  0  0  0  0
M  END
>  <minimizedAffinity>
-4.45942688

$$$$

 OpenBabel03252508013D

 25 26  0  0  1  0  0  0  0  0999 V2000
   38.2050   28.4220   42.0510 C   0  0  0  0  0  0  0  0  0  0  0  0
   38.9440   29.1740   43.0120 C   0  0  0  0  0  0  0  0  0  0  0  0
   39.3580   30.4360   42.5960 C   0  0  0  0  0  0  0  0  0  0  0  0
   39.0470   30.8630   41.3520 N   0  0  0  0  0  0  0  0  0  0  0  0
   38.3290   30.0820   40.4760 C   0  0  0  0  0  0  0  0  0  0  0  0
   37.9080   28.8800   40.8070 N   0  0  0  0  0  0  0  0  0  0  0  0
   39.1420   28.7420   43.9830 H   0  0  0  0  0  0  0  0  0  0  0  0
   39.9200   31.0370   43.2900 H   0  0  0  0  0  0  0  0  0  0  0  0
   38.0140   30.6390   39.1320 C   0  0  1  0  0  0  0  0  0  0  0  0
   36.5660   30.6910   38.6920 C   0  0  0  0  0  0  0  0  0  0  0  0
   37.2890   31.9260   39.1480 C   0  0  1  0  0  0  0  0  0  0  0  0
   38.7570   30.4500   38.3340 H   0  0  0  0  0  0  0  0  0  0  0  0
   35.8920   30.1500   39.3880 H   0  0  0  0  0  0  0  0  0  0  0  0
   36.3730   30.6040   37.6070 H   0  0  0  0  0  0  0  0  0  0  0  0
   37.4170   32.7170   38.4020 H   0  0  0  0  0  0  0  0  0  0  0  0
   36.7450   32.4290   40.4170 N   0  0  0  0  0  0  0  0  0  0  0  0
   36.8310   33.4820   40.4750 H   0  0  0  0  0  0  0  0  0  0  0  0
   35.7140   32.2530   40.4400 H   0  0  0  0  0  0  0  0  0  0  0  0
   37.7600   27.1160   42.4930 C   0  0  0  0  0  0  0  0  0  0  0  0
   36.6340   26.9160   43.0730 O   0  0  0  0  0  0  0  0  0  0  0  0
   38.6200   23.7840   42.0410 H   0  0  0  0  0  0  0  0  0  0  0  0
   37.9580   24.6260   42.1600 C   0  0  0  0  0  0  0  0  0  0  0  0
   36.6990   24.5290   42.1620 O   0  0  0  0  0  0  0  0  0  0  0  0
   38.5260   25.9220   42.3250 N   0  0  0  0  0  0  0  0  0  0  0  0
   39.5560   26.0700   42.3340 H   0  0  0  0  0  0  0  0  0  0  0  0
  1 19  1  0  0  0  0
  1  2  1  0  0  0  0
  2  7  1  0  0  0  0
  3  2  2  0  0  0  0
  3  8  1  0  0  0  0
  4  3  1  0  0  0  0
  5  6  1  0  0  0  0
  5  4  2  0  0  0  0
  6  1  2  0  0  0  0
  9 12  1  6  0  0  0
  9 11  1  0  0  0  0
  9  5  1  0  0  0  0
 10  9  1  0  0  0  0
 10 11  1  0  0  0  0
 10 13  1  0  0  0  0
 11 15  1  6  0  0  0
 11 16  1  0  0  0  0
 14 10  1  0  0  0  0
 16 18  1  0  0  0  0
 16 17  1  0  0  0  0
 19 20  2  0  0  0  0
 21 22  1  0  0  0  0
 22 23  2  0  0  0  0
 22 24  1  0  0  0  0
 24 25  1  0  0  0  0
 24 19  1  0  0  0  0
M  END
>  <minimizedAffinity>
-4.45517826

$$$$

 OpenBabel03252508013D

 25 26  0  0  1  0  0  0  0  0999 V2000
   37.3630   28.8200   41.6250 C   0  0  0  0  0  0  0  0  0  0  0  0
   38.4670   29.1920   42.4470 C   0  0  0  0  0  0  0  0  0  0  0  0
   39.0190   28.1660   43.2100 C   0  0  0  0  0  0  0  0  0  0  0  0
   38.4970   26.9220   43.1300 N   0  0  0  0  0  0  0  0  0  0  0  0
   37.4270   26.6350   42.3140 C   0  0  0  0  0  0  0  0  0  0  0  0
   36.8600   27.5590   41.5680 N   0  0  0  0  0  0  0  0  0  0  0  0
   38.8110   30.2170   42.4400 H   0  0  0  0  0  0  0  0  0  0  0  0
   39.8550   28.4030   43.8450 H   0  0  0  0  0  0  0  0  0  0  0  0
   36.9280   25.2330   42.2740 C   0  0  1  0  0  0  0  0  0  0  0  0
   36.8890   24.5180   40.9400 C   0  0  0  0  0  0  0  0  0  0  0  0
   37.9540   24.2190   41.9570 C   0  0  1  0  0  0  0  0  0  0  0  0
   36.1200   24.9770   42.9850 H   0  0  0  0  0  0  0  0  0  0  0  0
   37.1050   25.1950   40.0890 H   0  0  0  0  0  0  0  0  0  0  0  0
   36.1010   23.7530   40.8090 H   0  0  0  0  0  0  0  0  0  0  0  0
   37.9640   23.2020   42.3630 H   0  0  0  0  0  0  0  0  0  0  0  0
   39.2770   24.6550   41.4930 N   0  0  0  0  0  0  0  0  0  0  0  0
   40.0390   24.0290   41.8770 H   0  0  0  0  0  0  0  0  0  0  0  0
   39.3360   24.5250   40.4560 H   0  0  0  0  0  0  0  0  0  0  0  0
   36.8010   29.8850   40.8190 C   0  0  0  0  0  0  0  0  0  0  0  0
   36.1300   30.8600   41.3110 O   0  0  0  0  0  0  0  0  0  0  0  0
   37.0810   31.1290   37.5910 H   0  0  0  0  0  0  0  0  0  0  0  0
   36.9740   31.1770   38.6620 C   0  0  0  0  0  0  0  0  0  0  0  0
   36.8750   32.2580   39.3060 O   0  0  0  0  0  0  0  0  0  0  0  0
   36.9400   29.9580   39.3980 N   0  0  0  0  0  0  0  0  0  0  0  0
   37.0150   29.0330   38.9280 H   0  0  0  0  0  0  0  0  0  0  0  0
  1  2  1  0  0  0  0
  2  3  2  0  0  0  0
  3  8  1  0  0  0  0
  4  3  1  0  0  0  0
  5  4  2  0  0  0  0
  6  1  2  0  0  0  0
  6  5  1  0  0  0  0
  7  2  1  0  0  0  0
  9  5  1  0  0  0  0
  9 12  1  1  0  0  0
 10 11  1  0  0  0  0
 10  9  1  0  0  0  0
 11  9  1  0  0  0  0
 11 15  1  1  0  0  0
 13 10  1  0  0  0  0
 14 10  1  0  0  0  0
 16 17  1  0  0  0  0
 16 11  1  0  0  0  0
 18 16  1  0  0  0  0
 19 20  2  0  0  0  0
 19  1  1  0  0  0  0
 21 22  1  0  0  0  0
 22 23  2  0  0  0  0
 22 24  1  0  0  0  0
 24 19  1  0  0  0  0
 25 24  1  0  0  0  0
M  END
>  <minimizedAffinity>
-4.31282806

$$$$
