
 OpenBabel03252502283D

 31 32  0  0  0  0  0  0  0  0999 V2000
   45.1340   34.4440   41.2520 C   0  0  0  0  0  0  0  0  0  0  0  0
   45.5240   35.1100   42.4030 C   0  0  0  0  0  0  0  0  0  0  0  0
   46.8880   35.3430   42.5830 C   0  0  0  0  0  0  0  0  0  0  0  0
   47.8070   34.9180   41.6360 C   0  0  0  0  0  0  0  0  0  0  0  0
   47.4220   34.2640   40.5050 C   0  0  0  0  0  0  0  0  0  0  0  0
   46.0590   34.0450   40.3490 C   0  0  0  0  0  0  0  0  0  0  0  0
   44.7810   35.4350   43.1330 H   0  0  0  0  0  0  0  0  0  0  0  0
   47.1500   35.8640   43.4880 H   0  0  0  0  0  0  0  0  0  0  0  0
   48.8590   35.1210   41.8170 H   0  0  0  0  0  0  0  0  0  0  0  0
   48.1160   33.9130   39.7370 H   0  0  0  0  0  0  0  0  0  0  0  0
   45.4350   32.0080   38.7820 C   0  0  0  0  0  0  0  0  0  0  0  0
   45.8750   31.0580   39.3650 O   0  0  0  0  0  0  0  0  0  0  0  0
   45.5520   33.4030   39.1820 N   0  0  0  0  0  0  0  0  0  0  0  0
   45.2910   34.3150   38.6550 H   0  0  0  0  0  0  0  0  0  0  0  0
   45.9740   33.8760   35.9960 H   0  0  0  0  0  0  0  0  0  0  0  0
   45.5140   33.2170   36.7550 C   0  0  0  0  0  0  0  0  0  0  0  0
   46.6840   33.6180   37.0670 O   0  0  0  0  0  0  0  0  0  0  0  0
   44.6990   32.3180   37.6260 N   0  0  0  0  0  0  0  0  0  0  0  0
   44.1830   32.5370   36.8130 H   0  0  0  0  0  0  0  0  0  0  0  0
   41.4400   34.8390   40.5790 C   0  0  0  0  0  0  0  0  0  0  0  0
   42.8030   35.1900   40.6740 C   0  0  0  0  0  0  0  0  0  0  0  0
   43.7000   34.2240   41.0940 C   0  0  0  0  0  0  0  0  0  0  0  0
   43.2070   32.9940   41.3870 N   0  0  0  0  0  0  0  0  0  0  0  0
   41.9020   32.6710   41.2920 C   0  0  0  0  0  0  0  0  0  0  0  0
   41.0090   33.6150   40.8810 N   0  0  0  0  0  0  0  0  0  0  0  0
   43.1750   36.1680   40.4370 H   0  0  0  0  0  0  0  0  0  0  0  0
   41.5600   31.6730   41.5380 H   0  0  0  0  0  0  0  0  0  0  0  0
   40.4590   35.8610   40.1330 C   0  0  0  0  0  0  0  0  0  0  0  0
   39.2390   35.2100   39.9260 F   0  0  0  0  0  0  0  0  0  0  0  0
   40.8600   36.2890   38.8830 F   0  0  0  0  0  0  0  0  0  0  0  0
   40.3070   36.8960   41.0240 F   0  0  0  0  0  0  0  0  0  0  0  0
  1  2  1  0  0  0  0
  2  3  2  0  0  0  0
  2  7  1  0  0  0  0
  3  8  1  0  0  0  0
  4  9  1  0  0  0  0
  4  3  1  0  0  0  0
  5  4  2  0  0  0  0
  6  5  1  0  0  0  0
  6  1  2  0  0  0  0
 10  5  1  0  0  0  0
 11 13  1  0  0  0  0
 11 12  2  0  0  0  0
 13  6  1  0  0  0  0
 14 13  1  0  0  0  0
 15 16  1  0  0  0  0
 16 17  2  0  0  0  0
 16 18  1  0  0  0  0
 18 11  1  0  0  0  0
 19 18  1  0  0  0  0
 20 21  2  0  0  0  0
 20 25  1  0  0  0  0
 21 22  1  0  0  0  0
 22  1  1  0  0  0  0
 22 23  2  0  0  0  0
 24 23  1  0  0  0  0
 24 27  1  0  0  0  0
 25 24  2  0  0  0  0
 26 21  1  0  0  0  0
 28 20  1  0  0  0  0
 28 31  1  0  0  0  0
 29 28  1  0  0  0  0
 30 28  1  0  0  0  0
M  END
>  <minimizedAffinity>
-6.05481005

>  <minimizedRMSD>
0.150178179

$$$$
