
 OpenBabel03252504003D

 30 32  0  0  0  0  0  0  0  0999 V2000
   46.1130   31.4770   45.0990 C   0  0  0  0  0  0  0  0  0  0  0  0
   45.9970   32.8310   45.4150 C   0  0  0  0  0  0  0  0  0  0  0  0
   45.7140   33.1990   46.7060 C   0  0  0  0  0  0  0  0  0  0  0  0
   45.5510   32.2180   47.6630 C   0  0  0  0  0  0  0  0  0  0  0  0
   45.2730   32.2740   48.9800 N   0  0  0  0  0  0  0  0  0  0  0  0
   45.2040   31.0530   49.5140 C   0  0  0  0  0  0  0  0  0  0  0  0
   45.4480   30.1440   48.5180 C   0  0  0  0  0  0  0  0  0  0  0  0
   45.6660   30.8630   47.3510 C   0  0  0  0  0  0  0  0  0  0  0  0
   45.9490   30.5040   46.0600 C   0  0  0  0  0  0  0  0  0  0  0  0
   46.3360   31.0790   44.0990 H   0  0  0  0  0  0  0  0  0  0  0  0
   45.6270   34.2560   46.9350 H   0  0  0  0  0  0  0  0  0  0  0  0
   45.1350   33.1770   49.4760 H   0  0  0  0  0  0  0  0  0  0  0  0
   44.9880   30.8950   50.5690 H   0  0  0  0  0  0  0  0  0  0  0  0
   45.4600   29.0670   48.6420 H   0  0  0  0  0  0  0  0  0  0  0  0
   46.0280   29.4400   45.8730 H   0  0  0  0  0  0  0  0  0  0  0  0
   47.5310   34.7220   42.7020 C   0  0  0  0  0  0  0  0  0  0  0  0
   46.5120   35.5660   42.2600 C   0  0  0  0  0  0  0  0  0  0  0  0
   45.2850   35.4730   42.9120 C   0  0  0  0  0  0  0  0  0  0  0  0
   45.1550   34.5830   43.9230 N   0  0  0  0  0  0  0  0  0  0  0  0
   46.1860   33.7770   44.3190 C   0  0  0  0  0  0  0  0  0  0  0  0
   47.3740   33.8440   43.7120 N   0  0  0  0  0  0  0  0  0  0  0  0
   46.6550   36.2660   41.4470 H   0  0  0  0  0  0  0  0  0  0  0  0
   44.4720   36.1120   42.5950 H   0  0  0  0  0  0  0  0  0  0  0  0
   48.7890   34.8560   41.9910 C   0  0  0  0  0  0  0  0  0  0  0  0
   49.9290   34.9450   42.5310 O   0  0  0  0  0  0  0  0  0  0  0  0
   48.1880   33.7550   38.7260 H   0  0  0  0  0  0  0  0  0  0  0  0
   48.2340   33.7870   39.8230 C   0  0  0  0  0  0  0  0  0  0  0  0
   47.7780   32.7600   40.4250 O   0  0  0  0  0  0  0  0  0  0  0  0
   48.7640   34.8910   40.5580 N   0  0  0  0  0  0  0  0  0  0  0  0
   49.1130   35.6830   39.9730 H   0  0  0  0  0  0  0  0  0  0  0  0
  1  2  2  0  0  0  0
  1  9  1  0  0  0  0
  2  3  1  0  0  0  0
  3 11  1  0  0  0  0
  3  4  2  0  0  0  0
  4  5  1  0  0  0  0
  5 12  1  0  0  0  0
  5  6  1  0  0  0  0
  6 13  1  0  0  0  0
  7 14  1  0  0  0  0
  7  6  2  0  0  0  0
  8  4  1  0  0  0  0
  8  7  1  0  0  0  0
  9  8  2  0  0  0  0
 10  1  1  0  0  0  0
 15  9  1  0  0  0  0
 16 21  1  0  0  0  0
 17 16  2  0  0  0  0
 17 18  1  0  0  0  0
 18 19  2  0  0  0  0
 19 20  1  0  0  0  0
 20  2  1  0  0  0  0
 21 20  2  0  0  0  0
 22 17  1  0  0  0  0
 23 18  1  0  0  0  0
 24 25  2  0  0  0  0
 24 16  1  0  0  0  0
 26 27  1  0  0  0  0
 27 28  2  0  0  0  0
 27 29  1  0  0  0  0
 29 24  1  0  0  0  0
 30 29  1  0  0  0  0
M  END
>  <minimizedAffinity>
-6.0707283

>  <minimizedRMSD>
0.894504607

$$$$
