
 OpenBabel03252504013D

 30 32  0  0  0  0  0  0  0  0999 V2000
   46.0770   31.6900   45.0940 C   0  0  0  0  0  0  0  0  0  0  0  0
   45.8330   33.0110   45.4680 C   0  0  0  0  0  0  0  0  0  0  0  0
   45.5570   33.2980   46.7810 C   0  0  0  0  0  0  0  0  0  0  0  0
   45.5280   32.2700   47.7010 C   0  0  0  0  0  0  0  0  0  0  0  0
   45.2890   32.2460   49.0280 N   0  0  0  0  0  0  0  0  0  0  0  0
   45.3650   31.0050   49.5120 C   0  0  0  0  0  0  0  0  0  0  0  0
   45.6670   30.1650   48.4730 C   0  0  0  0  0  0  0  0  0  0  0  0
   45.7710   30.9470   47.3310 C   0  0  0  0  0  0  0  0  0  0  0  0
   46.0460   30.6690   46.0180 C   0  0  0  0  0  0  0  0  0  0  0  0
   46.3060   31.3560   44.0710 H   0  0  0  0  0  0  0  0  0  0  0  0
   45.3690   34.3300   47.0560 H   0  0  0  0  0  0  0  0  0  0  0  0
   45.0770   33.1110   49.5650 H   0  0  0  0  0  0  0  0  0  0  0  0
   45.2020   30.7850   50.5650 H   0  0  0  0  0  0  0  0  0  0  0  0
   45.7950   29.0920   48.5510 H   0  0  0  0  0  0  0  0  0  0  0  0
   46.2270   29.6260   45.7850 H   0  0  0  0  0  0  0  0  0  0  0  0
   46.9660   34.9600   42.6040 C   0  0  0  0  0  0  0  0  0  0  0  0
   45.9600   35.9090   42.4210 C   0  0  0  0  0  0  0  0  0  0  0  0
   44.8820   35.8670   43.3020 C   0  0  0  0  0  0  0  0  0  0  0  0
   44.8740   34.9220   44.2710 N   0  0  0  0  0  0  0  0  0  0  0  0
   45.8870   34.0130   44.4080 C   0  0  0  0  0  0  0  0  0  0  0  0
   46.9330   34.0290   43.5770 N   0  0  0  0  0  0  0  0  0  0  0  0
   46.0020   36.6500   41.6340 H   0  0  0  0  0  0  0  0  0  0  0  0
   44.0830   36.5880   43.1900 H   0  0  0  0  0  0  0  0  0  0  0  0
   48.0660   35.0440   41.6610 C   0  0  0  0  0  0  0  0  0  0  0  0
   48.9800   35.9180   41.6800 O   0  0  0  0  0  0  0  0  0  0  0  0
   48.9640   32.0680   40.0590 H   0  0  0  0  0  0  0  0  0  0  0  0
   48.8670   32.8530   40.8220 C   0  0  0  0  0  0  0  0  0  0  0  0
   49.4470   32.6190   41.9320 O   0  0  0  0  0  0  0  0  0  0  0  0
   48.1460   34.0680   40.6140 N   0  0  0  0  0  0  0  0  0  0  0  0
   47.7070   34.1650   39.6710 H   0  0  0  0  0  0  0  0  0  0  0  0
  1  2  2  0  0  0  0
  1  9  1  0  0  0  0
  2  3  1  0  0  0  0
  3 11  1  0  0  0  0
  3  4  2  0  0  0  0
  4  5  1  0  0  0  0
  5  6  1  0  0  0  0
  5 12  1  0  0  0  0
  6 13  1  0  0  0  0
  7 14  1  0  0  0  0
  7  6  2  0  0  0  0
  8  4  1  0  0  0  0
  8  7  1  0  0  0  0
  9  8  2  0  0  0  0
 10  1  1  0  0  0  0
 15  9  1  0  0  0  0
 16 21  1  0  0  0  0
 17 16  2  0  0  0  0
 17 18  1  0  0  0  0
 18 19  2  0  0  0  0
 19 20  1  0  0  0  0
 20  2  1  0  0  0  0
 21 20  2  0  0  0  0
 22 17  1  0  0  0  0
 23 18  1  0  0  0  0
 24 25  2  0  0  0  0
 24 16  1  0  0  0  0
 26 27  1  0  0  0  0
 27 28  2  0  0  0  0
 29 27  1  0  0  0  0
 29 24  1  0  0  0  0
 30 29  1  0  0  0  0
M  END
>  <minimizedAffinity>
-5.75633478

>  <minimizedRMSD>
0.158229485

$$$$
