
 OpenBabel03252502283D

 31 32  0  0  0  0  0  0  0  0999 V2000
   45.1470   34.4330   41.2380 C   0  0  0  0  0  0  0  0  0  0  0  0
   45.5500   35.0200   42.4270 C   0  0  0  0  0  0  0  0  0  0  0  0
   46.9160   35.2460   42.6040 C   0  0  0  0  0  0  0  0  0  0  0  0
   47.8230   34.8910   41.6180 C   0  0  0  0  0  0  0  0  0  0  0  0
   47.4250   34.3150   40.4510 C   0  0  0  0  0  0  0  0  0  0  0  0
   46.0610   34.1010   40.2980 C   0  0  0  0  0  0  0  0  0  0  0  0
   44.8170   35.2910   43.1880 H   0  0  0  0  0  0  0  0  0  0  0  0
   47.1880   35.7060   43.5390 H   0  0  0  0  0  0  0  0  0  0  0  0
   48.8770   35.0870   41.7980 H   0  0  0  0  0  0  0  0  0  0  0  0
   48.1100   34.0210   39.6510 H   0  0  0  0  0  0  0  0  0  0  0  0
   45.4680   32.1780   38.5820 C   0  0  0  0  0  0  0  0  0  0  0  0
   45.9680   31.2030   39.0670 O   0  0  0  0  0  0  0  0  0  0  0  0
   45.5410   33.5380   39.0970 N   0  0  0  0  0  0  0  0  0  0  0  0
   45.2230   34.4790   38.6590 H   0  0  0  0  0  0  0  0  0  0  0  0
   44.0800   30.5630   35.9340 H   0  0  0  0  0  0  0  0  0  0  0  0
   44.3900   31.3450   36.6540 C   0  0  0  0  0  0  0  0  0  0  0  0
   44.8240   30.1790   36.9420 O   0  0  0  0  0  0  0  0  0  0  0  0
   44.6800   32.5520   37.4810 N   0  0  0  0  0  0  0  0  0  0  0  0
   44.1260   32.8160   36.7060 H   0  0  0  0  0  0  0  0  0  0  0  0
   41.4500   34.8440   40.5910 C   0  0  0  0  0  0  0  0  0  0  0  0
   42.8150   35.1920   40.6840 C   0  0  0  0  0  0  0  0  0  0  0  0
   43.7120   34.2180   41.0850 C   0  0  0  0  0  0  0  0  0  0  0  0
   43.2180   32.9850   41.3630 N   0  0  0  0  0  0  0  0  0  0  0  0
   41.9120   32.6650   41.2720 C   0  0  0  0  0  0  0  0  0  0  0  0
   41.0190   33.6170   40.8780 N   0  0  0  0  0  0  0  0  0  0  0  0
   43.1870   36.1720   40.4580 H   0  0  0  0  0  0  0  0  0  0  0  0
   41.5700   31.6640   41.5050 H   0  0  0  0  0  0  0  0  0  0  0  0
   40.4690   35.8740   40.1640 C   0  0  0  0  0  0  0  0  0  0  0  0
   39.2400   35.2330   39.9810 F   0  0  0  0  0  0  0  0  0  0  0  0
   40.8500   36.3000   38.9070 F   0  0  0  0  0  0  0  0  0  0  0  0
   40.3430   36.9100   41.0590 F   0  0  0  0  0  0  0  0  0  0  0  0
  1  2  1  0  0  0  0
  2  3  2  0  0  0  0
  2  7  1  0  0  0  0
  3  8  1  0  0  0  0
  4  9  1  0  0  0  0
  4  3  1  0  0  0  0
  5  4  2  0  0  0  0
  6  5  1  0  0  0  0
  6  1  2  0  0  0  0
 10  5  1  0  0  0  0
 11 12  2  0  0  0  0
 11 13  1  0  0  0  0
 13  6  1  0  0  0  0
 14 13  1  0  0  0  0
 15 16  1  0  0  0  0
 16 17  2  0  0  0  0
 16 18  1  0  0  0  0
 18 11  1  0  0  0  0
 19 18  1  0  0  0  0
 20 21  2  0  0  0  0
 20 25  1  0  0  0  0
 21 22  1  0  0  0  0
 22  1  1  0  0  0  0
 22 23  2  0  0  0  0
 24 23  1  0  0  0  0
 24 27  1  0  0  0  0
 25 24  2  0  0  0  0
 26 21  1  0  0  0  0
 28 20  1  0  0  0  0
 28 31  1  0  0  0  0
 29 28  1  0  0  0  0
 30 28  1  0  0  0  0
M  END
>  <minimizedAffinity>
-5.82826757

>  <minimizedRMSD>
0.0566109084

$$$$
