
 OpenBabel03252504003D

 30 32  0  0  0  0  0  0  0  0999 V2000
   46.0590   31.3760   45.1210 C   0  0  0  0  0  0  0  0  0  0  0  0
   46.0800   32.7390   45.4170 C   0  0  0  0  0  0  0  0  0  0  0  0
   45.8340   33.1520   46.7010 C   0  0  0  0  0  0  0  0  0  0  0  0
   45.5710   32.2070   47.6720 C   0  0  0  0  0  0  0  0  0  0  0  0
   45.2980   32.3100   48.9880 N   0  0  0  0  0  0  0  0  0  0  0  0
   45.1060   31.1090   49.5380 C   0  0  0  0  0  0  0  0  0  0  0  0
   45.2580   30.1670   48.5570 C   0  0  0  0  0  0  0  0  0  0  0  0
   45.5490   30.8430   47.3800 C   0  0  0  0  0  0  0  0  0  0  0  0
   45.7960   30.4380   46.0950 C   0  0  0  0  0  0  0  0  0  0  0  0
   46.2430   30.9430   44.1270 H   0  0  0  0  0  0  0  0  0  0  0  0
   45.8540   34.2150   46.9150 H   0  0  0  0  0  0  0  0  0  0  0  0
   45.2520   33.2290   49.4710 H   0  0  0  0  0  0  0  0  0  0  0  0
   44.8730   30.9890   50.5950 H   0  0  0  0  0  0  0  0  0  0  0  0
   45.1610   29.0960   48.6950 H   0  0  0  0  0  0  0  0  0  0  0  0
   45.7670   29.3690   45.9240 H   0  0  0  0  0  0  0  0  0  0  0  0
   47.8150   34.4510   42.7060 C   0  0  0  0  0  0  0  0  0  0  0  0
   46.8730   35.3610   42.2240 C   0  0  0  0  0  0  0  0  0  0  0  0
   45.6280   35.3750   42.8490 C   0  0  0  0  0  0  0  0  0  0  0  0
   45.4080   34.5190   43.8720 N   0  0  0  0  0  0  0  0  0  0  0  0
   46.3660   33.6450   44.3080 C   0  0  0  0  0  0  0  0  0  0  0  0
   47.5680   33.6090   43.7280 N   0  0  0  0  0  0  0  0  0  0  0  0
   47.0870   36.0310   41.4020 H   0  0  0  0  0  0  0  0  0  0  0  0
   44.8740   36.0680   42.5000 H   0  0  0  0  0  0  0  0  0  0  0  0
   49.0950   34.4740   42.0230 C   0  0  0  0  0  0  0  0  0  0  0  0
   50.2050   34.7570   42.5580 O   0  0  0  0  0  0  0  0  0  0  0  0
   48.3910   32.7310   39.0740 H   0  0  0  0  0  0  0  0  0  0  0  0
   48.4030   33.0280   40.1310 C   0  0  0  0  0  0  0  0  0  0  0  0
   47.7150   32.2970   40.9170 O   0  0  0  0  0  0  0  0  0  0  0  0
   49.1290   34.1530   40.6260 N   0  0  0  0  0  0  0  0  0  0  0  0
   49.6610   34.6870   39.9020 H   0  0  0  0  0  0  0  0  0  0  0  0
  1  2  2  0  0  0  0
  1  9  1  0  0  0  0
  2  3  1  0  0  0  0
  3 11  1  0  0  0  0
  3  4  2  0  0  0  0
  4  5  1  0  0  0  0
  5 12  1  0  0  0  0
  5  6  1  0  0  0  0
  6 13  1  0  0  0  0
  7 14  1  0  0  0  0
  7  6  2  0  0  0  0
  8  4  1  0  0  0  0
  8  7  1  0  0  0  0
  9  8  2  0  0  0  0
 10  1  1  0  0  0  0
 15  9  1  0  0  0  0
 16 21  1  0  0  0  0
 17 16  2  0  0  0  0
 17 18  1  0  0  0  0
 18 19  2  0  0  0  0
 19 20  1  0  0  0  0
 20  2  1  0  0  0  0
 21 20  2  0  0  0  0
 22 17  1  0  0  0  0
 23 18  1  0  0  0  0
 24 25  2  0  0  0  0
 24 16  1  0  0  0  0
 26 27  1  0  0  0  0
 27 29  1  0  0  0  0
 27 28  2  0  0  0  0
 29 24  1  0  0  0  0
 30 29  1  0  0  0  0
M  END
>  <minimizedAffinity>
-6.06115723

>  <minimizedRMSD>
0.933088422

$$$$
