
 OpenBabel03252501323D

 20 19  0  0  0  0  0  0  0  0999 V2000
   45.5730   34.6180   44.2530 C   0  0  0  0  0  0  0  0  0  0  0  0
   45.3060   34.3590   45.5900 C   0  0  0  0  0  0  0  0  0  0  0  0
   46.0490   33.3560   46.1960 C   0  0  0  0  0  0  0  0  0  0  0  0
   46.9620   32.7180   45.4430 N   0  0  0  0  0  0  0  0  0  0  0  0
   47.2060   32.9830   44.1480 C   0  0  0  0  0  0  0  0  0  0  0  0
   46.4980   33.9570   43.5300 N   0  0  0  0  0  0  0  0  0  0  0  0
   45.8280   33.1740   47.2200 H   0  0  0  0  0  0  0  0  0  0  0  0
   47.9620   32.4140   43.6250 H   0  0  0  0  0  0  0  0  0  0  0  0
   43.9060   34.9790   42.6560 C   0  0  0  0  0  0  0  0  0  0  0  0
   43.8430   33.7350   42.8640 O   0  0  0  0  0  0  0  0  0  0  0  0
   44.9130   35.6230   43.4350 N   0  0  0  0  0  0  0  0  0  0  0  0
   45.0770   36.6410   43.3680 H   0  0  0  0  0  0  0  0  0  0  0  0
   42.5260   35.8090   39.5790 H   0  0  0  0  0  0  0  0  0  0  0  0
   43.1140   35.3330   40.3740 C   0  0  0  0  0  2  0  0  0  0  0  0
   43.8470   34.4040   39.9090 O   0  0  0  0  0  1  0  0  0  0  0  0
   43.0780   35.6950   41.7470 N   0  0  0  0  0  2  0  0  0  0  0  0
   43.7210   34.9110   41.4780 H   0  0  0  0  0  0  0  0  0  0  0  0
   44.3010   35.1550   46.1850 N   0  0  0  0  0  0  0  0  0  0  0  0
   44.9750   35.8470   46.5230 H   0  0  0  0  0  0  0  0  0  0  0  0
   43.5000   34.5300   45.9020 H   0  0  0  0  0  0  0  0  0  0  0  0
  1  2  1  0  0  0  0
  2 18  1  0  0  0  0
  2  3  2  0  0  0  0
  3  7  1  0  0  0  0
  4  3  1  0  0  0  0
  5  4  2  0  0  0  0
  6  5  1  0  0  0  0
  6  1  2  0  0  0  0
  8  5  1  0  0  0  0
  9 10  2  0  0  0  0
  9 11  1  0  0  0  0
 11  1  1  0  0  0  0
 12 11  1  0  0  0  0
 13 14  1  0  0  0  0
 15 14  1  0  0  0  0
 16  9  1  0  0  0  0
 17 16  1  0  0  0  0
 18 19  1  0  0  0  0
 20 18  1  0  0  0  0
M  END
>  <minimizedAffinity>
-4.23273706

>  <minimizedRMSD>
1.14538991

$$$$
