
 OpenBabel03252508013D

 25 26  0  0  1  0  0  0  0  0999 V2000
   46.6000   34.5790   43.2170 C   0  0  0  0  0  0  0  0  0  0  0  0
   45.5780   35.5540   43.4210 C   0  0  0  0  0  0  0  0  0  0  0  0
   44.8110   35.3860   44.5700 C   0  0  0  0  0  0  0  0  0  0  0  0
   45.0680   34.3490   45.3970 N   0  0  0  0  0  0  0  0  0  0  0  0
   46.0710   33.4440   45.1370 C   0  0  0  0  0  0  0  0  0  0  0  0
   46.8330   33.5460   44.0680 N   0  0  0  0  0  0  0  0  0  0  0  0
   45.4530   36.3480   42.6990 H   0  0  0  0  0  0  0  0  0  0  0  0
   44.0280   36.1000   44.7640 H   0  0  0  0  0  0  0  0  0  0  0  0
   46.2960   32.3420   46.1120 C   0  0  1  0  0  0  0  0  0  0  0  0
   47.0030   32.6610   47.4130 C   0  0  0  0  0  0  0  0  0  0  0  0
   45.5160   32.4510   47.3620 C   0  0  1  0  0  0  0  0  0  0  0  0
   46.4930   31.3400   45.6860 H   0  0  0  0  0  0  0  0  0  0  0  0
   47.4200   33.6890   47.4280 H   0  0  0  0  0  0  0  0  0  0  0  0
   47.6020   31.8490   47.8650 H   0  0  0  0  0  0  0  0  0  0  0  0
   45.1280   31.5960   47.9240 H   0  0  0  0  0  0  0  0  0  0  0  0
   44.7870   33.6940   47.6490 N   0  0  0  0  0  0  0  0  0  0  0  0
   43.8660   33.4900   48.1260 H   0  0  0  0  0  0  0  0  0  0  0  0
   45.3250   34.2500   48.3530 H   0  0  0  0  0  0  0  0  0  0  0  0
   47.4090   34.7660   42.0300 C   0  0  0  0  0  0  0  0  0  0  0  0
   48.2030   35.7600   41.8700 O   0  0  0  0  0  0  0  0  0  0  0  0
   46.3510   32.8620   39.3290 H   0  0  0  0  0  0  0  0  0  0  0  0
   46.2520   33.5560   40.1460 C   0  0  0  0  0  0  0  0  0  0  0  0
   45.1650   34.1150   40.4600 O   0  0  0  0  0  0  0  0  0  0  0  0
   47.4060   33.8640   40.9220 N   0  0  0  0  0  0  0  0  0  0  0  0
   48.3330   33.4370   40.7150 H   0  0  0  0  0  0  0  0  0  0  0  0
  1  2  2  0  0  0  0
  1  6  1  0  0  0  0
  2  3  1  0  0  0  0
  3  8  1  0  0  0  0
  3  4  2  0  0  0  0
  5  4  1  0  0  0  0
  5  9  1  0  0  0  0
  6  5  2  0  0  0  0
  7  2  1  0  0  0  0
  9 12  1  6  0  0  0
  9 11  1  0  0  0  0
  9 10  1  0  0  0  0
 10 13  1  0  0  0  0
 10 14  1  0  0  0  0
 11 10  1  0  0  0  0
 11 16  1  0  0  0  0
 11 15  1  1  0  0  0
 16 17  1  0  0  0  0
 16 18  1  0  0  0  0
 19  1  1  0  0  0  0
 20 19  2  0  0  0  0
 21 22  1  0  0  0  0
 22 23  2  0  0  0  0
 22 24  1  0  0  0  0
 24 19  1  0  0  0  0
 25 24  1  0  0  0  0
M  END
>  <minimizedAffinity>
-5.07918501

>  <minimizedRMSD>
0.802620888

$$$$
