
 OpenBabel03252504003D

 30 32  0  0  0  0  0  0  0  0999 V2000
   46.0730   31.5850   45.1220 C   0  0  0  0  0  0  0  0  0  0  0  0
   45.9090   32.9250   45.4710 C   0  0  0  0  0  0  0  0  0  0  0  0
   45.6320   33.2510   46.7740 C   0  0  0  0  0  0  0  0  0  0  0  0
   45.5240   32.2430   47.7100 C   0  0  0  0  0  0  0  0  0  0  0  0
   45.2640   32.2580   49.0330 N   0  0  0  0  0  0  0  0  0  0  0  0
   45.2530   31.0230   49.5380 C   0  0  0  0  0  0  0  0  0  0  0  0
   45.5150   30.1480   48.5180 C   0  0  0  0  0  0  0  0  0  0  0  0
   45.6870   30.9010   47.3650 C   0  0  0  0  0  0  0  0  0  0  0  0
   45.9630   30.5840   46.0610 C   0  0  0  0  0  0  0  0  0  0  0  0
   46.2960   31.2190   44.1080 H   0  0  0  0  0  0  0  0  0  0  0  0
   45.5070   34.2980   47.0290 H   0  0  0  0  0  0  0  0  0  0  0  0
   45.0990   33.1430   49.5520 H   0  0  0  0  0  0  0  0  0  0  0  0
   45.0600   30.8320   50.5920 H   0  0  0  0  0  0  0  0  0  0  0  0
   45.5730   29.0700   48.6150 H   0  0  0  0  0  0  0  0  0  0  0  0
   46.0810   29.5280   45.8490 H   0  0  0  0  0  0  0  0  0  0  0  0
   47.1910   34.7280   42.5730 C   0  0  0  0  0  0  0  0  0  0  0  0
   46.2690   35.7560   42.3790 C   0  0  0  0  0  0  0  0  0  0  0  0
   45.1950   35.8190   43.2650 C   0  0  0  0  0  0  0  0  0  0  0  0
   45.1110   34.8920   44.2470 N   0  0  0  0  0  0  0  0  0  0  0  0
   46.0430   33.9030   44.3950 C   0  0  0  0  0  0  0  0  0  0  0  0
   47.0830   33.8180   43.5610 N   0  0  0  0  0  0  0  0  0  0  0  0
   46.3700   36.4790   41.5810 H   0  0  0  0  0  0  0  0  0  0  0  0
   44.4600   36.6030   43.1430 H   0  0  0  0  0  0  0  0  0  0  0  0
   48.2910   34.7050   41.6260 C   0  0  0  0  0  0  0  0  0  0  0  0
   48.8300   35.7240   41.1070 O   0  0  0  0  0  0  0  0  0  0  0  0
   50.5460   32.0360   41.4850 H   0  0  0  0  0  0  0  0  0  0  0  0
   50.0830   32.9970   41.7490 C   0  0  0  0  0  0  0  0  0  0  0  0
   50.7450   33.7210   42.5620 O   0  0  0  0  0  0  0  0  0  0  0  0
   48.8270   33.4340   41.2320 N   0  0  0  0  0  0  0  0  0  0  0  0
   48.3650   32.7690   40.5730 H   0  0  0  0  0  0  0  0  0  0  0  0
  1  2  2  0  0  0  0
  1  9  1  0  0  0  0
  2  3  1  0  0  0  0
  3 11  1  0  0  0  0
  3  4  2  0  0  0  0
  4  5  1  0  0  0  0
  5  6  1  0  0  0  0
  5 12  1  0  0  0  0
  6 13  1  0  0  0  0
  7 14  1  0  0  0  0
  7  6  2  0  0  0  0
  8  4  1  0  0  0  0
  8  7  1  0  0  0  0
  9  8  2  0  0  0  0
 10  1  1  0  0  0  0
 15  9  1  0  0  0  0
 16 21  1  0  0  0  0
 17 16  2  0  0  0  0
 17 18  1  0  0  0  0
 18 19  2  0  0  0  0
 19 20  1  0  0  0  0
 20  2  1  0  0  0  0
 21 20  2  0  0  0  0
 22 17  1  0  0  0  0
 23 18  1  0  0  0  0
 24 16  1  0  0  0  0
 25 24  2  0  0  0  0
 26 27  1  0  0  0  0
 27 28  2  0  0  0  0
 29 24  1  0  0  0  0
 29 27  1  0  0  0  0
 30 29  1  0  0  0  0
M  END
>  <minimizedAffinity>
-5.97866201

>  <minimizedRMSD>
0.615825653

$$$$
