
 OpenBabel03252509333D

 36 37  0  0  1  0  0  0  0  0999 V2000
   45.7130   34.5140   41.8140 O   0  0  0  0  0  0  0  0  0  0  0  0
   44.3890   34.2880   41.4290 C   0  0  1  0  0  0  0  0  0  0  0  0
   43.6120   35.5560   41.1970 C   0  0  0  0  0  0  0  0  0  0  0  0
   42.3900   35.0420   40.4810 C   0  0  0  0  0  0  0  0  0  0  0  0
   42.8530   33.8110   39.7320 C   0  0  0  0  0  0  0  0  0  0  0  0
   44.3480   33.6930   40.0190 C   0  0  2  0  0  0  0  0  0  0  0  0
   43.8610   33.5860   42.0780 H   0  0  0  0  0  0  0  0  0  0  0  0
   43.3840   36.0710   42.1540 H   0  0  0  0  0  0  0  0  0  0  0  0
   44.1700   36.1980   40.4850 H   0  0  0  0  0  0  0  0  0  0  0  0
   41.6860   34.6780   41.2760 H   0  0  0  0  0  0  0  0  0  0  0  0
   41.9190   35.7840   39.8230 H   0  0  0  0  0  0  0  0  0  0  0  0
   42.3060   32.8990   40.0300 H   0  0  0  0  0  0  0  0  0  0  0  0
   42.7700   34.0500   38.6520 H   0  0  0  0  0  0  0  0  0  0  0  0
   44.9810   34.2310   39.3220 H   0  0  0  0  0  0  0  0  0  0  0  0
   46.0340   30.6630   39.5990 H   0  0  0  0  0  0  0  0  0  0  0  0
   45.8520   31.7400   39.5590 C   0  0  0  0  0  0  0  0  0  0  0  0
   46.7580   32.4460   39.0670 O   0  0  0  0  0  0  0  0  0  0  0  0
   44.6110   32.2660   40.0630 N   0  0  0  0  0  0  0  0  0  0  0  0
   43.8610   31.6620   40.4710 H   0  0  0  0  0  0  0  0  0  0  0  0
   47.3020   34.1770   43.8300 O   0  0  0  0  0  0  0  0  0  0  0  0
   45.9980   33.7160   43.2690 P   0  0  1  0  0  0  0  0  0  0  0  0
   44.7220   33.9010   44.3420 O   0  0  0  0  0  0  0  0  0  0  0  0
   43.8510   34.0070   43.8780 H   0  0  0  0  0  0  0  0  0  0  0  0
   46.0850   32.0550   42.9310 O   0  0  0  0  0  0  0  0  0  0  0  0
   45.3930   31.3870   43.9010 C   0  0  0  0  0  0  0  0  0  0  0  0
   44.5150   31.8460   44.3290 H   0  0  0  0  0  0  0  0  0  0  0  0
   45.0220   30.4380   43.4130 H   0  0  0  0  0  0  0  0  0  0  0  0
   48.2390   29.8640   45.7410 C   0  0  0  0  0  0  0  0  0  0  0  0
   47.4300   30.2840   44.6780 C   0  0  0  0  0  0  0  0  0  0  0  0
   46.2550   30.9410   44.9990 C   0  0  0  0  0  0  0  0  0  0  0  0
   45.9420   31.1480   46.3280 N   0  0  0  0  0  0  0  0  0  0  0  0
   46.7580   30.7240   47.3180 C   0  0  0  0  0  0  0  0  0  0  0  0
   47.8970   30.0870   47.0120 N   0  0  0  0  0  0  0  0  0  0  0  0
   49.1770   29.3420   45.5480 H   0  0  0  0  0  0  0  0  0  0  0  0
   47.7530   30.0790   43.6810 H   0  0  0  0  0  0  0  0  0  0  0  0
   46.4440   30.9230   48.3410 H   0  0  0  0  0  0  0  0  0  0  0  0
  1 21  1  0  0  0  0
  2  1  1  0  0  0  0
  2  7  1  1  0  0  0
  3  2  1  0  0  0  0
  3  8  1  0  0  0  0
  4  3  1  0  0  0  0
  4 10  1  0  0  0  0
  5  6  1  0  0  0  0
  5 12  1  0  0  0  0
  5  4  1  0  0  0  0
  6 14  1  6  0  0  0
  6 18  1  0  0  0  0
  6  2  1  0  0  0  0
  9  3  1  0  0  0  0
 11  4  1  0  0  0  0
 13  5  1  0  0  0  0
 16 15  1  0  0  0  0
 16 18  1  0  0  0  0
 17 16  2  0  0  0  0
 18 19  1  0  0  0  0
 21 20  2  1  0  0  0
 21 22  1  0  0  0  0
 23 22  1  0  0  0  0
 24 21  1  0  0  0  0
 24 25  1  0  0  0  0
 25 26  1  0  0  0  0
 25 30  1  0  0  0  0
 27 25  1  0  0  0  0
 28 33  1  0  0  0  0
 29 30  1  0  0  0  0
 29 28  2  0  0  0  0
 30 31  2  0  0  0  0
 31 32  1  0  0  0  0
 32 36  1  0  0  0  0
 33 32  2  0  0  0  0
 34 28  1  0  0  0  0
 35 29  1  0  0  0  0
M  END
>  <minimizedAffinity>
-3.37298036

>  <minimizedRMSD>
4.14986944

$$$$
