
 OpenBabel03242510563D

 32 33  0  0  0  0  0  0  0  0999 V2000
   45.6940   31.6880   47.0900 C   0  0  0  0  0  0  0  0  0  0  0  0
   45.5460   32.1710   48.4000 C   0  0  0  0  0  0  0  0  0  0  0  0
   45.3200   31.3520   49.4960 C   0  0  0  0  0  0  0  0  0  0  0  0
   45.2400   29.9940   49.2570 C   0  0  0  0  0  0  0  0  0  0  0  0
   45.3860   29.5250   47.9600 C   0  0  0  0  0  0  0  0  0  0  0  0
   45.6020   30.3690   46.9530 N   0  0  0  0  0  0  0  0  0  0  0  0
   45.6130   33.2430   48.5640 H   0  0  0  0  0  0  0  0  0  0  0  0
   45.2160   31.7970   50.4760 H   0  0  0  0  0  0  0  0  0  0  0  0
   45.0630   29.3900   50.1370 H   0  0  0  0  0  0  0  0  0  0  0  0
   44.7770   36.6150   43.7220 C   0  0  0  0  0  0  0  0  0  0  0  0
   45.6990   36.3240   42.7090 C   0  0  0  0  0  0  0  0  0  0  0  0
   46.3750   35.0990   42.7720 C   0  0  0  0  0  0  0  0  0  0  0  0
   46.1210   34.2410   43.7990 N   0  0  0  0  0  0  0  0  0  0  0  0
   45.2140   34.5750   44.7570 C   0  0  0  0  0  0  0  0  0  0  0  0
   44.5270   35.7700   44.7340 N   0  0  0  0  0  0  0  0  0  0  0  0
   45.9290   32.6360   46.0060 C   0  0  0  0  0  0  0  0  0  0  0  0
   46.9740   32.4830   45.3030 O   0  0  0  0  0  0  0  0  0  0  0  0
   44.9640   33.6630   45.8200 N   0  0  0  0  0  0  0  0  0  0  0  0
   44.3000   37.5810   43.5980 H   0  0  0  0  0  0  0  0  0  0  0  0
   45.9350   36.9590   41.8850 H   0  0  0  0  0  0  0  0  0  0  0  0
   47.1110   34.7660   42.0430 H   0  0  0  0  0  0  0  0  0  0  0  0
   44.1120   33.7670   46.4150 H   0  0  0  0  0  0  0  0  0  0  0  0
   45.2970   28.0960   47.7450 C   0  0  0  0  0  0  0  0  0  0  0  0
   44.5350   27.3290   48.4960 C   0  0  0  0  0  0  0  0  0  0  0  0
   44.3700   25.8570   48.3630 C   0  0  0  0  0  0  0  0  0  0  0  0
   43.3890   25.7130   47.8660 H   0  0  0  0  0  0  0  0  0  0  0  0
   45.1890   25.4740   47.6880 H   0  0  0  0  0  0  0  0  0  0  0  0
   45.9440   24.1970   50.9820 H   0  0  0  0  0  0  0  0  0  0  0  0
   45.7140   24.7190   50.0660 C   0  0  0  0  0  0  0  0  0  0  0  0
   46.8020   24.8390   49.4500 O   0  0  0  0  0  0  0  0  0  0  0  0
   44.4370   25.1770   49.6410 N   0  0  0  0  0  0  0  0  0  0  0  0
   43.6680   24.9650   50.3170 H   0  0  0  0  0  0  0  0  0  0  0  0
  1  2  1  0  0  0  0
  2  7  1  0  0  0  0
  2  3  2  0  0  0  0
  3  8  1  0  0  0  0
  4  3  1  0  0  0  0
  4  9  1  0  0  0  0
  5  4  2  0  0  0  0
  6  1  2  0  0  0  0
  6  5  1  0  0  0  0
 10 15  1  0  0  0  0
 11 12  1  0  0  0  0
 11 10  2  0  0  0  0
 12 13  2  0  0  0  0
 13 14  1  0  0  0  0
 14 18  1  0  0  0  0
 15 14  2  0  0  0  0
 16  1  1  0  0  0  0
 17 16  2  0  0  0  0
 18 16  1  0  0  0  0
 18 22  1  0  0  0  0
 19 10  1  0  0  0  0
 20 11  1  0  0  0  0
 21 12  1  0  0  0  0
 23  5  1  0  0  0  0
 23 24  2  0  0  0  0
 25 24  1  0  0  0  0
 25 31  1  0  0  0  0
 26 25  1  0  0  0  0
 27 25  1  0  0  0  0
 29 28  1  0  0  0  0
 30 29  2  0  0  0  0
 31 29  1  0  0  0  0
 31 32  1  0  0  0  0
M  END
>  <minimizedAffinity>
-5.46652174

>  <minimizedRMSD>
1.51956606

$$$$
