
 OpenBabel03252508353D

 27 28  0  0  0  0  0  0  0  0999 V2000
   46.4400   33.4350   40.1190 C   0  0  0  0  0  0  0  0  0  0  0  0
   45.2040   33.7870   40.6330 C   0  0  0  0  0  0  0  0  0  0  0  0
   44.1250   33.6740   39.8070 C   0  0  0  0  0  0  0  0  0  0  0  0
   44.2080   33.2290   38.4990 C   0  0  0  0  0  0  0  0  0  0  0  0
   45.4630   32.8850   38.0170 C   0  0  0  0  0  0  0  0  0  0  0  0
   46.5670   32.9870   38.8180 C   0  0  0  0  0  0  0  0  0  0  0  0
   43.1530   33.9450   40.1960 H   0  0  0  0  0  0  0  0  0  0  0  0
   43.3090   33.1640   37.9000 H   0  0  0  0  0  0  0  0  0  0  0  0
   45.5530   32.5340   36.9940 H   0  0  0  0  0  0  0  0  0  0  0  0
   45.0070   36.0080   43.6770 C   0  0  0  0  0  0  0  0  0  0  0  0
   45.0450   35.6020   42.3260 C   0  0  0  0  0  0  0  0  0  0  0  0
   45.1610   34.2490   42.0120 C   0  0  0  0  0  0  0  0  0  0  0  0
   45.2320   33.3970   43.0600 N   0  0  0  0  0  0  0  0  0  0  0  0
   45.1940   33.7950   44.3340 C   0  0  0  0  0  0  0  0  0  0  0  0
   45.0840   35.0960   44.6370 N   0  0  0  0  0  0  0  0  0  0  0  0
   44.8890   37.4000   43.9350 N   0  0  0  0  0  0  0  0  0  0  0  0
   44.9880   36.2980   41.4860 H   0  0  0  0  0  0  0  0  0  0  0  0
   45.2530   33.0880   45.1640 H   0  0  0  0  0  0  0  0  0  0  0  0
   45.7130   37.7410   44.5060 H   0  0  0  0  0  0  0  0  0  0  0  0
   44.0020   37.7540   43.4930 H   0  0  0  0  0  0  0  0  0  0  0  0
   49.3970   33.5690   37.0430 H   0  0  0  0  0  0  0  0  0  0  0  0
   48.4220   33.6740   37.5140 C   0  0  0  0  0  0  0  0  0  0  0  0
   48.1500   34.8400   37.1270 O   0  0  0  0  0  0  0  0  0  0  0  0
   47.8330   32.6310   38.3040 N   0  0  0  0  0  0  0  0  0  0  0  0
   48.4290   31.7830   38.3750 H   0  0  0  0  0  0  0  0  0  0  0  0
   48.5940   33.6060   41.5780 N   0  0  0  0  0  0  0  0  0  0  0  0
   47.6260   33.5290   40.9280 C   0  0  0  0  0  0  0  0  0  0  0  0
  1  2  1  0  0  0  0
  1 27  1  0  0  0  0
  2 12  1  0  0  0  0
  3  7  1  0  0  0  0
  3  2  2  0  0  0  0
  4  3  1  0  0  0  0
  5  4  2  0  0  0  0
  5  6  1  0  0  0  0
  6  1  2  0  0  0  0
  8  4  1  0  0  0  0
  9  5  1  0  0  0  0
 10 16  1  0  0  0  0
 10 15  1  0  0  0  0
 11 10  2  0  0  0  0
 12 11  1  0  0  0  0
 12 13  2  0  0  0  0
 13 14  1  0  0  0  0
 14 15  2  0  0  0  0
 14 18  1  0  0  0  0
 16 19  1  0  0  0  0
 17 11  1  0  0  0  0
 20 16  1  0  0  0  0
 21 22  1  0  0  0  0
 22 24  1  0  0  0  0
 23 22  2  0  0  0  0
 24 25  1  0  0  0  0
 24  6  1  0  0  0  0
 27 26  3  0  0  0  0
M  END
>  <minimizedAffinity>
-4.32890177

>  <minimizedRMSD>
2.1772933

$$$$
