
 OpenBabel03252507393D

 34 37  0  0  0  0  0  0  0  0999 V2000
   36.4490   28.5930   41.7820 C   0  0  0  0  0  0  0  0  0  0  0  0
   37.4060   29.6400   41.7920 C   0  0  0  0  0  0  0  0  0  0  0  0
   37.2880   30.6150   40.8020 C   0  0  0  0  0  0  0  0  0  0  0  0
   36.2910   30.5170   39.9010 N   0  0  0  0  0  0  0  0  0  0  0  0
   35.3860   29.5020   39.9140 C   0  0  0  0  0  0  0  0  0  0  0  0
   35.4720   28.5620   40.8420 N   0  0  0  0  0  0  0  0  0  0  0  0
   38.1920   29.7200   42.5000 H   0  0  0  0  0  0  0  0  0  0  0  0
   34.6120   29.4870   39.1620 H   0  0  0  0  0  0  0  0  0  0  0  0
   37.6590   32.9410   40.1890 C   0  0  0  0  0  0  0  0  0  0  0  0
   38.1940   31.7540   40.6810 C   0  0  0  0  0  0  0  0  0  0  0  0
   39.5170   31.7290   41.0160 C   0  0  0  0  0  0  0  0  0  0  0  0
   40.3290   32.8340   40.8820 C   0  0  0  0  0  0  0  0  0  0  0  0
   41.6500   33.0290   41.1510 N   0  0  0  0  0  0  0  0  0  0  0  0
   41.9390   34.3430   40.8260 C   0  0  0  0  0  0  0  0  0  0  0  0
   40.8070   34.9100   40.3740 N   0  0  0  0  0  0  0  0  0  0  0  0
   39.8210   34.0020   40.4030 C   0  0  0  0  0  0  0  0  0  0  0  0
   38.4820   34.0590   40.0550 C   0  0  0  0  0  0  0  0  0  0  0  0
   36.6320   33.1010   39.8860 H   0  0  0  0  0  0  0  0  0  0  0  0
   39.8940   30.7950   41.3920 H   0  0  0  0  0  0  0  0  0  0  0  0
   42.2700   32.2800   41.5320 H   0  0  0  0  0  0  0  0  0  0  0  0
   42.9420   34.7230   40.9600 H   0  0  0  0  0  0  0  0  0  0  0  0
   38.1140   35.0050   39.6770 H   0  0  0  0  0  0  0  0  0  0  0  0
   36.5570   27.6150   42.7640 O   0  0  0  0  0  0  0  0  0  0  0  0
   37.7620   26.9310   42.9280 C   0  0  0  0  0  0  0  0  0  0  0  0
   37.5600   25.8760   42.1160 C   0  0  0  0  0  0  0  0  0  0  0  0
   39.1980   24.9140   42.3100 S   0  0  0  0  0  0  0  0  0  0  0  0
   39.8020   26.2430   43.5140 C   0  0  0  0  0  0  0  0  0  0  0  0
   38.9400   26.9200   43.5270 N   0  0  0  0  0  0  0  0  0  0  0  0
   37.0200   25.1250   41.3330 H   0  0  0  0  0  0  0  0  0  0  0  0
   42.9420   27.6630   44.1350 H   0  0  0  0  0  0  0  0  0  0  0  0
   41.9650   27.3340   43.8070 C   0  0  0  0  0  0  0  0  0  0  0  0
   42.1590   28.2060   42.9190 O   0  0  0  0  0  0  0  0  0  0  0  0
   41.0300   26.3880   44.2420 N   0  0  0  0  0  0  0  0  0  0  0  0
   41.3690   25.8950   45.0720 H   0  0  0  0  0  0  0  0  0  0  0  0
  1  2  1  0  0  0  0
  1 23  1  0  0  0  0
  2  7  1  0  0  0  0
  3  2  2  0  0  0  0
  4  5  2  0  0  0  0
  4  3  1  0  0  0  0
  5  6  1  0  0  0  0
  6  1  2  0  0  0  0
  8  5  1  0  0  0  0
  9 10  1  0  0  0  0
 10  3  1  0  0  0  0
 10 11  2  0  0  0  0
 11 19  1  0  0  0  0
 12 11  1  0  0  0  0
 12 13  1  0  0  0  0
 13 20  1  0  0  0  0
 14 21  1  0  0  0  0
 14 13  1  0  0  0  0
 15 16  1  0  0  0  0
 15 14  2  0  0  0  0
 16 12  2  0  0  0  0
 17  9  2  0  0  0  0
 17 16  1  0  0  0  0
 18  9  1  0  0  0  0
 22 17  1  0  0  0  0
 23 24  1  0  0  0  0
 24 28  1  0  0  0  0
 25 26  1  0  0  0  0
 25 24  2  0  0  0  0
 26 27  1  0  0  0  0
 27 28  2  0  0  0  0
 27 33  1  0  0  0  0
 29 25  1  0  0  0  0
 31 30  1  0  0  0  0
 31 33  1  0  0  0  0
 32 31  2  0  0  0  0
 33 34  1  0  0  0  0
M  END
>  <minimizedAffinity>
-6.2733674

$$$$

 OpenBabel03252507393D

 34 37  0  0  0  0  0  0  0  0999 V2000
   38.1640   32.8260   39.3900 C   0  0  0  0  0  0  0  0  0  0  0  0
   39.5290   32.5720   39.0970 C   0  0  0  0  0  0  0  0  0  0  0  0
   40.4450   33.5630   39.4450 C   0  0  0  0  0  0  0  0  0  0  0  0
   40.0000   34.6920   40.0290 N   0  0  0  0  0  0  0  0  0  0  0  0
   38.6860   34.9110   40.2990 C   0  0  0  0  0  0  0  0  0  0  0  0
   37.7910   33.9880   39.9810 N   0  0  0  0  0  0  0  0  0  0  0  0
   39.8820   31.6830   38.6380 H   0  0  0  0  0  0  0  0  0  0  0  0
   38.4000   35.8390   40.7700 H   0  0  0  0  0  0  0  0  0  0  0  0
   42.6770   33.0910   40.2970 C   0  0  0  0  0  0  0  0  0  0  0  0
   41.8820   33.4490   39.2100 C   0  0  0  0  0  0  0  0  0  0  0  0
   42.4890   33.6660   38.0070 C   0  0  0  0  0  0  0  0  0  0  0  0
   43.8510   33.5440   37.8390 C   0  0  0  0  0  0  0  0  0  0  0  0
   44.6510   33.7110   36.7500 N   0  0  0  0  0  0  0  0  0  0  0  0
   45.9490   33.4570   37.1580 C   0  0  0  0  0  0  0  0  0  0  0  0
   45.9120   33.1450   38.4660 N   0  0  0  0  0  0  0  0  0  0  0  0
   44.6420   33.1960   38.8920 C   0  0  0  0  0  0  0  0  0  0  0  0
   44.0550   32.9670   40.1250 C   0  0  0  0  0  0  0  0  0  0  0  0
   42.3300   32.8900   41.3020 H   0  0  0  0  0  0  0  0  0  0  0  0
   41.8440   33.9410   37.1930 H   0  0  0  0  0  0  0  0  0  0  0  0
   44.2850   33.9810   35.8110 H   0  0  0  0  0  0  0  0  0  0  0  0
   46.7610   33.5290   36.4490 H   0  0  0  0  0  0  0  0  0  0  0  0
   44.7160   32.6920   40.9380 H   0  0  0  0  0  0  0  0  0  0  0  0
   37.2400   31.8450   39.0480 O   0  0  0  0  0  0  0  0  0  0  0  0
   36.8920   30.8690   39.9830 C   0  0  0  0  0  0  0  0  0  0  0  0
   36.0250   30.1340   39.2610 C   0  0  0  0  0  0  0  0  0  0  0  0
   35.5280   28.7780   40.5120 S   0  0  0  0  0  0  0  0  0  0  0  0
   36.6750   29.5740   41.7880 C   0  0  0  0  0  0  0  0  0  0  0  0
   37.0720   30.4190   41.2130 N   0  0  0  0  0  0  0  0  0  0  0  0
   35.3440   29.7580   38.3320 H   0  0  0  0  0  0  0  0  0  0  0  0
   38.7270   28.2690   44.3070 H   0  0  0  0  0  0  0  0  0  0  0  0
   38.2230   28.6300   43.4200 C   0  0  0  0  0  0  0  0  0  0  0  0
   39.2880   28.2420   42.8670 O   0  0  0  0  0  0  0  0  0  0  0  0
   36.9880   29.2240   43.1440 N   0  0  0  0  0  0  0  0  0  0  0  0
   36.4380   29.3370   43.9990 H   0  0  0  0  0  0  0  0  0  0  0  0
  1  6  1  0  0  0  0
  2  1  2  0  0  0  0
  2  3  1  0  0  0  0
  3  4  2  0  0  0  0
  4  5  1  0  0  0  0
  5  8  1  0  0  0  0
  6  5  2  0  0  0  0
  7  2  1  0  0  0  0
  9 18  1  0  0  0  0
 10  3  1  0  0  0  0
 10  9  2  0  0  0  0
 11 10  1  0  0  0  0
 12 11  2  0  0  0  0
 12 16  1  0  0  0  0
 13 14  1  0  0  0  0
 13 12  1  0  0  0  0
 14 15  2  0  0  0  0
 15 16  1  0  0  0  0
 16 17  2  0  0  0  0
 17  9  1  0  0  0  0
 17 22  1  0  0  0  0
 19 11  1  0  0  0  0
 20 13  1  0  0  0  0
 21 14  1  0  0  0  0
 23  1  1  0  0  0  0
 23 24  1  0  0  0  0
 24 28  1  0  0  0  0
 25 24  2  0  0  0  0
 25 26  1  0  0  0  0
 26 27  1  0  0  0  0
 27 33  1  0  0  0  0
 28 27  2  0  0  0  0
 29 25  1  0  0  0  0
 31 30  1  0  0  0  0
 32 31  2  0  0  0  0
 33 31  1  0  0  0  0
 33 34  1  0  0  0  0
M  END
>  <minimizedAffinity>
-6.1802454

$$$$

 OpenBabel03252507393D

 34 37  0  0  0  0  0  0  0  0999 V2000
   38.9040   28.6370   42.7780 C   0  0  0  0  0  0  0  0  0  0  0  0
   38.8280   27.5060   41.9250 C   0  0  0  0  0  0  0  0  0  0  0  0
   37.7210   26.6720   42.0780 C   0  0  0  0  0  0  0  0  0  0  0  0
   36.7970   26.9740   43.0110 N   0  0  0  0  0  0  0  0  0  0  0  0
   36.8930   28.0660   43.8160 C   0  0  0  0  0  0  0  0  0  0  0  0
   37.9330   28.8770   43.6940 N   0  0  0  0  0  0  0  0  0  0  0  0
   39.5550   27.2660   41.1910 H   0  0  0  0  0  0  0  0  0  0  0  0
   36.1150   28.2470   44.5410 H   0  0  0  0  0  0  0  0  0  0  0  0
   36.6720   25.5950   40.1640 C   0  0  0  0  0  0  0  0  0  0  0  0
   37.5010   25.4710   41.2760 C   0  0  0  0  0  0  0  0  0  0  0  0
   38.0490   24.2510   41.5440 C   0  0  0  0  0  0  0  0  0  0  0  0
   37.8080   23.1490   40.7530 C   0  0  0  0  0  0  0  0  0  0  0  0
   38.2430   21.8610   40.8320 N   0  0  0  0  0  0  0  0  0  0  0  0
   37.6840   21.1780   39.7660 C   0  0  0  0  0  0  0  0  0  0  0  0
   36.9340   22.0520   39.0710 N   0  0  0  0  0  0  0  0  0  0  0  0
   37.0000   23.2530   39.6620 C   0  0  0  0  0  0  0  0  0  0  0  0
   36.4290   24.4790   39.3640 C   0  0  0  0  0  0  0  0  0  0  0  0
   36.1740   26.4980   39.8370 H   0  0  0  0  0  0  0  0  0  0  0  0
   38.6820   24.1950   42.4100 H   0  0  0  0  0  0  0  0  0  0  0  0
   38.8800   21.5210   41.5860 H   0  0  0  0  0  0  0  0  0  0  0  0
   37.8960   20.1270   39.6280 H   0  0  0  0  0  0  0  0  0  0  0  0
   35.7930   24.5220   38.4890 H   0  0  0  0  0  0  0  0  0  0  0  0
   40.0030   29.4760   42.6350 O   0  0  0  0  0  0  0  0  0  0  0  0
   39.8590   30.6960   41.9730 C   0  0  0  0  0  0  0  0  0  0  0  0
   41.1450   30.9790   41.6920 C   0  0  0  0  0  0  0  0  0  0  0  0
   40.9870   32.6480   40.7760 S   0  0  0  0  0  0  0  0  0  0  0  0
   39.1110   32.5630   41.0040 C   0  0  0  0  0  0  0  0  0  0  0  0
   39.0100   31.6130   41.5440 N   0  0  0  0  0  0  0  0  0  0  0  0
   42.3520   30.8740   41.6350 H   0  0  0  0  0  0  0  0  0  0  0  0
   36.4090   33.5480   39.0070 H   0  0  0  0  0  0  0  0  0  0  0  0
   37.2500   33.1020   39.5220 C   0  0  0  0  0  0  0  0  0  0  0  0
   37.0760   32.1970   38.6620 O   0  0  0  0  0  0  0  0  0  0  0  0
   38.0580   33.4530   40.6090 N   0  0  0  0  0  0  0  0  0  0  0  0
   37.7720   34.3530   41.0000 H   0  0  0  0  0  0  0  0  0  0  0  0
  1  6  1  0  0  0  0
  2  3  1  0  0  0  0
  2  1  2  0  0  0  0
  3  4  2  0  0  0  0
  4  5  1  0  0  0  0
  5  8  1  0  0  0  0
  6  5  2  0  0  0  0
  7  2  1  0  0  0  0
  9 10  1  0  0  0  0
 10 11  2  0  0  0  0
 10  3  1  0  0  0  0
 11 19  1  0  0  0  0
 12 13  1  0  0  0  0
 12 11  1  0  0  0  0
 13 20  1  0  0  0  0
 14 13  1  0  0  0  0
 15 16  1  0  0  0  0
 15 14  2  0  0  0  0
 16 12  2  0  0  0  0
 17 16  1  0  0  0  0
 17  9  2  0  0  0  0
 18  9  1  0  0  0  0
 21 14  1  0  0  0  0
 22 17  1  0  0  0  0
 23  1  1  0  0  0  0
 24 23  1  0  0  0  0
 25 24  2  0  0  0  0
 26 27  1  0  0  0  0
 26 25  1  0  0  0  0
 27 28  2  0  0  0  0
 28 24  1  0  0  0  0
 29 25  1  0  0  0  0
 30 31  1  0  0  0  0
 31 33  1  0  0  0  0
 32 31  2  0  0  0  0
 33 34  1  0  0  0  0
 33 27  1  0  0  0  0
M  END
>  <minimizedAffinity>
-6.11511517

$$$$

 OpenBabel03252507393D

 34 37  0  0  0  0  0  0  0  0999 V2000
   40.9290   33.9580   40.3200 C   0  0  0  0  0  0  0  0  0  0  0  0
   40.7590   32.6680   40.8860 C   0  0  0  0  0  0  0  0  0  0  0  0
   39.4490   32.2370   41.0960 C   0  0  0  0  0  0  0  0  0  0  0  0
   38.4300   33.0500   40.7590 N   0  0  0  0  0  0  0  0  0  0  0  0
   38.6200   34.2830   40.2180 C   0  0  0  0  0  0  0  0  0  0  0  0
   39.8520   34.7200   40.0060 N   0  0  0  0  0  0  0  0  0  0  0  0
   41.5600   32.0260   41.1520 H   0  0  0  0  0  0  0  0  0  0  0  0
   37.7570   34.8810   39.9710 H   0  0  0  0  0  0  0  0  0  0  0  0
   40.1580   30.1850   42.1970 C   0  0  0  0  0  0  0  0  0  0  0  0
   39.1120   30.9360   41.6680 C   0  0  0  0  0  0  0  0  0  0  0  0
   37.8510   30.4170   41.7180 C   0  0  0  0  0  0  0  0  0  0  0  0
   37.5860   29.1830   42.2710 C   0  0  0  0  0  0  0  0  0  0  0  0
   36.4270   28.4850   42.4240 N   0  0  0  0  0  0  0  0  0  0  0  0
   36.7510   27.2940   43.0510 C   0  0  0  0  0  0  0  0  0  0  0  0
   38.0790   27.2930   43.2620 N   0  0  0  0  0  0  0  0  0  0  0  0
   38.5980   28.4360   42.7920 C   0  0  0  0  0  0  0  0  0  0  0  0
   39.8890   28.9360   42.7570 C   0  0  0  0  0  0  0  0  0  0  0  0
   41.2010   30.4730   42.2230 H   0  0  0  0  0  0  0  0  0  0  0  0
   37.0700   31.0260   41.3000 H   0  0  0  0  0  0  0  0  0  0  0  0
   35.5000   28.8440   42.1040 H   0  0  0  0  0  0  0  0  0  0  0  0
   35.9760   26.5750   43.2760 H   0  0  0  0  0  0  0  0  0  0  0  0
   40.6670   28.3130   43.1810 H   0  0  0  0  0  0  0  0  0  0  0  0
   42.2300   34.3980   40.1060 O   0  0  0  0  0  0  0  0  0  0  0  0
   43.0720   33.6770   39.2590 C   0  0  0  0  0  0  0  0  0  0  0  0
   44.2260   33.7330   39.9510 C   0  0  0  0  0  0  0  0  0  0  0  0
   45.4080   32.7470   38.8200 S   0  0  0  0  0  0  0  0  0  0  0  0
   43.9800   32.4780   37.6090 C   0  0  0  0  0  0  0  0  0  0  0  0
   43.1680   33.0070   38.1240 N   0  0  0  0  0  0  0  0  0  0  0  0
   45.0200   33.9980   40.8280 H   0  0  0  0  0  0  0  0  0  0  0  0
   43.0680   29.8080   35.5360 H   0  0  0  0  0  0  0  0  0  0  0  0
   43.2740   30.5410   36.3050 C   0  0  0  0  0  0  0  0  0  0  0  0
   42.6750   29.6990   37.0270 O   0  0  0  0  0  0  0  0  0  0  0  0
   43.9060   31.7880   36.3540 N   0  0  0  0  0  0  0  0  0  0  0  0
   44.2540   32.0570   35.4300 H   0  0  0  0  0  0  0  0  0  0  0  0
  1  2  1  0  0  0  0
  2  3  2  0  0  0  0
  2  7  1  0  0  0  0
  3 10  1  0  0  0  0
  4  3  1  0  0  0  0
  5  4  2  0  0  0  0
  6  5  1  0  0  0  0
  6  1  2  0  0  0  0
  8  5  1  0  0  0  0
  9 18  1  0  0  0  0
  9 17  1  0  0  0  0
 10 11  1  0  0  0  0
 10  9  2  0  0  0  0
 11 12  2  0  0  0  0
 12 13  1  0  0  0  0
 12 16  1  0  0  0  0
 13 14  1  0  0  0  0
 14 15  2  0  0  0  0
 14 21  1  0  0  0  0
 16 15  1  0  0  0  0
 17 16  2  0  0  0  0
 17 22  1  0  0  0  0
 19 11  1  0  0  0  0
 20 13  1  0  0  0  0
 23  1  1  0  0  0  0
 24 25  2  0  0  0  0
 24 23  1  0  0  0  0
 25 29  1  0  0  0  0
 26 25  1  0  0  0  0
 27 28  2  0  0  0  0
 27 26  1  0  0  0  0
 28 24  1  0  0  0  0
 30 31  1  0  0  0  0
 31 33  1  0  0  0  0
 31 32  2  0  0  0  0
 33 27  1  0  0  0  0
 34 33  1  0  0  0  0
M  END
>  <minimizedAffinity>
-6.00599909

$$$$

 OpenBabel03252507393D

 34 37  0  0  0  0  0  0  0  0999 V2000
   38.0450   32.0060   40.7710 C   0  0  0  0  0  0  0  0  0  0  0  0
   38.7920   30.9230   41.3020 C   0  0  0  0  0  0  0  0  0  0  0  0
   38.1020   29.7360   41.5410 C   0  0  0  0  0  0  0  0  0  0  0  0
   36.7850   29.6760   41.2650 N   0  0  0  0  0  0  0  0  0  0  0  0
   36.0920   30.7300   40.7560 C   0  0  0  0  0  0  0  0  0  0  0  0
   36.7200   31.8710   40.5170 N   0  0  0  0  0  0  0  0  0  0  0  0
   39.8290   30.9680   41.5200 H   0  0  0  0  0  0  0  0  0  0  0  0
   35.0370   30.6110   40.5580 H   0  0  0  0  0  0  0  0  0  0  0  0
   39.8650   28.7120   42.8720 C   0  0  0  0  0  0  0  0  0  0  0  0
   38.7300   28.5340   42.0840 C   0  0  0  0  0  0  0  0  0  0  0  0
   38.2820   27.2630   41.8710 C   0  0  0  0  0  0  0  0  0  0  0  0
   38.9130   26.1630   42.4080 C   0  0  0  0  0  0  0  0  0  0  0  0
   38.6420   24.8310   42.3260 N   0  0  0  0  0  0  0  0  0  0  0  0
   39.6110   24.1750   43.0670 C   0  0  0  0  0  0  0  0  0  0  0  0
   40.4360   25.1070   43.5750 N   0  0  0  0  0  0  0  0  0  0  0  0
   40.0230   26.3200   43.1800 C   0  0  0  0  0  0  0  0  0  0  0  0
   40.5020   27.5980   43.4150 C   0  0  0  0  0  0  0  0  0  0  0  0
   40.3270   29.6590   43.1210 H   0  0  0  0  0  0  0  0  0  0  0  0
   37.4050   27.1660   41.2580 H   0  0  0  0  0  0  0  0  0  0  0  0
   37.8350   24.4450   41.7880 H   0  0  0  0  0  0  0  0  0  0  0  0
   39.5930   23.0970   43.1440 H   0  0  0  0  0  0  0  0  0  0  0  0
   41.3870   27.6820   44.0340 H   0  0  0  0  0  0  0  0  0  0  0  0
   38.7230   33.1960   40.5280 O   0  0  0  0  0  0  0  0  0  0  0  0
   39.7350   33.2290   39.5670 C   0  0  0  0  0  0  0  0  0  0  0  0
   40.4450   34.2900   39.9930 C   0  0  0  0  0  0  0  0  0  0  0  0
   41.8490   34.3650   38.7000 S   0  0  0  0  0  0  0  0  0  0  0  0
   41.0980   32.8580   37.8390 C   0  0  0  0  0  0  0  0  0  0  0  0
   40.2300   32.6620   38.4810 N   0  0  0  0  0  0  0  0  0  0  0  0
   40.7880   35.2410   40.6630 H   0  0  0  0  0  0  0  0  0  0  0  0
   42.4900   30.1090   36.1760 H   0  0  0  0  0  0  0  0  0  0  0  0
   42.0970   30.8710   36.8360 C   0  0  0  0  0  0  0  0  0  0  0  0
   42.4600   30.0480   37.7200 O   0  0  0  0  0  0  0  0  0  0  0  0
   41.4970   32.1240   36.6730 N   0  0  0  0  0  0  0  0  0  0  0  0
   41.4190   32.3640   35.6820 H   0  0  0  0  0  0  0  0  0  0  0  0
  1  2  1  0  0  0  0
  2  7  1  0  0  0  0
  2  3  2  0  0  0  0
  3 10  1  0  0  0  0
  4  3  1  0  0  0  0
  5  4  2  0  0  0  0
  6  5  1  0  0  0  0
  6  1  2  0  0  0  0
  8  5  1  0  0  0  0
  9 18  1  0  0  0  0
  9 17  1  0  0  0  0
 10  9  2  0  0  0  0
 11 10  1  0  0  0  0
 11 12  2  0  0  0  0
 12 16  1  0  0  0  0
 13 12  1  0  0  0  0
 13 14  1  0  0  0  0
 14 21  1  0  0  0  0
 14 15  2  0  0  0  0
 16 17  2  0  0  0  0
 16 15  1  0  0  0  0
 17 22  1  0  0  0  0
 19 11  1  0  0  0  0
 20 13  1  0  0  0  0
 23  1  1  0  0  0  0
 24 25  2  0  0  0  0
 24 23  1  0  0  0  0
 25 29  1  0  0  0  0
 26 25  1  0  0  0  0
 27 28  2  0  0  0  0
 27 26  1  0  0  0  0
 28 24  1  0  0  0  0
 30 31  1  0  0  0  0
 31 32  2  0  0  0  0
 33 31  1  0  0  0  0
 33 27  1  0  0  0  0
 34 33  1  0  0  0  0
M  END
>  <minimizedAffinity>
-5.90135765

$$$$

 OpenBabel03252507393D

 34 37  0  0  0  0  0  0  0  0999 V2000
   38.1630   29.1710   42.4710 C   0  0  0  0  0  0  0  0  0  0  0  0
   38.1310   28.0830   41.5610 C   0  0  0  0  0  0  0  0  0  0  0  0
   37.4880   26.9220   41.9880 C   0  0  0  0  0  0  0  0  0  0  0  0
   36.9410   26.8890   43.2180 N   0  0  0  0  0  0  0  0  0  0  0  0
   36.9860   27.9480   44.0710 C   0  0  0  0  0  0  0  0  0  0  0  0
   37.5890   29.0650   43.6950 N   0  0  0  0  0  0  0  0  0  0  0  0
   38.5610   28.1060   40.5920 H   0  0  0  0  0  0  0  0  0  0  0  0
   36.5260   27.8520   45.0430 H   0  0  0  0  0  0  0  0  0  0  0  0
   36.6960   25.8410   39.9550 C   0  0  0  0  0  0  0  0  0  0  0  0
   37.3700   25.7190   41.1680 C   0  0  0  0  0  0  0  0  0  0  0  0
   37.8740   24.4980   41.5090 C   0  0  0  0  0  0  0  0  0  0  0  0
   37.7360   23.3930   40.6970 C   0  0  0  0  0  0  0  0  0  0  0  0
   38.1520   22.1050   40.8380 N   0  0  0  0  0  0  0  0  0  0  0  0
   37.7360   21.4200   39.7090 C   0  0  0  0  0  0  0  0  0  0  0  0
   37.0870   22.2930   38.9180 N   0  0  0  0  0  0  0  0  0  0  0  0
   37.0790   23.4960   39.5090 C   0  0  0  0  0  0  0  0  0  0  0  0
   36.5570   24.7230   39.1340 C   0  0  0  0  0  0  0  0  0  0  0  0
   36.2480   26.7440   39.5630 H   0  0  0  0  0  0  0  0  0  0  0  0
   38.3880   24.4430   42.4520 H   0  0  0  0  0  0  0  0  0  0  0  0
   38.6830   21.7650   41.6690 H   0  0  0  0  0  0  0  0  0  0  0  0
   37.9600   20.3670   39.6030 H   0  0  0  0  0  0  0  0  0  0  0  0
   36.0410   24.7640   38.1830 H   0  0  0  0  0  0  0  0  0  0  0  0
   38.8020   30.3350   42.0570 O   0  0  0  0  0  0  0  0  0  0  0  0
   38.6520   30.7730   40.7400 C   0  0  0  0  0  0  0  0  0  0  0  0
   37.4170   31.3070   40.7960 C   0  0  0  0  0  0  0  0  0  0  0  0
   37.1770   31.9250   39.0050 S   0  0  0  0  0  0  0  0  0  0  0  0
   38.9020   31.2760   38.5800 C   0  0  0  0  0  0  0  0  0  0  0  0
   39.2130   30.8610   39.5470 N   0  0  0  0  0  0  0  0  0  0  0  0
   36.3440   31.6600   41.2370 H   0  0  0  0  0  0  0  0  0  0  0  0
   41.4400   32.4290   36.4610 H   0  0  0  0  0  0  0  0  0  0  0  0
   40.7150   32.1920   37.2290 C   0  0  0  0  0  0  0  0  0  0  0  0
   41.3300   33.1020   37.8480 O   0  0  0  0  0  0  0  0  0  0  0  0
   39.6560   31.2880   37.3590 N   0  0  0  0  0  0  0  0  0  0  0  0
   39.5530   30.7220   36.5130 H   0  0  0  0  0  0  0  0  0  0  0  0
  1  6  1  0  0  0  0
  2  3  1  0  0  0  0
  2  1  2  0  0  0  0
  3  4  2  0  0  0  0
  4  5  1  0  0  0  0
  5  8  1  0  0  0  0
  6  5  2  0  0  0  0
  7  2  1  0  0  0  0
  9 10  1  0  0  0  0
 10 11  2  0  0  0  0
 10  3  1  0  0  0  0
 11 19  1  0  0  0  0
 12 13  1  0  0  0  0
 12 11  1  0  0  0  0
 13 20  1  0  0  0  0
 14 13  1  0  0  0  0
 15 16  1  0  0  0  0
 15 14  2  0  0  0  0
 16 12  2  0  0  0  0
 17 16  1  0  0  0  0
 17  9  2  0  0  0  0
 18  9  1  0  0  0  0
 21 14  1  0  0  0  0
 22 17  1  0  0  0  0
 23  1  1  0  0  0  0
 24 25  2  0  0  0  0
 24 23  1  0  0  0  0
 25 29  1  0  0  0  0
 26 25  1  0  0  0  0
 27 26  1  0  0  0  0
 27 28  2  0  0  0  0
 28 24  1  0  0  0  0
 30 31  1  0  0  0  0
 31 33  1  0  0  0  0
 31 32  2  0  0  0  0
 33 27  1  0  0  0  0
 34 33  1  0  0  0  0
M  END
>  <minimizedAffinity>
-5.89474535

$$$$

 OpenBabel03252507393D

 34 37  0  0  0  0  0  0  0  0999 V2000
   38.9550   26.7950   43.4020 C   0  0  0  0  0  0  0  0  0  0  0  0
   38.1350   26.0780   42.4930 C   0  0  0  0  0  0  0  0  0  0  0  0
   38.5860   24.8230   42.0880 C   0  0  0  0  0  0  0  0  0  0  0  0
   39.7570   24.3610   42.5680 N   0  0  0  0  0  0  0  0  0  0  0  0
   40.5250   25.0690   43.4390 C   0  0  0  0  0  0  0  0  0  0  0  0
   40.1230   26.2640   43.8430 N   0  0  0  0  0  0  0  0  0  0  0  0
   37.2120   26.4400   42.1140 H   0  0  0  0  0  0  0  0  0  0  0  0
   41.4530   24.6370   43.7830 H   0  0  0  0  0  0  0  0  0  0  0  0
   38.5480   22.8900   40.6090 C   0  0  0  0  0  0  0  0  0  0  0  0
   37.8550   23.9660   41.1590 C   0  0  0  0  0  0  0  0  0  0  0  0
   36.5510   24.1490   40.7990 C   0  0  0  0  0  0  0  0  0  0  0  0
   35.9080   23.3080   39.9180 C   0  0  0  0  0  0  0  0  0  0  0  0
   34.6370   23.3040   39.4300 N   0  0  0  0  0  0  0  0  0  0  0  0
   34.5360   22.2210   38.5730 C   0  0  0  0  0  0  0  0  0  0  0  0
   35.7280   21.6000   38.5590 N   0  0  0  0  0  0  0  0  0  0  0  0
   36.5710   22.2520   39.3720 C   0  0  0  0  0  0  0  0  0  0  0  0
   37.8950   22.0390   39.7170 C   0  0  0  0  0  0  0  0  0  0  0  0
   39.5800   22.6280   40.8050 H   0  0  0  0  0  0  0  0  0  0  0  0
   36.0500   24.9900   41.2430 H   0  0  0  0  0  0  0  0  0  0  0  0
   33.9220   24.0160   39.6960 H   0  0  0  0  0  0  0  0  0  0  0  0
   33.6020   22.0200   38.0660 H   0  0  0  0  0  0  0  0  0  0  0  0
   38.3890   21.1900   39.2630 H   0  0  0  0  0  0  0  0  0  0  0  0
   38.5150   28.0480   43.8140 O   0  0  0  0  0  0  0  0  0  0  0  0
   38.0060   28.9440   42.8730 C   0  0  0  0  0  0  0  0  0  0  0  0
   39.1250   29.6150   42.5400 C   0  0  0  0  0  0  0  0  0  0  0  0
   38.4670   30.8530   41.2440 S   0  0  0  0  0  0  0  0  0  0  0  0
   36.7340   30.1300   41.4740 C   0  0  0  0  0  0  0  0  0  0  0  0
   36.9290   29.3580   42.2290 N   0  0  0  0  0  0  0  0  0  0  0  0
   40.2890   29.9560   42.5180 H   0  0  0  0  0  0  0  0  0  0  0  0
   34.0640   29.5640   39.2810 H   0  0  0  0  0  0  0  0  0  0  0  0
   34.9560   29.5910   39.8940 C   0  0  0  0  0  0  0  0  0  0  0  0
   35.2020   28.5180   39.2790 O   0  0  0  0  0  0  0  0  0  0  0  0
   35.4750   30.4510   40.8670 N   0  0  0  0  0  0  0  0  0  0  0  0
   34.8480   31.2440   41.0250 H   0  0  0  0  0  0  0  0  0  0  0  0
  1 23  1  0  0  0  0
  1  6  1  0  0  0  0
  2  1  2  0  0  0  0
  3  2  1  0  0  0  0
  3  4  2  0  0  0  0
  4  5  1  0  0  0  0
  5  8  1  0  0  0  0
  5  6  2  0  0  0  0
  7  2  1  0  0  0  0
  9 18  1  0  0  0  0
  9 10  1  0  0  0  0
 10  3  1  0  0  0  0
 11 10  2  0  0  0  0
 11 19  1  0  0  0  0
 12 11  1  0  0  0  0
 13 20  1  0  0  0  0
 13 12  1  0  0  0  0
 14 13  1  0  0  0  0
 15 14  2  0  0  0  0
 15 16  1  0  0  0  0
 16 17  1  0  0  0  0
 16 12  2  0  0  0  0
 17  9  2  0  0  0  0
 21 14  1  0  0  0  0
 22 17  1  0  0  0  0
 24 23  1  0  0  0  0
 25 24  2  0  0  0  0
 26 27  1  0  0  0  0
 26 25  1  0  0  0  0
 27 28  2  0  0  0  0
 28 24  1  0  0  0  0
 29 25  1  0  0  0  0
 30 31  1  0  0  0  0
 31 33  1  0  0  0  0
 32 31  2  0  0  0  0
 33 34  1  0  0  0  0
 33 27  1  0  0  0  0
M  END
>  <minimizedAffinity>
-5.8856225

$$$$

 OpenBabel03252507393D

 34 37  0  0  0  0  0  0  0  0999 V2000
   39.4940   33.4190   40.3890 C   0  0  0  0  0  0  0  0  0  0  0  0
   39.8180   32.2450   41.1170 C   0  0  0  0  0  0  0  0  0  0  0  0
   38.7980   31.3110   41.2960 C   0  0  0  0  0  0  0  0  0  0  0  0
   37.5790   31.5640   40.7800 N   0  0  0  0  0  0  0  0  0  0  0  0
   37.2960   32.6980   40.0860 C   0  0  0  0  0  0  0  0  0  0  0  0
   38.2440   33.6030   39.8990 N   0  0  0  0  0  0  0  0  0  0  0  0
   40.7760   32.0430   41.5240 H   0  0  0  0  0  0  0  0  0  0  0  0
   36.2970   32.8350   39.7000 H   0  0  0  0  0  0  0  0  0  0  0  0
   37.8240   29.4300   42.4960 C   0  0  0  0  0  0  0  0  0  0  0  0
   38.9740   30.0550   42.0200 C   0  0  0  0  0  0  0  0  0  0  0  0
   40.1800   29.4600   42.2570 C   0  0  0  0  0  0  0  0  0  0  0  0
   40.2900   28.2730   42.9460 C   0  0  0  0  0  0  0  0  0  0  0  0
   41.3700   27.5180   43.2890 N   0  0  0  0  0  0  0  0  0  0  0  0
   40.8930   26.4180   43.9810 C   0  0  0  0  0  0  0  0  0  0  0  0
   39.5540   26.5260   44.0430 N   0  0  0  0  0  0  0  0  0  0  0  0
   39.1760   27.6500   43.4180 C   0  0  0  0  0  0  0  0  0  0  0  0
   37.9370   28.2280   43.1940 C   0  0  0  0  0  0  0  0  0  0  0  0
   36.8100   29.7880   42.3810 H   0  0  0  0  0  0  0  0  0  0  0  0
   41.0440   29.9720   41.8740 H   0  0  0  0  0  0  0  0  0  0  0  0
   42.3500   27.7800   43.0410 H   0  0  0  0  0  0  0  0  0  0  0  0
   41.5830   25.6740   44.3530 H   0  0  0  0  0  0  0  0  0  0  0  0
   37.0740   27.7030   43.5850 H   0  0  0  0  0  0  0  0  0  0  0  0
   40.5030   34.3570   40.2050 O   0  0  0  0  0  0  0  0  0  0  0  0
   41.6720   33.9920   39.5350 C   0  0  0  0  0  0  0  0  0  0  0  0
   42.6000   34.3650   40.4360 C   0  0  0  0  0  0  0  0  0  0  0  0
   44.2210   33.8730   39.5540 S   0  0  0  0  0  0  0  0  0  0  0  0
   43.2000   33.2460   38.0900 C   0  0  0  0  0  0  0  0  0  0  0  0
   42.1830   33.4590   38.4390 N   0  0  0  0  0  0  0  0  0  0  0  0
   43.0940   34.8110   41.4500 H   0  0  0  0  0  0  0  0  0  0  0  0
   43.5860   30.5600   35.8770 H   0  0  0  0  0  0  0  0  0  0  0  0
   43.4030   31.2710   36.6720 C   0  0  0  0  0  0  0  0  0  0  0  0
   42.9850   30.2400   37.2640 O   0  0  0  0  0  0  0  0  0  0  0  0
   43.5820   32.6480   36.8430 N   0  0  0  0  0  0  0  0  0  0  0  0
   43.9870   33.0700   36.0040 H   0  0  0  0  0  0  0  0  0  0  0  0
  1  2  1  0  0  0  0
  2  3  2  0  0  0  0
  2  7  1  0  0  0  0
  3 10  1  0  0  0  0
  4  3  1  0  0  0  0
  5  4  2  0  0  0  0
  6  5  1  0  0  0  0
  6  1  2  0  0  0  0
  8  5  1  0  0  0  0
  9 17  1  0  0  0  0
 10 11  1  0  0  0  0
 10  9  2  0  0  0  0
 11 12  2  0  0  0  0
 12 13  1  0  0  0  0
 12 16  1  0  0  0  0
 13 14  1  0  0  0  0
 14 15  2  0  0  0  0
 14 21  1  0  0  0  0
 16 15  1  0  0  0  0
 17 16  2  0  0  0  0
 17 22  1  0  0  0  0
 18  9  1  0  0  0  0
 19 11  1  0  0  0  0
 20 13  1  0  0  0  0
 23  1  1  0  0  0  0
 24 23  1  0  0  0  0
 24 25  2  0  0  0  0
 25 29  1  0  0  0  0
 26 25  1  0  0  0  0
 27 28  2  0  0  0  0
 27 26  1  0  0  0  0
 28 24  1  0  0  0  0
 30 31  1  0  0  0  0
 31 33  1  0  0  0  0
 31 32  2  0  0  0  0
 33 27  1  0  0  0  0
 34 33  1  0  0  0  0
M  END
>  <minimizedAffinity>
-5.86901951

$$$$

 OpenBabel03252507393D

 34 37  0  0  0  0  0  0  0  0999 V2000
   37.2270   29.0030   42.1840 C   0  0  0  0  0  0  0  0  0  0  0  0
   38.6330   28.9120   42.3470 C   0  0  0  0  0  0  0  0  0  0  0  0
   39.1380   27.7000   42.8140 C   0  0  0  0  0  0  0  0  0  0  0  0
   38.2840   26.6940   43.0840 N   0  0  0  0  0  0  0  0  0  0  0  0
   36.9390   26.8070   42.9190 C   0  0  0  0  0  0  0  0  0  0  0  0
   36.4290   27.9460   42.4760 N   0  0  0  0  0  0  0  0  0  0  0  0
   39.3070   29.7030   42.1350 H   0  0  0  0  0  0  0  0  0  0  0  0
   36.3140   25.9590   43.1550 H   0  0  0  0  0  0  0  0  0  0  0  0
   41.3980   28.5630   43.0910 C   0  0  0  0  0  0  0  0  0  0  0  0
   40.5610   27.4510   43.0320 C   0  0  0  0  0  0  0  0  0  0  0  0
   41.1160   26.2130   43.1810 C   0  0  0  0  0  0  0  0  0  0  0  0
   42.4670   26.0340   43.3860 C   0  0  0  0  0  0  0  0  0  0  0  0
   43.2190   24.9120   43.5570 N   0  0  0  0  0  0  0  0  0  0  0  0
   44.5300   25.3250   43.7240 C   0  0  0  0  0  0  0  0  0  0  0  0
   44.5460   26.6680   43.6530 N   0  0  0  0  0  0  0  0  0  0  0  0
   43.2980   27.1110   43.4460 C   0  0  0  0  0  0  0  0  0  0  0  0
   42.7640   28.3800   43.2990 C   0  0  0  0  0  0  0  0  0  0  0  0
   41.0930   29.5960   42.9900 H   0  0  0  0  0  0  0  0  0  0  0  0
   40.4390   25.3800   43.1290 H   0  0  0  0  0  0  0  0  0  0  0  0
   42.8150   23.9500   43.5530 H   0  0  0  0  0  0  0  0  0  0  0  0
   45.3100   24.5930   43.8790 H   0  0  0  0  0  0  0  0  0  0  0  0
   43.4570   29.2110   43.3530 H   0  0  0  0  0  0  0  0  0  0  0  0
   36.7110   30.2070   41.7180 O   0  0  0  0  0  0  0  0  0  0  0  0
   36.7910   30.5130   40.3590 C   0  0  0  0  0  0  0  0  0  0  0  0
   37.2340   31.7830   40.4170 C   0  0  0  0  0  0  0  0  0  0  0  0
   37.3620   32.2370   38.5670 S   0  0  0  0  0  0  0  0  0  0  0  0
   36.7500   30.5020   38.1280 C   0  0  0  0  0  0  0  0  0  0  0  0
   36.6150   30.0700   39.1270 N   0  0  0  0  0  0  0  0  0  0  0  0
   37.6100   32.8420   40.8730 H   0  0  0  0  0  0  0  0  0  0  0  0
   37.5080   28.2810   35.5290 H   0  0  0  0  0  0  0  0  0  0  0  0
   37.4210   28.9100   36.4050 C   0  0  0  0  0  0  0  0  0  0  0  0
   38.4990   28.3330   36.7140 O   0  0  0  0  0  0  0  0  0  0  0  0
   36.5070   29.8630   36.8660 N   0  0  0  0  0  0  0  0  0  0  0  0
   35.7410   29.9860   36.2000 H   0  0  0  0  0  0  0  0  0  0  0  0
  1  2  2  0  0  0  0
  1  6  1  0  0  0  0
  2  3  1  0  0  0  0
  3 10  1  0  0  0  0
  3  4  2  0  0  0  0
  5  4  1  0  0  0  0
  5  8  1  0  0  0  0
  6  5  2  0  0  0  0
  7  2  1  0  0  0  0
  9 17  1  0  0  0  0
 10  9  2  0  0  0  0
 10 11  1  0  0  0  0
 11 12  2  0  0  0  0
 12 16  1  0  0  0  0
 12 13  1  0  0  0  0
 13 14  1  0  0  0  0
 14 21  1  0  0  0  0
 15 14  2  0  0  0  0
 16 15  1  0  0  0  0
 17 22  1  0  0  0  0
 17 16  2  0  0  0  0
 18  9  1  0  0  0  0
 19 11  1  0  0  0  0
 20 13  1  0  0  0  0
 23  1  1  0  0  0  0
 24 25  2  0  0  0  0
 24 23  1  0  0  0  0
 25 29  1  0  0  0  0
 26 25  1  0  0  0  0
 27 26  1  0  0  0  0
 27 28  2  0  0  0  0
 28 24  1  0  0  0  0
 30 31  1  0  0  0  0
 31 32  2  0  0  0  0
 31 33  1  0  0  0  0
 33 27  1  0  0  0  0
 34 33  1  0  0  0  0
M  END
>  <minimizedAffinity>
-5.72543669

$$$$
