
 OpenBabel03252509323D

 36 37  0  0  1  0  0  0  0  0999 V2000
   46.1370   35.1710   43.2160 O   0  0  0  0  0  0  0  0  0  0  0  0
   46.7220   34.4390   42.1790 C   0  0  1  0  0  0  0  0  0  0  0  0
   45.8360   34.3070   40.9710 C   0  0  0  0  0  0  0  0  0  0  0  0
   46.8060   33.8100   39.9300 C   0  0  0  0  0  0  0  0  0  0  0  0
   48.1490   34.3840   40.3290 C   0  0  0  0  0  0  0  0  0  0  0  0
   47.8820   35.2310   41.5710 C   0  0  2  0  0  0  0  0  0  0  0  0
   47.1360   33.4810   42.5030 H   0  0  0  0  0  0  0  0  0  0  0  0
   44.9920   33.6110   41.1620 H   0  0  0  0  0  0  0  0  0  0  0  0
   45.4980   35.3170   40.6560 H   0  0  0  0  0  0  0  0  0  0  0  0
   46.8860   32.7000   40.0760 H   0  0  0  0  0  0  0  0  0  0  0  0
   46.5240   34.0720   38.9020 H   0  0  0  0  0  0  0  0  0  0  0  0
   48.9070   33.6050   40.5200 H   0  0  0  0  0  0  0  0  0  0  0  0
   48.4340   35.0990   39.5310 H   0  0  0  0  0  0  0  0  0  0  0  0
   47.6170   36.2610   41.3610 H   0  0  0  0  0  0  0  0  0  0  0  0
   50.4460   33.6950   43.3780 H   0  0  0  0  0  0  0  0  0  0  0  0
   49.5450   33.7830   42.7650 C   0  0  0  0  0  0  0  0  0  0  0  0
   48.9820   32.7180   42.4330 O   0  0  0  0  0  0  0  0  0  0  0  0
   49.0760   35.0900   42.3850 N   0  0  0  0  0  0  0  0  0  0  0  0
   49.5570   35.9720   42.6700 H   0  0  0  0  0  0  0  0  0  0  0  0
   44.8530   34.8670   45.4450 O   0  0  0  0  0  0  0  0  0  0  0  0
   45.5570   34.0980   44.3770 P   0  0  1  0  0  0  0  0  0  0  0  0
   44.5990   32.9000   43.6960 O   0  0  0  0  0  0  0  0  0  0  0  0
   44.8670   32.6870   42.7640 H   0  0  0  0  0  0  0  0  0  0  0  0
   46.8950   33.2980   45.0470 O   0  0  0  0  0  0  0  0  0  0  0  0
   46.5820   31.9750   45.1720 C   0  0  0  0  0  0  0  0  0  0  0  0
   45.8420   31.5460   44.5120 H   0  0  0  0  0  0  0  0  0  0  0  0
   47.5360   31.4120   44.9500 H   0  0  0  0  0  0  0  0  0  0  0  0
   46.3910   32.0200   48.8830 C   0  0  0  0  0  0  0  0  0  0  0  0
   46.7350   32.3860   47.5750 C   0  0  0  0  0  0  0  0  0  0  0  0
   46.2330   31.6080   46.5480 C   0  0  0  0  0  0  0  0  0  0  0  0
   45.4300   30.5270   46.8530 N   0  0  0  0  0  0  0  0  0  0  0  0
   45.1260   30.2150   48.1330 C   0  0  0  0  0  0  0  0  0  0  0  0
   45.6110   30.9660   49.1320 N   0  0  0  0  0  0  0  0  0  0  0  0
   46.7580   32.5970   49.7320 H   0  0  0  0  0  0  0  0  0  0  0  0
   47.3620   33.2390   47.4350 H   0  0  0  0  0  0  0  0  0  0  0  0
   44.4890   29.3490   48.2950 H   0  0  0  0  0  0  0  0  0  0  0  0
  1 21  1  0  0  0  0
  2  7  1  1  0  0  0
  2  1  1  0  0  0  0
  3  8  1  0  0  0  0
  3  2  1  0  0  0  0
  4 10  1  0  0  0  0
  4  5  1  0  0  0  0
  4  3  1  0  0  0  0
  5 12  1  0  0  0  0
  5  6  1  0  0  0  0
  6 14  1  6  0  0  0
  6  2  1  0  0  0  0
  6 18  1  0  0  0  0
  9  3  1  0  0  0  0
 11  4  1  0  0  0  0
 13  5  1  0  0  0  0
 16 15  1  0  0  0  0
 17 16  2  0  0  0  0
 18 19  1  0  0  0  0
 18 16  1  0  0  0  0
 21 24  1  0  0  0  0
 21 20  2  1  0  0  0
 22 21  1  0  0  0  0
 23 22  1  0  0  0  0
 24 25  1  0  0  0  0
 25 30  1  0  0  0  0
 26 25  1  0  0  0  0
 27 25  1  0  0  0  0
 28 33  1  0  0  0  0
 28 34  1  0  0  0  0
 29 28  2  0  0  0  0
 30 31  2  0  0  0  0
 30 29  1  0  0  0  0
 31 32  1  0  0  0  0
 32 36  1  0  0  0  0
 32 33  2  0  0  0  0
 35 29  1  0  0  0  0
M  END
>  <minimizedAffinity>
-5.06198311

>  <minimizedRMSD>
0.9880777

$$$$
