
 OpenBabel03252501093D

 36 38  0  0  1  0  0  0  0  0999 V2000
   34.6360   29.1420   39.8680 O   0  0  0  0  0  0  0  0  0  0  0  0
   35.9150   29.4460   40.6450 P   0  0  2  0  0  0  0  0  0  0  0  0
   35.6460   30.9530   41.3750 O   0  0  0  0  0  0  0  0  0  0  0  0
   36.0610   30.9900   42.2760 H   0  0  0  0  0  0  0  0  0  0  0  0
   37.2510   29.3680   39.7050 O   0  0  0  0  0  0  0  0  0  0  0  0
   37.4080   30.6290   37.6470 C   0  0  1  0  0  0  0  0  0  0  0  0
   38.3390   29.5100   37.4540 C   0  0  0  0  0  0  0  0  0  0  0  0
   37.1040   29.3940   38.3680 C   0  0  1  0  0  0  0  0  0  0  0  0
   36.7390   30.9700   36.8290 H   0  0  0  0  0  0  0  0  0  0  0  0
   39.3110   29.4500   37.9890 H   0  0  0  0  0  0  0  0  0  0  0  0
   38.3500   28.9820   36.4960 H   0  0  0  0  0  0  0  0  0  0  0  0
   36.3900   28.6620   37.9490 H   0  0  0  0  0  0  0  0  0  0  0  0
   39.7990   32.9790   39.4140 C   0  0  0  0  0  0  0  0  0  0  0  0
   39.3310   31.9280   38.6340 C   0  0  0  0  0  0  0  0  0  0  0  0
   37.9410   31.7680   38.4720 C   0  0  0  0  0  0  0  0  0  0  0  0
   37.1010   32.6420   39.0810 N   0  0  0  0  0  0  0  0  0  0  0  0
   37.5930   33.6590   39.8380 C   0  0  0  0  0  0  0  0  0  0  0  0
   38.9410   33.8250   40.0020 N   0  0  0  0  0  0  0  0  0  0  0  0
   40.8550   33.1200   39.5510 H   0  0  0  0  0  0  0  0  0  0  0  0
   40.0350   31.2720   38.1780 H   0  0  0  0  0  0  0  0  0  0  0  0
   36.9430   34.3660   40.3300 H   0  0  0  0  0  0  0  0  0  0  0  0
   35.9620   28.2950   41.8670 O   0  0  0  0  0  0  0  0  0  0  0  0
   37.1150   27.6880   42.3260 C   0  0  0  0  0  0  0  0  0  0  0  0
   38.1680   28.2480   43.0130 C   0  0  0  0  0  0  0  0  0  0  0  0
   39.2470   27.5080   43.4010 C   0  0  0  0  0  0  0  0  0  0  0  0
   39.3090   26.1630   43.1100 C   0  0  0  0  0  0  0  0  0  0  0  0
   38.2250   25.6280   42.4120 C   0  0  0  0  0  0  0  0  0  0  0  0
   37.1590   26.3870   42.0360 N   0  0  0  0  0  0  0  0  0  0  0  0
   38.0480   29.3180   43.2090 H   0  0  0  0  0  0  0  0  0  0  0  0
   40.0430   28.0230   43.9420 H   0  0  0  0  0  0  0  0  0  0  0  0
   40.1530   25.5800   43.4120 H   0  0  0  0  0  0  0  0  0  0  0  0
   37.8120   22.3940   41.2070 H   0  0  0  0  0  0  0  0  0  0  0  0
   37.5190   23.4330   41.1980 C   0  0  0  0  0  0  0  0  0  0  0  0
   36.6060   23.9040   40.4710 O   0  0  0  0  0  0  0  0  0  0  0  0
   38.2680   24.2250   42.0950 N   0  0  0  0  0  0  0  0  0  0  0  0
   39.0240   23.9120   42.7190 H   0  0  0  0  0  0  0  0  0  0  0  0
  2  1  2  6  0  0  0
  2  3  1  0  0  0  0
  2 22  1  0  0  0  0
  3  4  1  0  0  0  0
  5  2  1  0  0  0  0
  6  9  1  6  0  0  0
  6  8  1  0  0  0  0
  6 15  1  0  0  0  0
  7  6  1  0  0  0  0
  7 10  1  0  0  0  0
  7  8  1  0  0  0  0
  8 12  1  6  0  0  0
  8  5  1  0  0  0  0
 11  7  1  0  0  0  0
 13 19  1  0  0  0  0
 13 18  1  0  0  0  0
 14 13  2  0  0  0  0
 15 14  1  0  0  0  0
 15 16  2  0  0  0  0
 16 17  1  0  0  0  0
 17 18  2  0  0  0  0
 17 21  1  0  0  0  0
 20 14  1  0  0  0  0
 22 23  1  0  0  0  0
 23 24  1  0  0  0  0
 24 29  1  0  0  0  0
 24 25  2  0  0  0  0
 25 30  1  0  0  0  0
 26 25  1  0  0  0  0
 26 31  1  0  0  0  0
 27 26  2  0  0  0  0
 28 23  2  0  0  0  0
 28 27  1  0  0  0  0
 33 32  1  0  0  0  0
 33 35  1  0  0  0  0
 34 33  2  0  0  0  0
 35 27  1  0  0  0  0
 35 36  1  0  0  0  0
M  END
>  <minimizedAffinity>
-6.05312824

$$$$

 OpenBabel03252501093D

 36 38  0  0  1  0  0  0  0  0999 V2000
   35.9620   28.8460   41.4420 O   0  0  0  0  0  0  0  0  0  0  0  0
   37.3170   29.3990   41.8820 P   0  0  2  0  0  0  0  0  0  0  0  0
   37.3160   29.2870   43.5750 O   0  0  0  0  0  0  0  0  0  0  0  0
   38.2180   29.0530   43.9150 H   0  0  0  0  0  0  0  0  0  0  0  0
   37.6010   30.8980   41.2940 O   0  0  0  0  0  0  0  0  0  0  0  0
   37.2070   32.4360   39.4700 C   0  0  1  0  0  0  0  0  0  0  0  0
   36.8810   31.1200   38.9060 C   0  0  0  0  0  0  0  0  0  0  0  0
   36.7330   31.4210   40.4090 C   0  0  1  0  0  0  0  0  0  0  0  0
   36.5790   33.3260   39.2550 H   0  0  0  0  0  0  0  0  0  0  0  0
   37.6650   30.3690   38.6650 H   0  0  0  0  0  0  0  0  0  0  0  0
   35.9850   31.0080   38.2890 H   0  0  0  0  0  0  0  0  0  0  0  0
   35.6680   31.3810   40.7000 H   0  0  0  0  0  0  0  0  0  0  0  0
   40.4790   34.1610   40.2920 C   0  0  0  0  0  0  0  0  0  0  0  0
   39.1200   33.8710   40.2690 C   0  0  0  0  0  0  0  0  0  0  0  0
   38.6740   32.7620   39.5250 C   0  0  0  0  0  0  0  0  0  0  0  0
   39.5810   32.0090   38.8530 N   0  0  0  0  0  0  0  0  0  0  0  0
   40.9050   32.3220   38.8970 C   0  0  0  0  0  0  0  0  0  0  0  0
   41.3500   33.3970   39.6160 N   0  0  0  0  0  0  0  0  0  0  0  0
   40.8420   35.0020   40.8530 H   0  0  0  0  0  0  0  0  0  0  0  0
   38.4510   34.4940   40.8160 H   0  0  0  0  0  0  0  0  0  0  0  0
   41.6440   31.7370   38.3710 H   0  0  0  0  0  0  0  0  0  0  0  0
   38.4420   28.2940   41.3050 O   0  0  0  0  0  0  0  0  0  0  0  0
   38.9580   27.2460   42.0440 C   0  0  0  0  0  0  0  0  0  0  0  0
   39.9090   27.2800   43.0390 C   0  0  0  0  0  0  0  0  0  0  0  0
   40.3180   26.1480   43.6800 C   0  0  0  0  0  0  0  0  0  0  0  0
   39.7820   24.9250   43.3420 C   0  0  0  0  0  0  0  0  0  0  0  0
   38.8220   24.9260   42.3290 C   0  0  0  0  0  0  0  0  0  0  0  0
   38.4290   26.0700   41.7040 N   0  0  0  0  0  0  0  0  0  0  0  0
   40.2880   28.2840   43.2530 H   0  0  0  0  0  0  0  0  0  0  0  0
   41.0770   26.2550   44.4580 H   0  0  0  0  0  0  0  0  0  0  0  0
   40.1010   24.0350   43.8420 H   0  0  0  0  0  0  0  0  0  0  0  0
   37.2110   22.2130   40.8710 H   0  0  0  0  0  0  0  0  0  0  0  0
   37.4900   23.2550   40.8380 C   0  0  0  0  0  0  0  0  0  0  0  0
   37.1780   24.0400   39.9050 O   0  0  0  0  0  0  0  0  0  0  0  0
   38.2470   23.6600   41.9580 N   0  0  0  0  0  0  0  0  0  0  0  0
   38.5380   23.0780   42.7560 H   0  0  0  0  0  0  0  0  0  0  0  0
  2  1  2  6  0  0  0
  2  3  1  0  0  0  0
  3  4  1  0  0  0  0
  5  2  1  0  0  0  0
  6  9  1  6  0  0  0
  6 15  1  0  0  0  0
  6  8  1  0  0  0  0
  7  6  1  0  0  0  0
  7  8  1  0  0  0  0
  8 12  1  1  0  0  0
  8  5  1  0  0  0  0
 10  7  1  0  0  0  0
 11  7  1  0  0  0  0
 13 19  1  0  0  0  0
 14 13  1  0  0  0  0
 14 20  1  0  0  0  0
 15 14  2  0  0  0  0
 16 17  2  0  0  0  0
 16 15  1  0  0  0  0
 17 18  1  0  0  0  0
 18 13  2  0  0  0  0
 21 17  1  0  0  0  0
 22  2  1  0  0  0  0
 22 23  1  0  0  0  0
 23 24  1  0  0  0  0
 24 29  1  0  0  0  0
 24 25  2  0  0  0  0
 25 30  1  0  0  0  0
 26 25  1  0  0  0  0
 26 31  1  0  0  0  0
 27 26  2  0  0  0  0
 28 23  2  0  0  0  0
 28 27  1  0  0  0  0
 33 32  1  0  0  0  0
 33 35  1  0  0  0  0
 34 33  2  0  0  0  0
 35 27  1  0  0  0  0
 35 36  1  0  0  0  0
M  END
>  <minimizedAffinity>
-5.95248938

$$$$

 OpenBabel03252501093D

 36 38  0  0  1  0  0  0  0  0999 V2000
   35.8150   28.6390   41.2920 O   0  0  0  0  0  0  0  0  0  0  0  0
   37.1310   29.2480   41.7780 P   0  0  2  0  0  0  0  0  0  0  0  0
   37.0440   29.2040   43.4710 O   0  0  0  0  0  0  0  0  0  0  0  0
   37.9340   29.0090   43.8660 H   0  0  0  0  0  0  0  0  0  0  0  0
   37.4040   30.7300   41.1430 O   0  0  0  0  0  0  0  0  0  0  0  0
   37.0710   32.2230   39.2700 C   0  0  1  0  0  0  0  0  0  0  0  0
   36.9020   30.8830   38.6950 C   0  0  0  0  0  0  0  0  0  0  0  0
   36.5880   31.1810   40.1730 C   0  0  1  0  0  0  0  0  0  0  0  0
   36.4000   33.0620   38.9860 H   0  0  0  0  0  0  0  0  0  0  0  0
   37.7590   30.1940   38.5400 H   0  0  0  0  0  0  0  0  0  0  0  0
   36.0800   30.7000   37.9970 H   0  0  0  0  0  0  0  0  0  0  0  0
   35.5060   31.0610   40.3620 H   0  0  0  0  0  0  0  0  0  0  0  0
   40.1140   34.1610   40.4310 C   0  0  0  0  0  0  0  0  0  0  0  0
   38.7890   33.7660   40.2830 C   0  0  0  0  0  0  0  0  0  0  0  0
   38.4970   32.6610   39.4600 C   0  0  0  0  0  0  0  0  0  0  0  0
   39.5140   32.0160   38.8360 N   0  0  0  0  0  0  0  0  0  0  0  0
   40.7990   32.4300   39.0020 C   0  0  0  0  0  0  0  0  0  0  0  0
   41.0950   33.5010   39.8000 N   0  0  0  0  0  0  0  0  0  0  0  0
   40.3590   35.0010   41.0540 H   0  0  0  0  0  0  0  0  0  0  0  0
   38.0300   34.3070   40.7980 H   0  0  0  0  0  0  0  0  0  0  0  0
   41.6240   31.9310   38.5160 H   0  0  0  0  0  0  0  0  0  0  0  0
   38.3130   28.1540   41.3040 O   0  0  0  0  0  0  0  0  0  0  0  0
   38.3530   26.8290   41.6930 C   0  0  0  0  0  0  0  0  0  0  0  0
   37.3300   25.9070   41.7160 C   0  0  0  0  0  0  0  0  0  0  0  0
   37.5300   24.6230   42.1300 C   0  0  0  0  0  0  0  0  0  0  0  0
   38.7790   24.2120   42.5420 C   0  0  0  0  0  0  0  0  0  0  0  0
   39.7910   25.1710   42.5070 C   0  0  0  0  0  0  0  0  0  0  0  0
   39.5670   26.4470   42.0890 N   0  0  0  0  0  0  0  0  0  0  0  0
   36.3690   26.3050   41.3730 H   0  0  0  0  0  0  0  0  0  0  0  0
   36.6700   23.9500   42.1200 H   0  0  0  0  0  0  0  0  0  0  0  0
   38.9380   23.2060   42.8680 H   0  0  0  0  0  0  0  0  0  0  0  0
   43.0900   24.8730   43.5630 H   0  0  0  0  0  0  0  0  0  0  0  0
   42.2560   25.5010   43.2850 C   0  0  0  0  0  0  0  0  0  0  0  0
   42.2940   26.7590   43.2680 O   0  0  0  0  0  0  0  0  0  0  0  0
   41.1040   24.7650   42.9340 N   0  0  0  0  0  0  0  0  0  0  0  0
   40.9990   23.7400   42.9230 H   0  0  0  0  0  0  0  0  0  0  0  0
  2  1  2  6  0  0  0
  2  3  1  0  0  0  0
  3  4  1  0  0  0  0
  5  2  1  0  0  0  0
  6  9  1  6  0  0  0
  6 15  1  0  0  0  0
  6  8  1  0  0  0  0
  7  6  1  0  0  0  0
  7  8  1  0  0  0  0
  8 12  1  1  0  0  0
  8  5  1  0  0  0  0
 10  7  1  0  0  0  0
 11  7  1  0  0  0  0
 13 19  1  0  0  0  0
 14 13  1  0  0  0  0
 14 20  1  0  0  0  0
 15 14  2  0  0  0  0
 16 17  2  0  0  0  0
 16 15  1  0  0  0  0
 17 18  1  0  0  0  0
 18 13  2  0  0  0  0
 21 17  1  0  0  0  0
 22 23  1  0  0  0  0
 22  2  1  0  0  0  0
 23 24  2  0  0  0  0
 23 28  1  0  0  0  0
 24 25  1  0  0  0  0
 25 26  2  0  0  0  0
 26 31  1  0  0  0  0
 27 26  1  0  0  0  0
 27 35  1  0  0  0  0
 28 27  2  0  0  0  0
 29 24  1  0  0  0  0
 30 25  1  0  0  0  0
 33 32  1  0  0  0  0
 34 33  2  0  0  0  0
 35 33  1  0  0  0  0
 36 35  1  0  0  0  0
M  END
>  <minimizedAffinity>
-5.81599951

$$$$

 OpenBabel03252501093D

 36 38  0  0  1  0  0  0  0  0999 V2000
   35.5040   28.6410   41.0930 O   0  0  0  0  0  0  0  0  0  0  0  0
   36.5360   29.7670   41.1360 P   0  0  2  0  0  0  0  0  0  0  0  0
   35.6380   31.1850   41.3800 O   0  0  0  0  0  0  0  0  0  0  0  0
   36.1290   31.8180   41.9680 H   0  0  0  0  0  0  0  0  0  0  0  0
   37.4970   29.7840   39.8130 O   0  0  0  0  0  0  0  0  0  0  0  0
   37.3030   31.5290   38.1500 C   0  0  1  0  0  0  0  0  0  0  0  0
   37.8930   30.4010   37.4190 C   0  0  0  0  0  0  0  0  0  0  0  0
   36.9780   30.1910   38.6400 C   0  0  1  0  0  0  0  0  0  0  0  0
   36.5090   32.1580   37.6960 H   0  0  0  0  0  0  0  0  0  0  0  0
   38.9450   30.0800   37.5750 H   0  0  0  0  0  0  0  0  0  0  0  0
   37.5200   30.1570   36.4200 H   0  0  0  0  0  0  0  0  0  0  0  0
   36.0420   29.6930   38.3310 H   0  0  0  0  0  0  0  0  0  0  0  0
   40.5280   32.9630   39.5300 C   0  0  0  0  0  0  0  0  0  0  0  0
   39.6530   32.2270   38.7390 C   0  0  0  0  0  0  0  0  0  0  0  0
   38.2700   32.3270   38.9810 C   0  0  0  0  0  0  0  0  0  0  0  0
   37.8310   33.1360   39.9770 N   0  0  0  0  0  0  0  0  0  0  0  0
   38.7140   33.8410   40.7340 C   0  0  0  0  0  0  0  0  0  0  0  0
   40.0610   33.7530   40.5080 N   0  0  0  0  0  0  0  0  0  0  0  0
   41.5870   32.9020   39.3630 H   0  0  0  0  0  0  0  0  0  0  0  0
   40.0520   31.6090   37.9680 H   0  0  0  0  0  0  0  0  0  0  0  0
   38.3880   34.4910   41.5310 H   0  0  0  0  0  0  0  0  0  0  0  0
   37.4240   29.4850   42.5320 O   0  0  0  0  0  0  0  0  0  0  0  0
   38.8030   29.5470   42.6070 C   0  0  0  0  0  0  0  0  0  0  0  0
   39.6310   30.6190   42.3640 C   0  0  0  0  0  0  0  0  0  0  0  0
   40.9860   30.5210   42.4830 C   0  0  0  0  0  0  0  0  0  0  0  0
   41.5670   29.3280   42.8540 C   0  0  0  0  0  0  0  0  0  0  0  0
   40.6990   28.2620   43.0920 C   0  0  0  0  0  0  0  0  0  0  0  0
   39.3490   28.3850   42.9680 N   0  0  0  0  0  0  0  0  0  0  0  0
   39.0990   31.5320   42.0760 H   0  0  0  0  0  0  0  0  0  0  0  0
   41.5770   31.4150   42.2730 H   0  0  0  0  0  0  0  0  0  0  0  0
   42.6300   29.2480   42.9480 H   0  0  0  0  0  0  0  0  0  0  0  0
   41.4830   24.9670   43.8740 H   0  0  0  0  0  0  0  0  0  0  0  0
   40.7630   25.6940   43.5280 C   0  0  0  0  0  0  0  0  0  0  0  0
   39.5800   25.4160   43.2000 O   0  0  0  0  0  0  0  0  0  0  0  0
   41.2830   27.0060   43.4800 N   0  0  0  0  0  0  0  0  0  0  0  0
   42.2340   27.3080   43.7330 H   0  0  0  0  0  0  0  0  0  0  0  0
  2  1  2  6  0  0  0
  2  3  1  0  0  0  0
  2 22  1  0  0  0  0
  3  4  1  0  0  0  0
  5  2  1  0  0  0  0
  6  9  1  6  0  0  0
  6  8  1  0  0  0  0
  6 15  1  0  0  0  0
  7 10  1  0  0  0  0
  7  6  1  0  0  0  0
  7  8  1  0  0  0  0
  8 12  1  6  0  0  0
  8  5  1  0  0  0  0
 11  7  1  0  0  0  0
 13 18  1  0  0  0  0
 14 15  1  0  0  0  0
 14 13  2  0  0  0  0
 15 16  2  0  0  0  0
 16 17  1  0  0  0  0
 17 21  1  0  0  0  0
 18 17  2  0  0  0  0
 19 13  1  0  0  0  0
 20 14  1  0  0  0  0
 22 23  1  0  0  0  0
 23 28  1  0  0  0  0
 24 25  1  0  0  0  0
 24 23  2  0  0  0  0
 25 26  2  0  0  0  0
 26 31  1  0  0  0  0
 26 27  1  0  0  0  0
 27 35  1  0  0  0  0
 28 27  2  0  0  0  0
 29 24  1  0  0  0  0
 30 25  1  0  0  0  0
 33 32  1  0  0  0  0
 34 33  2  0  0  0  0
 35 33  1  0  0  0  0
 35 36  1  0  0  0  0
M  END
>  <minimizedAffinity>
-5.70714045

$$$$

 OpenBabel03252501093D

 36 38  0  0  1  0  0  0  0  0999 V2000
   40.2850   29.6470   41.0050 O   0  0  0  0  0  0  0  0  0  0  0  0
   39.3690   30.1780   42.1070 P   0  0  2  0  0  0  0  0  0  0  0  0
   40.3290   31.2500   43.0060 O   0  0  0  0  0  0  0  0  0  0  0  0
   39.7960   32.0280   43.3170 H   0  0  0  0  0  0  0  0  0  0  0  0
   38.6800   28.9790   42.9790 O   0  0  0  0  0  0  0  0  0  0  0  0
   36.7170   27.7880   42.2160 C   0  0  1  0  0  0  0  0  0  0  0  0
   36.6590   27.6750   43.6790 C   0  0  0  0  0  0  0  0  0  0  0  0
   37.3380   28.8690   42.9810 C   0  0  1  0  0  0  0  0  0  0  0  0
   35.8040   27.9900   41.6170 H   0  0  0  0  0  0  0  0  0  0  0  0
   37.3550   27.0230   44.2490 H   0  0  0  0  0  0  0  0  0  0  0  0
   35.7040   27.8240   44.1900 H   0  0  0  0  0  0  0  0  0  0  0  0
   36.7800   29.7980   43.1910 H   0  0  0  0  0  0  0  0  0  0  0  0
   38.9580   24.8020   41.5700 C   0  0  0  0  0  0  0  0  0  0  0  0
   38.0790   25.6670   42.2120 C   0  0  0  0  0  0  0  0  0  0  0  0
   37.6540   26.8280   41.5380 C   0  0  0  0  0  0  0  0  0  0  0  0
   38.1130   27.0680   40.2840 N   0  0  0  0  0  0  0  0  0  0  0  0
   38.9730   26.2010   39.6850 C   0  0  0  0  0  0  0  0  0  0  0  0
   39.3930   25.0690   40.3300 N   0  0  0  0  0  0  0  0  0  0  0  0
   39.2950   23.9100   42.0650 H   0  0  0  0  0  0  0  0  0  0  0  0
   37.7490   25.4280   43.1960 H   0  0  0  0  0  0  0  0  0  0  0  0
   39.3500   26.3720   38.6890 H   0  0  0  0  0  0  0  0  0  0  0  0
   38.2120   31.0910   41.3030 O   0  0  0  0  0  0  0  0  0  0  0  0
   37.9320   30.9860   39.9540 C   0  0  0  0  0  0  0  0  0  0  0  0
   36.8610   30.3730   39.3420 C   0  0  0  0  0  0  0  0  0  0  0  0
   36.7250   30.3540   37.9850 C   0  0  0  0  0  0  0  0  0  0  0  0
   37.6690   30.9570   37.1830 C   0  0  0  0  0  0  0  0  0  0  0  0
   38.7400   31.5670   37.8350 C   0  0  0  0  0  0  0  0  0  0  0  0
   38.8550   31.5740   39.1920 N   0  0  0  0  0  0  0  0  0  0  0  0
   36.1530   29.9190   40.0430 H   0  0  0  0  0  0  0  0  0  0  0  0
   35.8490   29.8490   37.5740 H   0  0  0  0  0  0  0  0  0  0  0  0
   37.5640   30.9430   36.1180 H   0  0  0  0  0  0  0  0  0  0  0  0
   41.5360   33.0940   36.4420 H   0  0  0  0  0  0  0  0  0  0  0  0
   41.0460   32.6550   37.2990 C   0  0  0  0  0  0  0  0  0  0  0  0
   41.5740   32.5520   38.4370 O   0  0  0  0  0  0  0  0  0  0  0  0
   39.7400   32.2020   37.0170 N   0  0  0  0  0  0  0  0  0  0  0  0
   39.2440   32.2530   36.1160 H   0  0  0  0  0  0  0  0  0  0  0  0
  2  1  2  6  0  0  0
  2  5  1  0  0  0  0
  2  3  1  0  0  0  0
  3  4  1  0  0  0  0
  5  8  1  0  0  0  0
  6  9  1  6  0  0  0
  6  8  1  0  0  0  0
  6  7  1  0  0  0  0
  7 11  1  0  0  0  0
  7 10  1  0  0  0  0
  8 12  1  1  0  0  0
  8  7  1  0  0  0  0
 13 19  1  0  0  0  0
 13 14  1  0  0  0  0
 14 20  1  0  0  0  0
 15 14  2  0  0  0  0
 15  6  1  0  0  0  0
 16 15  1  0  0  0  0
 17 16  2  0  0  0  0
 17 18  1  0  0  0  0
 18 13  2  0  0  0  0
 21 17  1  0  0  0  0
 22  2  1  0  0  0  0
 23 22  1  0  0  0  0
 24 23  1  0  0  0  0
 24 29  1  0  0  0  0
 25 24  2  0  0  0  0
 26 27  2  0  0  0  0
 26 25  1  0  0  0  0
 27 28  1  0  0  0  0
 28 23  2  0  0  0  0
 30 25  1  0  0  0  0
 31 26  1  0  0  0  0
 32 33  1  0  0  0  0
 33 34  2  0  0  0  0
 35 33  1  0  0  0  0
 35 27  1  0  0  0  0
 36 35  1  0  0  0  0
M  END
>  <minimizedAffinity>
-5.6239028

$$$$

 OpenBabel03252501093D

 36 38  0  0  1  0  0  0  0  0999 V2000
   35.5960   28.9060   41.1910 O   0  0  0  0  0  0  0  0  0  0  0  0
   37.0320   29.2850   41.5500 P   0  0  2  0  0  0  0  0  0  0  0  0
   37.0490   29.4200   43.2400 O   0  0  0  0  0  0  0  0  0  0  0  0
   37.9080   29.0920   43.6140 H   0  0  0  0  0  0  0  0  0  0  0  0
   37.5450   30.6160   40.7500 O   0  0  0  0  0  0  0  0  0  0  0  0
   37.1610   32.4040   39.1660 C   0  0  1  0  0  0  0  0  0  0  0  0
   36.9480   31.1800   38.3850 C   0  0  0  0  0  0  0  0  0  0  0  0
   36.6970   31.2300   39.9030 C   0  0  1  0  0  0  0  0  0  0  0  0
   36.4940   33.2840   39.0530 H   0  0  0  0  0  0  0  0  0  0  0  0
   37.7870   30.5180   38.0810 H   0  0  0  0  0  0  0  0  0  0  0  0
   36.0960   31.1230   37.7010 H   0  0  0  0  0  0  0  0  0  0  0  0
   35.6230   31.0900   40.1150 H   0  0  0  0  0  0  0  0  0  0  0  0
   40.2770   34.1030   40.4950 C   0  0  0  0  0  0  0  0  0  0  0  0
   38.9420   33.7500   40.3390 C   0  0  0  0  0  0  0  0  0  0  0  0
   38.6010   32.7910   39.3670 C   0  0  0  0  0  0  0  0  0  0  0  0
   39.5830   32.2380   38.6120 N   0  0  0  0  0  0  0  0  0  0  0  0
   40.8800   32.6060   38.7900 C   0  0  0  0  0  0  0  0  0  0  0  0
   41.2240   33.5380   39.7310 N   0  0  0  0  0  0  0  0  0  0  0  0
   40.5600   34.8330   41.2300 H   0  0  0  0  0  0  0  0  0  0  0  0
   38.2110   34.2150   40.9600 H   0  0  0  0  0  0  0  0  0  0  0  0
   41.6780   32.1800   38.2010 H   0  0  0  0  0  0  0  0  0  0  0  0
   37.9480   27.9390   41.1420 O   0  0  0  0  0  0  0  0  0  0  0  0
   37.4780   26.6390   41.1560 C   0  0  0  0  0  0  0  0  0  0  0  0
   37.3630   25.7770   42.2230 C   0  0  0  0  0  0  0  0  0  0  0  0
   36.8750   24.5120   42.0740 C   0  0  0  0  0  0  0  0  0  0  0  0
   36.4780   24.0610   40.8340 C   0  0  0  0  0  0  0  0  0  0  0  0
   36.6090   24.9600   39.7750 C   0  0  0  0  0  0  0  0  0  0  0  0
   37.0990   26.2180   39.9490 N   0  0  0  0  0  0  0  0  0  0  0  0
   37.6950   26.2040   43.1750 H   0  0  0  0  0  0  0  0  0  0  0  0
   36.8140   23.8860   42.9670 H   0  0  0  0  0  0  0  0  0  0  0  0
   36.0950   23.0700   40.7140 H   0  0  0  0  0  0  0  0  0  0  0  0
   35.9810   24.4310   36.3980 H   0  0  0  0  0  0  0  0  0  0  0  0
   36.4400   25.0220   37.1760 C   0  0  0  0  0  0  0  0  0  0  0  0
   37.1190   26.0620   36.9660 O   0  0  0  0  0  0  0  0  0  0  0  0
   36.2030   24.5110   38.4700 N   0  0  0  0  0  0  0  0  0  0  0  0
   35.6600   23.6720   38.7180 H   0  0  0  0  0  0  0  0  0  0  0  0
  2  1  2  6  0  0  0
  2  3  1  0  0  0  0
  3  4  1  0  0  0  0
  5  2  1  0  0  0  0
  6  9  1  6  0  0  0
  6 15  1  0  0  0  0
  6  8  1  0  0  0  0
  7  6  1  0  0  0  0
  7  8  1  0  0  0  0
  8 12  1  1  0  0  0
  8  5  1  0  0  0  0
 10  7  1  0  0  0  0
 11  7  1  0  0  0  0
 13 19  1  0  0  0  0
 14 13  1  0  0  0  0
 14 20  1  0  0  0  0
 15 14  2  0  0  0  0
 16 17  2  0  0  0  0
 16 15  1  0  0  0  0
 17 18  1  0  0  0  0
 18 13  2  0  0  0  0
 21 17  1  0  0  0  0
 22 23  1  0  0  0  0
 22  2  1  0  0  0  0
 23 24  1  0  0  0  0
 24 29  1  0  0  0  0
 25 24  2  0  0  0  0
 25 30  1  0  0  0  0
 26 25  1  0  0  0  0
 27 28  1  0  0  0  0
 27 26  2  0  0  0  0
 28 23  2  0  0  0  0
 31 26  1  0  0  0  0
 32 33  1  0  0  0  0
 33 35  1  0  0  0  0
 34 33  2  0  0  0  0
 35 36  1  0  0  0  0
 35 27  1  0  0  0  0
M  END
>  <minimizedAffinity>
-5.45551443

$$$$

 OpenBabel03252501093D

 36 38  0  0  1  0  0  0  0  0999 V2000
   37.6220   28.3620   37.9420 O   0  0  0  0  0  0  0  0  0  0  0  0
   38.1890   29.1450   39.1260 P   0  0  2  0  0  0  0  0  0  0  0  0
   39.7630   29.5750   38.6640 O   0  0  0  0  0  0  0  0  0  0  0  0
   39.9980   30.4770   39.0050 H   0  0  0  0  0  0  0  0  0  0  0  0
   38.0890   28.3120   40.5300 O   0  0  0  0  0  0  0  0  0  0  0  0
   36.8790   27.7210   42.5390 C   0  0  1  0  0  0  0  0  0  0  0  0
   37.3520   29.0870   42.7940 C   0  0  0  0  0  0  0  0  0  0  0  0
   37.0700   28.5760   41.3680 C   0  0  1  0  0  0  0  0  0  0  0  0
   35.8550   27.4020   42.8280 H   0  0  0  0  0  0  0  0  0  0  0  0
   38.4210   29.3150   42.9950 H   0  0  0  0  0  0  0  0  0  0  0  0
   36.6720   29.8130   43.2490 H   0  0  0  0  0  0  0  0  0  0  0  0
   36.2180   29.1250   40.9310 H   0  0  0  0  0  0  0  0  0  0  0  0
   39.9980   25.8950   43.6800 C   0  0  0  0  0  0  0  0  0  0  0  0
   39.0570   26.9050   43.5120 C   0  0  0  0  0  0  0  0  0  0  0  0
   37.9040   26.6400   42.7500 C   0  0  0  0  0  0  0  0  0  0  0  0
   37.7420   25.4100   42.2020 N   0  0  0  0  0  0  0  0  0  0  0  0
   38.6830   24.4440   42.3860 C   0  0  0  0  0  0  0  0  0  0  0  0
   39.8080   24.6900   43.1240 N   0  0  0  0  0  0  0  0  0  0  0  0
   40.8850   26.0760   44.2570 H   0  0  0  0  0  0  0  0  0  0  0  0
   39.2330   27.8530   43.9650 H   0  0  0  0  0  0  0  0  0  0  0  0
   38.5750   23.4580   41.9600 H   0  0  0  0  0  0  0  0  0  0  0  0
   37.2780   30.5540   39.1870 O   0  0  0  0  0  0  0  0  0  0  0  0
   37.7620   31.7800   39.6020 C   0  0  0  0  0  0  0  0  0  0  0  0
   37.2350   33.0330   39.3820 C   0  0  0  0  0  0  0  0  0  0  0  0
   37.8370   34.1590   39.8620 C   0  0  0  0  0  0  0  0  0  0  0  0
   39.0030   34.0690   40.5890 C   0  0  0  0  0  0  0  0  0  0  0  0
   39.5100   32.7850   40.7920 C   0  0  0  0  0  0  0  0  0  0  0  0
   38.8910   31.6750   40.3040 N   0  0  0  0  0  0  0  0  0  0  0  0
   36.3080   33.0260   38.7990 H   0  0  0  0  0  0  0  0  0  0  0  0
   37.3590   35.1170   39.6460 H   0  0  0  0  0  0  0  0  0  0  0  0
   39.4780   34.9500   40.9660 H   0  0  0  0  0  0  0  0  0  0  0  0
   42.4700   31.8500   42.3580 H   0  0  0  0  0  0  0  0  0  0  0  0
   41.6440   31.6030   41.7070 C   0  0  0  0  0  0  0  0  0  0  0  0
   41.4990   30.4860   41.1440 O   0  0  0  0  0  0  0  0  0  0  0  0
   40.7290   32.6650   41.5480 N   0  0  0  0  0  0  0  0  0  0  0  0
   40.7810   33.6010   41.9750 H   0  0  0  0  0  0  0  0  0  0  0  0
  2  1  2  6  0  0  0
  2 22  1  0  0  0  0
  2  5  1  0  0  0  0
  3  4  1  0  0  0  0
  3  2  1  0  0  0  0
  5  8  1  0  0  0  0
  6 15  1  0  0  0  0
  6  7  1  0  0  0  0
  6  9  1  1  0  0  0
  7 10  1  0  0  0  0
  7 11  1  0  0  0  0
  8 12  1  6  0  0  0
  8  6  1  0  0  0  0
  8  7  1  0  0  0  0
 13 19  1  0  0  0  0
 14 13  1  0  0  0  0
 14 20  1  0  0  0  0
 15 14  2  0  0  0  0
 16 17  2  0  0  0  0
 16 15  1  0  0  0  0
 17 18  1  0  0  0  0
 18 13  2  0  0  0  0
 21 17  1  0  0  0  0
 22 23  1  0  0  0  0
 23 28  1  0  0  0  0
 24 23  2  0  0  0  0
 24 25  1  0  0  0  0
 25 26  2  0  0  0  0
 26 27  1  0  0  0  0
 26 31  1  0  0  0  0
 27 35  1  0  0  0  0
 28 27  2  0  0  0  0
 29 24  1  0  0  0  0
 30 25  1  0  0  0  0
 33 32  1  0  0  0  0
 34 33  2  0  0  0  0
 35 33  1  0  0  0  0
 35 36  1  0  0  0  0
M  END
>  <minimizedAffinity>
-5.33638525

$$$$

 OpenBabel03252501093D

 36 38  0  0  1  0  0  0  0  0999 V2000
   36.9780   29.0590   36.3550 O   0  0  0  0  0  0  0  0  0  0  0  0
   37.7090   29.6200   37.5750 P   0  0  2  0  0  0  0  0  0  0  0  0
   39.3570   29.5460   37.1800 O   0  0  0  0  0  0  0  0  0  0  0  0
   39.8450   30.3290   37.5470 H   0  0  0  0  0  0  0  0  0  0  0  0
   37.3000   28.8500   38.9580 O   0  0  0  0  0  0  0  0  0  0  0  0
   35.6920   28.5320   40.7360 C   0  0  1  0  0  0  0  0  0  0  0  0
   35.5100   29.9320   40.3340 C   0  0  0  0  0  0  0  0  0  0  0  0
   36.0120   28.8610   39.3480 C   0  0  1  0  0  0  0  0  0  0  0  0
   34.8220   27.8800   40.9630 H   0  0  0  0  0  0  0  0  0  0  0  0
   36.2570   30.7190   40.5740 H   0  0  0  0  0  0  0  0  0  0  0  0
   34.4970   30.3310   40.2250 H   0  0  0  0  0  0  0  0  0  0  0  0
   35.2660   28.7020   38.5490 H   0  0  0  0  0  0  0  0  0  0  0  0
   38.3620   26.7440   42.7450 C   0  0  0  0  0  0  0  0  0  0  0  0
   37.2890   26.9570   41.8860 C   0  0  0  0  0  0  0  0  0  0  0  0
   36.8600   28.2760   41.6470 C   0  0  0  0  0  0  0  0  0  0  0  0
   37.5050   29.3010   42.2600 N   0  0  0  0  0  0  0  0  0  0  0  0
   38.5510   29.0580   43.0950 C   0  0  0  0  0  0  0  0  0  0  0  0
   38.9770   27.7800   43.3340 N   0  0  0  0  0  0  0  0  0  0  0  0
   38.7060   25.7460   42.9410 H   0  0  0  0  0  0  0  0  0  0  0  0
   36.8210   26.1150   41.4300 H   0  0  0  0  0  0  0  0  0  0  0  0
   39.0780   29.8570   43.5920 H   0  0  0  0  0  0  0  0  0  0  0  0
   37.2760   31.2410   37.6290 O   0  0  0  0  0  0  0  0  0  0  0  0
   37.8590   32.1790   38.4610 C   0  0  0  0  0  0  0  0  0  0  0  0
   37.2510   33.1610   39.2100 C   0  0  0  0  0  0  0  0  0  0  0  0
   37.9700   34.0180   39.9890 C   0  0  0  0  0  0  0  0  0  0  0  0
   39.3430   33.9200   40.0470 C   0  0  0  0  0  0  0  0  0  0  0  0
   39.9270   32.9150   39.2760 C   0  0  0  0  0  0  0  0  0  0  0  0
   39.1870   32.0700   38.5050 N   0  0  0  0  0  0  0  0  0  0  0  0
   36.1600   33.1770   39.1150 H   0  0  0  0  0  0  0  0  0  0  0  0
   37.4170   34.7710   40.5540 H   0  0  0  0  0  0  0  0  0  0  0  0
   39.9100   34.5910   40.6570 H   0  0  0  0  0  0  0  0  0  0  0  0
   43.3020   32.2260   38.8130 H   0  0  0  0  0  0  0  0  0  0  0  0
   42.2780   32.1080   38.4940 C   0  0  0  0  0  0  0  0  0  0  0  0
   41.9240   31.4330   37.4920 O   0  0  0  0  0  0  0  0  0  0  0  0
   41.3600   32.7930   39.3190 N   0  0  0  0  0  0  0  0  0  0  0  0
   41.5740   33.3610   40.1500 H   0  0  0  0  0  0  0  0  0  0  0  0
  2  1  2  6  0  0  0
  2 22  1  0  0  0  0
  2  5  1  0  0  0  0
  3  4  1  0  0  0  0
  3  2  1  0  0  0  0
  5  8  1  0  0  0  0
  6  9  1  1  0  0  0
  6 15  1  0  0  0  0
  7 10  1  0  0  0  0
  7  6  1  0  0  0  0
  8 12  1  6  0  0  0
  8  7  1  0  0  0  0
  8  6  1  0  0  0  0
 11  7  1  0  0  0  0
 13 19  1  0  0  0  0
 13 18  1  0  0  0  0
 14 13  2  0  0  0  0
 15 14  1  0  0  0  0
 15 16  2  0  0  0  0
 16 17  1  0  0  0  0
 17 18  2  0  0  0  0
 17 21  1  0  0  0  0
 20 14  1  0  0  0  0
 22 23  1  0  0  0  0
 23 28  2  0  0  0  0
 23 24  1  0  0  0  0
 24 25  2  0  0  0  0
 25 26  1  0  0  0  0
 25 30  1  0  0  0  0
 26 31  1  0  0  0  0
 27 35  1  0  0  0  0
 27 26  2  0  0  0  0
 28 27  1  0  0  0  0
 29 24  1  0  0  0  0
 33 32  1  0  0  0  0
 33 35  1  0  0  0  0
 34 33  2  0  0  0  0
 35 36  1  0  0  0  0
M  END
>  <minimizedAffinity>
-5.23447371

$$$$

 OpenBabel03252501093D

 36 38  0  0  1  0  0  0  0  0999 V2000
   38.6210   25.3920   39.2540 O   0  0  0  0  0  0  0  0  0  0  0  0
   38.9500   26.4990   40.2550 P   0  0  2  0  0  0  0  0  0  0  0  0
   40.2510   25.9040   41.1660 O   0  0  0  0  0  0  0  0  0  0  0  0
   40.8860   26.6320   41.3940 H   0  0  0  0  0  0  0  0  0  0  0  0
   37.6480   26.9530   41.1350 O   0  0  0  0  0  0  0  0  0  0  0  0
   37.8330   28.2430   43.1720 C   0  0  1  0  0  0  0  0  0  0  0  0
   36.5810   27.4930   43.3350 C   0  0  0  0  0  0  0  0  0  0  0  0
   37.7440   26.9600   42.4770 C   0  0  1  0  0  0  0  0  0  0  0  0
   38.5450   28.3660   44.0150 H   0  0  0  0  0  0  0  0  0  0  0  0
   35.6640   27.7410   42.7580 H   0  0  0  0  0  0  0  0  0  0  0  0
   36.3610   27.0200   44.2960 H   0  0  0  0  0  0  0  0  0  0  0  0
   38.1640   26.0460   42.9340 H   0  0  0  0  0  0  0  0  0  0  0  0
   38.7550   31.4020   41.2930 C   0  0  0  0  0  0  0  0  0  0  0  0
   38.8760   30.2600   42.0770 C   0  0  0  0  0  0  0  0  0  0  0  0
   37.7320   29.4740   42.3140 C   0  0  0  0  0  0  0  0  0  0  0  0
   36.5480   29.8530   41.7730 N   0  0  0  0  0  0  0  0  0  0  0  0
   36.4640   30.9770   41.0110 C   0  0  0  0  0  0  0  0  0  0  0  0
   37.5690   31.7480   40.7730 N   0  0  0  0  0  0  0  0  0  0  0  0
   39.6150   32.0160   41.0990 H   0  0  0  0  0  0  0  0  0  0  0  0
   39.8320   30.0080   42.4750 H   0  0  0  0  0  0  0  0  0  0  0  0
   35.5320   31.2960   40.5710 H   0  0  0  0  0  0  0  0  0  0  0  0
   39.5270   27.7680   39.3210 O   0  0  0  0  0  0  0  0  0  0  0  0
   38.7250   28.6670   38.6430 C   0  0  0  0  0  0  0  0  0  0  0  0
   37.3970   28.5500   38.3020 C   0  0  0  0  0  0  0  0  0  0  0  0
   36.7390   29.5350   37.6260 C   0  0  0  0  0  0  0  0  0  0  0  0
   37.3990   30.6880   37.2620 C   0  0  0  0  0  0  0  0  0  0  0  0
   38.7440   30.7740   37.6220 C   0  0  0  0  0  0  0  0  0  0  0  0
   39.3790   29.7780   38.2980 N   0  0  0  0  0  0  0  0  0  0  0  0
   36.9400   27.6090   38.6250 H   0  0  0  0  0  0  0  0  0  0  0  0
   35.6860   29.3690   37.3910 H   0  0  0  0  0  0  0  0  0  0  0  0
   36.8860   31.4620   36.7310 H   0  0  0  0  0  0  0  0  0  0  0  0
   41.0280   33.2860   36.8740 H   0  0  0  0  0  0  0  0  0  0  0  0
   40.8310   32.2760   37.2020 C   0  0  0  0  0  0  0  0  0  0  0  0
   41.7270   31.4480   37.5120 O   0  0  0  0  0  0  0  0  0  0  0  0
   39.4550   31.9700   37.2520 N   0  0  0  0  0  0  0  0  0  0  0  0
   38.6690   32.5920   37.0150 H   0  0  0  0  0  0  0  0  0  0  0  0
  2  1  2  6  0  0  0
  2  5  1  0  0  0  0
  2  3  1  0  0  0  0
  3  4  1  0  0  0  0
  5  8  1  0  0  0  0
  6  7  1  0  0  0  0
  6  9  1  1  0  0  0
  7 11  1  0  0  0  0
  8 12  1  1  0  0  0
  8  6  1  0  0  0  0
  8  7  1  0  0  0  0
 10  7  1  0  0  0  0
 13 14  1  0  0  0  0
 14 15  2  0  0  0  0
 14 20  1  0  0  0  0
 15  6  1  0  0  0  0
 16 15  1  0  0  0  0
 17 16  2  0  0  0  0
 18 17  1  0  0  0  0
 18 13  2  0  0  0  0
 19 13  1  0  0  0  0
 21 17  1  0  0  0  0
 22  2  1  0  0  0  0
 23 22  1  0  0  0  0
 24 29  1  0  0  0  0
 24 23  1  0  0  0  0
 25 24  2  0  0  0  0
 26 27  2  0  0  0  0
 26 25  1  0  0  0  0
 27 28  1  0  0  0  0
 28 23  2  0  0  0  0
 30 25  1  0  0  0  0
 31 26  1  0  0  0  0
 32 33  1  0  0  0  0
 33 35  1  0  0  0  0
 33 34  2  0  0  0  0
 35 27  1  0  0  0  0
 36 35  1  0  0  0  0
M  END
>  <minimizedAffinity>
-5.09832668

$$$$
