
 OpenBabel03242519053D

 39 41  0  0  1  0  0  0  0  0999 V2000
   47.5120   34.4900   42.4350 N   0  0  0  0  0  0  0  0  0  0  0  0
   47.5100   34.7340   40.9980 C   0  0  0  0  0  0  0  0  0  0  0  0
   48.1260   33.4440   40.5480 C   0  0  2  0  0  0  0  0  0  0  0  0
   49.3260   33.3360   41.4710 C   0  0  0  0  0  0  0  0  0  0  0  0
   48.7990   33.9320   42.7510 C   0  0  0  0  0  0  0  0  0  0  0  0
   48.1580   35.5940   40.7560 H   0  0  0  0  0  0  0  0  0  0  0  0
   46.4620   34.8560   40.6840 H   0  0  0  0  0  0  0  0  0  0  0  0
   47.3870   32.6330   40.7050 H   0  0  0  0  0  0  0  0  0  0  0  0
   50.1070   34.0020   41.0850 H   0  0  0  0  0  0  0  0  0  0  0  0
   49.6470   32.2860   41.6230 H   0  0  0  0  0  0  0  0  0  0  0  0
   49.5020   34.6740   43.1780 H   0  0  0  0  0  0  0  0  0  0  0  0
   48.6470   33.1210   43.4910 H   0  0  0  0  0  0  0  0  0  0  0  0
   44.6020   35.8460   44.3320 C   0  0  0  0  0  0  0  0  0  0  0  0
   45.5420   35.7160   43.3150 C   0  0  0  0  0  0  0  0  0  0  0  0
   46.5150   34.7160   43.3980 C   0  0  0  0  0  0  0  0  0  0  0  0
   46.4740   33.9180   44.4970 N   0  0  0  0  0  0  0  0  0  0  0  0
   45.5730   34.0350   45.4820 C   0  0  0  0  0  0  0  0  0  0  0  0
   44.6330   35.0110   45.3890 N   0  0  0  0  0  0  0  0  0  0  0  0
   43.8530   36.6250   44.2560 H   0  0  0  0  0  0  0  0  0  0  0  0
   45.5720   36.3500   42.4430 H   0  0  0  0  0  0  0  0  0  0  0  0
   45.5720   33.3900   46.3300 H   0  0  0  0  0  0  0  0  0  0  0  0
   48.6160   33.4840   39.2060 N   0  0  0  0  0  0  0  0  0  0  0  0
   49.5590   33.9560   39.0920 H   0  0  0  0  0  0  0  0  0  0  0  0
   48.8150   32.2670   37.0390 C   0  0  0  0  0  0  0  0  0  0  0  0
   48.0910   33.0150   37.9840 C   0  0  0  0  0  0  0  0  0  0  0  0
   46.7950   33.2570   37.6100 C   0  0  0  0  0  0  0  0  0  0  0  0
   46.1960   32.8460   36.4500 C   0  0  0  0  0  0  0  0  0  0  0  0
   46.9480   32.1140   35.5540 C   0  0  0  0  0  0  0  0  0  0  0  0
   48.2580   31.8350   35.8690 C   0  0  0  0  0  0  0  0  0  0  0  0
   46.1430   33.8280   38.2670 H   0  0  0  0  0  0  0  0  0  0  0  0
   45.1630   33.0650   36.2000 H   0  0  0  0  0  0  0  0  0  0  0  0
   46.5160   31.7660   34.6210 H   0  0  0  0  0  0  0  0  0  0  0  0
   50.0660   31.4170   32.8990 H   0  0  0  0  0  0  0  0  0  0  0  0
   49.4920   31.7350   33.7560 C   0  0  0  0  0  0  0  0  0  0  0  0
   49.2640   32.9760   33.5660 O   0  0  0  0  0  0  0  0  0  0  0  0
   49.0050   31.0770   34.9190 N   0  0  0  0  0  0  0  0  0  0  0  0
   49.2830   30.0710   34.9090 H   0  0  0  0  0  0  0  0  0  0  0  0
   51.3040   31.7350   37.6160 N   0  0  0  0  0  0  0  0  0  0  0  0
   50.2000   31.9690   37.3680 C   0  0  0  0  0  0  0  0  0  0  0  0
  1  5  1  0  0  0  0
  1 15  1  0  0  0  0
  2  1  1  0  0  0  0
  3  8  1  1  0  0  0
  3  2  1  0  0  0  0
  3  4  1  0  0  0  0
  4 10  1  0  0  0  0
  4  5  1  0  0  0  0
  5 11  1  0  0  0  0
  5 12  1  0  0  0  0
  6  2  1  0  0  0  0
  7  2  1  0  0  0  0
  9  4  1  0  0  0  0
 13 18  1  0  0  0  0
 14 15  1  0  0  0  0
 14 13  2  0  0  0  0
 15 16  2  0  0  0  0
 16 17  1  0  0  0  0
 17 21  1  0  0  0  0
 18 17  2  0  0  0  0
 19 13  1  0  0  0  0
 20 14  1  0  0  0  0
 22  3  1  0  0  0  0
 23 22  1  0  0  0  0
 24 39  1  0  0  0  0
 24 25  1  0  0  0  0
 25 22  1  0  0  0  0
 26 25  2  0  0  0  0
 26 30  1  0  0  0  0
 27 26  1  0  0  0  0
 28 29  1  0  0  0  0
 28 27  2  0  0  0  0
 29 24  2  0  0  0  0
 31 27  1  0  0  0  0
 32 28  1  0  0  0  0
 33 34  1  0  0  0  0
 34 36  1  0  0  0  0
 35 34  2  0  0  0  0
 36 29  1  0  0  0  0
 37 36  1  0  0  0  0
 39 38  3  0  0  0  0
M  END
>  <minimizedAffinity>
-4.98574257

>  <minimizedRMSD>
1.61422944

$$$$
