
 OpenBabel03252508353D

 27 28  0  0  0  0  0  0  0  0999 V2000
   45.6700   32.9450   38.4170 C   0  0  0  0  0  0  0  0  0  0  0  0
   44.6530   32.0110   38.5040 C   0  0  0  0  0  0  0  0  0  0  0  0
   44.2560   31.4050   37.3500 C   0  0  0  0  0  0  0  0  0  0  0  0
   44.8150   31.6770   36.1130 C   0  0  0  0  0  0  0  0  0  0  0  0
   45.8330   32.6190   36.0630 C   0  0  0  0  0  0  0  0  0  0  0  0
   46.2560   33.2460   37.2020 C   0  0  0  0  0  0  0  0  0  0  0  0
   43.4610   30.6730   37.4030 H   0  0  0  0  0  0  0  0  0  0  0  0
   44.4500   31.1560   35.2370 H   0  0  0  0  0  0  0  0  0  0  0  0
   46.2870   32.8490   35.1050 H   0  0  0  0  0  0  0  0  0  0  0  0
   42.4140   32.1040   41.5400 C   0  0  0  0  0  0  0  0  0  0  0  0
   42.9240   32.3800   40.2540 C   0  0  0  0  0  0  0  0  0  0  0  0
   44.0930   31.7550   39.8220 C   0  0  0  0  0  0  0  0  0  0  0  0
   44.6720   30.9020   40.6990 N   0  0  0  0  0  0  0  0  0  0  0  0
   44.1780   30.6500   41.9130 C   0  0  0  0  0  0  0  0  0  0  0  0
   43.0540   31.2510   42.3300 N   0  0  0  0  0  0  0  0  0  0  0  0
   41.2200   32.7710   41.9240 N   0  0  0  0  0  0  0  0  0  0  0  0
   42.4500   33.0710   39.5540 H   0  0  0  0  0  0  0  0  0  0  0  0
   44.6630   29.9570   42.6040 H   0  0  0  0  0  0  0  0  0  0  0  0
   41.3850   33.3490   42.7960 H   0  0  0  0  0  0  0  0  0  0  0  0
   40.4580   32.5240   41.2420 H   0  0  0  0  0  0  0  0  0  0  0  0
   49.4980   34.1930   36.8970 H   0  0  0  0  0  0  0  0  0  0  0  0
   48.5880   33.6020   36.9720 C   0  0  0  0  0  0  0  0  0  0  0  0
   49.0980   32.4550   36.8840 O   0  0  0  0  0  0  0  0  0  0  0  0
   47.2930   34.2010   37.1250 N   0  0  0  0  0  0  0  0  0  0  0  0
   47.3200   35.2400   37.1540 H   0  0  0  0  0  0  0  0  0  0  0  0
   46.5300   34.1900   40.5400 N   0  0  0  0  0  0  0  0  0  0  0  0
   46.1440   33.6280   39.5920 C   0  0  0  0  0  0  0  0  0  0  0  0
  1  2  1  0  0  0  0
  1 27  1  0  0  0  0
  2 12  1  0  0  0  0
  3  7  1  0  0  0  0
  3  2  2  0  0  0  0
  4  3  1  0  0  0  0
  5  4  2  0  0  0  0
  5  6  1  0  0  0  0
  6  1  2  0  0  0  0
  8  4  1  0  0  0  0
  9  5  1  0  0  0  0
 10 16  1  0  0  0  0
 10 15  1  0  0  0  0
 11 10  2  0  0  0  0
 12 11  1  0  0  0  0
 12 13  2  0  0  0  0
 13 14  1  0  0  0  0
 14 15  2  0  0  0  0
 14 18  1  0  0  0  0
 16 19  1  0  0  0  0
 17 11  1  0  0  0  0
 20 16  1  0  0  0  0
 21 22  1  0  0  0  0
 22 24  1  0  0  0  0
 23 22  2  0  0  0  0
 24 25  1  0  0  0  0
 24  6  1  0  0  0  0
 27 26  3  0  0  0  0
M  END
>  <minimizedAffinity>
-3.31903744

>  <minimizedRMSD>
3.75773859

$$$$
