
 OpenBabel03252509323D

 36 37  0  0  1  0  0  0  0  0999 V2000
   46.1070   35.1810   43.3560 O   0  0  0  0  0  0  0  0  0  0  0  0
   46.7050   34.4650   42.3170 C   0  0  1  0  0  0  0  0  0  0  0  0
   45.9030   34.4820   41.0440 C   0  0  0  0  0  0  0  0  0  0  0  0
   46.9030   33.9650   40.0420 C   0  0  0  0  0  0  0  0  0  0  0  0
   48.2560   34.3970   40.5690 C   0  0  0  0  0  0  0  0  0  0  0  0
   47.9690   35.1880   41.8430 C   0  0  2  0  0  0  0  0  0  0  0  0
   47.0140   33.4560   42.6040 H   0  0  0  0  0  0  0  0  0  0  0  0
   44.9940   33.8510   41.1310 H   0  0  0  0  0  0  0  0  0  0  0  0
   45.6740   35.5330   40.7740 H   0  0  0  0  0  0  0  0  0  0  0  0
   46.8810   32.8450   40.1200 H   0  0  0  0  0  0  0  0  0  0  0  0
   46.7210   34.3110   39.0170 H   0  0  0  0  0  0  0  0  0  0  0  0
   48.9310   33.5440   40.7600 H   0  0  0  0  0  0  0  0  0  0  0  0
   48.6580   35.1300   39.8410 H   0  0  0  0  0  0  0  0  0  0  0  0
   47.8050   36.2480   41.6830 H   0  0  0  0  0  0  0  0  0  0  0  0
   50.3530   33.3330   43.5960 H   0  0  0  0  0  0  0  0  0  0  0  0
   49.5110   33.5370   42.9280 C   0  0  0  0  0  0  0  0  0  0  0  0
   48.9770   32.5490   42.3800 O   0  0  0  0  0  0  0  0  0  0  0  0
   49.0830   34.8960   42.7260 N   0  0  0  0  0  0  0  0  0  0  0  0
   49.5400   35.7110   43.1910 H   0  0  0  0  0  0  0  0  0  0  0  0
   44.7920   34.8430   45.5610 O   0  0  0  0  0  0  0  0  0  0  0  0
   45.5240   34.0910   44.5010 P   0  0  1  0  0  0  0  0  0  0  0  0
   44.5970   32.8840   43.7960 O   0  0  0  0  0  0  0  0  0  0  0  0
   44.8840   32.6810   42.8680 H   0  0  0  0  0  0  0  0  0  0  0  0
   46.8640   33.3080   45.1880 O   0  0  0  0  0  0  0  0  0  0  0  0
   46.5770   31.9760   45.2800 C   0  0  0  0  0  0  0  0  0  0  0  0
   45.8650   31.5440   44.5930 H   0  0  0  0  0  0  0  0  0  0  0  0
   47.5490   31.4390   45.0740 H   0  0  0  0  0  0  0  0  0  0  0  0
   46.2820   31.9490   48.9840 C   0  0  0  0  0  0  0  0  0  0  0  0
   46.6530   32.3480   47.6940 C   0  0  0  0  0  0  0  0  0  0  0  0
   46.1990   31.5760   46.6390 C   0  0  0  0  0  0  0  0  0  0  0  0
   45.4180   30.4690   46.9020 N   0  0  0  0  0  0  0  0  0  0  0  0
   45.0870   30.1260   48.1680 C   0  0  0  0  0  0  0  0  0  0  0  0
   45.5230   30.8710   49.1930 N   0  0  0  0  0  0  0  0  0  0  0  0
   46.6100   32.5200   49.8540 H   0  0  0  0  0  0  0  0  0  0  0  0
   47.2610   33.2190   47.5860 H   0  0  0  0  0  0  0  0  0  0  0  0
   44.4680   29.2410   48.2970 H   0  0  0  0  0  0  0  0  0  0  0  0
  1 21  1  0  0  0  0
  2  7  1  1  0  0  0
  2  1  1  0  0  0  0
  3  8  1  0  0  0  0
  3  2  1  0  0  0  0
  4 10  1  0  0  0  0
  4  5  1  0  0  0  0
  4  3  1  0  0  0  0
  5 12  1  0  0  0  0
  5  6  1  0  0  0  0
  6 14  1  6  0  0  0
  6  2  1  0  0  0  0
  6 18  1  0  0  0  0
  9  3  1  0  0  0  0
 11  4  1  0  0  0  0
 13  5  1  0  0  0  0
 16 15  1  0  0  0  0
 17 16  2  0  0  0  0
 18 16  1  0  0  0  0
 18 19  1  0  0  0  0
 21 24  1  0  0  0  0
 21 20  2  1  0  0  0
 22 21  1  0  0  0  0
 23 22  1  0  0  0  0
 24 25  1  0  0  0  0
 25 30  1  0  0  0  0
 26 25  1  0  0  0  0
 27 25  1  0  0  0  0
 28 33  1  0  0  0  0
 28 34  1  0  0  0  0
 29 28  2  0  0  0  0
 30 31  2  0  0  0  0
 30 29  1  0  0  0  0
 31 32  1  0  0  0  0
 32 36  1  0  0  0  0
 32 33  2  0  0  0  0
 35 29  1  0  0  0  0
M  END
>  <minimizedAffinity>
-4.991117

>  <minimizedRMSD>
0.908912599

$$$$
