
 OpenBabel03252508353D

 27 28  0  0  0  0  0  0  0  0999 V2000
   43.4290   33.7060   41.1780 C   0  0  0  0  0  0  0  0  0  0  0  0
   42.9400   32.4830   40.7510 C   0  0  0  0  0  0  0  0  0  0  0  0
   43.8450   31.4910   40.5190 C   0  0  0  0  0  0  0  0  0  0  0  0
   45.2100   31.6480   40.6870 C   0  0  0  0  0  0  0  0  0  0  0  0
   45.6650   32.8870   41.1150 C   0  0  0  0  0  0  0  0  0  0  0  0
   44.7840   33.9050   41.3580 C   0  0  0  0  0  0  0  0  0  0  0  0
   43.4760   30.5300   40.1850 H   0  0  0  0  0  0  0  0  0  0  0  0
   45.8710   30.8150   40.4830 H   0  0  0  0  0  0  0  0  0  0  0  0
   46.7310   33.0340   41.2540 H   0  0  0  0  0  0  0  0  0  0  0  0
   39.4890   32.3840   39.2290 C   0  0  0  0  0  0  0  0  0  0  0  0
   40.8900   32.5100   39.3440 C   0  0  0  0  0  0  0  0  0  0  0  0
   41.4990   32.3600   40.5880 C   0  0  0  0  0  0  0  0  0  0  0  0
   40.6750   32.0980   41.6280 N   0  0  0  0  0  0  0  0  0  0  0  0
   39.3510   31.9810   41.5040 C   0  0  0  0  0  0  0  0  0  0  0  0
   38.7640   32.1240   40.3090 N   0  0  0  0  0  0  0  0  0  0  0  0
   38.9250   32.5470   37.9350 N   0  0  0  0  0  0  0  0  0  0  0  0
   41.5470   32.7230   38.4980 H   0  0  0  0  0  0  0  0  0  0  0  0
   38.7060   31.7680   42.3600 H   0  0  0  0  0  0  0  0  0  0  0  0
   38.2260   33.3420   37.9350 H   0  0  0  0  0  0  0  0  0  0  0  0
   39.3430   31.8290   37.2880 H   0  0  0  0  0  0  0  0  0  0  0  0
   46.1620   36.0020   43.6400 H   0  0  0  0  0  0  0  0  0  0  0  0
   45.7500   35.1240   43.1460 C   0  0  0  0  0  0  0  0  0  0  0  0
   45.8720   34.3000   44.0900 O   0  0  0  0  0  0  0  0  0  0  0  0
   45.2720   35.1560   41.7930 N   0  0  0  0  0  0  0  0  0  0  0  0
   45.3600   36.0910   41.3480 H   0  0  0  0  0  0  0  0  0  0  0  0
   41.8180   35.6980   41.6580 N   0  0  0  0  0  0  0  0  0  0  0  0
   42.5360   34.8030   41.4440 C   0  0  0  0  0  0  0  0  0  0  0  0
  1  6  1  0  0  0  0
  1 27  1  0  0  0  0
  2  1  2  0  0  0  0
  3  4  2  0  0  0  0
  3  2  1  0  0  0  0
  4  5  1  0  0  0  0
  5  9  1  0  0  0  0
  5  6  2  0  0  0  0
  6 24  1  0  0  0  0
  7  3  1  0  0  0  0
  8  4  1  0  0  0  0
 10 11  2  0  0  0  0
 10 15  1  0  0  0  0
 11 12  1  0  0  0  0
 12  2  1  0  0  0  0
 12 13  2  0  0  0  0
 14 13  1  0  0  0  0
 14 18  1  0  0  0  0
 15 14  2  0  0  0  0
 16 10  1  0  0  0  0
 17 11  1  0  0  0  0
 19 16  1  0  0  0  0
 20 16  1  0  0  0  0
 22 21  1  0  0  0  0
 22 23  2  0  0  0  0
 24 22  1  0  0  0  0
 25 24  1  0  0  0  0
 27 26  3  0  0  0  0
M  END
>  <minimizedAffinity>
-3.31968117

>  <minimizedRMSD>
6.02876616

$$$$
