
 OpenBabel03252508353D

 27 28  0  0  0  0  0  0  0  0999 V2000
   47.2990   34.1720   40.2120 C   0  0  0  0  0  0  0  0  0  0  0  0
   46.2120   33.5790   40.8320 C   0  0  0  0  0  0  0  0  0  0  0  0
   45.4020   32.7960   40.0660 C   0  0  0  0  0  0  0  0  0  0  0  0
   45.6130   32.5700   38.7170 C   0  0  0  0  0  0  0  0  0  0  0  0
   46.7110   33.1800   38.1280 C   0  0  0  0  0  0  0  0  0  0  0  0
   47.5450   33.9720   38.8680 C   0  0  0  0  0  0  0  0  0  0  0  0
   44.5490   32.3260   40.5380 H   0  0  0  0  0  0  0  0  0  0  0  0
   44.9270   31.9350   38.1700 H   0  0  0  0  0  0  0  0  0  0  0  0
   46.8960   33.0170   37.0710 H   0  0  0  0  0  0  0  0  0  0  0  0
   44.8990   34.9450   44.0950 C   0  0  0  0  0  0  0  0  0  0  0  0
   45.0440   34.7170   42.7100 C   0  0  0  0  0  0  0  0  0  0  0  0
   46.0280   33.8430   42.2510 C   0  0  0  0  0  0  0  0  0  0  0  0
   46.7970   33.2590   43.1990 N   0  0  0  0  0  0  0  0  0  0  0  0
   46.6470   33.4840   44.5070 C   0  0  0  0  0  0  0  0  0  0  0  0
   45.7020   34.3250   44.9490 N   0  0  0  0  0  0  0  0  0  0  0  0
   43.8790   35.8470   44.5030 N   0  0  0  0  0  0  0  0  0  0  0  0
   44.4190   35.1940   41.9520 H   0  0  0  0  0  0  0  0  0  0  0  0
   47.2810   33.0010   45.2540 H   0  0  0  0  0  0  0  0  0  0  0  0
   44.2960   36.6530   45.0480 H   0  0  0  0  0  0  0  0  0  0  0  0
   42.9510   35.4880   44.1610 H   0  0  0  0  0  0  0  0  0  0  0  0
   49.8340   34.3060   36.3880 H   0  0  0  0  0  0  0  0  0  0  0  0
   49.0030   33.9620   36.9990 C   0  0  0  0  0  0  0  0  0  0  0  0
   48.6110   33.0140   36.2700 O   0  0  0  0  0  0  0  0  0  0  0  0
   48.6560   34.5830   38.2450 N   0  0  0  0  0  0  0  0  0  0  0  0
   49.2730   35.3800   38.4930 H   0  0  0  0  0  0  0  0  0  0  0  0
   48.9330   35.7010   41.5490 N   0  0  0  0  0  0  0  0  0  0  0  0
   48.2000   35.0140   40.9550 C   0  0  0  0  0  0  0  0  0  0  0  0
  1  2  1  0  0  0  0
  1 27  1  0  0  0  0
  2 12  1  0  0  0  0
  3  7  1  0  0  0  0
  3  2  2  0  0  0  0
  4  3  1  0  0  0  0
  5  4  2  0  0  0  0
  5  6  1  0  0  0  0
  6  1  2  0  0  0  0
  8  4  1  0  0  0  0
  9  5  1  0  0  0  0
 10 16  1  0  0  0  0
 10 15  1  0  0  0  0
 11 10  2  0  0  0  0
 12 11  1  0  0  0  0
 12 13  2  0  0  0  0
 13 14  1  0  0  0  0
 14 15  2  0  0  0  0
 14 18  1  0  0  0  0
 16 19  1  0  0  0  0
 17 11  1  0  0  0  0
 20 16  1  0  0  0  0
 21 22  1  0  0  0  0
 22 24  1  0  0  0  0
 23 22  2  0  0  0  0
 24 25  1  0  0  0  0
 24  6  1  0  0  0  0
 27 26  3  0  0  0  0
M  END
>  <minimizedAffinity>
-4.99533987

>  <minimizedRMSD>
1.16452074

$$$$
