
 OpenBabel03252509323D

 36 37  0  0  1  0  0  0  0  0999 V2000
   46.1980   34.4060   41.1700 O   0  0  0  0  0  0  0  0  0  0  0  0
   47.5930   34.4840   41.1870 C   0  0  1  0  0  0  0  0  0  0  0  0
   48.1170   35.5610   42.0970 C   0  0  0  0  0  0  0  0  0  0  0  0
   49.5770   35.2010   42.1930 C   0  0  0  0  0  0  0  0  0  0  0  0
   49.6290   33.6970   42.0230 C   0  0  0  0  0  0  0  0  0  0  0  0
   48.1770   33.2480   41.8770 C   0  0  2  0  0  0  0  0  0  0  0  0
   48.0390   34.5230   40.1900 H   0  0  0  0  0  0  0  0  0  0  0  0
   47.9350   36.5720   41.6740 H   0  0  0  0  0  0  0  0  0  0  0  0
   47.6740   35.4310   43.1060 H   0  0  0  0  0  0  0  0  0  0  0  0
   50.0720   35.6350   41.2840 H   0  0  0  0  0  0  0  0  0  0  0  0
   50.0550   35.5360   43.1220 H   0  0  0  0  0  0  0  0  0  0  0  0
   50.2420   33.3860   41.1580 H   0  0  0  0  0  0  0  0  0  0  0  0
   49.9780   33.2830   42.9900 H   0  0  0  0  0  0  0  0  0  0  0  0
   47.6820   33.0240   42.8150 H   0  0  0  0  0  0  0  0  0  0  0  0
   47.2620   30.2610   40.3170 H   0  0  0  0  0  0  0  0  0  0  0  0
   47.2150   31.0990   41.0170 C   0  0  0  0  0  0  0  0  0  0  0  0
   46.2680   31.0980   41.8340 O   0  0  0  0  0  0  0  0  0  0  0  0
   48.2210   32.1260   40.9570 N   0  0  0  0  0  0  0  0  0  0  0  0
   49.0060   32.1130   40.2680 H   0  0  0  0  0  0  0  0  0  0  0  0
   45.6180   36.1550   42.9900 O   0  0  0  0  0  0  0  0  0  0  0  0
   45.6200   34.6860   42.7270 P   0  0  1  0  0  0  0  0  0  0  0  0
   44.1200   33.9770   42.9720 O   0  0  0  0  0  0  0  0  0  0  0  0
   43.9960   33.1570   42.4260 H   0  0  0  0  0  0  0  0  0  0  0  0
   46.6780   33.9210   43.8100 O   0  0  0  0  0  0  0  0  0  0  0  0
   46.0130   33.7190   44.9850 C   0  0  0  0  0  0  0  0  0  0  0  0
   45.7970   34.5670   45.6170 H   0  0  0  0  0  0  0  0  0  0  0  0
   45.0040   33.3010   44.6980 H   0  0  0  0  0  0  0  0  0  0  0  0
   47.6150   30.5250   46.0040 C   0  0  0  0  0  0  0  0  0  0  0  0
   47.0230   31.5040   45.1960 C   0  0  0  0  0  0  0  0  0  0  0  0
   46.6360   32.6820   45.8120 C   0  0  0  0  0  0  0  0  0  0  0  0
   46.8490   32.8330   47.1680 N   0  0  0  0  0  0  0  0  0  0  0  0
   47.4260   31.8570   47.9030 C   0  0  0  0  0  0  0  0  0  0  0  0
   47.8020   30.7150   47.3110 N   0  0  0  0  0  0  0  0  0  0  0  0
   47.9400   29.5770   45.5730 H   0  0  0  0  0  0  0  0  0  0  0  0
   46.8980   31.2990   44.1560 H   0  0  0  0  0  0  0  0  0  0  0  0
   47.5610   32.0490   48.9660 H   0  0  0  0  0  0  0  0  0  0  0  0
  1  2  1  0  0  0  0
  1 21  1  0  0  0  0
  2  7  1  6  0  0  0
  2  6  1  0  0  0  0
  2  3  1  0  0  0  0
  3  4  1  0  0  0  0
  3  9  1  0  0  0  0
  4 11  1  0  0  0  0
  5  4  1  0  0  0  0
  5 13  1  0  0  0  0
  6  5  1  0  0  0  0
  6 14  1  1  0  0  0
  8  3  1  0  0  0  0
 10  4  1  0  0  0  0
 12  5  1  0  0  0  0
 15 16  1  0  0  0  0
 16 17  2  0  0  0  0
 18 16  1  0  0  0  0
 18  6  1  0  0  0  0
 19 18  1  0  0  0  0
 21 22  1  0  0  0  0
 21 20  2  1  0  0  0
 21 24  1  0  0  0  0
 23 22  1  0  0  0  0
 24 25  1  0  0  0  0
 25 26  1  0  0  0  0
 25 30  1  0  0  0  0
 27 25  1  0  0  0  0
 28 33  1  0  0  0  0
 29 30  1  0  0  0  0
 29 28  2  0  0  0  0
 30 31  2  0  0  0  0
 31 32  1  0  0  0  0
 32 36  1  0  0  0  0
 33 32  2  0  0  0  0
 34 28  1  0  0  0  0
 35 29  1  0  0  0  0
M  END
>  <minimizedAffinity>
-4.38496017

>  <minimizedRMSD>
2.84610629

$$$$
