
 OpenBabel03242513103D

 37 40  0  0  0  0  0  0  0  0999 V2000
   39.0190   27.7510   40.4490 C   0  0  0  0  0  0  0  0  0  0  0  0
   38.5290   27.2770   41.6800 C   0  0  0  0  0  0  0  0  0  0  0  0
   37.9680   28.2040   42.5320 C   0  0  0  0  0  0  0  0  0  0  0  0
   37.9320   29.5070   42.1210 N   0  0  0  0  0  0  0  0  0  0  0  0
   38.4040   29.9430   40.9450 C   0  0  0  0  0  0  0  0  0  0  0  0
   38.9520   29.0620   40.1020 N   0  0  0  0  0  0  0  0  0  0  0  0
   39.4620   27.0280   39.7740 H   0  0  0  0  0  0  0  0  0  0  0  0
   37.2340   31.8430   39.9260 C   0  0  0  0  0  0  0  0  0  0  0  0
   38.3120   31.3490   40.6140 C   0  0  0  0  0  0  0  0  0  0  0  0
   39.3850   32.1640   41.0390 C   0  0  0  0  0  0  0  0  0  0  0  0
   39.3610   33.5270   40.7550 C   0  0  0  0  0  0  0  0  0  0  0  0
   40.1810   34.5850   40.9940 N   0  0  0  0  0  0  0  0  0  0  0  0
   39.5930   35.6940   40.4520 C   0  0  0  0  0  0  0  0  0  0  0  0
   38.4320   35.3010   39.8940 N   0  0  0  0  0  0  0  0  0  0  0  0
   38.2640   33.9810   40.0650 C   0  0  0  0  0  0  0  0  0  0  0  0
   37.2050   33.2070   39.6380 C   0  0  0  0  0  0  0  0  0  0  0  0
   36.4530   31.1630   39.6330 H   0  0  0  0  0  0  0  0  0  0  0  0
   40.2260   31.7810   41.5770 H   0  0  0  0  0  0  0  0  0  0  0  0
   41.0930   34.5160   41.5070 H   0  0  0  0  0  0  0  0  0  0  0  0
   40.0140   36.6900   40.4840 H   0  0  0  0  0  0  0  0  0  0  0  0
   36.3650   33.6070   39.0980 H   0  0  0  0  0  0  0  0  0  0  0  0
   37.4330   27.7650   43.8420 C   0  0  0  0  0  0  0  0  0  0  0  0
   37.0430   28.8750   44.6090 F   0  0  0  0  0  0  0  0  0  0  0  0
   36.3040   27.0040   43.6730 F   0  0  0  0  0  0  0  0  0  0  0  0
   38.4210   27.0700   44.4990 F   0  0  0  0  0  0  0  0  0  0  0  0
   38.6280   25.9550   41.9610 O   0  0  0  0  0  0  0  0  0  0  0  0
   37.8860   25.0020   41.3120 C   0  0  0  0  0  0  0  0  0  0  0  0
   38.7790   23.9490   41.1600 C   0  0  0  0  0  0  0  0  0  0  0  0
   37.7740   22.6760   40.2920 S   0  0  0  0  0  0  0  0  0  0  0  0
   36.2930   23.8080   40.2850 C   0  0  0  0  0  0  0  0  0  0  0  0
   36.7470   24.6680   40.7970 N   0  0  0  0  0  0  0  0  0  0  0  0
   39.8950   23.4150   41.3000 H   0  0  0  0  0  0  0  0  0  0  0  0
   33.9300   22.9040   37.9940 H   0  0  0  0  0  0  0  0  0  0  0  0
   34.9040   23.2680   38.2910 C   0  0  0  0  0  0  0  0  0  0  0  0
   35.8390   23.6060   37.5080 O   0  0  0  0  0  0  0  0  0  0  0  0
   35.0700   23.3470   39.6890 N   0  0  0  0  0  0  0  0  0  0  0  0
   34.3610   23.0930   40.3730 H   0  0  0  0  0  0  0  0  0  0  0  0
  1  2  1  0  0  0  0
  2 26  1  0  0  0  0
  2  3  2  0  0  0  0
  3 22  1  0  0  0  0
  4  3  1  0  0  0  0
  5  4  2  0  0  0  0
  6  1  2  0  0  0  0
  6  5  1  0  0  0  0
  7  1  1  0  0  0  0
  8  9  1  0  0  0  0
  9  5  1  0  0  0  0
  9 10  2  0  0  0  0
 10 18  1  0  0  0  0
 11 12  1  0  0  0  0
 11 10  1  0  0  0  0
 12 19  1  0  0  0  0
 13 20  1  0  0  0  0
 13 12  1  0  0  0  0
 14 15  1  0  0  0  0
 14 13  2  0  0  0  0
 15 11  2  0  0  0  0
 16  8  2  0  0  0  0
 16 15  1  0  0  0  0
 17  8  1  0  0  0  0
 21 16  1  0  0  0  0
 22 25  1  0  0  0  0
 22 23  1  0  0  0  0
 24 22  1  0  0  0  0
 27 26  1  0  0  0  0
 28 32  1  0  0  0  0
 28 27  2  0  0  0  0
 29 28  1  0  0  0  0
 30 29  1  0  0  0  0
 30 31  2  0  0  0  0
 31 27  1  0  0  0  0
 33 34  1  0  0  0  0
 34 36  1  0  0  0  0
 35 34  2  0  0  0  0
 36 30  1  0  0  0  0
 36 37  1  0  0  0  0
M  END
>  <minimizedAffinity>
-7.09133053

$$$$

 OpenBabel03242513103D

 37 40  0  0  0  0  0  0  0  0999 V2000
   39.0710   27.7970   40.6010 C   0  0  0  0  0  0  0  0  0  0  0  0
   38.5330   27.3400   41.8180 C   0  0  0  0  0  0  0  0  0  0  0  0
   37.9330   28.2770   42.6320 C   0  0  0  0  0  0  0  0  0  0  0  0
   37.9070   29.5730   42.1980 N   0  0  0  0  0  0  0  0  0  0  0  0
   38.4250   29.9940   41.0370 C   0  0  0  0  0  0  0  0  0  0  0  0
   39.0120   29.1030   40.2310 N   0  0  0  0  0  0  0  0  0  0  0  0
   39.5460   27.0670   39.9570 H   0  0  0  0  0  0  0  0  0  0  0  0
   37.2580   31.8820   39.9920 C   0  0  0  0  0  0  0  0  0  0  0  0
   38.3390   31.3940   40.6800 C   0  0  0  0  0  0  0  0  0  0  0  0
   39.4220   32.2090   41.0800 C   0  0  0  0  0  0  0  0  0  0  0  0
   39.4040   33.5670   40.7700 C   0  0  0  0  0  0  0  0  0  0  0  0
   40.2340   34.6230   40.9820 N   0  0  0  0  0  0  0  0  0  0  0  0
   39.6480   35.7260   40.4240 C   0  0  0  0  0  0  0  0  0  0  0  0
   38.4790   35.3300   39.8840 N   0  0  0  0  0  0  0  0  0  0  0  0
   38.3040   34.0150   40.0810 C   0  0  0  0  0  0  0  0  0  0  0  0
   37.2360   33.2410   39.6790 C   0  0  0  0  0  0  0  0  0  0  0  0
   36.4700   31.2020   39.7200 H   0  0  0  0  0  0  0  0  0  0  0  0
   40.2650   31.8300   41.6160 H   0  0  0  0  0  0  0  0  0  0  0  0
   41.1490   34.5580   41.4880 H   0  0  0  0  0  0  0  0  0  0  0  0
   40.0760   36.7200   40.4340 H   0  0  0  0  0  0  0  0  0  0  0  0
   36.3940   33.6360   39.1400 H   0  0  0  0  0  0  0  0  0  0  0  0
   37.3460   27.8560   43.9250 C   0  0  0  0  0  0  0  0  0  0  0  0
   38.2750   27.1030   44.6620 F   0  0  0  0  0  0  0  0  0  0  0  0
   37.0430   28.9490   44.6980 F   0  0  0  0  0  0  0  0  0  0  0  0
   36.2320   27.0930   43.6640 F   0  0  0  0  0  0  0  0  0  0  0  0
   38.6280   26.0230   42.1240 O   0  0  0  0  0  0  0  0  0  0  0  0
   38.3710   25.0310   41.2130 C   0  0  0  0  0  0  0  0  0  0  0  0
   36.9940   24.8700   41.2930 C   0  0  0  0  0  0  0  0  0  0  0  0
   36.6600   23.5400   40.0670 S   0  0  0  0  0  0  0  0  0  0  0  0
   38.4740   23.4300   39.6510 C   0  0  0  0  0  0  0  0  0  0  0  0
   38.8430   24.2050   40.3360 N   0  0  0  0  0  0  0  0  0  0  0  0
   35.8720   25.1500   41.7550 H   0  0  0  0  0  0  0  0  0  0  0  0
   39.3110   20.5110   38.0910 H   0  0  0  0  0  0  0  0  0  0  0  0
   38.9720   21.0980   38.9330 C   0  0  0  0  0  0  0  0  0  0  0  0
   38.6550   20.6460   40.0720 O   0  0  0  0  0  0  0  0  0  0  0  0
   38.9020   22.4800   38.6610 N   0  0  0  0  0  0  0  0  0  0  0  0
   39.1410   22.9090   37.7700 H   0  0  0  0  0  0  0  0  0  0  0  0
  1  2  1  0  0  0  0
  2 26  1  0  0  0  0
  2  3  2  0  0  0  0
  3 22  1  0  0  0  0
  4  3  1  0  0  0  0
  5  4  2  0  0  0  0
  6  1  2  0  0  0  0
  6  5  1  0  0  0  0
  7  1  1  0  0  0  0
  8  9  1  0  0  0  0
  9  5  1  0  0  0  0
  9 10  2  0  0  0  0
 10 18  1  0  0  0  0
 11 12  1  0  0  0  0
 11 10  1  0  0  0  0
 12 19  1  0  0  0  0
 13 20  1  0  0  0  0
 13 12  1  0  0  0  0
 14 15  1  0  0  0  0
 14 13  2  0  0  0  0
 15 11  2  0  0  0  0
 16  8  2  0  0  0  0
 16 15  1  0  0  0  0
 17  8  1  0  0  0  0
 21 16  1  0  0  0  0
 22 23  1  0  0  0  0
 22 24  1  0  0  0  0
 25 22  1  0  0  0  0
 27 28  2  0  0  0  0
 27 26  1  0  0  0  0
 28 32  1  0  0  0  0
 29 28  1  0  0  0  0
 30 29  1  0  0  0  0
 30 31  2  0  0  0  0
 31 27  1  0  0  0  0
 33 34  1  0  0  0  0
 34 35  2  0  0  0  0
 36 34  1  0  0  0  0
 36 30  1  0  0  0  0
 37 36  1  0  0  0  0
M  END
>  <minimizedAffinity>
-6.89678478

$$$$

 OpenBabel03242513103D

 37 40  0  0  0  0  0  0  0  0999 V2000
   36.6320   28.6160   40.2640 C   0  0  0  0  0  0  0  0  0  0  0  0
   37.1590   28.8790   41.5410 C   0  0  0  0  0  0  0  0  0  0  0  0
   37.5840   27.7960   42.2810 C   0  0  0  0  0  0  0  0  0  0  0  0
   37.4620   26.5550   41.7210 N   0  0  0  0  0  0  0  0  0  0  0  0
   36.9570   26.3210   40.5020 C   0  0  0  0  0  0  0  0  0  0  0  0
   36.5380   27.3560   39.7670 N   0  0  0  0  0  0  0  0  0  0  0  0
   36.2940   29.4620   39.6770 H   0  0  0  0  0  0  0  0  0  0  0  0
   36.0900   24.6470   38.9310 C   0  0  0  0  0  0  0  0  0  0  0  0
   36.8760   24.9620   40.0100 C   0  0  0  0  0  0  0  0  0  0  0  0
   37.6460   24.0000   40.7000 C   0  0  0  0  0  0  0  0  0  0  0  0
   37.6160   22.6720   40.2790 C   0  0  0  0  0  0  0  0  0  0  0  0
   38.2020   21.5130   40.6790 N   0  0  0  0  0  0  0  0  0  0  0  0
   37.7650   20.5210   39.8450 C   0  0  0  0  0  0  0  0  0  0  0  0
   36.9260   21.0850   38.9550 N   0  0  0  0  0  0  0  0  0  0  0  0
   36.8170   22.4000   39.1970 C   0  0  0  0  0  0  0  0  0  0  0  0
   36.0560   23.3200   38.5060 C   0  0  0  0  0  0  0  0  0  0  0  0
   35.5300   25.4330   38.4550 H   0  0  0  0  0  0  0  0  0  0  0  0
   38.2600   24.2440   41.5400 H   0  0  0  0  0  0  0  0  0  0  0  0
   38.8630   21.4380   41.4890 H   0  0  0  0  0  0  0  0  0  0  0  0
   38.0610   19.4830   39.9170 H   0  0  0  0  0  0  0  0  0  0  0  0
   35.4430   23.0600   37.6620 H   0  0  0  0  0  0  0  0  0  0  0  0
   38.1500   28.0090   43.6330 C   0  0  0  0  0  0  0  0  0  0  0  0
   39.2010   28.9390   43.5830 F   0  0  0  0  0  0  0  0  0  0  0  0
   37.2060   28.5460   44.4730 F   0  0  0  0  0  0  0  0  0  0  0  0
   38.6190   26.8030   44.0990 F   0  0  0  0  0  0  0  0  0  0  0  0
   37.2220   30.1610   41.9750 O   0  0  0  0  0  0  0  0  0  0  0  0
   37.7870   31.1670   41.2320 C   0  0  0  0  0  0  0  0  0  0  0  0
   39.0660   30.6930   40.9710 C   0  0  0  0  0  0  0  0  0  0  0  0
   39.8130   32.0460   39.9730 S   0  0  0  0  0  0  0  0  0  0  0  0
   38.2370   33.0360   40.0840 C   0  0  0  0  0  0  0  0  0  0  0  0
   37.6470   32.3310   40.6840 N   0  0  0  0  0  0  0  0  0  0  0  0
   39.9690   29.8400   41.0560 H   0  0  0  0  0  0  0  0  0  0  0  0
   38.6880   36.3460   39.3820 H   0  0  0  0  0  0  0  0  0  0  0  0
   38.8230   35.4530   39.9770 C   0  0  0  0  0  0  0  0  0  0  0  0
   39.4820   35.3750   41.0540 O   0  0  0  0  0  0  0  0  0  0  0  0
   38.1780   34.3190   39.4410 N   0  0  0  0  0  0  0  0  0  0  0  0
   37.6340   34.3130   38.5820 H   0  0  0  0  0  0  0  0  0  0  0  0
  1  2  1  0  0  0  0
  2 26  1  0  0  0  0
  2  3  2  0  0  0  0
  3 22  1  0  0  0  0
  4  3  1  0  0  0  0
  5  4  2  0  0  0  0
  6  1  2  0  0  0  0
  6  5  1  0  0  0  0
  7  1  1  0  0  0  0
  8  9  1  0  0  0  0
  9  5  1  0  0  0  0
  9 10  2  0  0  0  0
 10 18  1  0  0  0  0
 11 12  1  0  0  0  0
 11 10  1  0  0  0  0
 12 19  1  0  0  0  0
 13 20  1  0  0  0  0
 13 12  1  0  0  0  0
 14 15  1  0  0  0  0
 14 13  2  0  0  0  0
 15 11  2  0  0  0  0
 16  8  2  0  0  0  0
 16 15  1  0  0  0  0
 17  8  1  0  0  0  0
 21 16  1  0  0  0  0
 22 25  1  0  0  0  0
 22 24  1  0  0  0  0
 23 22  1  0  0  0  0
 27 26  1  0  0  0  0
 28 32  1  0  0  0  0
 28 27  2  0  0  0  0
 29 30  1  0  0  0  0
 29 28  1  0  0  0  0
 30 31  2  0  0  0  0
 31 27  1  0  0  0  0
 33 34  1  0  0  0  0
 34 35  2  0  0  0  0
 36 34  1  0  0  0  0
 36 30  1  0  0  0  0
 37 36  1  0  0  0  0
M  END
>  <minimizedAffinity>
-6.71031189

$$$$

 OpenBabel03242513103D

 37 40  0  0  0  0  0  0  0  0999 V2000
   36.4400   28.3350   40.1650 C   0  0  0  0  0  0  0  0  0  0  0  0
   37.0130   28.6740   41.4040 C   0  0  0  0  0  0  0  0  0  0  0  0
   37.5030   27.6400   42.1740 C   0  0  0  0  0  0  0  0  0  0  0  0
   37.3960   26.3710   41.6780 N   0  0  0  0  0  0  0  0  0  0  0  0
   36.8470   26.0640   40.4950 C   0  0  0  0  0  0  0  0  0  0  0  0
   36.3650   27.0500   39.7310 N   0  0  0  0  0  0  0  0  0  0  0  0
   36.0520   29.1420   39.5550 H   0  0  0  0  0  0  0  0  0  0  0  0
   35.9130   24.2800   39.0940 C   0  0  0  0  0  0  0  0  0  0  0  0
   36.7870   24.6820   40.0700 C   0  0  0  0  0  0  0  0  0  0  0  0
   37.6730   23.7900   40.7160 C   0  0  0  0  0  0  0  0  0  0  0  0
   37.6700   22.4450   40.3550 C   0  0  0  0  0  0  0  0  0  0  0  0
   38.3530   21.3340   40.7400 N   0  0  0  0  0  0  0  0  0  0  0  0
   37.8860   20.2850   39.9970 C   0  0  0  0  0  0  0  0  0  0  0  0
   36.9320   20.7670   39.1770 N   0  0  0  0  0  0  0  0  0  0  0  0
   36.7800   22.0850   39.3740 C   0  0  0  0  0  0  0  0  0  0  0  0
   35.9050   22.9340   38.7300 C   0  0  0  0  0  0  0  0  0  0  0  0
   35.2660   25.0140   38.6460 H   0  0  0  0  0  0  0  0  0  0  0  0
   38.3560   24.1020   41.4760 H   0  0  0  0  0  0  0  0  0  0  0  0
   39.0970   21.3290   41.4780 H   0  0  0  0  0  0  0  0  0  0  0  0
   38.2420   19.2670   40.0810 H   0  0  0  0  0  0  0  0  0  0  0  0
   35.2230   22.6060   37.9650 H   0  0  0  0  0  0  0  0  0  0  0  0
   38.1190   27.9340   43.4890 C   0  0  0  0  0  0  0  0  0  0  0  0
   38.7390   26.7860   44.0070 F   0  0  0  0  0  0  0  0  0  0  0  0
   39.1090   28.8760   43.3590 F   0  0  0  0  0  0  0  0  0  0  0  0
   37.1270   28.3540   44.3440 F   0  0  0  0  0  0  0  0  0  0  0  0
   37.0550   29.9770   41.7740 O   0  0  0  0  0  0  0  0  0  0  0  0
   37.7200   30.9320   41.0480 C   0  0  0  0  0  0  0  0  0  0  0  0
   36.6990   31.7540   40.5880 C   0  0  0  0  0  0  0  0  0  0  0  0
   37.6010   33.0310   39.6190 S   0  0  0  0  0  0  0  0  0  0  0  0
   39.2320   32.2180   40.0110 C   0  0  0  0  0  0  0  0  0  0  0  0
   38.8540   31.3860   40.6210 N   0  0  0  0  0  0  0  0  0  0  0  0
   35.5020   32.0790   40.4860 H   0  0  0  0  0  0  0  0  0  0  0  0
   41.7370   33.1590   37.8920 H   0  0  0  0  0  0  0  0  0  0  0  0
   40.8030   32.6700   38.1340 C   0  0  0  0  0  0  0  0  0  0  0  0
   40.0690   32.0340   37.3230 O   0  0  0  0  0  0  0  0  0  0  0  0
   40.4390   32.7970   39.4900 N   0  0  0  0  0  0  0  0  0  0  0  0
   40.9810   33.2940   40.1930 H   0  0  0  0  0  0  0  0  0  0  0  0
  1  2  1  0  0  0  0
  2 26  1  0  0  0  0
  2  3  2  0  0  0  0
  3 22  1  0  0  0  0
  4  3  1  0  0  0  0
  5  4  2  0  0  0  0
  6  1  2  0  0  0  0
  6  5  1  0  0  0  0
  7  1  1  0  0  0  0
  8  9  1  0  0  0  0
  9  5  1  0  0  0  0
  9 10  2  0  0  0  0
 10 18  1  0  0  0  0
 11 10  1  0  0  0  0
 11 12  1  0  0  0  0
 12 19  1  0  0  0  0
 13 20  1  0  0  0  0
 13 12  1  0  0  0  0
 14 15  1  0  0  0  0
 14 13  2  0  0  0  0
 15 11  2  0  0  0  0
 16  8  2  0  0  0  0
 16 15  1  0  0  0  0
 17  8  1  0  0  0  0
 21 16  1  0  0  0  0
 22 23  1  0  0  0  0
 22 25  1  0  0  0  0
 24 22  1  0  0  0  0
 27 26  1  0  0  0  0
 28 27  2  0  0  0  0
 29 30  1  0  0  0  0
 29 28  1  0  0  0  0
 30 31  2  0  0  0  0
 31 27  1  0  0  0  0
 32 28  1  0  0  0  0
 33 34  1  0  0  0  0
 34 36  1  0  0  0  0
 35 34  2  0  0  0  0
 36 30  1  0  0  0  0
 36 37  1  0  0  0  0
M  END
>  <minimizedAffinity>
-6.53052092

$$$$

 OpenBabel03242513103D

 37 40  0  0  0  0  0  0  0  0999 V2000
   36.3660   28.3670   40.7290 C   0  0  0  0  0  0  0  0  0  0  0  0
   37.2350   27.6640   41.5820 C   0  0  0  0  0  0  0  0  0  0  0  0
   38.3150   28.3550   42.0880 C   0  0  0  0  0  0  0  0  0  0  0  0
   38.4610   29.6650   41.7240 N   0  0  0  0  0  0  0  0  0  0  0  0
   37.6240   30.3210   40.9080 C   0  0  0  0  0  0  0  0  0  0  0  0
   36.5690   29.6710   40.4060 N   0  0  0  0  0  0  0  0  0  0  0  0
   35.5150   27.8300   40.3260 H   0  0  0  0  0  0  0  0  0  0  0  0
   36.9940   32.4330   39.8310 C   0  0  0  0  0  0  0  0  0  0  0  0
   37.8770   31.7100   40.5910 C   0  0  0  0  0  0  0  0  0  0  0  0
   39.0710   32.2620   41.1070 C   0  0  0  0  0  0  0  0  0  0  0  0
   39.3760   33.5950   40.8410 C   0  0  0  0  0  0  0  0  0  0  0  0
   40.3930   34.4400   41.1560 N   0  0  0  0  0  0  0  0  0  0  0  0
   40.1140   35.6520   40.5870 C   0  0  0  0  0  0  0  0  0  0  0  0
   38.9400   35.5300   39.9370 N   0  0  0  0  0  0  0  0  0  0  0  0
   38.4660   34.2820   40.0770 C   0  0  0  0  0  0  0  0  0  0  0  0
   37.2950   33.7670   39.5610 C   0  0  0  0  0  0  0  0  0  0  0  0
   36.1040   31.9460   39.4710 H   0  0  0  0  0  0  0  0  0  0  0  0
   39.7590   31.7010   41.7000 H   0  0  0  0  0  0  0  0  0  0  0  0
   41.2240   34.1690   41.7350 H   0  0  0  0  0  0  0  0  0  0  0  0
   40.7450   36.5280   40.6640 H   0  0  0  0  0  0  0  0  0  0  0  0
   36.6110   34.3450   38.9660 H   0  0  0  0  0  0  0  0  0  0  0  0
   39.2650   27.6680   42.9940 C   0  0  0  0  0  0  0  0  0  0  0  0
   39.8540   26.5710   42.3440 F   0  0  0  0  0  0  0  0  0  0  0  0
   40.2970   28.5050   43.3380 F   0  0  0  0  0  0  0  0  0  0  0  0
   38.5700   27.2360   44.0990 F   0  0  0  0  0  0  0  0  0  0  0  0
   36.9720   26.3640   41.8610 O   0  0  0  0  0  0  0  0  0  0  0  0
   37.1610   25.3580   40.9480 C   0  0  0  0  0  0  0  0  0  0  0  0
   37.4810   24.2620   41.7400 C   0  0  0  0  0  0  0  0  0  0  0  0
   37.7300   22.9190   40.5080 S   0  0  0  0  0  0  0  0  0  0  0  0
   37.3510   24.0930   39.1100 C   0  0  0  0  0  0  0  0  0  0  0  0
   37.1680   24.9980   39.7060 N   0  0  0  0  0  0  0  0  0  0  0  0
   37.6880   23.7130   42.8380 H   0  0  0  0  0  0  0  0  0  0  0  0
   38.4600   22.9690   36.0840 H   0  0  0  0  0  0  0  0  0  0  0  0
   38.5960   23.3350   37.0920 C   0  0  0  0  0  0  0  0  0  0  0  0
   39.7080   23.5270   37.6660 O   0  0  0  0  0  0  0  0  0  0  0  0
   37.3830   23.5990   37.7610 N   0  0  0  0  0  0  0  0  0  0  0  0
   36.4580   23.4670   37.3600 H   0  0  0  0  0  0  0  0  0  0  0  0
  1  2  1  0  0  0  0
  2 26  1  0  0  0  0
  2  3  2  0  0  0  0
  3 22  1  0  0  0  0
  4  3  1  0  0  0  0
  5  4  2  0  0  0  0
  6  1  2  0  0  0  0
  6  5  1  0  0  0  0
  7  1  1  0  0  0  0
  8  9  1  0  0  0  0
  9  5  1  0  0  0  0
  9 10  2  0  0  0  0
 10 18  1  0  0  0  0
 11 10  1  0  0  0  0
 11 12  1  0  0  0  0
 12 19  1  0  0  0  0
 13 20  1  0  0  0  0
 13 12  1  0  0  0  0
 14 15  1  0  0  0  0
 14 13  2  0  0  0  0
 15 11  2  0  0  0  0
 16  8  2  0  0  0  0
 16 15  1  0  0  0  0
 17  8  1  0  0  0  0
 21 16  1  0  0  0  0
 22 24  1  0  0  0  0
 22 25  1  0  0  0  0
 23 22  1  0  0  0  0
 27 28  2  0  0  0  0
 27 26  1  0  0  0  0
 28 32  1  0  0  0  0
 29 28  1  0  0  0  0
 30 31  2  0  0  0  0
 30 29  1  0  0  0  0
 31 27  1  0  0  0  0
 33 34  1  0  0  0  0
 34 35  2  0  0  0  0
 34 36  1  0  0  0  0
 36 30  1  0  0  0  0
 37 36  1  0  0  0  0
M  END
>  <minimizedAffinity>
-6.4790349

$$$$

 OpenBabel03242513103D

 37 40  0  0  0  0  0  0  0  0999 V2000
   37.3100   28.0870   39.3740 C   0  0  0  0  0  0  0  0  0  0  0  0
   37.1290   27.5760   40.6720 C   0  0  0  0  0  0  0  0  0  0  0  0
   37.5620   28.3580   41.7220 C   0  0  0  0  0  0  0  0  0  0  0  0
   38.1330   29.5630   41.4250 N   0  0  0  0  0  0  0  0  0  0  0  0
   38.3000   30.0360   40.1820 C   0  0  0  0  0  0  0  0  0  0  0  0
   37.8870   29.2960   39.1480 N   0  0  0  0  0  0  0  0  0  0  0  0
   36.9730   27.4780   38.5430 H   0  0  0  0  0  0  0  0  0  0  0  0
   39.8860   31.5130   39.0310 C   0  0  0  0  0  0  0  0  0  0  0  0
   38.9190   31.3300   39.9860 C   0  0  0  0  0  0  0  0  0  0  0  0
   38.4690   32.3720   40.8270 C   0  0  0  0  0  0  0  0  0  0  0  0
   39.0220   33.6440   40.6920 C   0  0  0  0  0  0  0  0  0  0  0  0
   38.8480   34.8480   41.2980 N   0  0  0  0  0  0  0  0  0  0  0  0
   39.7050   35.7350   40.7070 C   0  0  0  0  0  0  0  0  0  0  0  0
   40.3840   35.0640   39.7560 N   0  0  0  0  0  0  0  0  0  0  0  0
   39.9860   33.7830   39.7250 C   0  0  0  0  0  0  0  0  0  0  0  0
   40.4420   32.7830   38.8920 C   0  0  0  0  0  0  0  0  0  0  0  0
   40.1790   30.6720   38.4270 H   0  0  0  0  0  0  0  0  0  0  0  0
   37.7150   32.2310   41.5710 H   0  0  0  0  0  0  0  0  0  0  0  0
   38.1670   35.0210   42.0760 H   0  0  0  0  0  0  0  0  0  0  0  0
   39.7940   36.7780   40.9800 H   0  0  0  0  0  0  0  0  0  0  0  0
   41.2020   32.9400   38.1470 H   0  0  0  0  0  0  0  0  0  0  0  0
   37.3960   27.8730   43.1120 C   0  0  0  0  0  0  0  0  0  0  0  0
   37.6340   28.9140   44.0250 F   0  0  0  0  0  0  0  0  0  0  0  0
   36.1050   27.4620   43.3300 F   0  0  0  0  0  0  0  0  0  0  0  0
   38.2960   26.8550   43.3230 F   0  0  0  0  0  0  0  0  0  0  0  0
   36.5460   26.3620   40.8240 O   0  0  0  0  0  0  0  0  0  0  0  0
   37.0560   25.2200   40.2600 C   0  0  0  0  0  0  0  0  0  0  0  0
   37.2040   24.3650   41.3450 C   0  0  0  0  0  0  0  0  0  0  0  0
   37.8850   22.8380   40.5800 S   0  0  0  0  0  0  0  0  0  0  0  0
   37.8510   23.6340   38.8940 C   0  0  0  0  0  0  0  0  0  0  0  0
   37.4460   24.6120   39.1870 N   0  0  0  0  0  0  0  0  0  0  0  0
   37.1190   24.0900   42.5560 H   0  0  0  0  0  0  0  0  0  0  0  0
   39.8590   22.0540   36.6310 H   0  0  0  0  0  0  0  0  0  0  0  0
   39.6740   22.6370   37.5210 C   0  0  0  0  0  0  0  0  0  0  0  0
   40.5570   23.0880   38.3090 O   0  0  0  0  0  0  0  0  0  0  0  0
   38.3050   22.8770   37.7600 N   0  0  0  0  0  0  0  0  0  0  0  0
   37.5460   22.5450   37.1700 H   0  0  0  0  0  0  0  0  0  0  0  0
  1  2  1  0  0  0  0
  2 26  1  0  0  0  0
  2  3  2  0  0  0  0
  3 22  1  0  0  0  0
  4  3  1  0  0  0  0
  5  4  2  0  0  0  0
  6  1  2  0  0  0  0
  6  5  1  0  0  0  0
  7  1  1  0  0  0  0
  8  9  1  0  0  0  0
  9  5  1  0  0  0  0
  9 10  2  0  0  0  0
 10 18  1  0  0  0  0
 11 10  1  0  0  0  0
 11 12  1  0  0  0  0
 12 19  1  0  0  0  0
 13 20  1  0  0  0  0
 13 12  1  0  0  0  0
 14 13  2  0  0  0  0
 15 14  1  0  0  0  0
 15 11  2  0  0  0  0
 16  8  2  0  0  0  0
 16 15  1  0  0  0  0
 17  8  1  0  0  0  0
 21 16  1  0  0  0  0
 22 25  1  0  0  0  0
 22 24  1  0  0  0  0
 22 23  1  0  0  0  0
 27 26  1  0  0  0  0
 27 28  2  0  0  0  0
 28 32  1  0  0  0  0
 29 28  1  0  0  0  0
 30 31  2  0  0  0  0
 30 29  1  0  0  0  0
 31 27  1  0  0  0  0
 33 34  1  0  0  0  0
 34 36  1  0  0  0  0
 34 35  2  0  0  0  0
 36 30  1  0  0  0  0
 37 36  1  0  0  0  0
M  END
>  <minimizedAffinity>
-6.38645458

$$$$

 OpenBabel03242513103D

 37 40  0  0  0  0  0  0  0  0999 V2000
   38.7990   30.6090   42.1050 C   0  0  0  0  0  0  0  0  0  0  0  0
   38.3600   31.3500   40.9920 C   0  0  0  0  0  0  0  0  0  0  0  0
   37.7930   30.6450   39.9510 C   0  0  0  0  0  0  0  0  0  0  0  0
   37.7020   29.2880   40.0770 N   0  0  0  0  0  0  0  0  0  0  0  0
   38.1270   28.5960   41.1430 C   0  0  0  0  0  0  0  0  0  0  0  0
   38.6790   29.2580   42.1650 N   0  0  0  0  0  0  0  0  0  0  0  0
   39.2460   31.1560   42.9260 H   0  0  0  0  0  0  0  0  0  0  0  0
   37.2260   26.5400   42.1330 C   0  0  0  0  0  0  0  0  0  0  0  0
   37.9790   27.1560   41.1670 C   0  0  0  0  0  0  0  0  0  0  0  0
   38.6480   26.4410   40.1490 C   0  0  0  0  0  0  0  0  0  0  0  0
   38.5480   25.0530   40.1110 C   0  0  0  0  0  0  0  0  0  0  0  0
   39.0320   24.0640   39.3130 N   0  0  0  0  0  0  0  0  0  0  0  0
   38.5700   22.8750   39.8030 C   0  0  0  0  0  0  0  0  0  0  0  0
   37.8160   23.1510   40.8850 N   0  0  0  0  0  0  0  0  0  0  0  0
   37.7850   24.4760   41.0960 C   0  0  0  0  0  0  0  0  0  0  0  0
   37.1220   25.1500   42.1010 C   0  0  0  0  0  0  0  0  0  0  0  0
   36.7440   27.1480   42.8790 H   0  0  0  0  0  0  0  0  0  0  0  0
   39.2340   26.9200   39.3950 H   0  0  0  0  0  0  0  0  0  0  0  0
   39.6470   24.2310   38.4810 H   0  0  0  0  0  0  0  0  0  0  0  0
   38.7900   21.9060   39.3740 H   0  0  0  0  0  0  0  0  0  0  0  0
   36.5350   24.6540   42.8530 H   0  0  0  0  0  0  0  0  0  0  0  0
   37.3100   31.3710   38.7530 C   0  0  0  0  0  0  0  0  0  0  0  0
   36.4010   30.5790   38.0340 F   0  0  0  0  0  0  0  0  0  0  0  0
   36.6250   32.5030   39.1170 F   0  0  0  0  0  0  0  0  0  0  0  0
   38.3960   31.6660   37.9620 F   0  0  0  0  0  0  0  0  0  0  0  0
   38.5110   32.6970   40.9990 O   0  0  0  0  0  0  0  0  0  0  0  0
   39.6470   33.3170   40.5440 C   0  0  0  0  0  0  0  0  0  0  0  0
   39.2730   34.6510   40.4590 C   0  0  0  0  0  0  0  0  0  0  0  0
   40.8020   35.4730   39.8510 S   0  0  0  0  0  0  0  0  0  0  0  0
   41.6990   33.8390   39.8160 C   0  0  0  0  0  0  0  0  0  0  0  0
   40.8810   33.1990   40.1720 N   0  0  0  0  0  0  0  0  0  0  0  0
   38.4520   35.5800   40.5770 H   0  0  0  0  0  0  0  0  0  0  0  0
   44.4990   33.8950   37.8630 H   0  0  0  0  0  0  0  0  0  0  0  0
   43.4320   33.9360   38.0300 C   0  0  0  0  0  0  0  0  0  0  0  0
   42.5480   34.0800   37.1360 O   0  0  0  0  0  0  0  0  0  0  0  0
   43.0700   33.8100   39.3870 N   0  0  0  0  0  0  0  0  0  0  0  0
   43.7280   33.6910   40.1540 H   0  0  0  0  0  0  0  0  0  0  0  0
  1  6  1  0  0  0  0
  1  7  1  0  0  0  0
  2 26  1  0  0  0  0
  2  1  2  0  0  0  0
  3  4  2  0  0  0  0
  3  2  1  0  0  0  0
  4  5  1  0  0  0  0
  5  9  1  0  0  0  0
  5  6  2  0  0  0  0
  8 17  1  0  0  0  0
  9  8  2  0  0  0  0
 10  9  1  0  0  0  0
 11 10  2  0  0  0  0
 11 15  1  0  0  0  0
 12 13  1  0  0  0  0
 12 11  1  0  0  0  0
 13 14  2  0  0  0  0
 14 15  1  0  0  0  0
 15 16  2  0  0  0  0
 16  8  1  0  0  0  0
 16 21  1  0  0  0  0
 18 10  1  0  0  0  0
 19 12  1  0  0  0  0
 20 13  1  0  0  0  0
 22 24  1  0  0  0  0
 22  3  1  0  0  0  0
 23 22  1  0  0  0  0
 25 22  1  0  0  0  0
 27 26  1  0  0  0  0
 28 27  2  0  0  0  0
 28 32  1  0  0  0  0
 29 28  1  0  0  0  0
 30 29  1  0  0  0  0
 30 31  2  0  0  0  0
 31 27  1  0  0  0  0
 33 34  1  0  0  0  0
 34 36  1  0  0  0  0
 35 34  2  0  0  0  0
 36 30  1  0  0  0  0
 36 37  1  0  0  0  0
M  END
>  <minimizedAffinity>
-6.31907415

$$$$

 OpenBabel03242513103D

 37 40  0  0  0  0  0  0  0  0999 V2000
   36.7330   29.6160   37.0570 C   0  0  0  0  0  0  0  0  0  0  0  0
   36.1200   29.0110   38.1690 C   0  0  0  0  0  0  0  0  0  0  0  0
   36.5550   29.4020   39.4180 C   0  0  0  0  0  0  0  0  0  0  0  0
   37.5440   30.3430   39.4810 N   0  0  0  0  0  0  0  0  0  0  0  0
   38.1190   30.9110   38.4110 C   0  0  0  0  0  0  0  0  0  0  0  0
   37.7130   30.5470   37.1910 N   0  0  0  0  0  0  0  0  0  0  0  0
   36.3970   29.3130   36.0720 H   0  0  0  0  0  0  0  0  0  0  0  0
   39.2060   32.6690   39.7320 C   0  0  0  0  0  0  0  0  0  0  0  0
   39.1600   31.8990   38.5990 C   0  0  0  0  0  0  0  0  0  0  0  0
   40.1070   32.0160   37.5570 C   0  0  0  0  0  0  0  0  0  0  0  0
   41.1360   32.9470   37.6720 C   0  0  0  0  0  0  0  0  0  0  0  0
   42.1920   33.3290   36.9050 N   0  0  0  0  0  0  0  0  0  0  0  0
   42.8550   34.3160   37.5780 C   0  0  0  0  0  0  0  0  0  0  0  0
   42.2010   34.5220   38.7380 N   0  0  0  0  0  0  0  0  0  0  0  0
   41.1460   33.6970   38.8220 C   0  0  0  0  0  0  0  0  0  0  0  0
   40.2340   33.6040   39.8520 C   0  0  0  0  0  0  0  0  0  0  0  0
   38.4500   32.5270   40.4840 H   0  0  0  0  0  0  0  0  0  0  0  0
   40.0730   31.4150   36.6740 H   0  0  0  0  0  0  0  0  0  0  0  0
   42.4180   32.9130   35.9700 H   0  0  0  0  0  0  0  0  0  0  0  0
   43.7420   34.8190   37.2150 H   0  0  0  0  0  0  0  0  0  0  0  0
   40.2810   34.2150   40.7360 H   0  0  0  0  0  0  0  0  0  0  0  0
   35.9470   28.8000   40.6270 C   0  0  0  0  0  0  0  0  0  0  0  0
   36.4530   29.4120   41.7860 F   0  0  0  0  0  0  0  0  0  0  0  0
   34.5910   29.0140   40.6440 F   0  0  0  0  0  0  0  0  0  0  0  0
   36.2500   27.4590   40.6390 F   0  0  0  0  0  0  0  0  0  0  0  0
   35.1490   28.0890   37.9620 O   0  0  0  0  0  0  0  0  0  0  0  0
   33.9530   28.3950   37.3630 C   0  0  0  0  0  0  0  0  0  0  0  0
   33.6880   27.2740   36.5860 C   0  0  0  0  0  0  0  0  0  0  0  0
   32.0840   27.6930   35.7890 S   0  0  0  0  0  0  0  0  0  0  0  0
   32.0490   29.3410   36.6610 C   0  0  0  0  0  0  0  0  0  0  0  0
   32.9930   29.2500   37.2140 N   0  0  0  0  0  0  0  0  0  0  0  0
   33.9620   26.1420   36.1470 H   0  0  0  0  0  0  0  0  0  0  0  0
   29.9160   31.5750   35.2080 H   0  0  0  0  0  0  0  0  0  0  0  0
   30.8010   30.9550   35.2340 C   0  0  0  0  0  0  0  0  0  0  0  0
   31.6620   30.8550   34.3120 O   0  0  0  0  0  0  0  0  0  0  0  0
   30.9380   30.2230   36.4320 N   0  0  0  0  0  0  0  0  0  0  0  0
   30.2850   30.2570   37.2100 H   0  0  0  0  0  0  0  0  0  0  0  0
  1  6  2  0  0  0  0
  1  2  1  0  0  0  0
  2  3  2  0  0  0  0
  3  4  1  0  0  0  0
  3 22  1  0  0  0  0
  5  9  1  0  0  0  0
  5  4  2  0  0  0  0
  6  5  1  0  0  0  0
  7  1  1  0  0  0  0
  8 16  1  0  0  0  0
  8 17  1  0  0  0  0
  9  8  2  0  0  0  0
 10 11  2  0  0  0  0
 10  9  1  0  0  0  0
 11 15  1  0  0  0  0
 12 13  1  0  0  0  0
 12 11  1  0  0  0  0
 13 14  2  0  0  0  0
 14 15  1  0  0  0  0
 15 16  2  0  0  0  0
 16 21  1  0  0  0  0
 18 10  1  0  0  0  0
 19 12  1  0  0  0  0
 20 13  1  0  0  0  0
 22 25  1  0  0  0  0
 22 24  1  0  0  0  0
 22 23  1  0  0  0  0
 26  2  1  0  0  0  0
 27 26  1  0  0  0  0
 28 27  2  0  0  0  0
 29 28  1  0  0  0  0
 29 30  1  0  0  0  0
 30 31  2  0  0  0  0
 31 27  1  0  0  0  0
 32 28  1  0  0  0  0
 33 34  1  0  0  0  0
 34 36  1  0  0  0  0
 35 34  2  0  0  0  0
 36 30  1  0  0  0  0
 36 37  1  0  0  0  0
M  END
>  <minimizedAffinity>
-6.04075146

$$$$

 OpenBabel03242513103D

 37 40  0  0  0  0  0  0  0  0999 V2000
   38.1020   30.0950   40.8240 C   0  0  0  0  0  0  0  0  0  0  0  0
   38.0970   29.4960   42.0960 C   0  0  0  0  0  0  0  0  0  0  0  0
   37.2200   28.4500   42.2950 C   0  0  0  0  0  0  0  0  0  0  0  0
   36.4260   28.0770   41.2470 N   0  0  0  0  0  0  0  0  0  0  0  0
   36.4420   28.6600   40.0410 C   0  0  0  0  0  0  0  0  0  0  0  0
   37.2840   29.6750   39.8250 N   0  0  0  0  0  0  0  0  0  0  0  0
   38.7870   30.9190   40.6600 H   0  0  0  0  0  0  0  0  0  0  0  0
   35.8070   27.0030   38.3460 C   0  0  0  0  0  0  0  0  0  0  0  0
   35.5540   28.1800   39.0030 C   0  0  0  0  0  0  0  0  0  0  0  0
   34.4310   28.9870   38.7180 C   0  0  0  0  0  0  0  0  0  0  0  0
   33.5340   28.5850   37.7310 C   0  0  0  0  0  0  0  0  0  0  0  0
   32.3850   29.0810   37.2010 N   0  0  0  0  0  0  0  0  0  0  0  0
   31.9630   28.2060   36.2390 C   0  0  0  0  0  0  0  0  0  0  0  0
   32.8530   27.1970   36.1950 N   0  0  0  0  0  0  0  0  0  0  0  0
   33.8240   27.4020   37.0980 C   0  0  0  0  0  0  0  0  0  0  0  0
   34.9140   26.5960   37.3560 C   0  0  0  0  0  0  0  0  0  0  0  0
   36.6830   26.4400   38.6150 H   0  0  0  0  0  0  0  0  0  0  0  0
   34.2320   29.9040   39.2300 H   0  0  0  0  0  0  0  0  0  0  0  0
   31.9380   29.9790   37.5060 H   0  0  0  0  0  0  0  0  0  0  0  0
   31.0700   28.3350   35.6400 H   0  0  0  0  0  0  0  0  0  0  0  0
   35.1010   25.6750   36.8330 H   0  0  0  0  0  0  0  0  0  0  0  0
   37.1700   27.7780   43.6140 C   0  0  0  0  0  0  0  0  0  0  0  0
   38.3870   27.1290   43.8800 F   0  0  0  0  0  0  0  0  0  0  0  0
   37.0010   28.6970   44.6200 F   0  0  0  0  0  0  0  0  0  0  0  0
   36.1480   26.8580   43.5900 F   0  0  0  0  0  0  0  0  0  0  0  0
   38.9400   29.9670   43.0480 O   0  0  0  0  0  0  0  0  0  0  0  0
   40.2480   30.2830   42.7860 C   0  0  0  0  0  0  0  0  0  0  0  0
   40.8650   29.0420   42.6860 C   0  0  0  0  0  0  0  0  0  0  0  0
   42.6170   29.4770   42.3330 S   0  0  0  0  0  0  0  0  0  0  0  0
   42.2050   31.2950   42.3830 C   0  0  0  0  0  0  0  0  0  0  0  0
   41.1310   31.2100   42.5960 N   0  0  0  0  0  0  0  0  0  0  0  0
   40.8560   27.7980   42.7100 H   0  0  0  0  0  0  0  0  0  0  0  0
   44.9500   33.2750   42.8260 H   0  0  0  0  0  0  0  0  0  0  0  0
   44.2270   32.5350   43.1390 C   0  0  0  0  0  0  0  0  0  0  0  0
   44.2050   31.9510   44.2620 O   0  0  0  0  0  0  0  0  0  0  0  0
   43.2540   32.2500   42.1590 N   0  0  0  0  0  0  0  0  0  0  0  0
   43.2140   32.6830   41.2390 H   0  0  0  0  0  0  0  0  0  0  0  0
  1  2  1  0  0  0  0
  2  3  2  0  0  0  0
  2 26  1  0  0  0  0
  3 22  1  0  0  0  0
  4  3  1  0  0  0  0
  5  4  2  0  0  0  0
  6  5  1  0  0  0  0
  6  1  2  0  0  0  0
  7  1  1  0  0  0  0
  8 17  1  0  0  0  0
  8  9  1  0  0  0  0
  9  5  1  0  0  0  0
 10  9  2  0  0  0  0
 10 18  1  0  0  0  0
 11 10  1  0  0  0  0
 12 19  1  0  0  0  0
 12 11  1  0  0  0  0
 13 12  1  0  0  0  0
 14 13  2  0  0  0  0
 14 15  1  0  0  0  0
 15 16  1  0  0  0  0
 15 11  2  0  0  0  0
 16  8  2  0  0  0  0
 20 13  1  0  0  0  0
 21 16  1  0  0  0  0
 22 23  1  0  0  0  0
 22 24  1  0  0  0  0
 25 22  1  0  0  0  0
 27 26  1  0  0  0  0
 28 32  1  0  0  0  0
 28 27  2  0  0  0  0
 29 30  1  0  0  0  0
 29 28  1  0  0  0  0
 30 31  2  0  0  0  0
 31 27  1  0  0  0  0
 33 34  1  0  0  0  0
 34 35  2  0  0  0  0
 36 30  1  0  0  0  0
 36 34  1  0  0  0  0
 37 36  1  0  0  0  0
M  END
>  <minimizedAffinity>
-6.02239895

$$$$
