
 OpenBabel03252507303D

 45 47  0  0  1  0  0  0  0  0999 V2000
   47.5880   31.8130   46.3340 C   0  0  2  0  0  0  0  0  0  0  0  0
   47.3330   30.3700   45.8130 C   0  0  0  0  0  0  0  0  0  0  0  0
   48.1410   29.4010   46.6080 C   0  0  0  0  0  0  0  0  0  0  0  0
   48.1520   29.6140   48.0820 C   0  0  0  0  0  0  0  0  0  0  0  0
   48.1520   30.9940   48.4940 C   0  0  0  0  0  0  0  0  0  0  0  0
   47.1550   31.8820   47.7170 C   0  0  2  0  0  0  0  0  0  0  0  0
   48.6820   31.9120   46.2230 H   0  0  0  0  0  0  0  0  0  0  0  0
   47.6780   30.4030   44.7600 H   0  0  0  0  0  0  0  0  0  0  0  0
   46.2750   30.1150   45.8030 H   0  0  0  0  0  0  0  0  0  0  0  0
   49.1230   29.3310   46.1030 H   0  0  0  0  0  0  0  0  0  0  0  0
   47.6700   28.3900   46.4380 H   0  0  0  0  0  0  0  0  0  0  0  0
   49.2660   29.3580   48.2930 H   0  0  0  0  0  0  0  0  0  0  0  0
   47.7890   28.8050   48.7230 H   0  0  0  0  0  0  0  0  0  0  0  0
   49.1070   31.5730   48.4680 H   0  0  0  0  0  0  0  0  0  0  0  0
   47.8180   31.0760   49.5670 H   0  0  0  0  0  0  0  0  0  0  0  0
   47.2620   32.8280   48.2510 H   0  0  0  0  0  0  0  0  0  0  0  0
   46.9410   32.8020   45.4940 C   0  0  0  0  0  0  0  0  0  0  0  0
   45.8410   33.4670   46.0220 C   0  0  0  0  0  0  0  0  0  0  0  0
   45.1630   34.4230   45.2290 C   0  0  0  0  0  0  0  0  0  0  0  0
   45.6640   34.6340   43.9460 N   0  0  0  0  0  0  0  0  0  0  0  0
   46.7310   33.9600   43.5020 C   0  0  0  0  0  0  0  0  0  0  0  0
   47.3550   33.0620   44.2600 N   0  0  0  0  0  0  0  0  0  0  0  0
   45.3260   33.4880   46.9560 H   0  0  0  0  0  0  0  0  0  0  0  0
   44.3180   35.0170   45.4570 H   0  0  0  0  0  0  0  0  0  0  0  0
   47.2150   34.2470   42.1490 C   0  0  0  0  0  0  0  0  0  0  0  0
   48.2590   35.1190   41.9380 C   0  0  0  0  0  0  0  0  0  0  0  0
   48.7850   35.4560   40.7160 C   0  0  0  0  0  0  0  0  0  0  0  0
   48.1730   34.8340   39.6580 C   0  0  0  0  0  0  0  0  0  0  0  0
   47.1120   33.9430   39.8320 C   0  0  0  0  0  0  0  0  0  0  0  0
   46.6390   33.6560   41.0890 N   0  0  0  0  0  0  0  0  0  0  0  0
   48.6870   35.5690   42.8440 H   0  0  0  0  0  0  0  0  0  0  0  0
   49.5940   36.1320   40.5610 H   0  0  0  0  0  0  0  0  0  0  0  0
   48.4920   35.0120   38.6390 H   0  0  0  0  0  0  0  0  0  0  0  0
   46.9800   33.5210   36.4780 H   0  0  0  0  0  0  0  0  0  0  0  0
   47.2080   33.8110   37.5150 C   0  0  0  0  0  0  0  0  0  0  0  0
   48.1590   34.6340   37.6330 O   0  0  0  0  0  0  0  0  0  0  0  0
   46.5210   33.3330   38.6910 N   0  0  0  0  0  0  0  0  0  0  0  0
   45.7560   32.6660   38.5380 H   0  0  0  0  0  0  0  0  0  0  0  0
   45.8160   31.3040   47.8500 N   0  0  0  0  0  0  0  0  0  0  0  0
   45.1540   30.7320   48.9500 C   0  0  0  0  0  0  0  0  0  0  0  0
   44.6340   31.4320   49.8920 O   0  0  0  0  0  0  0  0  0  0  0  0
   45.0940   29.3060   48.9400 N   0  0  0  0  0  0  0  0  0  0  0  0
   45.1540   31.1930   46.9930 H   0  0  0  0  0  0  0  0  0  0  0  0
   44.7320   28.6510   48.2090 H   0  0  0  0  0  0  0  0  0  0  0  0
   45.4040   28.6150   49.6690 H   0  0  0  0  0  0  0  0  0  0  0  0
  1  7  1  6  0  0  0
  1  6  1  0  0  0  0
  2  1  1  0  0  0  0
  2  3  1  0  0  0  0
  3  4  1  0  0  0  0
  4 12  1  0  0  0  0
  4  5  1  0  0  0  0
  4 13  1  0  0  0  0
  5 15  1  0  0  0  0
  6 39  1  0  0  0  0
  6 16  1  1  0  0  0
  6  5  1  0  0  0  0
  8  2  1  0  0  0  0
  9  2  1  0  0  0  0
 10  3  1  0  0  0  0
 11  3  1  0  0  0  0
 14  5  1  0  0  0  0
 17 18  1  0  0  0  0
 17  1  1  0  0  0  0
 18 23  1  0  0  0  0
 19 24  1  0  0  0  0
 19 18  2  0  0  0  0
 20 19  1  0  0  0  0
 21 20  2  0  0  0  0
 21 22  1  0  0  0  0
 22 17  2  0  0  0  0
 25 21  1  0  0  0  0
 26 25  1  0  0  0  0
 26 31  1  0  0  0  0
 27 26  2  0  0  0  0
 28 29  2  0  0  0  0
 28 27  1  0  0  0  0
 29 30  1  0  0  0  0
 30 25  2  0  0  0  0
 32 27  1  0  0  0  0
 33 28  1  0  0  0  0
 34 35  1  0  0  0  0
 35 36  2  0  0  0  0
 35 37  1  0  0  0  0
 37 29  1  0  0  0  0
 38 37  1  0  0  0  0
 39 40  1  0  0  0  0
 40 41  2  0  0  0  0
 42 40  1  0  0  0  0
 42 45  1  0  0  0  0
 43 39  1  0  0  0  0
 44 42  1  0  0  0  0
M  END
>  <minimizedAffinity>
-6.69287682

>  <minimizedRMSD>
0.191963419

$$$$
