
 OpenBabel03252509323D

 36 37  0  0  1  0  0  0  0  0999 V2000
   45.9820   34.8700   43.0470 O   0  0  0  0  0  0  0  0  0  0  0  0
   46.1860   34.0020   41.9710 C   0  0  1  0  0  0  0  0  0  0  0  0
   45.3350   34.3300   40.7750 C   0  0  0  0  0  0  0  0  0  0  0  0
   45.9870   33.5030   39.6970 C   0  0  0  0  0  0  0  0  0  0  0  0
   47.4450   33.4070   40.0940 C   0  0  0  0  0  0  0  0  0  0  0  0
   47.5780   34.2270   41.3750 C   0  0  2  0  0  0  0  0  0  0  0  0
   46.1330   32.9460   42.2470 H   0  0  0  0  0  0  0  0  0  0  0  0
   44.2700   34.0700   40.9520 H   0  0  0  0  0  0  0  0  0  0  0  0
   45.4790   35.3980   40.5080 H   0  0  0  0  0  0  0  0  0  0  0  0
   45.5680   32.4660   39.7950 H   0  0  0  0  0  0  0  0  0  0  0  0
   45.8520   33.9080   38.6860 H   0  0  0  0  0  0  0  0  0  0  0  0
   47.7800   32.3650   40.2390 H   0  0  0  0  0  0  0  0  0  0  0  0
   48.0180   33.9570   39.3210 H   0  0  0  0  0  0  0  0  0  0  0  0
   47.7950   35.2770   41.2130 H   0  0  0  0  0  0  0  0  0  0  0  0
   50.4670   33.7210   43.2710 H   0  0  0  0  0  0  0  0  0  0  0  0
   49.7180   34.2550   42.6800 C   0  0  0  0  0  0  0  0  0  0  0  0
   49.9090   35.4770   42.5010 O   0  0  0  0  0  0  0  0  0  0  0  0
   48.5850   33.5370   42.1600 N   0  0  0  0  0  0  0  0  0  0  0  0
   48.4390   32.5150   42.3180 H   0  0  0  0  0  0  0  0  0  0  0  0
   44.8600   34.8680   45.3820 O   0  0  0  0  0  0  0  0  0  0  0  0
   45.5180   33.9670   44.3910 P   0  0  1  0  0  0  0  0  0  0  0  0
   44.5600   32.6580   43.9620 O   0  0  0  0  0  0  0  0  0  0  0  0
   44.7740   32.3150   43.0550 H   0  0  0  0  0  0  0  0  0  0  0  0
   46.9250   33.3090   45.0750 O   0  0  0  0  0  0  0  0  0  0  0  0
   46.7360   31.9650   45.2280 C   0  0  0  0  0  0  0  0  0  0  0  0
   46.0970   31.4430   44.5320 H   0  0  0  0  0  0  0  0  0  0  0  0
   47.7560   31.4960   45.1000 H   0  0  0  0  0  0  0  0  0  0  0  0
   46.3770   32.0230   48.9260 C   0  0  0  0  0  0  0  0  0  0  0  0
   46.7870   32.3810   47.6350 C   0  0  0  0  0  0  0  0  0  0  0  0
   46.3190   31.6080   46.5870 C   0  0  0  0  0  0  0  0  0  0  0  0
   45.4850   30.5410   46.8570 N   0  0  0  0  0  0  0  0  0  0  0  0
   45.1180   30.2380   48.1220 C   0  0  0  0  0  0  0  0  0  0  0  0
   45.5690   30.9830   49.1410 N   0  0  0  0  0  0  0  0  0  0  0  0
   46.7150   32.5960   49.7900 H   0  0  0  0  0  0  0  0  0  0  0  0
   47.4340   33.2220   47.5220 H   0  0  0  0  0  0  0  0  0  0  0  0
   44.4600   29.3820   48.2570 H   0  0  0  0  0  0  0  0  0  0  0  0
  1 21  1  0  0  0  0
  2  7  1  1  0  0  0
  2  1  1  0  0  0  0
  3  8  1  0  0  0  0
  3  2  1  0  0  0  0
  4 10  1  0  0  0  0
  4  5  1  0  0  0  0
  4  3  1  0  0  0  0
  5 12  1  0  0  0  0
  5  6  1  0  0  0  0
  6 14  1  6  0  0  0
  6  2  1  0  0  0  0
  6 18  1  0  0  0  0
  9  3  1  0  0  0  0
 11  4  1  0  0  0  0
 13  5  1  0  0  0  0
 16 15  1  0  0  0  0
 17 16  2  0  0  0  0
 18 19  1  0  0  0  0
 18 16  1  0  0  0  0
 21 24  1  0  0  0  0
 21 20  2  1  0  0  0
 22 21  1  0  0  0  0
 23 22  1  0  0  0  0
 24 25  1  0  0  0  0
 25 30  1  0  0  0  0
 26 25  1  0  0  0  0
 27 25  1  0  0  0  0
 28 33  1  0  0  0  0
 28 34  1  0  0  0  0
 29 28  2  0  0  0  0
 30 31  2  0  0  0  0
 30 29  1  0  0  0  0
 31 32  1  0  0  0  0
 32 36  1  0  0  0  0
 32 33  2  0  0  0  0
 35 29  1  0  0  0  0
M  END
>  <minimizedAffinity>
-4.74419498

>  <minimizedRMSD>
1.2647326

$$$$
