
 OpenBabel03252509323D

 36 37  0  0  1  0  0  0  0  0999 V2000
   46.0260   35.1220   43.3020 O   0  0  0  0  0  0  0  0  0  0  0  0
   46.7110   34.4330   42.2980 C   0  0  1  0  0  0  0  0  0  0  0  0
   46.0230   34.4930   40.9610 C   0  0  0  0  0  0  0  0  0  0  0  0
   47.1060   34.0010   40.0350 C   0  0  0  0  0  0  0  0  0  0  0  0
   48.4080   34.4090   40.6910 C   0  0  0  0  0  0  0  0  0  0  0  0
   48.0130   35.1640   41.9580 C   0  0  2  0  0  0  0  0  0  0  0  0
   46.9900   33.4150   42.5810 H   0  0  0  0  0  0  0  0  0  0  0  0
   45.1080   33.8650   40.9490 H   0  0  0  0  0  0  0  0  0  0  0  0
   45.8210   35.5530   40.7040 H   0  0  0  0  0  0  0  0  0  0  0  0
   47.0730   32.8800   40.0770 H   0  0  0  0  0  0  0  0  0  0  0  0
   47.0140   34.3780   39.0090 H   0  0  0  0  0  0  0  0  0  0  0  0
   49.0620   33.5480   40.9140 H   0  0  0  0  0  0  0  0  0  0  0  0
   48.8740   35.1620   40.0230 H   0  0  0  0  0  0  0  0  0  0  0  0
   47.8670   36.2290   41.8170 H   0  0  0  0  0  0  0  0  0  0  0  0
   50.7580   33.5540   43.3960 H   0  0  0  0  0  0  0  0  0  0  0  0
   49.9870   33.7860   42.6570 C   0  0  0  0  0  0  0  0  0  0  0  0
   49.9850   33.1010   41.6120 O   0  0  0  0  0  0  0  0  0  0  0  0
   49.0450   34.8390   42.9260 N   0  0  0  0  0  0  0  0  0  0  0  0
   49.0580   35.4030   43.8050 H   0  0  0  0  0  0  0  0  0  0  0  0
   44.8710   34.7590   45.5920 O   0  0  0  0  0  0  0  0  0  0  0  0
   45.5540   34.0230   44.4880 P   0  0  1  0  0  0  0  0  0  0  0  0
   44.6190   32.7840   43.8530 O   0  0  0  0  0  0  0  0  0  0  0  0
   44.8500   32.5830   42.9090 H   0  0  0  0  0  0  0  0  0  0  0  0
   46.9600   33.2850   45.0880 O   0  0  0  0  0  0  0  0  0  0  0  0
   46.7120   31.9500   45.2300 C   0  0  0  0  0  0  0  0  0  0  0  0
   46.0370   31.4660   44.5410 H   0  0  0  0  0  0  0  0  0  0  0  0
   47.7070   31.4360   45.0790 H   0  0  0  0  0  0  0  0  0  0  0  0
   46.3880   32.0090   48.9320 C   0  0  0  0  0  0  0  0  0  0  0  0
   46.7890   32.3630   47.6370 C   0  0  0  0  0  0  0  0  0  0  0  0
   46.3030   31.5970   46.5930 C   0  0  0  0  0  0  0  0  0  0  0  0
   45.4610   30.5390   46.8700 N   0  0  0  0  0  0  0  0  0  0  0  0
   45.1020   30.2390   48.1390 C   0  0  0  0  0  0  0  0  0  0  0  0
   45.5710   30.9780   49.1540 N   0  0  0  0  0  0  0  0  0  0  0  0
   46.7400   32.5780   49.7930 H   0  0  0  0  0  0  0  0  0  0  0  0
   47.4440   33.1980   47.5180 H   0  0  0  0  0  0  0  0  0  0  0  0
   44.4350   29.3900   48.2790 H   0  0  0  0  0  0  0  0  0  0  0  0
  1 21  1  0  0  0  0
  2  7  1  1  0  0  0
  2  1  1  0  0  0  0
  3  2  1  0  0  0  0
  4 10  1  0  0  0  0
  4  5  1  0  0  0  0
  4  3  1  0  0  0  0
  5 12  1  0  0  0  0
  5  6  1  0  0  0  0
  6 14  1  6  0  0  0
  6  2  1  0  0  0  0
  6 18  1  0  0  0  0
  8  3  1  0  0  0  0
  9  3  1  0  0  0  0
 11  4  1  0  0  0  0
 13  5  1  0  0  0  0
 16 18  1  0  0  0  0
 16 15  1  0  0  0  0
 17 16  2  0  0  0  0
 18 19  1  0  0  0  0
 21 24  1  0  0  0  0
 21 20  2  1  0  0  0
 22 21  1  0  0  0  0
 23 22  1  0  0  0  0
 24 25  1  0  0  0  0
 25 30  1  0  0  0  0
 26 25  1  0  0  0  0
 27 25  1  0  0  0  0
 28 33  1  0  0  0  0
 28 34  1  0  0  0  0
 29 28  2  0  0  0  0
 30 31  2  0  0  0  0
 30 29  1  0  0  0  0
 31 32  1  0  0  0  0
 32 36  1  0  0  0  0
 32 33  2  0  0  0  0
 35 29  1  0  0  0  0
M  END
>  <minimizedAffinity>
-5.21890163

>  <minimizedRMSD>
0.867398739

$$$$
