
 OpenBabel03252507373D

 34 37  0  0  0  0  0  0  0  0999 V2000
   45.4870   34.8530   43.4820 C   0  0  0  0  0  0  0  0  0  0  0  0
   46.1950   33.7670   44.0590 C   0  0  0  0  0  0  0  0  0  0  0  0
   46.0040   33.5410   45.4210 C   0  0  0  0  0  0  0  0  0  0  0  0
   45.1750   34.3490   46.1100 N   0  0  0  0  0  0  0  0  0  0  0  0
   44.5070   35.3830   45.5320 C   0  0  0  0  0  0  0  0  0  0  0  0
   44.6670   35.6230   44.2400 N   0  0  0  0  0  0  0  0  0  0  0  0
   46.8490   33.1300   43.5190 H   0  0  0  0  0  0  0  0  0  0  0  0
   43.8580   35.9900   46.1440 H   0  0  0  0  0  0  0  0  0  0  0  0
   46.9780   32.7110   47.4920 C   0  0  0  0  0  0  0  0  0  0  0  0
   46.6610   32.4650   46.1590 C   0  0  0  0  0  0  0  0  0  0  0  0
   46.9780   31.2470   45.6310 C   0  0  0  0  0  0  0  0  0  0  0  0
   47.5980   30.2650   46.3720 C   0  0  0  0  0  0  0  0  0  0  0  0
   47.9980   29.0030   46.0540 N   0  0  0  0  0  0  0  0  0  0  0  0
   48.5660   28.4590   47.1930 C   0  0  0  0  0  0  0  0  0  0  0  0
   48.5010   29.3870   48.1640 N   0  0  0  0  0  0  0  0  0  0  0  0
   47.9150   30.4900   47.6770 C   0  0  0  0  0  0  0  0  0  0  0  0
   47.6050   31.7160   48.2410 C   0  0  0  0  0  0  0  0  0  0  0  0
   46.7850   33.6270   48.0350 H   0  0  0  0  0  0  0  0  0  0  0  0
   46.7180   31.0950   44.5990 H   0  0  0  0  0  0  0  0  0  0  0  0
   47.8670   28.5860   45.1060 H   0  0  0  0  0  0  0  0  0  0  0  0
   48.9570   27.4520   47.1720 H   0  0  0  0  0  0  0  0  0  0  0  0
   47.8730   31.8570   49.2810 H   0  0  0  0  0  0  0  0  0  0  0  0
   45.6690   35.0880   42.1230 O   0  0  0  0  0  0  0  0  0  0  0  0
   44.7270   34.6130   41.2090 C   0  0  0  0  0  0  0  0  0  0  0  0
   45.5080   33.8440   40.4270 C   0  0  0  0  0  0  0  0  0  0  0  0
   44.2490   33.1700   39.1590 S   0  0  0  0  0  0  0  0  0  0  0  0
   42.8860   34.1460   40.0370 C   0  0  0  0  0  0  0  0  0  0  0  0
   43.4580   34.6250   40.8410 N   0  0  0  0  0  0  0  0  0  0  0  0
   46.4940   33.2890   39.9900 H   0  0  0  0  0  0  0  0  0  0  0  0
   39.7430   35.6430   40.4010 H   0  0  0  0  0  0  0  0  0  0  0  0
   40.7700   35.3050   40.3970 C   0  0  0  0  0  0  0  0  0  0  0  0
   40.9120   36.2790   41.1840 O   0  0  0  0  0  0  0  0  0  0  0  0
   41.4800   34.2700   39.7800 N   0  0  0  0  0  0  0  0  0  0  0  0
   40.8640   33.7060   39.1900 H   0  0  0  0  0  0  0  0  0  0  0  0
  1  2  2  0  0  0  0
  1  6  1  0  0  0  0
  2  3  1  0  0  0  0
  3  4  2  0  0  0  0
  3 10  1  0  0  0  0
  5  4  1  0  0  0  0
  5  8  1  0  0  0  0
  6  5  2  0  0  0  0
  7  2  1  0  0  0  0
  9 18  1  0  0  0  0
  9 17  1  0  0  0  0
 10  9  2  0  0  0  0
 11 10  1  0  0  0  0
 11 12  2  0  0  0  0
 12 16  1  0  0  0  0
 13 12  1  0  0  0  0
 13 14  1  0  0  0  0
 14 15  2  0  0  0  0
 16 15  1  0  0  0  0
 16 17  2  0  0  0  0
 17 22  1  0  0  0  0
 19 11  1  0  0  0  0
 20 13  1  0  0  0  0
 21 14  1  0  0  0  0
 23  1  1  0  0  0  0
 24 23  1  0  0  0  0
 25 24  2  0  0  0  0
 26 27  1  0  0  0  0
 26 25  1  0  0  0  0
 27 28  2  0  0  0  0
 28 24  1  0  0  0  0
 29 25  1  0  0  0  0
 31 30  1  0  0  0  0
 31 32  2  0  0  0  0
 33 27  1  0  0  0  0
 33 31  1  0  0  0  0
 34 33  1  0  0  0  0
M  END
>  <minimizedAffinity>
-5.89640951

>  <minimizedRMSD>
0.694007695

$$$$
