
 OpenBabel03252508363D

 27 28  0  0  0  0  0  0  0  0999 V2000
   37.6630   28.1470   41.0230 C   0  0  0  0  0  0  0  0  0  0  0  0
   37.7890   29.1770   41.9390 C   0  0  0  0  0  0  0  0  0  0  0  0
   37.4770   28.9050   43.2380 C   0  0  0  0  0  0  0  0  0  0  0  0
   37.0450   27.6650   43.6750 C   0  0  0  0  0  0  0  0  0  0  0  0
   36.9290   26.6560   42.7300 C   0  0  0  0  0  0  0  0  0  0  0  0
   37.2360   26.8940   41.4190 C   0  0  0  0  0  0  0  0  0  0  0  0
   37.5710   29.7010   43.9640 H   0  0  0  0  0  0  0  0  0  0  0  0
   36.8140   27.5210   44.7230 H   0  0  0  0  0  0  0  0  0  0  0  0
   36.5930   25.6750   43.0490 H   0  0  0  0  0  0  0  0  0  0  0  0
   37.8500   32.6170   40.3900 C   0  0  0  0  0  0  0  0  0  0  0  0
   37.3660   31.3800   40.8650 C   0  0  0  0  0  0  0  0  0  0  0  0
   38.2460   30.4640   41.4380 C   0  0  0  0  0  0  0  0  0  0  0  0
   39.5440   30.8420   41.4970 N   0  0  0  0  0  0  0  0  0  0  0  0
   39.9880   32.0170   41.0440 C   0  0  0  0  0  0  0  0  0  0  0  0
   39.1420   32.8980   40.4930 N   0  0  0  0  0  0  0  0  0  0  0  0
   36.9050   33.5090   39.8160 N   0  0  0  0  0  0  0  0  0  0  0  0
   36.3150   31.0830   40.8110 H   0  0  0  0  0  0  0  0  0  0  0  0
   41.0420   32.3000   41.1030 H   0  0  0  0  0  0  0  0  0  0  0  0
   37.1680   33.7320   38.8150 H   0  0  0  0  0  0  0  0  0  0  0  0
   36.1680   33.7330   40.5330 H   0  0  0  0  0  0  0  0  0  0  0  0
   38.2890   24.0870   39.8340 H   0  0  0  0  0  0  0  0  0  0  0  0
   38.2240   24.9480   40.4960 C   0  0  0  0  0  0  0  0  0  0  0  0
   39.3100   24.7950   41.1140 O   0  0  0  0  0  0  0  0  0  0  0  0
   37.1100   25.8510   40.4760 N   0  0  0  0  0  0  0  0  0  0  0  0
   36.3870   25.5970   39.7730 H   0  0  0  0  0  0  0  0  0  0  0  0
   38.2260   28.5180   38.5050 N   0  0  0  0  0  0  0  0  0  0  0  0
   37.9740   28.3570   39.6340 C   0  0  0  0  0  0  0  0  0  0  0  0
  1  6  2  0  0  0  0
  1  2  1  0  0  0  0
  2  3  2  0  0  0  0
  3  4  1  0  0  0  0
  3  7  1  0  0  0  0
  4  8  1  0  0  0  0
  5  9  1  0  0  0  0
  5  4  2  0  0  0  0
  6  5  1  0  0  0  0
 10 15  2  0  0  0  0
 10 11  1  0  0  0  0
 11 12  2  0  0  0  0
 12 13  1  0  0  0  0
 12  2  1  0  0  0  0
 14 18  1  0  0  0  0
 14 13  2  0  0  0  0
 15 14  1  0  0  0  0
 16 10  1  0  0  0  0
 16 20  1  0  0  0  0
 17 11  1  0  0  0  0
 19 16  1  0  0  0  0
 21 22  1  0  0  0  0
 22 23  2  0  0  0  0
 24 22  1  0  0  0  0
 24  6  1  0  0  0  0
 25 24  1  0  0  0  0
 26 27  3  0  0  0  0
 27  1  1  0  0  0  0
M  END
>  <minimizedAffinity>
-5.00500011

$$$$

 OpenBabel03252508363D

 27 28  0  0  0  0  0  0  0  0999 V2000
   39.1060   31.9280   41.0470 C   0  0  0  0  0  0  0  0  0  0  0  0
   37.9710   31.2280   40.6750 C   0  0  0  0  0  0  0  0  0  0  0  0
   37.0350   31.8920   39.9420 C   0  0  0  0  0  0  0  0  0  0  0  0
   37.1640   33.2170   39.5580 C   0  0  0  0  0  0  0  0  0  0  0  0
   38.3130   33.8880   39.9480 C   0  0  0  0  0  0  0  0  0  0  0  0
   39.2740   33.2510   40.6840 C   0  0  0  0  0  0  0  0  0  0  0  0
   36.1430   31.3570   39.6440 H   0  0  0  0  0  0  0  0  0  0  0  0
   36.3790   33.6810   38.9740 H   0  0  0  0  0  0  0  0  0  0  0  0
   38.4370   34.9260   39.6590 H   0  0  0  0  0  0  0  0  0  0  0  0
   37.0240   28.1010   42.5630 C   0  0  0  0  0  0  0  0  0  0  0  0
   37.0890   29.4590   42.1840 C   0  0  0  0  0  0  0  0  0  0  0  0
   37.8750   29.8390   41.0990 C   0  0  0  0  0  0  0  0  0  0  0  0
   38.5410   28.8450   40.4680 N   0  0  0  0  0  0  0  0  0  0  0  0
   38.4700   27.5640   40.8370 C   0  0  0  0  0  0  0  0  0  0  0  0
   37.7140   27.1970   41.8810 N   0  0  0  0  0  0  0  0  0  0  0  0
   36.2060   27.7750   43.6780 N   0  0  0  0  0  0  0  0  0  0  0  0
   36.5480   30.2550   42.7020 H   0  0  0  0  0  0  0  0  0  0  0  0
   39.0170   26.7780   40.3110 H   0  0  0  0  0  0  0  0  0  0  0  0
   36.7820   27.3120   44.4360 H   0  0  0  0  0  0  0  0  0  0  0  0
   35.2180   28.0760   43.4750 H   0  0  0  0  0  0  0  0  0  0  0  0
   42.2900   34.6870   40.1020 H   0  0  0  0  0  0  0  0  0  0  0  0
   41.3460   34.1610   39.9810 C   0  0  0  0  0  0  0  0  0  0  0  0
   41.4310   33.8980   38.7530 O   0  0  0  0  0  0  0  0  0  0  0  0
   40.4350   33.9560   41.0700 N   0  0  0  0  0  0  0  0  0  0  0  0
   40.7700   34.3570   41.9680 H   0  0  0  0  0  0  0  0  0  0  0  0
   40.9760   30.7870   42.4590 N   0  0  0  0  0  0  0  0  0  0  0  0
   40.1390   31.2950   41.8230 C   0  0  0  0  0  0  0  0  0  0  0  0
  1 27  1  0  0  0  0
  2  1  2  0  0  0  0
  2 12  1  0  0  0  0
  3  2  1  0  0  0  0
  4  3  2  0  0  0  0
  4  5  1  0  0  0  0
  5  6  2  0  0  0  0
  6  1  1  0  0  0  0
  6 24  1  0  0  0  0
  7  3  1  0  0  0  0
  8  4  1  0  0  0  0
  9  5  1  0  0  0  0
 10 16  1  0  0  0  0
 11 10  1  0  0  0  0
 11 17  1  0  0  0  0
 12 11  2  0  0  0  0
 13 14  2  0  0  0  0
 13 12  1  0  0  0  0
 14 15  1  0  0  0  0
 15 10  2  0  0  0  0
 16 19  1  0  0  0  0
 18 14  1  0  0  0  0
 20 16  1  0  0  0  0
 22 21  1  0  0  0  0
 22 24  1  0  0  0  0
 23 22  2  0  0  0  0
 24 25  1  0  0  0  0
 27 26  3  0  0  0  0
M  END
>  <minimizedAffinity>
-4.98175573

$$$$

 OpenBabel03252508363D

 27 28  0  0  0  0  0  0  0  0999 V2000
   38.7600   30.3650   41.6430 C   0  0  0  0  0  0  0  0  0  0  0  0
   40.0970   30.5530   41.3370 C   0  0  0  0  0  0  0  0  0  0  0  0
   40.9990   29.7130   41.9190 C   0  0  0  0  0  0  0  0  0  0  0  0
   40.6440   28.6980   42.7910 C   0  0  0  0  0  0  0  0  0  0  0  0
   39.2960   28.5390   43.0760 C   0  0  0  0  0  0  0  0  0  0  0  0
   38.3640   29.3630   42.5080 C   0  0  0  0  0  0  0  0  0  0  0  0
   42.0470   29.8480   41.6890 H   0  0  0  0  0  0  0  0  0  0  0  0
   41.4150   28.0680   43.2170 H   0  0  0  0  0  0  0  0  0  0  0  0
   38.9940   27.7490   43.7560 H   0  0  0  0  0  0  0  0  0  0  0  0
   40.5740   32.5700   38.1840 C   0  0  0  0  0  0  0  0  0  0  0  0
   40.2410   31.5000   39.0420 C   0  0  0  0  0  0  0  0  0  0  0  0
   40.4260   31.6310   40.4170 C   0  0  0  0  0  0  0  0  0  0  0  0
   40.9280   32.8130   40.8410 N   0  0  0  0  0  0  0  0  0  0  0  0
   41.2380   33.8170   40.0180 C   0  0  0  0  0  0  0  0  0  0  0  0
   41.0620   33.6920   38.6960 N   0  0  0  0  0  0  0  0  0  0  0  0
   40.3640   32.3770   36.7920 N   0  0  0  0  0  0  0  0  0  0  0  0
   39.8370   30.5480   38.6890 H   0  0  0  0  0  0  0  0  0  0  0  0
   41.6430   34.7630   40.3850 H   0  0  0  0  0  0  0  0  0  0  0  0
   41.2740   32.4910   36.2620 H   0  0  0  0  0  0  0  0  0  0  0  0
   39.3460   32.1680   36.6270 H   0  0  0  0  0  0  0  0  0  0  0  0
   35.3520   27.8400   42.1760 H   0  0  0  0  0  0  0  0  0  0  0  0
   36.3980   28.1160   42.0640 C   0  0  0  0  0  0  0  0  0  0  0  0
   36.7250   27.2680   41.1930 O   0  0  0  0  0  0  0  0  0  0  0  0
   36.9970   29.1820   42.8140 N   0  0  0  0  0  0  0  0  0  0  0  0
   36.3350   29.6510   43.4630 H   0  0  0  0  0  0  0  0  0  0  0  0
   36.9270   31.9030   40.6100 N   0  0  0  0  0  0  0  0  0  0  0  0
   37.7490   31.2120   41.0680 C   0  0  0  0  0  0  0  0  0  0  0  0
  1  6  1  0  0  0  0
  2  1  2  0  0  0  0
  2  3  1  0  0  0  0
  3  4  2  0  0  0  0
  4  5  1  0  0  0  0
  4  8  1  0  0  0  0
  5  9  1  0  0  0  0
  6 24  1  0  0  0  0
  6  5  2  0  0  0  0
  7  3  1  0  0  0  0
 10 15  2  0  0  0  0
 10 11  1  0  0  0  0
 11 12  2  0  0  0  0
 12 13  1  0  0  0  0
 12  2  1  0  0  0  0
 14 18  1  0  0  0  0
 14 13  2  0  0  0  0
 15 14  1  0  0  0  0
 16 10  1  0  0  0  0
 17 11  1  0  0  0  0
 19 16  1  0  0  0  0
 20 16  1  0  0  0  0
 22 21  1  0  0  0  0
 22 24  1  0  0  0  0
 23 22  2  0  0  0  0
 24 25  1  0  0  0  0
 26 27  3  0  0  0  0
 27  1  1  0  0  0  0
M  END
>  <minimizedAffinity>
-4.92157698

$$$$

 OpenBabel03252508363D

 27 28  0  0  0  0  0  0  0  0999 V2000
   38.8210   28.7080   42.0030 C   0  0  0  0  0  0  0  0  0  0  0  0
   37.5490   28.9810   41.5310 C   0  0  0  0  0  0  0  0  0  0  0  0
   36.5050   28.3450   42.1340 C   0  0  0  0  0  0  0  0  0  0  0  0
   36.6570   27.4510   43.1810 C   0  0  0  0  0  0  0  0  0  0  0  0
   37.9470   27.2010   43.6280 C   0  0  0  0  0  0  0  0  0  0  0  0
   39.0170   27.8230   43.0450 C   0  0  0  0  0  0  0  0  0  0  0  0
   35.5050   28.5490   41.7750 H   0  0  0  0  0  0  0  0  0  0  0  0
   35.7820   26.9830   43.6120 H   0  0  0  0  0  0  0  0  0  0  0  0
   38.0910   26.5050   44.4470 H   0  0  0  0  0  0  0  0  0  0  0  0
   37.1440   32.1720   39.5580 C   0  0  0  0  0  0  0  0  0  0  0  0
   37.2520   31.2890   40.6540 C   0  0  0  0  0  0  0  0  0  0  0  0
   37.4330   29.9260   40.4300 C   0  0  0  0  0  0  0  0  0  0  0  0
   37.4940   29.5370   39.1360 N   0  0  0  0  0  0  0  0  0  0  0  0
   37.3910   30.3830   38.1090 C   0  0  0  0  0  0  0  0  0  0  0  0
   37.2160   31.6940   38.3230 N   0  0  0  0  0  0  0  0  0  0  0  0
   36.9590   33.5500   39.8490 N   0  0  0  0  0  0  0  0  0  0  0  0
   37.2000   31.6140   41.6960 H   0  0  0  0  0  0  0  0  0  0  0  0
   37.4440   30.0450   37.0720 H   0  0  0  0  0  0  0  0  0  0  0  0
   36.0570   33.9010   39.4180 H   0  0  0  0  0  0  0  0  0  0  0  0
   37.7710   33.8890   40.4260 H   0  0  0  0  0  0  0  0  0  0  0  0
   41.7770   25.8850   43.4000 H   0  0  0  0  0  0  0  0  0  0  0  0
   40.7940   26.2560   43.1220 C   0  0  0  0  0  0  0  0  0  0  0  0
   40.3940   25.2600   42.4640 O   0  0  0  0  0  0  0  0  0  0  0  0
   40.3190   27.5510   43.5180 N   0  0  0  0  0  0  0  0  0  0  0  0
   41.0060   28.0830   44.0880 H   0  0  0  0  0  0  0  0  0  0  0  0
   40.9050   29.8600   40.9410 N   0  0  0  0  0  0  0  0  0  0  0  0
   39.9740   29.3400   41.4170 C   0  0  0  0  0  0  0  0  0  0  0  0
  1  6  1  0  0  0  0
  2  1  2  0  0  0  0
  2  3  1  0  0  0  0
  3  4  2  0  0  0  0
  4  8  1  0  0  0  0
  4  5  1  0  0  0  0
  5  9  1  0  0  0  0
  6 24  1  0  0  0  0
  6  5  2  0  0  0  0
  7  3  1  0  0  0  0
 10 16  1  0  0  0  0
 10 11  1  0  0  0  0
 11 17  1  0  0  0  0
 12 11  2  0  0  0  0
 12  2  1  0  0  0  0
 13 12  1  0  0  0  0
 14 15  1  0  0  0  0
 14 13  2  0  0  0  0
 15 10  2  0  0  0  0
 16 20  1  0  0  0  0
 18 14  1  0  0  0  0
 19 16  1  0  0  0  0
 22 21  1  0  0  0  0
 22 24  1  0  0  0  0
 23 22  2  0  0  0  0
 24 25  1  0  0  0  0
 26 27  3  0  0  0  0
 27  1  1  0  0  0  0
M  END
>  <minimizedAffinity>
-4.88505411

$$$$

 OpenBabel03252508363D

 27 28  0  0  0  0  0  0  0  0999 V2000
   37.9620   30.3980   41.1540 C   0  0  0  0  0  0  0  0  0  0  0  0
   37.8620   30.7910   39.8310 C   0  0  0  0  0  0  0  0  0  0  0  0
   36.7290   30.4460   39.1570 C   0  0  0  0  0  0  0  0  0  0  0  0
   35.6900   29.7290   39.7270 C   0  0  0  0  0  0  0  0  0  0  0  0
   35.8240   29.3520   41.0550 C   0  0  0  0  0  0  0  0  0  0  0  0
   36.9480   29.6830   41.7610 C   0  0  0  0  0  0  0  0  0  0  0  0
   36.6370   30.7470   38.1220 H   0  0  0  0  0  0  0  0  0  0  0  0
   34.8190   29.4900   39.1310 H   0  0  0  0  0  0  0  0  0  0  0  0
   35.0230   28.7900   41.5230 H   0  0  0  0  0  0  0  0  0  0  0  0
   40.8670   31.7640   37.7660 C   0  0  0  0  0  0  0  0  0  0  0  0
   39.7960   31.0030   38.2830 C   0  0  0  0  0  0  0  0  0  0  0  0
   38.9760   31.5420   39.2710 C   0  0  0  0  0  0  0  0  0  0  0  0
   39.2760   32.7970   39.6770 N   0  0  0  0  0  0  0  0  0  0  0  0
   40.2930   33.5060   39.1800 C   0  0  0  0  0  0  0  0  0  0  0  0
   41.0830   32.9890   38.2290 N   0  0  0  0  0  0  0  0  0  0  0  0
   41.6690   31.1610   36.7610 N   0  0  0  0  0  0  0  0  0  0  0  0
   39.5630   29.9890   37.9490 H   0  0  0  0  0  0  0  0  0  0  0  0
   40.5150   34.5180   39.5240 H   0  0  0  0  0  0  0  0  0  0  0  0
   42.6790   31.1090   37.0760 H   0  0  0  0  0  0  0  0  0  0  0  0
   41.0580   30.9130   35.9410 H   0  0  0  0  0  0  0  0  0  0  0  0
   37.4900   27.4200   44.2280 H   0  0  0  0  0  0  0  0  0  0  0  0
   37.3680   27.8920   43.2560 C   0  0  0  0  0  0  0  0  0  0  0  0
   37.5730   26.8860   42.5280 O   0  0  0  0  0  0  0  0  0  0  0  0
   37.0610   29.2860   43.1110 N   0  0  0  0  0  0  0  0  0  0  0  0
   36.9710   29.7830   44.0190 H   0  0  0  0  0  0  0  0  0  0  0  0
   40.0710   30.9840   42.5690 N   0  0  0  0  0  0  0  0  0  0  0  0
   39.1280   30.7250   41.9320 C   0  0  0  0  0  0  0  0  0  0  0  0
  1  6  1  0  0  0  0
  1 27  1  0  0  0  0
  2  1  2  0  0  0  0
  3  4  2  0  0  0  0
  3  2  1  0  0  0  0
  4  5  1  0  0  0  0
  5  9  1  0  0  0  0
  5  6  2  0  0  0  0
  6 24  1  0  0  0  0
  7  3  1  0  0  0  0
  8  4  1  0  0  0  0
 10 15  2  0  0  0  0
 10 11  1  0  0  0  0
 11 12  2  0  0  0  0
 12 13  1  0  0  0  0
 12  2  1  0  0  0  0
 14 18  1  0  0  0  0
 14 13  2  0  0  0  0
 15 14  1  0  0  0  0
 16 19  1  0  0  0  0
 16 10  1  0  0  0  0
 17 11  1  0  0  0  0
 20 16  1  0  0  0  0
 22 21  1  0  0  0  0
 23 22  2  0  0  0  0
 24 22  1  0  0  0  0
 24 25  1  0  0  0  0
 27 26  3  0  0  0  0
M  END
>  <minimizedAffinity>
-4.85840654

$$$$

 OpenBabel03252508363D

 27 28  0  0  0  0  0  0  0  0999 V2000
   36.5610   28.4110   40.9530 C   0  0  0  0  0  0  0  0  0  0  0  0
   36.7160   27.2140   40.2740 C   0  0  0  0  0  0  0  0  0  0  0  0
   36.0810   27.0860   39.0740 C   0  0  0  0  0  0  0  0  0  0  0  0
   35.3000   28.0820   38.5130 C   0  0  0  0  0  0  0  0  0  0  0  0
   35.1670   29.2680   39.2210 C   0  0  0  0  0  0  0  0  0  0  0  0
   35.7910   29.4310   40.4270 C   0  0  0  0  0  0  0  0  0  0  0  0
   36.1940   26.1560   38.5330 H   0  0  0  0  0  0  0  0  0  0  0  0
   34.8260   27.9110   37.5550 H   0  0  0  0  0  0  0  0  0  0  0  0
   34.5600   30.0630   38.8010 H   0  0  0  0  0  0  0  0  0  0  0  0
   39.6930   25.1600   41.3460 C   0  0  0  0  0  0  0  0  0  0  0  0
   38.9260   26.1670   40.7230 C   0  0  0  0  0  0  0  0  0  0  0  0
   37.5440   26.1950   40.8980 C   0  0  0  0  0  0  0  0  0  0  0  0
   37.0230   25.2210   41.6790 N   0  0  0  0  0  0  0  0  0  0  0  0
   37.7610   24.2740   42.2630 C   0  0  0  0  0  0  0  0  0  0  0  0
   39.0900   24.2460   42.0950 N   0  0  0  0  0  0  0  0  0  0  0  0
   41.0970   25.1840   41.1290 N   0  0  0  0  0  0  0  0  0  0  0  0
   39.3570   26.9490   40.0920 H   0  0  0  0  0  0  0  0  0  0  0  0
   37.3170   23.4980   42.8900 H   0  0  0  0  0  0  0  0  0  0  0  0
   41.4170   24.2780   40.6830 H   0  0  0  0  0  0  0  0  0  0  0  0
   41.4790   26.1030   41.4700 H   0  0  0  0  0  0  0  0  0  0  0  0
   36.5720   32.6570   41.1190 H   0  0  0  0  0  0  0  0  0  0  0  0
   36.5520   31.6600   40.6860 C   0  0  0  0  0  0  0  0  0  0  0  0
   37.4740   31.8020   39.8400 O   0  0  0  0  0  0  0  0  0  0  0  0
   35.6390   30.6460   41.1290 N   0  0  0  0  0  0  0  0  0  0  0  0
   35.0110   30.9650   41.8930 H   0  0  0  0  0  0  0  0  0  0  0  0
   37.7130   28.7840   43.2600 N   0  0  0  0  0  0  0  0  0  0  0  0
   37.1990   28.6220   42.2250 C   0  0  0  0  0  0  0  0  0  0  0  0
  1 27  1  0  0  0  0
  2 12  1  0  0  0  0
  2  1  2  0  0  0  0
  3  2  1  0  0  0  0
  4  3  2  0  0  0  0
  4  5  1  0  0  0  0
  5  6  2  0  0  0  0
  6  1  1  0  0  0  0
  6 24  1  0  0  0  0
  7  3  1  0  0  0  0
  8  4  1  0  0  0  0
  9  5  1  0  0  0  0
 10 15  1  0  0  0  0
 11 12  1  0  0  0  0
 11 10  2  0  0  0  0
 12 13  2  0  0  0  0
 13 14  1  0  0  0  0
 14 18  1  0  0  0  0
 15 14  2  0  0  0  0
 16 10  1  0  0  0  0
 16 20  1  0  0  0  0
 17 11  1  0  0  0  0
 19 16  1  0  0  0  0
 22 21  1  0  0  0  0
 22 24  1  0  0  0  0
 23 22  2  0  0  0  0
 24 25  1  0  0  0  0
 27 26  3  0  0  0  0
M  END
>  <minimizedAffinity>
-4.83238125

$$$$

 OpenBabel03252508363D

 27 28  0  0  0  0  0  0  0  0999 V2000
   37.1710   27.4030   41.1960 C   0  0  0  0  0  0  0  0  0  0  0  0
   38.1560   26.5790   41.7120 C   0  0  0  0  0  0  0  0  0  0  0  0
   38.6600   26.8950   42.9380 C   0  0  0  0  0  0  0  0  0  0  0  0
   38.2380   27.9850   43.6800 C   0  0  0  0  0  0  0  0  0  0  0  0
   37.2500   28.7900   43.1320 C   0  0  0  0  0  0  0  0  0  0  0  0
   36.7210   28.5010   41.9030 C   0  0  0  0  0  0  0  0  0  0  0  0
   39.4310   26.2590   43.3540 H   0  0  0  0  0  0  0  0  0  0  0  0
   38.6830   28.1750   44.6480 H   0  0  0  0  0  0  0  0  0  0  0  0
   36.9030   29.6500   43.6940 H   0  0  0  0  0  0  0  0  0  0  0  0
   38.5460   23.0800   40.3560 C   0  0  0  0  0  0  0  0  0  0  0  0
   38.1200   24.1530   41.1670 C   0  0  0  0  0  0  0  0  0  0  0  0
   38.5700   25.4450   40.9010 C   0  0  0  0  0  0  0  0  0  0  0  0
   39.4110   25.5780   39.8490 N   0  0  0  0  0  0  0  0  0  0  0  0
   39.8050   24.5530   39.0900 C   0  0  0  0  0  0  0  0  0  0  0  0
   39.3740   23.3110   39.3450 N   0  0  0  0  0  0  0  0  0  0  0  0
   38.0540   21.7860   40.6770 N   0  0  0  0  0  0  0  0  0  0  0  0
   37.4410   24.0350   42.0150 H   0  0  0  0  0  0  0  0  0  0  0  0
   40.4850   24.6860   38.2460 H   0  0  0  0  0  0  0  0  0  0  0  0
   38.8570   21.1280   40.8870 H   0  0  0  0  0  0  0  0  0  0  0  0
   37.0030   21.7990   40.6260 H   0  0  0  0  0  0  0  0  0  0  0  0
   35.5730   31.3940   40.5560 H   0  0  0  0  0  0  0  0  0  0  0  0
   36.2120   30.6270   40.9870 C   0  0  0  0  0  0  0  0  0  0  0  0
   37.2990   31.2630   40.9840 O   0  0  0  0  0  0  0  0  0  0  0  0
   35.7160   29.3360   41.3670 N   0  0  0  0  0  0  0  0  0  0  0  0
   34.7000   29.2170   41.1880 H   0  0  0  0  0  0  0  0  0  0  0  0
   36.1140   26.9270   38.8610 N   0  0  0  0  0  0  0  0  0  0  0  0
   36.5900   27.1360   39.9060 C   0  0  0  0  0  0  0  0  0  0  0  0
  1  2  2  0  0  0  0
  1  6  1  0  0  0  0
  2  3  1  0  0  0  0
  3  7  1  0  0  0  0
  3  4  2  0  0  0  0
  4  8  1  0  0  0  0
  5  4  1  0  0  0  0
  5  9  1  0  0  0  0
  6  5  2  0  0  0  0
 10 16  1  0  0  0  0
 10 11  1  0  0  0  0
 11 17  1  0  0  0  0
 12 11  2  0  0  0  0
 12  2  1  0  0  0  0
 13 12  1  0  0  0  0
 14 15  1  0  0  0  0
 14 13  2  0  0  0  0
 15 10  2  0  0  0  0
 16 19  1  0  0  0  0
 18 14  1  0  0  0  0
 20 16  1  0  0  0  0
 21 22  1  0  0  0  0
 22 24  1  0  0  0  0
 23 22  2  0  0  0  0
 24  6  1  0  0  0  0
 25 24  1  0  0  0  0
 26 27  3  0  0  0  0
 27  1  1  0  0  0  0
M  END
>  <minimizedAffinity>
-4.71815538

$$$$

 OpenBabel03252508363D

 27 28  0  0  0  0  0  0  0  0999 V2000
   38.1410   28.5600   42.0160 C   0  0  0  0  0  0  0  0  0  0  0  0
   39.2910   29.3150   41.8660 C   0  0  0  0  0  0  0  0  0  0  0  0
   40.4090   28.8920   42.5210 C   0  0  0  0  0  0  0  0  0  0  0  0
   40.4460   27.7600   43.3170 C   0  0  0  0  0  0  0  0  0  0  0  0
   39.2740   27.0280   43.4450 C   0  0  0  0  0  0  0  0  0  0  0  0
   38.1340   27.4230   42.8010 C   0  0  0  0  0  0  0  0  0  0  0  0
   41.3160   29.4720   42.4120 H   0  0  0  0  0  0  0  0  0  0  0  0
   41.3710   27.4830   43.8070 H   0  0  0  0  0  0  0  0  0  0  0  0
   39.2780   26.1370   44.0640 H   0  0  0  0  0  0  0  0  0  0  0  0
   38.9610   32.8890   40.7050 C   0  0  0  0  0  0  0  0  0  0  0  0
   39.0350   31.7690   41.5600 C   0  0  0  0  0  0  0  0  0  0  0  0
   39.2100   30.4960   41.0210 C   0  0  0  0  0  0  0  0  0  0  0  0
   39.2970   30.4260   39.6730 N   0  0  0  0  0  0  0  0  0  0  0  0
   39.2250   31.4940   38.8760 C   0  0  0  0  0  0  0  0  0  0  0  0
   39.0570   32.7190   39.3920 N   0  0  0  0  0  0  0  0  0  0  0  0
   38.7820   34.1610   41.3120 N   0  0  0  0  0  0  0  0  0  0  0  0
   38.9630   31.8360   42.6480 H   0  0  0  0  0  0  0  0  0  0  0  0
   39.2980   31.4120   37.7890 H   0  0  0  0  0  0  0  0  0  0  0  0
   37.8930   34.6170   40.9590 H   0  0  0  0  0  0  0  0  0  0  0  0
   39.5840   34.3410   41.9690 H   0  0  0  0  0  0  0  0  0  0  0  0
   36.1520   24.7420   42.1830 H   0  0  0  0  0  0  0  0  0  0  0  0
   36.9800   25.4470   42.1850 C   0  0  0  0  0  0  0  0  0  0  0  0
   37.7530   24.8340   41.4040 O   0  0  0  0  0  0  0  0  0  0  0  0
   36.9540   26.6620   42.9480 N   0  0  0  0  0  0  0  0  0  0  0  0
   36.0750   26.7900   43.4870 H   0  0  0  0  0  0  0  0  0  0  0  0
   35.9330   29.2530   40.8150 N   0  0  0  0  0  0  0  0  0  0  0  0
   36.9200   28.9430   41.3570 C   0  0  0  0  0  0  0  0  0  0  0  0
  1  6  1  0  0  0  0
  2  1  2  0  0  0  0
  2  3  1  0  0  0  0
  3  4  2  0  0  0  0
  4  5  1  0  0  0  0
  4  8  1  0  0  0  0
  5  9  1  0  0  0  0
  6 24  1  0  0  0  0
  6  5  2  0  0  0  0
  7  3  1  0  0  0  0
 10 16  1  0  0  0  0
 10 11  1  0  0  0  0
 11 17  1  0  0  0  0
 12 11  2  0  0  0  0
 12  2  1  0  0  0  0
 13 12  1  0  0  0  0
 14 15  1  0  0  0  0
 14 13  2  0  0  0  0
 15 10  2  0  0  0  0
 16 20  1  0  0  0  0
 18 14  1  0  0  0  0
 19 16  1  0  0  0  0
 21 22  1  0  0  0  0
 22 24  1  0  0  0  0
 23 22  2  0  0  0  0
 24 25  1  0  0  0  0
 26 27  3  0  0  0  0
 27  1  1  0  0  0  0
M  END
>  <minimizedAffinity>
-4.70424032

$$$$

 OpenBabel03252508363D

 27 28  0  0  0  0  0  0  0  0999 V2000
   36.4300   27.8880   40.7090 C   0  0  0  0  0  0  0  0  0  0  0  0
   36.4450   26.9390   39.7010 C   0  0  0  0  0  0  0  0  0  0  0  0
   36.7880   25.6650   40.0440 C   0  0  0  0  0  0  0  0  0  0  0  0
   37.1180   25.2830   41.3330 C   0  0  0  0  0  0  0  0  0  0  0  0
   37.0920   26.2610   42.3170 C   0  0  0  0  0  0  0  0  0  0  0  0
   36.7520   27.5490   42.0090 C   0  0  0  0  0  0  0  0  0  0  0  0
   36.8040   24.9130   39.2660 H   0  0  0  0  0  0  0  0  0  0  0  0
   37.3800   24.2520   41.5320 H   0  0  0  0  0  0  0  0  0  0  0  0
   37.3460   25.9850   43.3360 H   0  0  0  0  0  0  0  0  0  0  0  0
   36.6800   28.1930   36.1500 C   0  0  0  0  0  0  0  0  0  0  0  0
   37.0640   27.7690   37.4400 C   0  0  0  0  0  0  0  0  0  0  0  0
   36.0930   27.3820   38.3610 C   0  0  0  0  0  0  0  0  0  0  0  0
   34.8100   27.4450   37.9360 N   0  0  0  0  0  0  0  0  0  0  0  0
   34.4610   27.8480   36.7120 C   0  0  0  0  0  0  0  0  0  0  0  0
   35.3940   28.2200   35.8260 N   0  0  0  0  0  0  0  0  0  0  0  0
   37.7150   28.5760   35.2560 N   0  0  0  0  0  0  0  0  0  0  0  0
   38.1040   27.7230   37.7740 H   0  0  0  0  0  0  0  0  0  0  0  0
   33.4170   27.8890   36.3920 H   0  0  0  0  0  0  0  0  0  0  0  0
   37.5820   29.5790   34.9440 H   0  0  0  0  0  0  0  0  0  0  0  0
   38.3660   27.7610   35.1200 H   0  0  0  0  0  0  0  0  0  0  0  0
   38.2130   29.7600   44.1250 H   0  0  0  0  0  0  0  0  0  0  0  0
   38.0440   29.0050   43.3600 C   0  0  0  0  0  0  0  0  0  0  0  0
   39.2390   28.8180   43.0110 O   0  0  0  0  0  0  0  0  0  0  0  0
   36.7330   28.5250   43.0290 N   0  0  0  0  0  0  0  0  0  0  0  0
   35.9790   28.9700   43.5880 H   0  0  0  0  0  0  0  0  0  0  0  0
   35.8010   30.3660   40.2000 N   0  0  0  0  0  0  0  0  0  0  0  0
   36.0790   29.2550   40.4260 C   0  0  0  0  0  0  0  0  0  0  0  0
  1  6  1  0  0  0  0
  2  3  1  0  0  0  0
  2  1  2  0  0  0  0
  3  4  2  0  0  0  0
  4  8  1  0  0  0  0
  4  5  1  0  0  0  0
  5  9  1  0  0  0  0
  6  5  2  0  0  0  0
  6 24  1  0  0  0  0
  7  3  1  0  0  0  0
 10 11  1  0  0  0  0
 11 17  1  0  0  0  0
 11 12  2  0  0  0  0
 12  2  1  0  0  0  0
 13 12  1  0  0  0  0
 14 13  2  0  0  0  0
 15 10  2  0  0  0  0
 15 14  1  0  0  0  0
 16 10  1  0  0  0  0
 18 14  1  0  0  0  0
 19 16  1  0  0  0  0
 20 16  1  0  0  0  0
 22 21  1  0  0  0  0
 23 22  2  0  0  0  0
 24 22  1  0  0  0  0
 24 25  1  0  0  0  0
 26 27  3  0  0  0  0
 27  1  1  0  0  0  0
M  END
>  <minimizedAffinity>
-4.68585205

$$$$
