
 OpenBabel03252501053D

 36 38  0  0  1  0  0  0  0  0999 V2000
   48.5540   32.3710   38.0910 O   0  0  0  0  0  0  0  0  0  0  0  0
   48.0770   33.8140   38.2550 P   0  0  2  0  0  0  0  0  0  0  0  0
   49.3040   34.7680   37.5770 O   0  0  0  0  0  0  0  0  0  0  0  0
   48.9230   35.5570   37.1100 H   0  0  0  0  0  0  0  0  0  0  0  0
   47.7020   34.1770   39.8050 O   0  0  0  0  0  0  0  0  0  0  0  0
   48.0810   35.4590   41.8200 C   0  0  1  0  0  0  0  0  0  0  0  0
   49.3060   34.6660   41.6640 C   0  0  0  0  0  0  0  0  0  0  0  0
   48.4500   35.0870   40.4550 C   0  0  1  0  0  0  0  0  0  0  0  0
   48.1200   36.5240   42.1310 H   0  0  0  0  0  0  0  0  0  0  0  0
   49.3290   33.5700   41.8490 H   0  0  0  0  0  0  0  0  0  0  0  0
   50.2770   35.1420   41.8280 H   0  0  0  0  0  0  0  0  0  0  0  0
   49.0150   35.7890   39.8170 H   0  0  0  0  0  0  0  0  0  0  0  0
   46.0460   32.9390   43.7870 C   0  0  0  0  0  0  0  0  0  0  0  0
   47.1400   33.6140   43.2570 C   0  0  0  0  0  0  0  0  0  0  0  0
   46.9150   34.7220   42.4200 C   0  0  0  0  0  0  0  0  0  0  0  0
   45.6400   35.1010   42.1540 N   0  0  0  0  0  0  0  0  0  0  0  0
   44.5920   34.4180   42.6890 C   0  0  0  0  0  0  0  0  0  0  0  0
   44.7980   33.3390   43.5040 N   0  0  0  0  0  0  0  0  0  0  0  0
   46.1950   32.0910   44.4290 H   0  0  0  0  0  0  0  0  0  0  0  0
   48.1210   33.2750   43.5000 H   0  0  0  0  0  0  0  0  0  0  0  0
   43.5690   34.7010   42.4910 H   0  0  0  0  0  0  0  0  0  0  0  0
   46.7320   33.9390   37.2570 O   0  0  0  0  0  0  0  0  0  0  0  0
   45.7040   33.0170   37.2120 C   0  0  0  0  0  0  0  0  0  0  0  0
   45.5970   31.8840   36.4360 C   0  0  0  0  0  0  0  0  0  0  0  0
   44.5080   31.0660   36.5060 C   0  0  0  0  0  0  0  0  0  0  0  0
   43.4730   31.3580   37.3670 C   0  0  0  0  0  0  0  0  0  0  0  0
   43.6130   32.5130   38.1370 C   0  0  0  0  0  0  0  0  0  0  0  0
   44.7110   33.3140   38.0500 N   0  0  0  0  0  0  0  0  0  0  0  0
   46.4570   31.7160   35.7790 H   0  0  0  0  0  0  0  0  0  0  0  0
   44.4960   30.1860   35.8600 H   0  0  0  0  0  0  0  0  0  0  0  0
   42.6170   30.7190   37.4240 H   0  0  0  0  0  0  0  0  0  0  0  0
   41.3360   33.9270   40.3510 H   0  0  0  0  0  0  0  0  0  0  0  0
   42.2240   34.0230   39.7430 C   0  0  0  0  0  0  0  0  0  0  0  0
   42.9120   35.0730   39.6590 O   0  0  0  0  0  0  0  0  0  0  0  0
   42.5440   32.8400   39.0430 N   0  0  0  0  0  0  0  0  0  0  0  0
   42.0320   31.9470   39.0630 H   0  0  0  0  0  0  0  0  0  0  0  0
  2  1  2  6  0  0  0
  2  5  1  0  0  0  0
  3  2  1  0  0  0  0
  4  3  1  0  0  0  0
  5  8  1  0  0  0  0
  6  9  1  1  0  0  0
  6 15  1  0  0  0  0
  7  6  1  0  0  0  0
  7 11  1  0  0  0  0
  7 10  1  0  0  0  0
  8 12  1  6  0  0  0
  8  7  1  0  0  0  0
  8  6  1  0  0  0  0
 13 19  1  0  0  0  0
 14 20  1  0  0  0  0
 14 13  2  0  0  0  0
 15 14  1  0  0  0  0
 16 15  2  0  0  0  0
 16 17  1  0  0  0  0
 17 18  2  0  0  0  0
 18 13  1  0  0  0  0
 21 17  1  0  0  0  0
 22  2  1  0  0  0  0
 23 22  1  0  0  0  0
 23 28  1  0  0  0  0
 24 25  1  0  0  0  0
 24 23  2  0  0  0  0
 25 26  2  0  0  0  0
 26 31  1  0  0  0  0
 26 27  1  0  0  0  0
 27 35  1  0  0  0  0
 28 27  2  0  0  0  0
 29 24  1  0  0  0  0
 30 25  1  0  0  0  0
 33 32  1  0  0  0  0
 34 33  2  0  0  0  0
 35 36  1  0  0  0  0
 35 33  1  0  0  0  0
M  END
>  <minimizedAffinity>
-4.8351016

>  <minimizedRMSD>
0.575656712

$$$$
