
 OpenBabel03252509253D

 26 27  0  0  1  0  0  0  0  0999 V2000
   46.6360   35.0940   41.8670 C   0  0  1  0  0  0  0  0  0  0  0  0
   48.1740   35.3130   41.8660 C   0  0  0  0  0  0  0  0  0  0  0  0
   47.4080   34.1240   41.2080 C   0  0  2  0  0  0  0  0  0  0  0  0
   46.0810   35.8960   41.3370 H   0  0  0  0  0  0  0  0  0  0  0  0
   48.5240   36.0950   41.1980 H   0  0  0  0  0  0  0  0  0  0  0  0
   48.7430   35.1230   42.7730 H   0  0  0  0  0  0  0  0  0  0  0  0
   47.6250   33.1570   41.7590 H   0  0  0  0  0  0  0  0  0  0  0  0
   44.7200   35.2810   45.0880 C   0  0  0  0  0  0  0  0  0  0  0  0
   45.1740   35.6290   43.7880 C   0  0  0  0  0  0  0  0  0  0  0  0
   46.1460   34.8380   43.2740 C   0  0  0  0  0  0  0  0  0  0  0  0
   46.6630   33.7680   43.9680 N   0  0  0  0  0  0  0  0  0  0  0  0
   46.2070   33.4660   45.2040 C   0  0  0  0  0  0  0  0  0  0  0  0
   45.2290   34.2280   45.7660 N   0  0  0  0  0  0  0  0  0  0  0  0
   43.9440   35.8760   45.5480 H   0  0  0  0  0  0  0  0  0  0  0  0
   46.6960   32.6060   45.6350 H   0  0  0  0  0  0  0  0  0  0  0  0
   44.6690   36.7480   43.1070 N   0  0  0  0  0  0  0  0  0  0  0  0
   44.7330   37.6490   43.6420 H   0  0  0  0  0  0  0  0  0  0  0  0
   44.3040   36.5230   42.1710 H   0  0  0  0  0  0  0  0  0  0  0  0
   47.4170   34.0100   39.7020 C   0  0  0  0  0  0  0  0  0  0  0  0
   47.8100   34.9530   39.2650 H   0  0  0  0  0  0  0  0  0  0  0  0
   46.3920   33.7900   39.3300 H   0  0  0  0  0  0  0  0  0  0  0  0
   49.5110   32.1200   37.6210 H   0  0  0  0  0  0  0  0  0  0  0  0
   48.8510   32.9010   37.9870 C   0  0  0  0  0  0  0  0  0  0  0  0
   48.5480   33.8590   37.2060 O   0  0  0  0  0  0  0  0  0  0  0  0
   48.2940   32.9240   39.2950 N   0  0  0  0  0  0  0  0  0  0  0  0
   48.5590   32.1150   39.9290 H   0  0  0  0  0  0  0  0  0  0  0  0
  1  4  1  6  0  0  0
  1 10  1  0  0  0  0
  2  1  1  0  0  0  0
  2  6  1  0  0  0  0
  3  7  1  1  0  0  0
  3  2  1  0  0  0  0
  3  1  1  0  0  0  0
  5  2  1  0  0  0  0
  8 14  1  0  0  0  0
  8 13  1  0  0  0  0
  9  8  2  0  0  0  0
 10  9  1  0  0  0  0
 10 11  2  0  0  0  0
 11 12  1  0  0  0  0
 12 15  1  0  0  0  0
 12 13  2  0  0  0  0
 16 17  1  0  0  0  0
 16  9  1  0  0  0  0
 18 16  1  0  0  0  0
 19  3  1  0  0  0  0
 20 19  1  0  0  0  0
 21 19  1  0  0  0  0
 22 23  1  0  0  0  0
 23 25  1  0  0  0  0
 24 23  2  0  0  0  0
 25 19  1  0  0  0  0
 25 26  1  0  0  0  0
M  END
>  <minimizedAffinity>
-4.31000996

>  <minimizedRMSD>
0.334813744

$$$$
