
 OpenBabel03252500213D

 32 33  0  0  1  0  0  0  0  0999 V2000
   46.6250   34.6570   41.7290 C   0  0  1  0  0  0  0  0  0  0  0  0
   46.0660   34.0290   40.4360 C   0  0  0  0  0  0  0  0  0  0  0  0
   44.6240   33.8680   40.2660 C   0  0  0  0  0  0  0  0  0  0  0  0
   43.8020   34.3410   41.4600 C   0  0  0  0  0  0  0  0  0  0  0  0
   44.5030   33.7100   42.6410 C   0  0  0  0  0  0  0  0  0  0  0  0
   45.7280   34.6200   42.8610 C   0  0  2  0  0  0  0  0  0  0  0  0
   46.8300   35.6780   41.3350 H   0  0  0  0  0  0  0  0  0  0  0  0
   46.6990   33.7070   39.6590 H   0  0  0  0  0  0  0  0  0  0  0  0
   44.2590   33.4340   39.3630 H   0  0  0  0  0  0  0  0  0  0  0  0
   42.8550   33.7930   41.3380 H   0  0  0  0  0  0  0  0  0  0  0  0
   43.7010   35.4200   41.4960 H   0  0  0  0  0  0  0  0  0  0  0  0
   43.9000   33.7250   43.5720 H   0  0  0  0  0  0  0  0  0  0  0  0
   44.8300   32.7040   42.3580 H   0  0  0  0  0  0  0  0  0  0  0  0
   46.1980   34.2530   43.8120 H   0  0  0  0  0  0  0  0  0  0  0  0
   48.0430   32.6030   42.1420 C   0  0  0  0  0  0  0  0  0  0  0  0
   47.9490   33.9980   41.9150 C   0  0  0  0  0  0  0  0  0  0  0  0
   49.1530   34.7230   41.9510 C   0  0  0  0  0  0  0  0  0  0  0  0
   50.3340   34.0690   42.1980 N   0  0  0  0  0  0  0  0  0  0  0  0
   50.3370   32.7440   42.4010 C   0  0  0  0  0  0  0  0  0  0  0  0
   49.2070   32.0070   42.3770 N   0  0  0  0  0  0  0  0  0  0  0  0
   51.5420   32.0570   42.6170 N   0  0  0  0  0  0  0  0  0  0  0  0
   47.1540   31.9910   42.1270 H   0  0  0  0  0  0  0  0  0  0  0  0
   51.6370   31.0200   42.5480 H   0  0  0  0  0  0  0  0  0  0  0  0
   52.4460   32.5590   42.8710 H   0  0  0  0  0  0  0  0  0  0  0  0
   49.0780   36.1080   41.6950 N   0  0  0  0  0  0  0  0  0  0  0  0
   49.2040   36.7860   42.5010 H   0  0  0  0  0  0  0  0  0  0  0  0
   48.9070   36.5460   40.7810 H   0  0  0  0  0  0  0  0  0  0  0  0
   44.2800   37.0530   45.0000 H   0  0  0  0  0  0  0  0  0  0  0  0
   44.7070   36.1550   44.5460 C   0  0  0  0  0  0  0  0  0  0  0  0
   44.6800   35.2890   45.4860 O   0  0  0  0  0  0  0  0  0  0  0  0
   45.2030   35.9360   43.2100 N   0  0  0  0  0  0  0  0  0  0  0  0
   45.0720   36.8480   42.7260 H   0  0  0  0  0  0  0  0  0  0  0  0
  1  7  1  6  0  0  0
  1 16  1  0  0  0  0
  1  6  1  0  0  0  0
  2  1  1  0  0  0  0
  3  2  2  0  0  0  0
  3  4  1  0  0  0  0
  4 11  1  0  0  0  0
  4  5  1  0  0  0  0
  5  6  1  0  0  0  0
  5 12  1  0  0  0  0
  6 31  1  0  0  0  0
  6 14  1  1  0  0  0
  8  2  1  0  0  0  0
  9  3  1  0  0  0  0
 10  4  1  0  0  0  0
 13  5  1  0  0  0  0
 15 20  1  0  0  0  0
 16 17  1  0  0  0  0
 16 15  2  0  0  0  0
 17 18  2  0  0  0  0
 18 19  1  0  0  0  0
 19 21  1  0  0  0  0
 20 19  2  0  0  0  0
 21 24  1  0  0  0  0
 22 15  1  0  0  0  0
 23 21  1  0  0  0  0
 25 17  1  0  0  0  0
 25 26  1  0  0  0  0
 27 25  1  0  0  0  0
 29 28  1  0  0  0  0
 29 30  2  0  0  0  0
 31 29  1  0  0  0  0
 32 31  1  0  0  0  0
M  END
>  <minimizedAffinity>
-5.04477882

>  <minimizedRMSD>
3.67827272

$$$$
