
 OpenBabel03252508333D

 28 29  0  0  1  0  0  0  0  0999 V2000
   37.1130   30.6370   39.7940 N   0  0  0  0  0  0  0  0  0  0  0  0
   36.0940   30.3140   40.6940 C   0  0  1  0  0  0  0  0  0  0  0  0
   35.1420   29.2400   40.2800 C   0  0  0  0  0  0  0  0  0  0  0  0
   34.8420   29.1550   38.9180 N   0  0  0  0  0  0  0  0  0  0  0  0
   35.8810   29.4890   38.0270 C   0  0  0  0  0  0  0  0  0  0  0  0
   37.2090   29.7150   38.7170 C   0  0  0  0  0  0  0  0  0  0  0  0
   35.4440   31.2290   40.8540 H   0  0  0  0  0  0  0  0  0  0  0  0
   35.5720   28.2490   40.6170 H   0  0  0  0  0  0  0  0  0  0  0  0
   34.2230   29.3410   40.8970 H   0  0  0  0  0  0  0  0  0  0  0  0
   34.3090   28.3060   38.7050 H   0  0  0  0  0  0  0  0  0  0  0  0
   36.0430   28.6340   37.3160 H   0  0  0  0  0  0  0  0  0  0  0  0
   35.6380   30.3760   37.4000 H   0  0  0  0  0  0  0  0  0  0  0  0
   37.5100   28.7240   39.1700 H   0  0  0  0  0  0  0  0  0  0  0  0
   37.9150   29.8990   37.9240 H   0  0  0  0  0  0  0  0  0  0  0  0
   37.3200   33.0180   39.7350 C   0  0  0  0  0  0  0  0  0  0  0  0
   37.9100   31.7840   40.0190 C   0  0  0  0  0  0  0  0  0  0  0  0
   39.2160   31.7750   40.4920 C   0  0  0  0  0  0  0  0  0  0  0  0
   39.8870   32.9390   40.6680 N   0  0  0  0  0  0  0  0  0  0  0  0
   39.2760   34.1230   40.3790 C   0  0  0  0  0  0  0  0  0  0  0  0
   38.0260   34.1590   39.9240 N   0  0  0  0  0  0  0  0  0  0  0  0
   36.3320   33.2050   39.3660 H   0  0  0  0  0  0  0  0  0  0  0  0
   39.6890   30.8410   40.7260 H   0  0  0  0  0  0  0  0  0  0  0  0
   39.8440   35.0440   40.5320 H   0  0  0  0  0  0  0  0  0  0  0  0
   37.4010   28.9240   43.6910 H   0  0  0  0  0  0  0  0  0  0  0  0
   37.4200   28.9660   42.6160 C   0  0  0  0  0  0  0  0  0  0  0  0
   38.0970   28.3840   41.7000 O   0  0  0  0  0  0  0  0  0  0  0  0
   36.5030   29.8590   42.0150 N   0  0  0  0  0  0  0  0  0  0  0  0
   35.8530   30.4380   42.6320 H   0  0  0  0  0  0  0  0  0  0  0  0
  1 16  1  0  0  0  0
  1  2  1  0  0  0  0
  2  7  1  1  0  0  0
  2 27  1  0  0  0  0
  3  8  1  0  0  0  0
  3  2  1  0  0  0  0
  3  9  1  0  0  0  0
  4  3  1  0  0  0  0
  5  6  1  0  0  0  0
  5  4  1  0  0  0  0
  6 13  1  0  0  0  0
  6  1  1  0  0  0  0
 10  4  1  0  0  0  0
 11  5  1  0  0  0  0
 12  5  1  0  0  0  0
 14  6  1  0  0  0  0
 15 20  2  0  0  0  0
 15 16  1  0  0  0  0
 16 17  2  0  0  0  0
 17 18  1  0  0  0  0
 17 22  1  0  0  0  0
 19 23  1  0  0  0  0
 19 18  2  0  0  0  0
 20 19  1  0  0  0  0
 21 15  1  0  0  0  0
 25 24  1  0  0  0  0
 26 25  2  0  0  0  0
 27 25  1  0  0  0  0
 27 28  1  0  0  0  0
M  END
>  <minimizedAffinity>
-4.18853426

$$$$

 OpenBabel03252508333D

 28 29  0  0  1  0  0  0  0  0999 V2000
   38.2640   30.7320   41.1240 N   0  0  0  0  0  0  0  0  0  0  0  0
   37.0090   31.0100   40.5760 C   0  0  1  0  0  0  0  0  0  0  0  0
   36.8490   32.3280   39.8910 C   0  0  0  0  0  0  0  0  0  0  0  0
   37.5690   33.4040   40.4170 N   0  0  0  0  0  0  0  0  0  0  0  0
   38.8300   33.1010   40.9680 C   0  0  0  0  0  0  0  0  0  0  0  0
   39.2580   31.6690   40.7300 C   0  0  0  0  0  0  0  0  0  0  0  0
   36.2410   31.0240   41.4100 H   0  0  0  0  0  0  0  0  0  0  0  0
   37.1440   32.1920   38.8070 H   0  0  0  0  0  0  0  0  0  0  0  0
   35.7610   32.5520   39.8320 H   0  0  0  0  0  0  0  0  0  0  0  0
   37.5210   34.2220   39.8020 H   0  0  0  0  0  0  0  0  0  0  0  0
   39.6090   33.7430   40.4750 H   0  0  0  0  0  0  0  0  0  0  0  0
   38.8840   33.3240   42.0580 H   0  0  0  0  0  0  0  0  0  0  0  0
   39.3830   31.5520   39.6130 H   0  0  0  0  0  0  0  0  0  0  0  0
   40.2490   31.5950   41.1450 H   0  0  0  0  0  0  0  0  0  0  0  0
   39.6330   28.9140   41.8580 C   0  0  0  0  0  0  0  0  0  0  0  0
   38.4270   29.6110   41.9710 C   0  0  0  0  0  0  0  0  0  0  0  0
   37.4910   29.1560   42.8920 C   0  0  0  0  0  0  0  0  0  0  0  0
   37.7550   28.0660   43.6510 N   0  0  0  0  0  0  0  0  0  0  0  0
   38.9430   27.4130   43.5110 C   0  0  0  0  0  0  0  0  0  0  0  0
   39.8570   27.8280   42.6360 N   0  0  0  0  0  0  0  0  0  0  0  0
   40.4560   29.1270   41.2050 H   0  0  0  0  0  0  0  0  0  0  0  0
   36.5610   29.6780   43.0030 H   0  0  0  0  0  0  0  0  0  0  0  0
   39.1250   26.5370   44.1380 H   0  0  0  0  0  0  0  0  0  0  0  0
   35.4760   28.6190   38.4420 H   0  0  0  0  0  0  0  0  0  0  0  0
   35.5070   29.1020   39.4040 C   0  0  0  0  0  0  0  0  0  0  0  0
   34.8340   29.0070   40.4860 O   0  0  0  0  0  0  0  0  0  0  0  0
   36.5110   30.0860   39.5680 N   0  0  0  0  0  0  0  0  0  0  0  0
   37.1710   30.3030   38.7590 H   0  0  0  0  0  0  0  0  0  0  0  0
  1 16  1  0  0  0  0
  2  1  1  0  0  0  0
  2  7  1  1  0  0  0
  3  4  1  0  0  0  0
  3  2  1  0  0  0  0
  4  5  1  0  0  0  0
  5 12  1  0  0  0  0
  6  5  1  0  0  0  0
  6  1  1  0  0  0  0
  6 14  1  0  0  0  0
  8  3  1  0  0  0  0
  9  3  1  0  0  0  0
 10  4  1  0  0  0  0
 11  5  1  0  0  0  0
 13  6  1  0  0  0  0
 15 16  2  0  0  0  0
 15 20  1  0  0  0  0
 16 17  1  0  0  0  0
 17 22  1  0  0  0  0
 17 18  2  0  0  0  0
 19 18  1  0  0  0  0
 19 23  1  0  0  0  0
 20 19  2  0  0  0  0
 21 15  1  0  0  0  0
 24 25  1  0  0  0  0
 25 27  1  0  0  0  0
 25 26  2  0  0  0  0
 27  2  1  0  0  0  0
 28 27  1  0  0  0  0
M  END
>  <minimizedAffinity>
-4.15533829

$$$$

 OpenBabel03252508333D

 28 29  0  0  1  0  0  0  0  0999 V2000
   37.7450   29.6320   41.9360 N   0  0  0  0  0  0  0  0  0  0  0  0
   36.9850   28.6760   41.2560 C   0  0  1  0  0  0  0  0  0  0  0  0
   36.9260   27.3090   41.8550 C   0  0  0  0  0  0  0  0  0  0  0  0
   38.0720   26.8610   42.5160 N   0  0  0  0  0  0  0  0  0  0  0  0
   38.8270   27.8400   43.1920 C   0  0  0  0  0  0  0  0  0  0  0  0
   38.1540   29.1950   43.2260 C   0  0  0  0  0  0  0  0  0  0  0  0
   37.4300   28.5200   40.2260 H   0  0  0  0  0  0  0  0  0  0  0  0
   36.0590   27.2880   42.5820 H   0  0  0  0  0  0  0  0  0  0  0  0
   36.6080   26.6010   41.0590 H   0  0  0  0  0  0  0  0  0  0  0  0
   37.8950   25.9880   43.0220 H   0  0  0  0  0  0  0  0  0  0  0  0
   38.9530   27.5310   44.2640 H   0  0  0  0  0  0  0  0  0  0  0  0
   39.8540   27.9510   42.7750 H   0  0  0  0  0  0  0  0  0  0  0  0
   37.2100   29.0700   43.8350 H   0  0  0  0  0  0  0  0  0  0  0  0
   38.8020   29.8210   43.8160 H   0  0  0  0  0  0  0  0  0  0  0  0
   39.3380   31.3400   41.4270 C   0  0  0  0  0  0  0  0  0  0  0  0
   38.0250   30.8740   41.3200 C   0  0  0  0  0  0  0  0  0  0  0  0
   37.1070   31.6530   40.6270 C   0  0  0  0  0  0  0  0  0  0  0  0
   37.4880   32.8310   40.0780 N   0  0  0  0  0  0  0  0  0  0  0  0
   38.7780   33.2520   40.2050 C   0  0  0  0  0  0  0  0  0  0  0  0
   39.6780   32.5240   40.8630 N   0  0  0  0  0  0  0  0  0  0  0  0
   40.1640   30.8700   41.9210 H   0  0  0  0  0  0  0  0  0  0  0  0
   36.0950   31.3130   40.5240 H   0  0  0  0  0  0  0  0  0  0  0  0
   39.0540   34.2070   39.7500 H   0  0  0  0  0  0  0  0  0  0  0  0
   33.6310   29.3660   40.3070 H   0  0  0  0  0  0  0  0  0  0  0  0
   34.6370   29.1240   40.0080 C   0  0  0  0  0  0  0  0  0  0  0  0
   35.2260   28.9250   38.8900 O   0  0  0  0  0  0  0  0  0  0  0  0
   35.5740   28.9770   41.0570 N   0  0  0  0  0  0  0  0  0  0  0  0
   35.2560   29.1050   42.0670 H   0  0  0  0  0  0  0  0  0  0  0  0
  1  6  1  0  0  0  0
  2  7  1  6  0  0  0
  2  3  1  0  0  0  0
  2  1  1  0  0  0  0
  3  4  1  0  0  0  0
  3  8  1  0  0  0  0
  4 10  1  0  0  0  0
  4  5  1  0  0  0  0
  5  6  1  0  0  0  0
  5 11  1  0  0  0  0
  6 14  1  0  0  0  0
  6 13  1  0  0  0  0
  9  3  1  0  0  0  0
 12  5  1  0  0  0  0
 15 21  1  0  0  0  0
 16 15  1  0  0  0  0
 16  1  1  0  0  0  0
 17 16  2  0  0  0  0
 18 19  2  0  0  0  0
 18 17  1  0  0  0  0
 19 20  1  0  0  0  0
 20 15  2  0  0  0  0
 22 17  1  0  0  0  0
 23 19  1  0  0  0  0
 25 24  1  0  0  0  0
 25 27  1  0  0  0  0
 26 25  2  0  0  0  0
 27  2  1  0  0  0  0
 27 28  1  0  0  0  0
M  END
>  <minimizedAffinity>
-4.14310122

$$$$

 OpenBabel03252508333D

 28 29  0  0  1  0  0  0  0  0999 V2000
   37.2440   30.3220   39.5140 N   0  0  0  0  0  0  0  0  0  0  0  0
   37.9600   31.4190   39.0270 C   0  0  1  0  0  0  0  0  0  0  0  0
   37.8170   31.7250   37.5720 C   0  0  0  0  0  0  0  0  0  0  0  0
   37.6500   30.6370   36.7110 N   0  0  0  0  0  0  0  0  0  0  0  0
   36.9290   29.5400   37.2230 C   0  0  0  0  0  0  0  0  0  0  0  0
   36.3050   29.8140   38.5750 C   0  0  0  0  0  0  0  0  0  0  0  0
   39.0670   31.2260   39.1720 H   0  0  0  0  0  0  0  0  0  0  0  0
   36.9310   32.4190   37.4510 H   0  0  0  0  0  0  0  0  0  0  0  0
   38.6790   32.3590   37.2700 H   0  0  0  0  0  0  0  0  0  0  0  0
   37.4090   30.9430   35.7640 H   0  0  0  0  0  0  0  0  0  0  0  0
   36.0760   29.3070   36.5310 H   0  0  0  0  0  0  0  0  0  0  0  0
   37.5450   28.6150   37.2850 H   0  0  0  0  0  0  0  0  0  0  0  0
   35.5380   30.6300   38.4160 H   0  0  0  0  0  0  0  0  0  0  0  0
   35.7430   28.9270   38.8150 H   0  0  0  0  0  0  0  0  0  0  0  0
   36.6780   28.8060   41.2740 C   0  0  0  0  0  0  0  0  0  0  0  0
   37.4990   29.8420   40.8200 C   0  0  0  0  0  0  0  0  0  0  0  0
   38.4880   30.3160   41.6720 C   0  0  0  0  0  0  0  0  0  0  0  0
   38.6410   29.7800   42.9060 N   0  0  0  0  0  0  0  0  0  0  0  0
   37.8200   28.7710   43.3130 C   0  0  0  0  0  0  0  0  0  0  0  0
   36.8640   28.2980   42.5160 N   0  0  0  0  0  0  0  0  0  0  0  0
   35.8750   28.3260   40.7520 H   0  0  0  0  0  0  0  0  0  0  0  0
   39.1370   31.1050   41.3440 H   0  0  0  0  0  0  0  0  0  0  0  0
   37.9680   28.3600   44.3150 H   0  0  0  0  0  0  0  0  0  0  0  0
   37.7460   34.6140   40.5630 H   0  0  0  0  0  0  0  0  0  0  0  0
   38.3640   33.8070   40.2110 C   0  0  0  0  0  0  0  0  0  0  0  0
   39.6220   33.5770   40.1800 O   0  0  0  0  0  0  0  0  0  0  0  0
   37.6800   32.7110   39.6350 N   0  0  0  0  0  0  0  0  0  0  0  0
   36.6150   32.7310   39.5720 H   0  0  0  0  0  0  0  0  0  0  0  0
  1 16  1  0  0  0  0
  2  7  1  1  0  0  0
  2  1  1  0  0  0  0
  2 27  1  0  0  0  0
  3  2  1  0  0  0  0
  4  5  1  0  0  0  0
  4  3  1  0  0  0  0
  5 12  1  0  0  0  0
  5  6  1  0  0  0  0
  6 14  1  0  0  0  0
  6  1  1  0  0  0  0
  8  3  1  0  0  0  0
  9  3  1  0  0  0  0
 10  4  1  0  0  0  0
 11  5  1  0  0  0  0
 13  6  1  0  0  0  0
 15 20  1  0  0  0  0
 16 15  2  0  0  0  0
 16 17  1  0  0  0  0
 17 18  2  0  0  0  0
 18 19  1  0  0  0  0
 19 23  1  0  0  0  0
 20 19  2  0  0  0  0
 21 15  1  0  0  0  0
 22 17  1  0  0  0  0
 25 24  1  0  0  0  0
 26 25  2  0  0  0  0
 27 25  1  0  0  0  0
 28 27  1  0  0  0  0
M  END
>  <minimizedAffinity>
-3.96951866

$$$$

 OpenBabel03252508333D

 28 29  0  0  1  0  0  0  0  0999 V2000
   39.3540   31.2090   40.7540 N   0  0  0  0  0  0  0  0  0  0  0  0
   39.1990   32.5670   41.0470 C   0  0  1  0  0  0  0  0  0  0  0  0
   40.2350   33.4970   40.5060 C   0  0  0  0  0  0  0  0  0  0  0  0
   41.5400   33.0070   40.4200 N   0  0  0  0  0  0  0  0  0  0  0  0
   41.6740   31.6350   40.1270 C   0  0  0  0  0  0  0  0  0  0  0  0
   40.3610   30.9680   39.7810 C   0  0  0  0  0  0  0  0  0  0  0  0
   39.2470   32.7060   42.1710 H   0  0  0  0  0  0  0  0  0  0  0  0
   39.9030   33.8200   39.4730 H   0  0  0  0  0  0  0  0  0  0  0  0
   40.1880   34.4400   41.0930 H   0  0  0  0  0  0  0  0  0  0  0  0
   42.1470   33.6490   39.9020 H   0  0  0  0  0  0  0  0  0  0  0  0
   42.3300   31.5160   39.2240 H   0  0  0  0  0  0  0  0  0  0  0  0
   42.1680   31.0690   40.9500 H   0  0  0  0  0  0  0  0  0  0  0  0
   40.0000   31.4450   38.8210 H   0  0  0  0  0  0  0  0  0  0  0  0
   40.6160   29.9530   39.5240 H   0  0  0  0  0  0  0  0  0  0  0  0
   38.9150   29.9150   42.7140 C   0  0  0  0  0  0  0  0  0  0  0  0
   38.5440   30.2530   41.4100 C   0  0  0  0  0  0  0  0  0  0  0  0
   37.4270   29.6340   40.8650 C   0  0  0  0  0  0  0  0  0  0  0  0
   36.7260   28.7290   41.5880 N   0  0  0  0  0  0  0  0  0  0  0  0
   37.1190   28.4250   42.8570 C   0  0  0  0  0  0  0  0  0  0  0  0
   38.1870   29.0030   43.4040 N   0  0  0  0  0  0  0  0  0  0  0  0
   39.7410   30.2930   43.2830 H   0  0  0  0  0  0  0  0  0  0  0  0
   37.1170   29.8840   39.8680 H   0  0  0  0  0  0  0  0  0  0  0  0
   36.5330   27.6900   43.4140 H   0  0  0  0  0  0  0  0  0  0  0  0
   36.2510   33.8770   39.5580 H   0  0  0  0  0  0  0  0  0  0  0  0
   37.1160   33.2420   39.4730 C   0  0  0  0  0  0  0  0  0  0  0  0
   37.5930   32.4780   38.5650 O   0  0  0  0  0  0  0  0  0  0  0  0
   37.9660   33.2010   40.6040 N   0  0  0  0  0  0  0  0  0  0  0  0
   37.7200   33.7780   41.4660 H   0  0  0  0  0  0  0  0  0  0  0  0
  1  2  1  0  0  0  0
  1 16  1  0  0  0  0
  2  7  1  1  0  0  0
  3  2  1  0  0  0  0
  3  9  1  0  0  0  0
  4  3  1  0  0  0  0
  5  4  1  0  0  0  0
  5 12  1  0  0  0  0
  6  5  1  0  0  0  0
  6  1  1  0  0  0  0
  8  3  1  0  0  0  0
 10  4  1  0  0  0  0
 11  5  1  0  0  0  0
 13  6  1  0  0  0  0
 14  6  1  0  0  0  0
 15 21  1  0  0  0  0
 15 20  1  0  0  0  0
 16 15  2  0  0  0  0
 17 16  1  0  0  0  0
 17 18  2  0  0  0  0
 18 19  1  0  0  0  0
 19 20  2  0  0  0  0
 19 23  1  0  0  0  0
 22 17  1  0  0  0  0
 25 24  1  0  0  0  0
 25 27  1  0  0  0  0
 26 25  2  0  0  0  0
 27  2  1  0  0  0  0
 27 28  1  0  0  0  0
M  END
>  <minimizedAffinity>
-3.94046283

$$$$

 OpenBabel03252508333D

 28 29  0  0  1  0  0  0  0  0999 V2000
   38.0460   30.8250   41.0810 N   0  0  0  0  0  0  0  0  0  0  0  0
   38.8420   30.1780   42.0310 C   0  0  1  0  0  0  0  0  0  0  0  0
   39.9550   30.9720   42.6320 C   0  0  0  0  0  0  0  0  0  0  0  0
   40.5810   31.9080   41.8050 N   0  0  0  0  0  0  0  0  0  0  0  0
   39.7610   32.5460   40.8520 C   0  0  0  0  0  0  0  0  0  0  0  0
   38.2920   32.2230   41.0160 C   0  0  0  0  0  0  0  0  0  0  0  0
   39.3530   29.2940   41.5380 H   0  0  0  0  0  0  0  0  0  0  0  0
   39.5450   31.5100   43.5390 H   0  0  0  0  0  0  0  0  0  0  0  0
   40.6870   30.2580   43.0700 H   0  0  0  0  0  0  0  0  0  0  0  0
   41.2200   32.5070   42.3350 H   0  0  0  0  0  0  0  0  0  0  0  0
   39.8500   33.6580   40.9780 H   0  0  0  0  0  0  0  0  0  0  0  0
   40.0710   32.3240   39.8050 H   0  0  0  0  0  0  0  0  0  0  0  0
   37.9780   32.6500   42.0150 H   0  0  0  0  0  0  0  0  0  0  0  0
   37.7840   32.8160   40.2730 H   0  0  0  0  0  0  0  0  0  0  0  0
   37.6370   29.3920   39.2120 C   0  0  0  0  0  0  0  0  0  0  0  0
   37.1210   30.0770   40.3150 C   0  0  0  0  0  0  0  0  0  0  0  0
   35.7600   29.9750   40.5720 C   0  0  0  0  0  0  0  0  0  0  0  0
   34.9670   29.2300   39.7660 N   0  0  0  0  0  0  0  0  0  0  0  0
   35.5080   28.5770   38.6990 C   0  0  0  0  0  0  0  0  0  0  0  0
   36.8100   28.6570   38.4300 N   0  0  0  0  0  0  0  0  0  0  0  0
   38.6540   29.3620   38.8730 H   0  0  0  0  0  0  0  0  0  0  0  0
   35.3410   30.4850   41.4170 H   0  0  0  0  0  0  0  0  0  0  0  0
   34.8420   27.9840   38.0680 H   0  0  0  0  0  0  0  0  0  0  0  0
   37.1560   28.5120   44.6770 H   0  0  0  0  0  0  0  0  0  0  0  0
   37.5600   28.4730   43.6800 C   0  0  0  0  0  0  0  0  0  0  0  0
   37.6320   27.5800   42.7670 O   0  0  0  0  0  0  0  0  0  0  0  0
   38.1690   29.6620   43.2140 N   0  0  0  0  0  0  0  0  0  0  0  0
   38.2040   30.5180   43.8490 H   0  0  0  0  0  0  0  0  0  0  0  0
  1  2  1  0  0  0  0
  2  7  1  6  0  0  0
  2  3  1  0  0  0  0
  2 27  1  0  0  0  0
  3  9  1  0  0  0  0
  3  8  1  0  0  0  0
  4 10  1  0  0  0  0
  4  3  1  0  0  0  0
  5 11  1  0  0  0  0
  5  6  1  0  0  0  0
  5  4  1  0  0  0  0
  6  1  1  0  0  0  0
  6 13  1  0  0  0  0
 12  5  1  0  0  0  0
 14  6  1  0  0  0  0
 15 16  1  0  0  0  0
 16 17  2  0  0  0  0
 16  1  1  0  0  0  0
 17 22  1  0  0  0  0
 18 17  1  0  0  0  0
 19 18  2  0  0  0  0
 20 19  1  0  0  0  0
 20 15  2  0  0  0  0
 21 15  1  0  0  0  0
 23 19  1  0  0  0  0
 25 24  1  0  0  0  0
 26 25  2  0  0  0  0
 27 25  1  0  0  0  0
 27 28  1  0  0  0  0
M  END
>  <minimizedAffinity>
-3.89616108

$$$$

 OpenBabel03252508333D

 28 29  0  0  1  0  0  0  0  0999 V2000
   38.0180   30.9270   40.3900 N   0  0  0  0  0  0  0  0  0  0  0  0
   37.8840   30.6060   39.0360 C   0  0  1  0  0  0  0  0  0  0  0  0
   37.9330   31.7400   38.0650 C   0  0  0  0  0  0  0  0  0  0  0  0
   37.3950   32.9570   38.4890 N   0  0  0  0  0  0  0  0  0  0  0  0
   37.5370   33.2600   39.8580 C   0  0  0  0  0  0  0  0  0  0  0  0
   38.4150   32.2760   40.5990 C   0  0  0  0  0  0  0  0  0  0  0  0
   36.8680   30.1310   38.8720 H   0  0  0  0  0  0  0  0  0  0  0  0
   39.0170   31.9040   37.7820 H   0  0  0  0  0  0  0  0  0  0  0  0
   37.4720   31.3960   37.1140 H   0  0  0  0  0  0  0  0  0  0  0  0
   37.6060   33.7100   37.8280 H   0  0  0  0  0  0  0  0  0  0  0  0
   38.0370   34.2600   39.9620 H   0  0  0  0  0  0  0  0  0  0  0  0
   36.5570   33.3440   40.3810 H   0  0  0  0  0  0  0  0  0  0  0  0
   39.4520   32.3760   40.1610 H   0  0  0  0  0  0  0  0  0  0  0  0
   38.4850   32.6560   41.6050 H   0  0  0  0  0  0  0  0  0  0  0  0
   36.6750   29.0960   41.1380 C   0  0  0  0  0  0  0  0  0  0  0  0
   37.7620   29.9420   41.3730 C   0  0  0  0  0  0  0  0  0  0  0  0
   38.4970   29.7570   42.5360 C   0  0  0  0  0  0  0  0  0  0  0  0
   38.1580   28.7800   43.4100 N   0  0  0  0  0  0  0  0  0  0  0  0
   37.0910   27.9740   43.1460 C   0  0  0  0  0  0  0  0  0  0  0  0
   36.3690   28.1300   42.0380 N   0  0  0  0  0  0  0  0  0  0  0  0
   36.0080   29.1000   40.2990 H   0  0  0  0  0  0  0  0  0  0  0  0
   39.3410   30.3890   42.7350 H   0  0  0  0  0  0  0  0  0  0  0  0
   36.8430   27.1950   43.8710 H   0  0  0  0  0  0  0  0  0  0  0  0
   39.9190   28.0660   37.6130 H   0  0  0  0  0  0  0  0  0  0  0  0
   38.9410   28.3880   37.9240 C   0  0  0  0  0  0  0  0  0  0  0  0
   37.7720   27.8690   37.9190 O   0  0  0  0  0  0  0  0  0  0  0  0
   38.8660   29.6890   38.4760 N   0  0  0  0  0  0  0  0  0  0  0  0
   39.7520   30.2770   38.5570 H   0  0  0  0  0  0  0  0  0  0  0  0
  1  6  1  0  0  0  0
  1 16  1  0  0  0  0
  2  7  1  6  0  0  0
  2  1  1  0  0  0  0
  3  4  1  0  0  0  0
  3  2  1  0  0  0  0
  4  5  1  0  0  0  0
  5 11  1  0  0  0  0
  5 12  1  0  0  0  0
  5  6  1  0  0  0  0
  6 14  1  0  0  0  0
  8  3  1  0  0  0  0
  9  3  1  0  0  0  0
 10  4  1  0  0  0  0
 13  6  1  0  0  0  0
 15 16  2  0  0  0  0
 15 20  1  0  0  0  0
 16 17  1  0  0  0  0
 17 22  1  0  0  0  0
 17 18  2  0  0  0  0
 19 18  1  0  0  0  0
 19 23  1  0  0  0  0
 20 19  2  0  0  0  0
 21 15  1  0  0  0  0
 24 25  1  0  0  0  0
 25 27  1  0  0  0  0
 26 25  2  0  0  0  0
 27 28  1  0  0  0  0
 27  2  1  0  0  0  0
M  END
>  <minimizedAffinity>
-3.86094022

$$$$

 OpenBabel03252508333D

 28 29  0  0  1  0  0  0  0  0999 V2000
   37.8680   28.9060   41.1600 N   0  0  0  0  0  0  0  0  0  0  0  0
   36.5920   28.3380   41.1080 C   0  0  1  0  0  0  0  0  0  0  0  0
   35.4720   29.2300   40.6810 C   0  0  0  0  0  0  0  0  0  0  0  0
   35.5580   30.5740   41.0550 N   0  0  0  0  0  0  0  0  0  0  0  0
   36.8540   31.1260   41.1050 C   0  0  0  0  0  0  0  0  0  0  0  0
   37.9200   30.1970   40.5670 C   0  0  0  0  0  0  0  0  0  0  0  0
   36.3030   27.9920   42.1480 H   0  0  0  0  0  0  0  0  0  0  0  0
   35.3970   29.1740   39.5530 H   0  0  0  0  0  0  0  0  0  0  0  0
   34.5190   28.7700   41.0220 H   0  0  0  0  0  0  0  0  0  0  0  0
   34.8360   31.1360   40.5960 H   0  0  0  0  0  0  0  0  0  0  0  0
   36.8860   32.0430   40.4580 H   0  0  0  0  0  0  0  0  0  0  0  0
   37.1380   31.4560   42.1310 H   0  0  0  0  0  0  0  0  0  0  0  0
   37.6980   30.0540   39.4680 H   0  0  0  0  0  0  0  0  0  0  0  0
   38.8370   30.7610   40.6080 H   0  0  0  0  0  0  0  0  0  0  0  0
   38.6920   27.6820   43.0410 C   0  0  0  0  0  0  0  0  0  0  0  0
   38.9300   28.1910   41.7610 C   0  0  0  0  0  0  0  0  0  0  0  0
   40.1730   27.9620   41.1850 C   0  0  0  0  0  0  0  0  0  0  0  0
   41.1180   27.2630   41.8570 N   0  0  0  0  0  0  0  0  0  0  0  0
   40.8480   26.7830   43.1040 C   0  0  0  0  0  0  0  0  0  0  0  0
   39.6650   26.9890   43.6790 N   0  0  0  0  0  0  0  0  0  0  0  0
   37.7980   27.7660   43.6260 H   0  0  0  0  0  0  0  0  0  0  0  0
   40.3770   28.3350   40.2000 H   0  0  0  0  0  0  0  0  0  0  0  0
   41.6320   26.2230   43.6200 H   0  0  0  0  0  0  0  0  0  0  0  0
   36.3900   25.8020   38.6280 H   0  0  0  0  0  0  0  0  0  0  0  0
   36.7170   26.7900   38.9040 C   0  0  0  0  0  0  0  0  0  0  0  0
   37.3390   27.7360   38.3100 O   0  0  0  0  0  0  0  0  0  0  0  0
   36.4160   27.1930   40.2260 N   0  0  0  0  0  0  0  0  0  0  0  0
   35.8980   26.5240   40.8740 H   0  0  0  0  0  0  0  0  0  0  0  0
  1 16  1  0  0  0  0
  2  1  1  0  0  0  0
  2  7  1  1  0  0  0
  3  9  1  0  0  0  0
  3  4  1  0  0  0  0
  3  2  1  0  0  0  0
  4  5  1  0  0  0  0
  5 12  1  0  0  0  0
  6 14  1  0  0  0  0
  6  5  1  0  0  0  0
  6  1  1  0  0  0  0
  8  3  1  0  0  0  0
 10  4  1  0  0  0  0
 11  5  1  0  0  0  0
 13  6  1  0  0  0  0
 15 21  1  0  0  0  0
 15 20  1  0  0  0  0
 16 15  2  0  0  0  0
 17 16  1  0  0  0  0
 17 18  2  0  0  0  0
 18 19  1  0  0  0  0
 19 23  1  0  0  0  0
 19 20  2  0  0  0  0
 22 17  1  0  0  0  0
 24 25  1  0  0  0  0
 25 27  1  0  0  0  0
 26 25  2  0  0  0  0
 27 28  1  0  0  0  0
 27  2  1  0  0  0  0
M  END
>  <minimizedAffinity>
-3.83442616

$$$$

 OpenBabel03252508333D

 28 29  0  0  1  0  0  0  0  0999 V2000
   38.1680   31.0100   40.8100 N   0  0  0  0  0  0  0  0  0  0  0  0
   39.4380   31.5840   40.7050 C   0  0  1  0  0  0  0  0  0  0  0  0
   39.5180   32.9360   40.0740 C   0  0  0  0  0  0  0  0  0  0  0  0
   38.6070   33.2090   39.0510 N   0  0  0  0  0  0  0  0  0  0  0  0
   37.3340   32.6180   39.1730 C   0  0  0  0  0  0  0  0  0  0  0  0
   37.1240   31.9230   40.5010 C   0  0  0  0  0  0  0  0  0  0  0  0
   40.0860   30.9230   40.0510 H   0  0  0  0  0  0  0  0  0  0  0  0
   39.3840   33.7070   40.8920 H   0  0  0  0  0  0  0  0  0  0  0  0
   40.5670   33.0970   39.7440 H   0  0  0  0  0  0  0  0  0  0  0  0
   38.6310   34.1980   38.7840 H   0  0  0  0  0  0  0  0  0  0  0  0
   36.5500   33.4200   39.1160 H   0  0  0  0  0  0  0  0  0  0  0  0
   37.1130   31.9040   38.3470 H   0  0  0  0  0  0  0  0  0  0  0  0
   37.1580   32.7290   41.2950 H   0  0  0  0  0  0  0  0  0  0  0  0
   36.1040   31.5750   40.4830 H   0  0  0  0  0  0  0  0  0  0  0  0
   37.3580   29.4040   42.3840 C   0  0  0  0  0  0  0  0  0  0  0  0
   38.0410   29.6540   41.1910 C   0  0  0  0  0  0  0  0  0  0  0  0
   38.5370   28.5690   40.4790 C   0  0  0  0  0  0  0  0  0  0  0  0
   38.3570   27.3090   40.9420 N   0  0  0  0  0  0  0  0  0  0  0  0
   37.6860   27.1060   42.1110 C   0  0  0  0  0  0  0  0  0  0  0  0
   37.2000   28.1280   42.8120 N   0  0  0  0  0  0  0  0  0  0  0  0
   36.9150   30.1160   43.0500 H   0  0  0  0  0  0  0  0  0  0  0  0
   39.0580   28.7350   39.5560 H   0  0  0  0  0  0  0  0  0  0  0  0
   37.5580   26.0770   42.4570 H   0  0  0  0  0  0  0  0  0  0  0  0
   41.4210   31.6540   43.6520 H   0  0  0  0  0  0  0  0  0  0  0  0
   41.1170   31.1250   42.7650 C   0  0  0  0  0  0  0  0  0  0  0  0
   41.4070   29.9970   42.2400 O   0  0  0  0  0  0  0  0  0  0  0  0
   40.1730   31.7880   41.9450 N   0  0  0  0  0  0  0  0  0  0  0  0
   39.8170   32.7520   42.2290 H   0  0  0  0  0  0  0  0  0  0  0  0
  1 16  1  0  0  0  0
  2  7  1  6  0  0  0
  2  1  1  0  0  0  0
  2 27  1  0  0  0  0
  3  2  1  0  0  0  0
  3  8  1  0  0  0  0
  4  5  1  0  0  0  0
  4  3  1  0  0  0  0
  5  6  1  0  0  0  0
  6  1  1  0  0  0  0
  6 13  1  0  0  0  0
  9  3  1  0  0  0  0
 10  4  1  0  0  0  0
 11  5  1  0  0  0  0
 12  5  1  0  0  0  0
 14  6  1  0  0  0  0
 15 20  1  0  0  0  0
 15 21  1  0  0  0  0
 16 15  2  0  0  0  0
 17 18  2  0  0  0  0
 17 16  1  0  0  0  0
 18 19  1  0  0  0  0
 19 23  1  0  0  0  0
 19 20  2  0  0  0  0
 22 17  1  0  0  0  0
 25 24  1  0  0  0  0
 26 25  2  0  0  0  0
 27 28  1  0  0  0  0
 27 25  1  0  0  0  0
M  END
>  <minimizedAffinity>
-3.80775762

$$$$
