
 OpenBabel03252509253D

 26 27  0  0  1  0  0  0  0  0999 V2000
   46.6200   35.0730   41.8820 C   0  0  1  0  0  0  0  0  0  0  0  0
   48.1530   35.3220   41.8840 C   0  0  0  0  0  0  0  0  0  0  0  0
   47.4130   34.1060   41.2460 C   0  0  2  0  0  0  0  0  0  0  0  0
   46.0520   35.8540   41.3330 H   0  0  0  0  0  0  0  0  0  0  0  0
   48.4910   36.0970   41.2020 H   0  0  0  0  0  0  0  0  0  0  0  0
   48.7210   35.1610   42.7970 H   0  0  0  0  0  0  0  0  0  0  0  0
   47.6460   33.1540   41.8180 H   0  0  0  0  0  0  0  0  0  0  0  0
   44.7030   35.3080   45.0990 C   0  0  0  0  0  0  0  0  0  0  0  0
   45.1600   35.6390   43.7960 C   0  0  0  0  0  0  0  0  0  0  0  0
   46.1270   34.8360   43.2920 C   0  0  0  0  0  0  0  0  0  0  0  0
   46.6370   33.7710   43.9970 N   0  0  0  0  0  0  0  0  0  0  0  0
   46.1790   33.4850   45.2360 C   0  0  0  0  0  0  0  0  0  0  0  0
   45.2050   34.2600   45.7890 N   0  0  0  0  0  0  0  0  0  0  0  0
   43.9300   35.9130   45.5520 H   0  0  0  0  0  0  0  0  0  0  0  0
   46.6620   32.6270   45.6770 H   0  0  0  0  0  0  0  0  0  0  0  0
   44.6620   36.7530   43.1020 N   0  0  0  0  0  0  0  0  0  0  0  0
   44.7320   37.6600   43.6280 H   0  0  0  0  0  0  0  0  0  0  0  0
   44.2960   36.5200   42.1680 H   0  0  0  0  0  0  0  0  0  0  0  0
   47.4320   33.9620   39.7430 C   0  0  0  0  0  0  0  0  0  0  0  0
   47.9240   34.8530   39.2960 H   0  0  0  0  0  0  0  0  0  0  0  0
   46.3960   33.8370   39.3580 H   0  0  0  0  0  0  0  0  0  0  0  0
   49.5070   31.9070   37.8020 H   0  0  0  0  0  0  0  0  0  0  0  0
   48.9130   32.7520   38.1380 C   0  0  0  0  0  0  0  0  0  0  0  0
   48.8400   33.7820   37.3930 O   0  0  0  0  0  0  0  0  0  0  0  0
   48.2040   32.7870   39.3700 N   0  0  0  0  0  0  0  0  0  0  0  0
   48.2780   31.9180   39.9760 H   0  0  0  0  0  0  0  0  0  0  0  0
  1  4  1  6  0  0  0
  1  2  1  0  0  0  0
  1 10  1  0  0  0  0
  2  6  1  0  0  0  0
  3  7  1  1  0  0  0
  3  1  1  0  0  0  0
  3  2  1  0  0  0  0
  5  2  1  0  0  0  0
  8 14  1  0  0  0  0
  8 13  1  0  0  0  0
  9  8  2  0  0  0  0
 10  9  1  0  0  0  0
 10 11  2  0  0  0  0
 11 12  1  0  0  0  0
 12 15  1  0  0  0  0
 12 13  2  0  0  0  0
 16 17  1  0  0  0  0
 16  9  1  0  0  0  0
 18 16  1  0  0  0  0
 19  3  1  0  0  0  0
 20 19  1  0  0  0  0
 21 19  1  0  0  0  0
 22 23  1  0  0  0  0
 23 25  1  0  0  0  0
 24 23  2  0  0  0  0
 25 19  1  0  0  0  0
 25 26  1  0  0  0  0
M  END
>  <minimizedAffinity>
-4.30249834

>  <minimizedRMSD>
0.556514025

$$$$
