
 OpenBabel03252508243D

 37 40  0  0  1  0  0  0  0  0999 V2000
   46.5270   32.4660   45.9540 C   0  0  1  0  0  0  0  0  0  0  0  0
   46.9840   32.6960   47.3330 C   0  0  0  0  0  0  0  0  0  0  0  0
   45.5870   32.0560   46.9740 C   0  0  2  0  0  0  0  0  0  0  0  0
   47.3360   31.8040   45.4830 H   0  0  0  0  0  0  0  0  0  0  0  0
   47.5630   31.9670   47.9190 H   0  0  0  0  0  0  0  0  0  0  0  0
   46.9640   33.6990   47.7860 H   0  0  0  0  0  0  0  0  0  0  0  0
   44.8660   32.7670   47.4950 H   0  0  0  0  0  0  0  0  0  0  0  0
   45.3000   30.6710   47.3620 C   0  0  0  0  0  0  0  0  0  0  0  0
   45.1450   30.1800   48.6220 C   0  0  0  0  0  0  0  0  0  0  0  0
   44.9990   28.8410   48.9590 C   0  0  0  0  0  0  0  0  0  0  0  0
   45.0140   27.9260   47.8900 C   0  0  0  0  0  0  0  0  0  0  0  0
   45.1700   28.4030   46.5860 C   0  0  0  0  0  0  0  0  0  0  0  0
   45.1170   27.4670   45.5660 C   0  0  0  0  0  0  0  0  0  0  0  0
   45.1990   27.9060   44.2550 C   0  0  0  0  0  0  0  0  0  0  0  0
   45.3260   29.2490   43.9650 C   0  0  0  0  0  0  0  0  0  0  0  0
   45.3730   30.1330   45.0170 C   0  0  0  0  0  0  0  0  0  0  0  0
   45.3050   29.7480   46.3460 C   0  0  0  0  0  0  0  0  0  0  0  0
   45.1390   30.9190   49.4130 H   0  0  0  0  0  0  0  0  0  0  0  0
   44.8790   28.5200   49.9830 H   0  0  0  0  0  0  0  0  0  0  0  0
   44.9050   26.8830   48.1290 H   0  0  0  0  0  0  0  0  0  0  0  0
   45.0140   26.4130   45.8300 H   0  0  0  0  0  0  0  0  0  0  0  0
   45.1500   27.0790   43.5330 H   0  0  0  0  0  0  0  0  0  0  0  0
   45.3690   29.3840   42.9100 H   0  0  0  0  0  0  0  0  0  0  0  0
   45.3850   31.0760   44.5530 H   0  0  0  0  0  0  0  0  0  0  0  0
   44.7890   35.4120   44.5540 C   0  0  0  0  0  0  0  0  0  0  0  0
   45.5340   35.6520   43.3470 C   0  0  0  0  0  0  0  0  0  0  0  0
   46.6360   34.7890   43.0530 C   0  0  0  0  0  0  0  0  0  0  0  0
   46.9320   33.7900   43.9150 N   0  0  0  0  0  0  0  0  0  0  0  0
   46.1790   33.6090   45.0570 C   0  0  0  0  0  0  0  0  0  0  0  0
   45.1490   34.3910   45.3630 N   0  0  0  0  0  0  0  0  0  0  0  0
   43.9750   36.1030   44.7060 H   0  0  0  0  0  0  0  0  0  0  0  0
   45.3320   36.4230   42.6500 H   0  0  0  0  0  0  0  0  0  0  0  0
   47.3230   34.2540   39.7320 H   0  0  0  0  0  0  0  0  0  0  0  0
   46.9510   34.2750   40.7330 C   0  0  0  0  0  0  0  0  0  0  0  0
   45.9580   33.4920   40.9170 O   0  0  0  0  0  0  0  0  0  0  0  0
   47.3770   35.0190   41.8660 N   0  0  0  0  0  0  0  0  0  0  0  0
   48.1900   35.6470   41.6780 H   0  0  0  0  0  0  0  0  0  0  0  0
  1  4  1  6  0  0  0
  1  3  1  0  0  0  0
  1  2  1  0  0  0  0
  2  6  1  0  0  0  0
  2  5  1  0  0  0  0
  3  2  1  0  0  0  0
  3  8  1  0  0  0  0
  3  7  1  1  0  0  0
  8  9  1  0  0  0  0
  9 10  2  0  0  0  0
  9 18  1  0  0  0  0
 10 19  1  0  0  0  0
 11 20  1  0  0  0  0
 11 10  1  0  0  0  0
 12 11  2  0  0  0  0
 13 21  1  0  0  0  0
 13 12  1  0  0  0  0
 14 13  2  0  0  0  0
 15 14  1  0  0  0  0
 15 16  2  0  0  0  0
 16 17  1  0  0  0  0
 17 12  1  0  0  0  0
 17  8  2  0  0  0  0
 22 14  1  0  0  0  0
 23 15  1  0  0  0  0
 24 16  1  0  0  0  0
 25 31  1  0  0  0  0
 25 30  1  0  0  0  0
 26 25  2  0  0  0  0
 27 26  1  0  0  0  0
 27 28  2  0  0  0  0
 28 29  1  0  0  0  0
 29 30  2  0  0  0  0
 29  1  1  0  0  0  0
 32 26  1  0  0  0  0
 33 34  1  0  0  0  0
 34 35  2  0  0  0  0
 34 36  1  0  0  0  0
 36 27  1  0  0  0  0
 37 36  1  0  0  0  0
M  END
>  <minimizedAffinity>
-4.94159222

>  <minimizedRMSD>
0.382392049

$$$$
