
 OpenBabel03252507003D

 33 34  0  0  0  0  0  0  0  0999 V2000
   48.6940   32.5650   42.7850 N   0  0  0  0  0  0  0  0  0  0  0  0
   49.0820   31.2960   43.2710 C   0  0  0  0  0  0  0  0  0  0  0  0
   49.7190   30.6740   42.0210 C   0  0  0  0  0  0  0  0  0  0  0  0
   50.8330   31.4540   41.4480 C   0  0  0  0  0  0  0  0  0  0  0  0
   50.9610   32.8690   41.8680 C   0  0  0  0  0  0  0  0  0  0  0  0
   49.7990   33.4930   42.5750 C   0  0  0  0  0  0  0  0  0  0  0  0
   48.3460   30.6080   43.6530 H   0  0  0  0  0  0  0  0  0  0  0  0
   49.8740   31.3680   44.0140 H   0  0  0  0  0  0  0  0  0  0  0  0
   50.0930   29.6730   42.3290 H   0  0  0  0  0  0  0  0  0  0  0  0
   48.8770   30.4990   41.3140 H   0  0  0  0  0  0  0  0  0  0  0  0
   51.8330   31.0110   41.6330 H   0  0  0  0  0  0  0  0  0  0  0  0
   50.7130   31.4630   40.3420 H   0  0  0  0  0  0  0  0  0  0  0  0
   51.7960   33.4970   41.6920 H   0  0  0  0  0  0  0  0  0  0  0  0
   49.5520   36.8910   42.6770 H   0  0  0  0  0  0  0  0  0  0  0  0
   49.4100   35.9720   42.1260 C   0  0  0  0  0  0  0  0  0  0  0  0
   48.9570   35.8530   40.9640 O   0  0  0  0  0  0  0  0  0  0  0  0
   49.8220   34.8680   42.9270 N   0  0  0  0  0  0  0  0  0  0  0  0
   50.2010   34.8890   43.8810 H   0  0  0  0  0  0  0  0  0  0  0  0
   47.4930   32.9440   42.3050 C   0  0  0  0  0  0  0  0  0  0  0  0
   47.4200   34.0520   42.0940 H   0  0  0  0  0  0  0  0  0  0  0  0
   47.1270   32.4930   41.3350 H   0  0  0  0  0  0  0  0  0  0  0  0
   46.4050   32.6670   43.3120 C   0  0  0  0  0  0  0  0  0  0  0  0
   46.6320   31.9870   44.1130 H   0  0  0  0  0  0  0  0  0  0  0  0
   45.5820   32.1610   42.7380 H   0  0  0  0  0  0  0  0  0  0  0  0
   45.8100   33.9680   43.6840 C   0  0  0  0  0  0  0  0  0  0  0  0
   45.8020   35.0320   42.8080 C   0  0  0  0  0  0  0  0  0  0  0  0
   45.2220   36.2400   43.2120 C   0  0  0  0  0  0  0  0  0  0  0  0
   44.6900   36.2940   44.4650 N   0  0  0  0  0  0  0  0  0  0  0  0
   44.7180   35.2390   45.2830 C   0  0  0  0  0  0  0  0  0  0  0  0
   45.2750   34.1000   44.8780 N   0  0  0  0  0  0  0  0  0  0  0  0
   46.2310   34.9630   41.8180 H   0  0  0  0  0  0  0  0  0  0  0  0
   45.1780   37.1180   42.5850 H   0  0  0  0  0  0  0  0  0  0  0  0
   44.2980   35.2580   46.2940 H   0  0  0  0  0  0  0  0  0  0  0  0
  1  2  1  0  0  0  0
  2  7  1  0  0  0  0
  2  8  1  0  0  0  0
  3  9  1  0  0  0  0
  3  2  1  0  0  0  0
  4 11  1  0  0  0  0
  4  5  1  0  0  0  0
  4  3  1  0  0  0  0
  5  6  2  0  0  0  0
  6  1  1  0  0  0  0
  6 17  1  0  0  0  0
 10  3  1  0  0  0  0
 12  4  1  0  0  0  0
 13  5  1  0  0  0  0
 15 14  1  0  0  0  0
 15 17  1  0  0  0  0
 16 15  2  0  0  0  0
 17 18  1  0  0  0  0
 19  1  1  0  0  0  0
 19 22  1  0  0  0  0
 20 19  1  0  0  0  0
 21 19  1  0  0  0  0
 22 25  1  0  0  0  0
 22 23  1  0  0  0  0
 24 22  1  0  0  0  0
 25 30  1  0  0  0  0
 26 27  1  0  0  0  0
 26 25  2  0  0  0  0
 27 28  2  0  0  0  0
 28 29  1  0  0  0  0
 29 33  1  0  0  0  0
 30 29  2  0  0  0  0
 31 26  1  0  0  0  0
 32 27  1  0  0  0  0
M  END
>  <minimizedAffinity>
-4.59882259

>  <minimizedRMSD>
1.21807599

$$$$
