
 OpenBabel03252509253D

 26 27  0  0  1  0  0  0  0  0999 V2000
   46.5590   35.0480   41.9150 C   0  0  1  0  0  0  0  0  0  0  0  0
   48.0960   35.2780   41.9260 C   0  0  0  0  0  0  0  0  0  0  0  0
   47.3480   34.0480   41.3260 C   0  0  2  0  0  0  0  0  0  0  0  0
   46.0070   35.8140   41.3310 H   0  0  0  0  0  0  0  0  0  0  0  0
   48.4510   36.0230   41.2190 H   0  0  0  0  0  0  0  0  0  0  0  0
   48.6510   35.1460   42.8510 H   0  0  0  0  0  0  0  0  0  0  0  0
   47.5620   33.1160   41.9370 H   0  0  0  0  0  0  0  0  0  0  0  0
   44.6310   35.4490   45.1100 C   0  0  0  0  0  0  0  0  0  0  0  0
   45.1090   35.7250   43.8010 C   0  0  0  0  0  0  0  0  0  0  0  0
   46.0480   34.8710   43.3280 C   0  0  0  0  0  0  0  0  0  0  0  0
   46.5120   33.8070   44.0670 N   0  0  0  0  0  0  0  0  0  0  0  0
   46.0340   33.5760   45.3100 C   0  0  0  0  0  0  0  0  0  0  0  0
   45.0880   34.4030   45.8330 N   0  0  0  0  0  0  0  0  0  0  0  0
   43.8790   36.0970   45.5390 H   0  0  0  0  0  0  0  0  0  0  0  0
   46.4810   32.7120   45.7800 H   0  0  0  0  0  0  0  0  0  0  0  0
   44.6600   36.8370   43.0720 N   0  0  0  0  0  0  0  0  0  0  0  0
   44.7620   37.7550   43.5720 H   0  0  0  0  0  0  0  0  0  0  0  0
   44.2920   36.5910   42.1420 H   0  0  0  0  0  0  0  0  0  0  0  0
   47.3820   33.8460   39.8300 C   0  0  0  0  0  0  0  0  0  0  0  0
   48.3690   34.1760   39.4380 H   0  0  0  0  0  0  0  0  0  0  0  0
   46.5490   34.4060   39.3500 H   0  0  0  0  0  0  0  0  0  0  0  0
   48.3060   30.5740   38.9740 H   0  0  0  0  0  0  0  0  0  0  0  0
   48.3570   31.6320   39.2140 C   0  0  0  0  0  0  0  0  0  0  0  0
   49.4950   32.2020   39.2240 O   0  0  0  0  0  0  0  0  0  0  0  0
   47.2230   32.4340   39.5190 N   0  0  0  0  0  0  0  0  0  0  0  0
   46.2840   31.9390   39.5050 H   0  0  0  0  0  0  0  0  0  0  0  0
  1  4  1  6  0  0  0
  1  2  1  0  0  0  0
  1 10  1  0  0  0  0
  2  6  1  0  0  0  0
  3  1  1  0  0  0  0
  3  2  1  0  0  0  0
  3  7  1  1  0  0  0
  5  2  1  0  0  0  0
  8 14  1  0  0  0  0
  8 13  1  0  0  0  0
  9  8  2  0  0  0  0
 10  9  1  0  0  0  0
 10 11  2  0  0  0  0
 11 12  1  0  0  0  0
 12 15  1  0  0  0  0
 12 13  2  0  0  0  0
 16 17  1  0  0  0  0
 16  9  1  0  0  0  0
 18 16  1  0  0  0  0
 19  3  1  0  0  0  0
 20 19  1  0  0  0  0
 21 19  1  0  0  0  0
 22 23  1  0  0  0  0
 23 24  2  0  0  0  0
 23 25  1  0  0  0  0
 25 19  1  0  0  0  0
 26 25  1  0  0  0  0
M  END
>  <minimizedAffinity>
-4.1871419

>  <minimizedRMSD>
0.839185119

$$$$
