
 OpenBabel03242519553D

 36 37  0  0  1  0  0  0  0  0999 V2000
   38.9820   27.9970   42.7850 C   0  0  2  0  0  0  0  0  0  0  0  0
   37.8330   27.7130   43.6800 C   0  0  0  0  0  0  0  0  0  0  0  0
   36.6430   27.2020   42.9410 C   0  0  0  0  0  0  0  0  0  0  0  0
   36.2040   28.1210   41.8180 C   0  0  0  0  0  0  0  0  0  0  0  0
   37.3510   28.7930   41.0870 C   0  0  2  0  0  0  0  0  0  0  0  0
   38.6220   28.0400   41.3380 C   0  0  0  0  0  0  0  0  0  0  0  0
   39.3560   29.0240   43.0790 H   0  0  0  0  0  0  0  0  0  0  0  0
   38.1480   26.8930   44.3710 H   0  0  0  0  0  0  0  0  0  0  0  0
   37.5480   28.5700   44.2990 H   0  0  0  0  0  0  0  0  0  0  0  0
   36.7740   26.1670   42.6090 H   0  0  0  0  0  0  0  0  0  0  0  0
   35.7810   27.1800   43.6610 H   0  0  0  0  0  0  0  0  0  0  0  0
   35.4500   28.8680   42.1310 H   0  0  0  0  0  0  0  0  0  0  0  0
   35.7030   27.4540   41.0860 H   0  0  0  0  0  0  0  0  0  0  0  0
   37.1850   28.7270   39.9700 H   0  0  0  0  0  0  0  0  0  0  0  0
   39.4390   28.4850   40.7610 H   0  0  0  0  0  0  0  0  0  0  0  0
   38.4410   27.0380   40.8880 H   0  0  0  0  0  0  0  0  0  0  0  0
   40.1200   27.1000   42.9910 C   0  0  0  0  0  0  0  0  0  0  0  0
   39.9030   25.8070   42.5230 C   0  0  0  0  0  0  0  0  0  0  0  0
   40.9120   24.8410   42.6400 C   0  0  0  0  0  0  0  0  0  0  0  0
   42.0880   25.2590   43.2350 N   0  0  0  0  0  0  0  0  0  0  0  0
   42.2650   26.5150   43.6800 C   0  0  0  0  0  0  0  0  0  0  0  0
   41.2830   27.3980   43.5470 N   0  0  0  0  0  0  0  0  0  0  0  0
   39.1180   25.2370   42.0480 H   0  0  0  0  0  0  0  0  0  0  0  0
   40.9940   23.8190   42.3690 H   0  0  0  0  0  0  0  0  0  0  0  0
   43.1910   26.8220   44.1430 H   0  0  0  0  0  0  0  0  0  0  0  0
   37.3630   30.2200   41.4350 C   0  0  0  0  0  0  0  0  0  0  0  0
   37.0810   30.3140   42.5170 H   0  0  0  0  0  0  0  0  0  0  0  0
   38.4310   30.5990   41.4270 H   0  0  0  0  0  0  0  0  0  0  0  0
   36.5820   31.1280   40.5860 C   0  0  0  0  0  0  0  0  0  0  0  0
   36.5910   30.7080   39.5470 H   0  0  0  0  0  0  0  0  0  0  0  0
   35.5070   31.0460   40.8970 H   0  0  0  0  0  0  0  0  0  0  0  0
   37.5510   33.6210   38.5070 H   0  0  0  0  0  0  0  0  0  0  0  0
   37.2410   32.8060   39.1460 C   0  0  0  0  0  0  0  0  0  0  0  0
   37.2750   32.2120   38.0260 O   0  0  0  0  0  0  0  0  0  0  0  0
   36.9370   32.4990   40.5320 N   0  0  0  0  0  0  0  0  0  0  0  0
   37.1290   33.4940   40.8630 H   0  0  0  0  0  0  0  0  0  0  0  0
  1 17  1  0  0  0  0
  1  7  1  1  0  0  0
  1  2  1  0  0  0  0
  2  9  1  0  0  0  0
  2  8  1  0  0  0  0
  3 11  1  0  0  0  0
  3  2  1  0  0  0  0
  4 12  1  0  0  0  0
  4  3  1  0  0  0  0
  5 14  1  6  0  0  0
  5  6  1  0  0  0  0
  5 26  1  0  0  0  0
  5  4  1  0  0  0  0
  6  1  1  0  0  0  0
 10  3  1  0  0  0  0
 13  4  1  0  0  0  0
 15  6  1  0  0  0  0
 16  6  1  0  0  0  0
 17 22  1  0  0  0  0
 18 19  1  0  0  0  0
 18 17  2  0  0  0  0
 19 20  2  0  0  0  0
 20 21  1  0  0  0  0
 21 25  1  0  0  0  0
 22 21  2  0  0  0  0
 23 18  1  0  0  0  0
 24 19  1  0  0  0  0
 26 27  1  0  0  0  0
 28 26  1  0  0  0  0
 29 31  1  0  0  0  0
 29 26  1  0  0  0  0
 30 29  1  0  0  0  0
 32 33  1  0  0  0  0
 33 35  1  0  0  0  0
 34 33  2  0  0  0  0
 35 29  1  0  0  0  0
 35 36  1  0  0  0  0
M  END
>  <minimizedAffinity>
-4.87755585

$$$$

 OpenBabel03242519553D

 36 37  0  0  1  0  0  0  0  0999 V2000
   37.1350   30.2890   41.0330 C   0  0  2  0  0  0  0  0  0  0  0  0
   35.9630   29.9300   40.1990 C   0  0  0  0  0  0  0  0  0  0  0  0
   36.2950   29.8410   38.7480 C   0  0  0  0  0  0  0  0  0  0  0  0
   36.9400   31.1030   38.2110 C   0  0  0  0  0  0  0  0  0  0  0  0
   37.8810   31.7800   39.1890 C   0  0  2  0  0  0  0  0  0  0  0  0
   38.2960   30.8060   40.2500 C   0  0  0  0  0  0  0  0  0  0  0  0
   36.7850   31.1180   41.7200 H   0  0  0  0  0  0  0  0  0  0  0  0
   35.6380   28.9060   40.5090 H   0  0  0  0  0  0  0  0  0  0  0  0
   35.1090   30.6010   40.3460 H   0  0  0  0  0  0  0  0  0  0  0  0
   36.8710   28.9410   38.5100 H   0  0  0  0  0  0  0  0  0  0  0  0
   35.3290   29.7380   38.1850 H   0  0  0  0  0  0  0  0  0  0  0  0
   36.2130   31.8290   37.8030 H   0  0  0  0  0  0  0  0  0  0  0  0
   37.5590   30.7620   37.3550 H   0  0  0  0  0  0  0  0  0  0  0  0
   38.8400   32.0690   38.6640 H   0  0  0  0  0  0  0  0  0  0  0  0
   39.0230   31.2730   40.9220 H   0  0  0  0  0  0  0  0  0  0  0  0
   38.8530   30.0190   39.6960 H   0  0  0  0  0  0  0  0  0  0  0  0
   37.5730   29.2120   41.9220 C   0  0  0  0  0  0  0  0  0  0  0  0
   36.6100   28.2260   42.1200 C   0  0  0  0  0  0  0  0  0  0  0  0
   36.8940   27.1240   42.9390 C   0  0  0  0  0  0  0  0  0  0  0  0
   38.1520   27.0990   43.5110 N   0  0  0  0  0  0  0  0  0  0  0  0
   39.0600   28.0690   43.3000 C   0  0  0  0  0  0  0  0  0  0  0  0
   38.7490   29.0940   42.5170 N   0  0  0  0  0  0  0  0  0  0  0  0
   35.5950   28.0110   41.8190 H   0  0  0  0  0  0  0  0  0  0  0  0
   36.3490   26.2650   43.2390 H   0  0  0  0  0  0  0  0  0  0  0  0
   40.0380   28.0310   43.7570 H   0  0  0  0  0  0  0  0  0  0  0  0
   37.2580   33.0250   39.6600 C   0  0  0  0  0  0  0  0  0  0  0  0
   36.4410   33.2960   38.9390 H   0  0  0  0  0  0  0  0  0  0  0  0
   36.6820   32.8190   40.6140 H   0  0  0  0  0  0  0  0  0  0  0  0
   38.1450   34.1610   39.9340 C   0  0  0  0  0  0  0  0  0  0  0  0
   38.7960   34.3060   39.0330 H   0  0  0  0  0  0  0  0  0  0  0  0
   37.5140   35.0890   39.9580 H   0  0  0  0  0  0  0  0  0  0  0  0
   41.3550   34.1280   41.0160 H   0  0  0  0  0  0  0  0  0  0  0  0
   40.3410   34.1380   40.6410 C   0  0  0  0  0  0  0  0  0  0  0  0
   40.9850   34.1560   39.5480 O   0  0  0  0  0  0  0  0  0  0  0  0
   38.9620   34.1370   41.0920 N   0  0  0  0  0  0  0  0  0  0  0  0
   39.2300   34.1210   42.1250 H   0  0  0  0  0  0  0  0  0  0  0  0
  1  7  1  1  0  0  0
  1 17  1  0  0  0  0
  2  9  1  0  0  0  0
  2  8  1  0  0  0  0
  2  1  1  0  0  0  0
  3  2  1  0  0  0  0
  4  3  1  0  0  0  0
  4  5  1  0  0  0  0
  5 14  1  6  0  0  0
  5 26  1  0  0  0  0
  5  6  1  0  0  0  0
  6 15  1  0  0  0  0
  6  1  1  0  0  0  0
 10  3  1  0  0  0  0
 11  3  1  0  0  0  0
 12  4  1  0  0  0  0
 13  4  1  0  0  0  0
 16  6  1  0  0  0  0
 17 18  2  0  0  0  0
 17 22  1  0  0  0  0
 18 19  1  0  0  0  0
 19 24  1  0  0  0  0
 19 20  2  0  0  0  0
 21 20  1  0  0  0  0
 21 25  1  0  0  0  0
 22 21  2  0  0  0  0
 23 18  1  0  0  0  0
 26 29  1  0  0  0  0
 26 28  1  0  0  0  0
 27 26  1  0  0  0  0
 29 31  1  0  0  0  0
 29 35  1  0  0  0  0
 30 29  1  0  0  0  0
 33 32  1  0  0  0  0
 33 35  1  0  0  0  0
 34 33  2  0  0  0  0
 35 36  1  0  0  0  0
M  END
>  <minimizedAffinity>
-4.80783367

$$$$

 OpenBabel03242519553D

 36 37  0  0  1  0  0  0  0  0999 V2000
   36.9860   29.6620   40.4340 C   0  0  2  0  0  0  0  0  0  0  0  0
   35.5230   29.7240   40.1950 C   0  0  0  0  0  0  0  0  0  0  0  0
   35.1180   29.0500   38.9290 C   0  0  0  0  0  0  0  0  0  0  0  0
   35.8600   29.5740   37.7150 C   0  0  0  0  0  0  0  0  0  0  0  0
   37.3100   29.9300   37.9840 C   0  0  2  0  0  0  0  0  0  0  0  0
   37.7740   29.2490   39.2360 C   0  0  0  0  0  0  0  0  0  0  0  0
   37.3000   30.7130   40.7100 H   0  0  0  0  0  0  0  0  0  0  0  0
   35.0290   29.1590   41.0230 H   0  0  0  0  0  0  0  0  0  0  0  0
   35.1280   30.7460   40.2160 H   0  0  0  0  0  0  0  0  0  0  0  0
   35.1630   27.9580   39.0090 H   0  0  0  0  0  0  0  0  0  0  0  0
   34.0380   29.2940   38.7450 H   0  0  0  0  0  0  0  0  0  0  0  0
   35.3400   30.4100   37.2110 H   0  0  0  0  0  0  0  0  0  0  0  0
   35.8650   28.7270   36.9980 H   0  0  0  0  0  0  0  0  0  0  0  0
   37.9660   29.5140   37.1620 H   0  0  0  0  0  0  0  0  0  0  0  0
   38.8380   29.4530   39.3990 H   0  0  0  0  0  0  0  0  0  0  0  0
   37.7040   28.1640   39.0010 H   0  0  0  0  0  0  0  0  0  0  0  0
   37.3560   28.8350   41.5840 C   0  0  0  0  0  0  0  0  0  0  0  0
   38.7230   28.8290   41.8500 C   0  0  0  0  0  0  0  0  0  0  0  0
   39.2230   28.0910   42.9320 C   0  0  0  0  0  0  0  0  0  0  0  0
   38.2880   27.3980   43.6790 N   0  0  0  0  0  0  0  0  0  0  0  0
   36.9740   27.4230   43.3940 C   0  0  0  0  0  0  0  0  0  0  0  0
   36.5450   28.1360   42.3610 N   0  0  0  0  0  0  0  0  0  0  0  0
   39.6300   29.2520   41.4440 H   0  0  0  0  0  0  0  0  0  0  0  0
   40.1900   27.9290   43.3330 H   0  0  0  0  0  0  0  0  0  0  0  0
   36.2600   26.8740   43.9900 H   0  0  0  0  0  0  0  0  0  0  0  0
   37.4530   31.3910   37.9490 C   0  0  0  0  0  0  0  0  0  0  0  0
   36.9320   31.7670   37.0290 H   0  0  0  0  0  0  0  0  0  0  0  0
   36.8360   31.8490   38.7830 H   0  0  0  0  0  0  0  0  0  0  0  0
   38.8080   31.9390   38.0730 C   0  0  0  0  0  0  0  0  0  0  0  0
   38.7380   32.8800   38.6800 H   0  0  0  0  0  0  0  0  0  0  0  0
   39.3990   31.2440   38.7270 H   0  0  0  0  0  0  0  0  0  0  0  0
   41.9490   32.2790   36.8510 H   0  0  0  0  0  0  0  0  0  0  0  0
   40.9590   32.1650   37.2690 C   0  0  0  0  0  0  0  0  0  0  0  0
   41.6650   31.9660   38.3040 O   0  0  0  0  0  0  0  0  0  0  0  0
   39.5560   32.2060   36.8990 N   0  0  0  0  0  0  0  0  0  0  0  0
   39.7650   32.4220   35.8760 H   0  0  0  0  0  0  0  0  0  0  0  0
  1  7  1  1  0  0  0
  1 17  1  0  0  0  0
  2  9  1  0  0  0  0
  2  1  1  0  0  0  0
  2  8  1  0  0  0  0
  3 10  1  0  0  0  0
  3  2  1  0  0  0  0
  4  5  1  0  0  0  0
  4  3  1  0  0  0  0
  5 14  1  6  0  0  0
  5  6  1  0  0  0  0
  6 15  1  0  0  0  0
  6  1  1  0  0  0  0
 11  3  1  0  0  0  0
 12  4  1  0  0  0  0
 13  4  1  0  0  0  0
 16  6  1  0  0  0  0
 17 18  2  0  0  0  0
 17 22  1  0  0  0  0
 18 19  1  0  0  0  0
 19 24  1  0  0  0  0
 19 20  2  0  0  0  0
 21 20  1  0  0  0  0
 21 25  1  0  0  0  0
 22 21  2  0  0  0  0
 23 18  1  0  0  0  0
 26  5  1  0  0  0  0
 26 29  1  0  0  0  0
 26 28  1  0  0  0  0
 27 26  1  0  0  0  0
 29 30  1  0  0  0  0
 29 31  1  0  0  0  0
 32 33  1  0  0  0  0
 33 34  2  0  0  0  0
 35 33  1  0  0  0  0
 35 29  1  0  0  0  0
 36 35  1  0  0  0  0
M  END
>  <minimizedAffinity>
-4.73453474

$$$$

 OpenBabel03242519553D

 36 37  0  0  1  0  0  0  0  0999 V2000
   38.1130   26.8220   41.3160 C   0  0  2  0  0  0  0  0  0  0  0  0
   39.1840   27.0270   42.3220 C   0  0  0  0  0  0  0  0  0  0  0  0
   38.6480   27.3750   43.6690 C   0  0  0  0  0  0  0  0  0  0  0  0
   37.7270   28.5790   43.6470 C   0  0  0  0  0  0  0  0  0  0  0  0
   36.8520   28.6640   42.4110 C   0  0  2  0  0  0  0  0  0  0  0  0
   36.7750   27.3200   41.7510 C   0  0  0  0  0  0  0  0  0  0  0  0
   38.4240   27.4180   40.4060 H   0  0  0  0  0  0  0  0  0  0  0  0
   39.7180   26.0520   42.4390 H   0  0  0  0  0  0  0  0  0  0  0  0
   39.9270   27.7700   42.0130 H   0  0  0  0  0  0  0  0  0  0  0  0
   38.1990   26.5120   44.1710 H   0  0  0  0  0  0  0  0  0  0  0  0
   39.5180   27.6780   44.3110 H   0  0  0  0  0  0  0  0  0  0  0  0
   38.2520   29.5370   43.8200 H   0  0  0  0  0  0  0  0  0  0  0  0
   37.0470   28.4310   44.5120 H   0  0  0  0  0  0  0  0  0  0  0  0
   35.7880   28.9070   42.7080 H   0  0  0  0  0  0  0  0  0  0  0  0
   36.0940   27.3640   40.8950 H   0  0  0  0  0  0  0  0  0  0  0  0
   36.2760   26.6730   42.5060 H   0  0  0  0  0  0  0  0  0  0  0  0
   38.0030   25.4380   40.8520 C   0  0  0  0  0  0  0  0  0  0  0  0
   36.6900   24.9990   40.7120 C   0  0  0  0  0  0  0  0  0  0  0  0
   36.4310   23.6970   40.2610 C   0  0  0  0  0  0  0  0  0  0  0  0
   37.5390   22.9180   39.9820 N   0  0  0  0  0  0  0  0  0  0  0  0
   38.7960   23.3720   40.1300 C   0  0  0  0  0  0  0  0  0  0  0  0
   38.9950   24.6130   40.5580 N   0  0  0  0  0  0  0  0  0  0  0  0
   35.6880   25.3760   40.8590 H   0  0  0  0  0  0  0  0  0  0  0  0
   35.5480   23.1400   40.0740 H   0  0  0  0  0  0  0  0  0  0  0  0
   39.6480   22.7480   39.9070 H   0  0  0  0  0  0  0  0  0  0  0  0
   37.3270   29.7720   41.5710 C   0  0  0  0  0  0  0  0  0  0  0  0
   38.1160   30.3260   42.1450 H   0  0  0  0  0  0  0  0  0  0  0  0
   37.9100   29.3550   40.6930 H   0  0  0  0  0  0  0  0  0  0  0  0
   36.3150   30.6790   41.0170 C   0  0  0  0  0  0  0  0  0  0  0  0
   35.8940   30.1940   40.0990 H   0  0  0  0  0  0  0  0  0  0  0  0
   35.4480   30.7000   41.7290 H   0  0  0  0  0  0  0  0  0  0  0  0
   37.3700   32.7140   38.5220 H   0  0  0  0  0  0  0  0  0  0  0  0
   37.0340   32.0410   39.2980 C   0  0  0  0  0  0  0  0  0  0  0  0
   37.1020   31.2380   38.3180 O   0  0  0  0  0  0  0  0  0  0  0  0
   36.6790   32.0130   40.7050 N   0  0  0  0  0  0  0  0  0  0  0  0
   36.8660   33.0550   40.8410 H   0  0  0  0  0  0  0  0  0  0  0  0
  1  7  1  6  0  0  0
  1  6  1  0  0  0  0
  1  2  1  0  0  0  0
  2  8  1  0  0  0  0
  2  3  1  0  0  0  0
  3 10  1  0  0  0  0
  3 11  1  0  0  0  0
  4  3  1  0  0  0  0
  4 12  1  0  0  0  0
  4 13  1  0  0  0  0
  5 14  1  1  0  0  0
  5  4  1  0  0  0  0
  6  5  1  0  0  0  0
  6 16  1  0  0  0  0
  9  2  1  0  0  0  0
 15  6  1  0  0  0  0
 17  1  1  0  0  0  0
 18 17  1  0  0  0  0
 18 23  1  0  0  0  0
 19 18  2  0  0  0  0
 20 21  2  0  0  0  0
 20 19  1  0  0  0  0
 21 22  1  0  0  0  0
 22 17  2  0  0  0  0
 24 19  1  0  0  0  0
 25 21  1  0  0  0  0
 26 27  1  0  0  0  0
 26  5  1  0  0  0  0
 28 26  1  0  0  0  0
 29 26  1  0  0  0  0
 29 31  1  0  0  0  0
 30 29  1  0  0  0  0
 32 33  1  0  0  0  0
 33 35  1  0  0  0  0
 34 33  2  0  0  0  0
 35 36  1  0  0  0  0
 35 29  1  0  0  0  0
M  END
>  <minimizedAffinity>
-4.67494059

$$$$

 OpenBabel03242519553D

 36 37  0  0  1  0  0  0  0  0999 V2000
   37.3740   27.6690   40.7660 C   0  0  2  0  0  0  0  0  0  0  0  0
   38.7940   28.0680   40.6100 C   0  0  0  0  0  0  0  0  0  0  0  0
   39.3460   28.7170   41.8330 C   0  0  0  0  0  0  0  0  0  0  0  0
   38.5270   29.9050   42.2940 C   0  0  0  0  0  0  0  0  0  0  0  0
   37.0320   29.7350   42.1060 C   0  0  2  0  0  0  0  0  0  0  0  0
   36.7040   28.2800   41.9520 C   0  0  0  0  0  0  0  0  0  0  0  0
   36.8430   28.0420   39.8390 H   0  0  0  0  0  0  0  0  0  0  0  0
   39.3850   27.1320   40.4570 H   0  0  0  0  0  0  0  0  0  0  0  0
   38.9670   28.7080   39.7380 H   0  0  0  0  0  0  0  0  0  0  0  0
   39.5300   27.9960   42.6370 H   0  0  0  0  0  0  0  0  0  0  0  0
   40.3540   29.1350   41.5680 H   0  0  0  0  0  0  0  0  0  0  0  0
   38.8670   30.8660   41.8640 H   0  0  0  0  0  0  0  0  0  0  0  0
   38.7080   29.9670   43.3870 H   0  0  0  0  0  0  0  0  0  0  0  0
   36.4870   30.0610   43.0420 H   0  0  0  0  0  0  0  0  0  0  0  0
   35.6190   28.1480   41.8790 H   0  0  0  0  0  0  0  0  0  0  0  0
   37.0020   27.8270   42.9230 H   0  0  0  0  0  0  0  0  0  0  0  0
   37.1700   26.2200   40.7700 C   0  0  0  0  0  0  0  0  0  0  0  0
   36.5170   25.7460   39.6350 C   0  0  0  0  0  0  0  0  0  0  0  0
   36.2650   24.3730   39.4940 C   0  0  0  0  0  0  0  0  0  0  0  0
   36.6960   23.5660   40.5300 N   0  0  0  0  0  0  0  0  0  0  0  0
   37.3230   24.0560   41.6140 C   0  0  0  0  0  0  0  0  0  0  0  0
   37.5420   25.3620   41.7060 N   0  0  0  0  0  0  0  0  0  0  0  0
   36.0860   26.1350   38.7250 H   0  0  0  0  0  0  0  0  0  0  0  0
   35.8010   23.7790   38.7480 H   0  0  0  0  0  0  0  0  0  0  0  0
   37.6520   23.4090   42.4130 H   0  0  0  0  0  0  0  0  0  0  0  0
   36.5870   30.6190   41.0210 C   0  0  0  0  0  0  0  0  0  0  0  0
   36.2760   29.9750   40.1560 H   0  0  0  0  0  0  0  0  0  0  0  0
   35.6130   31.1160   41.3170 H   0  0  0  0  0  0  0  0  0  0  0  0
   37.5010   31.6890   40.6050 C   0  0  0  0  0  0  0  0  0  0  0  0
   38.2850   31.7910   41.4010 H   0  0  0  0  0  0  0  0  0  0  0  0
   38.0750   31.3200   39.7130 H   0  0  0  0  0  0  0  0  0  0  0  0
   38.3370   34.8390   39.6820 H   0  0  0  0  0  0  0  0  0  0  0  0
   38.1010   33.8270   39.9760 C   0  0  0  0  0  0  0  0  0  0  0  0
   39.3630   33.7440   39.8790 O   0  0  0  0  0  0  0  0  0  0  0  0
   36.9760   32.9720   40.3100 N   0  0  0  0  0  0  0  0  0  0  0  0
   36.2590   33.7470   40.1650 H   0  0  0  0  0  0  0  0  0  0  0  0
  1  7  1  6  0  0  0
  1 17  1  0  0  0  0
  1  6  1  0  0  0  0
  2  1  1  0  0  0  0
  2  3  1  0  0  0  0
  3  4  1  0  0  0  0
  3 10  1  0  0  0  0
  4 13  1  0  0  0  0
  5  4  1  0  0  0  0
  5 14  1  1  0  0  0
  6  5  1  0  0  0  0
  6 16  1  0  0  0  0
  8  2  1  0  0  0  0
  9  2  1  0  0  0  0
 11  3  1  0  0  0  0
 12  4  1  0  0  0  0
 15  6  1  0  0  0  0
 17 22  1  0  0  0  0
 18 17  2  0  0  0  0
 19 18  1  0  0  0  0
 19 20  2  0  0  0  0
 20 21  1  0  0  0  0
 21 22  2  0  0  0  0
 21 25  1  0  0  0  0
 23 18  1  0  0  0  0
 24 19  1  0  0  0  0
 26 28  1  0  0  0  0
 26  5  1  0  0  0  0
 27 26  1  0  0  0  0
 29 26  1  0  0  0  0
 29 30  1  0  0  0  0
 31 29  1  0  0  0  0
 32 33  1  0  0  0  0
 33 35  1  0  0  0  0
 34 33  2  0  0  0  0
 35 29  1  0  0  0  0
 36 35  1  0  0  0  0
M  END
>  <minimizedAffinity>
-4.592278

$$$$

 OpenBabel03242519553D

 36 37  0  0  1  0  0  0  0  0999 V2000
   37.3320   30.1790   41.3060 C   0  0  2  0  0  0  0  0  0  0  0  0
   36.0580   29.7480   40.6800 C   0  0  0  0  0  0  0  0  0  0  0  0
   36.1660   29.6000   39.2010 C   0  0  0  0  0  0  0  0  0  0  0  0
   36.6760   30.8520   38.5160 C   0  0  0  0  0  0  0  0  0  0  0  0
   37.7310   31.6010   39.3070 C   0  0  2  0  0  0  0  0  0  0  0  0
   38.3390   30.6900   40.3300 C   0  0  0  0  0  0  0  0  0  0  0  0
   37.0630   31.0290   42.0030 H   0  0  0  0  0  0  0  0  0  0  0  0
   35.8210   28.7310   41.0810 H   0  0  0  0  0  0  0  0  0  0  0  0
   35.2150   30.4010   40.9300 H   0  0  0  0  0  0  0  0  0  0  0  0
   36.7290   28.7050   38.9140 H   0  0  0  0  0  0  0  0  0  0  0  0
   35.1280   29.4440   38.8000 H   0  0  0  0  0  0  0  0  0  0  0  0
   35.8690   31.5380   38.1960 H   0  0  0  0  0  0  0  0  0  0  0  0
   37.1670   30.4890   37.5900 H   0  0  0  0  0  0  0  0  0  0  0  0
   38.5870   31.8920   38.6270 H   0  0  0  0  0  0  0  0  0  0  0  0
   39.1450   31.2090   40.8600 H   0  0  0  0  0  0  0  0  0  0  0  0
   38.8310   29.8930   39.7300 H   0  0  0  0  0  0  0  0  0  0  0  0
   37.9390   29.1580   42.1610 C   0  0  0  0  0  0  0  0  0  0  0  0
   39.3310   29.1650   42.1360 C   0  0  0  0  0  0  0  0  0  0  0  0
   40.0510   28.2490   42.9180 C   0  0  0  0  0  0  0  0  0  0  0  0
   39.2970   27.3760   43.6800 N   0  0  0  0  0  0  0  0  0  0  0  0
   37.9520   27.3940   43.6800 C   0  0  0  0  0  0  0  0  0  0  0  0
   37.3120   28.2780   42.9250 N   0  0  0  0  0  0  0  0  0  0  0  0
   40.1310   29.7040   41.6510 H   0  0  0  0  0  0  0  0  0  0  0  0
   41.0820   28.0580   43.0720 H   0  0  0  0  0  0  0  0  0  0  0  0
   37.3810   26.7030   44.2810 H   0  0  0  0  0  0  0  0  0  0  0  0
   37.1450   32.8490   39.8150 C   0  0  0  0  0  0  0  0  0  0  0  0
   36.2340   33.0780   39.2010 H   0  0  0  0  0  0  0  0  0  0  0  0
   36.7070   32.6660   40.8440 H   0  0  0  0  0  0  0  0  0  0  0  0
   38.0320   34.0120   39.9320 C   0  0  0  0  0  0  0  0  0  0  0  0
   38.6960   34.0220   39.0290 H   0  0  0  0  0  0  0  0  0  0  0  0
   37.4040   34.9340   39.8120 H   0  0  0  0  0  0  0  0  0  0  0  0
   41.2280   34.1190   41.0510 H   0  0  0  0  0  0  0  0  0  0  0  0
   40.2200   34.0800   40.6660 C   0  0  0  0  0  0  0  0  0  0  0  0
   40.8770   33.9280   39.5910 O   0  0  0  0  0  0  0  0  0  0  0  0
   38.8340   34.1560   41.0920 N   0  0  0  0  0  0  0  0  0  0  0  0
   39.0890   34.2940   42.1190 H   0  0  0  0  0  0  0  0  0  0  0  0
  1  7  1  1  0  0  0
  1 17  1  0  0  0  0
  2  9  1  0  0  0  0
  2  8  1  0  0  0  0
  2  1  1  0  0  0  0
  3  2  1  0  0  0  0
  4  3  1  0  0  0  0
  4  5  1  0  0  0  0
  5 14  1  6  0  0  0
  5 26  1  0  0  0  0
  5  6  1  0  0  0  0
  6 15  1  0  0  0  0
  6  1  1  0  0  0  0
 10  3  1  0  0  0  0
 11  3  1  0  0  0  0
 12  4  1  0  0  0  0
 13  4  1  0  0  0  0
 16  6  1  0  0  0  0
 17 22  1  0  0  0  0
 18 17  2  0  0  0  0
 18 19  1  0  0  0  0
 19 24  1  0  0  0  0
 19 20  2  0  0  0  0
 21 20  1  0  0  0  0
 21 25  1  0  0  0  0
 22 21  2  0  0  0  0
 23 18  1  0  0  0  0
 26 29  1  0  0  0  0
 26 28  1  0  0  0  0
 27 26  1  0  0  0  0
 29 35  1  0  0  0  0
 30 29  1  0  0  0  0
 31 29  1  0  0  0  0
 33 32  1  0  0  0  0
 33 35  1  0  0  0  0
 34 33  2  0  0  0  0
 35 36  1  0  0  0  0
M  END
>  <minimizedAffinity>
-4.58338165

$$$$

 OpenBabel03242519553D

 36 37  0  0  1  0  0  0  0  0999 V2000
   38.1740   29.0620   41.0000 C   0  0  2  0  0  0  0  0  0  0  0  0
   37.2410   27.9100   40.9420 C   0  0  0  0  0  0  0  0  0  0  0  0
   36.4270   27.7670   42.1830 C   0  0  0  0  0  0  0  0  0  0  0  0
   37.2710   27.6810   43.4380 C   0  0  0  0  0  0  0  0  0  0  0  0
   38.5090   28.5570   43.4110 C   0  0  2  0  0  0  0  0  0  0  0  0
   38.3510   29.6250   42.3710 C   0  0  0  0  0  0  0  0  0  0  0  0
   39.1770   28.6660   40.6560 H   0  0  0  0  0  0  0  0  0  0  0  0
   36.5180   28.1130   40.1140 H   0  0  0  0  0  0  0  0  0  0  0  0
   37.7410   26.9630   40.7130 H   0  0  0  0  0  0  0  0  0  0  0  0
   35.6440   28.5300   42.2550 H   0  0  0  0  0  0  0  0  0  0  0  0
   35.8850   26.7860   42.1210 H   0  0  0  0  0  0  0  0  0  0  0  0
   37.5330   26.6440   43.7210 H   0  0  0  0  0  0  0  0  0  0  0  0
   36.6190   28.0730   44.2460 H   0  0  0  0  0  0  0  0  0  0  0  0
   38.6090   29.1140   44.3910 H   0  0  0  0  0  0  0  0  0  0  0  0
   39.2150   30.2970   42.3910 H   0  0  0  0  0  0  0  0  0  0  0  0
   37.4870   30.2280   42.7260 H   0  0  0  0  0  0  0  0  0  0  0  0
   37.8410   30.1330   40.0590 C   0  0  0  0  0  0  0  0  0  0  0  0
   37.5640   31.3500   40.6760 C   0  0  0  0  0  0  0  0  0  0  0  0
   37.2420   32.4720   39.8980 C   0  0  0  0  0  0  0  0  0  0  0  0
   37.2200   32.2770   38.5300 N   0  0  0  0  0  0  0  0  0  0  0  0
   37.4910   31.0870   37.9660 C   0  0  0  0  0  0  0  0  0  0  0  0
   37.7920   30.0520   38.7400 N   0  0  0  0  0  0  0  0  0  0  0  0
   37.5040   31.7590   41.6730 H   0  0  0  0  0  0  0  0  0  0  0  0
   37.0000   33.4800   40.1180 H   0  0  0  0  0  0  0  0  0  0  0  0
   37.4670   30.9550   36.8940 H   0  0  0  0  0  0  0  0  0  0  0  0
   39.6940   27.6980   43.2830 C   0  0  0  0  0  0  0  0  0  0  0  0
   40.0840   27.8010   42.2360 H   0  0  0  0  0  0  0  0  0  0  0  0
   40.5390   28.1300   43.9020 H   0  0  0  0  0  0  0  0  0  0  0  0
   39.5530   26.2920   43.6790 C   0  0  0  0  0  0  0  0  0  0  0  0
   39.8990   26.2050   44.7420 H   0  0  0  0  0  0  0  0  0  0  0  0
   38.4560   26.0620   43.7360 H   0  0  0  0  0  0  0  0  0  0  0  0
   38.9920   23.6150   41.6810 H   0  0  0  0  0  0  0  0  0  0  0  0
   39.1400   24.4720   42.3220 C   0  0  0  0  0  0  0  0  0  0  0  0
   37.8730   24.4130   42.3150 O   0  0  0  0  0  0  0  0  0  0  0  0
   40.1890   25.2890   42.9050 N   0  0  0  0  0  0  0  0  0  0  0  0
   40.9720   24.7250   42.4510 H   0  0  0  0  0  0  0  0  0  0  0  0
  1  7  1  6  0  0  0
  1  6  1  0  0  0  0
  2  1  1  0  0  0  0
  2  3  1  0  0  0  0
  3 10  1  0  0  0  0
  3  4  1  0  0  0  0
  4 12  1  0  0  0  0
  4 13  1  0  0  0  0
  5  4  1  0  0  0  0
  5 14  1  1  0  0  0
  6 15  1  0  0  0  0
  6 16  1  0  0  0  0
  6  5  1  0  0  0  0
  8  2  1  0  0  0  0
  9  2  1  0  0  0  0
 11  3  1  0  0  0  0
 17 18  1  0  0  0  0
 17  1  1  0  0  0  0
 18 23  1  0  0  0  0
 19 24  1  0  0  0  0
 19 18  2  0  0  0  0
 20 19  1  0  0  0  0
 21 20  2  0  0  0  0
 21 22  1  0  0  0  0
 22 17  2  0  0  0  0
 25 21  1  0  0  0  0
 26  5  1  0  0  0  0
 26 29  1  0  0  0  0
 26 28  1  0  0  0  0
 27 26  1  0  0  0  0
 29 31  1  0  0  0  0
 29 30  1  0  0  0  0
 32 33  1  0  0  0  0
 33 35  1  0  0  0  0
 34 33  2  0  0  0  0
 35 29  1  0  0  0  0
 36 35  1  0  0  0  0
M  END
>  <minimizedAffinity>
-4.50364876

$$$$

 OpenBabel03242519553D

 36 37  0  0  1  0  0  0  0  0999 V2000
   37.1300   28.0230   40.7610 C   0  0  2  0  0  0  0  0  0  0  0  0
   37.1680   26.8450   41.6620 C   0  0  0  0  0  0  0  0  0  0  0  0
   36.6630   27.1520   43.0310 C   0  0  0  0  0  0  0  0  0  0  0  0
   37.3820   28.3180   43.6790 C   0  0  0  0  0  0  0  0  0  0  0  0
   37.7530   29.4280   42.7140 C   0  0  2  0  0  0  0  0  0  0  0  0
   36.9220   29.3190   41.4720 C   0  0  0  0  0  0  0  0  0  0  0  0
   38.1430   28.0630   40.2590 H   0  0  0  0  0  0  0  0  0  0  0  0
   36.4730   26.0810   41.2360 H   0  0  0  0  0  0  0  0  0  0  0  0
   38.1600   26.3850   41.7250 H   0  0  0  0  0  0  0  0  0  0  0  0
   35.5740   27.2650   43.0550 H   0  0  0  0  0  0  0  0  0  0  0  0
   36.8880   26.2650   43.6810 H   0  0  0  0  0  0  0  0  0  0  0  0
   38.2600   28.0140   44.2800 H   0  0  0  0  0  0  0  0  0  0  0  0
   36.6460   28.7440   44.3920 H   0  0  0  0  0  0  0  0  0  0  0  0
   37.4840   30.4320   43.1610 H   0  0  0  0  0  0  0  0  0  0  0  0
   37.1420   30.1550   40.8010 H   0  0  0  0  0  0  0  0  0  0  0  0
   35.8790   29.4770   41.8260 H   0  0  0  0  0  0  0  0  0  0  0  0
   36.1650   27.8930   39.6680 C   0  0  0  0  0  0  0  0  0  0  0  0
   35.2040   28.9010   39.6490 C   0  0  0  0  0  0  0  0  0  0  0  0
   34.2210   28.9130   38.6490 C   0  0  0  0  0  0  0  0  0  0  0  0
   34.2800   27.8850   37.7260 N   0  0  0  0  0  0  0  0  0  0  0  0
   35.2210   26.9260   37.7740 C   0  0  0  0  0  0  0  0  0  0  0  0
   36.1330   26.9540   38.7370 N   0  0  0  0  0  0  0  0  0  0  0  0
   34.9340   29.7740   40.2230 H   0  0  0  0  0  0  0  0  0  0  0  0
   33.4060   29.5500   38.4210 H   0  0  0  0  0  0  0  0  0  0  0  0
   35.2500   26.1310   37.0430 H   0  0  0  0  0  0  0  0  0  0  0  0
   39.2100   29.4210   42.5230 C   0  0  0  0  0  0  0  0  0  0  0  0
   39.6910   29.4500   43.5360 H   0  0  0  0  0  0  0  0  0  0  0  0
   39.5320   28.4090   42.1280 H   0  0  0  0  0  0  0  0  0  0  0  0
   39.7760   30.4300   41.6200 C   0  0  0  0  0  0  0  0  0  0  0  0
   40.8040   30.0880   41.3350 H   0  0  0  0  0  0  0  0  0  0  0  0
   39.2030   30.3850   40.6550 H   0  0  0  0  0  0  0  0  0  0  0  0
   38.7390   33.5760   40.9090 H   0  0  0  0  0  0  0  0  0  0  0  0
   39.0540   32.5620   41.1110 C   0  0  0  0  0  0  0  0  0  0  0  0
   38.3560   32.3770   40.0680 O   0  0  0  0  0  0  0  0  0  0  0  0
   39.8420   31.7800   42.0460 N   0  0  0  0  0  0  0  0  0  0  0  0
   40.1040   32.6290   42.6370 H   0  0  0  0  0  0  0  0  0  0  0  0
  1  7  1  6  0  0  0
  1  6  1  0  0  0  0
  1  2  1  0  0  0  0
  2  9  1  0  0  0  0
  2  3  1  0  0  0  0
  3 10  1  0  0  0  0
  3  4  1  0  0  0  0
  3 11  1  0  0  0  0
  4 12  1  0  0  0  0
  4 13  1  0  0  0  0
  5 14  1  1  0  0  0
  5  4  1  0  0  0  0
  6 16  1  0  0  0  0
  6  5  1  0  0  0  0
  8  2  1  0  0  0  0
 15  6  1  0  0  0  0
 17  1  1  0  0  0  0
 18 17  1  0  0  0  0
 18 23  1  0  0  0  0
 19 18  2  0  0  0  0
 20 21  2  0  0  0  0
 20 19  1  0  0  0  0
 21 22  1  0  0  0  0
 22 17  2  0  0  0  0
 24 19  1  0  0  0  0
 25 21  1  0  0  0  0
 26  5  1  0  0  0  0
 26 27  1  0  0  0  0
 28 26  1  0  0  0  0
 29 35  1  0  0  0  0
 29 26  1  0  0  0  0
 30 29  1  0  0  0  0
 31 29  1  0  0  0  0
 32 33  1  0  0  0  0
 33 35  1  0  0  0  0
 34 33  2  0  0  0  0
 35 36  1  0  0  0  0
M  END
>  <minimizedAffinity>
-4.49869061

$$$$

 OpenBabel03242519553D

 36 37  0  0  1  0  0  0  0  0999 V2000
   36.9590   27.6790   41.7210 C   0  0  2  0  0  0  0  0  0  0  0  0
   37.1700   27.8500   43.1800 C   0  0  0  0  0  0  0  0  0  0  0  0
   38.5400   27.4530   43.6120 C   0  0  0  0  0  0  0  0  0  0  0  0
   38.9040   26.0400   43.2040 C   0  0  0  0  0  0  0  0  0  0  0  0
   38.3620   25.6310   41.8470 C   0  0  2  0  0  0  0  0  0  0  0  0
   38.0080   26.8520   41.0540 C   0  0  0  0  0  0  0  0  0  0  0  0
   35.9710   27.1380   41.6120 H   0  0  0  0  0  0  0  0  0  0  0  0
   37.0760   28.9420   43.4000 H   0  0  0  0  0  0  0  0  0  0  0  0
   36.4220   27.3290   43.7860 H   0  0  0  0  0  0  0  0  0  0  0  0
   39.2980   28.1850   43.3120 H   0  0  0  0  0  0  0  0  0  0  0  0
   38.5530   27.4510   44.7350 H   0  0  0  0  0  0  0  0  0  0  0  0
   38.6510   25.2820   43.9690 H   0  0  0  0  0  0  0  0  0  0  0  0
   40.0100   26.0450   43.1190 H   0  0  0  0  0  0  0  0  0  0  0  0
   39.1720   25.1160   41.2490 H   0  0  0  0  0  0  0  0  0  0  0  0
   37.6760   26.5630   40.0520 H   0  0  0  0  0  0  0  0  0  0  0  0
   38.9770   27.3790   40.9150 H   0  0  0  0  0  0  0  0  0  0  0  0
   36.7870   28.9420   41.0020 C   0  0  0  0  0  0  0  0  0  0  0  0
   36.6530   28.7860   39.6250 C   0  0  0  0  0  0  0  0  0  0  0  0
   36.4670   29.9100   38.8070 C   0  0  0  0  0  0  0  0  0  0  0  0
   36.4330   31.1320   39.4530 N   0  0  0  0  0  0  0  0  0  0  0  0
   36.5680   31.2490   40.7850 C   0  0  0  0  0  0  0  0  0  0  0  0
   36.7410   30.1580   41.5210 N   0  0  0  0  0  0  0  0  0  0  0  0
   36.6500   27.9900   38.8950 H   0  0  0  0  0  0  0  0  0  0  0  0
   36.3410   30.0540   37.7650 H   0  0  0  0  0  0  0  0  0  0  0  0
   36.5390   32.2130   41.2710 H   0  0  0  0  0  0  0  0  0  0  0  0
   37.2860   24.6500   42.0440 C   0  0  0  0  0  0  0  0  0  0  0  0
   37.4280   24.1790   43.0520 H   0  0  0  0  0  0  0  0  0  0  0  0
   36.2990   25.1940   42.1660 H   0  0  0  0  0  0  0  0  0  0  0  0
   37.0900   23.6450   40.9930 C   0  0  0  0  0  0  0  0  0  0  0  0
   36.0500   23.2400   41.1030 H   0  0  0  0  0  0  0  0  0  0  0  0
   37.0640   24.1810   40.0070 H   0  0  0  0  0  0  0  0  0  0  0  0
   39.4350   22.2090   39.0140 H   0  0  0  0  0  0  0  0  0  0  0  0
   38.6830   22.6890   39.6240 C   0  0  0  0  0  0  0  0  0  0  0  0
   38.6930   23.4690   38.6240 O   0  0  0  0  0  0  0  0  0  0  0  0
   37.9970   22.5590   40.8970 N   0  0  0  0  0  0  0  0  0  0  0  0
   38.5270   21.6740   41.1670 H   0  0  0  0  0  0  0  0  0  0  0  0
  1  7  1  6  0  0  0
  1  2  1  0  0  0  0
  2  8  1  0  0  0  0
  2  3  1  0  0  0  0
  2  9  1  0  0  0  0
  3 11  1  0  0  0  0
  4  3  1  0  0  0  0
  4 12  1  0  0  0  0
  5 14  1  6  0  0  0
  5 26  1  0  0  0  0
  5  4  1  0  0  0  0
  6  1  1  0  0  0  0
  6  5  1  0  0  0  0
 10  3  1  0  0  0  0
 13  4  1  0  0  0  0
 15  6  1  0  0  0  0
 16  6  1  0  0  0  0
 17 22  1  0  0  0  0
 17  1  1  0  0  0  0
 18 17  2  0  0  0  0
 19 20  2  0  0  0  0
 19 18  1  0  0  0  0
 20 21  1  0  0  0  0
 21 25  1  0  0  0  0
 21 22  2  0  0  0  0
 23 18  1  0  0  0  0
 24 19  1  0  0  0  0
 26 28  1  0  0  0  0
 26 27  1  0  0  0  0
 29 30  1  0  0  0  0
 29 26  1  0  0  0  0
 31 29  1  0  0  0  0
 32 33  1  0  0  0  0
 33 35  1  0  0  0  0
 34 33  2  0  0  0  0
 35 29  1  0  0  0  0
 35 36  1  0  0  0  0
M  END
>  <minimizedAffinity>
-4.4785285

$$$$
