
 OpenBabel03252506033D

 39 42  0  0  0  0  0  0  0  0999 V2000
   44.8400   36.0460   43.2840 Cl  0  0  0  0  0  0  0  0  0  0  0  0
   45.5730   34.7930   44.2180 C   0  0  0  0  0  0  0  0  0  0  0  0
   46.6850   34.1260   43.7490 C   0  0  0  0  0  0  0  0  0  0  0  0
   47.2010   33.1400   44.5670 C   0  0  0  0  0  0  0  0  0  0  0  0
   46.6690   32.8010   45.7990 C   0  0  0  0  0  0  0  0  0  0  0  0
   45.5680   33.4810   46.2340 C   0  0  0  0  0  0  0  0  0  0  0  0
   44.9270   33.0190   47.8000 Cl  0  0  0  0  0  0  0  0  0  0  0  0
   45.0210   34.4730   45.4490 C   0  0  0  0  0  0  0  0  0  0  0  0
   48.0750   32.6270   44.1810 H   0  0  0  0  0  0  0  0  0  0  0  0
   44.1520   34.9950   45.8150 H   0  0  0  0  0  0  0  0  0  0  0  0
   47.3540   31.7290   46.5230 C   0  0  0  0  0  0  0  0  0  0  0  0
   47.4750   30.4460   46.0450 C   0  0  0  0  0  0  0  0  0  0  0  0
   48.1160   29.4240   46.7130 C   0  0  0  0  0  0  0  0  0  0  0  0
   48.6790   29.6820   47.9410 C   0  0  0  0  0  0  0  0  0  0  0  0
   49.2970   28.6650   48.5660 N   0  0  0  0  0  0  0  0  0  0  0  0
   49.8790   28.8320   49.7810 C   0  0  0  0  0  0  0  0  0  0  0  0
   49.8040   30.1070   50.3440 C   0  0  0  0  0  0  0  0  0  0  0  0
   49.1700   31.1370   49.6920 C   0  0  0  0  0  0  0  0  0  0  0  0
   48.5870   30.9540   48.4680 C   0  0  0  0  0  0  0  0  0  0  0  0
   47.9400   31.9420   47.7700 C   0  0  0  0  0  0  0  0  0  0  0  0
   47.0420   30.2030   45.0780 H   0  0  0  0  0  0  0  0  0  0  0  0
   48.1800   28.4240   46.2820 H   0  0  0  0  0  0  0  0  0  0  0  0
   50.3820   28.0310   50.3040 H   0  0  0  0  0  0  0  0  0  0  0  0
   50.2440   30.3260   51.3100 H   0  0  0  0  0  0  0  0  0  0  0  0
   49.1280   32.1060   50.1490 H   0  0  0  0  0  0  0  0  0  0  0  0
   47.8910   32.9420   48.2290 H   0  0  0  0  0  0  0  0  0  0  0  0
   48.9220   35.5850   41.2630 C   0  0  0  0  0  0  0  0  0  0  0  0
   48.4570   35.0580   40.0590 C   0  0  0  0  0  0  0  0  0  0  0  0
   47.3510   34.1830   40.0940 C   0  0  0  0  0  0  0  0  0  0  0  0
   46.8160   33.9160   41.3160 N   0  0  0  0  0  0  0  0  0  0  0  0
   47.2870   34.4390   42.4630 C   0  0  0  0  0  0  0  0  0  0  0  0
   48.3400   35.2750   42.4370 N   0  0  0  0  0  0  0  0  0  0  0  0
   49.7600   36.2380   41.1450 H   0  0  0  0  0  0  0  0  0  0  0  0
   48.8530   35.2490   39.0880 H   0  0  0  0  0  0  0  0  0  0  0  0
   46.9280   33.3880   36.7600 H   0  0  0  0  0  0  0  0  0  0  0  0
   47.3590   33.8480   37.6590 C   0  0  0  0  0  0  0  0  0  0  0  0
   48.3250   34.5370   37.2380 O   0  0  0  0  0  0  0  0  0  0  0  0
   46.7930   33.5880   38.9320 N   0  0  0  0  0  0  0  0  0  0  0  0
   45.9670   32.9490   38.9430 H   0  0  0  0  0  0  0  0  0  0  0  0
  1  2  1  0  0  0  0
  2  8  1  0  0  0  0
  3  2  2  0  0  0  0
  3  4  1  0  0  0  0
  4  5  2  0  0  0  0
  5  6  1  0  0  0  0
  5 11  1  0  0  0  0
  6  7  1  0  0  0  0
  8 10  1  0  0  0  0
  8  6  2  0  0  0  0
  9  4  1  0  0  0  0
 11 20  1  0  0  0  0
 12 11  2  0  0  0  0
 12 13  1  0  0  0  0
 13 14  2  0  0  0  0
 14 19  1  0  0  0  0
 14 15  1  0  0  0  0
 15 16  2  0  0  0  0
 16 23  1  0  0  0  0
 16 17  1  0  0  0  0
 17 24  1  0  0  0  0
 18 25  1  0  0  0  0
 18 17  2  0  0  0  0
 19 18  1  0  0  0  0
 20 26  1  0  0  0  0
 20 19  2  0  0  0  0
 21 12  1  0  0  0  0
 22 13  1  0  0  0  0
 27 32  1  0  0  0  0
 28 29  1  0  0  0  0
 28 27  2  0  0  0  0
 29 30  2  0  0  0  0
 30 31  1  0  0  0  0
 31  3  1  0  0  0  0
 32 31  2  0  0  0  0
 33 27  1  0  0  0  0
 34 28  1  0  0  0  0
 35 36  1  0  0  0  0
 36 38  1  0  0  0  0
 37 36  2  0  0  0  0
 38 39  1  0  0  0  0
 38 29  1  0  0  0  0
M  END
>  <minimizedAffinity>
-7.09253263

>  <minimizedRMSD>
0.451772571

$$$$
