
 OpenBabel03252509273D

 26 27  0  0  1  0  0  0  0  0999 V2000
   37.1940   26.7630   42.2650 C   0  0  1  0  0  0  0  0  0  0  0  0
   36.3730   27.3550   43.4440 C   0  0  0  0  0  0  0  0  0  0  0  0
   36.9150   28.1370   42.2080 C   0  0  2  0  0  0  0  0  0  0  0  0
   36.6350   26.0010   41.6830 H   0  0  0  0  0  0  0  0  0  0  0  0
   35.3150   27.1050   43.4340 H   0  0  0  0  0  0  0  0  0  0  0  0
   36.8520   27.5110   44.4070 H   0  0  0  0  0  0  0  0  0  0  0  0
   37.7350   28.8560   42.5210 H   0  0  0  0  0  0  0  0  0  0  0  0
   40.1720   24.6220   43.0610 C   0  0  0  0  0  0  0  0  0  0  0  0
   38.8620   24.9760   42.6410 C   0  0  0  0  0  0  0  0  0  0  0  0
   38.5430   26.2870   42.7570 C   0  0  0  0  0  0  0  0  0  0  0  0
   39.4280   27.2160   43.2530 N   0  0  0  0  0  0  0  0  0  0  0  0
   40.6670   26.8430   43.6430 C   0  0  0  0  0  0  0  0  0  0  0  0
   41.0400   25.5380   43.5460 N   0  0  0  0  0  0  0  0  0  0  0  0
   40.4830   23.5900   42.9900 H   0  0  0  0  0  0  0  0  0  0  0  0
   41.2590   27.6680   44.0120 H   0  0  0  0  0  0  0  0  0  0  0  0
   37.9520   24.0130   42.1760 N   0  0  0  0  0  0  0  0  0  0  0  0
   37.7940   23.2110   42.8360 H   0  0  0  0  0  0  0  0  0  0  0  0
   37.5670   24.2330   41.2470 H   0  0  0  0  0  0  0  0  0  0  0  0
   35.9210   28.7020   41.2220 C   0  0  0  0  0  0  0  0  0  0  0  0
   34.9220   28.2510   41.4100 H   0  0  0  0  0  0  0  0  0  0  0  0
   36.2630   28.5070   40.1810 H   0  0  0  0  0  0  0  0  0  0  0  0
   36.4230   32.1150   40.5980 H   0  0  0  0  0  0  0  0  0  0  0  0
   36.4680   31.0330   40.5160 C   0  0  0  0  0  0  0  0  0  0  0  0
   37.1500   30.5180   39.5730 O   0  0  0  0  0  0  0  0  0  0  0  0
   35.8070   30.1400   41.4050 N   0  0  0  0  0  0  0  0  0  0  0  0
   35.2440   30.5890   42.1840 H   0  0  0  0  0  0  0  0  0  0  0  0
  1  4  1  6  0  0  0
  1 10  1  0  0  0  0
  1  2  1  0  0  0  0
  2  6  1  0  0  0  0
  3  1  1  0  0  0  0
  3  7  1  1  0  0  0
  3  2  1  0  0  0  0
  5  2  1  0  0  0  0
  8 13  1  0  0  0  0
  9 10  1  0  0  0  0
  9  8  2  0  0  0  0
 10 11  2  0  0  0  0
 11 12  1  0  0  0  0
 12 15  1  0  0  0  0
 13 12  2  0  0  0  0
 14  8  1  0  0  0  0
 16  9  1  0  0  0  0
 16 17  1  0  0  0  0
 18 16  1  0  0  0  0
 19 25  1  0  0  0  0
 19 20  1  0  0  0  0
 19  3  1  0  0  0  0
 21 19  1  0  0  0  0
 23 22  1  0  0  0  0
 23 25  1  0  0  0  0
 24 23  2  0  0  0  0
 25 26  1  0  0  0  0
M  END
>  <minimizedAffinity>
-4.62572956

$$$$

 OpenBabel03252509273D

 26 27  0  0  1  0  0  0  0  0999 V2000
   38.1510   29.3770   41.4940 C   0  0  1  0  0  0  0  0  0  0  0  0
   39.5560   29.0270   42.0570 C   0  0  0  0  0  0  0  0  0  0  0  0
   38.2680   29.3060   42.8910 C   0  0  2  0  0  0  0  0  0  0  0  0
   37.7130   28.5640   40.8770 H   0  0  0  0  0  0  0  0  0  0  0  0
   39.8460   27.9850   41.9460 H   0  0  0  0  0  0  0  0  0  0  0  0
   40.3410   29.7790   42.0470 H   0  0  0  0  0  0  0  0  0  0  0  0
   38.3690   30.2810   43.4620 H   0  0  0  0  0  0  0  0  0  0  0  0
   37.1750   32.7230   40.1050 C   0  0  0  0  0  0  0  0  0  0  0  0
   37.0440   31.4430   40.7070 C   0  0  0  0  0  0  0  0  0  0  0  0
   38.1860   30.7200   40.8010 C   0  0  0  0  0  0  0  0  0  0  0  0
   39.3930   31.1920   40.3400 N   0  0  0  0  0  0  0  0  0  0  0  0
   39.4800   32.4160   39.7720 C   0  0  0  0  0  0  0  0  0  0  0  0
   38.3630   33.1850   39.6550 N   0  0  0  0  0  0  0  0  0  0  0  0
   36.2970   33.3460   40.0050 H   0  0  0  0  0  0  0  0  0  0  0  0
   40.4810   32.6630   39.4540 H   0  0  0  0  0  0  0  0  0  0  0  0
   35.8000   30.9550   41.1360 N   0  0  0  0  0  0  0  0  0  0  0  0
   35.0530   30.9590   40.3970 H   0  0  0  0  0  0  0  0  0  0  0  0
   35.7980   30.6580   42.1220 H   0  0  0  0  0  0  0  0  0  0  0  0
   37.6620   28.1700   43.6800 C   0  0  0  0  0  0  0  0  0  0  0  0
   37.1250   28.5820   44.5620 H   0  0  0  0  0  0  0  0  0  0  0  0
   38.4560   27.4540   43.9880 H   0  0  0  0  0  0  0  0  0  0  0  0
   36.3510   25.6080   41.6770 H   0  0  0  0  0  0  0  0  0  0  0  0
   37.0250   26.1910   42.2990 C   0  0  0  0  0  0  0  0  0  0  0  0
   38.1820   25.7230   42.5510 O   0  0  0  0  0  0  0  0  0  0  0  0
   36.6980   27.4580   42.8570 N   0  0  0  0  0  0  0  0  0  0  0  0
   35.7290   27.8290   42.6350 H   0  0  0  0  0  0  0  0  0  0  0  0
  1  4  1  6  0  0  0
  1  2  1  0  0  0  0
  1  3  1  0  0  0  0
  2  3  1  0  0  0  0
  3  7  1  1  0  0  0
  3 19  1  0  0  0  0
  5  2  1  0  0  0  0
  6  2  1  0  0  0  0
  8  9  1  0  0  0  0
  9 10  2  0  0  0  0
  9 16  1  0  0  0  0
 10  1  1  0  0  0  0
 11 10  1  0  0  0  0
 12 11  2  0  0  0  0
 13 12  1  0  0  0  0
 13  8  2  0  0  0  0
 14  8  1  0  0  0  0
 15 12  1  0  0  0  0
 16 18  1  0  0  0  0
 17 16  1  0  0  0  0
 19 21  1  0  0  0  0
 19 20  1  0  0  0  0
 22 23  1  0  0  0  0
 23 24  2  0  0  0  0
 23 25  1  0  0  0  0
 25 19  1  0  0  0  0
 26 25  1  0  0  0  0
M  END
>  <minimizedAffinity>
-4.2022233

$$$$

 OpenBabel03252509273D

 26 27  0  0  1  0  0  0  0  0999 V2000
   37.2720   29.9050   40.2850 C   0  0  1  0  0  0  0  0  0  0  0  0
   35.7590   29.9970   39.9440 C   0  0  0  0  0  0  0  0  0  0  0  0
   36.6630   31.1570   40.4620 C   0  0  2  0  0  0  0  0  0  0  0  0
   37.9030   29.6520   39.4070 H   0  0  0  0  0  0  0  0  0  0  0  0
   35.5290   29.9980   38.8820 H   0  0  0  0  0  0  0  0  0  0  0  0
   35.0290   29.5660   40.6250 H   0  0  0  0  0  0  0  0  0  0  0  0
   36.3640   31.4540   41.5160 H   0  0  0  0  0  0  0  0  0  0  0  0
   38.7580   28.2130   43.2860 C   0  0  0  0  0  0  0  0  0  0  0  0
   38.6630   29.0470   42.1410 C   0  0  0  0  0  0  0  0  0  0  0  0
   37.4850   28.9950   41.4740 C   0  0  0  0  0  0  0  0  0  0  0  0
   36.4500   28.1840   41.8760 N   0  0  0  0  0  0  0  0  0  0  0  0
   36.5760   27.4020   42.9710 C   0  0  0  0  0  0  0  0  0  0  0  0
   37.7380   27.4180   43.6800 N   0  0  0  0  0  0  0  0  0  0  0  0
   39.6750   28.2150   43.8600 H   0  0  0  0  0  0  0  0  0  0  0  0
   35.6930   26.8160   43.1750 H   0  0  0  0  0  0  0  0  0  0  0  0
   39.7410   29.8400   41.7150 N   0  0  0  0  0  0  0  0  0  0  0  0
   40.6360   29.3120   41.5640 H   0  0  0  0  0  0  0  0  0  0  0  0
   39.4970   30.8350   41.6110 H   0  0  0  0  0  0  0  0  0  0  0  0
   36.9490   32.3150   39.5350 C   0  0  0  0  0  0  0  0  0  0  0  0
   36.0140   32.5970   39.0040 H   0  0  0  0  0  0  0  0  0  0  0  0
   37.7540   32.0400   38.8190 H   0  0  0  0  0  0  0  0  0  0  0  0
   39.1610   34.4370   41.2370 H   0  0  0  0  0  0  0  0  0  0  0  0
   38.7640   33.6030   40.6640 C   0  0  0  0  0  0  0  0  0  0  0  0
   39.5620   32.6870   40.2850 O   0  0  0  0  0  0  0  0  0  0  0  0
   37.3940   33.4650   40.3050 N   0  0  0  0  0  0  0  0  0  0  0  0
   36.7470   34.2390   40.6300 H   0  0  0  0  0  0  0  0  0  0  0  0
  1  4  1  6  0  0  0
  1  3  1  0  0  0  0
  1 10  1  0  0  0  0
  2  1  1  0  0  0  0
  2  3  1  0  0  0  0
  2  6  1  0  0  0  0
  3  7  1  1  0  0  0
  5  2  1  0  0  0  0
  8 13  1  0  0  0  0
  8 14  1  0  0  0  0
  9  8  2  0  0  0  0
 10 11  2  0  0  0  0
 10  9  1  0  0  0  0
 11 12  1  0  0  0  0
 12 15  1  0  0  0  0
 12 13  2  0  0  0  0
 16  9  1  0  0  0  0
 17 16  1  0  0  0  0
 18 16  1  0  0  0  0
 19 25  1  0  0  0  0
 19  3  1  0  0  0  0
 20 19  1  0  0  0  0
 21 19  1  0  0  0  0
 23 22  1  0  0  0  0
 24 23  2  0  0  0  0
 25 26  1  0  0  0  0
 25 23  1  0  0  0  0
M  END
>  <minimizedAffinity>
-4.10221291

$$$$

 OpenBabel03252509273D

 26 27  0  0  1  0  0  0  0  0999 V2000
   36.2440   28.3340   40.1390 C   0  0  1  0  0  0  0  0  0  0  0  0
   36.5470   27.1190   39.2180 C   0  0  0  0  0  0  0  0  0  0  0  0
   37.2560   27.4610   40.5660 C   0  0  2  0  0  0  0  0  0  0  0  0
   35.2130   28.3230   40.5510 H   0  0  0  0  0  0  0  0  0  0  0  0
   35.8040   26.3270   39.2480 H   0  0  0  0  0  0  0  0  0  0  0  0
   37.0950   27.2710   38.2920 H   0  0  0  0  0  0  0  0  0  0  0  0
   38.3320   27.7690   40.3820 H   0  0  0  0  0  0  0  0  0  0  0  0
   36.8850   31.9560   39.3930 C   0  0  0  0  0  0  0  0  0  0  0  0
   36.4560   30.7980   40.0950 C   0  0  0  0  0  0  0  0  0  0  0  0
   36.6080   29.6240   39.4370 C   0  0  0  0  0  0  0  0  0  0  0  0
   37.1390   29.5570   38.1700 N   0  0  0  0  0  0  0  0  0  0  0  0
   37.5370   30.6800   37.5320 C   0  0  0  0  0  0  0  0  0  0  0  0
   37.4080   31.8860   38.1490 N   0  0  0  0  0  0  0  0  0  0  0  0
   36.7890   32.9210   39.8700 H   0  0  0  0  0  0  0  0  0  0  0  0
   37.9340   30.4880   36.5470 H   0  0  0  0  0  0  0  0  0  0  0  0
   35.8760   30.8820   41.3710 N   0  0  0  0  0  0  0  0  0  0  0  0
   35.0510   31.5290   41.4310 H   0  0  0  0  0  0  0  0  0  0  0  0
   36.3460   30.2920   42.0710 H   0  0  0  0  0  0  0  0  0  0  0  0
   37.0550   26.5310   41.7390 C   0  0  0  0  0  0  0  0  0  0  0  0
   37.0750   25.4790   41.3800 H   0  0  0  0  0  0  0  0  0  0  0  0
   36.0960   26.7650   42.2510 H   0  0  0  0  0  0  0  0  0  0  0  0
   38.9320   28.0070   44.3060 H   0  0  0  0  0  0  0  0  0  0  0  0
   38.1540   27.8230   43.5710 C   0  0  0  0  0  0  0  0  0  0  0  0
   37.1920   28.6510   43.4770 O   0  0  0  0  0  0  0  0  0  0  0  0
   38.1380   26.7020   42.6940 N   0  0  0  0  0  0  0  0  0  0  0  0
   38.9480   26.0240   42.7890 H   0  0  0  0  0  0  0  0  0  0  0  0
  1  4  1  1  0  0  0
  1  3  1  0  0  0  0
  2  5  1  0  0  0  0
  2  1  1  0  0  0  0
  2  3  1  0  0  0  0
  3  7  1  6  0  0  0
  3 19  1  0  0  0  0
  6  2  1  0  0  0  0
  8 14  1  0  0  0  0
  8  9  1  0  0  0  0
  9 16  1  0  0  0  0
 10  9  2  0  0  0  0
 10  1  1  0  0  0  0
 11 10  1  0  0  0  0
 12 13  1  0  0  0  0
 12 11  2  0  0  0  0
 13  8  2  0  0  0  0
 15 12  1  0  0  0  0
 16 17  1  0  0  0  0
 16 18  1  0  0  0  0
 19 21  1  0  0  0  0
 19 25  1  0  0  0  0
 20 19  1  0  0  0  0
 23 22  1  0  0  0  0
 24 23  2  0  0  0  0
 25 26  1  0  0  0  0
 25 23  1  0  0  0  0
M  END
>  <minimizedAffinity>
-4.07023907

$$$$

 OpenBabel03252509273D

 26 27  0  0  1  0  0  0  0  0999 V2000
   35.0630   29.3290   38.9420 C   0  0  1  0  0  0  0  0  0  0  0  0
   35.9680   29.7360   37.7460 C   0  0  0  0  0  0  0  0  0  0  0  0
   34.8820   28.6160   37.7460 C   0  0  2  0  0  0  0  0  0  0  0  0
   34.3870   30.1440   39.2750 H   0  0  0  0  0  0  0  0  0  0  0  0
   35.6970   30.6740   37.2670 H   0  0  0  0  0  0  0  0  0  0  0  0
   37.0140   29.4430   37.7410 H   0  0  0  0  0  0  0  0  0  0  0  0
   35.3660   27.5940   37.6620 H   0  0  0  0  0  0  0  0  0  0  0  0
   36.8860   28.8280   42.1830 C   0  0  0  0  0  0  0  0  0  0  0  0
   36.1510   29.4800   41.1570 C   0  0  0  0  0  0  0  0  0  0  0  0
   35.9010   28.7370   40.0520 C   0  0  0  0  0  0  0  0  0  0  0  0
   36.3350   27.4370   39.9290 N   0  0  0  0  0  0  0  0  0  0  0  0
   37.0320   26.8490   40.9270 C   0  0  0  0  0  0  0  0  0  0  0  0
   37.3080   27.5500   42.0600 N   0  0  0  0  0  0  0  0  0  0  0  0
   37.1130   29.3720   43.0890 H   0  0  0  0  0  0  0  0  0  0  0  0
   37.3110   25.8300   40.7030 H   0  0  0  0  0  0  0  0  0  0  0  0
   35.7510   30.8200   41.2750 N   0  0  0  0  0  0  0  0  0  0  0  0
   36.5320   31.4900   41.4860 H   0  0  0  0  0  0  0  0  0  0  0  0
   34.7390   30.9560   41.1370 H   0  0  0  0  0  0  0  0  0  0  0  0
   33.6520   28.8070   36.8900 C   0  0  0  0  0  0  0  0  0  0  0  0
   33.5120   27.9110   36.2470 H   0  0  0  0  0  0  0  0  0  0  0  0
   33.7520   29.7310   36.2790 H   0  0  0  0  0  0  0  0  0  0  0  0
   30.4940   29.9230   37.9260 H   0  0  0  0  0  0  0  0  0  0  0  0
   31.3980   29.7800   37.3400 C   0  0  0  0  0  0  0  0  0  0  0  0
   31.5110   30.3920   36.2300 O   0  0  0  0  0  0  0  0  0  0  0  0
   32.4780   28.9420   37.7360 N   0  0  0  0  0  0  0  0  0  0  0  0
   32.3630   28.4410   38.6640 H   0  0  0  0  0  0  0  0  0  0  0  0
  1  4  1  1  0  0  0
  1 10  1  0  0  0  0
  2  3  1  0  0  0  0
  2  1  1  0  0  0  0
  3  7  1  1  0  0  0
  3  1  1  0  0  0  0
  5  2  1  0  0  0  0
  6  2  1  0  0  0  0
  8 14  1  0  0  0  0
  9 16  1  0  0  0  0
  9  8  2  0  0  0  0
 10  9  1  0  0  0  0
 11 10  2  0  0  0  0
 11 12  1  0  0  0  0
 12 13  2  0  0  0  0
 13  8  1  0  0  0  0
 15 12  1  0  0  0  0
 16 17  1  0  0  0  0
 18 16  1  0  0  0  0
 19 25  1  0  0  0  0
 19  3  1  0  0  0  0
 20 19  1  0  0  0  0
 21 19  1  0  0  0  0
 23 25  1  0  0  0  0
 23 22  1  0  0  0  0
 24 23  2  0  0  0  0
 25 26  1  0  0  0  0
M  END
>  <minimizedAffinity>
-4.06830263

$$$$

 OpenBabel03252509273D

 26 27  0  0  1  0  0  0  0  0999 V2000
   36.8970   28.4100   41.4860 C   0  0  1  0  0  0  0  0  0  0  0  0
   36.4670   27.5130   40.2920 C   0  0  0  0  0  0  0  0  0  0  0  0
   37.5030   27.1470   41.3990 C   0  0  2  0  0  0  0  0  0  0  0  0
   36.0630   28.6400   42.1810 H   0  0  0  0  0  0  0  0  0  0  0  0
   35.4800   27.0700   40.3860 H   0  0  0  0  0  0  0  0  0  0  0  0
   36.8340   27.7370   39.2930 H   0  0  0  0  0  0  0  0  0  0  0  0
   38.5490   27.0920   40.9630 H   0  0  0  0  0  0  0  0  0  0  0  0
   37.7650   31.9380   40.5470 C   0  0  0  0  0  0  0  0  0  0  0  0
   36.9870   30.8260   40.9680 C   0  0  0  0  0  0  0  0  0  0  0  0
   37.6290   29.6330   40.9820 C   0  0  0  0  0  0  0  0  0  0  0  0
   38.9470   29.5050   40.6100 N   0  0  0  0  0  0  0  0  0  0  0  0
   39.6560   30.5860   40.2150 C   0  0  0  0  0  0  0  0  0  0  0  0
   39.0600   31.8090   40.1840 N   0  0  0  0  0  0  0  0  0  0  0  0
   37.3050   32.9160   40.5180 H   0  0  0  0  0  0  0  0  0  0  0  0
   40.6760   30.3480   39.9500 H   0  0  0  0  0  0  0  0  0  0  0  0
   35.6310   30.9610   41.3060 N   0  0  0  0  0  0  0  0  0  0  0  0
   35.0410   31.4100   40.5620 H   0  0  0  0  0  0  0  0  0  0  0  0
   35.4070   30.5970   42.2420 H   0  0  0  0  0  0  0  0  0  0  0  0
   37.1610   26.0370   42.3650 C   0  0  0  0  0  0  0  0  0  0  0  0
   36.0980   25.7430   42.2230 H   0  0  0  0  0  0  0  0  0  0  0  0
   37.3530   26.3680   43.4090 H   0  0  0  0  0  0  0  0  0  0  0  0
   38.0500   22.8980   41.0810 H   0  0  0  0  0  0  0  0  0  0  0  0
   37.4830   23.7930   41.3190 C   0  0  0  0  0  0  0  0  0  0  0  0
   36.2900   23.8950   40.8870 O   0  0  0  0  0  0  0  0  0  0  0  0
   37.9900   24.8740   42.0930 N   0  0  0  0  0  0  0  0  0  0  0  0
   38.9860   24.7690   42.4440 H   0  0  0  0  0  0  0  0  0  0  0  0
  1  4  1  1  0  0  0
  2  5  1  0  0  0  0
  2  3  1  0  0  0  0
  2  1  1  0  0  0  0
  3  7  1  6  0  0  0
  3  1  1  0  0  0  0
  3 19  1  0  0  0  0
  6  2  1  0  0  0  0
  8  9  1  0  0  0  0
  9 10  2  0  0  0  0
  9 16  1  0  0  0  0
 10  1  1  0  0  0  0
 11 10  1  0  0  0  0
 12 11  2  0  0  0  0
 13 12  1  0  0  0  0
 13  8  2  0  0  0  0
 14  8  1  0  0  0  0
 15 12  1  0  0  0  0
 16 18  1  0  0  0  0
 17 16  1  0  0  0  0
 19 21  1  0  0  0  0
 20 19  1  0  0  0  0
 22 23  1  0  0  0  0
 23 25  1  0  0  0  0
 24 23  2  0  0  0  0
 25 19  1  0  0  0  0
 25 26  1  0  0  0  0
M  END
>  <minimizedAffinity>
-4.04882717

$$$$

 OpenBabel03252509273D

 26 27  0  0  1  0  0  0  0  0999 V2000
   37.5610   27.9780   40.8260 C   0  0  1  0  0  0  0  0  0  0  0  0
   36.5690   27.0190   40.1100 C   0  0  0  0  0  0  0  0  0  0  0  0
   36.1980   28.1580   41.1090 C   0  0  2  0  0  0  0  0  0  0  0  0
   38.1290   28.6220   40.1230 H   0  0  0  0  0  0  0  0  0  0  0  0
   36.4130   27.2290   39.0550 H   0  0  0  0  0  0  0  0  0  0  0  0
   36.4830   25.9880   40.4450 H   0  0  0  0  0  0  0  0  0  0  0  0
   35.7970   27.7230   42.0770 H   0  0  0  0  0  0  0  0  0  0  0  0
   39.8180   27.0600   43.6800 C   0  0  0  0  0  0  0  0  0  0  0  0
   39.0740   27.8670   42.7790 C   0  0  0  0  0  0  0  0  0  0  0  0
   38.4340   27.2030   41.7870 C   0  0  0  0  0  0  0  0  0  0  0  0
   38.5020   25.8350   41.6580 N   0  0  0  0  0  0  0  0  0  0  0  0
   39.2200   25.0980   42.5350 C   0  0  0  0  0  0  0  0  0  0  0  0
   39.8810   25.7160   43.5520 N   0  0  0  0  0  0  0  0  0  0  0  0
   40.3480   27.5360   44.4930 H   0  0  0  0  0  0  0  0  0  0  0  0
   39.1900   24.0400   42.3200 H   0  0  0  0  0  0  0  0  0  0  0  0
   39.0460   29.2660   42.8950 N   0  0  0  0  0  0  0  0  0  0  0  0
   39.9930   29.7200   42.9120 H   0  0  0  0  0  0  0  0  0  0  0  0
   38.0920   29.6500   42.9460 H   0  0  0  0  0  0  0  0  0  0  0  0
   35.4330   29.3510   40.5870 C   0  0  0  0  0  0  0  0  0  0  0  0
   34.3460   29.1910   40.7570 H   0  0  0  0  0  0  0  0  0  0  0  0
   35.6550   29.5040   39.5070 H   0  0  0  0  0  0  0  0  0  0  0  0
   36.9700   32.4490   41.1630 H   0  0  0  0  0  0  0  0  0  0  0  0
   36.6390   31.5340   40.6790 C   0  0  0  0  0  0  0  0  0  0  0  0
   36.9890   31.3190   39.4740 O   0  0  0  0  0  0  0  0  0  0  0  0
   35.8310   30.5480   41.3100 N   0  0  0  0  0  0  0  0  0  0  0  0
   35.5510   30.7470   42.3130 H   0  0  0  0  0  0  0  0  0  0  0  0
  1  4  1  6  0  0  0
  1  3  1  0  0  0  0
  1 10  1  0  0  0  0
  2  6  1  0  0  0  0
  2  1  1  0  0  0  0
  2  3  1  0  0  0  0
  3  7  1  1  0  0  0
  5  2  1  0  0  0  0
  8 14  1  0  0  0  0
  9 16  1  0  0  0  0
  9  8  2  0  0  0  0
 10  9  1  0  0  0  0
 11 10  2  0  0  0  0
 11 12  1  0  0  0  0
 12 13  2  0  0  0  0
 13  8  1  0  0  0  0
 15 12  1  0  0  0  0
 16 17  1  0  0  0  0
 16 18  1  0  0  0  0
 19 20  1  0  0  0  0
 19  3  1  0  0  0  0
 19 25  1  0  0  0  0
 21 19  1  0  0  0  0
 23 22  1  0  0  0  0
 23 25  1  0  0  0  0
 24 23  2  0  0  0  0
 25 26  1  0  0  0  0
M  END
>  <minimizedAffinity>
-4.04295254

$$$$

 OpenBabel03252509273D

 26 27  0  0  1  0  0  0  0  0999 V2000
   39.0320   30.7950   42.4350 C   0  0  1  0  0  0  0  0  0  0  0  0
   40.5840   30.8090   42.5120 C   0  0  0  0  0  0  0  0  0  0  0  0
   39.7160   31.1270   41.2550 C   0  0  2  0  0  0  0  0  0  0  0  0
   38.5560   31.5480   43.0970 H   0  0  0  0  0  0  0  0  0  0  0  0
   41.0080   31.6610   43.0370 H   0  0  0  0  0  0  0  0  0  0  0  0
   41.1290   29.8680   42.5410 H   0  0  0  0  0  0  0  0  0  0  0  0
   39.8410   30.3170   40.4710 H   0  0  0  0  0  0  0  0  0  0  0  0
   36.8500   27.7420   42.4310 C   0  0  0  0  0  0  0  0  0  0  0  0
   37.2390   29.0990   42.2770 C   0  0  0  0  0  0  0  0  0  0  0  0
   38.5130   29.3890   42.6350 C   0  0  0  0  0  0  0  0  0  0  0  0
   39.3730   28.4310   43.1210 N   0  0  0  0  0  0  0  0  0  0  0  0
   38.9680   27.1490   43.2550 C   0  0  0  0  0  0  0  0  0  0  0  0
   37.6980   26.8040   42.9070 N   0  0  0  0  0  0  0  0  0  0  0  0
   35.8450   27.4520   42.1590 H   0  0  0  0  0  0  0  0  0  0  0  0
   39.7390   26.5020   43.6460 H   0  0  0  0  0  0  0  0  0  0  0  0
   36.3400   30.0760   41.8190 N   0  0  0  0  0  0  0  0  0  0  0  0
   35.4460   30.1340   42.3680 H   0  0  0  0  0  0  0  0  0  0  0  0
   36.6890   30.6000   41.0050 H   0  0  0  0  0  0  0  0  0  0  0  0
   39.7230   32.5370   40.7150 C   0  0  0  0  0  0  0  0  0  0  0  0
   39.9630   32.5120   39.6300 H   0  0  0  0  0  0  0  0  0  0  0  0
   40.4560   33.1570   41.2770 H   0  0  0  0  0  0  0  0  0  0  0  0
   36.4670   33.5140   39.8570 H   0  0  0  0  0  0  0  0  0  0  0  0
   37.4660   33.0890   39.8040 C   0  0  0  0  0  0  0  0  0  0  0  0
   37.8310   32.5170   38.7270 O   0  0  0  0  0  0  0  0  0  0  0  0
   38.4060   33.1320   40.8710 N   0  0  0  0  0  0  0  0  0  0  0  0
   38.0810   33.6130   41.7590 H   0  0  0  0  0  0  0  0  0  0  0  0
  1  2  1  0  0  0  0
  1 10  1  0  0  0  0
  1  4  1  1  0  0  0
  2  6  1  0  0  0  0
  2  5  1  0  0  0  0
  3  7  1  6  0  0  0
  3  1  1  0  0  0  0
  3  2  1  0  0  0  0
  8 13  1  0  0  0  0
  9  8  2  0  0  0  0
  9 10  1  0  0  0  0
 10 11  2  0  0  0  0
 11 12  1  0  0  0  0
 12 15  1  0  0  0  0
 13 12  2  0  0  0  0
 14  8  1  0  0  0  0
 16  9  1  0  0  0  0
 16 17  1  0  0  0  0
 18 16  1  0  0  0  0
 19 25  1  0  0  0  0
 19  3  1  0  0  0  0
 19 21  1  0  0  0  0
 20 19  1  0  0  0  0
 23 22  1  0  0  0  0
 23 25  1  0  0  0  0
 24 23  2  0  0  0  0
 25 26  1  0  0  0  0
M  END
>  <minimizedAffinity>
-4.03676319

$$$$

 OpenBabel03252509273D

 26 27  0  0  1  0  0  0  0  0999 V2000
   38.4800   31.4620   40.9650 C   0  0  1  0  0  0  0  0  0  0  0  0
   39.9180   31.5470   41.5490 C   0  0  0  0  0  0  0  0  0  0  0  0
   39.5170   31.6980   40.0490 C   0  0  2  0  0  0  0  0  0  0  0  0
   37.8070   32.2590   41.3440 H   0  0  0  0  0  0  0  0  0  0  0  0
   40.1380   32.4660   42.0870 H   0  0  0  0  0  0  0  0  0  0  0  0
   40.4250   30.6380   41.8610 H   0  0  0  0  0  0  0  0  0  0  0  0
   39.8990   30.8170   39.4450 H   0  0  0  0  0  0  0  0  0  0  0  0
   36.1500   28.5430   41.3270 C   0  0  0  0  0  0  0  0  0  0  0  0
   36.5900   29.8900   41.2380 C   0  0  0  0  0  0  0  0  0  0  0  0
   37.9300   30.0640   41.1370 C   0  0  0  0  0  0  0  0  0  0  0  0
   38.8080   29.0040   41.1250 N   0  0  0  0  0  0  0  0  0  0  0  0
   38.3520   27.7350   41.2110 C   0  0  0  0  0  0  0  0  0  0  0  0
   37.0140   27.5040   41.3120 N   0  0  0  0  0  0  0  0  0  0  0  0
   35.0900   28.3440   41.4080 H   0  0  0  0  0  0  0  0  0  0  0  0
   39.1430   27.0000   41.1900 H   0  0  0  0  0  0  0  0  0  0  0  0
   35.6890   30.9650   41.2940 N   0  0  0  0  0  0  0  0  0  0  0  0
   35.0620   30.9640   42.1370 H   0  0  0  0  0  0  0  0  0  0  0  0
   35.7730   31.6070   40.4940 H   0  0  0  0  0  0  0  0  0  0  0  0
   39.6970   33.0440   39.3890 C   0  0  0  0  0  0  0  0  0  0  0  0
   40.4580   33.6280   39.9500 H   0  0  0  0  0  0  0  0  0  0  0  0
   38.7250   33.5820   39.3460 H   0  0  0  0  0  0  0  0  0  0  0  0
   41.9680   33.0030   36.7170 H   0  0  0  0  0  0  0  0  0  0  0  0
   41.5450   33.1180   37.7110 C   0  0  0  0  0  0  0  0  0  0  0  0
   42.3030   33.5010   38.6590 O   0  0  0  0  0  0  0  0  0  0  0  0
   40.1810   32.8650   38.0290 N   0  0  0  0  0  0  0  0  0  0  0  0
   39.5660   32.5470   37.2250 H   0  0  0  0  0  0  0  0  0  0  0  0
  1 10  1  0  0  0  0
  1  4  1  1  0  0  0
  1  2  1  0  0  0  0
  2  6  1  0  0  0  0
  2  5  1  0  0  0  0
  3  7  1  6  0  0  0
  3  1  1  0  0  0  0
  3  2  1  0  0  0  0
  8 14  1  0  0  0  0
  9 16  1  0  0  0  0
  9  8  2  0  0  0  0
 10  9  1  0  0  0  0
 11 10  2  0  0  0  0
 11 12  1  0  0  0  0
 12 13  2  0  0  0  0
 13  8  1  0  0  0  0
 15 12  1  0  0  0  0
 16 17  1  0  0  0  0
 18 16  1  0  0  0  0
 19 20  1  0  0  0  0
 19  3  1  0  0  0  0
 21 19  1  0  0  0  0
 22 23  1  0  0  0  0
 23 25  1  0  0  0  0
 23 24  2  0  0  0  0
 25 19  1  0  0  0  0
 26 25  1  0  0  0  0
M  END
>  <minimizedAffinity>
-4.01744318

$$$$
