
 OpenBabel03252508343D

 31 32  0  0  1  0  0  0  0  0999 V2000
   45.6990   34.4160   41.7990 N   0  0  0  0  0  0  0  0  0  0  0  0
   47.0610   34.1920   41.3750 C   0  0  1  0  0  0  0  0  0  0  0  0
   47.2240   34.0610   39.9020 C   0  0  0  0  0  0  0  0  0  0  0  0
   46.2080   33.4010   39.2200 N   0  0  0  0  0  0  0  0  0  0  0  0
   44.9030   33.4410   39.7140 C   0  0  0  0  0  0  0  0  0  0  0  0
   44.7450   34.5490   40.7360 C   0  0  0  0  0  0  0  0  0  0  0  0
   47.4350   33.3110   41.9160 H   0  0  0  0  0  0  0  0  0  0  0  0
   47.3720   35.0800   39.4700 H   0  0  0  0  0  0  0  0  0  0  0  0
   48.2000   33.5370   39.7310 H   0  0  0  0  0  0  0  0  0  0  0  0
   46.4130   32.8580   38.3950 H   0  0  0  0  0  0  0  0  0  0  0  0
   44.1770   33.6920   38.8930 H   0  0  0  0  0  0  0  0  0  0  0  0
   44.4950   32.4990   40.1500 H   0  0  0  0  0  0  0  0  0  0  0  0
   43.7330   34.4960   41.1770 H   0  0  0  0  0  0  0  0  0  0  0  0
   44.8520   35.5320   40.2580 H   0  0  0  0  0  0  0  0  0  0  0  0
   44.7640   35.5930   43.6420 C   0  0  0  0  0  0  0  0  0  0  0  0
   45.4480   34.4790   43.1870 C   0  0  0  0  0  0  0  0  0  0  0  0
   45.8360   33.5080   44.1250 C   0  0  0  0  0  0  0  0  0  0  0  0
   45.5370   33.6810   45.4370 N   0  0  0  0  0  0  0  0  0  0  0  0
   44.8660   34.7850   45.8410 C   0  0  0  0  0  0  0  0  0  0  0  0
   44.4890   35.7170   44.9710 N   0  0  0  0  0  0  0  0  0  0  0  0
   44.4210   36.3950   43.0110 H   0  0  0  0  0  0  0  0  0  0  0  0
   46.3590   32.6720   43.7240 H   0  0  0  0  0  0  0  0  0  0  0  0
   44.6720   34.8340   46.9140 H   0  0  0  0  0  0  0  0  0  0  0  0
   47.8670   35.3920   41.8190 C   0  0  0  0  0  0  0  0  0  0  0  0
   47.6920   35.6380   42.8890 H   0  0  0  0  0  0  0  0  0  0  0  0
   47.5280   36.2370   41.1830 H   0  0  0  0  0  0  0  0  0  0  0  0
   51.1540   34.1190   41.9800 H   0  0  0  0  0  0  0  0  0  0  0  0
   50.0990   34.2560   42.2090 C   0  0  0  0  0  0  0  0  0  0  0  0
   49.6440   33.5260   43.1240 O   0  0  0  0  0  0  0  0  0  0  0  0
   49.2590   35.1960   41.5330 N   0  0  0  0  0  0  0  0  0  0  0  0
   49.7850   35.7310   40.7930 H   0  0  0  0  0  0  0  0  0  0  0  0
  1 16  1  0  0  0  0
  2  1  1  0  0  0  0
  2 24  1  0  0  0  0
  2  7  1  1  0  0  0
  3  2  1  0  0  0  0
  4  5  1  0  0  0  0
  4  3  1  0  0  0  0
  5 12  1  0  0  0  0
  5  6  1  0  0  0  0
  6 13  1  0  0  0  0
  6  1  1  0  0  0  0
  8  3  1  0  0  0  0
  9  3  1  0  0  0  0
 10  4  1  0  0  0  0
 11  5  1  0  0  0  0
 14  6  1  0  0  0  0
 15 20  1  0  0  0  0
 16 15  2  0  0  0  0
 16 17  1  0  0  0  0
 17 18  2  0  0  0  0
 18 19  1  0  0  0  0
 19 23  1  0  0  0  0
 20 19  2  0  0  0  0
 21 15  1  0  0  0  0
 22 17  1  0  0  0  0
 24 25  1  0  0  0  0
 26 24  1  0  0  0  0
 27 28  1  0  0  0  0
 28 29  2  0  0  0  0
 30 24  1  0  0  0  0
 30 28  1  0  0  0  0
 31 30  1  0  0  0  0
M  END
>  <minimizedAffinity>
-4.20749664

>  <minimizedRMSD>
0.826999664

$$$$
