
 OpenBabel03252509253D

 26 27  0  0  1  0  0  0  0  0999 V2000
   46.5590   35.0490   41.9190 C   0  0  1  0  0  0  0  0  0  0  0  0
   48.0960   35.2750   41.9300 C   0  0  0  0  0  0  0  0  0  0  0  0
   47.3450   34.0470   41.3290 C   0  0  2  0  0  0  0  0  0  0  0  0
   46.0090   35.8170   41.3350 H   0  0  0  0  0  0  0  0  0  0  0  0
   48.4530   36.0190   41.2230 H   0  0  0  0  0  0  0  0  0  0  0  0
   48.6510   35.1410   42.8550 H   0  0  0  0  0  0  0  0  0  0  0  0
   47.5560   33.1140   41.9380 H   0  0  0  0  0  0  0  0  0  0  0  0
   44.6290   35.4510   45.1120 C   0  0  0  0  0  0  0  0  0  0  0  0
   45.1080   35.7270   43.8040 C   0  0  0  0  0  0  0  0  0  0  0  0
   46.0470   34.8720   43.3310 C   0  0  0  0  0  0  0  0  0  0  0  0
   46.5090   33.8080   44.0710 N   0  0  0  0  0  0  0  0  0  0  0  0
   46.0300   33.5770   45.3130 C   0  0  0  0  0  0  0  0  0  0  0  0
   45.0840   34.4040   45.8350 N   0  0  0  0  0  0  0  0  0  0  0  0
   43.8780   36.0990   45.5410 H   0  0  0  0  0  0  0  0  0  0  0  0
   46.4770   32.7130   45.7830 H   0  0  0  0  0  0  0  0  0  0  0  0
   44.6600   36.8390   43.0740 N   0  0  0  0  0  0  0  0  0  0  0  0
   44.7620   37.7570   43.5750 H   0  0  0  0  0  0  0  0  0  0  0  0
   44.2920   36.5940   42.1440 H   0  0  0  0  0  0  0  0  0  0  0  0
   47.3790   33.8470   39.8330 C   0  0  0  0  0  0  0  0  0  0  0  0
   48.3620   34.1850   39.4400 H   0  0  0  0  0  0  0  0  0  0  0  0
   46.5410   34.4000   39.3540 H   0  0  0  0  0  0  0  0  0  0  0  0
   48.3320   30.5750   39.0060 H   0  0  0  0  0  0  0  0  0  0  0  0
   48.3750   31.6350   39.2460 C   0  0  0  0  0  0  0  0  0  0  0  0
   49.5110   32.2080   39.2850 O   0  0  0  0  0  0  0  0  0  0  0  0
   47.2310   32.4340   39.5210 N   0  0  0  0  0  0  0  0  0  0  0  0
   46.2940   31.9370   39.4840 H   0  0  0  0  0  0  0  0  0  0  0  0
  1  4  1  6  0  0  0
  1  2  1  0  0  0  0
  1 10  1  0  0  0  0
  2  6  1  0  0  0  0
  3  1  1  0  0  0  0
  3  2  1  0  0  0  0
  3  7  1  1  0  0  0
  5  2  1  0  0  0  0
  8 14  1  0  0  0  0
  8 13  1  0  0  0  0
  9  8  2  0  0  0  0
 10  9  1  0  0  0  0
 10 11  2  0  0  0  0
 11 12  1  0  0  0  0
 12 15  1  0  0  0  0
 12 13  2  0  0  0  0
 16 17  1  0  0  0  0
 16  9  1  0  0  0  0
 18 16  1  0  0  0  0
 19  3  1  0  0  0  0
 20 19  1  0  0  0  0
 21 19  1  0  0  0  0
 22 23  1  0  0  0  0
 23 24  2  0  0  0  0
 23 25  1  0  0  0  0
 25 19  1  0  0  0  0
 26 25  1  0  0  0  0
M  END
>  <minimizedAffinity>
-4.19250584

>  <minimizedRMSD>
0.831879914

$$$$
