
 OpenBabel03252509253D

 26 27  0  0  1  0  0  0  0  0999 V2000
   46.7880   35.0370   41.8930 C   0  0  1  0  0  0  0  0  0  0  0  0
   48.2650   35.5170   41.9690 C   0  0  0  0  0  0  0  0  0  0  0  0
   47.7570   34.1730   41.3610 C   0  0  2  0  0  0  0  0  0  0  0  0
   46.1470   35.6950   41.2690 H   0  0  0  0  0  0  0  0  0  0  0  0
   48.5270   36.3010   41.2630 H   0  0  0  0  0  0  0  0  0  0  0  0
   48.7890   35.4900   42.9210 H   0  0  0  0  0  0  0  0  0  0  0  0
   48.0920   33.2970   41.9990 H   0  0  0  0  0  0  0  0  0  0  0  0
   44.7460   35.2510   45.0340 C   0  0  0  0  0  0  0  0  0  0  0  0
   45.2470   35.5860   43.7480 C   0  0  0  0  0  0  0  0  0  0  0  0
   46.2460   34.7970   43.2840 C   0  0  0  0  0  0  0  0  0  0  0  0
   46.7460   33.7420   44.0130 N   0  0  0  0  0  0  0  0  0  0  0  0
   46.2440   33.4530   45.2340 C   0  0  0  0  0  0  0  0  0  0  0  0
   45.2380   34.2130   45.7460 N   0  0  0  0  0  0  0  0  0  0  0  0
   43.9470   35.8450   45.4550 H   0  0  0  0  0  0  0  0  0  0  0  0
   46.7240   32.6040   45.6970 H   0  0  0  0  0  0  0  0  0  0  0  0
   44.7590   36.6900   43.0310 N   0  0  0  0  0  0  0  0  0  0  0  0
   44.7940   37.5990   43.5560 H   0  0  0  0  0  0  0  0  0  0  0  0
   44.4330   36.4480   42.0850 H   0  0  0  0  0  0  0  0  0  0  0  0
   47.8960   33.9610   39.8720 C   0  0  0  0  0  0  0  0  0  0  0  0
   48.0180   34.9450   39.3720 H   0  0  0  0  0  0  0  0  0  0  0  0
   47.0090   33.4160   39.4810 H   0  0  0  0  0  0  0  0  0  0  0  0
   49.8100   31.1180   39.1320 H   0  0  0  0  0  0  0  0  0  0  0  0
   48.9660   31.7680   39.3450 C   0  0  0  0  0  0  0  0  0  0  0  0
   47.7970   31.2630   39.3750 O   0  0  0  0  0  0  0  0  0  0  0  0
   49.0800   33.1640   39.5960 N   0  0  0  0  0  0  0  0  0  0  0  0
   50.0620   33.5650   39.5670 H   0  0  0  0  0  0  0  0  0  0  0  0
  1  4  1  6  0  0  0
  1  2  1  0  0  0  0
  1 10  1  0  0  0  0
  2  6  1  0  0  0  0
  3  1  1  0  0  0  0
  3  2  1  0  0  0  0
  3  7  1  1  0  0  0
  5  2  1  0  0  0  0
  8 14  1  0  0  0  0
  8 13  1  0  0  0  0
  9  8  2  0  0  0  0
 10  9  1  0  0  0  0
 10 11  2  0  0  0  0
 11 12  1  0  0  0  0
 12 15  1  0  0  0  0
 12 13  2  0  0  0  0
 16 17  1  0  0  0  0
 16  9  1  0  0  0  0
 18 16  1  0  0  0  0
 19  3  1  0  0  0  0
 20 19  1  0  0  0  0
 21 19  1  0  0  0  0
 22 23  1  0  0  0  0
 23 24  2  0  0  0  0
 23 25  1  0  0  0  0
 25 19  1  0  0  0  0
 26 25  1  0  0  0  0
M  END
>  <minimizedAffinity>
-4.3383956

>  <minimizedRMSD>
0.603622854

$$$$
