
 OpenBabel03252508283D

 35 37  0  0  1  0  0  0  0  0999 V2000
   42.0800   33.7130   39.5970 N   0  0  0  0  0  0  0  0  0  0  0  0
   42.0350   33.7280   41.0640 C   0  0  2  0  0  0  0  0  0  0  0  0
   40.9290   34.5720   41.5890 C   0  0  0  0  0  0  0  0  0  0  0  0
   39.9920   34.9990   40.5640 N   0  0  0  0  0  0  0  0  0  0  0  0
   40.5610   35.4680   39.3530 C   0  0  0  0  0  0  0  0  0  0  0  0
   42.0050   35.1480   39.2290 C   0  0  2  0  0  0  0  0  0  0  0  0
   43.0280   33.3880   39.3210 H   0  0  0  0  0  0  0  0  0  0  0  0
   41.9220   32.6620   41.3530 H   0  0  0  0  0  0  0  0  0  0  0  0
   41.2070   35.5540   42.0090 H   0  0  0  0  0  0  0  0  0  0  0  0
   40.3290   33.9620   42.3030 H   0  0  0  0  0  0  0  0  0  0  0  0
   39.1890   34.3450   40.4670 H   0  0  0  0  0  0  0  0  0  0  0  0
   39.9270   35.0330   38.5360 H   0  0  0  0  0  0  0  0  0  0  0  0
   40.4140   36.5750   39.2270 H   0  0  0  0  0  0  0  0  0  0  0  0
   42.5300   35.7420   40.0100 H   0  0  0  0  0  0  0  0  0  0  0  0
   45.4250   34.5390   41.9900 C   0  0  0  0  0  0  0  0  0  0  0  0
   44.6800   35.6250   42.4590 C   0  0  0  0  0  0  0  0  0  0  0  0
   43.3360   35.4340   42.1680 C   0  0  0  0  0  0  0  0  0  0  0  0
   43.2960   34.2610   41.5410 N   0  0  0  0  0  0  0  0  0  0  0  0
   44.5120   33.7380   41.4360 N   0  0  0  0  0  0  0  0  0  0  0  0
   45.2140   36.4340   42.9620 H   0  0  0  0  0  0  0  0  0  0  0  0
   42.7570   36.2730   42.5380 H   0  0  0  0  0  0  0  0  0  0  0  0
   49.1390   35.0810   41.9870 C   0  0  0  0  0  0  0  0  0  0  0  0
   47.7630   35.3720   41.7880 C   0  0  0  0  0  0  0  0  0  0  0  0
   46.8730   34.3890   42.1350 C   0  0  0  0  0  0  0  0  0  0  0  0
   47.3340   33.2170   42.6380 N   0  0  0  0  0  0  0  0  0  0  0  0
   48.6510   32.9700   42.8160 C   0  0  0  0  0  0  0  0  0  0  0  0
   49.5240   33.9110   42.4850 N   0  0  0  0  0  0  0  0  0  0  0  0
   49.8450   35.8560   41.7130 H   0  0  0  0  0  0  0  0  0  0  0  0
   47.3890   36.2960   41.3910 H   0  0  0  0  0  0  0  0  0  0  0  0
   48.8740   31.9920   43.2280 H   0  0  0  0  0  0  0  0  0  0  0  0
   42.9240   36.3630   36.1130 H   0  0  0  0  0  0  0  0  0  0  0  0
   42.2670   36.3020   36.9730 C   0  0  0  0  0  0  0  0  0  0  0  0
   41.2320   37.0090   36.9690 O   0  0  0  0  0  0  0  0  0  0  0  0
   42.6410   35.4320   38.0140 N   0  0  0  0  0  0  0  0  0  0  0  0
   43.5410   34.8700   37.9300 H   0  0  0  0  0  0  0  0  0  0  0  0
  1  2  1  0  0  0  0
  2  8  1  1  0  0  0
  2 18  1  0  0  0  0
  2  3  1  0  0  0  0
  3  9  1  0  0  0  0
  3 10  1  0  0  0  0
  4  3  1  0  0  0  0
  5  4  1  0  0  0  0
  6  5  1  0  0  0  0
  6  1  1  0  0  0  0
  6 14  1  1  0  0  0
  7  1  1  0  0  0  0
 11  4  1  0  0  0  0
 12  5  1  0  0  0  0
 13  5  1  0  0  0  0
 15 24  1  0  0  0  0
 15 16  1  0  0  0  0
 16 20  1  0  0  0  0
 17 16  2  0  0  0  0
 17 21  1  0  0  0  0
 18 17  1  0  0  0  0
 19 18  1  0  0  0  0
 19 15  2  0  0  0  0
 22 27  1  0  0  0  0
 23 22  2  0  0  0  0
 23 24  1  0  0  0  0
 24 25  2  0  0  0  0
 25 26  1  0  0  0  0
 26 30  1  0  0  0  0
 27 26  2  0  0  0  0
 28 22  1  0  0  0  0
 29 23  1  0  0  0  0
 31 32  1  0  0  0  0
 32 34  1  0  0  0  0
 33 32  2  0  0  0  0
 34  6  1  0  0  0  0
 35 34  1  0  0  0  0
M  END
>  <minimizedAffinity>
-5.04182196

>  <minimizedRMSD>
0.622914433

$$$$
