
 OpenBabel03242522003D

 28 29  0  0  1  0  0  0  0  0999 V2000
   46.2900   34.2510   42.0990 N   0  0  0  0  0  0  0  0  0  0  0  0
   45.4760   34.2470   40.8990 C   0  0  0  0  0  0  0  0  0  0  0  0
   46.0740   33.4230   39.7990 C   0  0  0  0  0  0  0  0  0  0  0  0
   47.4460   33.7290   39.5240 N   0  0  0  0  0  0  0  0  0  0  0  0
   48.2530   34.0700   40.6240 C   0  0  2  0  0  0  0  0  0  0  0  0
   47.6700   33.9260   41.9820 C   0  0  0  0  0  0  0  0  0  0  0  0
   45.1960   35.2710   40.5880 H   0  0  0  0  0  0  0  0  0  0  0  0
   44.5160   33.7510   41.2100 H   0  0  0  0  0  0  0  0  0  0  0  0
   45.9960   32.3430   40.0990 H   0  0  0  0  0  0  0  0  0  0  0  0
   45.4590   33.5740   38.8960 H   0  0  0  0  0  0  0  0  0  0  0  0
   47.5740   34.3370   38.6840 H   0  0  0  0  0  0  0  0  0  0  0  0
   49.1820   33.4450   40.6100 H   0  0  0  0  0  0  0  0  0  0  0  0
   48.2780   34.5020   42.7100 H   0  0  0  0  0  0  0  0  0  0  0  0
   47.7840   32.8480   42.2830 H   0  0  0  0  0  0  0  0  0  0  0  0
   44.4430   35.9280   44.9000 C   0  0  0  0  0  0  0  0  0  0  0  0
   44.9530   35.7140   43.6130 C   0  0  0  0  0  0  0  0  0  0  0  0
   45.7240   34.5720   43.3550 C   0  0  0  0  0  0  0  0  0  0  0  0
   45.9230   33.7310   44.4050 N   0  0  0  0  0  0  0  0  0  0  0  0
   45.4240   33.9470   45.6470 C   0  0  0  0  0  0  0  0  0  0  0  0
   44.6840   35.0490   45.8830 N   0  0  0  0  0  0  0  0  0  0  0  0
   43.8620   36.8530   44.9650 H   0  0  0  0  0  0  0  0  0  0  0  0
   44.8310   36.3400   42.7460 H   0  0  0  0  0  0  0  0  0  0  0  0
   45.6090   33.2510   46.4480 H   0  0  0  0  0  0  0  0  0  0  0  0
   49.7880   37.1510   41.4030 H   0  0  0  0  0  0  0  0  0  0  0  0
   49.4450   36.1490   41.4920 C   0  0  0  0  0  0  0  0  0  0  0  0
   49.6910   35.5130   42.5720 O   0  0  0  0  0  0  0  0  0  0  0  0
   48.7230   35.4380   40.5020 N   0  0  0  0  0  0  0  0  0  0  0  0
   48.5060   35.9420   39.6000 H   0  0  0  0  0  0  0  0  0  0  0  0
  1 17  1  0  0  0  0
  2  8  1  0  0  0  0
  2  1  1  0  0  0  0
  3  9  1  0  0  0  0
  3  2  1  0  0  0  0
  4  3  1  0  0  0  0
  4  5  1  0  0  0  0
  5 12  1  6  0  0  0
  5  6  1  0  0  0  0
  6  1  1  0  0  0  0
  6 14  1  0  0  0  0
  6 13  1  0  0  0  0
  7  2  1  0  0  0  0
 10  3  1  0  0  0  0
 11  4  1  0  0  0  0
 15 21  1  0  0  0  0
 15 20  1  0  0  0  0
 16 15  2  0  0  0  0
 17 16  1  0  0  0  0
 17 18  2  0  0  0  0
 18 19  1  0  0  0  0
 19 20  2  0  0  0  0
 19 23  1  0  0  0  0
 22 16  1  0  0  0  0
 24 25  1  0  0  0  0
 25 26  2  0  0  0  0
 27  5  1  0  0  0  0
 27 25  1  0  0  0  0
 28 27  1  0  0  0  0
M  END
>  <minimizedAffinity>
-4.67288017

>  <minimizedRMSD>
1.23191071

$$$$
