
 OpenBabel03252508353D

 31 32  0  0  1  0  0  0  0  0999 V2000
   37.2720   30.6560   39.6960 N   0  0  0  0  0  0  0  0  0  0  0  0
   36.5530   30.2680   40.8870 C   0  0  1  0  0  0  0  0  0  0  0  0
   35.6390   29.1100   40.6930 C   0  0  0  0  0  0  0  0  0  0  0  0
   34.9750   29.0390   39.4740 N   0  0  0  0  0  0  0  0  0  0  0  0
   35.5670   29.5790   38.3310 C   0  0  0  0  0  0  0  0  0  0  0  0
   37.0470   29.8230   38.5510 C   0  0  0  0  0  0  0  0  0  0  0  0
   36.0250   31.1580   41.2590 H   0  0  0  0  0  0  0  0  0  0  0  0
   36.2170   28.1710   40.8680 H   0  0  0  0  0  0  0  0  0  0  0  0
   34.8940   29.1440   41.5310 H   0  0  0  0  0  0  0  0  0  0  0  0
   34.0520   28.6380   39.4150 H   0  0  0  0  0  0  0  0  0  0  0  0
   35.5130   28.8520   37.4750 H   0  0  0  0  0  0  0  0  0  0  0  0
   35.1140   30.5110   37.9160 H   0  0  0  0  0  0  0  0  0  0  0  0
   37.4660   30.3370   37.6670 H   0  0  0  0  0  0  0  0  0  0  0  0
   37.5800   28.8700   38.6700 H   0  0  0  0  0  0  0  0  0  0  0  0
   39.4280   31.6180   39.4080 C   0  0  0  0  0  0  0  0  0  0  0  0
   38.1050   31.7930   39.7770 C   0  0  0  0  0  0  0  0  0  0  0  0
   37.6970   33.0690   40.2000 C   0  0  0  0  0  0  0  0  0  0  0  0
   38.5940   34.0860   40.2350 N   0  0  0  0  0  0  0  0  0  0  0  0
   39.8780   33.8740   39.8650 C   0  0  0  0  0  0  0  0  0  0  0  0
   40.2870   32.6740   39.4620 N   0  0  0  0  0  0  0  0  0  0  0  0
   39.8460   30.6850   39.0700 H   0  0  0  0  0  0  0  0  0  0  0  0
   36.6710   33.1500   40.4730 H   0  0  0  0  0  0  0  0  0  0  0  0
   40.5230   34.7510   39.9270 H   0  0  0  0  0  0  0  0  0  0  0  0
   37.5840   29.8690   41.9180 C   0  0  0  0  0  0  0  0  0  0  0  0
   38.2420   30.7200   42.2000 H   0  0  0  0  0  0  0  0  0  0  0  0
   38.1920   29.0700   41.4450 H   0  0  0  0  0  0  0  0  0  0  0  0
   36.8770   27.6250   44.5480 H   0  0  0  0  0  0  0  0  0  0  0  0
   37.3680   28.0590   43.6800 C   0  0  0  0  0  0  0  0  0  0  0  0
   38.3510   27.4160   43.2360 O   0  0  0  0  0  0  0  0  0  0  0  0
   36.9490   29.2800   43.0620 N   0  0  0  0  0  0  0  0  0  0  0  0
   36.1150   29.6990   43.5490 H   0  0  0  0  0  0  0  0  0  0  0  0
  1 16  1  0  0  0  0
  1  2  1  0  0  0  0
  2  7  1  1  0  0  0
  2 24  1  0  0  0  0
  3  8  1  0  0  0  0
  3  2  1  0  0  0  0
  3  9  1  0  0  0  0
  4  3  1  0  0  0  0
  5  6  1  0  0  0  0
  5  4  1  0  0  0  0
  6 14  1  0  0  0  0
  6  1  1  0  0  0  0
 10  4  1  0  0  0  0
 11  5  1  0  0  0  0
 12  5  1  0  0  0  0
 13  6  1  0  0  0  0
 15 20  2  0  0  0  0
 15 16  1  0  0  0  0
 16 17  2  0  0  0  0
 17 18  1  0  0  0  0
 17 22  1  0  0  0  0
 19 23  1  0  0  0  0
 19 18  2  0  0  0  0
 20 19  1  0  0  0  0
 21 15  1  0  0  0  0
 24 25  1  0  0  0  0
 24 30  1  0  0  0  0
 26 24  1  0  0  0  0
 28 27  1  0  0  0  0
 29 28  2  0  0  0  0
 30 31  1  0  0  0  0
 30 28  1  0  0  0  0
M  END
>  <minimizedAffinity>
-4.35495329

$$$$

 OpenBabel03252508353D

 31 32  0  0  1  0  0  0  0  0999 V2000
   37.4400   30.7000   39.6620 N   0  0  0  0  0  0  0  0  0  0  0  0
   36.6650   30.3280   40.8220 C   0  0  1  0  0  0  0  0  0  0  0  0
   35.7390   29.1870   40.5910 C   0  0  0  0  0  0  0  0  0  0  0  0
   35.1260   29.1250   39.3450 N   0  0  0  0  0  0  0  0  0  0  0  0
   35.7750   29.6520   38.2270 C   0  0  0  0  0  0  0  0  0  0  0  0
   37.2480   29.8680   38.5100 C   0  0  0  0  0  0  0  0  0  0  0  0
   36.1390   31.2290   41.1700 H   0  0  0  0  0  0  0  0  0  0  0  0
   36.2920   28.2370   40.7910 H   0  0  0  0  0  0  0  0  0  0  0  0
   34.9600   29.2360   41.3970 H   0  0  0  0  0  0  0  0  0  0  0  0
   34.1980   28.7410   39.2490 H   0  0  0  0  0  0  0  0  0  0  0  0
   35.7420   28.9240   37.3720 H   0  0  0  0  0  0  0  0  0  0  0  0
   35.3570   30.5910   37.7930 H   0  0  0  0  0  0  0  0  0  0  0  0
   37.7130   30.3730   37.6430 H   0  0  0  0  0  0  0  0  0  0  0  0
   37.7580   28.9070   38.6520 H   0  0  0  0  0  0  0  0  0  0  0  0
   37.6850   33.0300   40.0780 C   0  0  0  0  0  0  0  0  0  0  0  0
   38.2910   31.8210   39.7760 C   0  0  0  0  0  0  0  0  0  0  0  0
   39.6850   31.8000   39.6080 C   0  0  0  0  0  0  0  0  0  0  0  0
   40.3980   32.9470   39.7440 N   0  0  0  0  0  0  0  0  0  0  0  0
   39.7680   34.1080   40.0400 C   0  0  0  0  0  0  0  0  0  0  0  0
   38.4490   34.1510   40.2030 N   0  0  0  0  0  0  0  0  0  0  0  0
   36.6280   33.1580   40.2280 H   0  0  0  0  0  0  0  0  0  0  0  0
   40.1010   30.8480   39.3770 H   0  0  0  0  0  0  0  0  0  0  0  0
   40.4250   34.9740   40.1290 H   0  0  0  0  0  0  0  0  0  0  0  0
   37.6440   29.9120   41.8960 C   0  0  0  0  0  0  0  0  0  0  0  0
   38.2900   30.7580   42.2210 H   0  0  0  0  0  0  0  0  0  0  0  0
   38.2740   29.1190   41.4420 H   0  0  0  0  0  0  0  0  0  0  0  0
   36.8600   27.6830   44.5160 H   0  0  0  0  0  0  0  0  0  0  0  0
   37.3940   28.1290   43.6800 C   0  0  0  0  0  0  0  0  0  0  0  0
   38.4470   27.5390   43.3330 O   0  0  0  0  0  0  0  0  0  0  0  0
   36.9550   29.3080   42.9990 N   0  0  0  0  0  0  0  0  0  0  0  0
   36.0590   29.6850   43.4060 H   0  0  0  0  0  0  0  0  0  0  0  0
  1 16  1  0  0  0  0
  1  2  1  0  0  0  0
  2  7  1  1  0  0  0
  2 24  1  0  0  0  0
  3  8  1  0  0  0  0
  3  2  1  0  0  0  0
  3  9  1  0  0  0  0
  4  3  1  0  0  0  0
  5  6  1  0  0  0  0
  5  4  1  0  0  0  0
  6 14  1  0  0  0  0
  6  1  1  0  0  0  0
 10  4  1  0  0  0  0
 11  5  1  0  0  0  0
 12  5  1  0  0  0  0
 13  6  1  0  0  0  0
 15 20  1  0  0  0  0
 15 21  1  0  0  0  0
 16 15  2  0  0  0  0
 17 18  2  0  0  0  0
 17 16  1  0  0  0  0
 18 19  1  0  0  0  0
 19 23  1  0  0  0  0
 19 20  2  0  0  0  0
 22 17  1  0  0  0  0
 24 25  1  0  0  0  0
 24 30  1  0  0  0  0
 26 24  1  0  0  0  0
 28 27  1  0  0  0  0
 29 28  2  0  0  0  0
 30 31  1  0  0  0  0
 30 28  1  0  0  0  0
M  END
>  <minimizedAffinity>
-4.34296131

$$$$

 OpenBabel03252508353D

 31 32  0  0  1  0  0  0  0  0999 V2000
   37.3150   29.6750   39.6140 N   0  0  0  0  0  0  0  0  0  0  0  0
   37.7620   31.0250   39.3630 C   0  0  1  0  0  0  0  0  0  0  0  0
   37.5790   31.4720   37.9560 C   0  0  0  0  0  0  0  0  0  0  0  0
   37.7890   30.5170   36.9680 N   0  0  0  0  0  0  0  0  0  0  0  0
   37.5440   29.1710   37.2430 C   0  0  0  0  0  0  0  0  0  0  0  0
   36.7040   29.0190   38.4950 C   0  0  0  0  0  0  0  0  0  0  0  0
   38.8100   31.0920   39.6900 H   0  0  0  0  0  0  0  0  0  0  0  0
   36.5560   31.9080   37.8540 H   0  0  0  0  0  0  0  0  0  0  0  0
   38.2740   32.3400   37.8010 H   0  0  0  0  0  0  0  0  0  0  0  0
   38.1560   30.7840   36.0670 H   0  0  0  0  0  0  0  0  0  0  0  0
   36.9370   28.7030   36.4210 H   0  0  0  0  0  0  0  0  0  0  0  0
   38.4320   28.5010   37.3300 H   0  0  0  0  0  0  0  0  0  0  0  0
   36.6080   27.9450   38.7400 H   0  0  0  0  0  0  0  0  0  0  0  0
   35.6940   29.4180   38.3320 H   0  0  0  0  0  0  0  0  0  0  0  0
   36.4720   28.4280   41.4560 C   0  0  0  0  0  0  0  0  0  0  0  0
   37.5190   29.1490   40.9080 C   0  0  0  0  0  0  0  0  0  0  0  0
   38.6910   29.3000   41.6690 C   0  0  0  0  0  0  0  0  0  0  0  0
   38.7690   28.7460   42.9040 N   0  0  0  0  0  0  0  0  0  0  0  0
   37.7220   28.0480   43.4040 C   0  0  0  0  0  0  0  0  0  0  0  0
   36.6040   27.8920   42.7020 N   0  0  0  0  0  0  0  0  0  0  0  0
   35.5330   28.2510   40.9620 H   0  0  0  0  0  0  0  0  0  0  0  0
   39.4650   29.8630   41.2030 H   0  0  0  0  0  0  0  0  0  0  0  0
   37.8800   27.6410   44.4030 H   0  0  0  0  0  0  0  0  0  0  0  0
   36.9370   31.9370   40.2430 C   0  0  0  0  0  0  0  0  0  0  0  0
   37.1810   31.8080   41.3210 H   0  0  0  0  0  0  0  0  0  0  0  0
   35.8790   31.6530   40.0660 H   0  0  0  0  0  0  0  0  0  0  0  0
   38.2440   35.1930   39.8650 H   0  0  0  0  0  0  0  0  0  0  0  0
   38.1550   34.1600   40.1950 C   0  0  0  0  0  0  0  0  0  0  0  0
   39.0760   33.7480   40.9420 O   0  0  0  0  0  0  0  0  0  0  0  0
   37.0730   33.3010   39.8210 N   0  0  0  0  0  0  0  0  0  0  0  0
   36.3840   33.7900   39.1930 H   0  0  0  0  0  0  0  0  0  0  0  0
  1 16  1  0  0  0  0
  2  1  1  0  0  0  0
  2  7  1  1  0  0  0
  2 24  1  0  0  0  0
  3  2  1  0  0  0  0
  4  5  1  0  0  0  0
  4  3  1  0  0  0  0
  5 12  1  0  0  0  0
  5  6  1  0  0  0  0
  6 13  1  0  0  0  0
  6  1  1  0  0  0  0
  8  3  1  0  0  0  0
  9  3  1  0  0  0  0
 10  4  1  0  0  0  0
 11  5  1  0  0  0  0
 14  6  1  0  0  0  0
 15 20  1  0  0  0  0
 16 15  2  0  0  0  0
 16 17  1  0  0  0  0
 17 18  2  0  0  0  0
 18 19  1  0  0  0  0
 19 23  1  0  0  0  0
 20 19  2  0  0  0  0
 21 15  1  0  0  0  0
 22 17  1  0  0  0  0
 24 25  1  0  0  0  0
 26 24  1  0  0  0  0
 27 28  1  0  0  0  0
 28 29  2  0  0  0  0
 30 28  1  0  0  0  0
 30 24  1  0  0  0  0
 31 30  1  0  0  0  0
M  END
>  <minimizedAffinity>
-4.31663275

$$$$

 OpenBabel03252508353D

 31 32  0  0  1  0  0  0  0  0999 V2000
   38.5390   30.5050   40.2210 N   0  0  0  0  0  0  0  0  0  0  0  0
   37.2420   30.9170   39.7400 C   0  0  1  0  0  0  0  0  0  0  0  0
   36.2000   31.0000   40.7990 C   0  0  0  0  0  0  0  0  0  0  0  0
   36.2530   30.0370   41.8000 N   0  0  0  0  0  0  0  0  0  0  0  0
   37.4810   29.4780   42.1590 C   0  0  0  0  0  0  0  0  0  0  0  0
   38.6300   30.3180   41.6400 C   0  0  0  0  0  0  0  0  0  0  0  0
   36.9570   30.2310   38.9280 H   0  0  0  0  0  0  0  0  0  0  0  0
   36.2360   32.0210   41.2510 H   0  0  0  0  0  0  0  0  0  0  0  0
   35.2070   30.9550   40.2800 H   0  0  0  0  0  0  0  0  0  0  0  0
   35.4070   29.7080   42.2410 H   0  0  0  0  0  0  0  0  0  0  0  0
   37.6010   29.4720   43.2760 H   0  0  0  0  0  0  0  0  0  0  0  0
   37.6610   28.4160   41.8670 H   0  0  0  0  0  0  0  0  0  0  0  0
   39.5840   29.8030   41.8560 H   0  0  0  0  0  0  0  0  0  0  0  0
   38.6540   31.2930   42.1450 H   0  0  0  0  0  0  0  0  0  0  0  0
   39.3260   29.4080   38.2620 C   0  0  0  0  0  0  0  0  0  0  0  0
   39.5650   30.3310   39.2670 C   0  0  0  0  0  0  0  0  0  0  0  0
   40.7920   31.0160   39.2630 C   0  0  0  0  0  0  0  0  0  0  0  0
   41.7020   30.7620   38.2890 N   0  0  0  0  0  0  0  0  0  0  0  0
   41.4300   29.8520   37.3250 C   0  0  0  0  0  0  0  0  0  0  0  0
   40.2750   29.1930   37.3090 N   0  0  0  0  0  0  0  0  0  0  0  0
   38.4230   28.8310   38.1710 H   0  0  0  0  0  0  0  0  0  0  0  0
   40.9260   31.7130   40.0560 H   0  0  0  0  0  0  0  0  0  0  0  0
   42.2220   29.7170   36.5870 H   0  0  0  0  0  0  0  0  0  0  0  0
   37.4040   32.2990   39.1500 C   0  0  0  0  0  0  0  0  0  0  0  0
   36.6690   32.4940   38.3380 H   0  0  0  0  0  0  0  0  0  0  0  0
   38.4330   32.3320   38.7340 H   0  0  0  0  0  0  0  0  0  0  0  0
   38.3680   34.9130   41.3150 H   0  0  0  0  0  0  0  0  0  0  0  0
   38.4290   34.1610   40.5310 C   0  0  0  0  0  0  0  0  0  0  0  0
   39.5310   34.0890   39.9340 O   0  0  0  0  0  0  0  0  0  0  0  0
   37.3450   33.2960   40.1790 N   0  0  0  0  0  0  0  0  0  0  0  0
   36.4910   33.4790   40.7680 H   0  0  0  0  0  0  0  0  0  0  0  0
  1  6  1  0  0  0  0
  2  7  1  6  0  0  0
  2  1  1  0  0  0  0
  2  3  1  0  0  0  0
  3  8  1  0  0  0  0
  3  4  1  0  0  0  0
  4  5  1  0  0  0  0
  4 10  1  0  0  0  0
  5 11  1  0  0  0  0
  6 13  1  0  0  0  0
  6 14  1  0  0  0  0
  6  5  1  0  0  0  0
  9  3  1  0  0  0  0
 12  5  1  0  0  0  0
 15 16  1  0  0  0  0
 16  1  1  0  0  0  0
 17 16  2  0  0  0  0
 17 22  1  0  0  0  0
 18 17  1  0  0  0  0
 19 18  2  0  0  0  0
 20 19  1  0  0  0  0
 20 15  2  0  0  0  0
 21 15  1  0  0  0  0
 23 19  1  0  0  0  0
 24  2  1  0  0  0  0
 24 30  1  0  0  0  0
 25 24  1  0  0  0  0
 26 24  1  0  0  0  0
 28 27  1  0  0  0  0
 29 28  2  0  0  0  0
 30 28  1  0  0  0  0
 30 31  1  0  0  0  0
M  END
>  <minimizedAffinity>
-4.12099123

$$$$

 OpenBabel03252508353D

 31 32  0  0  1  0  0  0  0  0999 V2000
   38.8720   31.0500   40.6690 N   0  0  0  0  0  0  0  0  0  0  0  0
   38.0810   32.2570   40.6710 C   0  0  1  0  0  0  0  0  0  0  0  0
   38.8590   33.4920   40.3760 C   0  0  0  0  0  0  0  0  0  0  0  0
   40.1490   33.5510   40.8900 N   0  0  0  0  0  0  0  0  0  0  0  0
   40.8740   32.3740   41.0790 C   0  0  0  0  0  0  0  0  0  0  0  0
   40.2500   31.2250   40.3130 C   0  0  0  0  0  0  0  0  0  0  0  0
   37.5630   32.3120   41.6390 H   0  0  0  0  0  0  0  0  0  0  0  0
   38.8820   33.6380   39.2690 H   0  0  0  0  0  0  0  0  0  0  0  0
   38.2540   34.3540   40.7620 H   0  0  0  0  0  0  0  0  0  0  0  0
   40.5500   34.4340   41.1660 H   0  0  0  0  0  0  0  0  0  0  0  0
   41.9120   32.4770   40.6620 H   0  0  0  0  0  0  0  0  0  0  0  0
   41.0430   32.0450   42.1320 H   0  0  0  0  0  0  0  0  0  0  0  0
   40.7870   30.2900   40.5570 H   0  0  0  0  0  0  0  0  0  0  0  0
   40.3390   31.3900   39.2310 H   0  0  0  0  0  0  0  0  0  0  0  0
   38.4280   28.7680   40.1640 C   0  0  0  0  0  0  0  0  0  0  0  0
   38.2230   29.8430   41.0120 C   0  0  0  0  0  0  0  0  0  0  0  0
   37.3970   29.6580   42.1330 C   0  0  0  0  0  0  0  0  0  0  0  0
   36.8270   28.4470   42.3580 N   0  0  0  0  0  0  0  0  0  0  0  0
   37.0530   27.4210   41.5050 C   0  0  0  0  0  0  0  0  0  0  0  0
   37.8310   27.5740   40.4370 N   0  0  0  0  0  0  0  0  0  0  0  0
   39.0400   28.8000   39.2800 H   0  0  0  0  0  0  0  0  0  0  0  0
   37.2720   30.5150   42.7520 H   0  0  0  0  0  0  0  0  0  0  0  0
   36.5520   26.4880   41.7690 H   0  0  0  0  0  0  0  0  0  0  0  0
   37.0360   32.1060   39.5880 C   0  0  0  0  0  0  0  0  0  0  0  0
   36.0820   32.6100   39.8580 H   0  0  0  0  0  0  0  0  0  0  0  0
   36.8640   31.0150   39.4840 H   0  0  0  0  0  0  0  0  0  0  0  0
   38.2160   32.0740   36.2630 H   0  0  0  0  0  0  0  0  0  0  0  0
   37.8290   31.7120   37.2130 C   0  0  0  0  0  0  0  0  0  0  0  0
   37.6360   30.4730   37.2830 O   0  0  0  0  0  0  0  0  0  0  0  0
   37.5470   32.5630   38.3290 N   0  0  0  0  0  0  0  0  0  0  0  0
   37.7590   33.5720   38.1140 H   0  0  0  0  0  0  0  0  0  0  0  0
  1  2  1  0  0  0  0
  1 16  1  0  0  0  0
  2  7  1  1  0  0  0
  3  2  1  0  0  0  0
  3  9  1  0  0  0  0
  3  4  1  0  0  0  0
  4  5  1  0  0  0  0
  4 10  1  0  0  0  0
  5 12  1  0  0  0  0
  6 13  1  0  0  0  0
  6  1  1  0  0  0  0
  6  5  1  0  0  0  0
  8  3  1  0  0  0  0
 11  5  1  0  0  0  0
 14  6  1  0  0  0  0
 15 20  2  0  0  0  0
 15 16  1  0  0  0  0
 16 17  2  0  0  0  0
 17 18  1  0  0  0  0
 17 22  1  0  0  0  0
 19 23  1  0  0  0  0
 19 18  2  0  0  0  0
 20 19  1  0  0  0  0
 21 15  1  0  0  0  0
 24 25  1  0  0  0  0
 24  2  1  0  0  0  0
 26 24  1  0  0  0  0
 27 28  1  0  0  0  0
 28 29  2  0  0  0  0
 28 30  1  0  0  0  0
 30 24  1  0  0  0  0
 31 30  1  0  0  0  0
M  END
>  <minimizedAffinity>
-3.97272444

$$$$

 OpenBabel03252508353D

 31 32  0  0  1  0  0  0  0  0999 V2000
   36.5730   28.3080   41.0070 N   0  0  0  0  0  0  0  0  0  0  0  0
   37.0430   29.6200   41.3850 C   0  0  1  0  0  0  0  0  0  0  0  0
   37.7800   29.6510   42.6780 C   0  0  0  0  0  0  0  0  0  0  0  0
   37.3130   28.8080   43.6800 N   0  0  0  0  0  0  0  0  0  0  0  0
   36.6790   27.6120   43.3390 C   0  0  0  0  0  0  0  0  0  0  0  0
   36.9540   27.2470   41.8940 C   0  0  0  0  0  0  0  0  0  0  0  0
   36.1760   30.2950   41.3830 H   0  0  0  0  0  0  0  0  0  0  0  0
   38.8580   29.4420   42.4760 H   0  0  0  0  0  0  0  0  0  0  0  0
   37.7600   30.7140   43.0350 H   0  0  0  0  0  0  0  0  0  0  0  0
   37.3910   29.0720   44.6500 H   0  0  0  0  0  0  0  0  0  0  0  0
   37.0920   26.7590   43.9420 H   0  0  0  0  0  0  0  0  0  0  0  0
   35.5780   27.5520   43.5140 H   0  0  0  0  0  0  0  0  0  0  0  0
   36.3640   26.3510   41.6260 H   0  0  0  0  0  0  0  0  0  0  0  0
   38.0150   27.0040   41.7530 H   0  0  0  0  0  0  0  0  0  0  0  0
   34.6960   29.0340   39.7380 C   0  0  0  0  0  0  0  0  0  0  0  0
   35.8020   28.2050   39.8290 C   0  0  0  0  0  0  0  0  0  0  0  0
   36.0710   27.3360   38.7590 C   0  0  0  0  0  0  0  0  0  0  0  0
   35.2540   27.3270   37.6760 N   0  0  0  0  0  0  0  0  0  0  0  0
   34.1830   28.1530   37.6250 C   0  0  0  0  0  0  0  0  0  0  0  0
   33.9090   28.9840   38.6270 N   0  0  0  0  0  0  0  0  0  0  0  0
   34.4000   29.7350   40.4980 H   0  0  0  0  0  0  0  0  0  0  0  0
   36.9310   26.7200   38.8780 H   0  0  0  0  0  0  0  0  0  0  0  0
   33.5870   28.0740   36.7150 H   0  0  0  0  0  0  0  0  0  0  0  0
   37.9970   30.0780   40.3050 C   0  0  0  0  0  0  0  0  0  0  0  0
   38.1340   29.3070   39.5160 H   0  0  0  0  0  0  0  0  0  0  0  0
   38.9660   30.2620   40.8150 H   0  0  0  0  0  0  0  0  0  0  0  0
   37.6870   33.5580   39.8100 H   0  0  0  0  0  0  0  0  0  0  0  0
   38.0170   32.6120   40.2340 C   0  0  0  0  0  0  0  0  0  0  0  0
   38.8300   32.7000   41.1870 O   0  0  0  0  0  0  0  0  0  0  0  0
   37.5740   31.3360   39.7610 N   0  0  0  0  0  0  0  0  0  0  0  0
   36.8980   31.4290   38.9600 H   0  0  0  0  0  0  0  0  0  0  0  0
  1  2  1  0  0  0  0
  1  6  1  0  0  0  0
  2  7  1  1  0  0  0
  2  3  1  0  0  0  0
  3  9  1  0  0  0  0
  3  4  1  0  0  0  0
  4 10  1  0  0  0  0
  5 12  1  0  0  0  0
  5  4  1  0  0  0  0
  5 11  1  0  0  0  0
  6  5  1  0  0  0  0
  8  3  1  0  0  0  0
 13  6  1  0  0  0  0
 14  6  1  0  0  0  0
 15 16  1  0  0  0  0
 15 21  1  0  0  0  0
 16  1  1  0  0  0  0
 17 22  1  0  0  0  0
 17 16  2  0  0  0  0
 18 17  1  0  0  0  0
 19 18  2  0  0  0  0
 19 20  1  0  0  0  0
 20 15  2  0  0  0  0
 23 19  1  0  0  0  0
 24 26  1  0  0  0  0
 24  2  1  0  0  0  0
 25 24  1  0  0  0  0
 27 28  1  0  0  0  0
 28 29  2  0  0  0  0
 30 28  1  0  0  0  0
 30 24  1  0  0  0  0
 31 30  1  0  0  0  0
M  END
>  <minimizedAffinity>
-3.94371319

$$$$

 OpenBabel03252508353D

 31 32  0  0  1  0  0  0  0  0999 V2000
   38.3040   30.7420   41.0850 N   0  0  0  0  0  0  0  0  0  0  0  0
   36.9850   31.1720   40.6850 C   0  0  1  0  0  0  0  0  0  0  0  0
   36.9630   32.4790   39.9740 C   0  0  0  0  0  0  0  0  0  0  0  0
   37.8600   33.4430   40.4170 N   0  0  0  0  0  0  0  0  0  0  0  0
   39.0730   33.0510   40.9870 C   0  0  0  0  0  0  0  0  0  0  0  0
   39.3750   31.6000   40.6690 C   0  0  0  0  0  0  0  0  0  0  0  0
   36.3520   31.1750   41.5840 H   0  0  0  0  0  0  0  0  0  0  0  0
   37.1130   32.2910   38.8840 H   0  0  0  0  0  0  0  0  0  0  0  0
   35.9140   32.8710   40.0520 H   0  0  0  0  0  0  0  0  0  0  0  0
   37.6260   34.4230   40.3690 H   0  0  0  0  0  0  0  0  0  0  0  0
   39.9250   33.6330   40.5440 H   0  0  0  0  0  0  0  0  0  0  0  0
   39.1910   33.2030   42.0860 H   0  0  0  0  0  0  0  0  0  0  0  0
   40.2880   31.2920   41.2110 H   0  0  0  0  0  0  0  0  0  0  0  0
   39.5620   31.4720   39.5950 H   0  0  0  0  0  0  0  0  0  0  0  0
   39.3380   28.6220   41.3920 C   0  0  0  0  0  0  0  0  0  0  0  0
   38.4040   29.5460   41.8290 C   0  0  0  0  0  0  0  0  0  0  0  0
   37.6370   29.2310   42.9630 C   0  0  0  0  0  0  0  0  0  0  0  0
   37.8250   28.0460   43.5960 N   0  0  0  0  0  0  0  0  0  0  0  0
   38.7490   27.1690   43.1370 C   0  0  0  0  0  0  0  0  0  0  0  0
   39.4860   27.4470   42.0660 N   0  0  0  0  0  0  0  0  0  0  0  0
   39.9760   28.7610   40.5380 H   0  0  0  0  0  0  0  0  0  0  0  0
   36.9340   29.9750   43.2570 H   0  0  0  0  0  0  0  0  0  0  0  0
   38.8270   26.2450   43.7120 H   0  0  0  0  0  0  0  0  0  0  0  0
   36.4450   30.1260   39.7350 C   0  0  0  0  0  0  0  0  0  0  0  0
   35.3650   29.9250   39.9080 H   0  0  0  0  0  0  0  0  0  0  0  0
   37.0310   29.2050   39.9350 H   0  0  0  0  0  0  0  0  0  0  0  0
   37.8990   30.1730   36.5210 H   0  0  0  0  0  0  0  0  0  0  0  0
   37.7090   29.8820   37.5520 C   0  0  0  0  0  0  0  0  0  0  0  0
   38.4280   28.9530   37.9940 O   0  0  0  0  0  0  0  0  0  0  0  0
   36.7130   30.4960   38.3760 N   0  0  0  0  0  0  0  0  0  0  0  0
   36.1940   31.2550   37.8630 H   0  0  0  0  0  0  0  0  0  0  0  0
  1 16  1  0  0  0  0
  2  1  1  0  0  0  0
  2  7  1  1  0  0  0
  3  9  1  0  0  0  0
  3  4  1  0  0  0  0
  3  2  1  0  0  0  0
  4  5  1  0  0  0  0
  5 12  1  0  0  0  0
  6  5  1  0  0  0  0
  6  1  1  0  0  0  0
  6 13  1  0  0  0  0
  8  3  1  0  0  0  0
 10  4  1  0  0  0  0
 11  5  1  0  0  0  0
 14  6  1  0  0  0  0
 15 16  2  0  0  0  0
 15 20  1  0  0  0  0
 16 17  1  0  0  0  0
 17 22  1  0  0  0  0
 17 18  2  0  0  0  0
 19 18  1  0  0  0  0
 19 23  1  0  0  0  0
 20 19  2  0  0  0  0
 21 15  1  0  0  0  0
 24 25  1  0  0  0  0
 24 26  1  0  0  0  0
 24  2  1  0  0  0  0
 27 28  1  0  0  0  0
 28 29  2  0  0  0  0
 28 30  1  0  0  0  0
 30 24  1  0  0  0  0
 31 30  1  0  0  0  0
M  END
>  <minimizedAffinity>
-3.9105041

$$$$

 OpenBabel03252508353D

 31 32  0  0  1  0  0  0  0  0999 V2000
   37.8580   30.6050   38.7390 N   0  0  0  0  0  0  0  0  0  0  0  0
   38.4480   31.9000   38.4940 C   0  0  1  0  0  0  0  0  0  0  0  0
   38.4260   32.8090   39.6720 C   0  0  0  0  0  0  0  0  0  0  0  0
   37.3010   32.7440   40.4860 N   0  0  0  0  0  0  0  0  0  0  0  0
   36.5930   31.5460   40.5950 C   0  0  0  0  0  0  0  0  0  0  0  0
   37.4190   30.3820   40.0860 C   0  0  0  0  0  0  0  0  0  0  0  0
   37.9400   32.3350   37.6210 H   0  0  0  0  0  0  0  0  0  0  0  0
   39.3460   32.6250   40.2780 H   0  0  0  0  0  0  0  0  0  0  0  0
   38.5510   33.8520   39.2770 H   0  0  0  0  0  0  0  0  0  0  0  0
   36.9680   33.5660   40.9660 H   0  0  0  0  0  0  0  0  0  0  0  0
   36.3820   31.3080   41.6730 H   0  0  0  0  0  0  0  0  0  0  0  0
   35.5880   31.5040   40.1120 H   0  0  0  0  0  0  0  0  0  0  0  0
   36.8000   29.4660   40.0950 H   0  0  0  0  0  0  0  0  0  0  0  0
   38.2850   30.2090   40.7380 H   0  0  0  0  0  0  0  0  0  0  0  0
   36.9100   30.0580   36.6270 C   0  0  0  0  0  0  0  0  0  0  0  0
   37.7740   29.7090   37.6510 C   0  0  0  0  0  0  0  0  0  0  0  0
   38.4920   28.5070   37.5340 C   0  0  0  0  0  0  0  0  0  0  0  0
   38.3260   27.7270   36.4370 N   0  0  0  0  0  0  0  0  0  0  0  0
   37.4720   28.1040   35.4580 C   0  0  0  0  0  0  0  0  0  0  0  0
   36.7810   29.2370   35.5470 N   0  0  0  0  0  0  0  0  0  0  0  0
   36.3130   30.9530   36.6150 H   0  0  0  0  0  0  0  0  0  0  0  0
   39.1420   28.2850   38.3480 H   0  0  0  0  0  0  0  0  0  0  0  0
   37.4060   27.4120   34.6170 H   0  0  0  0  0  0  0  0  0  0  0  0
   39.8960   31.6660   38.1250 C   0  0  0  0  0  0  0  0  0  0  0  0
   40.0410   30.6940   37.6040 H   0  0  0  0  0  0  0  0  0  0  0  0
   40.4560   31.6600   39.0840 H   0  0  0  0  0  0  0  0  0  0  0  0
   42.0850   34.1590   36.9250 H   0  0  0  0  0  0  0  0  0  0  0  0
   41.7140   33.3230   37.5140 C   0  0  0  0  0  0  0  0  0  0  0  0
   42.5160   32.8590   38.3610 O   0  0  0  0  0  0  0  0  0  0  0  0
   40.4040   32.7670   37.3600 N   0  0  0  0  0  0  0  0  0  0  0  0
   39.8540   33.2630   36.6110 H   0  0  0  0  0  0  0  0  0  0  0  0
  1  6  1  0  0  0  0
  2  7  1  6  0  0  0
  2  1  1  0  0  0  0
  2  3  1  0  0  0  0
  3  8  1  0  0  0  0
  3  4  1  0  0  0  0
  4  5  1  0  0  0  0
  4 10  1  0  0  0  0
  5 11  1  0  0  0  0
  6 13  1  0  0  0  0
  6  5  1  0  0  0  0
  6 14  1  0  0  0  0
  9  3  1  0  0  0  0
 12  5  1  0  0  0  0
 15 16  1  0  0  0  0
 16  1  1  0  0  0  0
 17 16  2  0  0  0  0
 17 22  1  0  0  0  0
 18 17  1  0  0  0  0
 19 20  1  0  0  0  0
 19 18  2  0  0  0  0
 20 15  2  0  0  0  0
 21 15  1  0  0  0  0
 23 19  1  0  0  0  0
 24  2  1  0  0  0  0
 24 26  1  0  0  0  0
 25 24  1  0  0  0  0
 27 28  1  0  0  0  0
 28 29  2  0  0  0  0
 30 28  1  0  0  0  0
 30 24  1  0  0  0  0
 31 30  1  0  0  0  0
M  END
>  <minimizedAffinity>
-3.89995337

$$$$

 OpenBabel03252508353D

 31 32  0  0  1  0  0  0  0  0999 V2000
   37.1600   29.2530   39.3460 N   0  0  0  0  0  0  0  0  0  0  0  0
   36.4700   30.4980   39.5870 C   0  0  1  0  0  0  0  0  0  0  0  0
   36.4500   30.9130   41.0150 C   0  0  0  0  0  0  0  0  0  0  0  0
   36.3190   29.8980   41.9560 N   0  0  0  0  0  0  0  0  0  0  0  0
   36.8110   28.6230   41.6720 C   0  0  0  0  0  0  0  0  0  0  0  0
   37.7720   28.6630   40.5010 C   0  0  0  0  0  0  0  0  0  0  0  0
   35.4590   30.4030   39.1650 H   0  0  0  0  0  0  0  0  0  0  0  0
   37.3710   31.5090   41.2240 H   0  0  0  0  0  0  0  0  0  0  0  0
   35.6080   31.6460   41.1260 H   0  0  0  0  0  0  0  0  0  0  0  0
   35.8340   30.0640   42.8250 H   0  0  0  0  0  0  0  0  0  0  0  0
   37.4150   28.2310   42.5350 H   0  0  0  0  0  0  0  0  0  0  0  0
   36.0610   27.8190   41.4860 H   0  0  0  0  0  0  0  0  0  0  0  0
   38.0690   27.6310   40.2400 H   0  0  0  0  0  0  0  0  0  0  0  0
   38.6810   29.2180   40.7670 H   0  0  0  0  0  0  0  0  0  0  0  0
   35.9240   28.5330   37.4450 C   0  0  0  0  0  0  0  0  0  0  0  0
   37.1620   28.7510   38.0260 C   0  0  0  0  0  0  0  0  0  0  0  0
   38.3110   28.4630   37.2710 C   0  0  0  0  0  0  0  0  0  0  0  0
   38.1850   27.9830   36.0080 N   0  0  0  0  0  0  0  0  0  0  0  0
   36.9570   27.7840   35.4760 C   0  0  0  0  0  0  0  0  0  0  0  0
   35.8550   28.0500   36.1720 N   0  0  0  0  0  0  0  0  0  0  0  0
   34.9840   28.7200   37.9320 H   0  0  0  0  0  0  0  0  0  0  0  0
   39.2370   28.6470   37.7630 H   0  0  0  0  0  0  0  0  0  0  0  0
   36.9570   27.3970   34.4560 H   0  0  0  0  0  0  0  0  0  0  0  0
   37.2020   31.5690   38.8100 C   0  0  0  0  0  0  0  0  0  0  0  0
   36.9760   31.5230   37.7220 H   0  0  0  0  0  0  0  0  0  0  0  0
   38.2830   31.3760   38.9730 H   0  0  0  0  0  0  0  0  0  0  0  0
   37.7100   34.7500   40.2490 H   0  0  0  0  0  0  0  0  0  0  0  0
   37.9330   33.7700   39.8350 C   0  0  0  0  0  0  0  0  0  0  0  0
   39.1500   33.4640   39.7910 O   0  0  0  0  0  0  0  0  0  0  0  0
   36.9300   32.8650   39.3610 N   0  0  0  0  0  0  0  0  0  0  0  0
   35.9610   33.2650   39.4640 H   0  0  0  0  0  0  0  0  0  0  0  0
  1  2  1  0  0  0  0
  1  6  1  0  0  0  0
  2  7  1  6  0  0  0
  2  3  1  0  0  0  0
  3  9  1  0  0  0  0
  3  8  1  0  0  0  0
  3  4  1  0  0  0  0
  4 10  1  0  0  0  0
  5  4  1  0  0  0  0
  5 11  1  0  0  0  0
  6 14  1  0  0  0  0
  6  5  1  0  0  0  0
 12  5  1  0  0  0  0
 13  6  1  0  0  0  0
 15 21  1  0  0  0  0
 15 16  1  0  0  0  0
 16  1  1  0  0  0  0
 17 22  1  0  0  0  0
 17 16  2  0  0  0  0
 18 17  1  0  0  0  0
 19 18  2  0  0  0  0
 19 20  1  0  0  0  0
 20 15  2  0  0  0  0
 23 19  1  0  0  0  0
 24 26  1  0  0  0  0
 24 30  1  0  0  0  0
 24  2  1  0  0  0  0
 25 24  1  0  0  0  0
 28 27  1  0  0  0  0
 29 28  2  0  0  0  0
 30 31  1  0  0  0  0
 30 28  1  0  0  0  0
M  END
>  <minimizedAffinity>
-3.85602713

$$$$
