
 OpenBabel03252504083D

 15 15  0  0  0  0  0  0  0  0999 V2000
   36.1600   30.8510   40.1560 C   0  0  0  0  0  0  0  0  0  0  0  0
   36.9440   31.8830   39.6120 C   0  0  0  0  0  0  0  0  0  0  0  0
   37.4070   31.7340   38.2980 C   0  0  0  0  0  0  0  0  0  0  0  0
   37.0670   30.5960   37.6300 N   0  0  0  0  0  0  0  0  0  0  0  0
   36.3160   29.6350   38.1850 C   0  0  0  0  0  0  0  0  0  0  0  0
   35.8570   29.7530   39.4510 N   0  0  0  0  0  0  0  0  0  0  0  0
   38.0030   32.5050   37.8670 H   0  0  0  0  0  0  0  0  0  0  0  0
   36.1020   28.7700   37.5690 H   0  0  0  0  0  0  0  0  0  0  0  0
   38.5390   34.5180   41.2790 H   0  0  0  0  0  0  0  0  0  0  0  0
   38.5470   33.5650   40.7680 C   0  0  0  0  0  0  0  0  0  0  0  0
   39.6490   32.9600   40.6150 O   0  0  0  0  0  0  0  0  0  0  0  0
   37.2990   33.0660   40.3040 N   0  0  0  0  0  0  0  0  0  0  0  0
   36.4000   33.5950   40.4470 H   0  0  0  0  0  0  0  0  0  0  0  0
   35.7170   31.0130   41.4390 O   0  0  0  0  0  0  0  0  0  0  0  0
   35.9080   31.8090   41.9990 H   0  0  0  0  0  0  0  0  0  0  0  0
  1 14  1  0  0  0  0
  2  1  1  0  0  0  0
  2 12  1  0  0  0  0
  3  2  2  0  0  0  0
  4  5  2  0  0  0  0
  4  3  1  0  0  0  0
  5  6  1  0  0  0  0
  6  1  2  0  0  0  0
  7  3  1  0  0  0  0
  8  5  1  0  0  0  0
 10  9  1  0  0  0  0
 11 10  2  0  0  0  0
 12 13  1  0  0  0  0
 12 10  1  0  0  0  0
 14 15  1  0  0  0  0
M  END
>  <minimizedAffinity>
-3.88662553

$$$$

 OpenBabel03252504083D

 15 15  0  0  0  0  0  0  0  0999 V2000
   36.8450   30.7140   41.0750 C   0  0  0  0  0  0  0  0  0  0  0  0
   37.6220   29.8830   41.9000 C   0  0  0  0  0  0  0  0  0  0  0  0
   38.9510   29.6410   41.5250 C   0  0  0  0  0  0  0  0  0  0  0  0
   39.4060   30.2290   40.3830 N   0  0  0  0  0  0  0  0  0  0  0  0
   38.6330   31.0170   39.6250 C   0  0  0  0  0  0  0  0  0  0  0  0
   37.3480   31.2660   39.9620 N   0  0  0  0  0  0  0  0  0  0  0  0
   39.5570   29.0130   42.1370 H   0  0  0  0  0  0  0  0  0  0  0  0
   39.0910   31.4360   38.7370 H   0  0  0  0  0  0  0  0  0  0  0  0
   36.4850   27.7210   44.4090 H   0  0  0  0  0  0  0  0  0  0  0  0
   36.8300   27.9220   43.4050 C   0  0  0  0  0  0  0  0  0  0  0  0
   36.9270   26.9620   42.5850 O   0  0  0  0  0  0  0  0  0  0  0  0
   37.1520   29.2700   43.0860 N   0  0  0  0  0  0  0  0  0  0  0  0
   37.0610   30.0450   43.7930 H   0  0  0  0  0  0  0  0  0  0  0  0
   35.5520   30.9390   41.4550 O   0  0  0  0  0  0  0  0  0  0  0  0
   35.1370   30.5600   42.2730 H   0  0  0  0  0  0  0  0  0  0  0  0
  1 14  1  0  0  0  0
  1  2  1  0  0  0  0
  2 12  1  0  0  0  0
  3  2  2  0  0  0  0
  3  7  1  0  0  0  0
  4  3  1  0  0  0  0
  5  6  1  0  0  0  0
  5  4  2  0  0  0  0
  6  1  2  0  0  0  0
  8  5  1  0  0  0  0
 10  9  1  0  0  0  0
 11 10  2  0  0  0  0
 12 10  1  0  0  0  0
 12 13  1  0  0  0  0
 14 15  1  0  0  0  0
M  END
>  <minimizedAffinity>
-3.88147807

$$$$

 OpenBabel03252504083D

 15 15  0  0  0  0  0  0  0  0999 V2000
   37.0650   28.2940   42.6850 C   0  0  0  0  0  0  0  0  0  0  0  0
   36.4100   28.6460   41.4920 C   0  0  0  0  0  0  0  0  0  0  0  0
   36.3660   27.6970   40.4610 C   0  0  0  0  0  0  0  0  0  0  0  0
   36.9620   26.4920   40.6820 N   0  0  0  0  0  0  0  0  0  0  0  0
   37.5760   26.1950   41.8350 C   0  0  0  0  0  0  0  0  0  0  0  0
   37.6340   27.0910   42.8450 N   0  0  0  0  0  0  0  0  0  0  0  0
   35.8740   27.9450   39.5490 H   0  0  0  0  0  0  0  0  0  0  0  0
   38.0180   25.2090   41.9090 H   0  0  0  0  0  0  0  0  0  0  0  0
   35.5980   31.9710   40.7510 H   0  0  0  0  0  0  0  0  0  0  0  0
   36.3050   31.1600   40.8550 C   0  0  0  0  0  0  0  0  0  0  0  0
   37.5290   31.3780   40.6150 O   0  0  0  0  0  0  0  0  0  0  0  0
   35.7900   29.8980   41.2600 N   0  0  0  0  0  0  0  0  0  0  0  0
   34.7650   29.7510   41.4520 H   0  0  0  0  0  0  0  0  0  0  0  0
   37.0980   29.2320   43.6790 O   0  0  0  0  0  0  0  0  0  0  0  0
   36.6870   30.1310   43.6120 H   0  0  0  0  0  0  0  0  0  0  0  0
  1  6  1  0  0  0  0
  1 14  1  0  0  0  0
  2  1  2  0  0  0  0
  3  4  2  0  0  0  0
  3  2  1  0  0  0  0
  4  5  1  0  0  0  0
  5  8  1  0  0  0  0
  5  6  2  0  0  0  0
  7  3  1  0  0  0  0
  9 10  1  0  0  0  0
 10 12  1  0  0  0  0
 11 10  2  0  0  0  0
 12 13  1  0  0  0  0
 12  2  1  0  0  0  0
 15 14  1  0  0  0  0
M  END
>  <minimizedAffinity>
-3.71404338

$$$$

 OpenBabel03252504083D

 15 15  0  0  0  0  0  0  0  0999 V2000
   35.8680   29.8320   40.6250 C   0  0  0  0  0  0  0  0  0  0  0  0
   36.3000   28.6600   41.2690 C   0  0  0  0  0  0  0  0  0  0  0  0
   36.5580   27.5320   40.4780 C   0  0  0  0  0  0  0  0  0  0  0  0
   36.3740   27.6440   39.1320 N   0  0  0  0  0  0  0  0  0  0  0  0
   35.9610   28.7810   38.5570 C   0  0  0  0  0  0  0  0  0  0  0  0
   35.7050   29.8840   39.2960 N   0  0  0  0  0  0  0  0  0  0  0  0
   36.8860   26.6330   40.9480 H   0  0  0  0  0  0  0  0  0  0  0  0
   35.8470   28.7650   37.4800 H   0  0  0  0  0  0  0  0  0  0  0  0
   37.4910   28.6050   44.5620 H   0  0  0  0  0  0  0  0  0  0  0  0
   37.6180   28.7770   43.5020 C   0  0  0  0  0  0  0  0  0  0  0  0
   38.7420   29.1740   43.0740 O   0  0  0  0  0  0  0  0  0  0  0  0
   36.4920   28.5400   42.6670 N   0  0  0  0  0  0  0  0  0  0  0  0
   35.5700   28.2110   43.0550 H   0  0  0  0  0  0  0  0  0  0  0  0
   35.6210   30.9220   41.4120 O   0  0  0  0  0  0  0  0  0  0  0  0
   35.7340   30.9370   42.3970 H   0  0  0  0  0  0  0  0  0  0  0  0
  1  2  1  0  0  0  0
  1 14  1  0  0  0  0
  2 12  1  0  0  0  0
  3  7  1  0  0  0  0
  3  2  2  0  0  0  0
  4  3  1  0  0  0  0
  5  4  2  0  0  0  0
  5  6  1  0  0  0  0
  6  1  2  0  0  0  0
  8  5  1  0  0  0  0
 10  9  1  0  0  0  0
 11 10  2  0  0  0  0
 12 13  1  0  0  0  0
 12 10  1  0  0  0  0
 14 15  1  0  0  0  0
M  END
>  <minimizedAffinity>
-3.68911624

$$$$

 OpenBabel03252504083D

 15 15  0  0  0  0  0  0  0  0999 V2000
   37.4340   31.8330   40.7890 C   0  0  0  0  0  0  0  0  0  0  0  0
   36.8550   30.6300   41.2290 C   0  0  0  0  0  0  0  0  0  0  0  0
   37.6640   29.7320   41.9390 C   0  0  0  0  0  0  0  0  0  0  0  0
   38.9620   30.0840   42.1590 N   0  0  0  0  0  0  0  0  0  0  0  0
   39.4750   31.2420   41.7240 C   0  0  0  0  0  0  0  0  0  0  0  0
   38.7180   32.1260   41.0360 N   0  0  0  0  0  0  0  0  0  0  0  0
   37.2440   28.8140   42.2810 H   0  0  0  0  0  0  0  0  0  0  0  0
   40.5180   31.4260   41.9520 H   0  0  0  0  0  0  0  0  0  0  0  0
   33.8330   29.2070   40.1760 H   0  0  0  0  0  0  0  0  0  0  0  0
   34.9120   29.2830   40.1600 C   0  0  0  0  0  0  0  0  0  0  0  0
   35.5700   28.5080   39.4040 O   0  0  0  0  0  0  0  0  0  0  0  0
   35.5070   30.2620   41.0010 N   0  0  0  0  0  0  0  0  0  0  0  0
   34.9300   30.8910   41.6180 H   0  0  0  0  0  0  0  0  0  0  0  0
   36.6310   32.6970   40.0980 O   0  0  0  0  0  0  0  0  0  0  0  0
   35.6740   32.5300   39.8970 H   0  0  0  0  0  0  0  0  0  0  0  0
  1  6  2  0  0  0  0
  1  2  1  0  0  0  0
  2  3  2  0  0  0  0
  3  4  1  0  0  0  0
  3  7  1  0  0  0  0
  5  8  1  0  0  0  0
  5  4  2  0  0  0  0
  6  5  1  0  0  0  0
 10  9  1  0  0  0  0
 10 12  1  0  0  0  0
 11 10  2  0  0  0  0
 12  2  1  0  0  0  0
 12 13  1  0  0  0  0
 14  1  1  0  0  0  0
 15 14  1  0  0  0  0
M  END
>  <minimizedAffinity>
-3.65017104

$$$$

 OpenBabel03252504083D

 15 15  0  0  0  0  0  0  0  0999 V2000
   39.0580   33.5000   40.4090 C   0  0  0  0  0  0  0  0  0  0  0  0
   38.1550   32.5740   39.8600 C   0  0  0  0  0  0  0  0  0  0  0  0
   38.5410   31.8870   38.7000 C   0  0  0  0  0  0  0  0  0  0  0  0
   39.7690   32.1620   38.1790 N   0  0  0  0  0  0  0  0  0  0  0  0
   40.6020   33.0520   38.7340 C   0  0  0  0  0  0  0  0  0  0  0  0
   40.2550   33.7290   39.8510 N   0  0  0  0  0  0  0  0  0  0  0  0
   37.8700   31.1810   38.2680 H   0  0  0  0  0  0  0  0  0  0  0  0
   41.5560   33.1970   38.2410 H   0  0  0  0  0  0  0  0  0  0  0  0
   35.3170   31.1820   41.3690 H   0  0  0  0  0  0  0  0  0  0  0  0
   36.3480   31.1370   41.0470 C   0  0  0  0  0  0  0  0  0  0  0  0
   37.0130   30.0810   41.2620 O   0  0  0  0  0  0  0  0  0  0  0  0
   36.8780   32.2870   40.3990 N   0  0  0  0  0  0  0  0  0  0  0  0
   36.2970   33.1500   40.2360 H   0  0  0  0  0  0  0  0  0  0  0  0
   38.6650   34.1610   41.5390 O   0  0  0  0  0  0  0  0  0  0  0  0
   37.7940   34.0220   41.9930 H   0  0  0  0  0  0  0  0  0  0  0  0
  1 14  1  0  0  0  0
  2 12  1  0  0  0  0
  2  1  1  0  0  0  0
  3  2  2  0  0  0  0
  4  3  1  0  0  0  0
  4  5  2  0  0  0  0
  5  6  1  0  0  0  0
  6  1  2  0  0  0  0
  7  3  1  0  0  0  0
  8  5  1  0  0  0  0
 10 11  2  0  0  0  0
 10  9  1  0  0  0  0
 12 10  1  0  0  0  0
 13 12  1  0  0  0  0
 14 15  1  0  0  0  0
M  END
>  <minimizedAffinity>
-3.62649679

$$$$

 OpenBabel03252504083D

 15 15  0  0  0  0  0  0  0  0999 V2000
   37.1970   31.5340   38.6020 C   0  0  0  0  0  0  0  0  0  0  0  0
   36.9780   32.0260   39.9000 C   0  0  0  0  0  0  0  0  0  0  0  0
   36.4800   31.1380   40.8640 C   0  0  0  0  0  0  0  0  0  0  0  0
   36.2420   29.8520   40.4800 N   0  0  0  0  0  0  0  0  0  0  0  0
   36.4660   29.4230   39.2310 C   0  0  0  0  0  0  0  0  0  0  0  0
   36.9450   30.2580   38.2820 N   0  0  0  0  0  0  0  0  0  0  0  0
   36.3060   31.4920   41.8540 H   0  0  0  0  0  0  0  0  0  0  0  0
   36.2440   28.3820   39.0290 H   0  0  0  0  0  0  0  0  0  0  0  0
   38.3100   35.1730   40.6660 H   0  0  0  0  0  0  0  0  0  0  0  0
   38.4000   34.1600   40.2970 C   0  0  0  0  0  0  0  0  0  0  0  0
   39.5270   33.7530   39.8890 O   0  0  0  0  0  0  0  0  0  0  0  0
   37.2240   33.3610   40.3010 N   0  0  0  0  0  0  0  0  0  0  0  0
   36.3010   33.7310   40.6470 H   0  0  0  0  0  0  0  0  0  0  0  0
   37.6820   32.4140   37.6750 O   0  0  0  0  0  0  0  0  0  0  0  0
   37.8920   33.3650   37.8630 H   0  0  0  0  0  0  0  0  0  0  0  0
  1  2  1  0  0  0  0
  2 12  1  0  0  0  0
  2  3  2  0  0  0  0
  3  7  1  0  0  0  0
  4  3  1  0  0  0  0
  5  4  2  0  0  0  0
  6  1  2  0  0  0  0
  6  5  1  0  0  0  0
  8  5  1  0  0  0  0
 10 12  1  0  0  0  0
 10  9  1  0  0  0  0
 11 10  2  0  0  0  0
 12 13  1  0  0  0  0
 14 15  1  0  0  0  0
 14  1  1  0  0  0  0
M  END
>  <minimizedAffinity>
-3.55928493

$$$$

 OpenBabel03252504083D

 15 15  0  0  0  0  0  0  0  0999 V2000
   36.7870   31.1300   40.8130 C   0  0  0  0  0  0  0  0  0  0  0  0
   37.5860   29.9740   40.8070 C   0  0  0  0  0  0  0  0  0  0  0  0
   38.8500   30.0510   40.2070 C   0  0  0  0  0  0  0  0  0  0  0  0
   39.2250   31.2450   39.6670 N   0  0  0  0  0  0  0  0  0  0  0  0
   38.4330   32.3250   39.6950 C   0  0  0  0  0  0  0  0  0  0  0  0
   37.2100   32.2790   40.2670 N   0  0  0  0  0  0  0  0  0  0  0  0
   39.4700   29.1850   40.1910 H   0  0  0  0  0  0  0  0  0  0  0  0
   38.8260   33.2260   39.2380 H   0  0  0  0  0  0  0  0  0  0  0  0
   36.8820   27.2180   42.8500 H   0  0  0  0  0  0  0  0  0  0  0  0
   37.2530   28.2210   42.6920 C   0  0  0  0  0  0  0  0  0  0  0  0
   37.7080   28.8700   43.6800 O   0  0  0  0  0  0  0  0  0  0  0  0
   37.1980   28.7320   41.3660 N   0  0  0  0  0  0  0  0  0  0  0  0
   36.8140   28.1650   40.5670 H   0  0  0  0  0  0  0  0  0  0  0  0
   35.5570   31.0370   41.4030 O   0  0  0  0  0  0  0  0  0  0  0  0
   35.2030   30.2140   41.8270 H   0  0  0  0  0  0  0  0  0  0  0  0
  1 14  1  0  0  0  0
  2  1  1  0  0  0  0
  2 12  1  0  0  0  0
  3  2  2  0  0  0  0
  4  5  2  0  0  0  0
  4  3  1  0  0  0  0
  5  6  1  0  0  0  0
  6  1  2  0  0  0  0
  7  3  1  0  0  0  0
  8  5  1  0  0  0  0
 10  9  1  0  0  0  0
 10 11  2  0  0  0  0
 12 10  1  0  0  0  0
 13 12  1  0  0  0  0
 14 15  1  0  0  0  0
M  END
>  <minimizedAffinity>
-3.51538897

$$$$

 OpenBabel03252504083D

 15 15  0  0  0  0  0  0  0  0999 V2000
   36.7070   30.4770   40.9930 C   0  0  0  0  0  0  0  0  0  0  0  0
   37.3660   31.0930   39.9150 C   0  0  0  0  0  0  0  0  0  0  0  0
   38.5040   30.4630   39.3940 C   0  0  0  0  0  0  0  0  0  0  0  0
   38.8990   29.2910   39.9660 N   0  0  0  0  0  0  0  0  0  0  0  0
   38.2420   28.7360   40.9920 C   0  0  0  0  0  0  0  0  0  0  0  0
   37.1420   29.3220   41.5150 N   0  0  0  0  0  0  0  0  0  0  0  0
   39.0180   30.9140   38.5770 H   0  0  0  0  0  0  0  0  0  0  0  0
   38.6390   27.8020   41.3740 H   0  0  0  0  0  0  0  0  0  0  0  0
   36.8660   34.4170   38.9340 H   0  0  0  0  0  0  0  0  0  0  0  0
   37.3450   33.6610   39.5410 C   0  0  0  0  0  0  0  0  0  0  0  0
   38.2070   34.0160   40.3970 O   0  0  0  0  0  0  0  0  0  0  0  0
   36.9580   32.3110   39.3200 N   0  0  0  0  0  0  0  0  0  0  0  0
   36.2360   32.0490   38.5990 H   0  0  0  0  0  0  0  0  0  0  0  0
   35.5990   31.1050   41.4890 O   0  0  0  0  0  0  0  0  0  0  0  0
   35.2330   31.9560   41.1340 H   0  0  0  0  0  0  0  0  0  0  0  0
  1 14  1  0  0  0  0
  1  6  1  0  0  0  0
  2  1  2  0  0  0  0
  3  2  1  0  0  0  0
  3  4  2  0  0  0  0
  4  5  1  0  0  0  0
  5  8  1  0  0  0  0
  5  6  2  0  0  0  0
  7  3  1  0  0  0  0
  9 10  1  0  0  0  0
 10 11  2  0  0  0  0
 12 10  1  0  0  0  0
 12  2  1  0  0  0  0
 13 12  1  0  0  0  0
 15 14  1  0  0  0  0
M  END
>  <minimizedAffinity>
-3.44420815

$$$$
