
 OpenBabel03252509223D

 23 24  0  0  1  0  0  0  0  0999 V2000
   46.5580   35.0000   41.9430 C   0  0  1  0  0  0  0  0  0  0  0  0
   48.0610   35.3500   41.9390 C   0  0  0  0  0  0  0  0  0  0  0  0
   47.4280   34.0200   41.4070 C   0  0  2  0  0  0  0  0  0  0  0  0
   45.9510   35.7040   41.3430 H   0  0  0  0  0  0  0  0  0  0  0  0
   48.4090   36.0450   41.1780 H   0  0  0  0  0  0  0  0  0  0  0  0
   48.6390   35.3150   42.8530 H   0  0  0  0  0  0  0  0  0  0  0  0
   47.7530   33.1410   42.0370 H   0  0  0  0  0  0  0  0  0  0  0  0
   44.6250   35.4280   45.1440 C   0  0  0  0  0  0  0  0  0  0  0  0
   45.1010   35.7020   43.8350 C   0  0  0  0  0  0  0  0  0  0  0  0
   46.0600   34.8440   43.3580 C   0  0  0  0  0  0  0  0  0  0  0  0
   46.5190   33.7890   44.1280 N   0  0  0  0  0  0  0  0  0  0  0  0
   46.0350   33.5720   45.3650 C   0  0  0  0  0  0  0  0  0  0  0  0
   45.0810   34.3990   45.8730 N   0  0  0  0  0  0  0  0  0  0  0  0
   43.8680   36.1080   45.5130 H   0  0  0  0  0  0  0  0  0  0  0  0
   46.3830   32.7530   45.9770 H   0  0  0  0  0  0  0  0  0  0  0  0
   44.6580   36.8090   43.0550 N   0  0  0  0  0  0  0  0  0  0  0  0
   45.0440   37.6140   43.6100 H   0  0  0  0  0  0  0  0  0  0  0  0
   44.1060   36.7850   42.1840 H   0  0  0  0  0  0  0  0  0  0  0  0
   48.6410   32.7470   38.4510 H   0  0  0  0  0  0  0  0  0  0  0  0
   48.6010   32.8030   39.5270 C   0  0  0  0  0  0  0  0  0  0  0  0
   49.2890   32.1140   40.3220 O   0  0  0  0  0  0  0  0  0  0  0  0
   47.6490   33.7770   40.0010 N   0  0  0  0  0  0  0  0  0  0  0  0
   47.0660   34.3620   39.3400 H   0  0  0  0  0  0  0  0  0  0  0  0
  1  4  1  6  0  0  0
  1 10  1  0  0  0  0
  2  1  1  0  0  0  0
  2  6  1  0  0  0  0
  3  2  1  0  0  0  0
  3  1  1  0  0  0  0
  3  7  1  1  0  0  0
  5  2  1  0  0  0  0
  8 14  1  0  0  0  0
  8 13  1  0  0  0  0
  9  8  2  0  0  0  0
 10  9  1  0  0  0  0
 10 11  2  0  0  0  0
 11 12  1  0  0  0  0
 12 13  2  0  0  0  0
 12 15  1  0  0  0  0
 16 17  1  0  0  0  0
 16  9  1  0  0  0  0
 18 16  1  0  0  0  0
 19 20  1  0  0  0  0
 20 22  1  0  0  0  0
 20 21  2  0  0  0  0
 22  3  1  0  0  0  0
 23 22  1  0  0  0  0
M  END
>  <minimizedAffinity>
-4.27300167

>  <minimizedRMSD>
0.0780656636

$$$$
