
 OpenBabel03252506283D

 43 46  0  0  0  0  0  0  0  0999 V2000
   47.2070   30.3010   48.0560 C   0  0  0  0  0  0  0  0  0  0  0  0
   47.6380   31.0600   48.7390 H   0  0  0  0  0  0  0  0  0  0  0  0
   47.8110   29.3960   48.1360 H   0  0  0  0  0  0  0  0  0  0  0  0
   46.9610   32.2480   45.0680 C   0  0  0  0  0  0  0  0  0  0  0  0
   47.6610   31.1030   44.6260 C   0  0  0  0  0  0  0  0  0  0  0  0
   47.8310   30.2630   45.6640 C   0  0  0  0  0  0  0  0  0  0  0  0
   47.2610   30.8560   46.7130 N   0  0  0  0  0  0  0  0  0  0  0  0
   46.7420   32.0330   46.3730 N   0  0  0  0  0  0  0  0  0  0  0  0
   47.9920   30.9580   43.6110 H   0  0  0  0  0  0  0  0  0  0  0  0
   48.3150   29.3070   45.6950 H   0  0  0  0  0  0  0  0  0  0  0  0
   45.2810   35.2690   43.9020 C   0  0  0  0  0  0  0  0  0  0  0  0
   45.8770   35.5130   42.6650 C   0  0  0  0  0  0  0  0  0  0  0  0
   46.8610   34.6180   42.2510 C   0  0  0  0  0  0  0  0  0  0  0  0
   47.1750   33.5850   43.0560 N   0  0  0  0  0  0  0  0  0  0  0  0
   46.5960   33.3690   44.2330 C   0  0  0  0  0  0  0  0  0  0  0  0
   45.6370   34.2250   44.6580 N   0  0  0  0  0  0  0  0  0  0  0  0
   44.5110   35.9790   44.2150 H   0  0  0  0  0  0  0  0  0  0  0  0
   45.6090   36.3480   42.0370 H   0  0  0  0  0  0  0  0  0  0  0  0
   49.3120   35.6450   40.0540 H   0  0  0  0  0  0  0  0  0  0  0  0
   48.7490   35.4720   40.9550 C   0  0  0  0  0  0  0  0  0  0  0  0
   49.2920   35.9440   42.0050 O   0  0  0  0  0  0  0  0  0  0  0  0
   47.5180   34.7900   41.0100 N   0  0  0  0  0  0  0  0  0  0  0  0
   47.0880   34.4100   40.1380 H   0  0  0  0  0  0  0  0  0  0  0  0
   45.7960   30.0730   48.4700 C   0  0  0  0  0  0  0  0  0  0  0  0
   45.8120   29.8020   49.5650 H   0  0  0  0  0  0  0  0  0  0  0  0
   45.2470   31.0420   48.4370 H   0  0  0  0  0  0  0  0  0  0  0  0
   45.0170   27.6680   48.0210 C   0  0  0  0  0  0  0  0  0  0  0  0
   45.0680   29.0260   47.7680 C   0  0  0  0  0  0  0  0  0  0  0  0
   44.3170   29.4750   46.6880 C   0  0  0  0  0  0  0  0  0  0  0  0
   43.5740   28.6200   45.9230 C   0  0  0  0  0  0  0  0  0  0  0  0
   42.7730   28.7600   44.8480 N   0  0  0  0  0  0  0  0  0  0  0  0
   42.2620   27.5940   44.4580 C   0  0  0  0  0  0  0  0  0  0  0  0
   42.7270   26.5960   45.2950 C   0  0  0  0  0  0  0  0  0  0  0  0
   43.5290   27.2850   46.1770 C   0  0  0  0  0  0  0  0  0  0  0  0
   44.2730   26.8190   47.2540 C   0  0  0  0  0  0  0  0  0  0  0  0
   45.6190   27.3630   48.8770 H   0  0  0  0  0  0  0  0  0  0  0  0
   44.2690   30.5190   46.3810 H   0  0  0  0  0  0  0  0  0  0  0  0
   42.5520   29.6730   44.3470 H   0  0  0  0  0  0  0  0  0  0  0  0
   41.5790   27.4230   43.6100 H   0  0  0  0  0  0  0  0  0  0  0  0
   42.5310   25.5270   45.2920 H   0  0  0  0  0  0  0  0  0  0  0  0
   44.2680   25.4010   47.5790 C   0  0  0  0  0  0  0  0  0  0  0  0
   44.9080   24.9420   48.5560 O   0  0  0  0  0  0  0  0  0  0  0  0
   43.7250   24.6520   47.0180 H   0  0  0  0  0  0  0  0  0  0  0  0
  1  3  1  0  0  0  0
  1 24  1  0  0  0  0
  1  2  1  0  0  0  0
  4  8  2  0  0  0  0
  5  4  1  0  0  0  0
  5  6  2  0  0  0  0
  6 10  1  0  0  0  0
  6  7  1  0  0  0  0
  7  1  1  0  0  0  0
  8  7  1  0  0  0  0
  9  5  1  0  0  0  0
 11 17  1  0  0  0  0
 11 16  1  0  0  0  0
 12 11  2  0  0  0  0
 13 12  1  0  0  0  0
 13 14  2  0  0  0  0
 14 15  1  0  0  0  0
 15 16  2  0  0  0  0
 15  4  1  0  0  0  0
 18 12  1  0  0  0  0
 19 20  1  0  0  0  0
 20 22  1  0  0  0  0
 20 21  2  0  0  0  0
 22 13  1  0  0  0  0
 23 22  1  0  0  0  0
 24 25  1  0  0  0  0
 26 24  1  0  0  0  0
 27 36  1  0  0  0  0
 28 27  1  0  0  0  0
 28 24  1  0  0  0  0
 29 28  2  0  0  0  0
 30 34  2  0  0  0  0
 30 29  1  0  0  0  0
 31 30  1  0  0  0  0
 32 31  1  0  0  0  0
 32 33  2  0  0  0  0
 33 34  1  0  0  0  0
 34 35  1  0  0  0  0
 35 41  1  0  0  0  0
 35 27  2  0  0  0  0
 37 29  1  0  0  0  0
 38 31  1  0  0  0  0
 39 32  1  0  0  0  0
 40 33  1  0  0  0  0
 41 42  2  0  0  0  0
 43 41  1  0  0  0  0
M  END
>  <minimizedAffinity>
-5.33543825

>  <minimizedRMSD>
0.76140815

$$$$
