
 OpenBabel03252502443D

 27 28  0  0  1  0  0  0  0  0999 V2000
   36.5440   27.8780   41.0400 C   0  0  0  0  0  0  0  0  0  0  0  0
   36.3600   26.9420   40.5180 H   0  0  0  0  0  0  0  0  0  0  0  0
   37.5660   28.2840   40.7880 H   0  0  0  0  0  0  0  0  0  0  0  0
   36.5550   27.7530   42.5320 C   0  0  1  0  0  0  0  0  0  0  0  0
   37.7550   27.1040   43.1550 C   0  0  0  0  0  0  0  0  0  0  0  0
   37.4670   28.5300   43.3270 C   0  0  1  0  0  0  0  0  0  0  0  0
   35.5190   27.4360   42.8640 H   0  0  0  0  0  0  0  0  0  0  0  0
   37.4550   26.3210   43.9220 H   0  0  0  0  0  0  0  0  0  0  0  0
   38.5770   26.6610   42.5790 H   0  0  0  0  0  0  0  0  0  0  0  0
   36.9790   28.6590   44.3580 H   0  0  0  0  0  0  0  0  0  0  0  0
   40.1910   30.5310   42.2140 H   0  0  0  0  0  0  0  0  0  0  0  0
   39.4320   29.7570   42.4420 C   0  0  0  0  0  0  0  0  0  0  0  0
   40.0700   28.9330   41.6910 O   0  0  0  0  0  0  0  0  0  0  0  0
   38.2210   29.6890   43.2480 N   0  0  0  0  0  0  0  0  0  0  0  0
   38.3000   30.7060   43.5760 H   0  0  0  0  0  0  0  0  0  0  0  0
   35.5010   28.9430   40.7670 C   0  0  0  0  0  0  0  0  0  0  0  0
   35.4110   29.4770   41.7680 H   0  0  0  0  0  0  0  0  0  0  0  0
   34.5890   28.6130   40.3210 H   0  0  0  0  0  0  0  0  0  0  0  0
   37.0880   31.1990   38.2280 C   0  0  0  0  0  0  0  0  0  0  0  0
   36.4040   30.0720   38.7800 C   0  0  0  0  0  0  0  0  0  0  0  0
   36.1630   30.1070   40.1250 C   0  0  0  0  0  0  0  0  0  0  0  0
   36.5590   31.1660   40.8870 N   0  0  0  0  0  0  0  0  0  0  0  0
   37.1980   32.2050   40.3350 C   0  0  0  0  0  0  0  0  0  0  0  0
   37.4610   32.2240   39.0240 N   0  0  0  0  0  0  0  0  0  0  0  0
   37.3300   31.2770   37.1770 H   0  0  0  0  0  0  0  0  0  0  0  0
   36.1670   29.3600   38.0330 H   0  0  0  0  0  0  0  0  0  0  0  0
   37.5380   33.0750   40.8800 H   0  0  0  0  0  0  0  0  0  0  0  0
  1  4  1  0  0  0  0
  2  1  1  0  0  0  0
  3  1  1  0  0  0  0
  4  7  1  1  0  0  0
  4  5  1  0  0  0  0
  4  6  1  0  0  0  0
  5  6  1  0  0  0  0
  5  8  1  0  0  0  0
  6 10  1  1  0  0  0
  9  5  1  0  0  0  0
 11 12  1  0  0  0  0
 12 14  1  0  0  0  0
 13 12  2  0  0  0  0
 14  6  1  0  0  0  0
 14 15  1  0  0  0  0
 16  1  1  0  0  0  0
 16 17  1  0  0  0  0
 18 16  1  0  0  0  0
 19 20  2  0  0  0  0
 19 24  1  0  0  0  0
 20 21  1  0  0  0  0
 21 16  1  0  0  0  0
 21 22  2  0  0  0  0
 23 27  1  0  0  0  0
 23 22  1  0  0  0  0
 24 23  2  0  0  0  0
 25 19  1  0  0  0  0
 26 20  1  0  0  0  0
M  END
>  <minimizedAffinity>
-4.17918921

$$$$

 OpenBabel03252502443D

 27 28  0  0  1  0  0  0  0  0999 V2000
   37.3750   26.4910   41.5260 C   0  0  0  0  0  0  0  0  0  0  0  0
   37.1400   26.6340   40.4740 H   0  0  0  0  0  0  0  0  0  0  0  0
   38.4900   26.4170   41.6820 H   0  0  0  0  0  0  0  0  0  0  0  0
   36.8360   25.2190   42.1040 C   0  0  1  0  0  0  0  0  0  0  0  0
   36.6020   24.0810   41.1550 C   0  0  0  0  0  0  0  0  0  0  0  0
   37.6550   24.0400   42.1730 C   0  0  1  0  0  0  0  0  0  0  0  0
   36.0310   25.4890   42.8550 H   0  0  0  0  0  0  0  0  0  0  0  0
   35.5790   23.6120   41.3120 H   0  0  0  0  0  0  0  0  0  0  0  0
   36.7360   24.1560   40.0690 H   0  0  0  0  0  0  0  0  0  0  0  0
   37.2590   23.4120   43.0490 H   0  0  0  0  0  0  0  0  0  0  0  0
   41.0810   24.3460   43.0860 H   0  0  0  0  0  0  0  0  0  0  0  0
   39.9880   24.4220   42.9220 C   0  0  0  0  0  0  0  0  0  0  0  0
   39.9630   25.4600   43.6800 O   0  0  0  0  0  0  0  0  0  0  0  0
   38.9910   23.6730   42.1710 N   0  0  0  0  0  0  0  0  0  0  0  0
   39.7040   22.9650   41.7980 H   0  0  0  0  0  0  0  0  0  0  0  0
   36.8150   27.5720   42.4280 C   0  0  0  0  0  0  0  0  0  0  0  0
   37.7410   27.9780   42.9490 H   0  0  0  0  0  0  0  0  0  0  0  0
   36.0000   27.2910   43.0590 H   0  0  0  0  0  0  0  0  0  0  0  0
   35.5500   30.0530   39.9190 C   0  0  0  0  0  0  0  0  0  0  0  0
   35.6440   28.8520   40.6870 C   0  0  0  0  0  0  0  0  0  0  0  0
   36.6320   28.8120   41.6320 C   0  0  0  0  0  0  0  0  0  0  0  0
   37.4720   29.8690   41.8210 N   0  0  0  0  0  0  0  0  0  0  0  0
   37.3530   30.9790   41.0820 C   0  0  0  0  0  0  0  0  0  0  0  0
   36.4060   31.0730   40.1420 N   0  0  0  0  0  0  0  0  0  0  0  0
   34.8060   30.1930   39.1450 H   0  0  0  0  0  0  0  0  0  0  0  0
   34.9000   28.1530   40.4060 H   0  0  0  0  0  0  0  0  0  0  0  0
   37.9850   31.8500   41.1800 H   0  0  0  0  0  0  0  0  0  0  0  0
  1  3  1  0  0  0  0
  1  4  1  0  0  0  0
  1 16  1  0  0  0  0
  2  1  1  0  0  0  0
  4  6  1  0  0  0  0
  4  7  1  1  0  0  0
  5  8  1  0  0  0  0
  5  4  1  0  0  0  0
  5  6  1  0  0  0  0
  6 10  1  1  0  0  0
  9  5  1  0  0  0  0
 12 11  1  0  0  0  0
 12 13  2  0  0  0  0
 14  6  1  0  0  0  0
 14 12  1  0  0  0  0
 15 14  1  0  0  0  0
 16 17  1  0  0  0  0
 16 18  1  0  0  0  0
 19 24  2  0  0  0  0
 19 20  1  0  0  0  0
 20 21  2  0  0  0  0
 21 22  1  0  0  0  0
 21 16  1  0  0  0  0
 23 27  1  0  0  0  0
 23 22  2  0  0  0  0
 24 23  1  0  0  0  0
 25 19  1  0  0  0  0
 26 20  1  0  0  0  0
M  END
>  <minimizedAffinity>
-4.15337801

$$$$

 OpenBabel03252502443D

 27 28  0  0  1  0  0  0  0  0999 V2000
   36.3990   27.9820   40.9610 C   0  0  0  0  0  0  0  0  0  0  0  0
   35.9400   27.0050   40.8340 H   0  0  0  0  0  0  0  0  0  0  0  0
   37.2870   28.1000   40.2750 H   0  0  0  0  0  0  0  0  0  0  0  0
   36.9570   28.2210   42.3300 C   0  0  1  0  0  0  0  0  0  0  0  0
   36.4430   27.3510   43.4390 C   0  0  0  0  0  0  0  0  0  0  0  0
   37.8210   27.2530   42.9490 C   0  0  1  0  0  0  0  0  0  0  0  0
   37.0240   29.3410   42.4900 H   0  0  0  0  0  0  0  0  0  0  0  0
   36.1600   27.9640   44.3530 H   0  0  0  0  0  0  0  0  0  0  0  0
   35.6440   26.6110   43.3130 H   0  0  0  0  0  0  0  0  0  0  0  0
   38.4870   27.8280   43.6860 H   0  0  0  0  0  0  0  0  0  0  0  0
   38.5580   23.9400   41.8820 H   0  0  0  0  0  0  0  0  0  0  0  0
   38.1270   24.9100   42.1970 C   0  0  0  0  0  0  0  0  0  0  0  0
   36.9500   24.4180   42.0470 O   0  0  0  0  0  0  0  0  0  0  0  0
   38.6560   26.2030   42.6070 N   0  0  0  0  0  0  0  0  0  0  0  0
   39.6780   25.8960   42.4990 H   0  0  0  0  0  0  0  0  0  0  0  0
   35.4430   29.1370   40.7460 C   0  0  0  0  0  0  0  0  0  0  0  0
   35.4740   29.6850   41.7430 H   0  0  0  0  0  0  0  0  0  0  0  0
   34.4750   28.8910   40.3690 H   0  0  0  0  0  0  0  0  0  0  0  0
   37.1950   31.1440   38.1080 C   0  0  0  0  0  0  0  0  0  0  0  0
   36.4570   30.0830   38.7170 C   0  0  0  0  0  0  0  0  0  0  0  0
   36.1640   30.2300   40.0440 C   0  0  0  0  0  0  0  0  0  0  0  0
   36.5590   31.3350   40.7360 N   0  0  0  0  0  0  0  0  0  0  0  0
   37.2500   32.3110   40.1320 C   0  0  0  0  0  0  0  0  0  0  0  0
   37.5650   32.2190   38.8370 N   0  0  0  0  0  0  0  0  0  0  0  0
   37.4810   31.1320   37.0650 H   0  0  0  0  0  0  0  0  0  0  0  0
   36.2300   29.3200   38.0180 H   0  0  0  0  0  0  0  0  0  0  0  0
   37.5930   33.2110   40.6220 H   0  0  0  0  0  0  0  0  0  0  0  0
  1  4  1  0  0  0  0
  2  1  1  0  0  0  0
  3  1  1  0  0  0  0
  4  7  1  1  0  0  0
  4  6  1  0  0  0  0
  4  5  1  0  0  0  0
  5  8  1  0  0  0  0
  6  5  1  0  0  0  0
  6 10  1  1  0  0  0
  9  5  1  0  0  0  0
 11 12  1  0  0  0  0
 12 14  1  0  0  0  0
 13 12  2  0  0  0  0
 14  6  1  0  0  0  0
 15 14  1  0  0  0  0
 16  1  1  0  0  0  0
 16 17  1  0  0  0  0
 18 16  1  0  0  0  0
 19 20  2  0  0  0  0
 19 24  1  0  0  0  0
 20 21  1  0  0  0  0
 21 22  2  0  0  0  0
 21 16  1  0  0  0  0
 23 27  1  0  0  0  0
 23 22  1  0  0  0  0
 24 23  2  0  0  0  0
 25 19  1  0  0  0  0
 26 20  1  0  0  0  0
M  END
>  <minimizedAffinity>
-4.14838648

$$$$

 OpenBabel03252502443D

 27 28  0  0  1  0  0  0  0  0999 V2000
   38.1480   27.2170   43.3480 C   0  0  0  0  0  0  0  0  0  0  0  0
   39.1470   27.4110   42.9670 H   0  0  0  0  0  0  0  0  0  0  0  0
   38.1900   26.6030   44.2940 H   0  0  0  0  0  0  0  0  0  0  0  0
   37.2890   26.4100   42.4230 C   0  0  1  0  0  0  0  0  0  0  0  0
   37.8650   26.0650   41.0820 C   0  0  0  0  0  0  0  0  0  0  0  0
   37.6260   25.0490   42.1100 C   0  0  1  0  0  0  0  0  0  0  0  0
   36.2320   26.8150   42.4850 H   0  0  0  0  0  0  0  0  0  0  0  0
   37.1260   26.2750   40.2450 H   0  0  0  0  0  0  0  0  0  0  0  0
   38.8360   26.4260   40.7240 H   0  0  0  0  0  0  0  0  0  0  0  0
   36.6430   24.5180   41.8440 H   0  0  0  0  0  0  0  0  0  0  0  0
   40.5840   23.4530   43.2780 H   0  0  0  0  0  0  0  0  0  0  0  0
   39.7890   24.1170   42.8850 C   0  0  0  0  0  0  0  0  0  0  0  0
   40.6570   25.0560   42.7600 O   0  0  0  0  0  0  0  0  0  0  0  0
   38.3630   23.9930   42.6200 N   0  0  0  0  0  0  0  0  0  0  0  0
   38.3200   22.9750   42.9530 H   0  0  0  0  0  0  0  0  0  0  0  0
   37.3380   28.4720   43.6020 C   0  0  0  0  0  0  0  0  0  0  0  0
   37.8980   28.9710   44.4570 H   0  0  0  0  0  0  0  0  0  0  0  0
   36.2860   28.3420   43.7340 H   0  0  0  0  0  0  0  0  0  0  0  0
   39.3590   31.0260   41.7460 C   0  0  0  0  0  0  0  0  0  0  0  0
   39.0340   29.9900   42.6740 C   0  0  0  0  0  0  0  0  0  0  0  0
   37.7530   29.5140   42.6280 C   0  0  0  0  0  0  0  0  0  0  0  0
   36.8460   30.0090   41.7380 N   0  0  0  0  0  0  0  0  0  0  0  0
   37.1880   30.9810   40.8830 C   0  0  0  0  0  0  0  0  0  0  0  0
   38.4260   31.4850   40.8840 N   0  0  0  0  0  0  0  0  0  0  0  0
   40.3420   31.4760   41.6950 H   0  0  0  0  0  0  0  0  0  0  0  0
   39.8680   29.7290   43.2710 H   0  0  0  0  0  0  0  0  0  0  0  0
   36.5190   31.4180   40.1540 H   0  0  0  0  0  0  0  0  0  0  0  0
  1 16  1  0  0  0  0
  1  3  1  0  0  0  0
  2  1  1  0  0  0  0
  4  7  1  1  0  0  0
  4  1  1  0  0  0  0
  5  6  1  0  0  0  0
  5  4  1  0  0  0  0
  6 10  1  6  0  0  0
  6  4  1  0  0  0  0
  6 14  1  0  0  0  0
  8  5  1  0  0  0  0
  9  5  1  0  0  0  0
 12 11  1  0  0  0  0
 13 12  2  0  0  0  0
 14 12  1  0  0  0  0
 14 15  1  0  0  0  0
 16 18  1  0  0  0  0
 16 17  1  0  0  0  0
 19 20  1  0  0  0  0
 20 26  1  0  0  0  0
 21 20  2  0  0  0  0
 21 16  1  0  0  0  0
 22 21  1  0  0  0  0
 23 24  1  0  0  0  0
 23 22  2  0  0  0  0
 24 19  2  0  0  0  0
 25 19  1  0  0  0  0
 27 23  1  0  0  0  0
M  END
>  <minimizedAffinity>
-4.10242128

$$$$

 OpenBabel03252502443D

 27 28  0  0  1  0  0  0  0  0999 V2000
   38.9070   30.5930   40.6350 C   0  0  0  0  0  0  0  0  0  0  0  0
   39.8470   30.7620   40.1160 H   0  0  0  0  0  0  0  0  0  0  0  0
   38.3070   29.7840   40.1260 H   0  0  0  0  0  0  0  0  0  0  0  0
   37.9920   31.7780   40.6440 C   0  0  1  0  0  0  0  0  0  0  0  0
   37.1340   31.9890   39.4310 C   0  0  0  0  0  0  0  0  0  0  0  0
   36.5670   31.6050   40.7270 C   0  0  1  0  0  0  0  0  0  0  0  0
   38.5610   32.6560   41.0790 H   0  0  0  0  0  0  0  0  0  0  0  0
   37.1740   33.0670   39.0750 H   0  0  0  0  0  0  0  0  0  0  0  0
   37.1940   31.3710   38.5270 H   0  0  0  0  0  0  0  0  0  0  0  0
   36.1460   32.5570   41.2110 H   0  0  0  0  0  0  0  0  0  0  0  0
   34.7910   28.5280   40.5320 H   0  0  0  0  0  0  0  0  0  0  0  0
   35.4440   29.4160   40.4200 C   0  0  0  0  0  0  0  0  0  0  0  0
   35.9720   28.8770   39.3800 O   0  0  0  0  0  0  0  0  0  0  0  0
   35.6340   30.6680   41.1370 N   0  0  0  0  0  0  0  0  0  0  0  0
   34.8850   30.4410   41.8700 H   0  0  0  0  0  0  0  0  0  0  0  0
   39.0730   30.2450   42.1000 C   0  0  0  0  0  0  0  0  0  0  0  0
   38.2350   30.8320   42.6000 H   0  0  0  0  0  0  0  0  0  0  0  0
   40.0510   30.3690   42.5120 H   0  0  0  0  0  0  0  0  0  0  0  0
   38.0210   26.6560   41.8390 C   0  0  0  0  0  0  0  0  0  0  0  0
   38.7280   27.8700   41.5730 C   0  0  0  0  0  0  0  0  0  0  0  0
   38.4100   28.9410   42.3600 C   0  0  0  0  0  0  0  0  0  0  0  0
   37.4710   28.8430   43.3430 N   0  0  0  0  0  0  0  0  0  0  0  0
   36.8290   27.6880   43.5640 C   0  0  0  0  0  0  0  0  0  0  0  0
   37.0980   26.6080   42.8230 N   0  0  0  0  0  0  0  0  0  0  0  0
   38.1920   25.7470   41.2770 H   0  0  0  0  0  0  0  0  0  0  0  0
   39.4240   27.7470   40.7850 H   0  0  0  0  0  0  0  0  0  0  0  0
   36.0760   27.5420   44.3250 H   0  0  0  0  0  0  0  0  0  0  0  0
  1  4  1  0  0  0  0
  1 16  1  0  0  0  0
  2  1  1  0  0  0  0
  3  1  1  0  0  0  0
  4  6  1  0  0  0  0
  4  7  1  1  0  0  0
  5  4  1  0  0  0  0
  5  6  1  0  0  0  0
  6 14  1  0  0  0  0
  6 10  1  1  0  0  0
  8  5  1  0  0  0  0
  9  5  1  0  0  0  0
 12 11  1  0  0  0  0
 12 14  1  0  0  0  0
 13 12  2  0  0  0  0
 14 15  1  0  0  0  0
 16 21  1  0  0  0  0
 16 18  1  0  0  0  0
 16 17  1  0  0  0  0
 19 24  1  0  0  0  0
 20 19  2  0  0  0  0
 20 21  1  0  0  0  0
 21 22  2  0  0  0  0
 22 23  1  0  0  0  0
 23 27  1  0  0  0  0
 24 23  2  0  0  0  0
 25 19  1  0  0  0  0
 26 20  1  0  0  0  0
M  END
>  <minimizedAffinity>
-4.02244091

$$$$

 OpenBabel03252502443D

 27 28  0  0  1  0  0  0  0  0999 V2000
   37.2510   29.2550   39.1970 C   0  0  0  0  0  0  0  0  0  0  0  0
   37.5570   28.7810   38.2680 H   0  0  0  0  0  0  0  0  0  0  0  0
   38.1300   29.3740   39.8950 H   0  0  0  0  0  0  0  0  0  0  0  0
   36.2560   28.4640   39.9880 C   0  0  1  0  0  0  0  0  0  0  0  0
   36.7760   27.2860   40.7580 C   0  0  0  0  0  0  0  0  0  0  0  0
   36.2740   28.4900   41.4250 C   0  0  1  0  0  0  0  0  0  0  0  0
   35.3230   28.3450   39.3570 H   0  0  0  0  0  0  0  0  0  0  0  0
   36.1340   26.3640   40.5930 H   0  0  0  0  0  0  0  0  0  0  0  0
   37.8160   26.9410   40.7150 H   0  0  0  0  0  0  0  0  0  0  0  0
   35.2030   28.2670   41.7740 H   0  0  0  0  0  0  0  0  0  0  0  0
   38.3270   29.2630   44.2270 H   0  0  0  0  0  0  0  0  0  0  0  0
   37.7960   28.8410   43.3520 C   0  0  0  0  0  0  0  0  0  0  0  0
   38.5220   27.7850   43.4400 O   0  0  0  0  0  0  0  0  0  0  0  0
   36.7280   29.2830   42.4670 N   0  0  0  0  0  0  0  0  0  0  0  0
   36.6080   30.2230   42.9680 H   0  0  0  0  0  0  0  0  0  0  0  0
   36.5810   30.6000   39.0030 C   0  0  0  0  0  0  0  0  0  0  0  0
   35.7910   30.6150   39.8220 H   0  0  0  0  0  0  0  0  0  0  0  0
   36.2450   30.8270   38.0150 H   0  0  0  0  0  0  0  0  0  0  0  0
   38.0530   33.9060   39.9830 C   0  0  0  0  0  0  0  0  0  0  0  0
   37.2030   32.9540   39.3410 C   0  0  0  0  0  0  0  0  0  0  0  0
   37.3990   31.6430   39.6750 C   0  0  0  0  0  0  0  0  0  0  0  0
   38.3550   31.2780   40.5750 N   0  0  0  0  0  0  0  0  0  0  0  0
   39.1330   32.1990   41.1580 C   0  0  0  0  0  0  0  0  0  0  0  0
   38.9870   33.4960   40.8680 N   0  0  0  0  0  0  0  0  0  0  0  0
   37.9850   34.9690   39.7940 H   0  0  0  0  0  0  0  0  0  0  0  0
   36.5160   33.4270   38.6880 H   0  0  0  0  0  0  0  0  0  0  0  0
   39.9090   31.9780   41.8780 H   0  0  0  0  0  0  0  0  0  0  0  0
  1  3  1  0  0  0  0
  1  4  1  0  0  0  0
  2  1  1  0  0  0  0
  4  7  1  6  0  0  0
  4  5  1  0  0  0  0
  4  6  1  0  0  0  0
  5  6  1  0  0  0  0
  6 10  1  1  0  0  0
  6 14  1  0  0  0  0
  8  5  1  0  0  0  0
  9  5  1  0  0  0  0
 12 13  2  0  0  0  0
 12 11  1  0  0  0  0
 14 15  1  0  0  0  0
 14 12  1  0  0  0  0
 16  1  1  0  0  0  0
 16 21  1  0  0  0  0
 16 17  1  0  0  0  0
 18 16  1  0  0  0  0
 19 24  1  0  0  0  0
 20 21  1  0  0  0  0
 20 19  2  0  0  0  0
 21 22  2  0  0  0  0
 22 23  1  0  0  0  0
 23 27  1  0  0  0  0
 24 23  2  0  0  0  0
 25 19  1  0  0  0  0
 26 20  1  0  0  0  0
M  END
>  <minimizedAffinity>
-4.01727867

$$$$

 OpenBabel03252502443D

 27 28  0  0  1  0  0  0  0  0999 V2000
   39.0760   27.3670   42.3360 C   0  0  0  0  0  0  0  0  0  0  0  0
   40.1330   27.1250   42.4130 H   0  0  0  0  0  0  0  0  0  0  0  0
   38.8040   27.6490   41.2780 H   0  0  0  0  0  0  0  0  0  0  0  0
   38.6600   28.5510   43.1520 C   0  0  1  0  0  0  0  0  0  0  0  0
   38.9760   29.9090   42.5970 C   0  0  0  0  0  0  0  0  0  0  0  0
   37.6010   29.4150   42.7050 C   0  0  1  0  0  0  0  0  0  0  0  0
   38.8940   28.3280   44.2380 H   0  0  0  0  0  0  0  0  0  0  0  0
   39.4490   30.5800   43.3830 H   0  0  0  0  0  0  0  0  0  0  0  0
   39.5490   30.0730   41.6760 H   0  0  0  0  0  0  0  0  0  0  0  0
   37.1400   29.8870   43.6440 H   0  0  0  0  0  0  0  0  0  0  0  0
   35.4250   30.7590   40.2310 H   0  0  0  0  0  0  0  0  0  0  0  0
   36.2070   30.5230   40.9790 C   0  0  0  0  0  0  0  0  0  0  0  0
   36.7490   31.6640   40.7490 O   0  0  0  0  0  0  0  0  0  0  0  0
   36.5060   29.4000   41.8560 N   0  0  0  0  0  0  0  0  0  0  0  0
   35.6650   28.8260   41.5220 H   0  0  0  0  0  0  0  0  0  0  0  0
   38.1600   26.2550   42.8070 C   0  0  0  0  0  0  0  0  0  0  0  0
   37.2550   26.8190   43.2040 H   0  0  0  0  0  0  0  0  0  0  0  0
   38.5910   25.5270   43.4590 H   0  0  0  0  0  0  0  0  0  0  0  0
   36.3210   23.9620   40.4810 C   0  0  0  0  0  0  0  0  0  0  0  0
   36.9950   24.4250   41.6520 C   0  0  0  0  0  0  0  0  0  0  0  0
   37.4080   25.7280   41.6400 C   0  0  0  0  0  0  0  0  0  0  0  0
   37.1810   26.5310   40.5620 N   0  0  0  0  0  0  0  0  0  0  0  0
   36.5450   26.0620   39.4800 C   0  0  0  0  0  0  0  0  0  0  0  0
   36.1200   24.7950   39.4370 N   0  0  0  0  0  0  0  0  0  0  0  0
   35.9510   22.9500   40.3820 H   0  0  0  0  0  0  0  0  0  0  0  0
   37.0640   23.6640   42.3850 H   0  0  0  0  0  0  0  0  0  0  0  0
   36.3340   26.6440   38.5940 H   0  0  0  0  0  0  0  0  0  0  0  0
  1  2  1  0  0  0  0
  1 16  1  0  0  0  0
  1  4  1  0  0  0  0
  3  1  1  0  0  0  0
  4  7  1  1  0  0  0
  5  6  1  0  0  0  0
  5  4  1  0  0  0  0
  5  8  1  0  0  0  0
  6  4  1  0  0  0  0
  6 10  1  1  0  0  0
  9  5  1  0  0  0  0
 11 12  1  0  0  0  0
 12 14  1  0  0  0  0
 13 12  2  0  0  0  0
 14  6  1  0  0  0  0
 15 14  1  0  0  0  0
 16 17  1  0  0  0  0
 16 18  1  0  0  0  0
 19 20  1  0  0  0  0
 20 26  1  0  0  0  0
 21 20  2  0  0  0  0
 21 16  1  0  0  0  0
 22 21  1  0  0  0  0
 23 22  2  0  0  0  0
 24 23  1  0  0  0  0
 24 19  2  0  0  0  0
 25 19  1  0  0  0  0
 27 23  1  0  0  0  0
M  END
>  <minimizedAffinity>
-3.99334049

$$$$

 OpenBabel03252502443D

 27 28  0  0  1  0  0  0  0  0999 V2000
   36.6290   27.2250   43.1550 C   0  0  0  0  0  0  0  0  0  0  0  0
   35.9690   26.8180   43.9160 H   0  0  0  0  0  0  0  0  0  0  0  0
   36.0360   27.6640   42.3010 H   0  0  0  0  0  0  0  0  0  0  0  0
   37.5120   26.2050   42.5040 C   0  0  1  0  0  0  0  0  0  0  0  0
   36.8740   24.9090   42.0960 C   0  0  0  0  0  0  0  0  0  0  0  0
   37.3570   25.8820   41.1120 C   0  0  1  0  0  0  0  0  0  0  0  0
   38.4970   26.1850   43.0640 H   0  0  0  0  0  0  0  0  0  0  0  0
   37.4930   24.0170   42.4300 H   0  0  0  0  0  0  0  0  0  0  0  0
   35.8310   24.6500   42.3100 H   0  0  0  0  0  0  0  0  0  0  0  0
   38.3790   25.5150   40.7410 H   0  0  0  0  0  0  0  0  0  0  0  0
   37.3400   28.0630   38.2990 H   0  0  0  0  0  0  0  0  0  0  0  0
   37.5290   27.4780   39.2210 C   0  0  0  0  0  0  0  0  0  0  0  0
   38.6290   28.1210   39.3850 O   0  0  0  0  0  0  0  0  0  0  0  0
   36.8360   26.4240   39.9480 N   0  0  0  0  0  0  0  0  0  0  0  0
   36.0200   26.3880   39.2540 H   0  0  0  0  0  0  0  0  0  0  0  0
   37.5960   28.2670   43.6800 C   0  0  0  0  0  0  0  0  0  0  0  0
   38.6140   27.8160   43.4440 H   0  0  0  0  0  0  0  0  0  0  0  0
   37.4430   28.5960   44.6840 H   0  0  0  0  0  0  0  0  0  0  0  0
   39.0450   30.9880   41.5470 C   0  0  0  0  0  0  0  0  0  0  0  0
   38.9700   29.9370   42.5110 C   0  0  0  0  0  0  0  0  0  0  0  0
   37.7520   29.3320   42.6560 C   0  0  0  0  0  0  0  0  0  0  0  0
   36.6780   29.7190   41.9120 N   0  0  0  0  0  0  0  0  0  0  0  0
   36.7860   30.7090   41.0170 C   0  0  0  0  0  0  0  0  0  0  0  0
   37.9520   31.3370   40.8340 N   0  0  0  0  0  0  0  0  0  0  0  0
   39.9580   31.5350   41.3500 H   0  0  0  0  0  0  0  0  0  0  0  0
   39.9060   29.7710   42.9770 H   0  0  0  0  0  0  0  0  0  0  0  0
   35.9760   31.0650   40.3960 H   0  0  0  0  0  0  0  0  0  0  0  0
  1 16  1  0  0  0  0
  1  2  1  0  0  0  0
  3  1  1  0  0  0  0
  4  7  1  1  0  0  0
  4  1  1  0  0  0  0
  5  9  1  0  0  0  0
  5  8  1  0  0  0  0
  5  4  1  0  0  0  0
  6 10  1  6  0  0  0
  6  5  1  0  0  0  0
  6  4  1  0  0  0  0
 11 12  1  0  0  0  0
 12 13  2  0  0  0  0
 12 14  1  0  0  0  0
 14  6  1  0  0  0  0
 15 14  1  0  0  0  0
 16 18  1  0  0  0  0
 17 16  1  0  0  0  0
 19 20  1  0  0  0  0
 20 21  2  0  0  0  0
 20 26  1  0  0  0  0
 21 16  1  0  0  0  0
 22 21  1  0  0  0  0
 23 22  2  0  0  0  0
 24 23  1  0  0  0  0
 24 19  2  0  0  0  0
 25 19  1  0  0  0  0
 27 23  1  0  0  0  0
M  END
>  <minimizedAffinity>
-3.94911027

$$$$

 OpenBabel03252502443D

 27 28  0  0  1  0  0  0  0  0999 V2000
   36.5450   31.5660   40.6350 C   0  0  0  0  0  0  0  0  0  0  0  0
   35.5300   31.9420   40.7340 H   0  0  0  0  0  0  0  0  0  0  0  0
   37.1310   31.7380   41.5840 H   0  0  0  0  0  0  0  0  0  0  0  0
   37.3500   32.2520   39.5760 C   0  0  1  0  0  0  0  0  0  0  0  0
   37.3330   33.7520   39.5670 C   0  0  0  0  0  0  0  0  0  0  0  0
   38.5350   32.9910   39.9180 C   0  0  1  0  0  0  0  0  0  0  0  0
   37.1990   31.6910   38.6030 H   0  0  0  0  0  0  0  0  0  0  0  0
   37.1490   34.1610   38.5230 H   0  0  0  0  0  0  0  0  0  0  0  0
   36.7160   34.3580   40.2410 H   0  0  0  0  0  0  0  0  0  0  0  0
   39.2130   32.9770   38.9910 H   0  0  0  0  0  0  0  0  0  0  0  0
   41.7690   33.6150   41.2630 H   0  0  0  0  0  0  0  0  0  0  0  0
   40.8520   33.4720   40.6600 C   0  0  0  0  0  0  0  0  0  0  0  0
   41.5110   33.8030   39.6080 O   0  0  0  0  0  0  0  0  0  0  0  0
   39.4770   33.0770   40.9300 N   0  0  0  0  0  0  0  0  0  0  0  0
   39.6440   32.9610   41.9820 H   0  0  0  0  0  0  0  0  0  0  0  0
   36.6180   30.0990   40.2620 C   0  0  0  0  0  0  0  0  0  0  0  0
   37.6530   30.0040   39.7970 H   0  0  0  0  0  0  0  0  0  0  0  0
   35.8030   29.7110   39.6920 H   0  0  0  0  0  0  0  0  0  0  0  0
   38.4730   28.8790   43.2830 C   0  0  0  0  0  0  0  0  0  0  0  0
   38.1190   29.6980   42.1670 C   0  0  0  0  0  0  0  0  0  0  0  0
   37.0090   29.3190   41.4640 C   0  0  0  0  0  0  0  0  0  0  0  0
   36.2880   28.2190   41.8220 N   0  0  0  0  0  0  0  0  0  0  0  0
   36.6500   27.4750   42.8750 C   0  0  0  0  0  0  0  0  0  0  0  0
   37.7280   27.7980   43.5970 N   0  0  0  0  0  0  0  0  0  0  0  0
   39.3320   29.0860   43.9080 H   0  0  0  0  0  0  0  0  0  0  0  0
   38.7880   30.5110   42.0560 H   0  0  0  0  0  0  0  0  0  0  0  0
   36.1240   26.5930   43.2110 H   0  0  0  0  0  0  0  0  0  0  0  0
  1  2  1  0  0  0  0
  1  3  1  0  0  0  0
  4  7  1  6  0  0  0
  4  6  1  0  0  0  0
  4  1  1  0  0  0  0
  5  4  1  0  0  0  0
  5  6  1  0  0  0  0
  5  9  1  0  0  0  0
  6 10  1  6  0  0  0
  6 14  1  0  0  0  0
  8  5  1  0  0  0  0
 12 14  1  0  0  0  0
 12 11  1  0  0  0  0
 13 12  2  0  0  0  0
 14 15  1  0  0  0  0
 16  1  1  0  0  0  0
 16 21  1  0  0  0  0
 17 16  1  0  0  0  0
 18 16  1  0  0  0  0
 19 24  1  0  0  0  0
 19 25  1  0  0  0  0
 20 19  2  0  0  0  0
 21 22  2  0  0  0  0
 21 20  1  0  0  0  0
 22 23  1  0  0  0  0
 23 27  1  0  0  0  0
 23 24  2  0  0  0  0
 26 20  1  0  0  0  0
M  END
>  <minimizedAffinity>
-3.94366956

$$$$
