
 OpenBabel03252504203D

 15 15  0  0  0  0  0  0  0  0999 V2000
   46.1630   34.6840   43.3540 C   0  0  0  0  0  0  0  0  0  0  0  0
   45.2290   35.7200   43.3400 C   0  0  0  0  0  0  0  0  0  0  0  0
   44.4650   35.9580   44.4920 C   0  0  0  0  0  0  0  0  0  0  0  0
   44.6830   35.1530   45.5720 N   0  0  0  0  0  0  0  0  0  0  0  0
   45.5890   34.1680   45.5480 C   0  0  0  0  0  0  0  0  0  0  0  0
   46.3450   33.9100   44.4510 N   0  0  0  0  0  0  0  0  0  0  0  0
   45.0740   36.3490   42.4580 H   0  0  0  0  0  0  0  0  0  0  0  0
   43.7340   36.7520   44.5110 H   0  0  0  0  0  0  0  0  0  0  0  0
   46.2240   31.5350   47.7680 H   0  0  0  0  0  0  0  0  0  0  0  0
   46.0320   31.8800   46.7580 C   0  0  0  0  0  0  0  0  0  0  0  0
   45.9010   31.4580   45.5890 O   0  0  0  0  0  0  0  0  0  0  0  0
   45.8540   33.3030   46.6470 N   0  0  0  0  0  0  0  0  0  0  0  0
   45.8980   33.9830   47.4460 H   0  0  0  0  0  0  0  0  0  0  0  0
   47.0870   34.4640   41.8280 S   0  0  0  0  0  0  0  0  0  0  0  0
   48.2800   33.7850   42.1510 H   0  0  0  0  0  0  0  0  0  0  0  0
  1  6  1  0  0  0  0
  2  1  2  0  0  0  0
  2  3  1  0  0  0  0
  3  8  1  0  0  0  0
  3  4  2  0  0  0  0
  5  4  1  0  0  0  0
  5 12  1  0  0  0  0
  6  5  2  0  0  0  0
  7  2  1  0  0  0  0
 10  9  1  0  0  0  0
 11 10  2  0  0  0  0
 12 10  1  0  0  0  0
 12 13  1  0  0  0  0
 14 15  1  0  0  0  0
 14  1  1  0  0  0  0
M  END
>  <minimizedAffinity>
-3.88621259

>  <minimizedRMSD>
2.86000133

$$$$
