
 OpenBabel03252509223D

 23 24  0  0  1  0  0  0  0  0999 V2000
   47.2940   35.2640   41.7190 C   0  0  1  0  0  0  0  0  0  0  0  0
   48.7730   35.6730   41.8810 C   0  0  0  0  0  0  0  0  0  0  0  0
   48.2370   34.5090   40.9810 C   0  0  2  0  0  0  0  0  0  0  0  0
   46.6660   36.0750   41.3040 H   0  0  0  0  0  0  0  0  0  0  0  0
   49.1040   36.5640   41.3520 H   0  0  0  0  0  0  0  0  0  0  0  0
   49.3220   35.4180   42.7780 H   0  0  0  0  0  0  0  0  0  0  0  0
   48.5920   33.5080   41.3650 H   0  0  0  0  0  0  0  0  0  0  0  0
   45.1320   34.5860   44.7240 C   0  0  0  0  0  0  0  0  0  0  0  0
   45.6120   35.2290   43.5540 C   0  0  0  0  0  0  0  0  0  0  0  0
   46.7610   34.7060   43.0150 C   0  0  0  0  0  0  0  0  0  0  0  0
   47.3920   33.6210   43.5990 N   0  0  0  0  0  0  0  0  0  0  0  0
   46.8950   33.0460   44.7100 C   0  0  0  0  0  0  0  0  0  0  0  0
   45.7570   33.5350   45.2740 N   0  0  0  0  0  0  0  0  0  0  0  0
   44.2250   35.0040   45.1440 H   0  0  0  0  0  0  0  0  0  0  0  0
   47.3760   32.1990   45.1770 H   0  0  0  0  0  0  0  0  0  0  0  0
   44.9850   36.3690   42.9730 N   0  0  0  0  0  0  0  0  0  0  0  0
   45.1550   37.0930   43.7150 H   0  0  0  0  0  0  0  0  0  0  0  0
   44.5040   36.4270   42.0630 H   0  0  0  0  0  0  0  0  0  0  0  0
   48.1540   34.1530   37.5600 H   0  0  0  0  0  0  0  0  0  0  0  0
   47.8250   33.9130   38.5590 C   0  0  0  0  0  0  0  0  0  0  0  0
   46.9370   33.0730   38.8540 O   0  0  0  0  0  0  0  0  0  0  0  0
   48.5170   34.6680   39.5730 N   0  0  0  0  0  0  0  0  0  0  0  0
   49.2650   35.3770   39.3340 H   0  0  0  0  0  0  0  0  0  0  0  0
  1  4  1  6  0  0  0
  1  2  1  0  0  0  0
  1 10  1  0  0  0  0
  2  6  1  0  0  0  0
  3  7  1  1  0  0  0
  3  1  1  0  0  0  0
  3  2  1  0  0  0  0
  5  2  1  0  0  0  0
  8 14  1  0  0  0  0
  8 13  1  0  0  0  0
  9  8  2  0  0  0  0
 10  9  1  0  0  0  0
 10 11  2  0  0  0  0
 11 12  1  0  0  0  0
 12 15  1  0  0  0  0
 12 13  2  0  0  0  0
 16  9  1  0  0  0  0
 16 17  1  0  0  0  0
 18 16  1  0  0  0  0
 19 20  1  0  0  0  0
 20 21  2  0  0  0  0
 20 22  1  0  0  0  0
 22  3  1  0  0  0  0
 23 22  1  0  0  0  0
M  END
>  <minimizedAffinity>
-4.29666662

>  <minimizedRMSD>
1.18333507

$$$$
