
 OpenBabel03252500333D

 39 41  0  0  1  0  0  0  0  0999 V2000
   36.4420   29.9480   41.0100 N   0  0  0  0  0  0  0  0  0  0  0  0
   35.2790   29.3290   40.5080 C   0  0  0  0  0  0  0  0  0  0  0  0
   35.5120   28.6310   39.1650 C   0  0  0  0  0  0  0  0  0  0  0  0
   35.8060   29.7350   38.1810 C   0  0  0  0  0  0  0  0  0  0  0  0
   37.0890   30.3790   38.6460 C   0  0  0  0  0  0  0  0  0  0  0  0
   37.1410   30.7460   40.0840 C   0  0  1  0  0  0  0  0  0  0  0  0
   34.6080   30.2020   40.2260 H   0  0  0  0  0  0  0  0  0  0  0  0
   34.6660   28.7840   41.2040 H   0  0  0  0  0  0  0  0  0  0  0  0
   36.4760   28.0630   39.2690 H   0  0  0  0  0  0  0  0  0  0  0  0
   34.6690   27.9920   38.9040 H   0  0  0  0  0  0  0  0  0  0  0  0
   36.0160   29.3300   37.1690 H   0  0  0  0  0  0  0  0  0  0  0  0
   34.9470   30.4320   38.2050 H   0  0  0  0  0  0  0  0  0  0  0  0
   37.9290   29.7440   38.3080 H   0  0  0  0  0  0  0  0  0  0  0  0
   37.1720   31.3320   38.0660 H   0  0  0  0  0  0  0  0  0  0  0  0
   38.2330   30.6620   40.3580 H   0  0  0  0  0  0  0  0  0  0  0  0
   37.3940   34.2360   40.5400 H   0  0  0  0  0  0  0  0  0  0  0  0
   37.7530   33.2320   40.3530 C   0  0  0  0  0  0  0  0  0  0  0  0
   38.9470   32.8300   40.1420 O   0  0  0  0  0  0  0  0  0  0  0  0
   36.8280   32.1490   40.3210 N   0  0  0  0  0  0  0  0  0  0  0  0
   35.7910   32.3100   40.4780 H   0  0  0  0  0  0  0  0  0  0  0  0
   37.2460   29.1370   41.8820 C   0  0  0  0  0  0  0  0  0  0  0  0
   38.1420   28.8080   41.2870 H   0  0  0  0  0  0  0  0  0  0  0  0
   37.5570   29.6990   42.7950 H   0  0  0  0  0  0  0  0  0  0  0  0
   37.2000   26.6600   42.6970 C   0  0  1  0  0  0  0  0  0  0  0  0
   36.4750   27.4330   43.6340 C   0  0  0  0  0  0  0  0  0  0  0  0
   36.4600   27.9340   42.2360 C   0  0  1  0  0  0  0  0  0  0  0  0
   36.7860   25.6900   42.3270 H   0  0  0  0  0  0  0  0  0  0  0  0
   35.5120   27.0640   44.0500 H   0  0  0  0  0  0  0  0  0  0  0  0
   36.9860   28.1020   44.3680 H   0  0  0  0  0  0  0  0  0  0  0  0
   35.6870   27.6590   41.5020 H   0  0  0  0  0  0  0  0  0  0  0  0
   39.4670   27.0280   43.6790 C   0  0  0  0  0  0  0  0  0  0  0  0
   38.6850   26.6570   42.5480 C   0  0  0  0  0  0  0  0  0  0  0  0
   39.3140   26.3170   41.3780 C   0  0  0  0  0  0  0  0  0  0  0  0
   40.6790   26.3550   41.3560 N   0  0  0  0  0  0  0  0  0  0  0  0
   41.4140   26.7130   42.4490 C   0  0  0  0  0  0  0  0  0  0  0  0
   40.8170   27.0560   43.6300 N   0  0  0  0  0  0  0  0  0  0  0  0
   38.9350   27.2870   44.5840 H   0  0  0  0  0  0  0  0  0  0  0  0
   38.7410   26.0340   40.5110 H   0  0  0  0  0  0  0  0  0  0  0  0
   42.4990   26.7290   42.3900 H   0  0  0  0  0  0  0  0  0  0  0  0
  1 21  1  0  0  0  0
  2  1  1  0  0  0  0
  2  8  1  0  0  0  0
  3  9  1  0  0  0  0
  3  2  1  0  0  0  0
  4 12  1  0  0  0  0
  4  5  1  0  0  0  0
  4  3  1  0  0  0  0
  5  6  1  0  0  0  0
  6 19  1  0  0  0  0
  6 15  1  1  0  0  0
  6  1  1  0  0  0  0
  7  2  1  0  0  0  0
 10  3  1  0  0  0  0
 11  4  1  0  0  0  0
 13  5  1  0  0  0  0
 14  5  1  0  0  0  0
 17 16  1  0  0  0  0
 18 17  2  0  0  0  0
 19 17  1  0  0  0  0
 19 20  1  0  0  0  0
 21 26  1  0  0  0  0
 21 23  1  0  0  0  0
 22 21  1  0  0  0  0
 24 27  1  6  0  0  0
 24 25  1  0  0  0  0
 25 28  1  0  0  0  0
 25 29  1  0  0  0  0
 26 30  1  6  0  0  0
 26 24  1  0  0  0  0
 26 25  1  0  0  0  0
 31 37  1  0  0  0  0
 32 24  1  0  0  0  0
 32 31  2  0  0  0  0
 33 32  1  0  0  0  0
 34 33  2  0  0  0  0
 34 35  1  0  0  0  0
 35 36  2  0  0  0  0
 36 31  1  0  0  0  0
 38 33  1  0  0  0  0
 39 35  1  0  0  0  0
M  END
>  <minimizedAffinity>
-5.18011856

$$$$

 OpenBabel03252500333D

 39 41  0  0  1  0  0  0  0  0999 V2000
   36.5340   29.8290   40.6500 N   0  0  0  0  0  0  0  0  0  0  0  0
   35.3400   29.1390   40.3500 C   0  0  0  0  0  0  0  0  0  0  0  0
   35.3940   28.4250   38.9960 C   0  0  0  0  0  0  0  0  0  0  0  0
   35.4660   29.5210   37.9630 C   0  0  0  0  0  0  0  0  0  0  0  0
   36.7690   30.2410   38.2070 C   0  0  0  0  0  0  0  0  0  0  0  0
   37.0310   30.6410   39.6130 C   0  0  1  0  0  0  0  0  0  0  0  0
   34.5870   29.9710   40.1670 H   0  0  0  0  0  0  0  0  0  0  0  0
   34.8770   28.5790   41.1420 H   0  0  0  0  0  0  0  0  0  0  0  0
   36.3910   27.9100   38.9510 H   0  0  0  0  0  0  0  0  0  0  0  0
   34.5560   27.7380   38.8820 H   0  0  0  0  0  0  0  0  0  0  0  0
   35.5330   29.1060   36.9350 H   0  0  0  0  0  0  0  0  0  0  0  0
   34.5850   30.1740   38.1150 H   0  0  0  0  0  0  0  0  0  0  0  0
   37.5790   29.6430   37.7470 H   0  0  0  0  0  0  0  0  0  0  0  0
   36.7070   31.1840   37.6080 H   0  0  0  0  0  0  0  0  0  0  0  0
   38.1560   30.6200   39.7090 H   0  0  0  0  0  0  0  0  0  0  0  0
   37.1840   34.1380   40.0610 H   0  0  0  0  0  0  0  0  0  0  0  0
   37.5660   33.1500   39.8430 C   0  0  0  0  0  0  0  0  0  0  0  0
   38.7540   32.7930   39.5390 O   0  0  0  0  0  0  0  0  0  0  0  0
   36.6830   32.0310   39.8790 N   0  0  0  0  0  0  0  0  0  0  0  0
   35.6560   32.1520   40.1160 H   0  0  0  0  0  0  0  0  0  0  0  0
   37.5090   29.0800   41.3920 C   0  0  0  0  0  0  0  0  0  0  0  0
   37.8600   28.2470   40.7220 H   0  0  0  0  0  0  0  0  0  0  0  0
   38.3640   29.7220   41.7120 H   0  0  0  0  0  0  0  0  0  0  0  0
   37.0160   26.9710   42.8450 C   0  0  1  0  0  0  0  0  0  0  0  0
   37.6360   27.9310   43.6790 C   0  0  0  0  0  0  0  0  0  0  0  0
   36.8280   28.4760   42.5580 C   0  0  1  0  0  0  0  0  0  0  0  0
   36.1100   26.4200   43.1980 H   0  0  0  0  0  0  0  0  0  0  0  0
   37.2610   28.1150   44.7100 H   0  0  0  0  0  0  0  0  0  0  0  0
   38.7300   28.1470   43.6190 H   0  0  0  0  0  0  0  0  0  0  0  0
   35.7610   28.7310   42.6500 H   0  0  0  0  0  0  0  0  0  0  0  0
   39.1070   25.9510   41.9370 C   0  0  0  0  0  0  0  0  0  0  0  0
   37.7070   26.1700   41.7930 C   0  0  0  0  0  0  0  0  0  0  0  0
   37.0540   25.6480   40.7070 C   0  0  0  0  0  0  0  0  0  0  0  0
   37.7900   24.9360   39.8040 N   0  0  0  0  0  0  0  0  0  0  0  0
   39.1310   24.7340   39.9560 C   0  0  0  0  0  0  0  0  0  0  0  0
   39.8120   25.2410   41.0290 N   0  0  0  0  0  0  0  0  0  0  0  0
   39.5870   26.3780   42.8080 H   0  0  0  0  0  0  0  0  0  0  0  0
   35.9960   25.8030   40.5790 H   0  0  0  0  0  0  0  0  0  0  0  0
   39.6800   24.1600   39.2160 H   0  0  0  0  0  0  0  0  0  0  0  0
  1 21  1  0  0  0  0
  2  1  1  0  0  0  0
  2  8  1  0  0  0  0
  3  2  1  0  0  0  0
  4 12  1  0  0  0  0
  4  5  1  0  0  0  0
  4  3  1  0  0  0  0
  5  6  1  0  0  0  0
  6 15  1  1  0  0  0
  6 19  1  0  0  0  0
  6  1  1  0  0  0  0
  7  2  1  0  0  0  0
  9  3  1  0  0  0  0
 10  3  1  0  0  0  0
 11  4  1  0  0  0  0
 13  5  1  0  0  0  0
 14  5  1  0  0  0  0
 17 19  1  0  0  0  0
 17 16  1  0  0  0  0
 18 17  2  0  0  0  0
 19 20  1  0  0  0  0
 21 23  1  0  0  0  0
 21 26  1  0  0  0  0
 22 21  1  0  0  0  0
 24 27  1  1  0  0  0
 24 25  1  0  0  0  0
 25 28  1  0  0  0  0
 26 30  1  1  0  0  0
 26 24  1  0  0  0  0
 26 25  1  0  0  0  0
 29 25  1  0  0  0  0
 31 37  1  0  0  0  0
 32 31  1  0  0  0  0
 32 24  1  0  0  0  0
 33 32  2  0  0  0  0
 34 35  2  0  0  0  0
 34 33  1  0  0  0  0
 35 36  1  0  0  0  0
 36 31  2  0  0  0  0
 38 33  1  0  0  0  0
 39 35  1  0  0  0  0
M  END
>  <minimizedAffinity>
-4.90040684

$$$$

 OpenBabel03252500333D

 39 41  0  0  1  0  0  0  0  0999 V2000
   36.9570   26.9350   41.7680 N   0  0  0  0  0  0  0  0  0  0  0  0
   36.9110   27.6730   42.9690 C   0  0  0  0  0  0  0  0  0  0  0  0
   38.2730   28.2540   43.3580 C   0  0  0  0  0  0  0  0  0  0  0  0
   39.1450   27.0660   43.6790 C   0  0  0  0  0  0  0  0  0  0  0  0
   39.2770   26.2860   42.3950 C   0  0  0  0  0  0  0  0  0  0  0  0
   38.0060   25.9990   41.6810 C   0  0  1  0  0  0  0  0  0  0  0  0
   36.7380   26.8800   43.7660 H   0  0  0  0  0  0  0  0  0  0  0  0
   36.0760   28.3330   43.1160 H   0  0  0  0  0  0  0  0  0  0  0  0
   38.7080   28.6950   42.4200 H   0  0  0  0  0  0  0  0  0  0  0  0
   38.1730   28.9830   44.1620 H   0  0  0  0  0  0  0  0  0  0  0  0
   40.1740   27.3800   43.9540 H   0  0  0  0  0  0  0  0  0  0  0  0
   38.6350   26.4910   44.4750 H   0  0  0  0  0  0  0  0  0  0  0  0
   40.0440   26.7830   41.7720 H   0  0  0  0  0  0  0  0  0  0  0  0
   39.7130   25.2980   42.6880 H   0  0  0  0  0  0  0  0  0  0  0  0
   38.2980   25.9540   40.5910 H   0  0  0  0  0  0  0  0  0  0  0  0
   36.8630   22.6770   41.3470 H   0  0  0  0  0  0  0  0  0  0  0  0
   37.2510   23.6300   41.0120 C   0  0  0  0  0  0  0  0  0  0  0  0
   37.5530   24.0060   39.8290 O   0  0  0  0  0  0  0  0  0  0  0  0
   37.4890   24.6660   41.9610 N   0  0  0  0  0  0  0  0  0  0  0  0
   37.2910   24.5190   42.9930 H   0  0  0  0  0  0  0  0  0  0  0  0
   36.6730   27.6810   40.5740 C   0  0  0  0  0  0  0  0  0  0  0  0
   37.6170   28.2300   40.3000 H   0  0  0  0  0  0  0  0  0  0  0  0
   36.3430   27.0150   39.7420 H   0  0  0  0  0  0  0  0  0  0  0  0
   35.7610   30.1120   40.3290 C   0  0  1  0  0  0  0  0  0  0  0  0
   34.7780   29.2320   39.8190 C   0  0  0  0  0  0  0  0  0  0  0  0
   35.6350   28.6840   40.9010 C   0  0  1  0  0  0  0  0  0  0  0  0
   35.4690   30.9440   41.0160 H   0  0  0  0  0  0  0  0  0  0  0  0
   33.7010   29.3850   40.0540 H   0  0  0  0  0  0  0  0  0  0  0  0
   34.8920   28.7290   38.8280 H   0  0  0  0  0  0  0  0  0  0  0  0
   35.3740   28.7430   41.9680 H   0  0  0  0  0  0  0  0  0  0  0  0
   38.1260   30.9040   40.4640 C   0  0  0  0  0  0  0  0  0  0  0  0
   37.0460   30.4520   39.6520 C   0  0  0  0  0  0  0  0  0  0  0  0
   37.2220   30.3510   38.2960 C   0  0  0  0  0  0  0  0  0  0  0  0
   38.4410   30.6950   37.7850 N   0  0  0  0  0  0  0  0  0  0  0  0
   39.4660   31.1260   38.5770 C   0  0  0  0  0  0  0  0  0  0  0  0
   39.3230   31.2370   39.9330 N   0  0  0  0  0  0  0  0  0  0  0  0
   37.9490   30.9690   41.5290 H   0  0  0  0  0  0  0  0  0  0  0  0
   36.4180   30.0120   37.6640 H   0  0  0  0  0  0  0  0  0  0  0  0
   40.4200   31.3890   38.1310 H   0  0  0  0  0  0  0  0  0  0  0  0
  1  2  1  0  0  0  0
  2  8  1  0  0  0  0
  2  3  1  0  0  0  0
  2  7  1  0  0  0  0
  3  4  1  0  0  0  0
  3 10  1  0  0  0  0
  4 11  1  0  0  0  0
  4 12  1  0  0  0  0
  5 14  1  0  0  0  0
  5  4  1  0  0  0  0
  6 15  1  6  0  0  0
  6  1  1  0  0  0  0
  6 19  1  0  0  0  0
  6  5  1  0  0  0  0
  9  3  1  0  0  0  0
 13  5  1  0  0  0  0
 17 16  1  0  0  0  0
 17 19  1  0  0  0  0
 18 17  2  0  0  0  0
 19 20  1  0  0  0  0
 21 26  1  0  0  0  0
 21  1  1  0  0  0  0
 22 21  1  0  0  0  0
 23 21  1  0  0  0  0
 24 26  1  0  0  0  0
 24 27  1  1  0  0  0
 25 28  1  0  0  0  0
 25 24  1  0  0  0  0
 25 26  1  0  0  0  0
 26 30  1  1  0  0  0
 29 25  1  0  0  0  0
 31 37  1  0  0  0  0
 32 24  1  0  0  0  0
 32 31  2  0  0  0  0
 33 32  1  0  0  0  0
 34 33  2  0  0  0  0
 34 35  1  0  0  0  0
 35 36  2  0  0  0  0
 36 31  1  0  0  0  0
 38 33  1  0  0  0  0
 39 35  1  0  0  0  0
M  END
>  <minimizedAffinity>
-4.7706666

$$$$

 OpenBabel03252500333D

 39 41  0  0  1  0  0  0  0  0999 V2000
   37.5680   26.8000   40.3190 N   0  0  0  0  0  0  0  0  0  0  0  0
   37.7100   25.4610   39.8980 C   0  0  0  0  0  0  0  0  0  0  0  0
   36.7380   24.5120   40.6070 C   0  0  0  0  0  0  0  0  0  0  0  0
   37.1670   24.5000   42.0530 C   0  0  0  0  0  0  0  0  0  0  0  0
   36.9620   25.9060   42.5610 C   0  0  0  0  0  0  0  0  0  0  0  0
   37.5280   26.9870   41.7140 C   0  0  1  0  0  0  0  0  0  0  0  0
   38.7190   25.1510   40.3200 H   0  0  0  0  0  0  0  0  0  0  0  0
   37.8350   25.2800   38.8460 H   0  0  0  0  0  0  0  0  0  0  0  0
   35.7370   25.0220   40.6000 H   0  0  0  0  0  0  0  0  0  0  0  0
   36.7210   23.5360   40.1230 H   0  0  0  0  0  0  0  0  0  0  0  0
   36.5060   23.8530   42.6670 H   0  0  0  0  0  0  0  0  0  0  0  0
   38.2280   24.1900   42.0780 H   0  0  0  0  0  0  0  0  0  0  0  0
   35.8880   26.0290   42.7960 H   0  0  0  0  0  0  0  0  0  0  0  0
   37.4970   25.9510   43.5430 H   0  0  0  0  0  0  0  0  0  0  0  0
   36.8500   27.8710   41.8930 H   0  0  0  0  0  0  0  0  0  0  0  0
   40.1110   28.8340   43.2530 H   0  0  0  0  0  0  0  0  0  0  0  0
   39.0930   28.5990   42.9720 C   0  0  0  0  0  0  0  0  0  0  0  0
   38.0150   29.2240   43.2510 O   0  0  0  0  0  0  0  0  0  0  0  0
   38.8310   27.4440   42.1780 N   0  0  0  0  0  0  0  0  0  0  0  0
   39.6190   26.8110   41.8570 H   0  0  0  0  0  0  0  0  0  0  0  0
   36.6560   27.5960   39.5460 C   0  0  0  0  0  0  0  0  0  0  0  0
   37.2790   28.2870   38.9140 H   0  0  0  0  0  0  0  0  0  0  0  0
   35.9930   26.9620   38.9110 H   0  0  0  0  0  0  0  0  0  0  0  0
   35.9400   29.9590   40.3870 C   0  0  1  0  0  0  0  0  0  0  0  0
   34.7710   29.2820   39.9660 C   0  0  0  0  0  0  0  0  0  0  0  0
   35.8640   28.4200   40.4870 C   0  0  1  0  0  0  0  0  0  0  0  0
   35.9500   30.5150   41.3570 H   0  0  0  0  0  0  0  0  0  0  0  0
   33.8370   29.3340   40.5680 H   0  0  0  0  0  0  0  0  0  0  0  0
   34.5300   29.1350   38.8860 H   0  0  0  0  0  0  0  0  0  0  0  0
   35.9480   28.1210   41.5420 H   0  0  0  0  0  0  0  0  0  0  0  0
   38.2640   30.8040   40.0340 C   0  0  0  0  0  0  0  0  0  0  0  0
   36.9830   30.5210   39.4800 C   0  0  0  0  0  0  0  0  0  0  0  0
   36.7540   30.7750   38.1520 C   0  0  0  0  0  0  0  0  0  0  0  0
   37.7820   31.2960   37.4180 N   0  0  0  0  0  0  0  0  0  0  0  0
   39.0040   31.5610   37.9650 C   0  0  0  0  0  0  0  0  0  0  0  0
   39.2640   31.3180   39.2850 N   0  0  0  0  0  0  0  0  0  0  0  0
   38.4060   30.5890   41.0850 H   0  0  0  0  0  0  0  0  0  0  0  0
   35.7920   30.5690   37.7140 H   0  0  0  0  0  0  0  0  0  0  0  0
   39.7960   31.9740   37.3460 H   0  0  0  0  0  0  0  0  0  0  0  0
  1  6  1  0  0  0  0
  2  1  1  0  0  0  0
  2  7  1  0  0  0  0
  2  3  1  0  0  0  0
  3  4  1  0  0  0  0
  4 12  1  0  0  0  0
  4  5  1  0  0  0  0
  4 11  1  0  0  0  0
  5 13  1  0  0  0  0
  5 14  1  0  0  0  0
  6 15  1  1  0  0  0
  6 19  1  0  0  0  0
  6  5  1  0  0  0  0
  8  2  1  0  0  0  0
  9  3  1  0  0  0  0
 10  3  1  0  0  0  0
 17 18  2  0  0  0  0
 17 16  1  0  0  0  0
 19 17  1  0  0  0  0
 20 19  1  0  0  0  0
 21  1  1  0  0  0  0
 21 26  1  0  0  0  0
 22 21  1  0  0  0  0
 23 21  1  0  0  0  0
 24 26  1  0  0  0  0
 24 27  1  1  0  0  0
 25 24  1  0  0  0  0
 25 26  1  0  0  0  0
 25 28  1  0  0  0  0
 26 30  1  1  0  0  0
 29 25  1  0  0  0  0
 31 37  1  0  0  0  0
 32 31  1  0  0  0  0
 32 24  1  0  0  0  0
 33 32  2  0  0  0  0
 34 35  2  0  0  0  0
 34 33  1  0  0  0  0
 35 36  1  0  0  0  0
 36 31  2  0  0  0  0
 38 33  1  0  0  0  0
 39 35  1  0  0  0  0
M  END
>  <minimizedAffinity>
-4.7521081

$$$$

 OpenBabel03252500333D

 39 41  0  0  1  0  0  0  0  0999 V2000
   37.1910   29.8360   41.6300 N   0  0  0  0  0  0  0  0  0  0  0  0
   37.6130   29.3670   42.8920 C   0  0  0  0  0  0  0  0  0  0  0  0
   38.4050   28.0590   42.8020 C   0  0  0  0  0  0  0  0  0  0  0  0
   37.4210   27.0210   42.3250 C   0  0  0  0  0  0  0  0  0  0  0  0
   36.9960   27.4510   40.9430 C   0  0  0  0  0  0  0  0  0  0  0  0
   36.5770   28.8700   40.8090 C   0  0  1  0  0  0  0  0  0  0  0  0
   36.6480   29.0430   43.3970 H   0  0  0  0  0  0  0  0  0  0  0  0
   38.0050   30.0890   43.5850 H   0  0  0  0  0  0  0  0  0  0  0  0
   39.1320   28.1880   41.9550 H   0  0  0  0  0  0  0  0  0  0  0  0
   38.8930   27.8310   43.7490 H   0  0  0  0  0  0  0  0  0  0  0  0
   37.9040   26.0290   42.2020 H   0  0  0  0  0  0  0  0  0  0  0  0
   36.5790   27.0130   43.0440 H   0  0  0  0  0  0  0  0  0  0  0  0
   37.7870   27.1430   40.2330 H   0  0  0  0  0  0  0  0  0  0  0  0
   36.1030   26.8250   40.6950 H   0  0  0  0  0  0  0  0  0  0  0  0
   36.8430   29.1450   39.7470 H   0  0  0  0  0  0  0  0  0  0  0  0
   33.1900   29.3140   39.9230 H   0  0  0  0  0  0  0  0  0  0  0  0
   34.2520   29.1960   39.7510 C   0  0  0  0  0  0  0  0  0  0  0  0
   34.8920   29.1730   38.6470 O   0  0  0  0  0  0  0  0  0  0  0  0
   35.1310   29.0390   40.8630 N   0  0  0  0  0  0  0  0  0  0  0  0
   34.7610   29.0360   41.8570 H   0  0  0  0  0  0  0  0  0  0  0  0
   38.0900   30.7440   40.9760 C   0  0  0  0  0  0  0  0  0  0  0  0
   38.8100   31.1110   41.7590 H   0  0  0  0  0  0  0  0  0  0  0  0
   38.6320   30.2510   40.1350 H   0  0  0  0  0  0  0  0  0  0  0  0
   37.9860   32.9700   39.6210 C   0  0  1  0  0  0  0  0  0  0  0  0
   37.0580   32.0720   39.0420 C   0  0  0  0  0  0  0  0  0  0  0  0
   37.3000   31.9010   40.4980 C   0  0  1  0  0  0  0  0  0  0  0  0
   37.6930   34.0310   39.8200 H   0  0  0  0  0  0  0  0  0  0  0  0
   36.0470   32.4200   38.7340 H   0  0  0  0  0  0  0  0  0  0  0  0
   37.3840   31.2140   38.4060 H   0  0  0  0  0  0  0  0  0  0  0  0
   36.7000   32.3990   41.2740 H   0  0  0  0  0  0  0  0  0  0  0  0
   40.2650   33.5450   40.4640 C   0  0  0  0  0  0  0  0  0  0  0  0
   39.4690   32.8790   39.4890 C   0  0  0  0  0  0  0  0  0  0  0  0
   40.0840   32.1900   38.4760 C   0  0  0  0  0  0  0  0  0  0  0  0
   41.4490   32.1790   38.4520 N   0  0  0  0  0  0  0  0  0  0  0  0
   42.1990   32.8230   39.3940 C   0  0  0  0  0  0  0  0  0  0  0  0
   41.6150   33.5180   40.4170 N   0  0  0  0  0  0  0  0  0  0  0  0
   39.7430   34.0770   41.2490 H   0  0  0  0  0  0  0  0  0  0  0  0
   39.5000   31.6800   37.7280 H   0  0  0  0  0  0  0  0  0  0  0  0
   43.2830   32.7880   39.3400 H   0  0  0  0  0  0  0  0  0  0  0  0
  1  2  1  0  0  0  0
  2  7  1  0  0  0  0
  2  8  1  0  0  0  0
  3  2  1  0  0  0  0
  3 10  1  0  0  0  0
  4  3  1  0  0  0  0
  4 12  1  0  0  0  0
  5  4  1  0  0  0  0
  6 15  1  6  0  0  0
  6 19  1  0  0  0  0
  6  5  1  0  0  0  0
  6  1  1  0  0  0  0
  9  3  1  0  0  0  0
 11  4  1  0  0  0  0
 13  5  1  0  0  0  0
 14  5  1  0  0  0  0
 17 16  1  0  0  0  0
 17 19  1  0  0  0  0
 18 17  2  0  0  0  0
 19 20  1  0  0  0  0
 21  1  1  0  0  0  0
 21 22  1  0  0  0  0
 23 21  1  0  0  0  0
 24 27  1  1  0  0  0
 24 26  1  0  0  0  0
 25 24  1  0  0  0  0
 25 26  1  0  0  0  0
 26 21  1  0  0  0  0
 26 30  1  1  0  0  0
 28 25  1  0  0  0  0
 29 25  1  0  0  0  0
 31 37  1  0  0  0  0
 32 24  1  0  0  0  0
 32 31  2  0  0  0  0
 33 32  1  0  0  0  0
 34 33  2  0  0  0  0
 34 35  1  0  0  0  0
 35 36  2  0  0  0  0
 36 31  1  0  0  0  0
 38 33  1  0  0  0  0
 39 35  1  0  0  0  0
M  END
>  <minimizedAffinity>
-4.73539925

$$$$

 OpenBabel03252500333D

 39 41  0  0  1  0  0  0  0  0999 V2000
   38.4140   29.7870   40.0360 N   0  0  0  0  0  0  0  0  0  0  0  0
   39.4980   30.6870   40.1030 C   0  0  0  0  0  0  0  0  0  0  0  0
   39.2540   31.8340   41.0880 C   0  0  0  0  0  0  0  0  0  0  0  0
   38.1280   32.6440   40.4960 C   0  0  0  0  0  0  0  0  0  0  0  0
   36.9250   31.7340   40.4730 C   0  0  0  0  0  0  0  0  0  0  0  0
   37.1480   30.3860   39.8880 C   0  0  1  0  0  0  0  0  0  0  0  0
   39.4760   31.2120   39.0950 H   0  0  0  0  0  0  0  0  0  0  0  0
   40.4890   30.2710   40.1250 H   0  0  0  0  0  0  0  0  0  0  0  0
   38.8260   31.3670   42.0160 H   0  0  0  0  0  0  0  0  0  0  0  0
   40.1720   32.3890   41.2770 H   0  0  0  0  0  0  0  0  0  0  0  0
   37.8540   33.4970   41.1510 H   0  0  0  0  0  0  0  0  0  0  0  0
   38.4460   32.9550   39.4830 H   0  0  0  0  0  0  0  0  0  0  0  0
   36.4890   31.7210   41.4890 H   0  0  0  0  0  0  0  0  0  0  0  0
   36.1730   32.2480   39.8240 H   0  0  0  0  0  0  0  0  0  0  0  0
   36.4180   29.7180   40.4310 H   0  0  0  0  0  0  0  0  0  0  0  0
   35.5490   29.4320   36.8900 H   0  0  0  0  0  0  0  0  0  0  0  0
   35.7730   29.3980   37.9490 C   0  0  0  0  0  0  0  0  0  0  0  0
   35.2890   28.6330   38.8500 O   0  0  0  0  0  0  0  0  0  0  0  0
   36.7320   30.3000   38.4940 N   0  0  0  0  0  0  0  0  0  0  0  0
   37.2310   31.0060   37.8800 H   0  0  0  0  0  0  0  0  0  0  0  0
   38.4840   28.6680   40.9330 C   0  0  0  0  0  0  0  0  0  0  0  0
   38.3550   27.7410   40.3090 H   0  0  0  0  0  0  0  0  0  0  0  0
   39.4520   28.6460   41.4870 H   0  0  0  0  0  0  0  0  0  0  0  0
   37.2310   27.7530   43.0290 C   0  0  1  0  0  0  0  0  0  0  0  0
   37.5760   29.1000   43.2910 C   0  0  0  0  0  0  0  0  0  0  0  0
   37.3370   28.7600   41.8640 C   0  0  1  0  0  0  0  0  0  0  0  0
   36.2040   27.3800   43.2640 H   0  0  0  0  0  0  0  0  0  0  0  0
   36.8500   29.7890   43.7750 H   0  0  0  0  0  0  0  0  0  0  0  0
   38.6220   29.4050   43.5330 H   0  0  0  0  0  0  0  0  0  0  0  0
   36.3560   28.8540   41.3760 H   0  0  0  0  0  0  0  0  0  0  0  0
   37.8190   25.4460   42.2770 C   0  0  0  0  0  0  0  0  0  0  0  0
   38.1860   26.6070   43.0140 C   0  0  0  0  0  0  0  0  0  0  0  0
   39.3850   26.6300   43.6790 C   0  0  0  0  0  0  0  0  0  0  0  0
   40.1770   25.5210   43.5990 N   0  0  0  0  0  0  0  0  0  0  0  0
   39.8110   24.4150   42.8880 C   0  0  0  0  0  0  0  0  0  0  0  0
   38.6230   24.3610   42.2140 N   0  0  0  0  0  0  0  0  0  0  0  0
   36.8660   25.4660   41.7650 H   0  0  0  0  0  0  0  0  0  0  0  0
   39.6810   27.4990   44.2430 H   0  0  0  0  0  0  0  0  0  0  0  0
   40.4710   23.5540   42.8490 H   0  0  0  0  0  0  0  0  0  0  0  0
  1  2  1  0  0  0  0
  1 21  1  0  0  0  0
  2  8  1  0  0  0  0
  2  3  1  0  0  0  0
  3 10  1  0  0  0  0
  3  9  1  0  0  0  0
  4  3  1  0  0  0  0
  4 11  1  0  0  0  0
  5  4  1  0  0  0  0
  5 13  1  0  0  0  0
  6  1  1  0  0  0  0
  6 15  1  1  0  0  0
  6  5  1  0  0  0  0
  7  2  1  0  0  0  0
 12  4  1  0  0  0  0
 14  5  1  0  0  0  0
 16 17  1  0  0  0  0
 17 19  1  0  0  0  0
 17 18  2  0  0  0  0
 19  6  1  0  0  0  0
 20 19  1  0  0  0  0
 21 23  1  0  0  0  0
 21 26  1  0  0  0  0
 22 21  1  0  0  0  0
 24 27  1  1  0  0  0
 24 25  1  0  0  0  0
 25 29  1  0  0  0  0
 25 28  1  0  0  0  0
 26 30  1  6  0  0  0
 26 24  1  0  0  0  0
 26 25  1  0  0  0  0
 31 32  1  0  0  0  0
 32 24  1  0  0  0  0
 32 33  2  0  0  0  0
 33 38  1  0  0  0  0
 34 33  1  0  0  0  0
 35 34  2  0  0  0  0
 36 31  2  0  0  0  0
 36 35  1  0  0  0  0
 37 31  1  0  0  0  0
 39 35  1  0  0  0  0
M  END
>  <minimizedAffinity>
-4.71080351

$$$$

 OpenBabel03252500333D

 39 41  0  0  1  0  0  0  0  0999 V2000
   37.5440   31.6360   40.5190 N   0  0  0  0  0  0  0  0  0  0  0  0
   37.2370   32.5640   39.5010 C   0  0  0  0  0  0  0  0  0  0  0  0
   37.4350   31.9880   38.0960 C   0  0  0  0  0  0  0  0  0  0  0  0
   38.9180   31.7550   37.9590 C   0  0  0  0  0  0  0  0  0  0  0  0
   39.2750   30.7110   38.9880 C   0  0  0  0  0  0  0  0  0  0  0  0
   38.7700   30.9620   40.3620 C   0  0  1  0  0  0  0  0  0  0  0  0
   38.0700   33.3340   39.5780 H   0  0  0  0  0  0  0  0  0  0  0  0
   36.3550   33.1660   39.6260 H   0  0  0  0  0  0  0  0  0  0  0  0
   36.9750   30.9630   38.1070 H   0  0  0  0  0  0  0  0  0  0  0  0
   36.9980   32.6400   37.3400 H   0  0  0  0  0  0  0  0  0  0  0  0
   39.1700   31.3120   36.9730 H   0  0  0  0  0  0  0  0  0  0  0  0
   39.4210   32.7230   38.1450 H   0  0  0  0  0  0  0  0  0  0  0  0
   39.0000   29.7220   38.5770 H   0  0  0  0  0  0  0  0  0  0  0  0
   40.3920   30.7180   39.0470 H   0  0  0  0  0  0  0  0  0  0  0  0
   38.6210   29.9320   40.8010 H   0  0  0  0  0  0  0  0  0  0  0  0
   40.8880   31.6900   43.0900 H   0  0  0  0  0  0  0  0  0  0  0  0
   40.1240   31.1510   42.5440 C   0  0  0  0  0  0  0  0  0  0  0  0
   39.4410   30.1350   42.9060 O   0  0  0  0  0  0  0  0  0  0  0  0
   39.7700   31.5710   41.2290 N   0  0  0  0  0  0  0  0  0  0  0  0
   40.2440   32.4050   40.7750 H   0  0  0  0  0  0  0  0  0  0  0  0
   36.4400   30.8440   40.9840 C   0  0  0  0  0  0  0  0  0  0  0  0
   36.8500   30.1320   41.7530 H   0  0  0  0  0  0  0  0  0  0  0  0
   35.6330   31.4800   41.4190 H   0  0  0  0  0  0  0  0  0  0  0  0
   36.0200   28.5090   39.9020 C   0  0  1  0  0  0  0  0  0  0  0  0
   34.7670   29.1530   40.0300 C   0  0  0  0  0  0  0  0  0  0  0  0
   35.9370   30.0490   39.8420 C   0  0  1  0  0  0  0  0  0  0  0  0
   36.2930   27.9930   38.9480 H   0  0  0  0  0  0  0  0  0  0  0  0
   34.0220   29.1140   39.2050 H   0  0  0  0  0  0  0  0  0  0  0  0
   34.2520   29.2520   41.0160 H   0  0  0  0  0  0  0  0  0  0  0  0
   36.2850   30.3920   38.8560 H   0  0  0  0  0  0  0  0  0  0  0  0
   38.1220   27.4570   40.7460 C   0  0  0  0  0  0  0  0  0  0  0  0
   36.8060   27.9230   41.0270 C   0  0  0  0  0  0  0  0  0  0  0  0
   36.3120   27.8150   42.3010 C   0  0  0  0  0  0  0  0  0  0  0  0
   37.1190   27.2560   43.2510 N   0  0  0  0  0  0  0  0  0  0  0  0
   38.3790   26.8150   42.9660 C   0  0  0  0  0  0  0  0  0  0  0  0
   38.9010   26.9090   41.7060 N   0  0  0  0  0  0  0  0  0  0  0  0
   38.4770   27.5610   39.7300 H   0  0  0  0  0  0  0  0  0  0  0  0
   35.3180   28.1600   42.5330 H   0  0  0  0  0  0  0  0  0  0  0  0
   38.9890   26.3780   43.7510 H   0  0  0  0  0  0  0  0  0  0  0  0
  1 21  1  0  0  0  0
  2  7  1  0  0  0  0
  2  8  1  0  0  0  0
  2  1  1  0  0  0  0
  3  9  1  0  0  0  0
  3  2  1  0  0  0  0
  4  3  1  0  0  0  0
  4 12  1  0  0  0  0
  4  5  1  0  0  0  0
  5 14  1  0  0  0  0
  5  6  1  0  0  0  0
  6  1  1  0  0  0  0
  6 15  1  1  0  0  0
  6 19  1  0  0  0  0
 10  3  1  0  0  0  0
 11  4  1  0  0  0  0
 13  5  1  0  0  0  0
 17 18  2  0  0  0  0
 17 16  1  0  0  0  0
 19 17  1  0  0  0  0
 20 19  1  0  0  0  0
 21 23  1  0  0  0  0
 21 22  1  0  0  0  0
 24 27  1  6  0  0  0
 24 25  1  0  0  0  0
 24 32  1  0  0  0  0
 25 29  1  0  0  0  0
 26 30  1  6  0  0  0
 26 24  1  0  0  0  0
 26 25  1  0  0  0  0
 26 21  1  0  0  0  0
 28 25  1  0  0  0  0
 31 32  2  0  0  0  0
 31 36  1  0  0  0  0
 32 33  1  0  0  0  0
 33 38  1  0  0  0  0
 33 34  2  0  0  0  0
 35 34  1  0  0  0  0
 35 39  1  0  0  0  0
 36 35  2  0  0  0  0
 37 31  1  0  0  0  0
M  END
>  <minimizedAffinity>
-4.71070099

$$$$

 OpenBabel03252500333D

 39 41  0  0  1  0  0  0  0  0999 V2000
   38.7100   25.9650   40.7160 N   0  0  0  0  0  0  0  0  0  0  0  0
   38.0670   25.2840   39.6610 C   0  0  0  0  0  0  0  0  0  0  0  0
   36.8810   24.4400   40.1380 C   0  0  0  0  0  0  0  0  0  0  0  0
   37.4780   23.3450   40.9860 C   0  0  0  0  0  0  0  0  0  0  0  0
   38.1170   24.0320   42.1670 C   0  0  0  0  0  0  0  0  0  0  0  0
   39.0080   25.1760   41.8440 C   0  0  1  0  0  0  0  0  0  0  0  0
   38.8260   24.4980   39.3460 H   0  0  0  0  0  0  0  0  0  0  0  0
   37.9030   25.8250   38.7470 H   0  0  0  0  0  0  0  0  0  0  0  0
   36.3030   25.0850   40.8530 H   0  0  0  0  0  0  0  0  0  0  0  0
   36.2820   24.0970   39.2950 H   0  0  0  0  0  0  0  0  0  0  0  0
   36.6920   22.6830   41.4050 H   0  0  0  0  0  0  0  0  0  0  0  0
   38.2140   22.8080   40.3570 H   0  0  0  0  0  0  0  0  0  0  0  0
   37.3180   24.2700   42.8940 H   0  0  0  0  0  0  0  0  0  0  0  0
   38.7540   23.2540   42.6570 H   0  0  0  0  0  0  0  0  0  0  0  0
   38.9250   25.8600   42.7380 H   0  0  0  0  0  0  0  0  0  0  0  0
   42.4320   24.8450   42.6270 H   0  0  0  0  0  0  0  0  0  0  0  0
   41.4140   25.1880   42.7590 C   0  0  0  0  0  0  0  0  0  0  0  0
   40.9250   25.9270   43.6780 O   0  0  0  0  0  0  0  0  0  0  0  0
   40.4160   24.8050   41.8160 N   0  0  0  0  0  0  0  0  0  0  0  0
   40.6550   24.1890   40.9860 H   0  0  0  0  0  0  0  0  0  0  0  0
   38.2250   27.2910   40.9810 C   0  0  0  0  0  0  0  0  0  0  0  0
   39.0590   28.0010   40.7240 H   0  0  0  0  0  0  0  0  0  0  0  0
   37.3080   27.5190   40.3870 H   0  0  0  0  0  0  0  0  0  0  0  0
   37.5410   28.7590   43.0260 C   0  0  1  0  0  0  0  0  0  0  0  0
   36.5910   27.7170   42.9090 C   0  0  0  0  0  0  0  0  0  0  0  0
   37.9610   27.3960   42.4340 C   0  0  1  0  0  0  0  0  0  0  0  0
   37.9750   29.0160   44.0240 H   0  0  0  0  0  0  0  0  0  0  0  0
   36.2280   27.1760   43.8100 H   0  0  0  0  0  0  0  0  0  0  0  0
   35.8060   27.7200   42.1150 H   0  0  0  0  0  0  0  0  0  0  0  0
   38.7340   26.9460   43.0740 H   0  0  0  0  0  0  0  0  0  0  0  0
   38.8810   30.6330   42.0630 C   0  0  0  0  0  0  0  0  0  0  0  0
   37.6380   29.9410   42.1210 C   0  0  0  0  0  0  0  0  0  0  0  0
   36.5870   30.3810   41.3590 C   0  0  0  0  0  0  0  0  0  0  0  0
   36.7890   31.4790   40.5710 N   0  0  0  0  0  0  0  0  0  0  0  0
   37.9870   32.1310   40.5260 C   0  0  0  0  0  0  0  0  0  0  0  0
   39.0540   31.7170   41.2740 N   0  0  0  0  0  0  0  0  0  0  0  0
   39.6870   30.2550   42.6780 H   0  0  0  0  0  0  0  0  0  0  0  0
   35.6380   29.8720   41.3890 H   0  0  0  0  0  0  0  0  0  0  0  0
   38.1060   33.0000   39.8850 H   0  0  0  0  0  0  0  0  0  0  0  0
  1 21  1  0  0  0  0
  1  6  1  0  0  0  0
  2  3  1  0  0  0  0
  2  1  1  0  0  0  0
  3  9  1  0  0  0  0
  3  4  1  0  0  0  0
  4 11  1  0  0  0  0
  4  5  1  0  0  0  0
  5 14  1  0  0  0  0
  5 13  1  0  0  0  0
  6  5  1  0  0  0  0
  6 15  1  1  0  0  0
  7  2  1  0  0  0  0
  8  2  1  0  0  0  0
 10  3  1  0  0  0  0
 12  4  1  0  0  0  0
 16 17  1  0  0  0  0
 17 18  2  0  0  0  0
 19  6  1  0  0  0  0
 19 17  1  0  0  0  0
 20 19  1  0  0  0  0
 21 26  1  0  0  0  0
 22 21  1  0  0  0  0
 23 21  1  0  0  0  0
 24 27  1  1  0  0  0
 25 24  1  0  0  0  0
 25 28  1  0  0  0  0
 26 25  1  0  0  0  0
 26 24  1  0  0  0  0
 26 30  1  1  0  0  0
 29 25  1  0  0  0  0
 31 32  1  0  0  0  0
 31 37  1  0  0  0  0
 32 24  1  0  0  0  0
 33 38  1  0  0  0  0
 33 32  2  0  0  0  0
 34 33  1  0  0  0  0
 35 34  2  0  0  0  0
 35 36  1  0  0  0  0
 36 31  2  0  0  0  0
 39 35  1  0  0  0  0
M  END
>  <minimizedAffinity>
-4.6674614

$$$$

 OpenBabel03252500333D

 39 41  0  0  1  0  0  0  0  0999 V2000
   37.6920   28.9790   41.4250 N   0  0  0  0  0  0  0  0  0  0  0  0
   36.8000   28.2930   42.2760 C   0  0  0  0  0  0  0  0  0  0  0  0
   37.3750   28.0650   43.6770 C   0  0  0  0  0  0  0  0  0  0  0  0
   38.5270   27.1110   43.4910 C   0  0  0  0  0  0  0  0  0  0  0  0
   39.5400   27.8370   42.6410 C   0  0  0  0  0  0  0  0  0  0  0  0
   39.0080   28.4770   41.4110 C   0  0  1  0  0  0  0  0  0  0  0  0
   36.7670   27.2420   41.8420 H   0  0  0  0  0  0  0  0  0  0  0  0
   35.7650   28.5840   42.2500 H   0  0  0  0  0  0  0  0  0  0  0  0
   37.8440   29.0380   43.9870 H   0  0  0  0  0  0  0  0  0  0  0  0
   36.6020   27.7280   44.3670 H   0  0  0  0  0  0  0  0  0  0  0  0
   39.0350   26.8950   44.4550 H   0  0  0  0  0  0  0  0  0  0  0  0
   38.1270   26.2060   42.9950 H   0  0  0  0  0  0  0  0  0  0  0  0
   40.1070   28.5210   43.3000 H   0  0  0  0  0  0  0  0  0  0  0  0
   40.2690   27.0560   42.3100 H   0  0  0  0  0  0  0  0  0  0  0  0
   39.6820   29.3670   41.2410 H   0  0  0  0  0  0  0  0  0  0  0  0
   40.2100   27.1850   38.3540 H   0  0  0  0  0  0  0  0  0  0  0  0
   40.1670   27.8670   39.1930 C   0  0  0  0  0  0  0  0  0  0  0  0
   40.8840   28.8960   39.4330 O   0  0  0  0  0  0  0  0  0  0  0  0
   39.2000   27.6590   40.2200 N   0  0  0  0  0  0  0  0  0  0  0  0
   38.5210   26.8450   40.1760 H   0  0  0  0  0  0  0  0  0  0  0  0
   37.5590   30.4080   41.4150 C   0  0  0  0  0  0  0  0  0  0  0  0
   37.2290   30.7130   42.4460 H   0  0  0  0  0  0  0  0  0  0  0  0
   38.5180   30.9080   41.1380 H   0  0  0  0  0  0  0  0  0  0  0  0
   36.8020   31.6710   39.2620 C   0  0  1  0  0  0  0  0  0  0  0  0
   36.5640   30.2920   39.0550 C   0  0  0  0  0  0  0  0  0  0  0  0
   36.4800   30.7570   40.4640 C   0  0  1  0  0  0  0  0  0  0  0  0
   36.0190   32.4230   38.9930 H   0  0  0  0  0  0  0  0  0  0  0  0
   35.6210   29.9420   38.5800 H   0  0  0  0  0  0  0  0  0  0  0  0
   37.3940   29.5750   38.8450 H   0  0  0  0  0  0  0  0  0  0  0  0
   35.5440   31.0940   40.9350 H   0  0  0  0  0  0  0  0  0  0  0  0
   38.3110   33.5040   40.0360 C   0  0  0  0  0  0  0  0  0  0  0  0
   38.1430   32.3240   39.2560 C   0  0  0  0  0  0  0  0  0  0  0  0
   39.2030   31.8390   38.5350 C   0  0  0  0  0  0  0  0  0  0  0  0
   40.3830   32.5220   38.6010 N   0  0  0  0  0  0  0  0  0  0  0  0
   40.5280   33.6520   39.3530 C   0  0  0  0  0  0  0  0  0  0  0  0
   39.4910   34.1610   40.0850 N   0  0  0  0  0  0  0  0  0  0  0  0
   37.4520   33.8550   40.5930 H   0  0  0  0  0  0  0  0  0  0  0  0
   39.0960   30.9480   37.9380 H   0  0  0  0  0  0  0  0  0  0  0  0
   41.4850   34.1660   39.3790 H   0  0  0  0  0  0  0  0  0  0  0  0
  1  2  1  0  0  0  0
  2  3  1  0  0  0  0
  3  9  1  0  0  0  0
  3 10  1  0  0  0  0
  4  3  1  0  0  0  0
  4 11  1  0  0  0  0
  5 13  1  0  0  0  0
  5  4  1  0  0  0  0
  6 15  1  6  0  0  0
  6  1  1  0  0  0  0
  6  5  1  0  0  0  0
  7  2  1  0  0  0  0
  8  2  1  0  0  0  0
 12  4  1  0  0  0  0
 14  5  1  0  0  0  0
 16 17  1  0  0  0  0
 17 18  2  0  0  0  0
 17 19  1  0  0  0  0
 19  6  1  0  0  0  0
 20 19  1  0  0  0  0
 21  1  1  0  0  0  0
 21 22  1  0  0  0  0
 23 21  1  0  0  0  0
 24 27  1  6  0  0  0
 24 26  1  0  0  0  0
 25 24  1  0  0  0  0
 25 26  1  0  0  0  0
 26 30  1  1  0  0  0
 26 21  1  0  0  0  0
 28 25  1  0  0  0  0
 29 25  1  0  0  0  0
 31 36  1  0  0  0  0
 31 37  1  0  0  0  0
 32 24  1  0  0  0  0
 32 31  2  0  0  0  0
 33 34  2  0  0  0  0
 33 32  1  0  0  0  0
 34 35  1  0  0  0  0
 35 39  1  0  0  0  0
 35 36  2  0  0  0  0
 38 33  1  0  0  0  0
M  END
>  <minimizedAffinity>
-4.64774036

$$$$
