
 OpenBabel03252507233D

 43 45  0  0  1  0  0  0  0  0999 V2000
   39.1590   29.4550   40.3120 C   0  0  0  0  0  0  0  0  0  0  0  0
   39.7480   29.0170   39.2820 O   0  0  0  0  0  0  0  0  0  0  0  0
   38.7260   28.6490   41.4260 N   0  0  0  0  0  0  0  0  0  0  0  0
   38.8100   28.8700   42.8520 C   0  0  0  0  0  0  0  0  0  0  0  0
   37.4290   28.6710   43.4780 C   0  0  0  0  0  0  0  0  0  0  0  0
   36.9310   27.2740   43.2700 C   0  0  0  0  0  0  0  0  0  0  0  0
   37.8560   26.5740   42.2770 C   0  0  0  0  0  0  0  0  0  0  0  0
   38.0870   27.3990   41.0500 C   0  0  2  0  0  0  0  0  0  0  0  0
   39.5580   28.2530   43.3650 H   0  0  0  0  0  0  0  0  0  0  0  0
   39.0090   29.9630   42.9740 H   0  0  0  0  0  0  0  0  0  0  0  0
   37.5150   28.8340   44.5650 H   0  0  0  0  0  0  0  0  0  0  0  0
   36.7550   29.4310   42.9950 H   0  0  0  0  0  0  0  0  0  0  0  0
   36.8440   26.6750   44.1740 H   0  0  0  0  0  0  0  0  0  0  0  0
   35.9350   27.3270   42.7590 H   0  0  0  0  0  0  0  0  0  0  0  0
   38.8400   26.4590   42.8160 H   0  0  0  0  0  0  0  0  0  0  0  0
   37.4460   25.5960   41.9900 H   0  0  0  0  0  0  0  0  0  0  0  0
   37.0880   27.6980   40.6340 H   0  0  0  0  0  0  0  0  0  0  0  0
   39.9540   31.7280   40.8100 C   0  0  0  0  0  0  0  0  0  0  0  0
   38.9030   30.8820   40.3640 C   0  0  0  0  0  0  0  0  0  0  0  0
   37.7070   31.4400   40.0070 C   0  0  0  0  0  0  0  0  0  0  0  0
   37.5610   32.7770   40.0880 N   0  0  0  0  0  0  0  0  0  0  0  0
   38.5610   33.6010   40.5130 C   0  0  0  0  0  0  0  0  0  0  0  0
   39.7310   33.0560   40.8630 N   0  0  0  0  0  0  0  0  0  0  0  0
   40.8840   31.2680   41.0850 H   0  0  0  0  0  0  0  0  0  0  0  0
   38.3280   34.6510   40.5350 H   0  0  0  0  0  0  0  0  0  0  0  0
   36.6460   30.5510   39.5550 C   0  0  0  0  0  0  0  0  0  0  0  0
   35.7360   30.0720   40.4490 C   0  0  0  0  0  0  0  0  0  0  0  0
   34.7370   29.2220   39.9950 C   0  0  0  0  0  0  0  0  0  0  0  0
   34.6220   28.8370   38.6670 C   0  0  0  0  0  0  0  0  0  0  0  0
   35.5810   29.3590   37.8020 C   0  0  0  0  0  0  0  0  0  0  0  0
   36.5380   30.1800   38.2660 N   0  0  0  0  0  0  0  0  0  0  0  0
   35.7310   30.3060   41.5020 H   0  0  0  0  0  0  0  0  0  0  0  0
   33.9900   28.8160   40.6690 H   0  0  0  0  0  0  0  0  0  0  0  0
   33.8550   28.1790   38.2940 H   0  0  0  0  0  0  0  0  0  0  0  0
   35.5270   29.0820   36.7530 H   0  0  0  0  0  0  0  0  0  0  0  0
   38.7830   26.6180   40.0150 C   0  0  0  0  0  0  0  0  0  0  0  0
   39.3620   25.7490   40.3760 H   0  0  0  0  0  0  0  0  0  0  0  0
   39.6580   27.3120   39.7120 H   0  0  0  0  0  0  0  0  0  0  0  0
   36.6410   25.7900   37.1580 H   0  0  0  0  0  0  0  0  0  0  0  0
   36.9230   25.9010   38.1870 C   0  0  0  0  0  0  0  0  0  0  0  0
   35.9690   25.5240   38.9040 O   0  0  0  0  0  0  0  0  0  0  0  0
   38.1060   26.3670   38.7910 N   0  0  0  0  0  0  0  0  0  0  0  0
   38.7010   26.6360   37.9370 H   0  0  0  0  0  0  0  0  0  0  0  0
  1 19  1  0  0  0  0
  1  3  1  0  0  0  0
  2  1  2  0  0  0  0
  3  4  1  0  0  0  0
  4 10  1  0  0  0  0
  4  9  1  0  0  0  0
  4  5  1  0  0  0  0
  5 11  1  0  0  0  0
  6  5  1  0  0  0  0
  6 13  1  0  0  0  0
  7 15  1  0  0  0  0
  7  6  1  0  0  0  0
  8 17  1  6  0  0  0
  8  3  1  0  0  0  0
  8  7  1  0  0  0  0
 12  5  1  0  0  0  0
 14  6  1  0  0  0  0
 16  7  1  0  0  0  0
 18 23  1  0  0  0  0
 18 24  1  0  0  0  0
 19 18  2  0  0  0  0
 20 21  2  0  0  0  0
 20 19  1  0  0  0  0
 21 22  1  0  0  0  0
 22 25  1  0  0  0  0
 22 23  2  0  0  0  0
 26 20  1  0  0  0  0
 26 27  1  0  0  0  0
 27 32  1  0  0  0  0
 28 27  2  0  0  0  0
 28 33  1  0  0  0  0
 29 28  1  0  0  0  0
 30 31  1  0  0  0  0
 30 29  2  0  0  0  0
 31 26  2  0  0  0  0
 34 29  1  0  0  0  0
 35 30  1  0  0  0  0
 36 37  1  0  0  0  0
 36  8  1  0  0  0  0
 38 36  1  0  0  0  0
 39 40  1  0  0  0  0
 40 42  1  0  0  0  0
 40 41  2  0  0  0  0
 42 36  1  0  0  0  0
 43 42  1  0  0  0  0
M  END
>  <minimizedAffinity>
-5.57452726

$$$$

 OpenBabel03252507233D

 43 45  0  0  1  0  0  0  0  0999 V2000
   39.0500   29.2460   40.3700 C   0  0  0  0  0  0  0  0  0  0  0  0
   39.6160   28.7820   39.3380 O   0  0  0  0  0  0  0  0  0  0  0  0
   38.5800   28.4600   41.4820 N   0  0  0  0  0  0  0  0  0  0  0  0
   38.6770   28.6730   42.9090 C   0  0  0  0  0  0  0  0  0  0  0  0
   37.2880   28.5420   43.5370 C   0  0  0  0  0  0  0  0  0  0  0  0
   36.7220   27.1710   43.3260 C   0  0  0  0  0  0  0  0  0  0  0  0
   37.6090   26.4290   42.3300 C   0  0  0  0  0  0  0  0  0  0  0  0
   37.8790   27.2440   41.1050 C   0  0  2  0  0  0  0  0  0  0  0  0
   39.3940   28.0190   43.4200 H   0  0  0  0  0  0  0  0  0  0  0  0
   38.9300   29.7540   43.0330 H   0  0  0  0  0  0  0  0  0  0  0  0
   37.3840   28.6970   44.6240 H   0  0  0  0  0  0  0  0  0  0  0  0
   36.6520   29.3350   43.0560 H   0  0  0  0  0  0  0  0  0  0  0  0
   36.6060   26.5750   44.2290 H   0  0  0  0  0  0  0  0  0  0  0  0
   35.7290   27.2750   42.8170 H   0  0  0  0  0  0  0  0  0  0  0  0
   38.5870   26.2630   42.8680 H   0  0  0  0  0  0  0  0  0  0  0  0
   37.1510   25.4730   42.0410 H   0  0  0  0  0  0  0  0  0  0  0  0
   36.8960   27.5930   40.6910 H   0  0  0  0  0  0  0  0  0  0  0  0
   39.9500   31.4730   40.8940 C   0  0  0  0  0  0  0  0  0  0  0  0
   38.8660   30.6840   40.4260 C   0  0  0  0  0  0  0  0  0  0  0  0
   37.7060   31.3030   40.0500 C   0  0  0  0  0  0  0  0  0  0  0  0
   37.6260   32.6460   40.1370 N   0  0  0  0  0  0  0  0  0  0  0  0
   38.6590   33.4160   40.5840 C   0  0  0  0  0  0  0  0  0  0  0  0
   39.7940   32.8110   40.9520 N   0  0  0  0  0  0  0  0  0  0  0  0
   40.8510   30.9670   41.1840 H   0  0  0  0  0  0  0  0  0  0  0  0
   38.4780   34.4760   40.6080 H   0  0  0  0  0  0  0  0  0  0  0  0
   36.6100   30.4710   39.5750 C   0  0  0  0  0  0  0  0  0  0  0  0
   35.6730   30.0150   40.4540 C   0  0  0  0  0  0  0  0  0  0  0  0
   34.6420   29.2200   39.9780 C   0  0  0  0  0  0  0  0  0  0  0  0
   34.5180   28.8660   38.6410 C   0  0  0  0  0  0  0  0  0  0  0  0
   35.5060   29.3610   37.7930 C   0  0  0  0  0  0  0  0  0  0  0  0
   36.4950   30.1300   38.2790 N   0  0  0  0  0  0  0  0  0  0  0  0
   35.6720   30.2290   41.5120 H   0  0  0  0  0  0  0  0  0  0  0  0
   33.8720   28.8340   40.6390 H   0  0  0  0  0  0  0  0  0  0  0  0
   33.7250   28.2500   38.2510 H   0  0  0  0  0  0  0  0  0  0  0  0
   35.4470   29.1080   36.7380 H   0  0  0  0  0  0  0  0  0  0  0  0
   38.5340   26.4320   40.0670 C   0  0  0  0  0  0  0  0  0  0  0  0
   38.6320   26.9090   39.0740 H   0  0  0  0  0  0  0  0  0  0  0  0
   37.7320   25.6390   39.8140 H   0  0  0  0  0  0  0  0  0  0  0  0
   41.7000   24.9130   41.1200 H   0  0  0  0  0  0  0  0  0  0  0  0
   40.9860   25.6930   40.9360 C   0  0  0  0  0  0  0  0  0  0  0  0
   41.5020   26.7870   41.2590 O   0  0  0  0  0  0  0  0  0  0  0  0
   39.6740   25.6640   40.4300 N   0  0  0  0  0  0  0  0  0  0  0  0
   39.5140   24.6110   40.2820 H   0  0  0  0  0  0  0  0  0  0  0  0
  1 19  1  0  0  0  0
  1  3  1  0  0  0  0
  2  1  2  0  0  0  0
  3  4  1  0  0  0  0
  4 10  1  0  0  0  0
  4  9  1  0  0  0  0
  4  5  1  0  0  0  0
  5 11  1  0  0  0  0
  6  5  1  0  0  0  0
  6 13  1  0  0  0  0
  7 15  1  0  0  0  0
  7  6  1  0  0  0  0
  8 17  1  6  0  0  0
  8  3  1  0  0  0  0
  8  7  1  0  0  0  0
 12  5  1  0  0  0  0
 14  6  1  0  0  0  0
 16  7  1  0  0  0  0
 18 23  1  0  0  0  0
 18 24  1  0  0  0  0
 19 18  2  0  0  0  0
 20 21  2  0  0  0  0
 20 19  1  0  0  0  0
 21 22  1  0  0  0  0
 22 25  1  0  0  0  0
 22 23  2  0  0  0  0
 26 20  1  0  0  0  0
 26 27  1  0  0  0  0
 27 32  1  0  0  0  0
 28 27  2  0  0  0  0
 28 33  1  0  0  0  0
 29 28  1  0  0  0  0
 30 31  1  0  0  0  0
 30 29  2  0  0  0  0
 31 26  2  0  0  0  0
 34 29  1  0  0  0  0
 35 30  1  0  0  0  0
 36 42  1  0  0  0  0
 36  8  1  0  0  0  0
 37 36  1  0  0  0  0
 38 36  1  0  0  0  0
 40 39  1  0  0  0  0
 40 41  2  0  0  0  0
 42 40  1  0  0  0  0
 43 42  1  0  0  0  0
M  END
>  <minimizedAffinity>
-5.56260014

$$$$

 OpenBabel03252507233D

 43 45  0  0  1  0  0  0  0  0999 V2000
   36.9640   28.0890   41.5610 C   0  0  0  0  0  0  0  0  0  0  0  0
   35.7790   28.4660   41.3250 O   0  0  0  0  0  0  0  0  0  0  0  0
   38.0330   28.9450   42.0090 N   0  0  0  0  0  0  0  0  0  0  0  0
   39.0510   28.7510   43.0170 C   0  0  0  0  0  0  0  0  0  0  0  0
   40.4250   29.0490   42.4140 C   0  0  0  0  0  0  0  0  0  0  0  0
   40.5200   30.4700   41.9480 C   0  0  0  0  0  0  0  0  0  0  0  0
   39.1250   31.0880   41.9940 C   0  0  0  0  0  0  0  0  0  0  0  0
   38.1060   30.2230   41.3220 C   0  0  2  0  0  0  0  0  0  0  0  0
   38.8990   29.3320   43.9350 H   0  0  0  0  0  0  0  0  0  0  0  0
   39.0730   27.6510   43.2110 H   0  0  0  0  0  0  0  0  0  0  0  0
   41.1850   28.9060   43.1980 H   0  0  0  0  0  0  0  0  0  0  0  0
   40.5580   28.3230   41.5660 H   0  0  0  0  0  0  0  0  0  0  0  0
   41.2160   31.0930   42.5060 H   0  0  0  0  0  0  0  0  0  0  0  0
   40.8060   30.4670   40.8650 H   0  0  0  0  0  0  0  0  0  0  0  0
   38.8640   31.1550   43.0900 H   0  0  0  0  0  0  0  0  0  0  0  0
   39.1270   32.0830   41.5290 H   0  0  0  0  0  0  0  0  0  0  0  0
   38.4790   29.9780   40.2910 H   0  0  0  0  0  0  0  0  0  0  0  0
   36.8400   25.7690   42.3670 C   0  0  0  0  0  0  0  0  0  0  0  0
   37.2560   26.6810   41.3620 C   0  0  0  0  0  0  0  0  0  0  0  0
   37.9060   26.2040   40.2580 C   0  0  0  0  0  0  0  0  0  0  0  0
   38.1350   24.8790   40.1580 N   0  0  0  0  0  0  0  0  0  0  0  0
   37.7410   23.9910   41.1160 C   0  0  0  0  0  0  0  0  0  0  0  0
   37.1040   24.4580   42.1960 N   0  0  0  0  0  0  0  0  0  0  0  0
   36.3300   26.1660   43.2250 H   0  0  0  0  0  0  0  0  0  0  0  0
   37.9780   22.9600   40.9260 H   0  0  0  0  0  0  0  0  0  0  0  0
   38.3230   27.1600   39.2420 C   0  0  0  0  0  0  0  0  0  0  0  0
   39.6330   27.5250   39.1500 C   0  0  0  0  0  0  0  0  0  0  0  0
   40.0050   28.4420   38.1780 C   0  0  0  0  0  0  0  0  0  0  0  0
   39.1000   29.0060   37.2890 C   0  0  0  0  0  0  0  0  0  0  0  0
   37.7760   28.5940   37.4330 C   0  0  0  0  0  0  0  0  0  0  0  0
   37.4420   27.7040   38.3830 N   0  0  0  0  0  0  0  0  0  0  0  0
   40.4190   27.1490   39.7880 H   0  0  0  0  0  0  0  0  0  0  0  0
   41.0360   28.7620   38.0660 H   0  0  0  0  0  0  0  0  0  0  0  0
   39.3670   29.7190   36.5280 H   0  0  0  0  0  0  0  0  0  0  0  0
   37.0360   29.0120   36.7580 H   0  0  0  0  0  0  0  0  0  0  0  0
   36.8270   30.9360   41.1720 C   0  0  0  0  0  0  0  0  0  0  0  0
   36.1580   30.9120   42.0510 H   0  0  0  0  0  0  0  0  0  0  0  0
   36.2280   30.2460   40.4630 H   0  0  0  0  0  0  0  0  0  0  0  0
   37.0600   33.9190   39.0550 H   0  0  0  0  0  0  0  0  0  0  0  0
   37.1540   32.8850   39.3260 C   0  0  0  0  0  0  0  0  0  0  0  0
   37.6490   32.2640   38.3590 O   0  0  0  0  0  0  0  0  0  0  0  0
   36.8290   32.1920   40.5060 N   0  0  0  0  0  0  0  0  0  0  0  0
   36.4080   32.9710   41.1150 H   0  0  0  0  0  0  0  0  0  0  0  0
  1  3  1  0  0  0  0
  2  1  2  0  0  0  0
  3  4  1  0  0  0  0
  4 10  1  0  0  0  0
  4  9  1  0  0  0  0
  5  4  1  0  0  0  0
  5 11  1  0  0  0  0
  6  7  1  0  0  0  0
  6  5  1  0  0  0  0
  6 13  1  0  0  0  0
  7 15  1  0  0  0  0
  8 17  1  6  0  0  0
  8  7  1  0  0  0  0
  8  3  1  0  0  0  0
 12  5  1  0  0  0  0
 14  6  1  0  0  0  0
 16  7  1  0  0  0  0
 18 24  1  0  0  0  0
 19  1  1  0  0  0  0
 19 18  2  0  0  0  0
 20 19  1  0  0  0  0
 21 20  2  0  0  0  0
 21 22  1  0  0  0  0
 22 23  2  0  0  0  0
 23 18  1  0  0  0  0
 25 22  1  0  0  0  0
 26 20  1  0  0  0  0
 27 26  1  0  0  0  0
 27 32  1  0  0  0  0
 28 27  2  0  0  0  0
 29 30  2  0  0  0  0
 29 28  1  0  0  0  0
 30 31  1  0  0  0  0
 31 26  2  0  0  0  0
 33 28  1  0  0  0  0
 34 29  1  0  0  0  0
 35 30  1  0  0  0  0
 36  8  1  0  0  0  0
 36 37  1  0  0  0  0
 38 36  1  0  0  0  0
 39 40  1  0  0  0  0
 40 42  1  0  0  0  0
 41 40  2  0  0  0  0
 42 43  1  0  0  0  0
 42 36  1  0  0  0  0
M  END
>  <minimizedAffinity>
-5.08959579

$$$$

 OpenBabel03252507233D

 43 45  0  0  1  0  0  0  0  0999 V2000
   38.7960   29.3170   39.6130 C   0  0  0  0  0  0  0  0  0  0  0  0
   38.1700   28.4580   38.9270 O   0  0  0  0  0  0  0  0  0  0  0  0
   38.3420   30.6590   39.8760 N   0  0  0  0  0  0  0  0  0  0  0  0
   38.3530   31.4490   41.0870 C   0  0  0  0  0  0  0  0  0  0  0  0
   38.9960   32.8070   40.8000 C   0  0  0  0  0  0  0  0  0  0  0  0
   38.2200   33.5730   39.7720 C   0  0  0  0  0  0  0  0  0  0  0  0
   37.1800   32.6400   39.1570 C   0  0  0  0  0  0  0  0  0  0  0  0
   37.7810   31.3410   38.7210 C   0  0  2  0  0  0  0  0  0  0  0  0
   37.3690   31.5800   41.5540 H   0  0  0  0  0  0  0  0  0  0  0  0
   39.0790   30.9430   41.7670 H   0  0  0  0  0  0  0  0  0  0  0  0
   38.9860   33.3980   41.7300 H   0  0  0  0  0  0  0  0  0  0  0  0
   40.0440   32.5900   40.4550 H   0  0  0  0  0  0  0  0  0  0  0  0
   37.7330   34.4740   40.1380 H   0  0  0  0  0  0  0  0  0  0  0  0
   38.9140   33.8370   38.9320 H   0  0  0  0  0  0  0  0  0  0  0  0
   36.4430   32.4280   39.9850 H   0  0  0  0  0  0  0  0  0  0  0  0
   36.6860   33.1210   38.3030 H   0  0  0  0  0  0  0  0  0  0  0  0
   38.6620   31.5650   38.0620 H   0  0  0  0  0  0  0  0  0  0  0  0
   41.2480   29.2430   39.4570 C   0  0  0  0  0  0  0  0  0  0  0  0
   40.0700   28.9070   40.1740 C   0  0  0  0  0  0  0  0  0  0  0  0
   40.1800   28.2180   41.3500 C   0  0  0  0  0  0  0  0  0  0  0  0
   41.4060   27.8770   41.7940 N   0  0  0  0  0  0  0  0  0  0  0  0
   42.5470   28.1940   41.1160 C   0  0  0  0  0  0  0  0  0  0  0  0
   42.4400   28.8680   39.9650 N   0  0  0  0  0  0  0  0  0  0  0  0
   41.1380   29.7840   38.5360 H   0  0  0  0  0  0  0  0  0  0  0  0
   43.4670   27.8700   41.5680 H   0  0  0  0  0  0  0  0  0  0  0  0
   38.9560   27.8850   42.0650 C   0  0  0  0  0  0  0  0  0  0  0  0
   38.3050   26.7190   41.7890 C   0  0  0  0  0  0  0  0  0  0  0  0
   37.1380   26.4260   42.4800 C   0  0  0  0  0  0  0  0  0  0  0  0
   36.6010   27.2690   43.4430 C   0  0  0  0  0  0  0  0  0  0  0  0
   37.3110   28.4440   43.6800 C   0  0  0  0  0  0  0  0  0  0  0  0
   38.4390   28.7050   42.9980 N   0  0  0  0  0  0  0  0  0  0  0  0
   38.6330   25.9930   41.0620 H   0  0  0  0  0  0  0  0  0  0  0  0
   36.5850   25.5110   42.2950 H   0  0  0  0  0  0  0  0  0  0  0  0
   35.6970   27.0610   43.9900 H   0  0  0  0  0  0  0  0  0  0  0  0
   36.9240   29.1320   44.4270 H   0  0  0  0  0  0  0  0  0  0  0  0
   36.8220   30.5570   37.9280 C   0  0  0  0  0  0  0  0  0  0  0  0
   35.7540   30.7900   38.0960 H   0  0  0  0  0  0  0  0  0  0  0  0
   36.8650   29.5140   38.4250 H   0  0  0  0  0  0  0  0  0  0  0  0
   37.1100   29.7220   34.3700 H   0  0  0  0  0  0  0  0  0  0  0  0
   36.6370   29.8440   35.3250 C   0  0  0  0  0  0  0  0  0  0  0  0
   35.4400   29.4950   35.2230 O   0  0  0  0  0  0  0  0  0  0  0  0
   37.1270   30.2980   36.5640 N   0  0  0  0  0  0  0  0  0  0  0  0
   38.1460   30.5440   36.3240 H   0  0  0  0  0  0  0  0  0  0  0  0
  1  3  1  0  0  0  0
  1 19  1  0  0  0  0
  2  1  2  0  0  0  0
  3  4  1  0  0  0  0
  4  9  1  0  0  0  0
  4 10  1  0  0  0  0
  5  4  1  0  0  0  0
  5 11  1  0  0  0  0
  6 13  1  0  0  0  0
  6  5  1  0  0  0  0
  7  6  1  0  0  0  0
  7 15  1  0  0  0  0
  8 17  1  6  0  0  0
  8  7  1  0  0  0  0
  8  3  1  0  0  0  0
 12  5  1  0  0  0  0
 14  6  1  0  0  0  0
 16  7  1  0  0  0  0
 18 23  2  0  0  0  0
 18 19  1  0  0  0  0
 19 20  2  0  0  0  0
 20 21  1  0  0  0  0
 20 26  1  0  0  0  0
 22 25  1  0  0  0  0
 22 21  2  0  0  0  0
 23 22  1  0  0  0  0
 24 18  1  0  0  0  0
 26 31  1  0  0  0  0
 27 26  2  0  0  0  0
 27 28  1  0  0  0  0
 28 29  2  0  0  0  0
 29 30  1  0  0  0  0
 29 34  1  0  0  0  0
 30 35  1  0  0  0  0
 31 30  2  0  0  0  0
 32 27  1  0  0  0  0
 33 28  1  0  0  0  0
 36 37  1  0  0  0  0
 36 38  1  0  0  0  0
 36  8  1  0  0  0  0
 39 40  1  0  0  0  0
 40 42  1  0  0  0  0
 41 40  2  0  0  0  0
 42 36  1  0  0  0  0
 43 42  1  0  0  0  0
M  END
>  <minimizedAffinity>
-5.07363892

$$$$

 OpenBabel03252507233D

 43 45  0  0  1  0  0  0  0  0999 V2000
   37.6930   28.4850   41.5530 C   0  0  0  0  0  0  0  0  0  0  0  0
   37.6560   29.2790   42.5370 O   0  0  0  0  0  0  0  0  0  0  0  0
   37.3770   28.8360   40.1920 N   0  0  0  0  0  0  0  0  0  0  0  0
   38.0280   28.5020   38.9450 C   0  0  0  0  0  0  0  0  0  0  0  0
   36.9950   27.9350   37.9700 C   0  0  0  0  0  0  0  0  0  0  0  0
   35.9260   28.9380   37.6620 C   0  0  0  0  0  0  0  0  0  0  0  0
   36.0760   30.1140   38.6220 C   0  0  0  0  0  0  0  0  0  0  0  0
   36.1920   29.6650   40.0450 C   0  0  2  0  0  0  0  0  0  0  0  0
   38.5790   29.3310   38.4830 H   0  0  0  0  0  0  0  0  0  0  0  0
   38.6890   27.6320   39.1780 H   0  0  0  0  0  0  0  0  0  0  0  0
   37.5070   27.6960   37.0240 H   0  0  0  0  0  0  0  0  0  0  0  0
   36.5750   27.0140   38.4610 H   0  0  0  0  0  0  0  0  0  0  0  0
   35.9150   29.3000   36.6370 H   0  0  0  0  0  0  0  0  0  0  0  0
   34.9320   28.4800   37.9080 H   0  0  0  0  0  0  0  0  0  0  0  0
   37.0430   30.6160   38.3300 H   0  0  0  0  0  0  0  0  0  0  0  0
   35.2270   30.8050   38.5240 H   0  0  0  0  0  0  0  0  0  0  0  0
   35.3300   28.9810   40.2690 H   0  0  0  0  0  0  0  0  0  0  0  0
   37.0600   26.1400   41.9360 C   0  0  0  0  0  0  0  0  0  0  0  0
   38.0860   27.1160   41.8300 C   0  0  0  0  0  0  0  0  0  0  0  0
   39.3880   26.7320   41.9910 C   0  0  0  0  0  0  0  0  0  0  0  0
   39.6590   25.4370   42.2460 N   0  0  0  0  0  0  0  0  0  0  0  0
   38.6830   24.4890   42.3500 C   0  0  0  0  0  0  0  0  0  0  0  0
   37.4090   24.8640   42.1930 N   0  0  0  0  0  0  0  0  0  0  0  0
   36.0440   26.4640   41.8050 H   0  0  0  0  0  0  0  0  0  0  0  0
   39.0210   23.4880   42.5560 H   0  0  0  0  0  0  0  0  0  0  0  0
   40.4210   27.7520   41.8790 C   0  0  0  0  0  0  0  0  0  0  0  0
   40.8940   28.3650   43.0000 C   0  0  0  0  0  0  0  0  0  0  0  0
   41.8740   29.3370   42.8670 C   0  0  0  0  0  0  0  0  0  0  0  0
   42.3990   29.7160   41.6390 C   0  0  0  0  0  0  0  0  0  0  0  0
   41.8750   29.0540   40.5300 C   0  0  0  0  0  0  0  0  0  0  0  0
   40.9260   28.1150   40.6860 N   0  0  0  0  0  0  0  0  0  0  0  0
   40.5590   28.1490   44.0030 H   0  0  0  0  0  0  0  0  0  0  0  0
   42.2820   29.8530   43.7310 H   0  0  0  0  0  0  0  0  0  0  0  0
   43.1590   30.4680   41.5140 H   0  0  0  0  0  0  0  0  0  0  0  0
   42.2580   29.3200   39.5490 H   0  0  0  0  0  0  0  0  0  0  0  0
   36.1010   30.8080   40.9670 C   0  0  0  0  0  0  0  0  0  0  0  0
   36.0700   30.5570   42.0430 H   0  0  0  0  0  0  0  0  0  0  0  0
   35.0100   31.1660   40.8290 H   0  0  0  0  0  0  0  0  0  0  0  0
   38.5230   33.4990   40.3870 H   0  0  0  0  0  0  0  0  0  0  0  0
   38.1720   32.5160   40.6390 C   0  0  0  0  0  0  0  0  0  0  0  0
   39.1600   31.8040   40.9300 O   0  0  0  0  0  0  0  0  0  0  0  0
   36.8790   31.9650   40.6870 N   0  0  0  0  0  0  0  0  0  0  0  0
   36.2720   32.7910   40.3630 H   0  0  0  0  0  0  0  0  0  0  0  0
  1 19  1  0  0  0  0
  1  2  2  0  0  0  0
  3  1  1  0  0  0  0
  4 10  1  0  0  0  0
  4  3  1  0  0  0  0
  5 12  1  0  0  0  0
  5  4  1  0  0  0  0
  6 14  1  0  0  0  0
  6  5  1  0  0  0  0
  6  7  1  0  0  0  0
  7  8  1  0  0  0  0
  8  3  1  0  0  0  0
  8 17  1  1  0  0  0
  8 36  1  0  0  0  0
  9  4  1  0  0  0  0
 11  5  1  0  0  0  0
 13  6  1  0  0  0  0
 15  7  1  0  0  0  0
 16  7  1  0  0  0  0
 18 23  1  0  0  0  0
 19 18  2  0  0  0  0
 19 20  1  0  0  0  0
 20 21  2  0  0  0  0
 21 22  1  0  0  0  0
 22 25  1  0  0  0  0
 23 22  2  0  0  0  0
 24 18  1  0  0  0  0
 26 20  1  0  0  0  0
 26 27  1  0  0  0  0
 27 32  1  0  0  0  0
 28 27  2  0  0  0  0
 28 33  1  0  0  0  0
 29 28  1  0  0  0  0
 30 31  1  0  0  0  0
 30 29  2  0  0  0  0
 31 26  2  0  0  0  0
 34 29  1  0  0  0  0
 35 30  1  0  0  0  0
 36 37  1  0  0  0  0
 38 36  1  0  0  0  0
 39 40  1  0  0  0  0
 40 42  1  0  0  0  0
 40 41  2  0  0  0  0
 42 36  1  0  0  0  0
 43 42  1  0  0  0  0
M  END
>  <minimizedAffinity>
-4.96025372

$$$$

 OpenBabel03252507233D

 43 45  0  0  1  0  0  0  0  0999 V2000
   38.3470   30.5460   40.2070 C   0  0  0  0  0  0  0  0  0  0  0  0
   38.0800   31.2030   41.2540 O   0  0  0  0  0  0  0  0  0  0  0  0
   39.6320   30.5080   39.5570 N   0  0  0  0  0  0  0  0  0  0  0  0
   40.3820   29.4090   38.9900 C   0  0  0  0  0  0  0  0  0  0  0  0
   40.8030   29.7660   37.5630 C   0  0  0  0  0  0  0  0  0  0  0  0
   41.6910   30.9720   37.5420 C   0  0  0  0  0  0  0  0  0  0  0  0
   41.6790   31.6060   38.9300 C   0  0  0  0  0  0  0  0  0  0  0  0
   40.2880   31.8000   39.4450 C   0  0  2  0  0  0  0  0  0  0  0  0
   41.2510   29.0970   39.5820 H   0  0  0  0  0  0  0  0  0  0  0  0
   39.6430   28.5820   38.8560 H   0  0  0  0  0  0  0  0  0  0  0  0
   41.3800   28.9220   37.1520 H   0  0  0  0  0  0  0  0  0  0  0  0
   39.8510   29.9380   36.9900 H   0  0  0  0  0  0  0  0  0  0  0  0
   42.7170   30.7850   37.2330 H   0  0  0  0  0  0  0  0  0  0  0  0
   41.2300   31.7370   36.8640 H   0  0  0  0  0  0  0  0  0  0  0  0
   42.2040   30.8660   39.6000 H   0  0  0  0  0  0  0  0  0  0  0  0
   42.2040   32.5710   38.9200 H   0  0  0  0  0  0  0  0  0  0  0  0
   39.6990   32.3570   38.6680 H   0  0  0  0  0  0  0  0  0  0  0  0
   36.6320   30.2920   38.4630 C   0  0  0  0  0  0  0  0  0  0  0  0
   37.2650   29.7740   39.6240 C   0  0  0  0  0  0  0  0  0  0  0  0
   36.8360   28.5830   40.1400 C   0  0  0  0  0  0  0  0  0  0  0  0
   35.8230   27.9360   39.5310 N   0  0  0  0  0  0  0  0  0  0  0  0
   35.2060   28.4210   38.4150 C   0  0  0  0  0  0  0  0  0  0  0  0
   35.6250   29.5870   37.9100 N   0  0  0  0  0  0  0  0  0  0  0  0
   36.9860   31.2290   38.0750 H   0  0  0  0  0  0  0  0  0  0  0  0
   34.4110   27.8170   38.0170 H   0  0  0  0  0  0  0  0  0  0  0  0
   37.5010   28.0740   41.3310 C   0  0  0  0  0  0  0  0  0  0  0  0
   36.9440   28.2770   42.5580 C   0  0  0  0  0  0  0  0  0  0  0  0
   37.5990   27.7870   43.6780 C   0  0  0  0  0  0  0  0  0  0  0  0
   38.8010   27.0970   43.6070 C   0  0  0  0  0  0  0  0  0  0  0  0
   39.3210   26.9220   42.3260 C   0  0  0  0  0  0  0  0  0  0  0  0
   38.6660   27.4060   41.2560 N   0  0  0  0  0  0  0  0  0  0  0  0
   36.0150   28.7990   42.7290 H   0  0  0  0  0  0  0  0  0  0  0  0
   37.1940   27.9240   44.6760 H   0  0  0  0  0  0  0  0  0  0  0  0
   39.3260   26.7090   44.4640 H   0  0  0  0  0  0  0  0  0  0  0  0
   40.2610   26.3870   42.2250 H   0  0  0  0  0  0  0  0  0  0  0  0
   40.2890   32.6170   40.6690 C   0  0  0  0  0  0  0  0  0  0  0  0
   39.2990   32.9650   41.0170 H   0  0  0  0  0  0  0  0  0  0  0  0
   40.7240   33.6260   40.3070 H   0  0  0  0  0  0  0  0  0  0  0  0
   42.2280   31.1880   43.4330 H   0  0  0  0  0  0  0  0  0  0  0  0
   41.4820   31.2320   42.6630 C   0  0  0  0  0  0  0  0  0  0  0  0
   40.8420   30.1570   42.6680 O   0  0  0  0  0  0  0  0  0  0  0  0
   41.1500   32.2360   41.7340 N   0  0  0  0  0  0  0  0  0  0  0  0
   41.8780   32.9950   41.9570 H   0  0  0  0  0  0  0  0  0  0  0  0
  1  2  2  0  0  0  0
  3  1  1  0  0  0  0
  4  3  1  0  0  0  0
  4  9  1  0  0  0  0
  5  4  1  0  0  0  0
  6  5  1  0  0  0  0
  6  7  1  0  0  0  0
  7  8  1  0  0  0  0
  7 15  1  0  0  0  0
  8 17  1  6  0  0  0
  8  3  1  0  0  0  0
  8 36  1  0  0  0  0
 10  4  1  0  0  0  0
 11  5  1  0  0  0  0
 12  5  1  0  0  0  0
 13  6  1  0  0  0  0
 14  6  1  0  0  0  0
 16  7  1  0  0  0  0
 18 19  1  0  0  0  0
 19 20  2  0  0  0  0
 19  1  1  0  0  0  0
 20 26  1  0  0  0  0
 21 20  1  0  0  0  0
 22 21  2  0  0  0  0
 23 22  1  0  0  0  0
 23 18  2  0  0  0  0
 24 18  1  0  0  0  0
 25 22  1  0  0  0  0
 26 27  1  0  0  0  0
 27 32  1  0  0  0  0
 27 28  2  0  0  0  0
 28 33  1  0  0  0  0
 29 28  1  0  0  0  0
 29 34  1  0  0  0  0
 30 29  2  0  0  0  0
 31 26  2  0  0  0  0
 31 30  1  0  0  0  0
 35 30  1  0  0  0  0
 36 37  1  0  0  0  0
 36 42  1  0  0  0  0
 38 36  1  0  0  0  0
 40 41  2  0  0  0  0
 40 39  1  0  0  0  0
 42 43  1  0  0  0  0
 42 40  1  0  0  0  0
M  END
>  <minimizedAffinity>
-4.95288897

$$$$

 OpenBabel03252507233D

 43 45  0  0  1  0  0  0  0  0999 V2000
   37.0650   29.1350   41.1630 C   0  0  0  0  0  0  0  0  0  0  0  0
   35.9050   28.6920   41.4060 O   0  0  0  0  0  0  0  0  0  0  0  0
   38.2940   28.5290   41.6070 N   0  0  0  0  0  0  0  0  0  0  0  0
   39.5460   28.2990   40.9220 C   0  0  0  0  0  0  0  0  0  0  0  0
   40.6960   28.8510   41.7660 C   0  0  0  0  0  0  0  0  0  0  0  0
   40.7780   28.1610   43.0940 C   0  0  0  0  0  0  0  0  0  0  0  0
   39.5270   27.3070   43.2730 C   0  0  0  0  0  0  0  0  0  0  0  0
   38.2760   28.0780   42.9890 C   0  0  2  0  0  0  0  0  0  0  0  0
   39.7330   27.2510   40.6550 H   0  0  0  0  0  0  0  0  0  0  0  0
   39.5230   28.9650   40.0260 H   0  0  0  0  0  0  0  0  0  0  0  0
   41.6410   28.6570   41.2330 H   0  0  0  0  0  0  0  0  0  0  0  0
   40.4990   29.9520   41.8800 H   0  0  0  0  0  0  0  0  0  0  0  0
   41.6650   27.5480   43.2410 H   0  0  0  0  0  0  0  0  0  0  0  0
   40.7230   28.9390   43.8990 H   0  0  0  0  0  0  0  0  0  0  0  0
   39.6160   26.4830   42.5080 H   0  0  0  0  0  0  0  0  0  0  0  0
   39.4810   26.8960   44.2910 H   0  0  0  0  0  0  0  0  0  0  0  0
   38.2970   29.0190   43.6010 H   0  0  0  0  0  0  0  0  0  0  0  0
   37.5760   31.5360   41.0260 C   0  0  0  0  0  0  0  0  0  0  0  0
   37.1500   30.3490   40.3730 C   0  0  0  0  0  0  0  0  0  0  0  0
   36.8410   30.3960   39.0420 C   0  0  0  0  0  0  0  0  0  0  0  0
   36.9490   31.5700   38.3880 N   0  0  0  0  0  0  0  0  0  0  0  0
   37.3580   32.7180   39.0030 C   0  0  0  0  0  0  0  0  0  0  0  0
   37.6600   32.6720   40.3050 N   0  0  0  0  0  0  0  0  0  0  0  0
   37.8140   31.4760   42.0710 H   0  0  0  0  0  0  0  0  0  0  0  0
   37.4060   33.5930   38.3790 H   0  0  0  0  0  0  0  0  0  0  0  0
   36.4060   29.1660   38.3960 C   0  0  0  0  0  0  0  0  0  0  0  0
   35.0800   28.9570   38.1590 C   0  0  0  0  0  0  0  0  0  0  0  0
   34.6900   27.7740   37.5480 C   0  0  0  0  0  0  0  0  0  0  0  0
   35.5910   26.7910   37.1640 C   0  0  0  0  0  0  0  0  0  0  0  0
   36.9310   27.0620   37.4340 C   0  0  0  0  0  0  0  0  0  0  0  0
   37.2830   28.2160   38.0270 N   0  0  0  0  0  0  0  0  0  0  0  0
   34.2960   29.6520   38.4140 H   0  0  0  0  0  0  0  0  0  0  0  0
   33.6460   27.5630   37.3380 H   0  0  0  0  0  0  0  0  0  0  0  0
   35.3090   25.8660   36.6890 H   0  0  0  0  0  0  0  0  0  0  0  0
   37.6690   26.3180   37.1500 H   0  0  0  0  0  0  0  0  0  0  0  0
   37.0840   27.3140   43.3890 C   0  0  0  0  0  0  0  0  0  0  0  0
   36.1290   27.8700   43.3760 H   0  0  0  0  0  0  0  0  0  0  0  0
   37.2190   27.2040   44.5330 H   0  0  0  0  0  0  0  0  0  0  0  0
   36.8060   24.0620   41.7200 H   0  0  0  0  0  0  0  0  0  0  0  0
   36.9470   25.1220   41.8110 C   0  0  0  0  0  0  0  0  0  0  0  0
   37.1290   25.5980   40.6680 O   0  0  0  0  0  0  0  0  0  0  0  0
   36.9550   25.9750   42.9300 N   0  0  0  0  0  0  0  0  0  0  0  0
   36.8080   25.2830   43.7390 H   0  0  0  0  0  0  0  0  0  0  0  0
  1  2  2  0  0  0  0
  1  3  1  0  0  0  0
  3  8  1  0  0  0  0
  4  3  1  0  0  0  0
  4  5  1  0  0  0  0
  5 12  1  0  0  0  0
  5  6  1  0  0  0  0
  6 13  1  0  0  0  0
  6  7  1  0  0  0  0
  6 14  1  0  0  0  0
  7 16  1  0  0  0  0
  8  7  1  0  0  0  0
  8 36  1  0  0  0  0
  8 17  1  1  0  0  0
  9  4  1  0  0  0  0
 10  4  1  0  0  0  0
 11  5  1  0  0  0  0
 15  7  1  0  0  0  0
 18 24  1  0  0  0  0
 19 18  1  0  0  0  0
 19  1  1  0  0  0  0
 20 19  2  0  0  0  0
 21 22  2  0  0  0  0
 21 20  1  0  0  0  0
 22 23  1  0  0  0  0
 23 18  2  0  0  0  0
 25 22  1  0  0  0  0
 26 20  1  0  0  0  0
 27 26  1  0  0  0  0
 27 32  1  0  0  0  0
 28 27  2  0  0  0  0
 29 30  2  0  0  0  0
 29 28  1  0  0  0  0
 30 31  1  0  0  0  0
 31 26  2  0  0  0  0
 33 28  1  0  0  0  0
 34 29  1  0  0  0  0
 35 30  1  0  0  0  0
 36 38  1  0  0  0  0
 37 36  1  0  0  0  0
 39 40  1  0  0  0  0
 40 42  1  0  0  0  0
 41 40  2  0  0  0  0
 42 36  1  0  0  0  0
 42 43  1  0  0  0  0
M  END
>  <minimizedAffinity>
-4.89806032

$$$$

 OpenBabel03252507233D

 43 45  0  0  1  0  0  0  0  0999 V2000
   37.4510   28.9610   38.8570 C   0  0  0  0  0  0  0  0  0  0  0  0
   38.5570   28.3480   38.8290 O   0  0  0  0  0  0  0  0  0  0  0  0
   36.1720   28.3790   38.5410 N   0  0  0  0  0  0  0  0  0  0  0  0
   34.8830   28.4990   39.1860 C   0  0  0  0  0  0  0  0  0  0  0  0
   33.8290   28.8820   38.1470 C   0  0  0  0  0  0  0  0  0  0  0  0
   33.7030   27.8330   37.0850 C   0  0  0  0  0  0  0  0  0  0  0  0
   34.8500   26.8410   37.2460 C   0  0  0  0  0  0  0  0  0  0  0  0
   36.1740   27.5290   37.3620 C   0  0  2  0  0  0  0  0  0  0  0  0
   34.5690   27.6070   39.7430 H   0  0  0  0  0  0  0  0  0  0  0  0
   34.9610   29.4000   39.8410 H   0  0  0  0  0  0  0  0  0  0  0  0
   32.8540   28.9590   38.6550 H   0  0  0  0  0  0  0  0  0  0  0  0
   34.1560   29.8700   37.7210 H   0  0  0  0  0  0  0  0  0  0  0  0
   32.7550   27.2990   37.0740 H   0  0  0  0  0  0  0  0  0  0  0  0
   33.8700   28.3190   36.0890 H   0  0  0  0  0  0  0  0  0  0  0  0
   34.6450   26.3030   38.2170 H   0  0  0  0  0  0  0  0  0  0  0  0
   34.8750   26.1370   36.4030 H   0  0  0  0  0  0  0  0  0  0  0  0
   36.2800   28.2350   36.4950 H   0  0  0  0  0  0  0  0  0  0  0  0
   37.2770   31.3310   38.2250 C   0  0  0  0  0  0  0  0  0  0  0  0
   37.4870   30.3610   39.2400 C   0  0  0  0  0  0  0  0  0  0  0  0
   37.7120   30.7780   40.5230 C   0  0  0  0  0  0  0  0  0  0  0  0
   37.7280   32.1000   40.7850 N   0  0  0  0  0  0  0  0  0  0  0  0
   37.5270   33.0430   39.8200 C   0  0  0  0  0  0  0  0  0  0  0  0
   37.3070   32.6350   38.5660 N   0  0  0  0  0  0  0  0  0  0  0  0
   37.1010   30.9810   37.2250 H   0  0  0  0  0  0  0  0  0  0  0  0
   37.5630   34.0660   40.1490 H   0  0  0  0  0  0  0  0  0  0  0  0
   37.9260   29.7630   41.5440 C   0  0  0  0  0  0  0  0  0  0  0  0
   39.1890   29.4990   41.9850 C   0  0  0  0  0  0  0  0  0  0  0  0
   39.3670   28.5240   42.9550 C   0  0  0  0  0  0  0  0  0  0  0  0
   38.3150   27.8010   43.5010 C   0  0  0  0  0  0  0  0  0  0  0  0
   37.0490   28.1160   43.0090 C   0  0  0  0  0  0  0  0  0  0  0  0
   36.9030   29.0650   42.0700 N   0  0  0  0  0  0  0  0  0  0  0  0
   40.0770   29.9990   41.6310 H   0  0  0  0  0  0  0  0  0  0  0  0
   40.3530   28.2790   43.3380 H   0  0  0  0  0  0  0  0  0  0  0  0
   38.4320   27.0400   44.2540 H   0  0  0  0  0  0  0  0  0  0  0  0
   36.1980   27.5730   43.4100 H   0  0  0  0  0  0  0  0  0  0  0  0
   37.2790   26.5600   37.2820 C   0  0  0  0  0  0  0  0  0  0  0  0
   38.2930   26.9930   37.1960 H   0  0  0  0  0  0  0  0  0  0  0  0
   37.1690   26.1290   36.2150 H   0  0  0  0  0  0  0  0  0  0  0  0
   37.1560   23.9440   39.8470 H   0  0  0  0  0  0  0  0  0  0  0  0
   37.1650   24.9380   39.4440 C   0  0  0  0  0  0  0  0  0  0  0  0
   37.1020   25.7530   40.3920 O   0  0  0  0  0  0  0  0  0  0  0  0
   37.2330   25.4130   38.1210 N   0  0  0  0  0  0  0  0  0  0  0  0
   37.2440   24.4990   37.5550 H   0  0  0  0  0  0  0  0  0  0  0  0
  1 19  1  0  0  0  0
  2  1  2  0  0  0  0
  3  1  1  0  0  0  0
  3  4  1  0  0  0  0
  4  9  1  0  0  0  0
  4 10  1  0  0  0  0
  5 11  1  0  0  0  0
  5  4  1  0  0  0  0
  6  7  1  0  0  0  0
  6  5  1  0  0  0  0
  7  8  1  0  0  0  0
  7 15  1  0  0  0  0
  8 17  1  6  0  0  0
  8  3  1  0  0  0  0
 12  5  1  0  0  0  0
 13  6  1  0  0  0  0
 14  6  1  0  0  0  0
 16  7  1  0  0  0  0
 18 23  2  0  0  0  0
 18 19  1  0  0  0  0
 19 20  2  0  0  0  0
 20 21  1  0  0  0  0
 20 26  1  0  0  0  0
 22 25  1  0  0  0  0
 22 21  2  0  0  0  0
 23 22  1  0  0  0  0
 24 18  1  0  0  0  0
 26 27  2  0  0  0  0
 26 31  1  0  0  0  0
 27 28  1  0  0  0  0
 28 33  1  0  0  0  0
 28 29  2  0  0  0  0
 29 34  1  0  0  0  0
 30 35  1  0  0  0  0
 30 29  1  0  0  0  0
 31 30  2  0  0  0  0
 32 27  1  0  0  0  0
 36  8  1  0  0  0  0
 36 42  1  0  0  0  0
 37 36  1  0  0  0  0
 38 36  1  0  0  0  0
 40 39  1  0  0  0  0
 40 41  2  0  0  0  0
 42 40  1  0  0  0  0
 43 42  1  0  0  0  0
M  END
>  <minimizedAffinity>
-4.85758686

$$$$

 OpenBabel03252507233D

 43 45  0  0  1  0  0  0  0  0999 V2000
   36.9100   29.3670   40.0250 C   0  0  0  0  0  0  0  0  0  0  0  0
   35.9160   29.7090   40.7290 O   0  0  0  0  0  0  0  0  0  0  0  0
   38.1730   28.9060   40.5420 N   0  0  0  0  0  0  0  0  0  0  0  0
   39.0330   27.8200   40.1300 C   0  0  0  0  0  0  0  0  0  0  0  0
   40.4560   28.3460   39.9340 C   0  0  0  0  0  0  0  0  0  0  0  0
   41.0140   28.9000   41.2090 C   0  0  0  0  0  0  0  0  0  0  0  0
   39.8840   28.9920   42.2310 C   0  0  0  0  0  0  0  0  0  0  0  0
   38.6750   29.6720   41.6700 C   0  0  2  0  0  0  0  0  0  0  0  0
   39.0310   26.9560   40.8060 H   0  0  0  0  0  0  0  0  0  0  0  0
   38.6990   27.5500   39.0990 H   0  0  0  0  0  0  0  0  0  0  0  0
   41.0970   27.5030   39.6300 H   0  0  0  0  0  0  0  0  0  0  0  0
   40.3910   29.1310   39.1310 H   0  0  0  0  0  0  0  0  0  0  0  0
   41.8450   28.3390   41.6310 H   0  0  0  0  0  0  0  0  0  0  0  0
   41.3320   29.9580   41.0230 H   0  0  0  0  0  0  0  0  0  0  0  0
   39.6100   27.9240   42.4690 H   0  0  0  0  0  0  0  0  0  0  0  0
   40.2190   29.5230   43.1320 H   0  0  0  0  0  0  0  0  0  0  0  0
   38.9970   30.6560   41.2330 H   0  0  0  0  0  0  0  0  0  0  0  0
   36.0920   28.3780   37.9280 C   0  0  0  0  0  0  0  0  0  0  0  0
   36.7520   29.4500   38.5850 C   0  0  0  0  0  0  0  0  0  0  0  0
   37.2070   30.5050   37.8430 C   0  0  0  0  0  0  0  0  0  0  0  0
   37.0160   30.4950   36.5090 N   0  0  0  0  0  0  0  0  0  0  0  0
   36.3840   29.4720   35.8650 C   0  0  0  0  0  0  0  0  0  0  0  0
   35.9380   28.4400   36.5900 N   0  0  0  0  0  0  0  0  0  0  0  0
   35.7430   27.5600   38.5290 H   0  0  0  0  0  0  0  0  0  0  0  0
   36.2890   29.5760   34.7990 H   0  0  0  0  0  0  0  0  0  0  0  0
   37.8810   31.5900   38.5410 C   0  0  0  0  0  0  0  0  0  0  0  0
   39.2430   31.6520   38.5450 C   0  0  0  0  0  0  0  0  0  0  0  0
   39.8620   32.6930   39.2210 C   0  0  0  0  0  0  0  0  0  0  0  0
   39.1560   33.6790   39.8960 C   0  0  0  0  0  0  0  0  0  0  0  0
   37.7680   33.5610   39.8570 C   0  0  0  0  0  0  0  0  0  0  0  0
   37.1930   32.5440   39.1940 N   0  0  0  0  0  0  0  0  0  0  0  0
   39.8890   30.9410   38.0540 H   0  0  0  0  0  0  0  0  0  0  0  0
   40.9440   32.7850   39.2520 H   0  0  0  0  0  0  0  0  0  0  0  0
   39.6170   34.4950   40.4270 H   0  0  0  0  0  0  0  0  0  0  0  0
   37.1770   34.3130   40.3730 H   0  0  0  0  0  0  0  0  0  0  0  0
   37.6940   29.9580   42.7280 C   0  0  0  0  0  0  0  0  0  0  0  0
   36.8490   30.6100   42.4380 H   0  0  0  0  0  0  0  0  0  0  0  0
   38.2640   30.6890   43.4200 H   0  0  0  0  0  0  0  0  0  0  0  0
   36.5750   26.9620   44.5210 H   0  0  0  0  0  0  0  0  0  0  0  0
   36.8120   27.5840   43.6790 C   0  0  0  0  0  0  0  0  0  0  0  0
   36.5720   26.9440   42.6310 O   0  0  0  0  0  0  0  0  0  0  0  0
   37.3070   28.8990   43.5940 N   0  0  0  0  0  0  0  0  0  0  0  0
   37.4360   29.1560   44.6300 H   0  0  0  0  0  0  0  0  0  0  0  0
  1  3  1  0  0  0  0
  1  2  2  0  0  0  0
  3  8  1  0  0  0  0
  4  3  1  0  0  0  0
  4  9  1  0  0  0  0
  5  4  1  0  0  0  0
  5  6  1  0  0  0  0
  6 13  1  0  0  0  0
  6  7  1  0  0  0  0
  7 15  1  0  0  0  0
  7 16  1  0  0  0  0
  8 17  1  6  0  0  0
  8  7  1  0  0  0  0
  8 36  1  0  0  0  0
 10  4  1  0  0  0  0
 11  5  1  0  0  0  0
 12  5  1  0  0  0  0
 14  6  1  0  0  0  0
 18 24  1  0  0  0  0
 18 19  1  0  0  0  0
 19  1  1  0  0  0  0
 20 26  1  0  0  0  0
 20 19  2  0  0  0  0
 21 20  1  0  0  0  0
 22 21  2  0  0  0  0
 22 23  1  0  0  0  0
 23 18  2  0  0  0  0
 25 22  1  0  0  0  0
 26 27  2  0  0  0  0
 26 31  1  0  0  0  0
 27 28  1  0  0  0  0
 28 33  1  0  0  0  0
 28 29  2  0  0  0  0
 29 34  1  0  0  0  0
 30 29  1  0  0  0  0
 30 35  1  0  0  0  0
 31 30  2  0  0  0  0
 32 27  1  0  0  0  0
 36 38  1  0  0  0  0
 36 42  1  0  0  0  0
 37 36  1  0  0  0  0
 40 39  1  0  0  0  0
 41 40  2  0  0  0  0
 42 40  1  0  0  0  0
 42 43  1  0  0  0  0
M  END
>  <minimizedAffinity>
-4.8442812

$$$$
