
 OpenBabel03252509223D

 23 24  0  0  1  0  0  0  0  0999 V2000
   46.5580   35.0000   41.9420 C   0  0  1  0  0  0  0  0  0  0  0  0
   48.0600   35.3490   41.9390 C   0  0  0  0  0  0  0  0  0  0  0  0
   47.4270   34.0200   41.4070 C   0  0  2  0  0  0  0  0  0  0  0  0
   45.9500   35.7050   41.3430 H   0  0  0  0  0  0  0  0  0  0  0  0
   48.4080   36.0440   41.1780 H   0  0  0  0  0  0  0  0  0  0  0  0
   48.6390   35.3140   42.8530 H   0  0  0  0  0  0  0  0  0  0  0  0
   47.7520   33.1410   42.0360 H   0  0  0  0  0  0  0  0  0  0  0  0
   44.6250   35.4270   45.1440 C   0  0  0  0  0  0  0  0  0  0  0  0
   45.1010   35.7020   43.8350 C   0  0  0  0  0  0  0  0  0  0  0  0
   46.0600   34.8440   43.3580 C   0  0  0  0  0  0  0  0  0  0  0  0
   46.5190   33.7890   44.1270 N   0  0  0  0  0  0  0  0  0  0  0  0
   46.0340   33.5710   45.3650 C   0  0  0  0  0  0  0  0  0  0  0  0
   45.0820   34.3990   45.8730 N   0  0  0  0  0  0  0  0  0  0  0  0
   43.8680   36.1080   45.5140 H   0  0  0  0  0  0  0  0  0  0  0  0
   46.3830   32.7520   45.9770 H   0  0  0  0  0  0  0  0  0  0  0  0
   44.6580   36.8100   43.0560 N   0  0  0  0  0  0  0  0  0  0  0  0
   45.0440   37.6140   43.6110 H   0  0  0  0  0  0  0  0  0  0  0  0
   44.1060   36.7850   42.1850 H   0  0  0  0  0  0  0  0  0  0  0  0
   48.6430   32.7480   38.4490 H   0  0  0  0  0  0  0  0  0  0  0  0
   48.6010   32.8050   39.5250 C   0  0  0  0  0  0  0  0  0  0  0  0
   49.2910   32.1170   40.3220 O   0  0  0  0  0  0  0  0  0  0  0  0
   47.6480   33.7780   40.0000 N   0  0  0  0  0  0  0  0  0  0  0  0
   47.0630   34.3600   39.3400 H   0  0  0  0  0  0  0  0  0  0  0  0
  1  4  1  6  0  0  0
  1 10  1  0  0  0  0
  2  1  1  0  0  0  0
  2  6  1  0  0  0  0
  3  2  1  0  0  0  0
  3  1  1  0  0  0  0
  3  7  1  1  0  0  0
  5  2  1  0  0  0  0
  8 14  1  0  0  0  0
  8 13  1  0  0  0  0
  9  8  2  0  0  0  0
 10  9  1  0  0  0  0
 10 11  2  0  0  0  0
 11 12  1  0  0  0  0
 12 13  2  0  0  0  0
 12 15  1  0  0  0  0
 16 17  1  0  0  0  0
 16  9  1  0  0  0  0
 18 16  1  0  0  0  0
 19 20  1  0  0  0  0
 20 22  1  0  0  0  0
 20 21  2  0  0  0  0
 22  3  1  0  0  0  0
 23 22  1  0  0  0  0
M  END
>  <minimizedAffinity>
-4.27340031

>  <minimizedRMSD>
0.502366722

$$$$
