
 OpenBabel03252501313D

 16 16  0  0  0  0  0  0  0  0999 V2000
   45.3030   34.5680   45.0240 C   0  0  0  0  0  0  0  0  0  0  0  0
   45.2660   33.9400   46.2670 C   0  0  0  0  0  0  0  0  0  0  0  0
   46.1660   32.9010   46.4810 C   0  0  0  0  0  0  0  0  0  0  0  0
   47.0060   32.5780   45.4730 N   0  0  0  0  0  0  0  0  0  0  0  0
   47.0190   33.2010   44.2840 C   0  0  0  0  0  0  0  0  0  0  0  0
   46.1600   34.2100   44.0470 N   0  0  0  0  0  0  0  0  0  0  0  0
   46.1170   32.4370   47.4410 H   0  0  0  0  0  0  0  0  0  0  0  0
   47.7260   32.8830   43.5250 H   0  0  0  0  0  0  0  0  0  0  0  0
   43.2970   36.0460   42.7360 H   0  0  0  0  0  0  0  0  0  0  0  0
   43.9690   35.3820   43.2960 C   0  0  0  0  0  0  0  0  0  0  0  0
   44.4110   34.2810   42.8400 O   0  0  0  0  0  0  0  0  0  0  0  0
   44.4480   35.6610   44.6230 N   0  0  0  0  0  0  0  0  0  0  0  0
   44.1450   36.5390   45.0840 H   0  0  0  0  0  0  0  0  0  0  0  0
   44.3060   34.4290   47.1940 N   0  0  0  0  0  0  0  0  0  0  0  0
   43.2890   34.2520   47.3210 H   0  0  0  0  0  0  0  0  0  0  0  0
   44.9300   35.0640   47.7660 H   0  0  0  0  0  0  0  0  0  0  0  0
  1  2  1  0  0  0  0
  2  3  2  0  0  0  0
  2 14  1  0  0  0  0
  3  7  1  0  0  0  0
  4  3  1  0  0  0  0
  5  4  2  0  0  0  0
  6  5  1  0  0  0  0
  6  1  2  0  0  0  0
  8  5  1  0  0  0  0
  9 10  1  0  0  0  0
 10 12  1  0  0  0  0
 11 10  2  0  0  0  0
 12  1  1  0  0  0  0
 12 13  1  0  0  0  0
 14 15  1  0  0  0  0
 14 16  1  0  0  0  0
M  END
>  <minimizedAffinity>
-3.99117661

>  <minimizedRMSD>
3.22715378

$$$$
