
 OpenBabel03252509223D

 23 24  0  0  1  0  0  0  0  0999 V2000
   47.1210   33.9160   43.9900 C   0  0  1  0  0  0  0  0  0  0  0  0
   45.8360   34.6550   43.5600 C   0  0  0  0  0  0  0  0  0  0  0  0
   45.9020   33.3930   44.4850 C   0  0  2  0  0  0  0  0  0  0  0  0
   47.8150   34.5580   44.5640 H   0  0  0  0  0  0  0  0  0  0  0  0
   45.6110   35.5940   44.0600 H   0  0  0  0  0  0  0  0  0  0  0  0
   45.4400   34.5400   42.5600 H   0  0  0  0  0  0  0  0  0  0  0  0
   45.4190   32.5030   43.9840 H   0  0  0  0  0  0  0  0  0  0  0  0
   49.6160   32.8790   41.3690 C   0  0  0  0  0  0  0  0  0  0  0  0
   49.0500   33.6100   42.4460 C   0  0  0  0  0  0  0  0  0  0  0  0
   47.7700   33.2600   42.7970 C   0  0  0  0  0  0  0  0  0  0  0  0
   47.0960   32.2550   42.1230 N   0  0  0  0  0  0  0  0  0  0  0  0
   47.6790   31.5910   41.1060 C   0  0  0  0  0  0  0  0  0  0  0  0
   48.9470   31.9090   40.7300 N   0  0  0  0  0  0  0  0  0  0  0  0
   50.6260   33.1610   41.0980 H   0  0  0  0  0  0  0  0  0  0  0  0
   47.1650   30.8060   40.5720 H   0  0  0  0  0  0  0  0  0  0  0  0
   49.7270   34.6700   43.1160 N   0  0  0  0  0  0  0  0  0  0  0  0
   49.7770   35.3910   42.3540 H   0  0  0  0  0  0  0  0  0  0  0  0
   50.0630   34.6840   44.0910 H   0  0  0  0  0  0  0  0  0  0  0  0
   45.2880   33.0680   47.8540 H   0  0  0  0  0  0  0  0  0  0  0  0
   45.7670   32.7770   46.9330 C   0  0  0  0  0  0  0  0  0  0  0  0
   46.5820   31.8280   46.8010 O   0  0  0  0  0  0  0  0  0  0  0  0
   45.3820   33.6020   45.8150 N   0  0  0  0  0  0  0  0  0  0  0  0
   44.6980   34.4020   45.9170 H   0  0  0  0  0  0  0  0  0  0  0  0
  1  3  1  0  0  0  0
  1  4  1  1  0  0  0
  2  1  1  0  0  0  0
  2  5  1  0  0  0  0
  2  3  1  0  0  0  0
  3  7  1  6  0  0  0
  3 22  1  0  0  0  0
  6  2  1  0  0  0  0
  8  9  1  0  0  0  0
  9 10  2  0  0  0  0
  9 16  1  0  0  0  0
 10  1  1  0  0  0  0
 11 10  1  0  0  0  0
 12 11  2  0  0  0  0
 13 12  1  0  0  0  0
 13  8  2  0  0  0  0
 14  8  1  0  0  0  0
 15 12  1  0  0  0  0
 16 18  1  0  0  0  0
 17 16  1  0  0  0  0
 20 19  1  0  0  0  0
 21 20  2  0  0  0  0
 22 23  1  0  0  0  0
 22 20  1  0  0  0  0
M  END
>  <minimizedAffinity>
-3.6008296

>  <minimizedRMSD>
5.45075941

$$$$
