
 OpenBabel03252509223D

 23 24  0  0  1  0  0  0  0  0999 V2000
   47.1450   35.2400   41.7770 C   0  0  1  0  0  0  0  0  0  0  0  0
   48.6130   35.6910   41.9210 C   0  0  0  0  0  0  0  0  0  0  0  0
   48.1120   34.4480   41.1130 C   0  0  2  0  0  0  0  0  0  0  0  0
   46.5060   36.0020   41.2900 H   0  0  0  0  0  0  0  0  0  0  0  0
   48.9330   36.5430   41.3260 H   0  0  0  0  0  0  0  0  0  0  0  0
   49.1560   35.5220   42.8420 H   0  0  0  0  0  0  0  0  0  0  0  0
   48.4810   33.4890   41.5810 H   0  0  0  0  0  0  0  0  0  0  0  0
   44.9830   34.8020   44.8270 C   0  0  0  0  0  0  0  0  0  0  0  0
   45.4710   35.3590   43.6160 C   0  0  0  0  0  0  0  0  0  0  0  0
   46.6060   34.7780   43.1080 C   0  0  0  0  0  0  0  0  0  0  0  0
   47.2170   33.7200   43.7580 N   0  0  0  0  0  0  0  0  0  0  0  0
   46.7140   33.2280   44.9060 C   0  0  0  0  0  0  0  0  0  0  0  0
   45.5890   33.7750   45.4410 N   0  0  0  0  0  0  0  0  0  0  0  0
   44.0870   35.2650   45.2220 H   0  0  0  0  0  0  0  0  0  0  0  0
   47.1800   32.4030   45.4250 H   0  0  0  0  0  0  0  0  0  0  0  0
   44.8650   36.4720   42.9650 N   0  0  0  0  0  0  0  0  0  0  0  0
   45.0530   37.2380   43.6590 H   0  0  0  0  0  0  0  0  0  0  0  0
   44.3810   36.4810   42.0550 H   0  0  0  0  0  0  0  0  0  0  0  0
   48.0240   33.8730   37.7220 H   0  0  0  0  0  0  0  0  0  0  0  0
   47.6770   33.7180   38.7310 C   0  0  0  0  0  0  0  0  0  0  0  0
   46.7420   32.9500   39.0740 O   0  0  0  0  0  0  0  0  0  0  0  0
   48.4060   34.4980   39.7000 N   0  0  0  0  0  0  0  0  0  0  0  0
   49.1940   35.1460   39.4220 H   0  0  0  0  0  0  0  0  0  0  0  0
  1  4  1  6  0  0  0
  1  2  1  0  0  0  0
  1 10  1  0  0  0  0
  2  6  1  0  0  0  0
  3  7  1  1  0  0  0
  3  1  1  0  0  0  0
  3  2  1  0  0  0  0
  5  2  1  0  0  0  0
  8 14  1  0  0  0  0
  8 13  1  0  0  0  0
  9  8  2  0  0  0  0
 10  9  1  0  0  0  0
 10 11  2  0  0  0  0
 11 12  1  0  0  0  0
 12 15  1  0  0  0  0
 12 13  2  0  0  0  0
 16  9  1  0  0  0  0
 16 17  1  0  0  0  0
 18 16  1  0  0  0  0
 19 20  1  0  0  0  0
 20 21  2  0  0  0  0
 20 22  1  0  0  0  0
 22  3  1  0  0  0  0
 23 22  1  0  0  0  0
M  END
>  <minimizedAffinity>
-4.28865051

>  <minimizedRMSD>
1.11749136

$$$$
