
 OpenBabel03242516033D

 30 32  0  0  0  0  0  0  0  0999 V2000
   38.2220   28.2710   39.3780 Cl  0  0  0  0  0  0  0  0  0  0  0  0
   37.7280   27.9480   41.0250 C   0  0  0  0  0  0  0  0  0  0  0  0
   37.4500   26.6900   41.4610 C   0  0  0  0  0  0  0  0  0  0  0  0
   37.0730   26.5770   42.7790 C   0  0  0  0  0  0  0  0  0  0  0  0
   36.9760   27.6230   43.6160 C   0  0  0  0  0  0  0  0  0  0  0  0
   37.2570   28.8910   43.1760 C   0  0  0  0  0  0  0  0  0  0  0  0
   37.6410   29.0500   41.8530 C   0  0  0  0  0  0  0  0  0  0  0  0
   36.8430   25.5820   43.1610 H   0  0  0  0  0  0  0  0  0  0  0  0
   36.6750   27.4670   44.6380 H   0  0  0  0  0  0  0  0  0  0  0  0
   37.1840   29.7450   43.8350 H   0  0  0  0  0  0  0  0  0  0  0  0
   37.9470   30.4100   41.3620 C   0  0  0  0  0  0  0  0  0  0  0  0
   36.9910   31.2020   40.6930 C   0  0  0  0  0  0  0  0  0  0  0  0
   37.8910   32.7400   40.3240 S   0  0  0  0  0  0  0  0  0  0  0  0
   39.4470   32.0490   41.1490 C   0  0  0  0  0  0  0  0  0  0  0  0
   39.0600   31.0540   41.4550 N   0  0  0  0  0  0  0  0  0  0  0  0
   35.9150   30.9730   40.4320 H   0  0  0  0  0  0  0  0  0  0  0  0
   42.1780   33.9730   40.6640 H   0  0  0  0  0  0  0  0  0  0  0  0
   41.1880   33.6410   40.3240 C   0  0  0  0  0  0  0  0  0  0  0  0
   40.3440   33.8150   39.3900 O   0  0  0  0  0  0  0  0  0  0  0  0
   40.7700   32.7020   41.3100 N   0  0  0  0  0  0  0  0  0  0  0  0
   41.2230   32.3460   42.1810 H   0  0  0  0  0  0  0  0  0  0  0  0
   36.6430   24.0620   38.8590 C   0  0  0  0  0  0  0  0  0  0  0  0
   36.5080   25.1290   39.7610 C   0  0  0  0  0  0  0  0  0  0  0  0
   37.5670   25.5950   40.5290 C   0  0  0  0  0  0  0  0  0  0  0  0
   38.7440   24.9330   40.3370 N   0  0  0  0  0  0  0  0  0  0  0  0
   38.8740   23.9150   39.4770 C   0  0  0  0  0  0  0  0  0  0  0  0
   37.8500   23.4800   38.7490 N   0  0  0  0  0  0  0  0  0  0  0  0
   35.7440   23.8020   38.3280 H   0  0  0  0  0  0  0  0  0  0  0  0
   35.5760   25.6660   39.9240 H   0  0  0  0  0  0  0  0  0  0  0  0
   39.8250   23.4120   39.3510 H   0  0  0  0  0  0  0  0  0  0  0  0
  1  2  1  0  0  0  0
  2  3  2  0  0  0  0
  2  7  1  0  0  0  0
  3  4  1  0  0  0  0
  4  8  1  0  0  0  0
  4  5  2  0  0  0  0
  5  9  1  0  0  0  0
  6  5  1  0  0  0  0
  6 10  1  0  0  0  0
  7  6  2  0  0  0  0
 11 15  1  0  0  0  0
 11  7  1  0  0  0  0
 12 11  2  0  0  0  0
 13 12  1  0  0  0  0
 13 14  1  0  0  0  0
 14 20  1  0  0  0  0
 14 15  2  0  0  0  0
 16 12  1  0  0  0  0
 18 17  1  0  0  0  0
 18 20  1  0  0  0  0
 19 18  2  0  0  0  0
 20 21  1  0  0  0  0
 22 23  1  0  0  0  0
 23 29  1  0  0  0  0
 23 24  2  0  0  0  0
 24  3  1  0  0  0  0
 25 24  1  0  0  0  0
 26 25  2  0  0  0  0
 27 22  2  0  0  0  0
 27 26  1  0  0  0  0
 28 22  1  0  0  0  0
 30 26  1  0  0  0  0
M  END
>  <minimizedAffinity>
-5.44058418

$$$$

 OpenBabel03242516033D

 30 32  0  0  0  0  0  0  0  0999 V2000
   38.3850   27.2870   39.5920 Cl  0  0  0  0  0  0  0  0  0  0  0  0
   37.6690   27.2520   41.1880 C   0  0  0  0  0  0  0  0  0  0  0  0
   37.1730   26.1080   41.7300 C   0  0  0  0  0  0  0  0  0  0  0  0
   36.6390   26.2210   42.9930 C   0  0  0  0  0  0  0  0  0  0  0  0
   36.5930   27.3750   43.6800 C   0  0  0  0  0  0  0  0  0  0  0  0
   37.0940   28.5270   43.1320 C   0  0  0  0  0  0  0  0  0  0  0  0
   37.6420   28.4580   41.8610 C   0  0  0  0  0  0  0  0  0  0  0  0
   36.2320   25.3220   43.4580 H   0  0  0  0  0  0  0  0  0  0  0  0
   36.1600   27.3960   44.6660 H   0  0  0  0  0  0  0  0  0  0  0  0
   37.0640   29.4650   43.6690 H   0  0  0  0  0  0  0  0  0  0  0  0
   38.1860   29.6910   41.2540 C   0  0  0  0  0  0  0  0  0  0  0  0
   39.5670   29.9780   41.2420 C   0  0  0  0  0  0  0  0  0  0  0  0
   39.6640   31.5830   40.3880 S   0  0  0  0  0  0  0  0  0  0  0  0
   37.7830   31.6070   40.1820 C   0  0  0  0  0  0  0  0  0  0  0  0
   37.5370   30.6430   40.6760 N   0  0  0  0  0  0  0  0  0  0  0  0
   40.4350   29.3810   41.6510 H   0  0  0  0  0  0  0  0  0  0  0  0
   36.6070   34.5570   39.0370 H   0  0  0  0  0  0  0  0  0  0  0  0
   37.3880   33.9980   39.5700 C   0  0  0  0  0  0  0  0  0  0  0  0
   38.4960   34.1590   40.1710 O   0  0  0  0  0  0  0  0  0  0  0  0
   36.9420   32.6460   39.5370 N   0  0  0  0  0  0  0  0  0  0  0  0
   36.0930   32.1930   39.1310 H   0  0  0  0  0  0  0  0  0  0  0  0
   38.3420   22.8060   40.2960 C   0  0  0  0  0  0  0  0  0  0  0  0
   38.2920   23.9860   41.0560 C   0  0  0  0  0  0  0  0  0  0  0  0
   37.2430   24.8910   40.9590 C   0  0  0  0  0  0  0  0  0  0  0  0
   36.2710   24.5420   40.0680 N   0  0  0  0  0  0  0  0  0  0  0  0
   36.3170   23.4180   39.3430 C   0  0  0  0  0  0  0  0  0  0  0  0
   37.3280   22.5610   39.4470 N   0  0  0  0  0  0  0  0  0  0  0  0
   39.2090   22.1940   40.4680 H   0  0  0  0  0  0  0  0  0  0  0  0
   39.0600   24.2760   41.7690 H   0  0  0  0  0  0  0  0  0  0  0  0
   35.5260   23.1740   38.6450 H   0  0  0  0  0  0  0  0  0  0  0  0
  1  2  1  0  0  0  0
  2  3  2  0  0  0  0
  2  7  1  0  0  0  0
  3  4  1  0  0  0  0
  4  8  1  0  0  0  0
  4  5  2  0  0  0  0
  5  9  1  0  0  0  0
  6 10  1  0  0  0  0
  6  5  1  0  0  0  0
  7  6  2  0  0  0  0
 11  7  1  0  0  0  0
 12 11  2  0  0  0  0
 12 16  1  0  0  0  0
 13 12  1  0  0  0  0
 14 13  1  0  0  0  0
 14 15  2  0  0  0  0
 15 11  1  0  0  0  0
 17 18  1  0  0  0  0
 18 19  2  0  0  0  0
 20 18  1  0  0  0  0
 20 14  1  0  0  0  0
 21 20  1  0  0  0  0
 22 28  1  0  0  0  0
 22 23  1  0  0  0  0
 23 29  1  0  0  0  0
 24 23  2  0  0  0  0
 24  3  1  0  0  0  0
 25 24  1  0  0  0  0
 26 27  1  0  0  0  0
 26 25  2  0  0  0  0
 27 22  2  0  0  0  0
 30 26  1  0  0  0  0
M  END
>  <minimizedAffinity>
-5.29878187

$$$$

 OpenBabel03242516033D

 30 32  0  0  0  0  0  0  0  0999 V2000
   40.8270   30.3300   40.5640 Cl  0  0  0  0  0  0  0  0  0  0  0  0
   39.3400   31.2080   40.2810 C   0  0  0  0  0  0  0  0  0  0  0  0
   39.3110   32.3660   39.5690 C   0  0  0  0  0  0  0  0  0  0  0  0
   38.0760   32.9530   39.4210 C   0  0  0  0  0  0  0  0  0  0  0  0
   36.9450   32.4420   39.9350 C   0  0  0  0  0  0  0  0  0  0  0  0
   36.9750   31.2740   40.6520 C   0  0  0  0  0  0  0  0  0  0  0  0
   38.2000   30.6490   40.8250 C   0  0  0  0  0  0  0  0  0  0  0  0
   38.0170   33.8830   38.8560 H   0  0  0  0  0  0  0  0  0  0  0  0
   36.0080   32.9520   39.7840 H   0  0  0  0  0  0  0  0  0  0  0  0
   36.0750   30.8490   41.0730 H   0  0  0  0  0  0  0  0  0  0  0  0
   38.2510   29.3890   41.5960 C   0  0  0  0  0  0  0  0  0  0  0  0
   38.4390   29.3690   42.9940 C   0  0  0  0  0  0  0  0  0  0  0  0
   38.4190   27.5960   43.4040 S   0  0  0  0  0  0  0  0  0  0  0  0
   38.1560   27.1590   41.5820 C   0  0  0  0  0  0  0  0  0  0  0  0
   38.1410   28.1840   41.1530 N   0  0  0  0  0  0  0  0  0  0  0  0
   38.5720   30.2250   43.7200 H   0  0  0  0  0  0  0  0  0  0  0  0
   38.4300   23.8540   40.9510 H   0  0  0  0  0  0  0  0  0  0  0  0
   38.6860   24.7160   41.5820 C   0  0  0  0  0  0  0  0  0  0  0  0
   39.3460   25.0320   42.6200 O   0  0  0  0  0  0  0  0  0  0  0  0
   38.0160   25.8150   40.9690 N   0  0  0  0  0  0  0  0  0  0  0  0
   37.4070   25.8860   40.1240 H   0  0  0  0  0  0  0  0  0  0  0  0
   42.2030   33.1180   37.2460 C   0  0  0  0  0  0  0  0  0  0  0  0
   40.9950   32.6090   37.7470 C   0  0  0  0  0  0  0  0  0  0  0  0
   40.5490   32.8790   39.0350 C   0  0  0  0  0  0  0  0  0  0  0  0
   41.3790   33.6750   39.7690 N   0  0  0  0  0  0  0  0  0  0  0  0
   42.5310   34.1610   39.2920 C   0  0  0  0  0  0  0  0  0  0  0  0
   42.9440   33.8930   38.0570 N   0  0  0  0  0  0  0  0  0  0  0  0
   42.4290   32.8320   36.2340 H   0  0  0  0  0  0  0  0  0  0  0  0
   40.3240   31.9730   37.1740 H   0  0  0  0  0  0  0  0  0  0  0  0
   43.1640   34.7900   39.9050 H   0  0  0  0  0  0  0  0  0  0  0  0
  2  1  1  0  0  0  0
  2  7  1  0  0  0  0
  3  2  2  0  0  0  0
  4  3  1  0  0  0  0
  4  5  2  0  0  0  0
  5  6  1  0  0  0  0
  6  7  2  0  0  0  0
  6 10  1  0  0  0  0
  7 11  1  0  0  0  0
  8  4  1  0  0  0  0
  9  5  1  0  0  0  0
 11 12  2  0  0  0  0
 12 13  1  0  0  0  0
 12 16  1  0  0  0  0
 14 13  1  0  0  0  0
 15 14  2  0  0  0  0
 15 11  1  0  0  0  0
 17 18  1  0  0  0  0
 18 19  2  0  0  0  0
 20 18  1  0  0  0  0
 20 14  1  0  0  0  0
 21 20  1  0  0  0  0
 22 23  2  0  0  0  0
 22 27  1  0  0  0  0
 23 24  1  0  0  0  0
 24  3  1  0  0  0  0
 24 25  2  0  0  0  0
 26 25  1  0  0  0  0
 26 30  1  0  0  0  0
 27 26  2  0  0  0  0
 28 22  1  0  0  0  0
 29 23  1  0  0  0  0
M  END
>  <minimizedAffinity>
-5.01034451

$$$$

 OpenBabel03242516033D

 30 32  0  0  0  0  0  0  0  0999 V2000
   38.0950   27.7470   39.2990 Cl  0  0  0  0  0  0  0  0  0  0  0  0
   37.8120   27.9920   41.0090 C   0  0  0  0  0  0  0  0  0  0  0  0
   37.7930   29.2330   41.5650 C   0  0  0  0  0  0  0  0  0  0  0  0
   37.5580   29.2830   42.9190 C   0  0  0  0  0  0  0  0  0  0  0  0
   37.3560   28.1940   43.6790 C   0  0  0  0  0  0  0  0  0  0  0  0
   37.3750   26.9440   43.1170 C   0  0  0  0  0  0  0  0  0  0  0  0
   37.6080   26.8470   41.7540 C   0  0  0  0  0  0  0  0  0  0  0  0
   37.5360   30.2630   43.3980 H   0  0  0  0  0  0  0  0  0  0  0  0
   37.1780   28.3020   44.7360 H   0  0  0  0  0  0  0  0  0  0  0  0
   37.2150   26.0560   43.7130 H   0  0  0  0  0  0  0  0  0  0  0  0
   37.6330   25.5070   41.1310 C   0  0  0  0  0  0  0  0  0  0  0  0
   38.8190   24.7540   41.0120 C   0  0  0  0  0  0  0  0  0  0  0  0
   38.2750   23.2240   40.1900 S   0  0  0  0  0  0  0  0  0  0  0  0
   36.4950   23.8640   40.1370 C   0  0  0  0  0  0  0  0  0  0  0  0
   36.6450   24.8490   40.6280 N   0  0  0  0  0  0  0  0  0  0  0  0
   39.8730   25.0040   41.3380 H   0  0  0  0  0  0  0  0  0  0  0  0
   34.4420   21.9350   38.2770 H   0  0  0  0  0  0  0  0  0  0  0  0
   35.4580   22.2910   38.4940 C   0  0  0  0  0  0  0  0  0  0  0  0
   36.6620   22.1670   38.1100 O   0  0  0  0  0  0  0  0  0  0  0  0
   35.2930   23.1920   39.5860 N   0  0  0  0  0  0  0  0  0  0  0  0
   34.4510   23.5050   40.1200 H   0  0  0  0  0  0  0  0  0  0  0  0
   37.2200   32.2360   39.3330 C   0  0  0  0  0  0  0  0  0  0  0  0
   36.9840   31.1270   40.1610 C   0  0  0  0  0  0  0  0  0  0  0  0
   38.0140   30.3750   40.7120 C   0  0  0  0  0  0  0  0  0  0  0  0
   39.2670   30.8010   40.3850 N   0  0  0  0  0  0  0  0  0  0  0  0
   39.4940   31.8590   39.5960 C   0  0  0  0  0  0  0  0  0  0  0  0
   38.4970   32.5680   39.0750 N   0  0  0  0  0  0  0  0  0  0  0  0
   36.3340   32.7280   38.9730 H   0  0  0  0  0  0  0  0  0  0  0  0
   35.9910   30.7760   40.4300 H   0  0  0  0  0  0  0  0  0  0  0  0
   40.5040   32.1670   39.3580 H   0  0  0  0  0  0  0  0  0  0  0  0
  1  2  1  0  0  0  0
  2  3  2  0  0  0  0
  2  7  1  0  0  0  0
  3  4  1  0  0  0  0
  4  8  1  0  0  0  0
  4  5  2  0  0  0  0
  5  9  1  0  0  0  0
  6  5  1  0  0  0  0
  6 10  1  0  0  0  0
  7  6  2  0  0  0  0
 11  7  1  0  0  0  0
 12 11  2  0  0  0  0
 12 16  1  0  0  0  0
 13 12  1  0  0  0  0
 14 13  1  0  0  0  0
 14 15  2  0  0  0  0
 15 11  1  0  0  0  0
 17 18  1  0  0  0  0
 18 20  1  0  0  0  0
 19 18  2  0  0  0  0
 20 21  1  0  0  0  0
 20 14  1  0  0  0  0
 22 23  1  0  0  0  0
 23 29  1  0  0  0  0
 23 24  2  0  0  0  0
 24  3  1  0  0  0  0
 25 24  1  0  0  0  0
 26 25  2  0  0  0  0
 27 22  2  0  0  0  0
 27 26  1  0  0  0  0
 28 22  1  0  0  0  0
 30 26  1  0  0  0  0
M  END
>  <minimizedAffinity>
-5.00763369

$$$$

 OpenBabel03242516033D

 30 32  0  0  0  0  0  0  0  0999 V2000
   37.1140   30.8040   38.4080 Cl  0  0  0  0  0  0  0  0  0  0  0  0
   37.1740   30.0460   39.9840 C   0  0  0  0  0  0  0  0  0  0  0  0
   37.9840   30.5080   40.9750 C   0  0  0  0  0  0  0  0  0  0  0  0
   37.9330   29.8200   42.1650 C   0  0  0  0  0  0  0  0  0  0  0  0
   37.1440   28.7520   42.3730 C   0  0  0  0  0  0  0  0  0  0  0  0
   36.3280   28.2880   41.3740 C   0  0  0  0  0  0  0  0  0  0  0  0
   36.3480   28.9530   40.1570 C   0  0  0  0  0  0  0  0  0  0  0  0
   38.5690   30.1640   42.9810 H   0  0  0  0  0  0  0  0  0  0  0  0
   37.1510   28.2570   43.3300 H   0  0  0  0  0  0  0  0  0  0  0  0
   35.6870   27.4310   41.5230 H   0  0  0  0  0  0  0  0  0  0  0  0
   35.4760   28.4660   39.0680 C   0  0  0  0  0  0  0  0  0  0  0  0
   35.8470   27.3970   38.2260 C   0  0  0  0  0  0  0  0  0  0  0  0
   34.4310   27.2290   37.0960 S   0  0  0  0  0  0  0  0  0  0  0  0
   33.5470   28.6600   37.9610 C   0  0  0  0  0  0  0  0  0  0  0  0
   34.3120   28.9040   38.7290 N   0  0  0  0  0  0  0  0  0  0  0  0
   36.7880   26.7700   38.2230 H   0  0  0  0  0  0  0  0  0  0  0  0
   30.7660   29.6820   36.3420 H   0  0  0  0  0  0  0  0  0  0  0  0
   31.7530   29.2000   36.3070 C   0  0  0  0  0  0  0  0  0  0  0  0
   32.5660   28.6510   35.5000 O   0  0  0  0  0  0  0  0  0  0  0  0
   32.2170   29.2400   37.6530 N   0  0  0  0  0  0  0  0  0  0  0  0
   31.7960   29.6150   38.5330 H   0  0  0  0  0  0  0  0  0  0  0  0
   40.9450   32.6950   40.1000 C   0  0  0  0  0  0  0  0  0  0  0  0
   40.1540   31.5640   40.3540 C   0  0  0  0  0  0  0  0  0  0  0  0
   38.8140   31.6570   40.7090 C   0  0  0  0  0  0  0  0  0  0  0  0
   38.3340   32.9300   40.7900 N   0  0  0  0  0  0  0  0  0  0  0  0
   39.0870   34.0100   40.5470 C   0  0  0  0  0  0  0  0  0  0  0  0
   40.3690   33.9050   40.2090 N   0  0  0  0  0  0  0  0  0  0  0  0
   41.9660   32.4820   39.8350 H   0  0  0  0  0  0  0  0  0  0  0  0
   40.5230   30.5430   40.2940 H   0  0  0  0  0  0  0  0  0  0  0  0
   38.6710   35.0060   40.6220 H   0  0  0  0  0  0  0  0  0  0  0  0
  1  2  1  0  0  0  0
  2  7  2  0  0  0  0
  2  3  1  0  0  0  0
  3  4  2  0  0  0  0
  4  5  1  0  0  0  0
  4  8  1  0  0  0  0
  5  9  1  0  0  0  0
  6 10  1  0  0  0  0
  6  5  2  0  0  0  0
  7  6  1  0  0  0  0
 11  7  1  0  0  0  0
 12 11  2  0  0  0  0
 13 14  1  0  0  0  0
 13 12  1  0  0  0  0
 14 15  2  0  0  0  0
 15 11  1  0  0  0  0
 16 12  1  0  0  0  0
 18 17  1  0  0  0  0
 18 20  1  0  0  0  0
 19 18  2  0  0  0  0
 20 14  1  0  0  0  0
 20 21  1  0  0  0  0
 22 27  2  0  0  0  0
 22 23  1  0  0  0  0
 23 24  2  0  0  0  0
 24 25  1  0  0  0  0
 24  3  1  0  0  0  0
 26 30  1  0  0  0  0
 26 25  2  0  0  0  0
 27 26  1  0  0  0  0
 28 22  1  0  0  0  0
 29 23  1  0  0  0  0
M  END
>  <minimizedAffinity>
-4.9956913

$$$$

 OpenBabel03242516033D

 30 32  0  0  0  0  0  0  0  0999 V2000
   39.5130   28.2940   40.4330 Cl  0  0  0  0  0  0  0  0  0  0  0  0
   37.9330   29.0390   40.5290 C   0  0  0  0  0  0  0  0  0  0  0  0
   36.8000   28.3050   40.6990 C   0  0  0  0  0  0  0  0  0  0  0  0
   35.6240   29.0170   40.7580 C   0  0  0  0  0  0  0  0  0  0  0  0
   35.5590   30.3550   40.6580 C   0  0  0  0  0  0  0  0  0  0  0  0
   36.7020   31.0930   40.4860 C   0  0  0  0  0  0  0  0  0  0  0  0
   37.9100   30.4160   40.4210 C   0  0  0  0  0  0  0  0  0  0  0  0
   34.6970   28.4590   40.8950 H   0  0  0  0  0  0  0  0  0  0  0  0
   34.6050   30.8520   40.7110 H   0  0  0  0  0  0  0  0  0  0  0  0
   36.6690   32.1700   40.4020 H   0  0  0  0  0  0  0  0  0  0  0  0
   39.1520   31.1950   40.2350 C   0  0  0  0  0  0  0  0  0  0  0  0
   39.8240   31.8090   41.3130 C   0  0  0  0  0  0  0  0  0  0  0  0
   41.2540   32.6110   40.5250 S   0  0  0  0  0  0  0  0  0  0  0  0
   40.7010   31.9750   38.8310 C   0  0  0  0  0  0  0  0  0  0  0  0
   39.7840   31.4270   39.1370 N   0  0  0  0  0  0  0  0  0  0  0  0
   39.5680   31.8220   42.4140 H   0  0  0  0  0  0  0  0  0  0  0  0
   42.4620   33.2970   36.2720 H   0  0  0  0  0  0  0  0  0  0  0  0
   42.0890   33.3830   37.3010 C   0  0  0  0  0  0  0  0  0  0  0  0
   42.1020   34.1610   38.3050 O   0  0  0  0  0  0  0  0  0  0  0  0
   41.3520   32.1820   37.5140 N   0  0  0  0  0  0  0  0  0  0  0  0
   41.1540   31.3590   36.9020 H   0  0  0  0  0  0  0  0  0  0  0  0
   36.9010   24.6210   39.8400 C   0  0  0  0  0  0  0  0  0  0  0  0
   36.7850   26.0150   39.7180 C   0  0  0  0  0  0  0  0  0  0  0  0
   36.9150   26.8710   40.8030 C   0  0  0  0  0  0  0  0  0  0  0  0
   37.1620   26.2500   41.9920 N   0  0  0  0  0  0  0  0  0  0  0  0
   37.2720   24.9210   42.1100 C   0  0  0  0  0  0  0  0  0  0  0  0
   37.1450   24.1140   41.0610 N   0  0  0  0  0  0  0  0  0  0  0  0
   36.7790   24.0750   38.9210 H   0  0  0  0  0  0  0  0  0  0  0  0
   36.5890   26.5230   38.7770 H   0  0  0  0  0  0  0  0  0  0  0  0
   37.4690   24.4630   43.0710 H   0  0  0  0  0  0  0  0  0  0  0  0
  1  2  1  0  0  0  0
  2  3  1  0  0  0  0
  3  4  2  0  0  0  0
  3 24  1  0  0  0  0
  4  8  1  0  0  0  0
  5  9  1  0  0  0  0
  5  4  1  0  0  0  0
  6  5  2  0  0  0  0
  7  6  1  0  0  0  0
  7  2  2  0  0  0  0
 10  6  1  0  0  0  0
 11  7  1  0  0  0  0
 11 12  2  0  0  0  0
 12 16  1  0  0  0  0
 13 12  1  0  0  0  0
 14 15  2  0  0  0  0
 14 13  1  0  0  0  0
 15 11  1  0  0  0  0
 17 18  1  0  0  0  0
 18 20  1  0  0  0  0
 18 19  2  0  0  0  0
 20 14  1  0  0  0  0
 21 20  1  0  0  0  0
 22 27  1  0  0  0  0
 23 22  2  0  0  0  0
 23 24  1  0  0  0  0
 24 25  2  0  0  0  0
 25 26  1  0  0  0  0
 26 30  1  0  0  0  0
 27 26  2  0  0  0  0
 28 22  1  0  0  0  0
 29 23  1  0  0  0  0
M  END
>  <minimizedAffinity>
-4.9825263

$$$$

 OpenBabel03242516033D

 30 32  0  0  0  0  0  0  0  0999 V2000
   36.2470   26.4000   38.7040 Cl  0  0  0  0  0  0  0  0  0  0  0  0
   36.3340   27.7730   39.7860 C   0  0  0  0  0  0  0  0  0  0  0  0
   37.0270   27.7260   40.9550 C   0  0  0  0  0  0  0  0  0  0  0  0
   37.0140   28.8750   41.7110 C   0  0  0  0  0  0  0  0  0  0  0  0
   36.3670   29.9960   41.3480 C   0  0  0  0  0  0  0  0  0  0  0  0
   35.6690   30.0410   40.1690 C   0  0  0  0  0  0  0  0  0  0  0  0
   35.6560   28.9050   39.3760 C   0  0  0  0  0  0  0  0  0  0  0  0
   37.5610   28.8720   42.6540 H   0  0  0  0  0  0  0  0  0  0  0  0
   36.3960   30.8630   41.9860 H   0  0  0  0  0  0  0  0  0  0  0  0
   35.1420   30.9340   39.8610 H   0  0  0  0  0  0  0  0  0  0  0  0
   34.9080   28.9360   38.1020 C   0  0  0  0  0  0  0  0  0  0  0  0
   35.5490   29.0960   36.8560 C   0  0  0  0  0  0  0  0  0  0  0  0
   34.1770   29.0610   35.6600 S   0  0  0  0  0  0  0  0  0  0  0  0
   32.9330   28.8300   37.0670 C   0  0  0  0  0  0  0  0  0  0  0  0
   33.6350   28.8280   37.9280 N   0  0  0  0  0  0  0  0  0  0  0  0
   36.6470   29.2190   36.6170 H   0  0  0  0  0  0  0  0  0  0  0  0
   29.7220   29.1020   36.0620 H   0  0  0  0  0  0  0  0  0  0  0  0
   30.7810   29.3490   35.9070 C   0  0  0  0  0  0  0  0  0  0  0  0
   31.5510   29.9910   35.1280 O   0  0  0  0  0  0  0  0  0  0  0  0
   31.4580   28.6970   36.9770 N   0  0  0  0  0  0  0  0  0  0  0  0
   31.1200   28.1040   37.7680 H   0  0  0  0  0  0  0  0  0  0  0  0
   37.7600   24.2510   42.2630 C   0  0  0  0  0  0  0  0  0  0  0  0
   37.0800   25.4330   41.9300 C   0  0  0  0  0  0  0  0  0  0  0  0
   37.7080   26.5030   41.3060 C   0  0  0  0  0  0  0  0  0  0  0  0
   39.0330   26.3130   41.0460 N   0  0  0  0  0  0  0  0  0  0  0  0
   39.6830   25.1860   41.3630 C   0  0  0  0  0  0  0  0  0  0  0  0
   39.0680   24.1700   41.9600 N   0  0  0  0  0  0  0  0  0  0  0  0
   37.1560   23.5010   42.7430 H   0  0  0  0  0  0  0  0  0  0  0  0
   36.0240   25.5980   42.1310 H   0  0  0  0  0  0  0  0  0  0  0  0
   40.7360   25.0720   41.1400 H   0  0  0  0  0  0  0  0  0  0  0  0
  1  2  1  0  0  0  0
  2  3  1  0  0  0  0
  3 24  1  0  0  0  0
  3  4  2  0  0  0  0
  4  8  1  0  0  0  0
  5  4  1  0  0  0  0
  5  9  1  0  0  0  0
  6  5  2  0  0  0  0
  7  2  2  0  0  0  0
  7  6  1  0  0  0  0
 10  6  1  0  0  0  0
 11  7  1  0  0  0  0
 12 11  2  0  0  0  0
 13 12  1  0  0  0  0
 13 14  1  0  0  0  0
 14 15  2  0  0  0  0
 15 11  1  0  0  0  0
 16 12  1  0  0  0  0
 18 17  1  0  0  0  0
 18 20  1  0  0  0  0
 19 18  2  0  0  0  0
 20 14  1  0  0  0  0
 20 21  1  0  0  0  0
 22 28  1  0  0  0  0
 23 29  1  0  0  0  0
 23 22  2  0  0  0  0
 24 23  1  0  0  0  0
 25 24  2  0  0  0  0
 25 26  1  0  0  0  0
 26 27  2  0  0  0  0
 27 22  1  0  0  0  0
 30 26  1  0  0  0  0
M  END
>  <minimizedAffinity>
-4.97515249

$$$$

 OpenBabel03242516033D

 30 32  0  0  0  0  0  0  0  0999 V2000
   39.4710   28.2170   40.0970 Cl  0  0  0  0  0  0  0  0  0  0  0  0
   37.8600   28.8770   40.2840 C   0  0  0  0  0  0  0  0  0  0  0  0
   36.7910   28.0920   40.5820 C   0  0  0  0  0  0  0  0  0  0  0  0
   35.5820   28.7380   40.7010 C   0  0  0  0  0  0  0  0  0  0  0  0
   35.4300   30.0640   40.5410 C   0  0  0  0  0  0  0  0  0  0  0  0
   36.5090   30.8540   40.2420 C   0  0  0  0  0  0  0  0  0  0  0  0
   37.7470   30.2430   40.1120 C   0  0  0  0  0  0  0  0  0  0  0  0
   34.7030   28.1380   40.9400 H   0  0  0  0  0  0  0  0  0  0  0  0
   34.4550   30.5090   40.6480 H   0  0  0  0  0  0  0  0  0  0  0  0
   36.4050   31.9220   40.1090 H   0  0  0  0  0  0  0  0  0  0  0  0
   38.9210   31.0790   39.7890 C   0  0  0  0  0  0  0  0  0  0  0  0
   39.3110   31.3500   38.4600 C   0  0  0  0  0  0  0  0  0  0  0  0
   40.7830   32.4030   38.6510 S   0  0  0  0  0  0  0  0  0  0  0  0
   40.6320   32.3050   40.5340 C   0  0  0  0  0  0  0  0  0  0  0  0
   39.7290   31.6610   40.6080 N   0  0  0  0  0  0  0  0  0  0  0  0
   38.8460   31.0130   37.4860 H   0  0  0  0  0  0  0  0  0  0  0  0
   43.2920   33.6080   42.1530 H   0  0  0  0  0  0  0  0  0  0  0  0
   42.8760   33.1410   41.2500 C   0  0  0  0  0  0  0  0  0  0  0  0
   43.2040   32.7520   40.0860 O   0  0  0  0  0  0  0  0  0  0  0  0
   41.5010   32.9310   41.5600 N   0  0  0  0  0  0  0  0  0  0  0  0
   40.9320   33.1360   42.4120 H   0  0  0  0  0  0  0  0  0  0  0  0
   37.4610   24.6960   42.1110 C   0  0  0  0  0  0  0  0  0  0  0  0
   37.2620   26.0780   41.9720 C   0  0  0  0  0  0  0  0  0  0  0  0
   36.9990   26.6740   40.7460 C   0  0  0  0  0  0  0  0  0  0  0  0
   36.9520   25.8090   39.6920 N   0  0  0  0  0  0  0  0  0  0  0  0
   37.1420   24.4910   39.8230 C   0  0  0  0  0  0  0  0  0  0  0  0
   37.3930   23.9350   41.0050 N   0  0  0  0  0  0  0  0  0  0  0  0
   37.6570   24.3650   43.1160 H   0  0  0  0  0  0  0  0  0  0  0  0
   37.2960   26.7790   42.8030 H   0  0  0  0  0  0  0  0  0  0  0  0
   37.0970   23.8350   38.9620 H   0  0  0  0  0  0  0  0  0  0  0  0
  1  2  1  0  0  0  0
  2  3  1  0  0  0  0
  3  4  2  0  0  0  0
  3 24  1  0  0  0  0
  4  8  1  0  0  0  0
  5  9  1  0  0  0  0
  5  4  1  0  0  0  0
  6  5  2  0  0  0  0
  7  6  1  0  0  0  0
  7  2  2  0  0  0  0
 10  6  1  0  0  0  0
 11  7  1  0  0  0  0
 11 15  1  0  0  0  0
 12 13  1  0  0  0  0
 12 11  2  0  0  0  0
 13 14  1  0  0  0  0
 14 15  2  0  0  0  0
 14 20  1  0  0  0  0
 16 12  1  0  0  0  0
 18 20  1  0  0  0  0
 18 17  1  0  0  0  0
 19 18  2  0  0  0  0
 20 21  1  0  0  0  0
 22 28  1  0  0  0  0
 23 22  1  0  0  0  0
 23 29  1  0  0  0  0
 24 23  2  0  0  0  0
 25 26  2  0  0  0  0
 25 24  1  0  0  0  0
 26 27  1  0  0  0  0
 27 22  2  0  0  0  0
 30 26  1  0  0  0  0
M  END
>  <minimizedAffinity>
-4.96550703

$$$$

 OpenBabel03242516033D

 30 32  0  0  0  0  0  0  0  0999 V2000
   38.0070   27.1490   39.5610 Cl  0  0  0  0  0  0  0  0  0  0  0  0
   38.6390   26.8040   41.1570 C   0  0  0  0  0  0  0  0  0  0  0  0
   39.1540   25.5880   41.4800 C   0  0  0  0  0  0  0  0  0  0  0  0
   39.6180   25.4520   42.7680 C   0  0  0  0  0  0  0  0  0  0  0  0
   39.5800   26.4390   43.6790 C   0  0  0  0  0  0  0  0  0  0  0  0
   39.0610   27.6640   43.3520 C   0  0  0  0  0  0  0  0  0  0  0  0
   38.5820   27.8450   42.0630 C   0  0  0  0  0  0  0  0  0  0  0  0
   40.0380   24.4890   43.0610 H   0  0  0  0  0  0  0  0  0  0  0  0
   39.9590   26.2670   44.6730 H   0  0  0  0  0  0  0  0  0  0  0  0
   39.0220   28.4700   44.0720 H   0  0  0  0  0  0  0  0  0  0  0  0
   38.0180   29.1600   41.6930 C   0  0  0  0  0  0  0  0  0  0  0  0
   36.6610   29.3260   41.3440 C   0  0  0  0  0  0  0  0  0  0  0  0
   36.5250   31.1060   40.9910 S   0  0  0  0  0  0  0  0  0  0  0  0
   38.3610   31.3430   41.3790 C   0  0  0  0  0  0  0  0  0  0  0  0
   38.6270   30.2940   41.6310 N   0  0  0  0  0  0  0  0  0  0  0  0
   35.8290   28.5630   41.2880 H   0  0  0  0  0  0  0  0  0  0  0  0
   39.5060   34.4160   40.5770 H   0  0  0  0  0  0  0  0  0  0  0  0
   38.7770   33.6100   40.4130 C   0  0  0  0  0  0  0  0  0  0  0  0
   37.7660   33.3090   39.7060 O   0  0  0  0  0  0  0  0  0  0  0  0
   39.1550   32.5950   41.3390 N   0  0  0  0  0  0  0  0  0  0  0  0
   39.9240   32.5350   42.0440 H   0  0  0  0  0  0  0  0  0  0  0  0
   40.1970   23.4160   38.5610 C   0  0  0  0  0  0  0  0  0  0  0  0
   40.1940   24.4270   39.5350 C   0  0  0  0  0  0  0  0  0  0  0  0
   39.1760   24.5570   40.4710 C   0  0  0  0  0  0  0  0  0  0  0  0
   38.1850   23.6270   40.3670 N   0  0  0  0  0  0  0  0  0  0  0  0
   38.1860   22.6620   39.4390 C   0  0  0  0  0  0  0  0  0  0  0  0
   39.1680   22.5510   38.5490 N   0  0  0  0  0  0  0  0  0  0  0  0
   41.0440   23.4290   37.8980 H   0  0  0  0  0  0  0  0  0  0  0  0
   40.9770   25.1750   39.6300 H   0  0  0  0  0  0  0  0  0  0  0  0
   37.3800   21.9400   39.3860 H   0  0  0  0  0  0  0  0  0  0  0  0
  1  2  1  0  0  0  0
  2  3  2  0  0  0  0
  2  7  1  0  0  0  0
  3  4  1  0  0  0  0
  4  8  1  0  0  0  0
  4  5  2  0  0  0  0
  5  9  1  0  0  0  0
  6  5  1  0  0  0  0
  6 10  1  0  0  0  0
  7  6  2  0  0  0  0
 11  7  1  0  0  0  0
 12 11  2  0  0  0  0
 13 12  1  0  0  0  0
 13 14  1  0  0  0  0
 14 15  2  0  0  0  0
 15 11  1  0  0  0  0
 16 12  1  0  0  0  0
 18 17  1  0  0  0  0
 18 20  1  0  0  0  0
 19 18  2  0  0  0  0
 20 14  1  0  0  0  0
 20 21  1  0  0  0  0
 22 23  1  0  0  0  0
 23 29  1  0  0  0  0
 23 24  2  0  0  0  0
 24  3  1  0  0  0  0
 25 24  1  0  0  0  0
 26 25  2  0  0  0  0
 27 22  2  0  0  0  0
 27 26  1  0  0  0  0
 28 22  1  0  0  0  0
 30 26  1  0  0  0  0
M  END
>  <minimizedAffinity>
-4.9323082

$$$$
