
 OpenBabel03252507403D

 15 15  0  0  0  0  0  0  0  0999 V2000
   36.6500   30.1920   41.2290 C   0  0  0  0  0  0  0  0  0  0  0  0
   37.6670   29.7390   42.0780 C   0  0  0  0  0  0  0  0  0  0  0  0
   38.8480   30.4790   42.1110 C   0  0  0  0  0  0  0  0  0  0  0  0
   38.9530   31.5890   41.3300 N   0  0  0  0  0  0  0  0  0  0  0  0
   37.9390   31.9780   40.5280 C   0  0  0  0  0  0  0  0  0  0  0  0
   36.7740   31.2930   40.4620 N   0  0  0  0  0  0  0  0  0  0  0  0
   39.6460   30.1460   42.7610 H   0  0  0  0  0  0  0  0  0  0  0  0
   38.0130   32.8590   39.9030 H   0  0  0  0  0  0  0  0  0  0  0  0
   33.9360   28.6790   39.7030 H   0  0  0  0  0  0  0  0  0  0  0  0
   34.8690   29.2200   39.8730 C   0  0  0  0  0  0  0  0  0  0  0  0
   35.3890   29.5940   38.7720 O   0  0  0  0  0  0  0  0  0  0  0  0
   35.4240   29.4710   41.1580 N   0  0  0  0  0  0  0  0  0  0  0  0
   34.9240   29.1240   42.0060 H   0  0  0  0  0  0  0  0  0  0  0  0
   37.4680   28.2730   43.0820 S   0  0  0  0  0  0  0  0  0  0  0  0
   38.2990   27.2260   42.7050 H   0  0  0  0  0  0  0  0  0  0  0  0
  1  2  1  0  0  0  0
  2  3  2  0  0  0  0
  2 14  1  0  0  0  0
  3  7  1  0  0  0  0
  4  3  1  0  0  0  0
  5  4  2  0  0  0  0
  6  5  1  0  0  0  0
  6  1  2  0  0  0  0
  8  5  1  0  0  0  0
  9 10  1  0  0  0  0
 10 12  1  0  0  0  0
 11 10  2  0  0  0  0
 12  1  1  0  0  0  0
 12 13  1  0  0  0  0
 15 14  1  0  0  0  0
M  END
>  <minimizedAffinity>
-3.42340255

$$$$

 OpenBabel03252507403D

 15 15  0  0  0  0  0  0  0  0999 V2000
   37.2990   29.6610   42.0750 C   0  0  0  0  0  0  0  0  0  0  0  0
   38.3670   30.4050   41.5590 C   0  0  0  0  0  0  0  0  0  0  0  0
   38.2670   30.8360   40.2380 C   0  0  0  0  0  0  0  0  0  0  0  0
   37.1520   30.5170   39.5230 N   0  0  0  0  0  0  0  0  0  0  0  0
   36.1530   29.7950   40.0730 C   0  0  0  0  0  0  0  0  0  0  0  0
   36.2050   29.3550   41.3510 N   0  0  0  0  0  0  0  0  0  0  0  0
   39.0810   31.4130   39.8200 H   0  0  0  0  0  0  0  0  0  0  0  0
   35.2630   29.5360   39.5130 H   0  0  0  0  0  0  0  0  0  0  0  0
   36.9760   27.3940   44.6710 H   0  0  0  0  0  0  0  0  0  0  0  0
   36.9730   27.8520   43.6800 C   0  0  0  0  0  0  0  0  0  0  0  0
   36.5830   27.0240   42.7940 O   0  0  0  0  0  0  0  0  0  0  0  0
   37.3540   29.1980   43.4200 N   0  0  0  0  0  0  0  0  0  0  0  0
   37.6600   29.8030   44.2130 H   0  0  0  0  0  0  0  0  0  0  0  0
   39.8050   30.7930   42.5480 S   0  0  0  0  0  0  0  0  0  0  0  0
   40.9650   30.1670   42.1100 H   0  0  0  0  0  0  0  0  0  0  0  0
  1 12  1  0  0  0  0
  2  1  1  0  0  0  0
  2 14  1  0  0  0  0
  3  2  2  0  0  0  0
  4  5  2  0  0  0  0
  4  3  1  0  0  0  0
  5  6  1  0  0  0  0
  6  1  2  0  0  0  0
  7  3  1  0  0  0  0
  8  5  1  0  0  0  0
 10  9  1  0  0  0  0
 11 10  2  0  0  0  0
 12 10  1  0  0  0  0
 12 13  1  0  0  0  0
 15 14  1  0  0  0  0
M  END
>  <minimizedAffinity>
-3.40348959

$$$$

 OpenBabel03252507403D

 15 15  0  0  0  0  0  0  0  0999 V2000
   37.8810   29.6260   42.4140 C   0  0  0  0  0  0  0  0  0  0  0  0
   38.0460   28.3340   42.9260 C   0  0  0  0  0  0  0  0  0  0  0  0
   39.3510   27.8880   43.1280 C   0  0  0  0  0  0  0  0  0  0  0  0
   40.3860   28.7190   42.8230 N   0  0  0  0  0  0  0  0  0  0  0  0
   40.1670   29.9570   42.3310 C   0  0  0  0  0  0  0  0  0  0  0  0
   38.9190   30.4330   42.1180 N   0  0  0  0  0  0  0  0  0  0  0  0
   39.5010   26.8930   43.5240 H   0  0  0  0  0  0  0  0  0  0  0  0
   40.9830   30.6240   42.0840 H   0  0  0  0  0  0  0  0  0  0  0  0
   35.3420   31.2260   40.6890 H   0  0  0  0  0  0  0  0  0  0  0  0
   36.3100   30.8020   40.9640 C   0  0  0  0  0  0  0  0  0  0  0  0
   37.1720   30.9940   40.0450 O   0  0  0  0  0  0  0  0  0  0  0  0
   36.5680   30.1280   42.1890 N   0  0  0  0  0  0  0  0  0  0  0  0
   35.7960   30.0200   42.8830 H   0  0  0  0  0  0  0  0  0  0  0  0
   36.6460   27.2900   43.3090 S   0  0  0  0  0  0  0  0  0  0  0  0
   36.5420   26.1770   42.4840 H   0  0  0  0  0  0  0  0  0  0  0  0
  1  2  1  0  0  0  0
  2  3  2  0  0  0  0
  2 14  1  0  0  0  0
  3  7  1  0  0  0  0
  4  3  1  0  0  0  0
  5  4  2  0  0  0  0
  6  5  1  0  0  0  0
  6  1  2  0  0  0  0
  8  5  1  0  0  0  0
  9 10  1  0  0  0  0
 10 12  1  0  0  0  0
 11 10  2  0  0  0  0
 12  1  1  0  0  0  0
 12 13  1  0  0  0  0
 15 14  1  0  0  0  0
M  END
>  <minimizedAffinity>
-3.37545776

$$$$

 OpenBabel03252507403D

 15 15  0  0  0  0  0  0  0  0999 V2000
   36.7520   30.1920   41.3000 C   0  0  0  0  0  0  0  0  0  0  0  0
   36.0770   29.0330   40.9000 C   0  0  0  0  0  0  0  0  0  0  0  0
   36.4930   27.8260   41.4590 C   0  0  0  0  0  0  0  0  0  0  0  0
   37.5190   27.8330   42.3530 N   0  0  0  0  0  0  0  0  0  0  0  0
   38.1350   28.9830   42.7020 C   0  0  0  0  0  0  0  0  0  0  0  0
   37.7670   30.1780   42.1870 N   0  0  0  0  0  0  0  0  0  0  0  0
   35.9840   26.9180   41.1630 H   0  0  0  0  0  0  0  0  0  0  0  0
   38.9530   28.9980   43.4110 H   0  0  0  0  0  0  0  0  0  0  0  0
   37.2060   33.3220   39.8920 H   0  0  0  0  0  0  0  0  0  0  0  0
   37.3890   32.3340   40.3210 C   0  0  0  0  0  0  0  0  0  0  0  0
   38.6370   32.0850   40.3790 O   0  0  0  0  0  0  0  0  0  0  0  0
   36.3640   31.4500   40.7580 N   0  0  0  0  0  0  0  0  0  0  0  0
   35.3670   31.7440   40.6710 H   0  0  0  0  0  0  0  0  0  0  0  0
   34.7340   29.0890   39.7210 S   0  0  0  0  0  0  0  0  0  0  0  0
   35.0300   28.4720   38.5130 H   0  0  0  0  0  0  0  0  0  0  0  0
  1  6  1  0  0  0  0
  2  1  2  0  0  0  0
  2  3  1  0  0  0  0
  3  4  2  0  0  0  0
  4  5  1  0  0  0  0
  5  8  1  0  0  0  0
  6  5  2  0  0  0  0
  7  3  1  0  0  0  0
  9 10  1  0  0  0  0
 10 11  2  0  0  0  0
 10 12  1  0  0  0  0
 12  1  1  0  0  0  0
 13 12  1  0  0  0  0
 14  2  1  0  0  0  0
 15 14  1  0  0  0  0
M  END
>  <minimizedAffinity>
-3.3606286

$$$$

 OpenBabel03252507403D

 15 15  0  0  0  0  0  0  0  0999 V2000
   38.6230   32.0660   38.2510 C   0  0  0  0  0  0  0  0  0  0  0  0
   37.5440   31.1740   38.2490 C   0  0  0  0  0  0  0  0  0  0  0  0
   36.7750   31.0990   39.4090 C   0  0  0  0  0  0  0  0  0  0  0  0
   37.1040   31.8850   40.4710 N   0  0  0  0  0  0  0  0  0  0  0  0
   38.1580   32.7270   40.4160 C   0  0  0  0  0  0  0  0  0  0  0  0
   38.9330   32.8350   39.3130 N   0  0  0  0  0  0  0  0  0  0  0  0
   35.9360   30.4160   39.4280 H   0  0  0  0  0  0  0  0  0  0  0  0
   38.4290   33.3560   41.2550 H   0  0  0  0  0  0  0  0  0  0  0  0
   41.5680   32.2860   36.4460 H   0  0  0  0  0  0  0  0  0  0  0  0
   40.8500   32.2010   37.2650 C   0  0  0  0  0  0  0  0  0  0  0  0
   41.4440   32.1270   38.3890 O   0  0  0  0  0  0  0  0  0  0  0  0
   39.4390   32.1800   37.0900 N   0  0  0  0  0  0  0  0  0  0  0  0
   39.0440   32.2480   36.1270 H   0  0  0  0  0  0  0  0  0  0  0  0
   37.1600   30.1680   36.8220 S   0  0  0  0  0  0  0  0  0  0  0  0
   37.3580   28.8090   37.0310 H   0  0  0  0  0  0  0  0  0  0  0  0
  1  6  1  0  0  0  0
  2  1  2  0  0  0  0
  2  3  1  0  0  0  0
  3  7  1  0  0  0  0
  3  4  2  0  0  0  0
  5  4  1  0  0  0  0
  5  8  1  0  0  0  0
  6  5  2  0  0  0  0
  9 10  1  0  0  0  0
 10 11  2  0  0  0  0
 12 10  1  0  0  0  0
 12  1  1  0  0  0  0
 13 12  1  0  0  0  0
 14 15  1  0  0  0  0
 14  2  1  0  0  0  0
M  END
>  <minimizedAffinity>
-3.24582767

$$$$

 OpenBabel03252507403D

 15 15  0  0  0  0  0  0  0  0999 V2000
   36.7830   28.9500   41.3430 C   0  0  0  0  0  0  0  0  0  0  0  0
   36.8540   29.8250   40.2530 C   0  0  0  0  0  0  0  0  0  0  0  0
   36.7420   29.2700   38.9800 C   0  0  0  0  0  0  0  0  0  0  0  0
   36.5720   27.9250   38.8590 N   0  0  0  0  0  0  0  0  0  0  0  0
   36.5120   27.1280   39.9480 C   0  0  0  0  0  0  0  0  0  0  0  0
   36.6150   27.6210   41.2040 N   0  0  0  0  0  0  0  0  0  0  0  0
   36.7930   29.9290   38.1230 H   0  0  0  0  0  0  0  0  0  0  0  0
   36.3770   26.0570   39.8630 H   0  0  0  0  0  0  0  0  0  0  0  0
   37.8900   29.0920   44.6200 H   0  0  0  0  0  0  0  0  0  0  0  0
   37.7340   28.7840   43.5840 C   0  0  0  0  0  0  0  0  0  0  0  0
   38.4030   27.7340   43.3130 O   0  0  0  0  0  0  0  0  0  0  0  0
   36.8920   29.4680   42.6650 N   0  0  0  0  0  0  0  0  0  0  0  0
   36.3820   30.3220   42.9800 H   0  0  0  0  0  0  0  0  0  0  0  0
   37.0770   31.5850   40.4750 S   0  0  0  0  0  0  0  0  0  0  0  0
   38.3010   32.0520   40.0130 H   0  0  0  0  0  0  0  0  0  0  0  0
  1 12  1  0  0  0  0
  2 14  1  0  0  0  0
  2  1  2  0  0  0  0
  3  2  1  0  0  0  0
  4  3  2  0  0  0  0
  4  5  1  0  0  0  0
  5  6  2  0  0  0  0
  6  1  1  0  0  0  0
  7  3  1  0  0  0  0
  8  5  1  0  0  0  0
 10  9  1  0  0  0  0
 11 10  2  0  0  0  0
 12 13  1  0  0  0  0
 12 10  1  0  0  0  0
 15 14  1  0  0  0  0
M  END
>  <minimizedAffinity>
-3.18360639

$$$$

 OpenBabel03252507403D

 15 15  0  0  0  0  0  0  0  0999 V2000
   36.6630   28.1810   41.6240 C   0  0  0  0  0  0  0  0  0  0  0  0
   37.1850   26.9570   41.1870 C   0  0  0  0  0  0  0  0  0  0  0  0
   38.1280   26.3370   42.0040 C   0  0  0  0  0  0  0  0  0  0  0  0
   38.4900   26.9410   43.1700 N   0  0  0  0  0  0  0  0  0  0  0  0
   37.9530   28.1230   43.5410 C   0  0  0  0  0  0  0  0  0  0  0  0
   37.0340   28.7630   42.7810 N   0  0  0  0  0  0  0  0  0  0  0  0
   38.5440   25.3910   41.6850 H   0  0  0  0  0  0  0  0  0  0  0  0
   38.2340   28.6120   44.4650 H   0  0  0  0  0  0  0  0  0  0  0  0
   35.1710   30.8680   40.0310 H   0  0  0  0  0  0  0  0  0  0  0  0
   35.8530   30.2540   40.6240 C   0  0  0  0  0  0  0  0  0  0  0  0
   36.7990   30.9560   41.1090 O   0  0  0  0  0  0  0  0  0  0  0  0
   35.6960   28.8540   40.8250 N   0  0  0  0  0  0  0  0  0  0  0  0
   34.8860   28.3640   40.3860 H   0  0  0  0  0  0  0  0  0  0  0  0
   36.6690   26.2140   39.6460 S   0  0  0  0  0  0  0  0  0  0  0  0
   37.6740   26.1690   38.6880 H   0  0  0  0  0  0  0  0  0  0  0  0
  1  6  1  0  0  0  0
  2  1  2  0  0  0  0
  2  3  1  0  0  0  0
  3  4  2  0  0  0  0
  4  5  1  0  0  0  0
  5  8  1  0  0  0  0
  6  5  2  0  0  0  0
  7  3  1  0  0  0  0
  9 10  1  0  0  0  0
 10 12  1  0  0  0  0
 10 11  2  0  0  0  0
 12  1  1  0  0  0  0
 13 12  1  0  0  0  0
 14  2  1  0  0  0  0
 15 14  1  0  0  0  0
M  END
>  <minimizedAffinity>
-3.15360904

$$$$

 OpenBabel03252507403D

 15 15  0  0  0  0  0  0  0  0999 V2000
   37.4810   27.1750   41.5060 C   0  0  0  0  0  0  0  0  0  0  0  0
   36.8770   28.4390   41.5340 C   0  0  0  0  0  0  0  0  0  0  0  0
   37.3530   29.3540   42.4700 C   0  0  0  0  0  0  0  0  0  0  0  0
   38.3670   28.9820   43.3000 N   0  0  0  0  0  0  0  0  0  0  0  0
   38.9110   27.7480   43.2300 C   0  0  0  0  0  0  0  0  0  0  0  0
   38.4820   26.8260   42.3370 N   0  0  0  0  0  0  0  0  0  0  0  0
   36.9010   30.3360   42.5080 H   0  0  0  0  0  0  0  0  0  0  0  0
   39.7160   27.4420   43.8850 H   0  0  0  0  0  0  0  0  0  0  0  0
   36.4810   24.0530   40.3950 H   0  0  0  0  0  0  0  0  0  0  0  0
   36.8230   24.8750   41.0280 C   0  0  0  0  0  0  0  0  0  0  0  0
   37.0120   24.4830   42.2260 O   0  0  0  0  0  0  0  0  0  0  0  0
   37.0300   26.2050   40.5680 N   0  0  0  0  0  0  0  0  0  0  0  0
   36.8490   26.4310   39.5660 H   0  0  0  0  0  0  0  0  0  0  0  0
   35.5500   28.8690   40.4160 S   0  0  0  0  0  0  0  0  0  0  0  0
   34.3310   29.0630   41.0520 H   0  0  0  0  0  0  0  0  0  0  0  0
  1  2  2  0  0  0  0
  1  6  1  0  0  0  0
  2  3  1  0  0  0  0
  3  7  1  0  0  0  0
  3  4  2  0  0  0  0
  5  4  1  0  0  0  0
  5  8  1  0  0  0  0
  6  5  2  0  0  0  0
  9 10  1  0  0  0  0
 10 11  2  0  0  0  0
 12 10  1  0  0  0  0
 12  1  1  0  0  0  0
 13 12  1  0  0  0  0
 14 15  1  0  0  0  0
 14  2  1  0  0  0  0
M  END
>  <minimizedAffinity>
-3.08327651

$$$$

 OpenBabel03252507403D

 15 15  0  0  0  0  0  0  0  0999 V2000
   39.2870   27.0950   43.3610 C   0  0  0  0  0  0  0  0  0  0  0  0
   39.9420   28.2840   43.0180 C   0  0  0  0  0  0  0  0  0  0  0  0
   39.1470   29.3870   42.7140 C   0  0  0  0  0  0  0  0  0  0  0  0
   37.7920   29.2570   42.7650 N   0  0  0  0  0  0  0  0  0  0  0  0
   37.2150   28.0840   43.1020 C   0  0  0  0  0  0  0  0  0  0  0  0
   37.9450   26.9860   43.4050 N   0  0  0  0  0  0  0  0  0  0  0  0
   39.6330   30.3160   42.4480 H   0  0  0  0  0  0  0  0  0  0  0  0
   36.1390   27.9700   43.1450 H   0  0  0  0  0  0  0  0  0  0  0  0
   40.1760   23.7500   43.2890 H   0  0  0  0  0  0  0  0  0  0  0  0
   39.6610   24.6970   43.1120 C   0  0  0  0  0  0  0  0  0  0  0  0
   38.6640   24.5370   42.3350 O   0  0  0  0  0  0  0  0  0  0  0  0
   40.0560   25.9390   43.6790 N   0  0  0  0  0  0  0  0  0  0  0  0
   40.8880   25.9710   44.3070 H   0  0  0  0  0  0  0  0  0  0  0  0
   41.7260   28.3930   42.9700 S   0  0  0  0  0  0  0  0  0  0  0  0
   42.2360   28.5840   41.6920 H   0  0  0  0  0  0  0  0  0  0  0  0
  1  6  1  0  0  0  0
  1 12  1  0  0  0  0
  2  1  2  0  0  0  0
  3  4  2  0  0  0  0
  3  2  1  0  0  0  0
  4  5  1  0  0  0  0
  5  8  1  0  0  0  0
  5  6  2  0  0  0  0
  7  3  1  0  0  0  0
 10  9  1  0  0  0  0
 10 12  1  0  0  0  0
 11 10  2  0  0  0  0
 12 13  1  0  0  0  0
 14  2  1  0  0  0  0
 15 14  1  0  0  0  0
M  END
>  <minimizedAffinity>
-3.0799787

$$$$
