
 OpenBabel03252509223D

 23 24  0  0  1  0  0  0  0  0999 V2000
   46.2930   34.8060   42.0360 C   0  0  1  0  0  0  0  0  0  0  0  0
   47.7980   35.1370   41.9450 C   0  0  0  0  0  0  0  0  0  0  0  0
   47.1290   33.7870   41.5200 C   0  0  2  0  0  0  0  0  0  0  0  0
   45.6660   35.4820   41.4260 H   0  0  0  0  0  0  0  0  0  0  0  0
   48.1170   35.7830   41.1300 H   0  0  0  0  0  0  0  0  0  0  0  0
   48.4170   35.1480   42.8320 H   0  0  0  0  0  0  0  0  0  0  0  0
   47.4740   32.9410   42.1840 H   0  0  0  0  0  0  0  0  0  0  0  0
   44.5860   35.5070   45.3170 C   0  0  0  0  0  0  0  0  0  0  0  0
   45.0160   35.6980   43.9780 C   0  0  0  0  0  0  0  0  0  0  0  0
   45.8600   34.7370   43.4800 C   0  0  0  0  0  0  0  0  0  0  0  0
   46.2540   33.6620   44.2570 N   0  0  0  0  0  0  0  0  0  0  0  0
   45.8170   33.5260   45.5250 C   0  0  0  0  0  0  0  0  0  0  0  0
   44.9790   34.4570   46.0540 N   0  0  0  0  0  0  0  0  0  0  0  0
   43.9210   36.2690   45.7030 H   0  0  0  0  0  0  0  0  0  0  0  0
   46.1160   32.6930   46.1430 H   0  0  0  0  0  0  0  0  0  0  0  0
   44.6420   36.8230   43.1880 N   0  0  0  0  0  0  0  0  0  0  0  0
   45.1340   37.6000   43.6970 H   0  0  0  0  0  0  0  0  0  0  0  0
   44.0450   36.8310   42.3470 H   0  0  0  0  0  0  0  0  0  0  0  0
   48.0930   33.8780   38.2180 H   0  0  0  0  0  0  0  0  0  0  0  0
   48.0840   34.2590   39.2270 C   0  0  0  0  0  0  0  0  0  0  0  0
   48.6920   35.2850   39.6250 O   0  0  0  0  0  0  0  0  0  0  0  0
   47.2830   33.4610   40.1220 N   0  0  0  0  0  0  0  0  0  0  0  0
   46.7690   32.5970   39.7950 H   0  0  0  0  0  0  0  0  0  0  0  0
  1  4  1  6  0  0  0
  1 10  1  0  0  0  0
  2  1  1  0  0  0  0
  2  6  1  0  0  0  0
  3  2  1  0  0  0  0
  3  1  1  0  0  0  0
  3  7  1  1  0  0  0
  5  2  1  0  0  0  0
  8 14  1  0  0  0  0
  8 13  1  0  0  0  0
  9  8  2  0  0  0  0
 10  9  1  0  0  0  0
 10 11  2  0  0  0  0
 11 12  1  0  0  0  0
 12 13  2  0  0  0  0
 12 15  1  0  0  0  0
 16 17  1  0  0  0  0
 16  9  1  0  0  0  0
 18 16  1  0  0  0  0
 19 20  1  0  0  0  0
 20 21  2  0  0  0  0
 20 22  1  0  0  0  0
 22  3  1  0  0  0  0
 23 22  1  0  0  0  0
M  END
>  <minimizedAffinity>
-4.29393387

>  <minimizedRMSD>
0.38800478

$$$$
