
 OpenBabel03252509203D

 21 22  0  0  0  0  0  0  0  0999 V2000
   44.7240   35.0240   44.7320 C   0  0  0  0  0  0  0  0  0  0  0  0
   45.2290   35.2680   43.4140 C   0  0  0  0  0  0  0  0  0  0  0  0
   46.4100   34.5970   43.1180 C   0  0  0  0  0  0  0  0  0  0  0  0
   47.0260   33.7660   44.0430 N   0  0  0  0  0  0  0  0  0  0  0  0
   46.5060   33.5800   45.2530 C   0  0  0  0  0  0  0  0  0  0  0  0
   45.3560   34.2070   45.6030 N   0  0  0  0  0  0  0  0  0  0  0  0
   43.8080   35.5150   45.0290 H   0  0  0  0  0  0  0  0  0  0  0  0
   47.1170   32.9120   45.8200 H   0  0  0  0  0  0  0  0  0  0  0  0
   46.9390   34.7490   41.7080 C   0  0  0  0  0  0  0  0  0  0  0  0
   48.3100   35.4450   41.7260 C   0  0  0  0  0  0  0  0  0  0  0  0
   48.0910   33.9520   41.3560 C   0  0  0  0  0  0  0  0  0  0  0  0
   46.2770   35.3470   41.0510 H   0  0  0  0  0  0  0  0  0  0  0  0
   48.5880   36.0640   40.8580 H   0  0  0  0  0  0  0  0  0  0  0  0
   48.7870   35.6720   42.6740 H   0  0  0  0  0  0  0  0  0  0  0  0
   48.2850   33.6750   40.2970 H   0  0  0  0  0  0  0  0  0  0  0  0
   48.5040   33.2630   42.1330 H   0  0  0  0  0  0  0  0  0  0  0  0
   43.3080   36.7180   41.0380 H   0  0  0  0  0  0  0  0  0  0  0  0
   43.5590   35.7980   41.5800 C   0  0  0  0  0  0  0  0  0  0  0  0
   43.1110   34.6220   41.5080 O   0  0  0  0  0  0  0  0  0  0  0  0
   44.5840   36.1100   42.5030 N   0  0  0  0  0  0  0  0  0  0  0  0
   45.0660   37.0120   42.6990 H   0  0  0  0  0  0  0  0  0  0  0  0
  1  7  1  0  0  0  0
  1  6  1  0  0  0  0
  2  1  2  0  0  0  0
  3  2  1  0  0  0  0
  3  4  2  0  0  0  0
  4  5  1  0  0  0  0
  5  6  2  0  0  0  0
  5  8  1  0  0  0  0
  9 10  1  0  0  0  0
  9  3  1  0  0  0  0
 10 14  1  0  0  0  0
 11  9  1  0  0  0  0
 11 10  1  0  0  0  0
 11 16  1  0  0  0  0
 12  9  1  0  0  0  0
 13 10  1  0  0  0  0
 15 11  1  0  0  0  0
 17 18  1  0  0  0  0
 18 20  1  0  0  0  0
 19 18  2  0  0  0  0
 20 21  1  0  0  0  0
 20  2  1  0  0  0  0
M  END
>  <minimizedAffinity>
-3.86519194

>  <minimizedRMSD>
1.15758026

$$$$
