
 OpenBabel03252509223D

 23 24  0  0  1  0  0  0  0  0999 V2000
   46.5630   35.0750   41.9170 C   0  0  1  0  0  0  0  0  0  0  0  0
   48.0990   35.2120   41.8910 C   0  0  0  0  0  0  0  0  0  0  0  0
   47.2730   34.0350   41.2700 C   0  0  2  0  0  0  0  0  0  0  0  0
   46.0470   35.9070   41.4010 H   0  0  0  0  0  0  0  0  0  0  0  0
   48.5240   35.9170   41.1800 H   0  0  0  0  0  0  0  0  0  0  0  0
   48.6870   35.0160   42.7770 H   0  0  0  0  0  0  0  0  0  0  0  0
   47.4850   33.0670   41.8110 H   0  0  0  0  0  0  0  0  0  0  0  0
   44.6590   35.3710   45.1500 C   0  0  0  0  0  0  0  0  0  0  0  0
   45.1200   35.6960   43.8480 C   0  0  0  0  0  0  0  0  0  0  0  0
   46.0800   34.8640   43.3310 C   0  0  0  0  0  0  0  0  0  0  0  0
   46.5540   33.7850   44.0570 N   0  0  0  0  0  0  0  0  0  0  0  0
   46.0840   33.5190   45.2900 C   0  0  0  0  0  0  0  0  0  0  0  0
   45.1300   34.3200   45.8370 N   0  0  0  0  0  0  0  0  0  0  0  0
   43.9010   36.0320   45.5520 H   0  0  0  0  0  0  0  0  0  0  0  0
   46.4440   32.6810   45.8680 H   0  0  0  0  0  0  0  0  0  0  0  0
   44.6610   36.8280   43.1130 N   0  0  0  0  0  0  0  0  0  0  0  0
   45.0470   37.6150   43.6940 H   0  0  0  0  0  0  0  0  0  0  0  0
   44.1000   36.8310   42.2480 H   0  0  0  0  0  0  0  0  0  0  0  0
   46.7130   33.1940   37.9820 H   0  0  0  0  0  0  0  0  0  0  0  0
   46.4470   33.2140   39.0250 C   0  0  0  0  0  0  0  0  0  0  0  0
   45.4060   32.7150   39.5250 O   0  0  0  0  0  0  0  0  0  0  0  0
   47.4250   33.8910   39.8410 N   0  0  0  0  0  0  0  0  0  0  0  0
   48.3030   34.3140   39.4310 H   0  0  0  0  0  0  0  0  0  0  0  0
  1  4  1  6  0  0  0
  1 10  1  0  0  0  0
  2  1  1  0  0  0  0
  2  6  1  0  0  0  0
  3  7  1  1  0  0  0
  3  2  1  0  0  0  0
  3  1  1  0  0  0  0
  5  2  1  0  0  0  0
  8 14  1  0  0  0  0
  8 13  1  0  0  0  0
  9  8  2  0  0  0  0
 10  9  1  0  0  0  0
 10 11  2  0  0  0  0
 11 12  1  0  0  0  0
 12 13  2  0  0  0  0
 12 15  1  0  0  0  0
 16 17  1  0  0  0  0
 16  9  1  0  0  0  0
 18 16  1  0  0  0  0
 19 20  1  0  0  0  0
 20 21  2  0  0  0  0
 20 22  1  0  0  0  0
 22  3  1  0  0  0  0
 23 22  1  0  0  0  0
M  END
>  <minimizedAffinity>
-4.20955276

>  <minimizedRMSD>
0.393566847

$$$$
