
 OpenBabel03252509223D

 23 24  0  0  1  0  0  0  0  0999 V2000
   46.4980   35.1450   41.9970 C   0  0  1  0  0  0  0  0  0  0  0  0
   48.0270   35.3090   41.8700 C   0  0  0  0  0  0  0  0  0  0  0  0
   47.1670   34.1860   41.1990 C   0  0  2  0  0  0  0  0  0  0  0  0
   45.9370   36.0150   41.6060 H   0  0  0  0  0  0  0  0  0  0  0  0
   48.3910   36.0870   41.2030 H   0  0  0  0  0  0  0  0  0  0  0  0
   48.6810   35.0360   42.6870 H   0  0  0  0  0  0  0  0  0  0  0  0
   47.4270   33.1720   41.6240 H   0  0  0  0  0  0  0  0  0  0  0  0
   44.7940   35.0430   45.3510 C   0  0  0  0  0  0  0  0  0  0  0  0
   45.1440   35.5030   44.0550 C   0  0  0  0  0  0  0  0  0  0  0  0
   46.1250   34.7880   43.4140 C   0  0  0  0  0  0  0  0  0  0  0  0
   46.7200   33.6940   44.0190 N   0  0  0  0  0  0  0  0  0  0  0  0
   46.3510   33.2980   45.2520 C   0  0  0  0  0  0  0  0  0  0  0  0
   45.3810   33.9800   45.9190 N   0  0  0  0  0  0  0  0  0  0  0  0
   44.0190   35.6110   45.8500 H   0  0  0  0  0  0  0  0  0  0  0  0
   46.8070   32.4470   45.7360 H   0  0  0  0  0  0  0  0  0  0  0  0
   44.5600   36.6510   43.4450 N   0  0  0  0  0  0  0  0  0  0  0  0
   44.9260   37.4160   44.0650 H   0  0  0  0  0  0  0  0  0  0  0  0
   43.9450   36.6790   42.6180 H   0  0  0  0  0  0  0  0  0  0  0  0
   48.0420   33.4870   37.9460 H   0  0  0  0  0  0  0  0  0  0  0  0
   48.1410   33.3700   39.0130 C   0  0  0  0  0  0  0  0  0  0  0  0
   48.9630   32.6140   39.5930 O   0  0  0  0  0  0  0  0  0  0  0  0
   47.2120   34.1850   39.7560 N   0  0  0  0  0  0  0  0  0  0  0  0
   46.5180   34.8230   39.2770 H   0  0  0  0  0  0  0  0  0  0  0  0
  1  4  1  6  0  0  0
  1 10  1  0  0  0  0
  2  1  1  0  0  0  0
  2  6  1  0  0  0  0
  3  7  1  1  0  0  0
  3  2  1  0  0  0  0
  3  1  1  0  0  0  0
  5  2  1  0  0  0  0
  8 14  1  0  0  0  0
  8 13  1  0  0  0  0
  9  8  2  0  0  0  0
 10 11  2  0  0  0  0
 10  9  1  0  0  0  0
 11 12  1  0  0  0  0
 12 15  1  0  0  0  0
 12 13  2  0  0  0  0
 16  9  1  0  0  0  0
 16 17  1  0  0  0  0
 18 16  1  0  0  0  0
 19 20  1  0  0  0  0
 20 21  2  0  0  0  0
 20 22  1  0  0  0  0
 22  3  1  0  0  0  0
 23 22  1  0  0  0  0
M  END
>  <minimizedAffinity>
-4.38210392

>  <minimizedRMSD>
0.757657051

$$$$
