
 OpenBabel03252509253D

 23 24  0  0  1  0  0  0  0  0999 V2000
   36.2500   30.3510   40.9140 C   0  0  1  0  0  0  0  0  0  0  0  0
   35.6280   28.9390   40.9180 C   0  0  0  0  0  0  0  0  0  0  0  0
   36.9700   29.3520   41.6120 C   0  0  2  0  0  0  0  0  0  0  0  0
   35.5990   31.1100   41.3860 H   0  0  0  0  0  0  0  0  0  0  0  0
   34.7850   28.7680   41.5840 H   0  0  0  0  0  0  0  0  0  0  0  0
   35.6760   28.3110   40.0380 H   0  0  0  0  0  0  0  0  0  0  0  0
   37.8490   28.8360   41.1240 H   0  0  0  0  0  0  0  0  0  0  0  0
   37.5640   32.2580   37.9460 C   0  0  0  0  0  0  0  0  0  0  0  0
   37.0870   32.0130   39.2610 C   0  0  0  0  0  0  0  0  0  0  0  0
   36.6840   30.7270   39.5190 C   0  0  0  0  0  0  0  0  0  0  0  0
   36.7470   29.7510   38.5400 N   0  0  0  0  0  0  0  0  0  0  0  0
   37.2080   30.0340   37.3060 C   0  0  0  0  0  0  0  0  0  0  0  0
   37.6180   31.2970   37.0120 N   0  0  0  0  0  0  0  0  0  0  0  0
   37.8810   33.2750   37.7500 H   0  0  0  0  0  0  0  0  0  0  0  0
   37.2630   29.2830   36.5330 H   0  0  0  0  0  0  0  0  0  0  0  0
   36.9860   33.0250   40.2590 N   0  0  0  0  0  0  0  0  0  0  0  0
   36.2320   33.6340   39.8530 H   0  0  0  0  0  0  0  0  0  0  0  0
   37.5280   33.1030   41.1320 H   0  0  0  0  0  0  0  0  0  0  0  0
   37.5180   28.0630   44.7540 H   0  0  0  0  0  0  0  0  0  0  0  0
   37.6030   28.0410   43.6800 C   0  0  0  0  0  0  0  0  0  0  0  0
   38.1770   27.1450   43.0080 O   0  0  0  0  0  0  0  0  0  0  0  0
   36.9770   29.1750   43.0450 N   0  0  0  0  0  0  0  0  0  0  0  0
   36.4930   29.9330   43.6000 H   0  0  0  0  0  0  0  0  0  0  0  0
  1  2  1  0  0  0  0
  1  4  1  1  0  0  0
  1  3  1  0  0  0  0
  2  5  1  0  0  0  0
  2  3  1  0  0  0  0
  3  7  1  6  0  0  0
  3 22  1  0  0  0  0
  6  2  1  0  0  0  0
  8  9  1  0  0  0  0
  9 10  2  0  0  0  0
  9 16  1  0  0  0  0
 10  1  1  0  0  0  0
 11 10  1  0  0  0  0
 12 11  2  0  0  0  0
 13 12  1  0  0  0  0
 13  8  2  0  0  0  0
 14  8  1  0  0  0  0
 15 12  1  0  0  0  0
 16 18  1  0  0  0  0
 17 16  1  0  0  0  0
 20 19  1  0  0  0  0
 21 20  2  0  0  0  0
 22 23  1  0  0  0  0
 22 20  1  0  0  0  0
M  END
>  <minimizedAffinity>
-4.54924965

$$$$

 OpenBabel03252509253D

 23 24  0  0  1  0  0  0  0  0999 V2000
   37.1940   26.7560   42.3560 C   0  0  1  0  0  0  0  0  0  0  0  0
   36.3930   27.3510   43.5320 C   0  0  0  0  0  0  0  0  0  0  0  0
   36.9210   28.1430   42.2890 C   0  0  2  0  0  0  0  0  0  0  0  0
   36.6380   25.9720   41.8080 H   0  0  0  0  0  0  0  0  0  0  0  0
   35.3220   27.1620   43.5520 H   0  0  0  0  0  0  0  0  0  0  0  0
   36.8640   27.5250   44.4910 H   0  0  0  0  0  0  0  0  0  0  0  0
   37.7060   28.8940   42.5960 H   0  0  0  0  0  0  0  0  0  0  0  0
   40.2380   24.6570   43.0630 C   0  0  0  0  0  0  0  0  0  0  0  0
   38.9110   24.9820   42.6780 C   0  0  0  0  0  0  0  0  0  0  0  0
   38.5530   26.2980   42.8270 C   0  0  0  0  0  0  0  0  0  0  0  0
   39.4480   27.2280   43.3270 N   0  0  0  0  0  0  0  0  0  0  0  0
   40.6970   26.8690   43.6790 C   0  0  0  0  0  0  0  0  0  0  0  0
   41.0900   25.5740   43.5440 N   0  0  0  0  0  0  0  0  0  0  0  0
   40.5140   23.6170   42.9420 H   0  0  0  0  0  0  0  0  0  0  0  0
   41.4060   27.5830   44.0710 H   0  0  0  0  0  0  0  0  0  0  0  0
   37.9760   24.0190   42.1980 N   0  0  0  0  0  0  0  0  0  0  0  0
   37.8260   23.4370   43.0590 H   0  0  0  0  0  0  0  0  0  0  0  0
   37.5780   23.9480   41.2490 H   0  0  0  0  0  0  0  0  0  0  0  0
   35.1560   30.3770   40.3580 H   0  0  0  0  0  0  0  0  0  0  0  0
   36.0190   30.0740   40.9280 C   0  0  0  0  0  0  0  0  0  0  0  0
   37.0550   30.7640   41.1120 O   0  0  0  0  0  0  0  0  0  0  0  0
   35.8850   28.7520   41.4890 N   0  0  0  0  0  0  0  0  0  0  0  0
   35.0180   28.1640   41.3400 H   0  0  0  0  0  0  0  0  0  0  0  0
  1  4  1  6  0  0  0
  1 10  1  0  0  0  0
  1  2  1  0  0  0  0
  2  5  1  0  0  0  0
  2  6  1  0  0  0  0
  3  1  1  0  0  0  0
  3  7  1  1  0  0  0
  3  2  1  0  0  0  0
  8 13  1  0  0  0  0
  9 10  1  0  0  0  0
  9  8  2  0  0  0  0
 10 11  2  0  0  0  0
 11 12  1  0  0  0  0
 12 15  1  0  0  0  0
 13 12  2  0  0  0  0
 14  8  1  0  0  0  0
 16  9  1  0  0  0  0
 16 17  1  0  0  0  0
 18 16  1  0  0  0  0
 19 20  1  0  0  0  0
 20 21  2  0  0  0  0
 20 22  1  0  0  0  0
 22  3  1  0  0  0  0
 23 22  1  0  0  0  0
M  END
>  <minimizedAffinity>
-4.32583427

$$$$

 OpenBabel03252509253D

 23 24  0  0  1  0  0  0  0  0999 V2000
   37.3740   30.8590   41.0900 C   0  0  1  0  0  0  0  0  0  0  0  0
   37.5480   29.5680   40.2620 C   0  0  0  0  0  0  0  0  0  0  0  0
   37.6330   29.6750   41.8220 C   0  0  2  0  0  0  0  0  0  0  0  0
   36.3760   31.3210   40.9640 H   0  0  0  0  0  0  0  0  0  0  0  0
   36.6460   29.1030   39.8700 H   0  0  0  0  0  0  0  0  0  0  0  0
   38.4590   29.3850   39.7080 H   0  0  0  0  0  0  0  0  0  0  0  0
   38.6780   29.4460   42.1830 H   0  0  0  0  0  0  0  0  0  0  0  0
   39.3500   33.9250   40.1650 C   0  0  0  0  0  0  0  0  0  0  0  0
   38.2350   33.0590   40.3080 C   0  0  0  0  0  0  0  0  0  0  0  0
   38.5090   31.8140   40.8150 C   0  0  0  0  0  0  0  0  0  0  0  0
   39.8000   31.4500   41.1530 N   0  0  0  0  0  0  0  0  0  0  0  0
   40.8260   32.3100   40.9970 C   0  0  0  0  0  0  0  0  0  0  0  0
   40.5940   33.5540   40.5000 N   0  0  0  0  0  0  0  0  0  0  0  0
   39.1270   34.9070   39.7650 H   0  0  0  0  0  0  0  0  0  0  0  0
   41.8390   32.0400   41.2570 H   0  0  0  0  0  0  0  0  0  0  0  0
   36.9090   33.4180   39.9260 N   0  0  0  0  0  0  0  0  0  0  0  0
   37.0120   33.4850   38.8820 H   0  0  0  0  0  0  0  0  0  0  0  0
   36.0950   33.5640   40.5410 H   0  0  0  0  0  0  0  0  0  0  0  0
   36.1430   27.3610   43.8860 H   0  0  0  0  0  0  0  0  0  0  0  0
   37.0010   27.8430   43.4460 C   0  0  0  0  0  0  0  0  0  0  0  0
   38.2030   27.5530   43.6790 O   0  0  0  0  0  0  0  0  0  0  0  0
   36.6440   28.8940   42.5260 N   0  0  0  0  0  0  0  0  0  0  0  0
   35.6360   29.1450   42.3240 H   0  0  0  0  0  0  0  0  0  0  0  0
  1  4  1  1  0  0  0
  1  3  1  0  0  0  0
  2  1  1  0  0  0  0
  2  3  1  0  0  0  0
  3  7  1  1  0  0  0
  3 22  1  0  0  0  0
  5  2  1  0  0  0  0
  6  2  1  0  0  0  0
  8  9  2  0  0  0  0
  8 13  1  0  0  0  0
  9 10  1  0  0  0  0
 10  1  1  0  0  0  0
 10 11  2  0  0  0  0
 12 11  1  0  0  0  0
 12 15  1  0  0  0  0
 13 12  2  0  0  0  0
 14  8  1  0  0  0  0
 16  9  1  0  0  0  0
 16 18  1  0  0  0  0
 17 16  1  0  0  0  0
 20 21  2  0  0  0  0
 20 19  1  0  0  0  0
 22 20  1  0  0  0  0
 23 22  1  0  0  0  0
M  END
>  <minimizedAffinity>
-4.21325827

$$$$

 OpenBabel03252509253D

 23 24  0  0  1  0  0  0  0  0999 V2000
   37.3100   28.2300   42.3120 C   0  0  1  0  0  0  0  0  0  0  0  0
   36.5590   27.3990   43.3720 C   0  0  0  0  0  0  0  0  0  0  0  0
   37.9410   27.0350   42.7330 C   0  0  2  0  0  0  0  0  0  0  0  0
   37.5720   29.2450   42.6660 H   0  0  0  0  0  0  0  0  0  0  0  0
   36.5930   27.7550   44.4000 H   0  0  0  0  0  0  0  0  0  0  0  0
   35.6950   26.8070   43.1010 H   0  0  0  0  0  0  0  0  0  0  0  0
   37.8610   26.0970   42.1090 H   0  0  0  0  0  0  0  0  0  0  0  0
   35.2590   29.3190   39.3490 C   0  0  0  0  0  0  0  0  0  0  0  0
   35.8770   29.3710   40.6260 C   0  0  0  0  0  0  0  0  0  0  0  0
   36.5430   28.2350   41.0120 C   0  0  0  0  0  0  0  0  0  0  0  0
   36.5910   27.1220   40.1910 N   0  0  0  0  0  0  0  0  0  0  0  0
   35.9870   27.1230   38.9870 C   0  0  0  0  0  0  0  0  0  0  0  0
   35.3170   28.2310   38.5680 N   0  0  0  0  0  0  0  0  0  0  0  0
   34.7350   30.2180   39.0510 H   0  0  0  0  0  0  0  0  0  0  0  0
   36.0150   26.2630   38.3350 H   0  0  0  0  0  0  0  0  0  0  0  0
   35.7980   30.5020   41.4900 N   0  0  0  0  0  0  0  0  0  0  0  0
   34.7760   30.4990   41.7330 H   0  0  0  0  0  0  0  0  0  0  0  0
   36.5640   31.1300   41.7750 H   0  0  0  0  0  0  0  0  0  0  0  0
   40.7210   25.9550   44.4480 H   0  0  0  0  0  0  0  0  0  0  0  0
   39.9710   25.8610   43.6800 C   0  0  0  0  0  0  0  0  0  0  0  0
   39.8860   24.9180   42.8510 O   0  0  0  0  0  0  0  0  0  0  0  0
   39.0310   26.9540   43.6780 N   0  0  0  0  0  0  0  0  0  0  0  0
   39.0940   27.7510   44.3700 H   0  0  0  0  0  0  0  0  0  0  0  0
  1  4  1  1  0  0  0
  1  3  1  0  0  0  0
  1  2  1  0  0  0  0
  2  5  1  0  0  0  0
  3  7  1  6  0  0  0
  3  2  1  0  0  0  0
  3 22  1  0  0  0  0
  6  2  1  0  0  0  0
  8  9  1  0  0  0  0
  9 10  2  0  0  0  0
  9 16  1  0  0  0  0
 10  1  1  0  0  0  0
 11 10  1  0  0  0  0
 12 11  2  0  0  0  0
 13 12  1  0  0  0  0
 13  8  2  0  0  0  0
 14  8  1  0  0  0  0
 15 12  1  0  0  0  0
 16 17  1  0  0  0  0
 16 18  1  0  0  0  0
 20 19  1  0  0  0  0
 21 20  2  0  0  0  0
 22 20  1  0  0  0  0
 22 23  1  0  0  0  0
M  END
>  <minimizedAffinity>
-4.11435509

$$$$

 OpenBabel03252509253D

 23 24  0  0  1  0  0  0  0  0999 V2000
   39.3110   30.5900   42.8150 C   0  0  1  0  0  0  0  0  0  0  0  0
   40.8370   30.5280   42.5940 C   0  0  0  0  0  0  0  0  0  0  0  0
   39.7880   31.1030   41.5840 C   0  0  2  0  0  0  0  0  0  0  0  0
   39.0260   31.2030   43.6900 H   0  0  0  0  0  0  0  0  0  0  0  0
   41.4450   31.2650   43.1140 H   0  0  0  0  0  0  0  0  0  0  0  0
   41.3230   29.5920   42.3540 H   0  0  0  0  0  0  0  0  0  0  0  0
   39.7440   30.4720   40.6480 H   0  0  0  0  0  0  0  0  0  0  0  0
   36.9930   27.6460   42.4470 C   0  0  0  0  0  0  0  0  0  0  0  0
   37.4290   28.9970   42.4670 C   0  0  0  0  0  0  0  0  0  0  0  0
   38.7310   29.1970   42.8530 C   0  0  0  0  0  0  0  0  0  0  0  0
   39.5440   28.1320   43.1980 N   0  0  0  0  0  0  0  0  0  0  0  0
   39.0810   26.8670   43.1620 C   0  0  0  0  0  0  0  0  0  0  0  0
   37.7970   26.6280   42.7840 N   0  0  0  0  0  0  0  0  0  0  0  0
   35.9650   27.4960   42.1410 H   0  0  0  0  0  0  0  0  0  0  0  0
   39.7040   26.0260   43.4290 H   0  0  0  0  0  0  0  0  0  0  0  0
   36.5840   30.0990   42.1480 N   0  0  0  0  0  0  0  0  0  0  0  0
   35.9030   30.0690   42.9480 H   0  0  0  0  0  0  0  0  0  0  0  0
   36.6550   30.7330   41.3380 H   0  0  0  0  0  0  0  0  0  0  0  0
   39.1930   34.3420   40.5910 H   0  0  0  0  0  0  0  0  0  0  0  0
   38.8930   33.3220   40.7680 C   0  0  0  0  0  0  0  0  0  0  0  0
   37.7420   32.8530   40.5690 O   0  0  0  0  0  0  0  0  0  0  0  0
   39.9640   32.5020   41.2750 N   0  0  0  0  0  0  0  0  0  0  0  0
   40.9340   32.8870   41.4460 H   0  0  0  0  0  0  0  0  0  0  0  0
  1 10  1  0  0  0  0
  1  4  1  1  0  0  0
  2  1  1  0  0  0  0
  2  5  1  0  0  0  0
  3  7  1  6  0  0  0
  3  2  1  0  0  0  0
  3  1  1  0  0  0  0
  6  2  1  0  0  0  0
  8  9  2  0  0  0  0
  8 13  1  0  0  0  0
  9 10  1  0  0  0  0
 10 11  2  0  0  0  0
 12 11  1  0  0  0  0
 12 15  1  0  0  0  0
 13 12  2  0  0  0  0
 14  8  1  0  0  0  0
 16  9  1  0  0  0  0
 16 17  1  0  0  0  0
 18 16  1  0  0  0  0
 19 20  1  0  0  0  0
 20 22  1  0  0  0  0
 21 20  2  0  0  0  0
 22 23  1  0  0  0  0
 22  3  1  0  0  0  0
M  END
>  <minimizedAffinity>
-4.04776907

$$$$

 OpenBabel03252509253D

 23 24  0  0  1  0  0  0  0  0999 V2000
   37.5350   30.4750   40.4210 C   0  0  1  0  0  0  0  0  0  0  0  0
   36.1330   30.5220   39.7800 C   0  0  0  0  0  0  0  0  0  0  0  0
   36.7720   31.6420   40.6670 C   0  0  2  0  0  0  0  0  0  0  0  0
   38.3480   30.3940   39.6750 H   0  0  0  0  0  0  0  0  0  0  0  0
   36.0790   30.7360   38.7150 H   0  0  0  0  0  0  0  0  0  0  0  0
   35.3170   29.9430   40.1910 H   0  0  0  0  0  0  0  0  0  0  0  0
   36.2060   31.7580   41.6370 H   0  0  0  0  0  0  0  0  0  0  0  0
   38.4230   28.5000   43.5000 C   0  0  0  0  0  0  0  0  0  0  0  0
   38.4990   29.5060   42.5020 C   0  0  0  0  0  0  0  0  0  0  0  0
   37.5920   29.4000   41.4780 C   0  0  0  0  0  0  0  0  0  0  0  0
   36.6740   28.3640   41.4440 N   0  0  0  0  0  0  0  0  0  0  0  0
   36.6420   27.4330   42.4170 C   0  0  0  0  0  0  0  0  0  0  0  0
   37.5240   27.5060   43.4500 N   0  0  0  0  0  0  0  0  0  0  0  0
   39.1410   28.5910   44.3050 H   0  0  0  0  0  0  0  0  0  0  0  0
   35.9320   26.6200   42.4040 H   0  0  0  0  0  0  0  0  0  0  0  0
   39.4680   30.5520   42.5150 N   0  0  0  0  0  0  0  0  0  0  0  0
   40.3530   30.0080   42.3570 H   0  0  0  0  0  0  0  0  0  0  0  0
   39.3020   31.5610   42.6470 H   0  0  0  0  0  0  0  0  0  0  0  0
   38.0630   34.6590   39.6350 H   0  0  0  0  0  0  0  0  0  0  0  0
   38.0920   33.7510   40.2150 C   0  0  0  0  0  0  0  0  0  0  0  0
   39.0090   33.4190   41.0110 O   0  0  0  0  0  0  0  0  0  0  0  0
   36.9430   32.9080   39.9950 N   0  0  0  0  0  0  0  0  0  0  0  0
   36.1680   33.1790   39.3290 H   0  0  0  0  0  0  0  0  0  0  0  0
  1  4  1  6  0  0  0
  1  3  1  0  0  0  0
  1 10  1  0  0  0  0
  2  6  1  0  0  0  0
  2  1  1  0  0  0  0
  2  3  1  0  0  0  0
  3  7  1  1  0  0  0
  5  2  1  0  0  0  0
  8 14  1  0  0  0  0
  9 16  1  0  0  0  0
  9  8  2  0  0  0  0
 10  9  1  0  0  0  0
 11 10  2  0  0  0  0
 11 12  1  0  0  0  0
 12 13  2  0  0  0  0
 13  8  1  0  0  0  0
 15 12  1  0  0  0  0
 16 18  1  0  0  0  0
 17 16  1  0  0  0  0
 19 20  1  0  0  0  0
 20 21  2  0  0  0  0
 22 20  1  0  0  0  0
 22  3  1  0  0  0  0
 23 22  1  0  0  0  0
M  END
>  <minimizedAffinity>
-4.01475334

$$$$

 OpenBabel03252509253D

 23 24  0  0  1  0  0  0  0  0999 V2000
   36.1560   28.4840   40.0560 C   0  0  1  0  0  0  0  0  0  0  0  0
   36.5630   27.2560   39.2140 C   0  0  0  0  0  0  0  0  0  0  0  0
   37.1530   27.6460   40.6110 C   0  0  2  0  0  0  0  0  0  0  0  0
   35.0880   28.4750   40.3430 H   0  0  0  0  0  0  0  0  0  0  0  0
   35.8810   26.4080   39.2100 H   0  0  0  0  0  0  0  0  0  0  0  0
   37.1910   27.3670   38.3410 H   0  0  0  0  0  0  0  0  0  0  0  0
   38.2440   27.9220   40.5230 H   0  0  0  0  0  0  0  0  0  0  0  0
   36.9510   32.0900   39.3230 C   0  0  0  0  0  0  0  0  0  0  0  0
   36.4520   30.9550   40.0150 C   0  0  0  0  0  0  0  0  0  0  0  0
   36.5730   29.7560   39.3600 C   0  0  0  0  0  0  0  0  0  0  0  0
   37.1470   29.6860   38.1020 N   0  0  0  0  0  0  0  0  0  0  0  0
   37.6050   30.7930   37.4870 C   0  0  0  0  0  0  0  0  0  0  0  0
   37.5050   32.0000   38.1050 N   0  0  0  0  0  0  0  0  0  0  0  0
   36.8520   33.0320   39.8470 H   0  0  0  0  0  0  0  0  0  0  0  0
   38.0550   30.7540   36.5060 H   0  0  0  0  0  0  0  0  0  0  0  0
   35.8260   31.0300   41.2940 N   0  0  0  0  0  0  0  0  0  0  0  0
   34.9480   31.5560   41.0590 H   0  0  0  0  0  0  0  0  0  0  0  0
   36.1770   30.6540   42.1880 H   0  0  0  0  0  0  0  0  0  0  0  0
   36.7160   26.1550   43.6810 H   0  0  0  0  0  0  0  0  0  0  0  0
   36.8870   27.0070   43.0430 C   0  0  0  0  0  0  0  0  0  0  0  0
   37.0330   28.1950   43.4330 O   0  0  0  0  0  0  0  0  0  0  0  0
   36.9350   26.6610   41.6450 N   0  0  0  0  0  0  0  0  0  0  0  0
   36.8130   25.6660   41.3080 H   0  0  0  0  0  0  0  0  0  0  0  0
  1  4  1  1  0  0  0
  1  3  1  0  0  0  0
  2  1  1  0  0  0  0
  2  3  1  0  0  0  0
  3  7  1  6  0  0  0
  3 22  1  0  0  0  0
  5  2  1  0  0  0  0
  6  2  1  0  0  0  0
  8 14  1  0  0  0  0
  8  9  1  0  0  0  0
  9 16  1  0  0  0  0
 10  9  2  0  0  0  0
 10  1  1  0  0  0  0
 11 10  1  0  0  0  0
 12 11  2  0  0  0  0
 12 13  1  0  0  0  0
 13  8  2  0  0  0  0
 15 12  1  0  0  0  0
 16 18  1  0  0  0  0
 17 16  1  0  0  0  0
 20 21  2  0  0  0  0
 20 19  1  0  0  0  0
 22 20  1  0  0  0  0
 23 22  1  0  0  0  0
M  END
>  <minimizedAffinity>
-4.01027632

$$$$

 OpenBabel03252509253D

 23 24  0  0  1  0  0  0  0  0999 V2000
   38.2800   31.6980   40.1120 C   0  0  1  0  0  0  0  0  0  0  0  0
   38.7300   33.0480   40.7070 C   0  0  0  0  0  0  0  0  0  0  0  0
   39.5310   32.1910   39.6700 C   0  0  2  0  0  0  0  0  0  0  0  0
   37.3330   31.7710   39.5450 H   0  0  0  0  0  0  0  0  0  0  0  0
   38.2590   33.9470   40.3140 H   0  0  0  0  0  0  0  0  0  0  0  0
   39.1020   33.1090   41.7210 H   0  0  0  0  0  0  0  0  0  0  0  0
   40.4890   31.8040   40.1240 H   0  0  0  0  0  0  0  0  0  0  0  0
   37.0980   29.1450   42.6130 C   0  0  0  0  0  0  0  0  0  0  0  0
   37.0390   30.2070   41.6730 C   0  0  0  0  0  0  0  0  0  0  0  0
   38.2480   30.6380   41.1850 C   0  0  0  0  0  0  0  0  0  0  0  0
   39.4330   30.0580   41.6040 N   0  0  0  0  0  0  0  0  0  0  0  0
   39.4340   29.0520   42.4990 C   0  0  0  0  0  0  0  0  0  0  0  0
   38.2560   28.5960   43.0050 N   0  0  0  0  0  0  0  0  0  0  0  0
   36.1400   28.8100   42.9940 H   0  0  0  0  0  0  0  0  0  0  0  0
   40.3510   28.5900   42.8350 H   0  0  0  0  0  0  0  0  0  0  0  0
   35.8230   30.8310   41.2690 N   0  0  0  0  0  0  0  0  0  0  0  0
   35.5320   31.3020   42.1620 H   0  0  0  0  0  0  0  0  0  0  0  0
   35.3810   30.8020   40.3380 H   0  0  0  0  0  0  0  0  0  0  0  0
   40.6850   32.9100   36.5100 H   0  0  0  0  0  0  0  0  0  0  0  0
   40.6150   32.2880   37.3880 C   0  0  0  0  0  0  0  0  0  0  0  0
   41.1910   31.1810   37.5490 O   0  0  0  0  0  0  0  0  0  0  0  0
   39.7690   32.8540   38.4090 N   0  0  0  0  0  0  0  0  0  0  0  0
   39.2810   33.7830   38.2830 H   0  0  0  0  0  0  0  0  0  0  0  0
  1  4  1  6  0  0  0
  1  2  1  0  0  0  0
  1 10  1  0  0  0  0
  2  6  1  0  0  0  0
  3  1  1  0  0  0  0
  3  7  1  1  0  0  0
  3  2  1  0  0  0  0
  5  2  1  0  0  0  0
  8 14  1  0  0  0  0
  8 13  1  0  0  0  0
  9  8  2  0  0  0  0
 10 11  2  0  0  0  0
 10  9  1  0  0  0  0
 11 12  1  0  0  0  0
 12 15  1  0  0  0  0
 12 13  2  0  0  0  0
 16  9  1  0  0  0  0
 16 17  1  0  0  0  0
 18 16  1  0  0  0  0
 19 20  1  0  0  0  0
 20 21  2  0  0  0  0
 20 22  1  0  0  0  0
 22  3  1  0  0  0  0
 23 22  1  0  0  0  0
M  END
>  <minimizedAffinity>
-4.00264788

$$$$

 OpenBabel03252509253D

 23 24  0  0  1  0  0  0  0  0999 V2000
   37.0990   26.7470   42.1920 C   0  0  1  0  0  0  0  0  0  0  0  0
   36.9930   25.5240   41.2570 C   0  0  0  0  0  0  0  0  0  0  0  0
   38.3200   26.1330   41.8230 C   0  0  2  0  0  0  0  0  0  0  0  0
   36.5800   26.5970   43.1580 H   0  0  0  0  0  0  0  0  0  0  0  0
   36.6780   24.5820   41.7020 H   0  0  0  0  0  0  0  0  0  0  0  0
   36.7770   25.6490   40.2040 H   0  0  0  0  0  0  0  0  0  0  0  0
   38.9480   26.5680   40.9910 H   0  0  0  0  0  0  0  0  0  0  0  0
   36.4930   30.3460   41.2750 C   0  0  0  0  0  0  0  0  0  0  0  0
   36.8520   29.2200   42.0600 C   0  0  0  0  0  0  0  0  0  0  0  0
   36.6590   27.9960   41.4700 C   0  0  0  0  0  0  0  0  0  0  0  0
   36.1410   27.8960   40.1900 N   0  0  0  0  0  0  0  0  0  0  0  0
   35.8160   28.9970   39.4860 C   0  0  0  0  0  0  0  0  0  0  0  0
   35.9940   30.2280   40.0360 N   0  0  0  0  0  0  0  0  0  0  0  0
   36.6490   31.3090   41.7470 H   0  0  0  0  0  0  0  0  0  0  0  0
   35.4110   28.9340   38.4870 H   0  0  0  0  0  0  0  0  0  0  0  0
   37.3500   29.3190   43.3920 N   0  0  0  0  0  0  0  0  0  0  0  0
   36.5040   29.6870   43.8960 H   0  0  0  0  0  0  0  0  0  0  0  0
   38.2950   29.0830   43.7290 H   0  0  0  0  0  0  0  0  0  0  0  0
   40.5760   24.8860   44.1010 H   0  0  0  0  0  0  0  0  0  0  0  0
   40.1030   25.6900   43.5600 C   0  0  0  0  0  0  0  0  0  0  0  0
   40.3760   26.9120   43.6780 O   0  0  0  0  0  0  0  0  0  0  0  0
   39.0840   25.2290   42.6490 N   0  0  0  0  0  0  0  0  0  0  0  0
   38.8470   24.2040   42.5430 H   0  0  0  0  0  0  0  0  0  0  0  0
  1  4  1  1  0  0  0
  2  5  1  0  0  0  0
  2  3  1  0  0  0  0
  2  1  1  0  0  0  0
  3  7  1  6  0  0  0
  3  1  1  0  0  0  0
  3 22  1  0  0  0  0
  6  2  1  0  0  0  0
  8 14  1  0  0  0  0
  8  9  1  0  0  0  0
  9 16  1  0  0  0  0
 10  9  2  0  0  0  0
 10  1  1  0  0  0  0
 11 10  1  0  0  0  0
 12 13  1  0  0  0  0
 12 11  2  0  0  0  0
 13  8  2  0  0  0  0
 15 12  1  0  0  0  0
 16 18  1  0  0  0  0
 16 17  1  0  0  0  0
 20 21  2  0  0  0  0
 20 19  1  0  0  0  0
 22 20  1  0  0  0  0
 23 22  1  0  0  0  0
M  END
>  <minimizedAffinity>
-3.93443084

$$$$
