
 OpenBabel03252502423D

 27 28  0  0  1  0  0  0  0  0999 V2000
   46.8840   34.8490   41.4250 C   0  0  0  0  0  0  0  0  0  0  0  0
   46.1540   34.4950   40.7020 H   0  0  0  0  0  0  0  0  0  0  0  0
   46.5890   35.8590   41.8320 H   0  0  0  0  0  0  0  0  0  0  0  0
   48.2520   35.0650   40.8560 C   0  0  1  0  0  0  0  0  0  0  0  0
   49.1000   36.1230   41.4990 C   0  0  0  0  0  0  0  0  0  0  0  0
   49.4240   34.6980   41.6040 C   0  0  1  0  0  0  0  0  0  0  0  0
   48.1710   35.0300   39.7270 H   0  0  0  0  0  0  0  0  0  0  0  0
   49.5750   36.8040   40.7230 H   0  0  0  0  0  0  0  0  0  0  0  0
   48.7490   36.7810   42.3020 H   0  0  0  0  0  0  0  0  0  0  0  0
   50.2500   34.4770   40.8370 H   0  0  0  0  0  0  0  0  0  0  0  0
   51.2020   31.9910   43.0770 H   0  0  0  0  0  0  0  0  0  0  0  0
   50.7470   32.7750   42.4410 C   0  0  0  0  0  0  0  0  0  0  0  0
   51.4090   32.3220   41.4370 O   0  0  0  0  0  0  0  0  0  0  0  0
   49.8020   33.8630   42.6430 N   0  0  0  0  0  0  0  0  0  0  0  0
   49.6750   33.6510   43.6860 H   0  0  0  0  0  0  0  0  0  0  0  0
   47.1120   33.8930   42.5780 C   0  0  0  0  0  0  0  0  0  0  0  0
   48.0320   34.3230   43.0910 H   0  0  0  0  0  0  0  0  0  0  0  0
   47.1440   32.8530   42.3360 H   0  0  0  0  0  0  0  0  0  0  0  0
   44.6080   35.7170   44.6900 C   0  0  0  0  0  0  0  0  0  0  0  0
   45.4060   35.3670   43.5570 C   0  0  0  0  0  0  0  0  0  0  0  0
   46.2190   34.2780   43.7020 C   0  0  0  0  0  0  0  0  0  0  0  0
   46.2560   33.5720   44.8680 N   0  0  0  0  0  0  0  0  0  0  0  0
   45.4930   33.9310   45.9090 C   0  0  0  0  0  0  0  0  0  0  0  0
   44.6790   34.9880   45.8240 N   0  0  0  0  0  0  0  0  0  0  0  0
   43.9290   36.5600   44.6860 H   0  0  0  0  0  0  0  0  0  0  0  0
   45.2310   36.0210   42.7430 H   0  0  0  0  0  0  0  0  0  0  0  0
   45.4740   33.4170   46.8590 H   0  0  0  0  0  0  0  0  0  0  0  0
  1  3  1  0  0  0  0
  1 16  1  0  0  0  0
  2  1  1  0  0  0  0
  4  7  1  6  0  0  0
  4  1  1  0  0  0  0
  4  5  1  0  0  0  0
  4  6  1  0  0  0  0
  5  6  1  0  0  0  0
  5  9  1  0  0  0  0
  6 10  1  6  0  0  0
  6 14  1  0  0  0  0
  8  5  1  0  0  0  0
 12 14  1  0  0  0  0
 12 11  1  0  0  0  0
 13 12  2  0  0  0  0
 14 15  1  0  0  0  0
 16 17  1  0  0  0  0
 16 21  1  0  0  0  0
 18 16  1  0  0  0  0
 19 24  1  0  0  0  0
 20 21  1  0  0  0  0
 20 19  2  0  0  0  0
 21 22  2  0  0  0  0
 22 23  1  0  0  0  0
 23 27  1  0  0  0  0
 24 23  2  0  0  0  0
 25 19  1  0  0  0  0
 26 20  1  0  0  0  0
M  END
>  <minimizedAffinity>
-4.51278353

>  <minimizedRMSD>
0.887419105

$$$$
