
 OpenBabel03242523143D

 21 22  0  0  0  0  0  0  0  0999 V2000
   45.4510   35.2310   43.5330 C   0  0  0  0  0  0  0  0  0  0  0  0
   46.6620   34.7380   43.0430 C   0  0  0  0  0  0  0  0  0  0  0  0
   47.3190   33.7490   43.8140 C   0  0  0  0  0  0  0  0  0  0  0  0
   46.7220   33.3430   44.9950 N   0  0  0  0  0  0  0  0  0  0  0  0
   45.5600   33.8600   45.4070 C   0  0  0  0  0  0  0  0  0  0  0  0
   44.9190   34.7980   44.6920 N   0  0  0  0  0  0  0  0  0  0  0  0
   48.2580   33.3420   43.4640 H   0  0  0  0  0  0  0  0  0  0  0  0
   45.1670   33.4760   46.3570 H   0  0  0  0  0  0  0  0  0  0  0  0
   47.3520   35.2530   41.8340 C   0  0  0  0  0  0  0  0  0  0  0  0
   48.5550   34.6390   41.3480 C   0  0  0  0  0  0  0  0  0  0  0  0
   47.3120   34.3770   40.5480 C   0  0  0  0  0  0  0  0  0  0  0  0
   46.8490   36.2020   41.4940 H   0  0  0  0  0  0  0  0  0  0  0  0
   49.3210   35.3700   40.9210 H   0  0  0  0  0  0  0  0  0  0  0  0
   49.0700   33.7300   41.6720 H   0  0  0  0  0  0  0  0  0  0  0  0
   46.8710   33.3870   40.6040 H   0  0  0  0  0  0  0  0  0  0  0  0
   47.3140   34.8890   39.5740 H   0  0  0  0  0  0  0  0  0  0  0  0
   43.0490   36.1540   41.1750 H   0  0  0  0  0  0  0  0  0  0  0  0
   43.7400   35.6480   41.8300 C   0  0  0  0  0  0  0  0  0  0  0  0
   43.5680   34.4130   41.5480 O   0  0  0  0  0  0  0  0  0  0  0  0
   44.6450   36.1170   42.7920 N   0  0  0  0  0  0  0  0  0  0  0  0
   44.5360   37.1490   42.7180 H   0  0  0  0  0  0  0  0  0  0  0  0
  1  6  1  0  0  0  0
  2  1  2  0  0  0  0
  2  3  1  0  0  0  0
  3  4  2  0  0  0  0
  4  5  1  0  0  0  0
  5  8  1  0  0  0  0
  6  5  2  0  0  0  0
  7  3  1  0  0  0  0
  9  2  1  0  0  0  0
 10 14  1  0  0  0  0
 10  9  1  0  0  0  0
 11 15  1  0  0  0  0
 11 10  1  0  0  0  0
 11  9  1  0  0  0  0
 12  9  1  0  0  0  0
 13 10  1  0  0  0  0
 16 11  1  0  0  0  0
 17 18  1  0  0  0  0
 18 20  1  0  0  0  0
 19 18  2  0  0  0  0
 20  1  1  0  0  0  0
 21 20  1  0  0  0  0
M  END
>  <minimizedAffinity>
-4.07075071

>  <minimizedRMSD>
1.62754083

$$$$
