
 OpenBabel03252509223D

 23 24  0  0  1  0  0  0  0  0999 V2000
   46.5420   35.0620   41.9280 C   0  0  1  0  0  0  0  0  0  0  0  0
   48.0630   35.3200   41.9010 C   0  0  0  0  0  0  0  0  0  0  0  0
   47.3360   34.0660   41.3080 C   0  0  2  0  0  0  0  0  0  0  0  0
   45.9640   35.8370   41.3910 H   0  0  0  0  0  0  0  0  0  0  0  0
   48.4330   36.0390   41.1730 H   0  0  0  0  0  0  0  0  0  0  0  0
   48.6610   35.1940   42.7930 H   0  0  0  0  0  0  0  0  0  0  0  0
   47.6220   33.1320   41.8740 H   0  0  0  0  0  0  0  0  0  0  0  0
   44.6690   35.3520   45.1800 C   0  0  0  0  0  0  0  0  0  0  0  0
   45.1180   35.6800   43.8730 C   0  0  0  0  0  0  0  0  0  0  0  0
   46.0730   34.8480   43.3460 C   0  0  0  0  0  0  0  0  0  0  0  0
   46.5530   33.7670   44.0650 N   0  0  0  0  0  0  0  0  0  0  0  0
   46.0940   33.4990   45.3020 C   0  0  0  0  0  0  0  0  0  0  0  0
   45.1460   34.3000   45.8590 N   0  0  0  0  0  0  0  0  0  0  0  0
   43.9150   36.0130   45.5900 H   0  0  0  0  0  0  0  0  0  0  0  0
   46.4590   32.6590   45.8750 H   0  0  0  0  0  0  0  0  0  0  0  0
   44.6530   36.8140   43.1460 N   0  0  0  0  0  0  0  0  0  0  0  0
   45.0450   37.5990   43.7240 H   0  0  0  0  0  0  0  0  0  0  0  0
   44.0850   36.8190   42.2860 H   0  0  0  0  0  0  0  0  0  0  0  0
   48.4680   32.9830   38.2460 H   0  0  0  0  0  0  0  0  0  0  0  0
   48.4710   32.9870   39.3240 C   0  0  0  0  0  0  0  0  0  0  0  0
   49.2180   32.2880   40.0560 O   0  0  0  0  0  0  0  0  0  0  0  0
   47.5040   33.8990   39.8840 N   0  0  0  0  0  0  0  0  0  0  0  0
   46.8720   34.4890   39.2770 H   0  0  0  0  0  0  0  0  0  0  0  0
  1  4  1  6  0  0  0
  1 10  1  0  0  0  0
  2  1  1  0  0  0  0
  2  6  1  0  0  0  0
  3  7  1  1  0  0  0
  3  2  1  0  0  0  0
  3  1  1  0  0  0  0
  5  2  1  0  0  0  0
  8 14  1  0  0  0  0
  8 13  1  0  0  0  0
  9  8  2  0  0  0  0
 10  9  1  0  0  0  0
 10 11  2  0  0  0  0
 11 12  1  0  0  0  0
 12 13  2  0  0  0  0
 12 15  1  0  0  0  0
 16 17  1  0  0  0  0
 16  9  1  0  0  0  0
 18 16  1  0  0  0  0
 19 20  1  0  0  0  0
 20 22  1  0  0  0  0
 20 21  2  0  0  0  0
 22  3  1  0  0  0  0
 23 22  1  0  0  0  0
M  END
>  <minimizedAffinity>
-4.28798342

>  <minimizedRMSD>
0.68197161

$$$$
