
 OpenBabel03242523153D

 21 22  0  0  0  0  0  0  0  0999 V2000
   35.9100   28.7080   40.7100 C   0  0  0  0  0  0  0  0  0  0  0  0
   36.6480   27.8610   41.5390 C   0  0  0  0  0  0  0  0  0  0  0  0
   37.0720   26.6260   40.9910 C   0  0  0  0  0  0  0  0  0  0  0  0
   36.7260   26.3440   39.6810 N   0  0  0  0  0  0  0  0  0  0  0  0
   36.0140   27.2010   38.9430 C   0  0  0  0  0  0  0  0  0  0  0  0
   35.6020   28.3790   39.4410 N   0  0  0  0  0  0  0  0  0  0  0  0
   37.6470   25.9450   41.6040 H   0  0  0  0  0  0  0  0  0  0  0  0
   35.7880   26.8880   37.9160 H   0  0  0  0  0  0  0  0  0  0  0  0
   36.9230   28.1190   42.9740 C   0  0  0  0  0  0  0  0  0  0  0  0
   38.0380   27.5060   43.6380 C   0  0  0  0  0  0  0  0  0  0  0  0
   38.1780   28.9680   43.3300 C   0  0  0  0  0  0  0  0  0  0  0  0
   36.0850   28.7340   43.4100 H   0  0  0  0  0  0  0  0  0  0  0  0
   37.8370   27.2030   44.7210 H   0  0  0  0  0  0  0  0  0  0  0  0
   38.8520   26.8920   43.2400 H   0  0  0  0  0  0  0  0  0  0  0  0
   38.8560   29.2580   42.5340 H   0  0  0  0  0  0  0  0  0  0  0  0
   38.1350   29.6010   44.2300 H   0  0  0  0  0  0  0  0  0  0  0  0
   36.2990   32.1580   41.0770 H   0  0  0  0  0  0  0  0  0  0  0  0
   36.3940   31.1060   40.8610 C   0  0  0  0  0  0  0  0  0  0  0  0
   37.5330   31.0210   40.2870 O   0  0  0  0  0  0  0  0  0  0  0  0
   35.5480   30.0130   41.0990 N   0  0  0  0  0  0  0  0  0  0  0  0
   34.7520   30.4530   41.6040 H   0  0  0  0  0  0  0  0  0  0  0  0
  1 20  1  0  0  0  0
  1  2  1  0  0  0  0
  2  9  1  0  0  0  0
  3  2  2  0  0  0  0
  3  7  1  0  0  0  0
  4  3  1  0  0  0  0
  5  6  1  0  0  0  0
  5  4  2  0  0  0  0
  6  1  2  0  0  0  0
  8  5  1  0  0  0  0
  9 11  1  0  0  0  0
  9 12  1  0  0  0  0
  9 10  1  0  0  0  0
 10 13  1  0  0  0  0
 11 10  1  0  0  0  0
 11 16  1  0  0  0  0
 14 10  1  0  0  0  0
 15 11  1  0  0  0  0
 18 17  1  0  0  0  0
 18 20  1  0  0  0  0
 19 18  2  0  0  0  0
 20 21  1  0  0  0  0
M  END
>  <minimizedAffinity>
-4.06524229

$$$$

 OpenBabel03242523153D

 21 22  0  0  0  0  0  0  0  0999 V2000
   36.7740   30.5020   41.0930 C   0  0  0  0  0  0  0  0  0  0  0  0
   37.8000   29.8030   41.7320 C   0  0  0  0  0  0  0  0  0  0  0  0
   39.0590   30.4430   41.8280 C   0  0  0  0  0  0  0  0  0  0  0  0
   39.1870   31.7080   41.2820 N   0  0  0  0  0  0  0  0  0  0  0  0
   38.1630   32.3200   40.6800 C   0  0  0  0  0  0  0  0  0  0  0  0
   36.9590   31.7330   40.5780 N   0  0  0  0  0  0  0  0  0  0  0  0
   39.8770   29.9320   42.3190 H   0  0  0  0  0  0  0  0  0  0  0  0
   38.3620   33.3210   40.2770 H   0  0  0  0  0  0  0  0  0  0  0  0
   37.6890   28.4060   42.2200 C   0  0  0  0  0  0  0  0  0  0  0  0
   38.5920   27.8910   43.2100 C   0  0  0  0  0  0  0  0  0  0  0  0
   37.1970   28.1830   43.6790 C   0  0  0  0  0  0  0  0  0  0  0  0
   36.9070   27.8620   41.6170 H   0  0  0  0  0  0  0  0  0  0  0  0
   38.8870   26.7980   43.0590 H   0  0  0  0  0  0  0  0  0  0  0  0
   39.3680   28.3940   43.7940 H   0  0  0  0  0  0  0  0  0  0  0  0
   37.0460   29.0490   44.3170 H   0  0  0  0  0  0  0  0  0  0  0  0
   36.6170   27.2730   43.8960 H   0  0  0  0  0  0  0  0  0  0  0  0
   34.0130   28.8410   39.7510 H   0  0  0  0  0  0  0  0  0  0  0  0
   34.9720   29.2860   39.9630 C   0  0  0  0  0  0  0  0  0  0  0  0
   35.6730   28.9870   38.9360 O   0  0  0  0  0  0  0  0  0  0  0  0
   35.4500   30.0240   41.0540 N   0  0  0  0  0  0  0  0  0  0  0  0
   34.6070   30.0980   41.6610 H   0  0  0  0  0  0  0  0  0  0  0  0
  1  2  1  0  0  0  0
  2  3  2  0  0  0  0
  2  9  1  0  0  0  0
  3  7  1  0  0  0  0
  4  3  1  0  0  0  0
  5  4  2  0  0  0  0
  6  5  1  0  0  0  0
  6  1  2  0  0  0  0
  8  5  1  0  0  0  0
  9 10  1  0  0  0  0
  9 11  1  0  0  0  0
 10 11  1  0  0  0  0
 10 14  1  0  0  0  0
 11 16  1  0  0  0  0
 11 15  1  0  0  0  0
 12  9  1  0  0  0  0
 13 10  1  0  0  0  0
 17 18  1  0  0  0  0
 18 20  1  0  0  0  0
 19 18  2  0  0  0  0
 20  1  1  0  0  0  0
 20 21  1  0  0  0  0
M  END
>  <minimizedAffinity>
-4.03214979

$$$$

 OpenBabel03242523153D

 21 22  0  0  0  0  0  0  0  0999 V2000
   36.7770   30.2040   41.5260 C   0  0  0  0  0  0  0  0  0  0  0  0
   37.6450   31.1600   40.9960 C   0  0  0  0  0  0  0  0  0  0  0  0
   38.9940   31.1190   41.4240 C   0  0  0  0  0  0  0  0  0  0  0  0
   39.3570   30.1410   42.3350 N   0  0  0  0  0  0  0  0  0  0  0  0
   38.4720   29.2570   42.8040 C   0  0  0  0  0  0  0  0  0  0  0  0
   37.1880   29.2760   42.4120 N   0  0  0  0  0  0  0  0  0  0  0  0
   39.6960   31.8430   41.0330 H   0  0  0  0  0  0  0  0  0  0  0  0
   38.8540   28.5220   43.5240 H   0  0  0  0  0  0  0  0  0  0  0  0
   37.2290   32.2710   40.1050 C   0  0  0  0  0  0  0  0  0  0  0  0
   38.1880   32.9820   39.3080 C   0  0  0  0  0  0  0  0  0  0  0  0
   37.2930   32.0310   38.5690 C   0  0  0  0  0  0  0  0  0  0  0  0
   36.1370   32.4920   40.2690 H   0  0  0  0  0  0  0  0  0  0  0  0
   37.9830   34.1000   39.2040 H   0  0  0  0  0  0  0  0  0  0  0  0
   39.2550   32.7970   39.1470 H   0  0  0  0  0  0  0  0  0  0  0  0
   37.7250   31.1060   38.2020 H   0  0  0  0  0  0  0  0  0  0  0  0
   36.5530   32.5450   37.9350 H   0  0  0  0  0  0  0  0  0  0  0  0
   34.1850   28.9490   39.5520 H   0  0  0  0  0  0  0  0  0  0  0  0
   35.1210   29.1930   40.0290 C   0  0  0  0  0  0  0  0  0  0  0  0
   35.9710   28.4690   39.4040 O   0  0  0  0  0  0  0  0  0  0  0  0
   35.4490   30.0630   41.0770 N   0  0  0  0  0  0  0  0  0  0  0  0
   34.5300   30.4960   41.3040 H   0  0  0  0  0  0  0  0  0  0  0  0
  1  6  1  0  0  0  0
  2  3  1  0  0  0  0
  2  1  2  0  0  0  0
  3  4  2  0  0  0  0
  4  5  1  0  0  0  0
  5  8  1  0  0  0  0
  6  5  2  0  0  0  0
  7  3  1  0  0  0  0
  9 12  1  0  0  0  0
  9  2  1  0  0  0  0
 10  9  1  0  0  0  0
 11 10  1  0  0  0  0
 11  9  1  0  0  0  0
 13 10  1  0  0  0  0
 14 10  1  0  0  0  0
 15 11  1  0  0  0  0
 16 11  1  0  0  0  0
 17 18  1  0  0  0  0
 18 20  1  0  0  0  0
 19 18  2  0  0  0  0
 20 21  1  0  0  0  0
 20  1  1  0  0  0  0
M  END
>  <minimizedAffinity>
-3.84150958

$$$$

 OpenBabel03242523153D

 21 22  0  0  0  0  0  0  0  0999 V2000
   37.9850   29.3300   42.6800 C   0  0  0  0  0  0  0  0  0  0  0  0
   37.6040   29.8170   41.4290 C   0  0  0  0  0  0  0  0  0  0  0  0
   38.6340   30.0730   40.4920 C   0  0  0  0  0  0  0  0  0  0  0  0
   39.9400   29.8270   40.8800 N   0  0  0  0  0  0  0  0  0  0  0  0
   40.2350   29.3620   42.0980 C   0  0  0  0  0  0  0  0  0  0  0  0
   39.2740   29.1110   43.0020 N   0  0  0  0  0  0  0  0  0  0  0  0
   38.3770   30.4500   39.5110 H   0  0  0  0  0  0  0  0  0  0  0  0
   41.2980   29.2000   42.3130 H   0  0  0  0  0  0  0  0  0  0  0  0
   36.2150   30.1810   41.0550 C   0  0  0  0  0  0  0  0  0  0  0  0
   35.7980   30.2040   39.6820 C   0  0  0  0  0  0  0  0  0  0  0  0
   35.2930   29.0550   40.5050 C   0  0  0  0  0  0  0  0  0  0  0  0
   35.6580   30.5200   41.9740 H   0  0  0  0  0  0  0  0  0  0  0  0
   35.0640   31.0400   39.4230 H   0  0  0  0  0  0  0  0  0  0  0  0
   36.3250   29.8970   38.7740 H   0  0  0  0  0  0  0  0  0  0  0  0
   35.7190   28.0730   40.3230 H   0  0  0  0  0  0  0  0  0  0  0  0
   34.2140   29.1210   40.7160 H   0  0  0  0  0  0  0  0  0  0  0  0
   35.8650   27.0950   44.3240 H   0  0  0  0  0  0  0  0  0  0  0  0
   36.5690   27.5960   43.6790 C   0  0  0  0  0  0  0  0  0  0  0  0
   36.9350   26.6790   42.8660 O   0  0  0  0  0  0  0  0  0  0  0  0
   37.0440   28.9150   43.6430 N   0  0  0  0  0  0  0  0  0  0  0  0
   36.5060   29.3670   44.4120 H   0  0  0  0  0  0  0  0  0  0  0  0
  1  6  1  0  0  0  0
  1 20  1  0  0  0  0
  2  1  2  0  0  0  0
  3  4  2  0  0  0  0
  3  2  1  0  0  0  0
  4  5  1  0  0  0  0
  5  8  1  0  0  0  0
  5  6  2  0  0  0  0
  7  3  1  0  0  0  0
  9  2  1  0  0  0  0
  9 12  1  0  0  0  0
 10 11  1  0  0  0  0
 10  9  1  0  0  0  0
 11 16  1  0  0  0  0
 11  9  1  0  0  0  0
 13 10  1  0  0  0  0
 14 10  1  0  0  0  0
 15 11  1  0  0  0  0
 18 17  1  0  0  0  0
 19 18  2  0  0  0  0
 20 18  1  0  0  0  0
 20 21  1  0  0  0  0
M  END
>  <minimizedAffinity>
-3.78664804

$$$$

 OpenBabel03242523153D

 21 22  0  0  0  0  0  0  0  0999 V2000
   36.4900   29.8490   41.1240 C   0  0  0  0  0  0  0  0  0  0  0  0
   36.1570   28.8360   40.2230 C   0  0  0  0  0  0  0  0  0  0  0  0
   36.4940   27.5090   40.5860 C   0  0  0  0  0  0  0  0  0  0  0  0
   37.1300   27.3100   41.7990 N   0  0  0  0  0  0  0  0  0  0  0  0
   37.4220   28.3280   42.6140 C   0  0  0  0  0  0  0  0  0  0  0  0
   37.1110   29.5940   42.2920 N   0  0  0  0  0  0  0  0  0  0  0  0
   36.2500   26.6980   39.9130 H   0  0  0  0  0  0  0  0  0  0  0  0
   37.9280   28.0700   43.5530 H   0  0  0  0  0  0  0  0  0  0  0  0
   35.5750   29.0650   38.8780 C   0  0  0  0  0  0  0  0  0  0  0  0
   34.9800   27.9910   38.1340 C   0  0  0  0  0  0  0  0  0  0  0  0
   34.0270   28.9830   38.7340 C   0  0  0  0  0  0  0  0  0  0  0  0
   35.7910   30.1210   38.5530 H   0  0  0  0  0  0  0  0  0  0  0  0
   35.1610   28.0370   37.0080 H   0  0  0  0  0  0  0  0  0  0  0  0
   34.7760   26.9550   38.4210 H   0  0  0  0  0  0  0  0  0  0  0  0
   33.4390   28.6700   39.5900 H   0  0  0  0  0  0  0  0  0  0  0  0
   33.5440   29.6230   37.9790 H   0  0  0  0  0  0  0  0  0  0  0  0
   36.8080   33.1640   40.0770 H   0  0  0  0  0  0  0  0  0  0  0  0
   36.9300   32.1190   40.3110 C   0  0  0  0  0  0  0  0  0  0  0  0
   38.1010   31.8490   39.8730 O   0  0  0  0  0  0  0  0  0  0  0  0
   36.0890   31.1860   40.9340 N   0  0  0  0  0  0  0  0  0  0  0  0
   35.2590   31.7640   41.1810 H   0  0  0  0  0  0  0  0  0  0  0  0
  1  6  1  0  0  0  0
  2  3  1  0  0  0  0
  2  1  2  0  0  0  0
  3  4  2  0  0  0  0
  4  5  1  0  0  0  0
  5  8  1  0  0  0  0
  6  5  2  0  0  0  0
  7  3  1  0  0  0  0
  9  2  1  0  0  0  0
 10 14  1  0  0  0  0
 10 11  1  0  0  0  0
 10  9  1  0  0  0  0
 11  9  1  0  0  0  0
 11 15  1  0  0  0  0
 12  9  1  0  0  0  0
 13 10  1  0  0  0  0
 16 11  1  0  0  0  0
 17 18  1  0  0  0  0
 18 20  1  0  0  0  0
 19 18  2  0  0  0  0
 20  1  1  0  0  0  0
 20 21  1  0  0  0  0
M  END
>  <minimizedAffinity>
-3.69276476

$$$$

 OpenBabel03242523153D

 21 22  0  0  0  0  0  0  0  0999 V2000
   37.3370   29.0800   42.5150 C   0  0  0  0  0  0  0  0  0  0  0  0
   38.7120   29.2500   42.6800 C   0  0  0  0  0  0  0  0  0  0  0  0
   39.4920   28.0830   42.8700 C   0  0  0  0  0  0  0  0  0  0  0  0
   38.8390   26.8620   42.8830 N   0  0  0  0  0  0  0  0  0  0  0  0
   37.5160   26.7720   42.7210 C   0  0  0  0  0  0  0  0  0  0  0  0
   36.7570   27.8650   42.5390 N   0  0  0  0  0  0  0  0  0  0  0  0
   40.5610   28.1760   42.9990 H   0  0  0  0  0  0  0  0  0  0  0  0
   37.0900   25.7610   42.7480 H   0  0  0  0  0  0  0  0  0  0  0  0
   39.3920   30.5660   42.7740 C   0  0  0  0  0  0  0  0  0  0  0  0
   40.8030   30.6900   42.5410 C   0  0  0  0  0  0  0  0  0  0  0  0
   39.9070   31.2120   41.4560 C   0  0  0  0  0  0  0  0  0  0  0  0
   38.6620   31.3360   43.1510 H   0  0  0  0  0  0  0  0  0  0  0  0
   41.3290   31.4500   43.2110 H   0  0  0  0  0  0  0  0  0  0  0  0
   41.5340   29.9540   42.1930 H   0  0  0  0  0  0  0  0  0  0  0  0
   39.8410   30.6420   40.5340 H   0  0  0  0  0  0  0  0  0  0  0  0
   39.9130   32.3110   41.3870 H   0  0  0  0  0  0  0  0  0  0  0  0
   35.6250   31.2760   40.4100 H   0  0  0  0  0  0  0  0  0  0  0  0
   36.2350   30.5070   40.8550 C   0  0  0  0  0  0  0  0  0  0  0  0
   36.7480   29.9120   39.8470 O   0  0  0  0  0  0  0  0  0  0  0  0
   36.4810   30.1510   42.1890 N   0  0  0  0  0  0  0  0  0  0  0  0
   35.9360   30.8640   42.7150 H   0  0  0  0  0  0  0  0  0  0  0  0
  1  6  2  0  0  0  0
  1  2  1  0  0  0  0
  2  9  1  0  0  0  0
  2  3  2  0  0  0  0
  3  4  1  0  0  0  0
  3  7  1  0  0  0  0
  5  8  1  0  0  0  0
  5  4  2  0  0  0  0
  6  5  1  0  0  0  0
  9 12  1  0  0  0  0
 10  9  1  0  0  0  0
 10 13  1  0  0  0  0
 11 10  1  0  0  0  0
 11  9  1  0  0  0  0
 14 10  1  0  0  0  0
 15 11  1  0  0  0  0
 16 11  1  0  0  0  0
 17 18  1  0  0  0  0
 18 20  1  0  0  0  0
 19 18  2  0  0  0  0
 20  1  1  0  0  0  0
 20 21  1  0  0  0  0
M  END
>  <minimizedAffinity>
-3.68695641

$$$$

 OpenBabel03242523153D

 21 22  0  0  0  0  0  0  0  0999 V2000
   36.8610   27.2350   41.9810 C   0  0  0  0  0  0  0  0  0  0  0  0
   36.5650   27.4100   40.6280 C   0  0  0  0  0  0  0  0  0  0  0  0
   36.6130   26.2630   39.8000 C   0  0  0  0  0  0  0  0  0  0  0  0
   36.9510   25.0540   40.3840 N   0  0  0  0  0  0  0  0  0  0  0  0
   37.2260   24.9580   41.6880 C   0  0  0  0  0  0  0  0  0  0  0  0
   37.1860   26.0320   42.4930 N   0  0  0  0  0  0  0  0  0  0  0  0
   36.3870   26.3600   38.7460 H   0  0  0  0  0  0  0  0  0  0  0  0
   37.4850   23.9580   42.0580 H   0  0  0  0  0  0  0  0  0  0  0  0
   36.3090   28.7230   39.9860 C   0  0  0  0  0  0  0  0  0  0  0  0
   35.6030   28.8150   38.7400 C   0  0  0  0  0  0  0  0  0  0  0  0
   34.8430   29.2450   39.9610 C   0  0  0  0  0  0  0  0  0  0  0  0
   36.8420   29.5300   40.5640 H   0  0  0  0  0  0  0  0  0  0  0  0
   35.9870   29.6280   38.0360 H   0  0  0  0  0  0  0  0  0  0  0  0
   35.0930   28.0450   38.1530 H   0  0  0  0  0  0  0  0  0  0  0  0
   34.0520   28.5960   40.3220 H   0  0  0  0  0  0  0  0  0  0  0  0
   34.6820   30.3330   40.0040 H   0  0  0  0  0  0  0  0  0  0  0  0
   37.9200   29.8150   44.0800 H   0  0  0  0  0  0  0  0  0  0  0  0
   37.8250   29.0010   43.3790 C   0  0  0  0  0  0  0  0  0  0  0  0
   39.0270   28.7970   42.9940 O   0  0  0  0  0  0  0  0  0  0  0  0
   36.7180   28.2730   42.9220 N   0  0  0  0  0  0  0  0  0  0  0  0
   35.9360   28.6860   43.4720 H   0  0  0  0  0  0  0  0  0  0  0  0
  1  6  1  0  0  0  0
  1 20  1  0  0  0  0
  2  1  2  0  0  0  0
  3  4  2  0  0  0  0
  3  2  1  0  0  0  0
  4  5  1  0  0  0  0
  5  8  1  0  0  0  0
  5  6  2  0  0  0  0
  7  3  1  0  0  0  0
  9 12  1  0  0  0  0
  9  2  1  0  0  0  0
 10 11  1  0  0  0  0
 10  9  1  0  0  0  0
 11  9  1  0  0  0  0
 11 16  1  0  0  0  0
 11 15  1  0  0  0  0
 13 10  1  0  0  0  0
 14 10  1  0  0  0  0
 18 17  1  0  0  0  0
 19 18  2  0  0  0  0
 20 18  1  0  0  0  0
 20 21  1  0  0  0  0
M  END
>  <minimizedAffinity>
-3.62520003

$$$$

 OpenBabel03242523153D

 21 22  0  0  0  0  0  0  0  0999 V2000
   37.1090   28.4810   41.9320 C   0  0  0  0  0  0  0  0  0  0  0  0
   37.8140   27.2780   41.8670 C   0  0  0  0  0  0  0  0  0  0  0  0
   39.1470   27.2810   42.3440 C   0  0  0  0  0  0  0  0  0  0  0  0
   39.6580   28.4700   42.8360 N   0  0  0  0  0  0  0  0  0  0  0  0
   38.9270   29.5880   42.8660 C   0  0  0  0  0  0  0  0  0  0  0  0
   37.6600   29.6090   42.4200 N   0  0  0  0  0  0  0  0  0  0  0  0
   39.7230   26.3660   42.3110 H   0  0  0  0  0  0  0  0  0  0  0  0
   39.4190   30.4800   43.2720 H   0  0  0  0  0  0  0  0  0  0  0  0
   37.3000   26.0350   41.2400 C   0  0  0  0  0  0  0  0  0  0  0  0
   38.0250   24.7990   41.3390 C   0  0  0  0  0  0  0  0  0  0  0  0
   36.7880   24.9060   42.1820 C   0  0  0  0  0  0  0  0  0  0  0  0
   36.3830   26.2750   40.6320 H   0  0  0  0  0  0  0  0  0  0  0  0
   37.9800   24.1470   40.4030 H   0  0  0  0  0  0  0  0  0  0  0  0
   38.9250   24.5470   41.9080 H   0  0  0  0  0  0  0  0  0  0  0  0
   36.9110   25.0240   43.2530 H   0  0  0  0  0  0  0  0  0  0  0  0
   35.9680   24.2660   41.8220 H   0  0  0  0  0  0  0  0  0  0  0  0
   34.3310   29.1970   39.9430 H   0  0  0  0  0  0  0  0  0  0  0  0
   35.3110   29.0570   40.3690 C   0  0  0  0  0  0  0  0  0  0  0  0
   36.0990   29.4540   39.4430 O   0  0  0  0  0  0  0  0  0  0  0  0
   35.7400   28.5680   41.6110 N   0  0  0  0  0  0  0  0  0  0  0  0
   34.8400   28.3840   42.1020 H   0  0  0  0  0  0  0  0  0  0  0  0
  1  6  1  0  0  0  0
  2  1  2  0  0  0  0
  2  3  1  0  0  0  0
  3  4  2  0  0  0  0
  4  5  1  0  0  0  0
  5  8  1  0  0  0  0
  6  5  2  0  0  0  0
  7  3  1  0  0  0  0
  9 10  1  0  0  0  0
  9  2  1  0  0  0  0
  9 11  1  0  0  0  0
 10 14  1  0  0  0  0
 10 11  1  0  0  0  0
 11 15  1  0  0  0  0
 12  9  1  0  0  0  0
 13 10  1  0  0  0  0
 16 11  1  0  0  0  0
 17 18  1  0  0  0  0
 18 20  1  0  0  0  0
 19 18  2  0  0  0  0
 20  1  1  0  0  0  0
 20 21  1  0  0  0  0
M  END
>  <minimizedAffinity>
-3.56995034

$$$$

 OpenBabel03242523153D

 21 22  0  0  0  0  0  0  0  0999 V2000
   36.8240   31.0250   40.8650 C   0  0  0  0  0  0  0  0  0  0  0  0
   37.9470   30.3780   41.3840 C   0  0  0  0  0  0  0  0  0  0  0  0
   37.8530   28.9810   41.5910 C   0  0  0  0  0  0  0  0  0  0  0  0
   36.6600   28.3560   41.2690 N   0  0  0  0  0  0  0  0  0  0  0  0
   35.6210   29.0370   40.7770 C   0  0  0  0  0  0  0  0  0  0  0  0
   35.6880   30.3620   40.5710 N   0  0  0  0  0  0  0  0  0  0  0  0
   38.7040   28.4460   41.9900 H   0  0  0  0  0  0  0  0  0  0  0  0
   34.7190   28.4540   40.5540 H   0  0  0  0  0  0  0  0  0  0  0  0
   39.1830   31.0680   41.8280 C   0  0  0  0  0  0  0  0  0  0  0  0
   40.4130   30.3480   42.0010 C   0  0  0  0  0  0  0  0  0  0  0  0
   40.3330   31.2350   40.7930 C   0  0  0  0  0  0  0  0  0  0  0  0
   38.9410   32.1350   42.0920 H   0  0  0  0  0  0  0  0  0  0  0  0
   41.0500   30.7000   42.8810 H   0  0  0  0  0  0  0  0  0  0  0  0
   40.6680   29.3100   41.7680 H   0  0  0  0  0  0  0  0  0  0  0  0
   40.2330   30.7630   39.8200 H   0  0  0  0  0  0  0  0  0  0  0  0
   40.9740   32.1260   40.8720 H   0  0  0  0  0  0  0  0  0  0  0  0
   37.2820   33.7510   38.7330 H   0  0  0  0  0  0  0  0  0  0  0  0
   37.2080   32.7820   39.2010 C   0  0  0  0  0  0  0  0  0  0  0  0
   37.5450   31.9740   38.2690 O   0  0  0  0  0  0  0  0  0  0  0  0
   36.8430   32.3840   40.4940 N   0  0  0  0  0  0  0  0  0  0  0  0
   36.6760   33.2940   40.9700 H   0  0  0  0  0  0  0  0  0  0  0  0
  1  2  1  0  0  0  0
  2  3  2  0  0  0  0
  2  9  1  0  0  0  0
  3  7  1  0  0  0  0
  4  3  1  0  0  0  0
  5  4  2  0  0  0  0
  6  5  1  0  0  0  0
  6  1  2  0  0  0  0
  8  5  1  0  0  0  0
  9 10  1  0  0  0  0
  9 12  1  0  0  0  0
 10 13  1  0  0  0  0
 11 16  1  0  0  0  0
 11  9  1  0  0  0  0
 11 10  1  0  0  0  0
 14 10  1  0  0  0  0
 15 11  1  0  0  0  0
 17 18  1  0  0  0  0
 18 20  1  0  0  0  0
 19 18  2  0  0  0  0
 20  1  1  0  0  0  0
 20 21  1  0  0  0  0
M  END
>  <minimizedAffinity>
-3.56940413

$$$$
