
 OpenBabel03252509353D

 40 41  0  0  1  0  0  0  0  0999 V2000
   44.5370   35.3670   44.1030 O   0  0  0  0  0  0  0  0  0  0  0  0
   45.4350   34.1940   44.4430 P   0  0  1  0  0  0  0  0  0  0  0  0
   44.7900   32.7560   43.8230 O   0  0  0  0  0  0  0  0  0  0  0  0
   44.4790   32.8500   42.8840 H   0  0  0  0  0  0  0  0  0  0  0  0
   46.9370   34.4810   43.7670 O   0  0  0  0  0  0  0  0  0  0  0  0
   47.0410   33.8050   42.5450 C   0  0  1  0  0  0  0  0  0  0  0  0
   46.4320   34.6570   41.4280 C   0  0  0  0  0  0  0  0  0  0  0  0
   46.9130   33.9120   40.2120 C   0  0  0  0  0  0  0  0  0  0  0  0
   48.2090   33.2290   40.6220 C   0  0  0  0  0  0  0  0  0  0  0  0
   48.4500   33.6770   42.0560 C   0  0  1  0  0  0  0  0  0  0  0  0
   46.5180   32.8530   42.5180 H   0  0  0  0  0  0  0  0  0  0  0  0
   45.3050   34.6570   41.4960 H   0  0  0  0  0  0  0  0  0  0  0  0
   46.7270   35.7020   41.4540 H   0  0  0  0  0  0  0  0  0  0  0  0
   46.1270   33.1990   39.9220 H   0  0  0  0  0  0  0  0  0  0  0  0
   47.0960   34.6520   39.3980 H   0  0  0  0  0  0  0  0  0  0  0  0
   47.9940   32.1410   40.6570 H   0  0  0  0  0  0  0  0  0  0  0  0
   49.0450   33.4980   39.9540 H   0  0  0  0  0  0  0  0  0  0  0  0
   48.9250   32.8490   42.6210 H   0  0  0  0  0  0  0  0  0  0  0  0
   49.2150   34.9670   42.1150 C   0  0  0  0  0  0  0  0  0  0  0  0
   49.8970   34.9930   41.2190 H   0  0  0  0  0  0  0  0  0  0  0  0
   48.6030   35.8790   42.0980 H   0  0  0  0  0  0  0  0  0  0  0  0
   50.0160   35.0570   43.2340 O   0  0  0  0  0  0  0  0  0  0  0  0
   50.6640   35.7800   43.1380 H   0  0  0  0  0  0  0  0  0  0  0  0
   45.5510   33.9990   46.0940 O   0  0  0  0  0  0  0  0  0  0  0  0
   46.5080   33.0660   46.3640 C   0  0  0  0  0  0  0  0  0  0  0  0
   47.2410   33.5590   47.0660 H   0  0  0  0  0  0  0  0  0  0  0  0
   47.1100   32.6960   45.5390 H   0  0  0  0  0  0  0  0  0  0  0  0
   45.4870   30.8180   49.1550 C   0  0  0  0  0  0  0  0  0  0  0  0
   46.0030   31.9380   48.4810 C   0  0  0  0  0  0  0  0  0  0  0  0
   45.9700   31.9020   47.0940 C   0  0  0  0  0  0  0  0  0  0  0  0
   45.4470   30.8020   46.4560 N   0  0  0  0  0  0  0  0  0  0  0  0
   44.9570   29.7420   47.1290 C   0  0  0  0  0  0  0  0  0  0  0  0
   44.9800   29.7540   48.4670 N   0  0  0  0  0  0  0  0  0  0  0  0
   45.4730   30.7600   50.2360 H   0  0  0  0  0  0  0  0  0  0  0  0
   46.3950   32.7590   49.0320 H   0  0  0  0  0  0  0  0  0  0  0  0
   44.2280   26.3910   46.8020 H   0  0  0  0  0  0  0  0  0  0  0  0
   44.5600   27.3720   47.1320 C   0  0  0  0  0  0  0  0  0  0  0  0
   45.1240   27.2910   48.2660 O   0  0  0  0  0  0  0  0  0  0  0  0
   44.4210   28.6140   46.4470 N   0  0  0  0  0  0  0  0  0  0  0  0
   43.9320   28.5590   45.5050 H   0  0  0  0  0  0  0  0  0  0  0  0
  2  1  2  6  0  0  0
  2 24  1  0  0  0  0
  3  2  1  0  0  0  0
  4  3  1  0  0  0  0
  5  2  1  0  0  0  0
  6 11  1  1  0  0  0
  6  5  1  0  0  0  0
  7 13  1  0  0  0  0
  7 12  1  0  0  0  0
  7  6  1  0  0  0  0
  8  9  1  0  0  0  0
  8  7  1  0  0  0  0
  9 16  1  0  0  0  0
  9 10  1  0  0  0  0
 10 19  1  0  0  0  0
 10  6  1  0  0  0  0
 10 18  1  1  0  0  0
 14  8  1  0  0  0  0
 15  8  1  0  0  0  0
 17  9  1  0  0  0  0
 19 22  1  0  0  0  0
 20 19  1  0  0  0  0
 21 19  1  0  0  0  0
 23 22  1  0  0  0  0
 24 25  1  0  0  0  0
 25 26  1  0  0  0  0
 25 30  1  0  0  0  0
 27 25  1  0  0  0  0
 28 34  1  0  0  0  0
 29 35  1  0  0  0  0
 29 28  1  0  0  0  0
 30 29  2  0  0  0  0
 31 30  1  0  0  0  0
 31 32  2  0  0  0  0
 32 33  1  0  0  0  0
 33 28  2  0  0  0  0
 36 37  1  0  0  0  0
 37 38  2  0  0  0  0
 39 32  1  0  0  0  0
 39 37  1  0  0  0  0
 40 39  1  0  0  0  0
M  END
>  <minimizedAffinity>
-5.63158941

>  <minimizedRMSD>
1.19926

$$$$
