
 OpenBabel03252509353D

 40 41  0  0  1  0  0  0  0  0999 V2000
   44.5400   35.4760   44.1720 O   0  0  0  0  0  0  0  0  0  0  0  0
   45.4040   34.2480   44.3850 P   0  0  1  0  0  0  0  0  0  0  0  0
   44.6990   32.8940   43.6540 O   0  0  0  0  0  0  0  0  0  0  0  0
   44.3720   33.0820   42.7340 H   0  0  0  0  0  0  0  0  0  0  0  0
   46.9010   34.5480   43.7040 O   0  0  0  0  0  0  0  0  0  0  0  0
   47.0220   33.8400   42.5020 C   0  0  1  0  0  0  0  0  0  0  0  0
   46.4440   34.6700   41.3520 C   0  0  0  0  0  0  0  0  0  0  0  0
   46.9410   33.8890   40.1650 C   0  0  0  0  0  0  0  0  0  0  0  0
   48.2210   33.2030   40.6180 C   0  0  0  0  0  0  0  0  0  0  0  0
   48.4380   33.6840   42.0440 C   0  0  1  0  0  0  0  0  0  0  0  0
   46.4890   32.8930   42.4880 H   0  0  0  0  0  0  0  0  0  0  0  0
   45.3160   34.6830   41.3980 H   0  0  0  0  0  0  0  0  0  0  0  0
   46.7500   35.7110   41.3580 H   0  0  0  0  0  0  0  0  0  0  0  0
   46.1520   33.1770   39.8780 H   0  0  0  0  0  0  0  0  0  0  0  0
   47.1480   34.6060   39.3360 H   0  0  0  0  0  0  0  0  0  0  0  0
   47.9940   32.1190   40.6760 H   0  0  0  0  0  0  0  0  0  0  0  0
   49.0730   33.4470   39.9600 H   0  0  0  0  0  0  0  0  0  0  0  0
   48.8930   32.8670   42.6400 H   0  0  0  0  0  0  0  0  0  0  0  0
   49.2170   34.9680   42.0860 C   0  0  0  0  0  0  0  0  0  0  0  0
   49.9130   34.9660   41.2010 H   0  0  0  0  0  0  0  0  0  0  0  0
   48.6150   35.8860   42.0370 H   0  0  0  0  0  0  0  0  0  0  0  0
   49.9990   35.0760   43.2160 O   0  0  0  0  0  0  0  0  0  0  0  0
   50.6560   35.7900   43.1140 H   0  0  0  0  0  0  0  0  0  0  0  0
   45.5460   33.9020   46.0090 O   0  0  0  0  0  0  0  0  0  0  0  0
   46.4100   32.8590   46.1670 C   0  0  0  0  0  0  0  0  0  0  0  0
   47.3880   33.3080   46.5070 H   0  0  0  0  0  0  0  0  0  0  0  0
   46.6600   32.2640   45.2930 H   0  0  0  0  0  0  0  0  0  0  0  0
   45.2750   31.5920   49.4810 C   0  0  0  0  0  0  0  0  0  0  0  0
   45.6680   32.4880   48.4740 C   0  0  0  0  0  0  0  0  0  0  0  0
   45.9920   31.9380   47.2410 C   0  0  0  0  0  0  0  0  0  0  0  0
   45.9160   30.5770   47.0640 N   0  0  0  0  0  0  0  0  0  0  0  0
   45.5340   29.7400   48.0500 C   0  0  0  0  0  0  0  0  0  0  0  0
   45.2180   30.2480   49.2470 N   0  0  0  0  0  0  0  0  0  0  0  0
   45.0050   31.9310   50.4730 H   0  0  0  0  0  0  0  0  0  0  0  0
   45.7080   33.5320   48.6730 H   0  0  0  0  0  0  0  0  0  0  0  0
   44.3480   26.9050   46.4950 H   0  0  0  0  0  0  0  0  0  0  0  0
   44.5600   27.9200   46.8200 C   0  0  0  0  0  0  0  0  0  0  0  0
   43.8780   28.7530   46.1500 O   0  0  0  0  0  0  0  0  0  0  0  0
   45.4630   28.3340   47.8430 N   0  0  0  0  0  0  0  0  0  0  0  0
   45.9800   27.5480   48.3360 H   0  0  0  0  0  0  0  0  0  0  0  0
  2  1  2  6  0  0  0
  2 24  1  0  0  0  0
  3  2  1  0  0  0  0
  4  3  1  0  0  0  0
  5  2  1  0  0  0  0
  6 11  1  1  0  0  0
  6  5  1  0  0  0  0
  7 13  1  0  0  0  0
  7 12  1  0  0  0  0
  7  6  1  0  0  0  0
  8  9  1  0  0  0  0
  8  7  1  0  0  0  0
  9 16  1  0  0  0  0
  9 10  1  0  0  0  0
 10 19  1  0  0  0  0
 10  6  1  0  0  0  0
 10 18  1  1  0  0  0
 14  8  1  0  0  0  0
 15  8  1  0  0  0  0
 17  9  1  0  0  0  0
 19 22  1  0  0  0  0
 20 19  1  0  0  0  0
 21 19  1  0  0  0  0
 23 22  1  0  0  0  0
 24 25  1  0  0  0  0
 25 26  1  0  0  0  0
 25 30  1  0  0  0  0
 27 25  1  0  0  0  0
 28 34  1  0  0  0  0
 29 35  1  0  0  0  0
 29 28  2  0  0  0  0
 30 29  1  0  0  0  0
 31 30  2  0  0  0  0
 31 32  1  0  0  0  0
 32 33  2  0  0  0  0
 33 28  1  0  0  0  0
 36 37  1  0  0  0  0
 37 39  1  0  0  0  0
 38 37  2  0  0  0  0
 39 32  1  0  0  0  0
 39 40  1  0  0  0  0
M  END
>  <minimizedAffinity>
-5.88455296

>  <minimizedRMSD>
0.747421026

$$$$
