
 OpenBabel03252509353D

 40 41  0  0  1  0  0  0  0  0999 V2000
   44.7220   35.3870   44.9560 O   0  0  0  0  0  0  0  0  0  0  0  0
   45.5600   34.2650   44.3730 P   0  0  1  0  0  0  0  0  0  0  0  0
   44.5670   33.0860   43.6740 O   0  0  0  0  0  0  0  0  0  0  0  0
   43.8490   33.4770   43.1080 H   0  0  0  0  0  0  0  0  0  0  0  0
   46.5650   34.9240   43.2120 O   0  0  0  0  0  0  0  0  0  0  0  0
   46.8100   33.9780   42.2090 C   0  0  1  0  0  0  0  0  0  0  0  0
   46.1020   34.3960   40.9180 C   0  0  0  0  0  0  0  0  0  0  0  0
   46.7280   33.4480   39.9320 C   0  0  0  0  0  0  0  0  0  0  0  0
   48.1070   33.1160   40.4860 C   0  0  0  0  0  0  0  0  0  0  0  0
   48.2330   33.9560   41.7470 C   0  0  1  0  0  0  0  0  0  0  0  0
   46.4480   32.9790   42.4420 H   0  0  0  0  0  0  0  0  0  0  0  0
   44.9870   34.2310   41.0030 H   0  0  0  0  0  0  0  0  0  0  0  0
   46.2230   35.4450   40.6640 H   0  0  0  0  0  0  0  0  0  0  0  0
   46.0750   32.5650   39.8540 H   0  0  0  0  0  0  0  0  0  0  0  0
   46.8110   33.9680   38.9490 H   0  0  0  0  0  0  0  0  0  0  0  0
   48.0690   32.0550   40.8080 H   0  0  0  0  0  0  0  0  0  0  0  0
   48.9050   33.3330   39.7560 H   0  0  0  0  0  0  0  0  0  0  0  0
   48.8210   33.3950   42.5010 H   0  0  0  0  0  0  0  0  0  0  0  0
   48.7790   35.3240   41.4520 C   0  0  0  0  0  0  0  0  0  0  0  0
   49.3610   35.2520   40.4910 H   0  0  0  0  0  0  0  0  0  0  0  0
   48.0260   36.1150   41.3300 H   0  0  0  0  0  0  0  0  0  0  0  0
   49.6540   35.7660   42.4220 O   0  0  0  0  0  0  0  0  0  0  0  0
   50.1620   36.5350   42.1040 H   0  0  0  0  0  0  0  0  0  0  0  0
   46.4430   33.5080   45.5670 O   0  0  0  0  0  0  0  0  0  0  0  0
   46.1770   32.1710   45.5350 C   0  0  0  0  0  0  0  0  0  0  0  0
   47.1280   31.6680   45.1970 H   0  0  0  0  0  0  0  0  0  0  0  0
   45.4110   31.8180   44.8510 H   0  0  0  0  0  0  0  0  0  0  0  0
   45.6280   31.9520   49.2130 C   0  0  0  0  0  0  0  0  0  0  0  0
   45.9100   32.4970   47.9500 C   0  0  0  0  0  0  0  0  0  0  0  0
   45.8830   31.6220   46.8720 C   0  0  0  0  0  0  0  0  0  0  0  0
   45.5890   30.2960   47.0820 N   0  0  0  0  0  0  0  0  0  0  0  0
   45.3210   29.8000   48.3070 C   0  0  0  0  0  0  0  0  0  0  0  0
   45.3420   30.6250   49.3610 N   0  0  0  0  0  0  0  0  0  0  0  0
   45.6260   32.5590   50.1090 H   0  0  0  0  0  0  0  0  0  0  0  0
   46.1310   33.5330   47.8520 H   0  0  0  0  0  0  0  0  0  0  0  0
   45.5440   26.4530   47.5290 H   0  0  0  0  0  0  0  0  0  0  0  0
   45.6340   27.5340   47.5700 C   0  0  0  0  0  0  0  0  0  0  0  0
   46.3900   27.9530   46.6420 O   0  0  0  0  0  0  0  0  0  0  0  0
   45.0200   28.4230   48.5000 N   0  0  0  0  0  0  0  0  0  0  0  0
   44.4050   27.9590   49.2330 H   0  0  0  0  0  0  0  0  0  0  0  0
  2  1  2  1  0  0  0
  2 24  1  0  0  0  0
  3  2  1  0  0  0  0
  4  3  1  0  0  0  0
  5  2  1  0  0  0  0
  6 11  1  1  0  0  0
  6  5  1  0  0  0  0
  7 12  1  0  0  0  0
  7  6  1  0  0  0  0
  8  9  1  0  0  0  0
  8  7  1  0  0  0  0
  9 16  1  0  0  0  0
  9 10  1  0  0  0  0
 10  6  1  0  0  0  0
 10 18  1  1  0  0  0
 13  7  1  0  0  0  0
 14  8  1  0  0  0  0
 15  8  1  0  0  0  0
 17  9  1  0  0  0  0
 19 10  1  0  0  0  0
 19 22  1  0  0  0  0
 20 19  1  0  0  0  0
 21 19  1  0  0  0  0
 23 22  1  0  0  0  0
 25 24  1  0  0  0  0
 25 30  1  0  0  0  0
 26 25  1  0  0  0  0
 27 25  1  0  0  0  0
 28 33  1  0  0  0  0
 28 34  1  0  0  0  0
 29 28  2  0  0  0  0
 30 31  2  0  0  0  0
 30 29  1  0  0  0  0
 31 32  1  0  0  0  0
 32 39  1  0  0  0  0
 32 33  2  0  0  0  0
 35 29  1  0  0  0  0
 36 37  1  0  0  0  0
 37 39  1  0  0  0  0
 38 37  2  0  0  0  0
 39 40  1  0  0  0  0
M  END
>  <minimizedAffinity>
-5.4729867

>  <minimizedRMSD>
0.141260639

$$$$
