
 OpenBabel03242516213D

 24 25  0  0  0  0  0  0  0  0999 V2000
   37.2310   29.9250   40.2850 C   0  0  0  0  0  0  0  0  0  0  0  0
   37.2600   31.2730   40.6030 C   0  0  0  0  0  0  0  0  0  0  0  0
   37.2560   32.2350   39.6070 C   0  0  0  0  0  0  0  0  0  0  0  0
   37.2210   31.8930   38.2800 C   0  0  0  0  0  0  0  0  0  0  0  0
   37.1930   30.5700   37.9500 C   0  0  0  0  0  0  0  0  0  0  0  0
   37.1970   29.5980   38.9430 C   0  0  0  0  0  0  0  0  0  0  0  0
   37.2860   31.5020   41.6590 H   0  0  0  0  0  0  0  0  0  0  0  0
   37.2200   32.7080   37.5860 H   0  0  0  0  0  0  0  0  0  0  0  0
   37.1660   30.3040   36.9020 H   0  0  0  0  0  0  0  0  0  0  0  0
   37.1740   28.5640   38.6430 H   0  0  0  0  0  0  0  0  0  0  0  0
   37.4640   28.4500   43.6130 C   0  0  0  0  0  0  0  0  0  0  0  0
   37.2680   27.0790   43.3900 C   0  0  0  0  0  0  0  0  0  0  0  0
   37.0520   26.6570   42.0670 C   0  0  0  0  0  0  0  0  0  0  0  0
   37.0430   27.5860   41.0800 N   0  0  0  0  0  0  0  0  0  0  0  0
   37.2370   28.9100   41.3410 C   0  0  0  0  0  0  0  0  0  0  0  0
   37.4480   29.3430   42.6130 N   0  0  0  0  0  0  0  0  0  0  0  0
   37.6300   28.7760   44.6390 H   0  0  0  0  0  0  0  0  0  0  0  0
   37.2760   26.3360   44.1880 H   0  0  0  0  0  0  0  0  0  0  0  0
   36.8940   25.6180   41.8160 H   0  0  0  0  0  0  0  0  0  0  0  0
   38.5980   35.1820   40.5830 H   0  0  0  0  0  0  0  0  0  0  0  0
   38.5970   34.1610   40.2020 C   0  0  0  0  0  0  0  0  0  0  0  0
   39.5050   33.3680   39.8220 O   0  0  0  0  0  0  0  0  0  0  0  0
   37.2880   33.5820   40.1070 N   0  0  0  0  0  0  0  0  0  0  0  0
   36.3790   34.0280   40.3570 H   0  0  0  0  0  0  0  0  0  0  0  0
  1  2  1  0  0  0  0
  1 15  1  0  0  0  0
  2  7  1  0  0  0  0
  3 23  1  0  0  0  0
  3  2  2  0  0  0  0
  4  3  1  0  0  0  0
  5  4  2  0  0  0  0
  5  6  1  0  0  0  0
  6  1  2  0  0  0  0
  8  4  1  0  0  0  0
  9  5  1  0  0  0  0
 10  6  1  0  0  0  0
 11 17  1  0  0  0  0
 12 11  1  0  0  0  0
 12 18  1  0  0  0  0
 13 12  2  0  0  0  0
 14 15  2  0  0  0  0
 14 13  1  0  0  0  0
 15 16  1  0  0  0  0
 16 11  2  0  0  0  0
 19 13  1  0  0  0  0
 21 20  1  0  0  0  0
 22 21  2  0  0  0  0
 23 21  1  0  0  0  0
 23 24  1  0  0  0  0
M  END
>  <minimizedAffinity>
-4.89463758

$$$$

 OpenBabel03242516213D

 24 25  0  0  0  0  0  0  0  0999 V2000
   37.9120   31.3040   41.0510 C   0  0  0  0  0  0  0  0  0  0  0  0
   39.0950   31.9760   41.3090 C   0  0  0  0  0  0  0  0  0  0  0  0
   39.3680   33.1880   40.6980 C   0  0  0  0  0  0  0  0  0  0  0  0
   38.4850   33.7640   39.8210 C   0  0  0  0  0  0  0  0  0  0  0  0
   37.3160   33.1140   39.5550 C   0  0  0  0  0  0  0  0  0  0  0  0
   37.0330   31.8980   40.1640 C   0  0  0  0  0  0  0  0  0  0  0  0
   39.7640   31.4900   42.0060 H   0  0  0  0  0  0  0  0  0  0  0  0
   38.7870   34.7010   39.4010 H   0  0  0  0  0  0  0  0  0  0  0  0
   36.6220   33.5710   38.8630 H   0  0  0  0  0  0  0  0  0  0  0  0
   36.1000   31.4150   39.9290 H   0  0  0  0  0  0  0  0  0  0  0  0
   36.3140   28.0980   41.7380 C   0  0  0  0  0  0  0  0  0  0  0  0
   37.0150   27.6010   42.8470 C   0  0  0  0  0  0  0  0  0  0  0  0
   38.0580   28.3880   43.3650 C   0  0  0  0  0  0  0  0  0  0  0  0
   38.3330   29.5760   42.7750 N   0  0  0  0  0  0  0  0  0  0  0  0
   37.6270   30.0220   41.6980 C   0  0  0  0  0  0  0  0  0  0  0  0
   36.6120   29.2780   41.1780 N   0  0  0  0  0  0  0  0  0  0  0  0
   35.5060   27.4870   41.3370 H   0  0  0  0  0  0  0  0  0  0  0  0
   36.7890   26.6440   43.3180 H   0  0  0  0  0  0  0  0  0  0  0  0
   38.6430   28.0720   44.2170 H   0  0  0  0  0  0  0  0  0  0  0  0
   42.6720   33.8820   40.4950 H   0  0  0  0  0  0  0  0  0  0  0  0
   41.7220   33.4460   40.1900 C   0  0  0  0  0  0  0  0  0  0  0  0
   41.3640   32.7210   39.2180 O   0  0  0  0  0  0  0  0  0  0  0  0
   40.6350   33.7520   41.0750 N   0  0  0  0  0  0  0  0  0  0  0  0
   40.6700   34.3270   41.9440 H   0  0  0  0  0  0  0  0  0  0  0  0
  1  2  1  0  0  0  0
  1 15  1  0  0  0  0
  2  7  1  0  0  0  0
  3 23  1  0  0  0  0
  3  2  2  0  0  0  0
  4  3  1  0  0  0  0
  5  4  2  0  0  0  0
  5  6  1  0  0  0  0
  6  1  2  0  0  0  0
  8  4  1  0  0  0  0
  9  5  1  0  0  0  0
 10  6  1  0  0  0  0
 11 12  1  0  0  0  0
 12 18  1  0  0  0  0
 12 13  2  0  0  0  0
 13 19  1  0  0  0  0
 14 13  1  0  0  0  0
 15 14  2  0  0  0  0
 16 15  1  0  0  0  0
 16 11  2  0  0  0  0
 17 11  1  0  0  0  0
 21 20  1  0  0  0  0
 21 23  1  0  0  0  0
 22 21  2  0  0  0  0
 23 24  1  0  0  0  0
M  END
>  <minimizedAffinity>
-4.64804792

$$$$

 OpenBabel03242516213D

 24 25  0  0  0  0  0  0  0  0999 V2000
   37.2150   27.3980   41.1120 C   0  0  0  0  0  0  0  0  0  0  0  0
   36.8970   28.7020   41.4530 C   0  0  0  0  0  0  0  0  0  0  0  0
   36.0350   29.4480   40.6670 C   0  0  0  0  0  0  0  0  0  0  0  0
   35.4670   28.9280   39.5320 C   0  0  0  0  0  0  0  0  0  0  0  0
   35.7720   27.6450   39.1830 C   0  0  0  0  0  0  0  0  0  0  0  0
   36.6360   26.8890   39.9650 C   0  0  0  0  0  0  0  0  0  0  0  0
   37.3630   29.0750   42.3540 H   0  0  0  0  0  0  0  0  0  0  0  0
   34.8140   29.5830   38.9930 H   0  0  0  0  0  0  0  0  0  0  0  0
   35.3230   27.2390   38.2870 H   0  0  0  0  0  0  0  0  0  0  0  0
   36.8510   25.8800   39.6560 H   0  0  0  0  0  0  0  0  0  0  0  0
   39.6820   26.6080   43.6790 C   0  0  0  0  0  0  0  0  0  0  0  0
   39.8700   25.2230   43.5540 C   0  0  0  0  0  0  0  0  0  0  0  0
   39.1310   24.5510   42.5660 C   0  0  0  0  0  0  0  0  0  0  0  0
   38.2810   25.2660   41.7890 N   0  0  0  0  0  0  0  0  0  0  0  0
   38.1290   26.6120   41.9440 C   0  0  0  0  0  0  0  0  0  0  0  0
   38.8330   27.2850   42.8940 N   0  0  0  0  0  0  0  0  0  0  0  0
   40.2560   27.1270   44.4460 H   0  0  0  0  0  0  0  0  0  0  0  0
   40.5550   24.6540   44.1820 H   0  0  0  0  0  0  0  0  0  0  0  0
   39.2220   23.4860   42.4090 H   0  0  0  0  0  0  0  0  0  0  0  0
   36.5120   32.7760   41.0270 H   0  0  0  0  0  0  0  0  0  0  0  0
   36.7000   31.7760   40.6400 C   0  0  0  0  0  0  0  0  0  0  0  0
   37.5380   31.2970   39.8240 O   0  0  0  0  0  0  0  0  0  0  0  0
   35.8100   30.7780   41.1610 N   0  0  0  0  0  0  0  0  0  0  0  0
   35.0350   30.9180   41.8450 H   0  0  0  0  0  0  0  0  0  0  0  0
  1  2  1  0  0  0  0
  1 15  1  0  0  0  0
  2  7  1  0  0  0  0
  3 23  1  0  0  0  0
  3  2  2  0  0  0  0
  4  3  1  0  0  0  0
  5  4  2  0  0  0  0
  5  6  1  0  0  0  0
  6  1  2  0  0  0  0
  8  4  1  0  0  0  0
  9  5  1  0  0  0  0
 10  6  1  0  0  0  0
 11 17  1  0  0  0  0
 12 11  1  0  0  0  0
 12 18  1  0  0  0  0
 13 12  2  0  0  0  0
 14 15  2  0  0  0  0
 14 13  1  0  0  0  0
 15 16  1  0  0  0  0
 16 11  2  0  0  0  0
 19 13  1  0  0  0  0
 21 20  1  0  0  0  0
 21 23  1  0  0  0  0
 22 21  2  0  0  0  0
 23 24  1  0  0  0  0
M  END
>  <minimizedAffinity>
-4.57822561

$$$$

 OpenBabel03242516213D

 24 25  0  0  0  0  0  0  0  0999 V2000
   38.1730   27.3180   42.3110 C   0  0  0  0  0  0  0  0  0  0  0  0
   37.8520   26.0110   41.9820 C   0  0  0  0  0  0  0  0  0  0  0  0
   38.5810   24.9530   42.4970 C   0  0  0  0  0  0  0  0  0  0  0  0
   39.6390   25.1560   43.3460 C   0  0  0  0  0  0  0  0  0  0  0  0
   39.9670   26.4380   43.6800 C   0  0  0  0  0  0  0  0  0  0  0  0
   39.2420   27.5060   43.1670 C   0  0  0  0  0  0  0  0  0  0  0  0
   37.0130   25.8930   41.3110 H   0  0  0  0  0  0  0  0  0  0  0  0
   40.1380   24.2750   43.6910 H   0  0  0  0  0  0  0  0  0  0  0  0
   40.8020   26.5940   44.3490 H   0  0  0  0  0  0  0  0  0  0  0  0
   39.5320   28.5020   43.4540 H   0  0  0  0  0  0  0  0  0  0  0  0
   35.4770   29.1230   40.6460 C   0  0  0  0  0  0  0  0  0  0  0  0
   35.8820   30.4660   40.7020 C   0  0  0  0  0  0  0  0  0  0  0  0
   37.1090   30.7510   41.3260 C   0  0  0  0  0  0  0  0  0  0  0  0
   37.8330   29.7270   41.8390 N   0  0  0  0  0  0  0  0  0  0  0  0
   37.4010   28.4360   41.7630 C   0  0  0  0  0  0  0  0  0  0  0  0
   36.2170   28.1340   41.1630 N   0  0  0  0  0  0  0  0  0  0  0  0
   34.5260   28.9040   40.1620 H   0  0  0  0  0  0  0  0  0  0  0  0
   35.2950   31.2850   40.2880 H   0  0  0  0  0  0  0  0  0  0  0  0
   37.4880   31.7600   41.4080 H   0  0  0  0  0  0  0  0  0  0  0  0
   38.2180   22.2880   40.4470 H   0  0  0  0  0  0  0  0  0  0  0  0
   38.5810   23.2660   40.7600 C   0  0  0  0  0  0  0  0  0  0  0  0
   39.3290   24.1350   40.2250 O   0  0  0  0  0  0  0  0  0  0  0  0
   38.1180   23.6660   42.0580 N   0  0  0  0  0  0  0  0  0  0  0  0
   37.4940   23.1300   42.6990 H   0  0  0  0  0  0  0  0  0  0  0  0
  1  6  1  0  0  0  0
  2  1  2  0  0  0  0
  2  3  1  0  0  0  0
  3  4  2  0  0  0  0
  4  5  1  0  0  0  0
  4  8  1  0  0  0  0
  5  9  1  0  0  0  0
  6 10  1  0  0  0  0
  6  5  2  0  0  0  0
  7  2  1  0  0  0  0
 11 12  2  0  0  0  0
 11 16  1  0  0  0  0
 12 13  1  0  0  0  0
 13 19  1  0  0  0  0
 13 14  2  0  0  0  0
 15 14  1  0  0  0  0
 15  1  1  0  0  0  0
 16 15  2  0  0  0  0
 17 11  1  0  0  0  0
 18 12  1  0  0  0  0
 20 21  1  0  0  0  0
 21 23  1  0  0  0  0
 22 21  2  0  0  0  0
 23  3  1  0  0  0  0
 23 24  1  0  0  0  0
M  END
>  <minimizedAffinity>
-4.56601524

$$$$

 OpenBabel03242516213D

 24 25  0  0  0  0  0  0  0  0999 V2000
   37.3060   26.8570   41.6040 C   0  0  0  0  0  0  0  0  0  0  0  0
   36.5980   28.0130   41.3180 C   0  0  0  0  0  0  0  0  0  0  0  0
   36.8260   29.1760   42.0330 C   0  0  0  0  0  0  0  0  0  0  0  0
   37.7540   29.2290   43.0420 C   0  0  0  0  0  0  0  0  0  0  0  0
   38.4590   28.0980   43.3350 C   0  0  0  0  0  0  0  0  0  0  0  0
   38.2370   26.9260   42.6230 C   0  0  0  0  0  0  0  0  0  0  0  0
   35.8770   27.9320   40.5170 H   0  0  0  0  0  0  0  0  0  0  0  0
   37.8570   30.1730   43.5350 H   0  0  0  0  0  0  0  0  0  0  0  0
   39.1900   28.1430   44.1310 H   0  0  0  0  0  0  0  0  0  0  0  0
   38.8130   26.0550   42.8840 H   0  0  0  0  0  0  0  0  0  0  0  0
   36.1680   24.6550   38.9280 C   0  0  0  0  0  0  0  0  0  0  0  0
   36.5560   23.3750   39.3540 C   0  0  0  0  0  0  0  0  0  0  0  0
   37.2230   23.2730   40.5870 C   0  0  0  0  0  0  0  0  0  0  0  0
   37.4560   24.4030   41.2980 N   0  0  0  0  0  0  0  0  0  0  0  0
   37.0620   25.6270   40.8460 C   0  0  0  0  0  0  0  0  0  0  0  0
   36.4150   25.7520   39.6560 N   0  0  0  0  0  0  0  0  0  0  0  0
   35.6520   24.7330   37.9720 H   0  0  0  0  0  0  0  0  0  0  0  0
   36.3660   22.4700   38.7780 H   0  0  0  0  0  0  0  0  0  0  0  0
   37.5520   22.3220   40.9820 H   0  0  0  0  0  0  0  0  0  0  0  0
   36.0080   32.0140   40.3860 H   0  0  0  0  0  0  0  0  0  0  0  0
   36.6430   31.1840   40.6930 C   0  0  0  0  0  0  0  0  0  0  0  0
   37.8270   30.8390   40.4140 O   0  0  0  0  0  0  0  0  0  0  0  0
   36.0110   30.2810   41.6110 N   0  0  0  0  0  0  0  0  0  0  0  0
   35.0430   30.3450   41.9950 H   0  0  0  0  0  0  0  0  0  0  0  0
  1  6  1  0  0  0  0
  2  1  2  0  0  0  0
  2  3  1  0  0  0  0
  3  4  2  0  0  0  0
  4  5  1  0  0  0  0
  4  8  1  0  0  0  0
  5  9  1  0  0  0  0
  6 10  1  0  0  0  0
  6  5  2  0  0  0  0
  7  2  1  0  0  0  0
 11 12  2  0  0  0  0
 11 16  1  0  0  0  0
 12 13  1  0  0  0  0
 13 19  1  0  0  0  0
 13 14  2  0  0  0  0
 15 14  1  0  0  0  0
 15  1  1  0  0  0  0
 16 15  2  0  0  0  0
 17 11  1  0  0  0  0
 18 12  1  0  0  0  0
 20 21  1  0  0  0  0
 21 23  1  0  0  0  0
 22 21  2  0  0  0  0
 23 24  1  0  0  0  0
 23  3  1  0  0  0  0
M  END
>  <minimizedAffinity>
-4.528018

$$$$

 OpenBabel03242516213D

 24 25  0  0  0  0  0  0  0  0999 V2000
   37.4960   28.6330   41.7440 C   0  0  0  0  0  0  0  0  0  0  0  0
   37.6890   29.9870   41.5220 C   0  0  0  0  0  0  0  0  0  0  0  0
   36.7180   30.7450   40.8900 C   0  0  0  0  0  0  0  0  0  0  0  0
   35.5380   30.1900   40.4630 C   0  0  0  0  0  0  0  0  0  0  0  0
   35.3340   28.8580   40.6740 C   0  0  0  0  0  0  0  0  0  0  0  0
   36.3030   28.0890   41.3080 C   0  0  0  0  0  0  0  0  0  0  0  0
   38.6300   30.3870   41.8730 H   0  0  0  0  0  0  0  0  0  0  0  0
   34.8520   30.8580   39.9860 H   0  0  0  0  0  0  0  0  0  0  0  0
   34.4030   28.4230   40.3360 H   0  0  0  0  0  0  0  0  0  0  0  0
   36.1050   27.0410   41.4560 H   0  0  0  0  0  0  0  0  0  0  0  0
   39.3070   25.7080   42.9550 C   0  0  0  0  0  0  0  0  0  0  0  0
   40.4070   26.2500   43.6380 C   0  0  0  0  0  0  0  0  0  0  0  0
   40.5240   27.6500   43.6790 C   0  0  0  0  0  0  0  0  0  0  0  0
   39.5790   28.4010   43.0650 N   0  0  0  0  0  0  0  0  0  0  0  0
   38.5260   27.8340   42.4120 C   0  0  0  0  0  0  0  0  0  0  0  0
   38.3900   26.4810   42.3580 N   0  0  0  0  0  0  0  0  0  0  0  0
   39.2180   24.6230   42.9230 H   0  0  0  0  0  0  0  0  0  0  0  0
   41.1640   25.6400   44.1300 H   0  0  0  0  0  0  0  0  0  0  0  0
   41.3430   28.1400   44.1860 H   0  0  0  0  0  0  0  0  0  0  0  0
   37.8890   33.5290   39.3690 H   0  0  0  0  0  0  0  0  0  0  0  0
   37.6260   32.4770   39.4620 C   0  0  0  0  0  0  0  0  0  0  0  0
   37.7010   31.4840   38.6820 O   0  0  0  0  0  0  0  0  0  0  0  0
   37.0740   32.1290   40.7390 N   0  0  0  0  0  0  0  0  0  0  0  0
   36.9100   32.7630   41.5510 H   0  0  0  0  0  0  0  0  0  0  0  0
  1 15  1  0  0  0  0
  2  1  1  0  0  0  0
  2  7  1  0  0  0  0
  3  2  2  0  0  0  0
  4  5  2  0  0  0  0
  4  3  1  0  0  0  0
  5  6  1  0  0  0  0
  6 10  1  0  0  0  0
  6  1  2  0  0  0  0
  8  4  1  0  0  0  0
  9  5  1  0  0  0  0
 11 12  1  0  0  0  0
 12 13  2  0  0  0  0
 12 18  1  0  0  0  0
 13 19  1  0  0  0  0
 14 13  1  0  0  0  0
 15 14  2  0  0  0  0
 16 15  1  0  0  0  0
 16 11  2  0  0  0  0
 17 11  1  0  0  0  0
 20 21  1  0  0  0  0
 21 23  1  0  0  0  0
 22 21  2  0  0  0  0
 23  3  1  0  0  0  0
 23 24  1  0  0  0  0
M  END
>  <minimizedAffinity>
-4.36241341

$$$$

 OpenBabel03242516213D

 24 25  0  0  0  0  0  0  0  0999 V2000
   37.9330   31.0730   40.0790 C   0  0  0  0  0  0  0  0  0  0  0  0
   37.9110   30.5530   41.3630 C   0  0  0  0  0  0  0  0  0  0  0  0
   36.8910   29.7080   41.7660 C   0  0  0  0  0  0  0  0  0  0  0  0
   35.8740   29.3550   40.9160 C   0  0  0  0  0  0  0  0  0  0  0  0
   35.8820   29.8590   39.6490 C   0  0  0  0  0  0  0  0  0  0  0  0
   36.9010   30.7080   39.2360 C   0  0  0  0  0  0  0  0  0  0  0  0
   38.7290   30.8550   42.0020 H   0  0  0  0  0  0  0  0  0  0  0  0
   35.1330   28.6960   41.3210 H   0  0  0  0  0  0  0  0  0  0  0  0
   35.0780   29.5780   38.9820 H   0  0  0  0  0  0  0  0  0  0  0  0
   36.8730   31.0850   38.2280 H   0  0  0  0  0  0  0  0  0  0  0  0
   40.3030   33.8450   40.1440 C   0  0  0  0  0  0  0  0  0  0  0  0
   41.0230   33.7030   38.9480 C   0  0  0  0  0  0  0  0  0  0  0  0
   40.6840   32.6300   38.1060 C   0  0  0  0  0  0  0  0  0  0  0  0
   39.6880   31.7940   38.4850 N   0  0  0  0  0  0  0  0  0  0  0  0
   39.0130   31.9680   39.6570 C   0  0  0  0  0  0  0  0  0  0  0  0
   39.3230   32.9990   40.4890 N   0  0  0  0  0  0  0  0  0  0  0  0
   40.5670   34.6760   40.7960 H   0  0  0  0  0  0  0  0  0  0  0  0
   41.8240   34.3790   38.6490 H   0  0  0  0  0  0  0  0  0  0  0  0
   41.1930   32.4560   37.1690 H   0  0  0  0  0  0  0  0  0  0  0  0
   37.7740   27.6800   44.3240 H   0  0  0  0  0  0  0  0  0  0  0  0
   37.6900   28.0020   43.2870 C   0  0  0  0  0  0  0  0  0  0  0  0
   38.0580   27.5050   42.1840 O   0  0  0  0  0  0  0  0  0  0  0  0
   37.0170   29.2590   43.1250 N   0  0  0  0  0  0  0  0  0  0  0  0
   36.6200   29.8640   43.8750 H   0  0  0  0  0  0  0  0  0  0  0  0
  1  2  1  0  0  0  0
  2  3  2  0  0  0  0
  2  7  1  0  0  0  0
  3 23  1  0  0  0  0
  4  8  1  0  0  0  0
  4  3  1  0  0  0  0
  5  4  2  0  0  0  0
  6  5  1  0  0  0  0
  6  1  2  0  0  0  0
  9  5  1  0  0  0  0
 10  6  1  0  0  0  0
 11 16  1  0  0  0  0
 11 17  1  0  0  0  0
 12 11  2  0  0  0  0
 13 14  2  0  0  0  0
 13 12  1  0  0  0  0
 14 15  1  0  0  0  0
 15  1  1  0  0  0  0
 15 16  2  0  0  0  0
 18 12  1  0  0  0  0
 19 13  1  0  0  0  0
 21 20  1  0  0  0  0
 22 21  2  0  0  0  0
 23 21  1  0  0  0  0
 23 24  1  0  0  0  0
M  END
>  <minimizedAffinity>
-4.35669279

$$$$

 OpenBabel03242516213D

 24 25  0  0  0  0  0  0  0  0999 V2000
   37.6440   28.5910   41.6240 C   0  0  0  0  0  0  0  0  0  0  0  0
   36.3540   28.4640   41.1350 C   0  0  0  0  0  0  0  0  0  0  0  0
   35.6840   29.5580   40.6170 C   0  0  0  0  0  0  0  0  0  0  0  0
   36.2660   30.7990   40.5660 C   0  0  0  0  0  0  0  0  0  0  0  0
   37.5360   30.9400   41.0430 C   0  0  0  0  0  0  0  0  0  0  0  0
   38.2170   29.8480   41.5660 C   0  0  0  0  0  0  0  0  0  0  0  0
   35.9300   27.4710   41.1930 H   0  0  0  0  0  0  0  0  0  0  0  0
   35.6670   31.5800   40.1460 H   0  0  0  0  0  0  0  0  0  0  0  0
   37.9920   31.9200   41.0020 H   0  0  0  0  0  0  0  0  0  0  0  0
   39.2180   29.9990   41.9330 H   0  0  0  0  0  0  0  0  0  0  0  0
   39.9560   26.6440   43.6660 C   0  0  0  0  0  0  0  0  0  0  0  0
   39.7290   25.3190   43.2640 C   0  0  0  0  0  0  0  0  0  0  0  0
   38.7600   25.0950   42.2710 C   0  0  0  0  0  0  0  0  0  0  0  0
   38.0990   26.1590   41.7550 N   0  0  0  0  0  0  0  0  0  0  0  0
   38.3500   27.4310   42.1740 C   0  0  0  0  0  0  0  0  0  0  0  0
   39.2840   27.6740   43.1340 N   0  0  0  0  0  0  0  0  0  0  0  0
   40.7070   26.8160   44.4360 H   0  0  0  0  0  0  0  0  0  0  0  0
   40.2650   24.4670   43.6840 H   0  0  0  0  0  0  0  0  0  0  0  0
   38.5300   24.1030   41.9110 H   0  0  0  0  0  0  0  0  0  0  0  0
   33.2420   28.7580   38.4180 H   0  0  0  0  0  0  0  0  0  0  0  0
   34.2550   28.9850   38.7480 C   0  0  0  0  0  0  0  0  0  0  0  0
   35.3710   29.0630   38.1580 O   0  0  0  0  0  0  0  0  0  0  0  0
   34.3580   29.2550   40.1530 N   0  0  0  0  0  0  0  0  0  0  0  0
   33.5870   29.2550   40.8550 H   0  0  0  0  0  0  0  0  0  0  0  0
  1 15  1  0  0  0  0
  2  7  1  0  0  0  0
  2  1  2  0  0  0  0
  3  2  1  0  0  0  0
  4  3  2  0  0  0  0
  4  5  1  0  0  0  0
  5  6  2  0  0  0  0
  6  1  1  0  0  0  0
  6 10  1  0  0  0  0
  8  4  1  0  0  0  0
  9  5  1  0  0  0  0
 11 17  1  0  0  0  0
 12 11  1  0  0  0  0
 12 18  1  0  0  0  0
 13 12  2  0  0  0  0
 14 15  2  0  0  0  0
 14 13  1  0  0  0  0
 15 16  1  0  0  0  0
 16 11  2  0  0  0  0
 19 13  1  0  0  0  0
 20 21  1  0  0  0  0
 21 23  1  0  0  0  0
 22 21  2  0  0  0  0
 23  3  1  0  0  0  0
 23 24  1  0  0  0  0
M  END
>  <minimizedAffinity>
-4.34296989

$$$$

 OpenBabel03242516213D

 24 25  0  0  0  0  0  0  0  0999 V2000
   38.0080   25.0860   41.9500 C   0  0  0  0  0  0  0  0  0  0  0  0
   37.2790   26.2520   42.1210 C   0  0  0  0  0  0  0  0  0  0  0  0
   37.7240   27.2450   42.9760 C   0  0  0  0  0  0  0  0  0  0  0  0
   38.8940   27.1150   43.6800 C   0  0  0  0  0  0  0  0  0  0  0  0
   39.6230   25.9720   43.5220 C   0  0  0  0  0  0  0  0  0  0  0  0
   39.1840   24.9700   42.6660 C   0  0  0  0  0  0  0  0  0  0  0  0
   36.3630   26.3170   41.5500 H   0  0  0  0  0  0  0  0  0  0  0  0
   39.1540   27.9370   44.3140 H   0  0  0  0  0  0  0  0  0  0  0  0
   40.5450   25.8730   44.0780 H   0  0  0  0  0  0  0  0  0  0  0  0
   39.7870   24.0830   42.5680 H   0  0  0  0  0  0  0  0  0  0  0  0
   35.8320   23.2810   39.6450 C   0  0  0  0  0  0  0  0  0  0  0  0
   36.5560   22.1190   39.3350 C   0  0  0  0  0  0  0  0  0  0  0  0
   37.8170   21.9580   39.9340 C   0  0  0  0  0  0  0  0  0  0  0  0
   38.2690   22.9220   40.7720 N   0  0  0  0  0  0  0  0  0  0  0  0
   37.5330   24.0360   41.0450 C   0  0  0  0  0  0  0  0  0  0  0  0
   36.3090   24.2150   40.4790 N   0  0  0  0  0  0  0  0  0  0  0  0
   34.8550   23.4050   39.1800 H   0  0  0  0  0  0  0  0  0  0  0  0
   36.1870   21.3480   38.6600 H   0  0  0  0  0  0  0  0  0  0  0  0
   38.4330   21.0900   39.7440 H   0  0  0  0  0  0  0  0  0  0  0  0
   36.5290   30.3160   42.2190 H   0  0  0  0  0  0  0  0  0  0  0  0
   37.2020   29.4620   42.1560 C   0  0  0  0  0  0  0  0  0  0  0  0
   38.2330   29.2090   41.4690 O   0  0  0  0  0  0  0  0  0  0  0  0
   36.8530   28.3850   43.0380 N   0  0  0  0  0  0  0  0  0  0  0  0
   36.0510   28.3490   43.7040 H   0  0  0  0  0  0  0  0  0  0  0  0
  1  2  2  0  0  0  0
  1  6  1  0  0  0  0
  2  3  1  0  0  0  0
  3 23  1  0  0  0  0
  3  4  2  0  0  0  0
  4  8  1  0  0  0  0
  5  4  1  0  0  0  0
  5  9  1  0  0  0  0
  6  5  2  0  0  0  0
  7  2  1  0  0  0  0
 10  6  1  0  0  0  0
 11 16  1  0  0  0  0
 12 11  2  0  0  0  0
 12 13  1  0  0  0  0
 13 14  2  0  0  0  0
 14 15  1  0  0  0  0
 15  1  1  0  0  0  0
 16 15  2  0  0  0  0
 17 11  1  0  0  0  0
 18 12  1  0  0  0  0
 19 13  1  0  0  0  0
 21 20  1  0  0  0  0
 21 23  1  0  0  0  0
 22 21  2  0  0  0  0
 23 24  1  0  0  0  0
M  END
>  <minimizedAffinity>
-4.32870483

$$$$
