
 OpenBabel03252509353D

 40 41  0  0  1  0  0  0  0  0999 V2000
   44.3020   35.5730   44.0460 O   0  0  0  0  0  0  0  0  0  0  0  0
   45.2170   34.3930   44.3100 P   0  0  1  0  0  0  0  0  0  0  0  0
   44.5990   32.9910   43.5900 O   0  0  0  0  0  0  0  0  0  0  0  0
   44.2900   33.1430   42.6580 H   0  0  0  0  0  0  0  0  0  0  0  0
   46.7170   34.7500   43.6630 O   0  0  0  0  0  0  0  0  0  0  0  0
   46.9640   33.9230   42.5600 C   0  0  1  0  0  0  0  0  0  0  0  0
   46.5090   34.6230   41.2770 C   0  0  0  0  0  0  0  0  0  0  0  0
   47.1270   33.7300   40.2350 C   0  0  0  0  0  0  0  0  0  0  0  0
   48.3540   33.1090   40.8880 C   0  0  0  0  0  0  0  0  0  0  0  0
   48.4200   33.7380   42.2710 C   0  0  1  0  0  0  0  0  0  0  0  0
   46.4360   32.9740   42.5900 H   0  0  0  0  0  0  0  0  0  0  0  0
   45.3820   34.6270   41.2030 H   0  0  0  0  0  0  0  0  0  0  0  0
   46.8120   35.6630   41.2060 H   0  0  0  0  0  0  0  0  0  0  0  0
   46.3740   32.9820   39.9430 H   0  0  0  0  0  0  0  0  0  0  0  0
   47.4200   34.3600   39.3620 H   0  0  0  0  0  0  0  0  0  0  0  0
   48.1230   32.0340   41.0340 H   0  0  0  0  0  0  0  0  0  0  0  0
   49.2700   33.2940   40.3000 H   0  0  0  0  0  0  0  0  0  0  0  0
   48.8110   32.9910   42.9920 H   0  0  0  0  0  0  0  0  0  0  0  0
   49.1890   35.0280   42.2600 C   0  0  0  0  0  0  0  0  0  0  0  0
   49.6810   35.1150   41.2510 H   0  0  0  0  0  0  0  0  0  0  0  0
   48.5900   35.9340   42.4210 H   0  0  0  0  0  0  0  0  0  0  0  0
   50.1940   35.0530   43.2040 O   0  0  0  0  0  0  0  0  0  0  0  0
   50.8130   35.7870   43.0280 H   0  0  0  0  0  0  0  0  0  0  0  0
   45.3300   34.0880   45.9450 O   0  0  0  0  0  0  0  0  0  0  0  0
   46.3800   33.2490   46.1680 C   0  0  0  0  0  0  0  0  0  0  0  0
   47.1120   33.8210   46.8070 H   0  0  0  0  0  0  0  0  0  0  0  0
   46.9560   32.9100   45.3120 H   0  0  0  0  0  0  0  0  0  0  0  0
   44.9640   31.1300   48.8860 C   0  0  0  0  0  0  0  0  0  0  0  0
   45.3180   32.2740   48.1510 C   0  0  0  0  0  0  0  0  0  0  0  0
   45.9960   32.0630   46.9580 C   0  0  0  0  0  0  0  0  0  0  0  0
   46.2820   30.7800   46.5580 N   0  0  0  0  0  0  0  0  0  0  0  0
   45.9290   29.7000   47.2840 C   0  0  0  0  0  0  0  0  0  0  0  0
   45.2760   29.8790   48.4380 N   0  0  0  0  0  0  0  0  0  0  0  0
   44.4340   31.1990   49.8280 H   0  0  0  0  0  0  0  0  0  0  0  0
   45.0670   33.2410   48.5140 H   0  0  0  0  0  0  0  0  0  0  0  0
   45.6050   26.2720   47.3560 H   0  0  0  0  0  0  0  0  0  0  0  0
   45.5290   27.3430   47.5220 C   0  0  0  0  0  0  0  0  0  0  0  0
   44.6880   27.5910   48.4400 O   0  0  0  0  0  0  0  0  0  0  0  0
   46.2370   28.3800   46.8490 N   0  0  0  0  0  0  0  0  0  0  0  0
   46.9150   28.0540   46.0990 H   0  0  0  0  0  0  0  0  0  0  0  0
  2  1  2  6  0  0  0
  2 24  1  0  0  0  0
  3  2  1  0  0  0  0
  4  3  1  0  0  0  0
  5  2  1  0  0  0  0
  6 11  1  1  0  0  0
  6  5  1  0  0  0  0
  7  6  1  0  0  0  0
  8  9  1  0  0  0  0
  8  7  1  0  0  0  0
  9 16  1  0  0  0  0
  9 10  1  0  0  0  0
 10  6  1  0  0  0  0
 10 18  1  1  0  0  0
 12  7  1  0  0  0  0
 13  7  1  0  0  0  0
 14  8  1  0  0  0  0
 15  8  1  0  0  0  0
 17  9  1  0  0  0  0
 19 10  1  0  0  0  0
 19 21  1  0  0  0  0
 19 22  1  0  0  0  0
 20 19  1  0  0  0  0
 23 22  1  0  0  0  0
 24 25  1  0  0  0  0
 25 26  1  0  0  0  0
 25 30  1  0  0  0  0
 27 25  1  0  0  0  0
 28 34  1  0  0  0  0
 29 35  1  0  0  0  0
 29 28  2  0  0  0  0
 30 29  1  0  0  0  0
 31 30  2  0  0  0  0
 31 32  1  0  0  0  0
 32 33  2  0  0  0  0
 33 28  1  0  0  0  0
 36 37  1  0  0  0  0
 37 38  2  0  0  0  0
 39 32  1  0  0  0  0
 39 37  1  0  0  0  0
 40 39  1  0  0  0  0
M  END
>  <minimizedAffinity>
-5.71333742

>  <minimizedRMSD>
1.24899161

$$$$
