
 OpenBabel03252509353D

 40 41  0  0  1  0  0  0  0  0999 V2000
   44.5170   35.4950   44.0880 O   0  0  0  0  0  0  0  0  0  0  0  0
   45.3830   34.2780   44.3500 P   0  0  1  0  0  0  0  0  0  0  0  0
   44.6940   32.8990   43.6500 O   0  0  0  0  0  0  0  0  0  0  0  0
   44.3800   33.0580   42.7210 H   0  0  0  0  0  0  0  0  0  0  0  0
   46.8880   34.5640   43.6810 O   0  0  0  0  0  0  0  0  0  0  0  0
   47.0170   33.8440   42.4860 C   0  0  1  0  0  0  0  0  0  0  0  0
   46.4540   34.6660   41.3240 C   0  0  0  0  0  0  0  0  0  0  0  0
   46.9580   33.8730   40.1490 C   0  0  0  0  0  0  0  0  0  0  0  0
   48.2310   33.1850   40.6190 C   0  0  0  0  0  0  0  0  0  0  0  0
   48.4370   33.6790   42.0430 C   0  0  1  0  0  0  0  0  0  0  0  0
   46.4800   32.8990   42.4760 H   0  0  0  0  0  0  0  0  0  0  0  0
   45.3250   34.6840   41.3590 H   0  0  0  0  0  0  0  0  0  0  0  0
   46.7640   35.7060   41.3230 H   0  0  0  0  0  0  0  0  0  0  0  0
   46.1690   33.1610   39.8600 H   0  0  0  0  0  0  0  0  0  0  0  0
   47.1750   34.5810   39.3150 H   0  0  0  0  0  0  0  0  0  0  0  0
   47.9990   32.1030   40.6850 H   0  0  0  0  0  0  0  0  0  0  0  0
   49.0900   33.4200   39.9670 H   0  0  0  0  0  0  0  0  0  0  0  0
   48.8830   32.8640   42.6500 H   0  0  0  0  0  0  0  0  0  0  0  0
   49.2210   34.9590   42.0810 C   0  0  0  0  0  0  0  0  0  0  0  0
   49.9260   34.9450   41.2030 H   0  0  0  0  0  0  0  0  0  0  0  0
   48.6230   35.8790   42.0170 H   0  0  0  0  0  0  0  0  0  0  0  0
   49.9920   35.0750   43.2180 O   0  0  0  0  0  0  0  0  0  0  0  0
   50.6530   35.7850   43.1150 H   0  0  0  0  0  0  0  0  0  0  0  0
   45.5040   33.9810   45.9860 O   0  0  0  0  0  0  0  0  0  0  0  0
   46.5190   33.0980   46.2020 C   0  0  0  0  0  0  0  0  0  0  0  0
   47.3170   33.6650   46.7640 H   0  0  0  0  0  0  0  0  0  0  0  0
   47.0260   32.6770   45.3380 H   0  0  0  0  0  0  0  0  0  0  0  0
   44.8280   31.1760   48.9090 C   0  0  0  0  0  0  0  0  0  0  0  0
   45.1920   32.2510   48.0820 C   0  0  0  0  0  0  0  0  0  0  0  0
   46.1200   31.9840   47.0840 C   0  0  0  0  0  0  0  0  0  0  0  0
   46.6270   30.7140   46.9520 N   0  0  0  0  0  0  0  0  0  0  0  0
   46.2580   29.7010   47.7600 C   0  0  0  0  0  0  0  0  0  0  0  0
   45.3660   29.9350   48.7310 N   0  0  0  0  0  0  0  0  0  0  0  0
   44.1120   31.2920   49.7130 H   0  0  0  0  0  0  0  0  0  0  0  0
   44.7640   33.2130   48.2350 H   0  0  0  0  0  0  0  0  0  0  0  0
   46.0300   26.2680   47.5760 H   0  0  0  0  0  0  0  0  0  0  0  0
   45.8440   27.3360   47.6690 C   0  0  0  0  0  0  0  0  0  0  0  0
   44.6080   27.5570   47.8510 O   0  0  0  0  0  0  0  0  0  0  0  0
   46.7980   28.3930   47.6050 N   0  0  0  0  0  0  0  0  0  0  0  0
   47.8030   28.0870   47.4480 H   0  0  0  0  0  0  0  0  0  0  0  0
  2  1  2  6  0  0  0
  2 24  1  0  0  0  0
  3  2  1  0  0  0  0
  4  3  1  0  0  0  0
  5  2  1  0  0  0  0
  6 11  1  1  0  0  0
  6  5  1  0  0  0  0
  7 12  1  0  0  0  0
  7  6  1  0  0  0  0
  8  9  1  0  0  0  0
  8  7  1  0  0  0  0
  9 16  1  0  0  0  0
  9 10  1  0  0  0  0
 10 19  1  0  0  0  0
 10  6  1  0  0  0  0
 10 18  1  1  0  0  0
 13  7  1  0  0  0  0
 14  8  1  0  0  0  0
 15  8  1  0  0  0  0
 17  9  1  0  0  0  0
 19 22  1  0  0  0  0
 20 19  1  0  0  0  0
 21 19  1  0  0  0  0
 23 22  1  0  0  0  0
 24 25  1  0  0  0  0
 25 26  1  0  0  0  0
 25 30  1  0  0  0  0
 27 25  1  0  0  0  0
 28 34  1  0  0  0  0
 29 35  1  0  0  0  0
 29 28  2  0  0  0  0
 30 29  1  0  0  0  0
 31 30  2  0  0  0  0
 31 32  1  0  0  0  0
 32 33  2  0  0  0  0
 33 28  1  0  0  0  0
 36 37  1  0  0  0  0
 37 38  2  0  0  0  0
 39 37  1  0  0  0  0
 39 32  1  0  0  0  0
 40 39  1  0  0  0  0
M  END
>  <minimizedAffinity>
-5.73486328

>  <minimizedRMSD>
1.28339684

$$$$
