
 OpenBabel03252509353D

 40 41  0  0  1  0  0  0  0  0999 V2000
   44.7100   35.4030   44.9360 O   0  0  0  0  0  0  0  0  0  0  0  0
   45.5480   34.2800   44.3560 P   0  0  1  0  0  0  0  0  0  0  0  0
   44.5550   33.0990   43.6590 O   0  0  0  0  0  0  0  0  0  0  0  0
   43.8370   33.4880   43.0920 H   0  0  0  0  0  0  0  0  0  0  0  0
   46.5530   34.9360   43.1920 O   0  0  0  0  0  0  0  0  0  0  0  0
   46.8050   33.9840   42.1950 C   0  0  1  0  0  0  0  0  0  0  0  0
   46.0930   34.3890   40.9020 C   0  0  0  0  0  0  0  0  0  0  0  0
   46.7260   33.4380   39.9230 C   0  0  0  0  0  0  0  0  0  0  0  0
   48.1070   33.1200   40.4780 C   0  0  0  0  0  0  0  0  0  0  0  0
   48.2280   33.9700   41.7330 C   0  0  1  0  0  0  0  0  0  0  0  0
   46.4490   32.9850   42.4350 H   0  0  0  0  0  0  0  0  0  0  0  0
   44.9800   34.2160   40.9880 H   0  0  0  0  0  0  0  0  0  0  0  0
   46.2070   35.4370   40.6400 H   0  0  0  0  0  0  0  0  0  0  0  0
   46.0790   32.5500   39.8500 H   0  0  0  0  0  0  0  0  0  0  0  0
   46.8050   33.9520   38.9360 H   0  0  0  0  0  0  0  0  0  0  0  0
   48.0770   32.0620   40.8080 H   0  0  0  0  0  0  0  0  0  0  0  0
   48.9040   33.3380   39.7470 H   0  0  0  0  0  0  0  0  0  0  0  0
   48.8190   33.4180   42.4920 H   0  0  0  0  0  0  0  0  0  0  0  0
   48.7640   35.3390   41.4290 C   0  0  0  0  0  0  0  0  0  0  0  0
   49.3490   35.2640   40.4700 H   0  0  0  0  0  0  0  0  0  0  0  0
   48.0050   36.1240   41.2990 H   0  0  0  0  0  0  0  0  0  0  0  0
   49.6330   35.7950   42.3970 O   0  0  0  0  0  0  0  0  0  0  0  0
   50.1360   36.5670   42.0740 H   0  0  0  0  0  0  0  0  0  0  0  0
   46.4320   33.5250   45.5510 O   0  0  0  0  0  0  0  0  0  0  0  0
   46.1670   32.1890   45.5210 C   0  0  0  0  0  0  0  0  0  0  0  0
   47.1160   31.6860   45.1750 H   0  0  0  0  0  0  0  0  0  0  0  0
   45.3950   31.8340   44.8440 H   0  0  0  0  0  0  0  0  0  0  0  0
   45.6320   31.9730   49.2020 C   0  0  0  0  0  0  0  0  0  0  0  0
   45.9020   32.5190   47.9360 C   0  0  0  0  0  0  0  0  0  0  0  0
   45.8850   31.6400   46.8610 C   0  0  0  0  0  0  0  0  0  0  0  0
   45.6110   30.3100   47.0770 N   0  0  0  0  0  0  0  0  0  0  0  0
   45.3540   29.8150   48.3030 C   0  0  0  0  0  0  0  0  0  0  0  0
   45.3660   30.6430   49.3550 N   0  0  0  0  0  0  0  0  0  0  0  0
   45.6240   32.5840   50.0960 H   0  0  0  0  0  0  0  0  0  0  0  0
   46.1070   33.5570   47.8340 H   0  0  0  0  0  0  0  0  0  0  0  0
   44.5090   26.6510   47.2340 H   0  0  0  0  0  0  0  0  0  0  0  0
   44.7550   27.7060   47.3180 C   0  0  0  0  0  0  0  0  0  0  0  0
   44.7280   28.2600   46.1770 O   0  0  0  0  0  0  0  0  0  0  0  0
   45.0740   28.4340   48.5020 N   0  0  0  0  0  0  0  0  0  0  0  0
   45.0650   27.8650   49.4000 H   0  0  0  0  0  0  0  0  0  0  0  0
  2  1  2  1  0  0  0
  2 24  1  0  0  0  0
  3  2  1  0  0  0  0
  4  3  1  0  0  0  0
  5  2  1  0  0  0  0
  6 11  1  1  0  0  0
  6  5  1  0  0  0  0
  7 12  1  0  0  0  0
  7  6  1  0  0  0  0
  8  9  1  0  0  0  0
  8  7  1  0  0  0  0
  9 16  1  0  0  0  0
  9 10  1  0  0  0  0
 10  6  1  0  0  0  0
 10 18  1  1  0  0  0
 13  7  1  0  0  0  0
 14  8  1  0  0  0  0
 15  8  1  0  0  0  0
 17  9  1  0  0  0  0
 19 10  1  0  0  0  0
 19 22  1  0  0  0  0
 20 19  1  0  0  0  0
 21 19  1  0  0  0  0
 23 22  1  0  0  0  0
 25 24  1  0  0  0  0
 25 30  1  0  0  0  0
 26 25  1  0  0  0  0
 27 25  1  0  0  0  0
 28 33  1  0  0  0  0
 28 34  1  0  0  0  0
 29 28  2  0  0  0  0
 30 31  2  0  0  0  0
 30 29  1  0  0  0  0
 31 32  1  0  0  0  0
 32 39  1  0  0  0  0
 32 33  2  0  0  0  0
 35 29  1  0  0  0  0
 36 37  1  0  0  0  0
 37 39  1  0  0  0  0
 38 37  2  0  0  0  0
 39 40  1  0  0  0  0
M  END
>  <minimizedAffinity>
-5.48789072

>  <minimizedRMSD>
0.164635971

$$$$
